0:0
     RDKit          3D

 65 67  0  0  0  0  0  0  0  0999 V2000
   56.4700   24.8240   47.3870 C   0  0  0  0  0  0  0  0  0  0  0  0
   56.0000   25.6110   46.2340 N   0  0  0  0  0  0  0  0  0  0  0  0
   54.8650   24.9070   45.6270 C   0  0  0  0  0  0  0  0  0  0  0  0
   57.0970   25.7920   45.2510 C   0  0  0  0  0  0  0  0  0  0  0  0
   58.4870   25.6740   45.9070 C   0  0  0  0  0  0  0  0  0  0  0  0
   58.9620   26.9680   46.5840 C   0  0  0  0  0  0  0  0  0  0  0  0
   57.8910   27.9630   46.6650 N   0  0  0  0  0  0  0  0  0  0  0  0
   58.1250   29.3350   46.2950 C   0  0  0  0  0  0  0  0  0  0  0  0
   57.6530   29.8290   45.0700 C   0  0  0  0  0  0  0  0  0  0  0  0
   56.9980   28.9750   44.1600 C   0  0  0  0  0  0  0  0  0  0  0  0
   56.5450   29.4580   42.9370 C   0  0  0  0  0  0  0  0  0  0  0  0
   56.7580   30.7870   42.5890 C   0  0  0  0  0  0  0  0  0  0  0  0
   57.4150   31.6450   43.4670 C   0  0  0  0  0  0  0  0  0  0  0  0
   57.8690   31.1920   44.7330 C   0  0  0  0  0  0  0  0  0  0  0  0
   58.5100   32.0410   45.6190 N   0  0  0  0  0  0  0  0  0  0  0  0
   58.9080   33.3900   45.1460 C   0  0  0  0  0  0  0  0  0  0  0  0
   58.8290   31.6000   46.8910 C   0  0  0  0  0  0  0  0  0  0  0  0
   59.2530   32.4820   47.9190 C   0  0  0  0  0  0  0  0  0  0  0  0
   59.6820   32.0080   49.1600 C   0  0  0  0  0  0  0  0  0  0  0  0
   60.1140   32.9380   50.1210 O   0  0  0  0  0  0  0  0  0  0  0  0
   61.4670   33.0710   50.5720 C   0  0  0  0  0  0  0  0  0  0  0  0
   62.3090   33.8620   49.5360 C   0  0  0  0  0  0  0  0  0  0  0  0
   63.2720   33.0790   48.6720 N   0  0  0  0  0  0  0  0  0  0  0  0
   62.8750   31.6670   48.4110 C   0  0  0  0  0  0  0  0  0  0  0  0
   64.6110   33.0580   49.3180 C   0  0  0  0  0  0  0  0  0  0  0  0
   63.4170   33.7550   47.3570 C   0  0  0  0  0  0  0  0  0  0  0  0
   59.6750   30.6340   49.4050 C   0  0  0  0  0  0  0  0  0  0  0  0
   59.1860   29.7610   48.4470 C   0  0  0  0  0  0  0  0  0  0  0  0
   58.7180   30.2240   47.2070 C   0  0  0  0  0  0  0  0  0  0  0  0
   56.1708   25.3251   48.3194 H   0  0  0  0  0  0  0  0  0  0  0  0
   56.0240   23.8191   47.3513 H   0  0  0  0  0  0  0  0  0  0  0  0
   57.5662   24.7401   47.3513 H   0  0  0  0  0  0  0  0  0  0  0  0
   54.2167   24.5049   46.4194 H   0  0  0  0  0  0  0  0  0  0  0  0
   54.2902   25.6074   45.0032 H   0  0  0  0  0  0  0  0  0  0  0  0
   55.2371   24.0809   45.0032 H   0  0  0  0  0  0  0  0  0  0  0  0
   57.0058   25.0213   44.4715 H   0  0  0  0  0  0  0  0  0  0  0  0
   57.0075   26.8022   44.8249 H   0  0  0  0  0  0  0  0  0  0  0  0
   58.4462   24.8794   46.6666 H   0  0  0  0  0  0  0  0  0  0  0  0
   59.2038   25.4499   45.1033 H   0  0  0  0  0  0  0  0  0  0  0  0
   59.3066   26.7319   47.6016 H   0  0  0  0  0  0  0  0  0  0  0  0
   59.7775   27.3913   45.9792 H   0  0  0  0  0  0  0  0  0  0  0  0
   56.8990   27.6330   46.6650 H   0  0  0  0  0  0  0  0  0  0  0  0
   56.8437   27.9172   44.4194 H   0  0  0  0  0  0  0  0  0  0  0  0
   56.0170   28.7870   42.2435 H   0  0  0  0  0  0  0  0  0  0  0  0
   56.4062   31.1620   41.6166 H   0  0  0  0  0  0  0  0  0  0  0  0
   57.5850   32.6917   43.1744 H   0  0  0  0  0  0  0  0  0  0  0  0
   59.0999   34.0404   46.0121 H   0  0  0  0  0  0  0  0  0  0  0  0
   59.8210   33.3106   44.5376 H   0  0  0  0  0  0  0  0  0  0  0  0
   58.0981   33.8190   44.5376 H   0  0  0  0  0  0  0  0  0  0  0  0
   59.2433   33.5662   47.7332 H   0  0  0  0  0  0  0  0  0  0  0  0
   61.4776   33.6072   51.5324 H   0  0  0  0  0  0  0  0  0  0  0  0
   61.9022   32.0680   50.6933 H   0  0  0  0  0  0  0  0  0  0  0  0
   61.6059   34.3750   48.8634 H   0  0  0  0  0  0  0  0  0  0  0  0
   62.9491   34.5210   50.1410 H   0  0  0  0  0  0  0  0  0  0  0  0
   62.7281   31.1446   49.3678 H   0  0  0  0  0  0  0  0  0  0  0  0
   61.9373   31.6500   47.8362 H   0  0  0  0  0  0  0  0  0  0  0  0
   63.6665   31.1638   47.8362 H   0  0  0  0  0  0  0  0  0  0  0  0
   64.4907   33.0599   50.4114 H   0  0  0  0  0  0  0  0  0  0  0  0
   65.1524   32.1513   49.0103 H   0  0  0  0  0  0  0  0  0  0  0  0
   65.1806   33.9473   49.0103 H   0  0  0  0  0  0  0  0  0  0  0  0
   63.6453   34.8194   47.5151 H   0  0  0  0  0  0  0  0  0  0  0  0
   64.2347   33.2847   46.7911 H   0  0  0  0  0  0  0  0  0  0  0  0
   62.4784   33.6614   46.7911 H   0  0  0  0  0  0  0  0  0  0  0  0
   60.0581   30.2440   50.3595 H   0  0  0  0  0  0  0  0  0  0  0  0
   59.1639   28.6825   48.6623 H   0  0  0  0  0  0  0  0  0  0  0  0
  1  2  1  0
  2  3  1  0
  2  4  1  0
  4  5  1  0
  5  6  1  0
  6  7  1  0
  7  8  1  0
  8  9  2  0
  9 10  1  0
 10 11  2  0
 11 12  1  0
 12 13  2  0
 13 14  1  0
 14 15  2  0
 15 16  1  0
 15 17  1  0
 17 18  2  0
 18 19  1  0
 19 20  1  0
 20 21  1  0
 21 22  1  0
 22 23  1  0
 23 24  1  0
 23 25  1  0
 23 26  1  0
 19 27  2  0
 27 28  1  0
 28 29  2  0
 29  8  1  0
 14  9  1  0
 29 17  1  0
  1 30  1  0
  1 31  1  0
  1 32  1  0
  3 33  1  0
  3 34  1  0
  3 35  1  0
  4 36  1  0
  4 37  1  0
  5 38  1  0
  5 39  1  0
  6 40  1  0
  6 41  1  0
  7 42  1  0
 10 43  1  0
 11 44  1  0
 12 45  1  0
 13 46  1  0
 16 47  1  0
 16 48  1  0
 16 49  1  0
 18 50  1  0
 21 51  1  0
 21 52  1  0
 22 53  1  0
 22 54  1  0
 24 55  1  0
 24 56  1  0
 24 57  1  0
 25 58  1  0
 25 59  1  0
 25 60  1  0
 26 61  1  0
 26 62  1  0
 26 63  1  0
 27 64  1  0
 28 65  1  0
M  CHG  2  15   1  23   1
M  END
>  <UniqueID>  (1) 
1

>  <SMILES>  (1) 
CN(C)CCCNc1c2ccccc2[n+](C)c2cc(OCC[N+](C)(C)C)ccc12

>  <Energy>  (1) 
107.90900070589582

>  <Genealogy>  (1) 
CN(C)CCCNc1c2ccccc2[n+](C)c2cc(OCC[N+](C)(C)C)ccc12 (3D coordinates assigned)
CN(C)CCCNc1c2ccccc2[n+](C)c2cc(OCC[N+](C)(C)C)ccc12 (optimized conformer: 107.90900070589582 kcal/mol)

>  <smiles>  (1) 
CN(C)CCCNc1c2ccccc2[n+](C)c2cc(OCC[N+](C)(C)C)ccc12

>  <score_type>  (1) 
oracle

>  <origin>  (1) 
adg

>  <m_score__min__energy>  (1) 
-4.54

>  <m_primary>  (1) 
energy

$$$$
1:0
     RDKit          3D

 56 58  0  0  0  0  0  0  0  0999 V2000
   54.2400   21.4380   46.0950 C   0  0  0  0  0  0  0  0  0  0  0  0
   54.8590   22.2540   45.1060 O   0  0  0  0  0  0  0  0  0  0  0  0
   56.1230   22.8530   45.2310 C   0  0  0  0  0  0  0  0  0  0  0  0
   57.2950   22.1270   44.9360 C   0  0  0  0  0  0  0  0  0  0  0  0
   58.5500   22.7170   45.0680 C   0  0  0  0  0  0  0  0  0  0  0  0
   58.6610   24.0390   45.4880 C   0  0  0  0  0  0  0  0  0  0  0  0
   57.5130   24.7920   45.7710 C   0  0  0  0  0  0  0  0  0  0  0  0
   57.6660   26.2150   46.2520 C   0  0  0  0  0  0  0  0  0  0  0  0
   56.8310   27.1190   45.4620 N   0  0  0  0  0  0  0  0  0  0  0  0
   57.1300   28.5150   45.3510 C   0  0  0  0  0  0  0  0  0  0  0  0
   57.8720   29.2380   46.2810 C   0  0  0  0  0  0  0  0  0  0  0  0
   58.0110   30.5800   45.9120 C   0  0  0  0  0  0  0  0  0  0  0  0
   58.7030   31.5610   46.6250 C   0  0  0  0  0  0  0  0  0  0  0  0
   58.7500   32.8800   46.1170 C   0  0  0  0  0  0  0  0  0  0  0  0
   59.4930   33.9280   46.8570 C   0  0  0  0  0  0  0  0  0  0  0  0
   59.1430   35.1340   46.7460 O   0  0  0  0  0  0  0  0  0  0  0  0
   60.6140   33.5910   47.6900 N   0  0  0  0  0  0  0  0  0  0  0  0
   61.1950   34.5690   48.6120 C   0  0  0  0  0  0  0  0  0  0  0  0
   62.6430   34.2010   49.0100 C   0  0  0  0  0  0  0  0  0  0  0  0
   63.1670   32.9590   48.3940 N   0  0  0  0  0  0  0  0  0  0  0  0
   64.1230   32.2390   49.2470 C   0  0  0  0  0  0  0  0  0  0  0  0
   63.7070   33.1630   47.0400 C   0  0  0  0  0  0  0  0  0  0  0  0
   58.1070   33.1750   44.8880 C   0  0  0  0  0  0  0  0  0  0  0  0
   57.4170   32.1780   44.1820 C   0  0  0  0  0  0  0  0  0  0  0  0
   57.3840   30.8940   44.7170 C   0  0  0  0  0  0  0  0  0  0  0  0
   56.6450   29.5260   44.0800 S   0  0  0  0  0  0  0  0  0  0  0  0
   56.2330   24.2030   45.6600 C   0  0  0  0  0  0  0  0  0  0  0  0
   55.1230   25.0050   45.9930 O   0  0  0  0  0  0  0  0  0  0  0  0
   53.7780   24.8190   45.5640 C   0  0  0  0  0  0  0  0  0  0  0  0
   54.5160   21.8018   47.0957 H   0  0  0  0  0  0  0  0  0  0  0  0
   53.1473   21.4837   45.9767 H   0  0  0  0  0  0  0  0  0  0  0  0
   54.5785   20.3981   45.9767 H   0  0  0  0  0  0  0  0  0  0  0  0
   57.2176   21.0831   44.5979 H   0  0  0  0  0  0  0  0  0  0  0  0
   59.4558   22.1362   44.8396 H   0  0  0  0  0  0  0  0  0  0  0  0
   59.6555   24.4959   45.5986 H   0  0  0  0  0  0  0  0  0  0  0  0
   57.3636   26.2740   47.3080 H   0  0  0  0  0  0  0  0  0  0  0  0
   58.7181   26.5157   46.1396 H   0  0  0  0  0  0  0  0  0  0  0  0
   55.9860   26.7520   44.9680 H   0  0  0  0  0  0  0  0  0  0  0  0
   58.2986   28.8050   47.1978 H   0  0  0  0  0  0  0  0  0  0  0  0
   59.2058   31.3108   47.5709 H   0  0  0  0  0  0  0  0  0  0  0  0
   61.0550   32.6500   47.5890 H   0  0  0  0  0  0  0  0  0  0  0  0
   61.2002   35.5558   48.1260 H   0  0  0  0  0  0  0  0  0  0  0  0
   60.5835   34.5789   49.5263 H   0  0  0  0  0  0  0  0  0  0  0  0
   63.2998   35.0321   48.7134 H   0  0  0  0  0  0  0  0  0  0  0  0
   62.6268   34.0220   50.0952 H   0  0  0  0  0  0  0  0  0  0  0  0
   63.8807   32.4215   50.3043 H   0  0  0  0  0  0  0  0  0  0  0  0
   64.0616   31.1609   49.0375 H   0  0  0  0  0  0  0  0  0  0  0  0
   65.1422   32.5957   49.0375 H   0  0  0  0  0  0  0  0  0  0  0  0
   64.7340   33.5510   47.1094 H   0  0  0  0  0  0  0  0  0  0  0  0
   63.7127   32.2051   46.4993 H   0  0  0  0  0  0  0  0  0  0  0  0
   63.0779   33.8854   46.4993 H   0  0  0  0  0  0  0  0  0  0  0  0
   58.1497   34.1971   44.4836 H   0  0  0  0  0  0  0  0  0  0  0  0
   56.9150   32.4056   43.2300 H   0  0  0  0  0  0  0  0  0  0  0  0
   53.1222   24.7283   46.4424 H   0  0  0  0  0  0  0  0  0  0  0  0
   53.4634   25.6822   44.9591 H   0  0  0  0  0  0  0  0  0  0  0  0
   53.7094   23.9028   44.9591 H   0  0  0  0  0  0  0  0  0  0  0  0
  1  2  1  0
  2  3  1  0
  3  4  2  0
  4  5  1  0
  5  6  2  0
  6  7  1  0
  7  8  1  0
  8  9  1  0
  9 10  1  0
 10 11  2  0
 11 12  1  0
 12 13  2  0
 13 14  1  0
 14 15  1  0
 15 16  2  0
 15 17  1  0
 17 18  1  0
 18 19  1  0
 19 20  1  0
 20 21  1  0
 20 22  1  0
 14 23  2  0
 23 24  1  0
 24 25  2  0
 25 26  1  0
  7 27  2  0
 27 28  1  0
 28 29  1  0
 27  3  1  0
 26 10  1  0
 25 12  1  0
  1 30  1  0
  1 31  1  0
  1 32  1  0
  4 33  1  0
  5 34  1  0
  6 35  1  0
  8 36  1  0
  8 37  1  0
  9 38  1  0
 11 39  1  0
 13 40  1  0
 17 41  1  0
 18 42  1  0
 18 43  1  0
 19 44  1  0
 19 45  1  0
 21 46  1  0
 21 47  1  0
 21 48  1  0
 22 49  1  0
 22 50  1  0
 22 51  1  0
 23 52  1  0
 24 53  1  0
 29 54  1  0
 29 55  1  0
 29 56  1  0
M  END
>  <UniqueID>  (2) 
2

>  <SMILES>  (2) 
COc1cccc(CNc2cc3cc(C(=O)NCCN(C)C)ccc3s2)c1OC

>  <Energy>  (2) 
92.36106731372611

>  <Genealogy>  (2) 
COc1cccc(CNc2cc3cc(C(=O)NCCN(C)C)ccc3s2)c1OC (3D coordinates assigned)
COc1cccc(CNc2cc3cc(C(=O)NCCN(C)C)ccc3s2)c1OC (optimized conformer: 92.36106731372611 kcal/mol)

>  <smiles>  (2) 
COc1cccc(CNc2cc3cc(C(=O)NCCN(C)C)ccc3s2)c1OC

>  <score_type>  (2) 
oracle

>  <origin>  (2) 
adg

>  <m_score__min__energy>  (2) 
-8.1300000000000008

>  <m_primary>  (2) 
energy

$$$$
2:0
     RDKit          3D

 57 60  0  0  0  0  0  0  0  0999 V2000
   63.2950   32.5250   47.1360 C   0  0  0  0  0  0  0  0  0  0  0  0
   63.5010   31.9470   48.5450 C   0  0  0  0  0  0  0  0  0  0  0  0
   62.2840   31.9160   49.3960 N   0  0  0  0  0  0  0  0  0  0  0  0
   62.1400   32.9900   50.4020 C   0  0  0  0  0  0  0  0  0  0  0  0
   62.3580   34.3620   49.7680 C   0  0  0  0  0  0  0  0  0  0  0  0
   61.8970   30.5730   49.8820 C   0  0  0  0  0  0  0  0  0  0  0  0
   60.4810   30.5240   50.4850 C   0  0  0  0  0  0  0  0  0  0  0  0
   59.5770   29.5370   49.7380 C   0  0  0  0  0  0  0  0  0  0  0  0
   60.1300   29.2110   48.4250 N   0  0  0  0  0  0  0  0  0  0  0  0
   59.4650   29.6440   47.2310 C   0  0  0  0  0  0  0  0  0  0  0  0
   59.3600   31.0030   46.9470 C   0  0  0  0  0  0  0  0  0  0  0  0
   58.7760   31.4390   45.7740 C   0  0  0  0  0  0  0  0  0  0  0  0
   58.1650   30.5740   44.9020 N   0  0  0  0  0  0  0  0  0  0  0  0
   57.2800   31.0940   43.8450 C   0  0  0  0  0  0  0  0  0  0  0  0
   58.3430   29.2110   45.0880 C   0  0  0  0  0  0  0  0  0  0  0  0
   57.9260   28.2680   44.1190 C   0  0  0  0  0  0  0  0  0  0  0  0
   58.0750   26.8980   44.3390 C   0  0  0  0  0  0  0  0  0  0  0  0
   58.6470   26.4330   45.5200 C   0  0  0  0  0  0  0  0  0  0  0  0
   58.8140   24.7070   45.7900 Cl  0  0  0  0  0  0  0  0  0  0  0  0
   59.0990   27.3360   46.4820 C   0  0  0  0  0  0  0  0  0  0  0  0
   58.9790   28.7240   46.2760 C   0  0  0  0  0  0  0  0  0  0  0  0
   58.9460   32.8960   45.7060 C   0  0  0  0  0  0  0  0  0  0  0  0
   58.7370   33.8110   44.6620 C   0  0  0  0  0  0  0  0  0  0  0  0
   59.0790   35.1560   44.8660 C   0  0  0  0  0  0  0  0  0  0  0  0
   59.6610   35.5680   46.0770 C   0  0  0  0  0  0  0  0  0  0  0  0
   59.9290   34.6320   47.0860 C   0  0  0  0  0  0  0  0  0  0  0  0
   59.5730   33.2990   46.8750 C   0  0  0  0  0  0  0  0  0  0  0  0
   59.8790   32.1440   47.7710 C   0  0  0  0  0  0  0  0  0  0  0  0
   62.9266   33.5586   47.2139 H   0  0  0  0  0  0  0  0  0  0  0  0
   64.2515   32.5166   46.5928 H   0  0  0  0  0  0  0  0  0  0  0  0
   62.5594   31.9136   46.5928 H   0  0  0  0  0  0  0  0  0  0  0  0
   63.8701   30.9161   48.4401 H   0  0  0  0  0  0  0  0  0  0  0  0
   64.2121   32.6168   49.0506 H   0  0  0  0  0  0  0  0  0  0  0  0
   61.1281   32.9482   50.8314 H   0  0  0  0  0  0  0  0  0  0  0  0
   62.8963   32.8408   51.1867 H   0  0  0  0  0  0  0  0  0  0  0  0
   62.4779   35.1167   50.5593 H   0  0  0  0  0  0  0  0  0  0  0  0
   63.2636   34.3379   49.1440 H   0  0  0  0  0  0  0  0  0  0  0  0
   61.4895   34.6198   49.1440 H   0  0  0  0  0  0  0  0  0  0  0  0
   61.9401   29.8707   49.0365 H   0  0  0  0  0  0  0  0  0  0  0  0
   62.6002   30.3033   50.6837 H   0  0  0  0  0  0  0  0  0  0  0  0
   60.5531   30.2138   51.5379 H   0  0  0  0  0  0  0  0  0  0  0  0
   60.0376   31.5268   50.3973 H   0  0  0  0  0  0  0  0  0  0  0  0
   59.4862   28.6139   50.3294 H   0  0  0  0  0  0  0  0  0  0  0  0
   58.5906   30.0029   49.5970 H   0  0  0  0  0  0  0  0  0  0  0  0
   60.7680   28.3870   48.3550 H   0  0  0  0  0  0  0  0  0  0  0  0
   56.4183   31.6003   44.3045 H   0  0  0  0  0  0  0  0  0  0  0  0
   57.8355   31.8093   43.2207 H   0  0  0  0  0  0  0  0  0  0  0  0
   56.9255   30.2606   43.2207 H   0  0  0  0  0  0  0  0  0  0  0  0
   57.4777   28.6200   43.1782 H   0  0  0  0  0  0  0  0  0  0  0  0
   57.7386   26.1816   43.5751 H   0  0  0  0  0  0  0  0  0  0  0  0
   59.5536   26.9605   47.4106 H   0  0  0  0  0  0  0  0  0  0  0  0
   58.3132   33.4796   43.7025 H   0  0  0  0  0  0  0  0  0  0  0  0
   58.8902   35.8937   44.0722 H   0  0  0  0  0  0  0  0  0  0  0  0
   59.9072   36.6286   46.2339 H   0  0  0  0  0  0  0  0  0  0  0  0
   60.4103   34.9421   48.0253 H   0  0  0  0  0  0  0  0  0  0  0  0
   60.9592   32.0508   47.9565 H   0  0  0  0  0  0  0  0  0  0  0  0
   59.4373   32.2178   48.7757 H   0  0  0  0  0  0  0  0  0  0  0  0
  1  2  1  0
  2  3  1  0
  3  4  1  0
  4  5  1  0
  3  6  1  0
  6  7  1  0
  7  8  1  0
  8  9  1  0
  9 10  1  0
 10 11  2  0
 11 12  1  0
 12 13  2  0
 13 14  1  0
 13 15  1  0
 15 16  2  0
 16 17  1  0
 17 18  2  0
 18 19  1  0
 18 20  1  0
 20 21  2  0
 12 22  1  0
 22 23  2  0
 23 24  1  0
 24 25  2  0
 25 26  1  0
 26 27  2  0
 27 28  1  0
 21 10  1  0
 27 22  1  0
 28 11  1  0
 21 15  1  0
  1 29  1  0
  1 30  1  0
  1 31  1  0
  2 32  1  0
  2 33  1  0
  4 34  1  0
  4 35  1  0
  5 36  1  0
  5 37  1  0
  5 38  1  0
  6 39  1  0
  6 40  1  0
  7 41  1  0
  7 42  1  0
  8 43  1  0
  8 44  1  0
  9 45  1  0
 14 46  1  0
 14 47  1  0
 14 48  1  0
 16 49  1  0
 17 50  1  0
 20 51  1  0
 23 52  1  0
 24 53  1  0
 25 54  1  0
 26 55  1  0
 28 56  1  0
 28 57  1  0
M  CHG  1  13   1
M  END
>  <UniqueID>  (3) 
3

>  <SMILES>  (3) 
CCN(CC)CCCNc1c2c([n+](C)c3ccc(Cl)cc13)-c1ccccc1C2

>  <Energy>  (3) 
104.49151961146873

>  <Genealogy>  (3) 
CCN(CC)CCCNc1c2c([n+](C)c3ccc(Cl)cc13)-c1ccccc1C2 (3D coordinates assigned)
CCN(CC)CCCNc1c2c([n+](C)c3ccc(Cl)cc13)-c1ccccc1C2 (nonaromatic ring conformer: 104.49151961146873 kcal/mol)

>  <smiles>  (3) 
CCN(CC)CCCNc1c2c([n+](C)c3ccc(Cl)cc13)-c1ccccc1C2

>  <score_type>  (3) 
oracle

>  <origin>  (3) 
adg

>  <m_score__min__energy>  (3) 
-6.46

>  <m_primary>  (3) 
energy

$$$$
3:0
     RDKit          3D

 74 77  0  0  0  0  0  0  0  0999 V2000
   63.0890   33.0740   47.0970 C   0  0  0  0  0  0  0  0  0  0  0  0
   62.7460   31.7040   47.6720 C   0  0  0  0  0  0  0  0  0  0  0  0
   62.6090   31.7990   49.1430 N   0  0  0  0  0  0  0  0  0  0  0  0
   63.7690   32.4790   49.7770 C   0  0  0  0  0  0  0  0  0  0  0  0
   63.4600   33.8760   50.3350 C   0  0  0  0  0  0  0  0  0  0  0  0
   62.2320   30.5040   49.7570 C   0  0  0  0  0  0  0  0  0  0  0  0
   61.1550   29.7600   48.9510 C   0  0  0  0  0  0  0  0  0  0  0  0
   59.8460   29.6170   49.7370 C   0  0  0  0  0  0  0  0  0  0  0  0
   58.8200   30.5040   49.1930 N   0  0  0  0  0  0  0  0  0  0  0  0
   58.8920   30.9250   47.8240 C   0  0  0  0  0  0  0  0  0  0  0  0
   58.6460   29.9780   46.8160 C   0  0  0  0  0  0  0  0  0  0  0  0
   58.5880   28.5990   47.1160 C   0  0  0  0  0  0  0  0  0  0  0  0
   58.4020   27.6600   46.1050 C   0  0  0  0  0  0  0  0  0  0  0  0
   58.2790   28.0740   44.7840 C   0  0  0  0  0  0  0  0  0  0  0  0
   58.3020   29.4330   44.4720 C   0  0  0  0  0  0  0  0  0  0  0  0
   58.4430   30.4150   45.4860 C   0  0  0  0  0  0  0  0  0  0  0  0
   58.3680   31.7630   45.2110 N   0  0  0  0  0  0  0  0  0  0  0  0
   57.7870   32.2180   43.9260 C   0  0  0  0  0  0  0  0  0  0  0  0
   58.8070   32.6880   46.1430 C   0  0  0  0  0  0  0  0  0  0  0  0
   58.9580   34.0500   45.7950 C   0  0  0  0  0  0  0  0  0  0  0  0
   59.3280   34.9950   46.7370 C   0  0  0  0  0  0  0  0  0  0  0  0
   59.6530   34.6110   48.0250 C   0  0  0  0  0  0  0  0  0  0  0  0
   59.6510   33.2510   48.4060 C   0  0  0  0  0  0  0  0  0  0  0  0
   60.1900   32.8430   49.7000 N   0  0  0  0  0  0  0  0  0  0  0  0
   60.0750   33.8380   50.7840 C   0  0  0  0  0  0  0  0  0  0  0  0
   59.5670   33.1690   52.0830 C   0  0  0  0  0  0  0  0  0  0  0  0
   58.6190   32.0510   51.8750 N   0  0  0  0  0  0  0  0  0  0  0  0
   57.2090   32.3960   52.1110 C   0  0  0  0  0  0  0  0  0  0  0  0
   56.3080   31.2330   51.6420 C   0  0  0  0  0  0  0  0  0  0  0  0
   57.0500   30.0680   51.3230 O   0  0  0  0  0  0  0  0  0  0  0  0
   57.9120   29.7350   52.3950 C   0  0  0  0  0  0  0  0  0  0  0  0
   58.9940   30.8160   52.5880 C   0  0  0  0  0  0  0  0  0  0  0  0
   59.1210   32.2840   47.4790 C   0  0  0  0  0  0  0  0  0  0  0  0
   63.2665   33.7828   47.9193 H   0  0  0  0  0  0  0  0  0  0  0  0
   63.9952   32.9956   46.4785 H   0  0  0  0  0  0  0  0  0  0  0  0
   62.2527   33.4319   46.4785 H   0  0  0  0  0  0  0  0  0  0  0  0
   61.7979   31.3527   47.2386 H   0  0  0  0  0  0  0  0  0  0  0  0
   63.5502   30.9948   47.4266 H   0  0  0  0  0  0  0  0  0  0  0  0
   64.1260   31.8493   50.6052 H   0  0  0  0  0  0  0  0  0  0  0  0
   64.5216   32.6168   48.9867 H   0  0  0  0  0  0  0  0  0  0  0  0
   63.4676   33.8416   51.4344 H   0  0  0  0  0  0  0  0  0  0  0  0
   64.2225   34.5875   49.9851 H   0  0  0  0  0  0  0  0  0  0  0  0
   62.4686   34.1995   49.9851 H   0  0  0  0  0  0  0  0  0  0  0  0
   63.1280   29.8688   49.8183 H   0  0  0  0  0  0  0  0  0  0  0  0
   61.8164   30.7156   50.7532 H   0  0  0  0  0  0  0  0  0  0  0  0
   60.9542   30.3195   48.0254 H   0  0  0  0  0  0  0  0  0  0  0  0
   61.5317   28.7501   48.7315 H   0  0  0  0  0  0  0  0  0  0  0  0
   59.4963   28.5762   49.6706 H   0  0  0  0  0  0  0  0  0  0  0  0
   60.0308   29.8901   50.7864 H   0  0  0  0  0  0  0  0  0  0  0  0
   58.1730   31.0130   49.8380 H   0  0  0  0  0  0  0  0  0  0  0  0
   58.6908   28.2637   48.1586 H   0  0  0  0  0  0  0  0  0  0  0  0
   58.3523   26.5893   46.3521 H   0  0  0  0  0  0  0  0  0  0  0  0
   58.1633   27.3286   43.9834 H   0  0  0  0  0  0  0  0  0  0  0  0
   58.2093   29.7487   43.4224 H   0  0  0  0  0  0  0  0  0  0  0  0
   56.9352   32.8851   44.1245 H   0  0  0  0  0  0  0  0  0  0  0  0
   58.5510   32.7605   43.3498 H   0  0  0  0  0  0  0  0  0  0  0  0
   57.4435   31.3462   43.3498 H   0  0  0  0  0  0  0  0  0  0  0  0
   58.7782   34.3648   44.7565 H   0  0  0  0  0  0  0  0  0  0  0  0
   59.3636   36.0586   46.4588 H   0  0  0  0  0  0  0  0  0  0  0  0
   59.9180   35.3790   48.7666 H   0  0  0  0  0  0  0  0  0  0  0  0
   59.7040   31.9710   50.0060 H   0  0  0  0  0  0  0  0  0  0  0  0
   61.2130   32.6720   49.5770 H   0  0  0  0  0  0  0  0  0  0  0  0
   61.0622   34.2862   50.9700 H   0  0  0  0  0  0  0  0  0  0  0  0
   59.3571   34.6138   50.4796 H   0  0  0  0  0  0  0  0  0  0  0  0
   60.4381   32.7816   52.6318 H   0  0  0  0  0  0  0  0  0  0  0  0
   59.0158   33.9440   52.6357 H   0  0  0  0  0  0  0  0  0  0  0  0
   57.0498   32.5728   53.1850 H   0  0  0  0  0  0  0  0  0  0  0  0
   56.9554   33.3060   51.5475 H   0  0  0  0  0  0  0  0  0  0  0  0
   55.5979   30.9901   52.4462 H   0  0  0  0  0  0  0  0  0  0  0  0
   55.7880   31.5593   50.7292 H   0  0  0  0  0  0  0  0  0  0  0  0
   57.3209   29.6483   53.3186 H   0  0  0  0  0  0  0  0  0  0  0  0
   58.4069   28.7801   52.1640 H   0  0  0  0  0  0  0  0  0  0  0  0
   59.1006   31.0348   53.6607 H   0  0  0  0  0  0  0  0  0  0  0  0
   59.9464   30.4444   52.1819 H   0  0  0  0  0  0  0  0  0  0  0  0
  1  2  1  0
  2  3  1  0
  3  4  1  0
  4  5  1  0
  3  6  1  0
  6  7  1  0
  7  8  1  0
  8  9  1  0
  9 10  1  0
 10 11  2  0
 11 12  1  0
 12 13  2  0
 13 14  1  0
 14 15  2  0
 15 16  1  0
 16 17  2  0
 17 18  1  0
 17 19  1  0
 19 20  2  0
 20 21  1  0
 21 22  2  0
 22 23  1  0
 23 24  1  0
 24 25  1  0
 25 26  1  0
 26 27  1  0
 27 28  1  0
 28 29  1  0
 29 30  1  0
 30 31  1  0
 31 32  1  0
 23 33  2  0
 33 10  1  0
 16 11  1  0
 33 19  1  0
 32 27  1  0
  1 34  1  0
  1 35  1  0
  1 36  1  0
  2 37  1  0
  2 38  1  0
  4 39  1  0
  4 40  1  0
  5 41  1  0
  5 42  1  0
  5 43  1  0
  6 44  1  0
  6 45  1  0
  7 46  1  0
  7 47  1  0
  8 48  1  0
  8 49  1  0
  9 50  1  0
 12 51  1  0
 13 52  1  0
 14 53  1  0
 15 54  1  0
 18 55  1  0
 18 56  1  0
 18 57  1  0
 20 58  1  0
 21 59  1  0
 22 60  1  0
 24 61  1  0
 24 62  1  0
 25 63  1  0
 25 64  1  0
 26 65  1  0
 26 66  1  0
 28 67  1  0
 28 68  1  0
 29 69  1  0
 29 70  1  0
 31 71  1  0
 31 72  1  0
 32 73  1  0
 32 74  1  0
M  CHG  2  17   1  24   1
M  END
>  <UniqueID>  (4) 
4

>  <SMILES>  (4) 
CCN(CC)CCCNc1c2ccccc2[n+](C)c2cccc([NH2+]CCN3CCOCC3)c12

>  <Energy>  (4) 
127.7001736405076

>  <Genealogy>  (4) 
CCN(CC)CCCNc1c2ccccc2[n+](C)c2cccc([NH2+]CCN3CCOCC3)c12 (protonated)
CCN(CC)CCCNc1c2ccccc2[n+](C)c2cccc([NH2+]CCN3CCOCC3)c12 (3D coordinates assigned)
CCN(CC)CCCNc1c2ccccc2[n+](C)c2cccc([NH2+]CCN3CCOCC3)c12 (nonaromatic ring conformer: 127.7001736405076 kcal/mol)

>  <smiles>  (4) 
CCN(CC)CCCNc1c2ccccc2[n+](C)c2cccc(NCCN3CCOCC3)c12

>  <score_type>  (4) 
oracle

>  <origin>  (4) 
adg

>  <m_score__min__energy>  (4) 
-4.6299999999999999

>  <m_primary>  (4) 
energy

$$$$
4:0
     RDKit          3D

 47 49  0  0  0  0  0  0  0  0999 V2000
   63.3760   33.8460   46.3970 C   0  0  0  0  0  0  0  0  0  0  0  0
   62.5950   33.6180   47.6870 C   0  0  0  0  0  0  0  0  0  0  0  0
   62.9480   32.3030   48.2720 N   0  0  0  0  0  0  0  0  0  0  0  0
   64.2140   32.4080   49.0220 C   0  0  0  0  0  0  0  0  0  0  0  0
   61.8800   31.7900   49.1600 C   0  0  0  0  0  0  0  0  0  0  0  0
   60.9490   30.7960   48.4310 C   0  0  0  0  0  0  0  0  0  0  0  0
   61.1840   30.7340   46.9740 N   0  0  0  0  0  0  0  0  0  0  0  0
   59.9490   30.5510   46.2200 C   0  0  0  0  0  0  0  0  0  0  0  0
   59.1690   31.6840   45.8440 C   0  0  0  0  0  0  0  0  0  0  0  0
   59.5280   33.0010   46.2340 C   0  0  0  0  0  0  0  0  0  0  0  0
   58.7270   34.0930   45.9090 C   0  0  0  0  0  0  0  0  0  0  0  0
   57.5490   33.9070   45.2030 C   0  0  0  0  0  0  0  0  0  0  0  0
   56.7540   34.9700   44.9220 F   0  0  0  0  0  0  0  0  0  0  0  0
   57.1820   32.6320   44.7860 C   0  0  0  0  0  0  0  0  0  0  0  0
   57.9980   31.5040   45.0580 C   0  0  0  0  0  0  0  0  0  0  0  0
   57.6690   30.2560   44.5780 N   0  0  0  0  0  0  0  0  0  0  0  0
   56.6800   30.1240   43.4820 C   0  0  0  0  0  0  0  0  0  0  0  0
   58.2870   29.1330   45.0850 C   0  0  0  0  0  0  0  0  0  0  0  0
   57.7610   27.8390   44.8360 C   0  0  0  0  0  0  0  0  0  0  0  0
   58.4150   26.6940   45.2800 C   0  0  0  0  0  0  0  0  0  0  0  0
   57.7440   25.1080   44.9410 Cl  0  0  0  0  0  0  0  0  0  0  0  0
   59.6000   26.8060   45.9890 C   0  0  0  0  0  0  0  0  0  0  0  0
   60.1200   28.0620   46.2910 C   0  0  0  0  0  0  0  0  0  0  0  0
   59.4670   29.2530   45.8770 C   0  0  0  0  0  0  0  0  0  0  0  0
   64.4058   34.1466   46.6401 H   0  0  0  0  0  0  0  0  0  0  0  0
   63.3944   32.9157   45.8102 H   0  0  0  0  0  0  0  0  0  0  0  0
   62.8910   34.6401   45.8102 H   0  0  0  0  0  0  0  0  0  0  0  0
   62.8404   34.4135   48.4060 H   0  0  0  0  0  0  0  0  0  0  0  0
   61.5182   33.6343   47.4629 H   0  0  0  0  0  0  0  0  0  0  0  0
   64.0032   32.3905   50.1015 H   0  0  0  0  0  0  0  0  0  0  0  0
   64.8656   31.5608   48.7619 H   0  0  0  0  0  0  0  0  0  0  0  0
   64.7172   33.3510   48.7619 H   0  0  0  0  0  0  0  0  0  0  0  0
   62.3449   31.2788   50.0159 H   0  0  0  0  0  0  0  0  0  0  0  0
   61.2722   32.6455   49.4897 H   0  0  0  0  0  0  0  0  0  0  0  0
   61.1102   29.7932   48.8533 H   0  0  0  0  0  0  0  0  0  0  0  0
   59.9175   31.1482   48.5792 H   0  0  0  0  0  0  0  0  0  0  0  0
   61.8350   29.9440   46.7660 H   0  0  0  0  0  0  0  0  0  0  0  0
   61.7530   31.5500   46.6740 H   0  0  0  0  0  0  0  0  0  0  0  0
   60.4555   33.1619   46.8031 H   0  0  0  0  0  0  0  0  0  0  0  0
   59.0301   35.1056   46.2134 H   0  0  0  0  0  0  0  0  0  0  0  0
   56.2402   32.4955   44.2343 H   0  0  0  0  0  0  0  0  0  0  0  0
   55.6752   29.9899   43.9090 H   0  0  0  0  0  0  0  0  0  0  0  0
   56.6966   31.0323   42.8618 H   0  0  0  0  0  0  0  0  0  0  0  0
   56.9342   29.2518   42.8618 H   0  0  0  0  0  0  0  0  0  0  0  0
   56.8168   27.7390   44.2806 H   0  0  0  0  0  0  0  0  0  0  0  0
   60.1318   25.8998   46.3144 H   0  0  0  0  0  0  0  0  0  0  0  0
   61.0570   28.1331   46.8627 H   0  0  0  0  0  0  0  0  0  0  0  0
  1  2  1  0
  2  3  1  0
  3  4  1  0
  3  5  1  0
  5  6  1  0
  6  7  1  0
  7  8  1  0
  8  9  2  0
  9 10  1  0
 10 11  2  0
 11 12  1  0
 12 13  1  0
 12 14  2  0
 14 15  1  0
 15 16  2  0
 16 17  1  0
 16 18  1  0
 18 19  2  0
 19 20  1  0
 20 21  1  0
 20 22  2  0
 22 23  1  0
 23 24  2  0
 24  8  1  0
 15  9  1  0
 24 18  1  0
  1 25  1  0
  1 26  1  0
  1 27  1  0
  2 28  1  0
  2 29  1  0
  4 30  1  0
  4 31  1  0
  4 32  1  0
  5 33  1  0
  5 34  1  0
  6 35  1  0
  6 36  1  0
  7 37  1  0
  7 38  1  0
 10 39  1  0
 11 40  1  0
 14 41  1  0
 17 42  1  0
 17 43  1  0
 17 44  1  0
 19 45  1  0
 22 46  1  0
 23 47  1  0
M  CHG  2   7   1  16   1
M  END
>  <UniqueID>  (5) 
5

>  <SMILES>  (5) 
CCN(C)CC[NH2+]c1c2ccc(F)cc2[n+](C)c2cc(Cl)ccc12

>  <Energy>  (5) 
75.39991236165224

>  <Genealogy>  (5) 
CCN(C)CC[NH2+]c1c2ccc(F)cc2[n+](C)c2cc(Cl)ccc12 (protonated)
CCN(C)CC[NH2+]c1c2ccc(F)cc2[n+](C)c2cc(Cl)ccc12 (3D coordinates assigned)
CCN(C)CC[NH2+]c1c2ccc(F)cc2[n+](C)c2cc(Cl)ccc12 (optimized conformer: 75.39991236165224 kcal/mol)

>  <smiles>  (5) 
CCN(C)CCNc1c2ccc(F)cc2[n+](C)c2cc(Cl)ccc12

>  <score_type>  (5) 
oracle

>  <origin>  (5) 
adg

>  <m_score__min__energy>  (5) 
-4.0199999999999996

>  <m_primary>  (5) 
energy

$$$$
5:0
     RDKit          3D

 59 61  0  0  0  0  0  0  0  0999 V2000
   63.3680   33.3110   46.8530 C   0  0  0  0  0  0  0  0  0  0  0  0
   63.7530   32.1580   47.7730 C   0  0  0  0  0  0  0  0  0  0  0  0
   62.5640   31.6450   48.4630 N   0  0  0  0  0  0  0  0  0  0  0  0
   62.8850   31.3130   49.8560 C   0  0  0  0  0  0  0  0  0  0  0  0
   62.5240   32.4890   50.7680 C   0  0  0  0  0  0  0  0  0  0  0  0
   61.0380   32.4790   51.1280 C   0  0  0  0  0  0  0  0  0  0  0  0
   60.2500   32.1740   49.9200 N   0  0  0  0  0  0  0  0  0  0  0  0
   59.3360   31.0400   50.1150 C   0  0  0  0  0  0  0  0  0  0  0  0
   59.4430   30.0570   48.9400 C   0  0  0  0  0  0  0  0  0  0  0  0
   60.2340   30.6350   47.8390 N   0  0  0  0  0  0  0  0  0  0  0  0
   59.4510   30.6970   46.6150 C   0  0  0  0  0  0  0  0  0  0  0  0
   59.1790   29.5010   45.8910 C   0  0  0  0  0  0  0  0  0  0  0  0
   59.7810   28.2620   46.2400 C   0  0  0  0  0  0  0  0  0  0  0  0
   59.4580   27.0870   45.5700 C   0  0  0  0  0  0  0  0  0  0  0  0
   58.5250   27.1050   44.5460 C   0  0  0  0  0  0  0  0  0  0  0  0
   57.9380   28.3040   44.1590 C   0  0  0  0  0  0  0  0  0  0  0  0
   58.2830   29.5310   44.7890 C   0  0  0  0  0  0  0  0  0  0  0  0
   57.7420   30.7250   44.3640 N   0  0  0  0  0  0  0  0  0  0  0  0
   57.0460   30.7930   43.0560 C   0  0  0  0  0  0  0  0  0  0  0  0
   57.8890   31.8670   45.1220 C   0  0  0  0  0  0  0  0  0  0  0  0
   57.0830   33.0050   44.8730 C   0  0  0  0  0  0  0  0  0  0  0  0
   57.2960   34.1980   45.5440 C   0  0  0  0  0  0  0  0  0  0  0  0
   58.3340   34.3080   46.4510 C   0  0  0  0  0  0  0  0  0  0  0  0
   59.1380   33.1990   46.7640 C   0  0  0  0  0  0  0  0  0  0  0  0
   60.2520   33.3700   47.6030 O   0  0  0  0  0  0  0  0  0  0  0  0
   60.6390   34.5890   48.2310 C   0  0  0  0  0  0  0  0  0  0  0  0
   58.8440   31.9210   46.1830 C   0  0  0  0  0  0  0  0  0  0  0  0
   63.0772   34.1820   47.4587 H   0  0  0  0  0  0  0  0  0  0  0  0
   64.2264   33.5760   46.2182 H   0  0  0  0  0  0  0  0  0  0  0  0
   62.5226   33.0070   46.2182 H   0  0  0  0  0  0  0  0  0  0  0  0
   64.2038   31.3513   47.1763 H   0  0  0  0  0  0  0  0  0  0  0  0
   64.4751   32.5192   48.5201 H   0  0  0  0  0  0  0  0  0  0  0  0
   61.8460   32.4090   48.4740 H   0  0  0  0  0  0  0  0  0  0  0  0
   62.3114   30.4253   50.1610 H   0  0  0  0  0  0  0  0  0  0  0  0
   63.9621   31.1064   49.9403 H   0  0  0  0  0  0  0  0  0  0  0  0
   63.1167   32.4205   51.6921 H   0  0  0  0  0  0  0  0  0  0  0  0
   62.7444   33.4238   50.2318 H   0  0  0  0  0  0  0  0  0  0  0  0
   60.8498   31.7120   51.8937 H   0  0  0  0  0  0  0  0  0  0  0  0
   60.7459   33.4637   51.5216 H   0  0  0  0  0  0  0  0  0  0  0  0
   59.6720   33.0160   49.6840 H   0  0  0  0  0  0  0  0  0  0  0  0
   59.5983   30.5195   51.0479 H   0  0  0  0  0  0  0  0  0  0  0  0
   58.3047   31.4187   50.1702 H   0  0  0  0  0  0  0  0  0  0  0  0
   59.9299   29.1335   49.2866 H   0  0  0  0  0  0  0  0  0  0  0  0
   58.4300   29.8423   48.5690 H   0  0  0  0  0  0  0  0  0  0  0  0
   60.5730   31.5860   48.1100 H   0  0  0  0  0  0  0  0  0  0  0  0
   61.1310   30.1250   47.6930 H   0  0  0  0  0  0  0  0  0  0  0  0
   60.5174   28.2317   47.0566 H   0  0  0  0  0  0  0  0  0  0  0  0
   59.9440   26.1418   45.8535 H   0  0  0  0  0  0  0  0  0  0  0  0
   58.2484   26.1691   44.0385 H   0  0  0  0  0  0  0  0  0  0  0  0
   57.1925   28.3036   43.3501 H   0  0  0  0  0  0  0  0  0  0  0  0
   55.9637   30.8987   43.2216 H   0  0  0  0  0  0  0  0  0  0  0  0
   57.4164   31.6592   42.4882 H   0  0  0  0  0  0  0  0  0  0  0  0
   57.2417   29.8715   42.4882 H   0  0  0  0  0  0  0  0  0  0  0  0
   56.2722   32.9401   44.1324 H   0  0  0  0  0  0  0  0  0  0  0  0
   56.6384   35.0593   45.3550 H   0  0  0  0  0  0  0  0  0  0  0  0
   58.5328   35.2762   46.9337 H   0  0  0  0  0  0  0  0  0  0  0  0
   60.6003   34.4670   49.3235 H   0  0  0  0  0  0  0  0  0  0  0  0
   61.6638   34.8488   47.9271 H   0  0  0  0  0  0  0  0  0  0  0  0
   59.9517   35.3923   47.9271 H   0  0  0  0  0  0  0  0  0  0  0  0
  1  2  1  0
  2  3  1  0
  3  4  1  0
  4  5  1  0
  5  6  1  0
  6  7  1  0
  7  8  1  0
  8  9  1  0
  9 10  1  0
 10 11  1  0
 11 12  2  0
 12 13  1  0
 13 14  2  0
 14 15  1  0
 15 16  2  0
 16 17  1  0
 17 18  2  0
 18 19  1  0
 18 20  1  0
 20 21  2  0
 21 22  1  0
 22 23  2  0
 23 24  1  0
 24 25  1  0
 25 26  1  0
 24 27  2  0
 27 11  1  0
 17 12  1  0
 27 20  1  0
  1 28  1  0
  1 29  1  0
  1 30  1  0
  2 31  1  0
  2 32  1  0
  3 33  1  0
  4 34  1  0
  4 35  1  0
  5 36  1  0
  5 37  1  0
  6 38  1  0
  6 39  1  0
  7 40  1  0
  8 41  1  0
  8 42  1  0
  9 43  1  0
  9 44  1  0
 10 45  1  0
 10 46  1  0
 13 47  1  0
 14 48  1  0
 15 49  1  0
 16 50  1  0
 19 51  1  0
 19 52  1  0
 19 53  1  0
 21 54  1  0
 22 55  1  0
 23 56  1  0
 26 57  1  0
 26 58  1  0
 26 59  1  0
M  CHG  2  10   1  18   1
M  END
>  <UniqueID>  (6) 
6

>  <SMILES>  (6) 
CCNCCCNCC[NH2+]c1c2ccccc2[n+](C)c2cccc(OC)c12

>  <Energy>  (6) 
85.35633764755413

>  <Genealogy>  (6) 
CCNCCCNCC[NH2+]c1c2ccccc2[n+](C)c2cccc(OC)c12 (protonated)
CCNCCCNCC[NH2+]c1c2ccccc2[n+](C)c2cccc(OC)c12 (3D coordinates assigned)
CCNCCCNCC[NH2+]c1c2ccccc2[n+](C)c2cccc(OC)c12 (optimized conformer: 85.35633764755413 kcal/mol)

>  <smiles>  (6) 
CCNCCCNCCNc1c2ccccc2[n+](C)c2cccc(OC)c12

>  <score_type>  (6) 
oracle

>  <origin>  (6) 
adg

>  <m_score__min__energy>  (6) 
-2.6699999999999999

>  <m_primary>  (6) 
energy

$$$$
6:0
     RDKit          3D

 66 70  0  0  0  0  0  0  0  0999 V2000
   55.8620   23.6390   43.6660 C   0  0  0  0  0  0  0  0  0  0  0  0
   57.1520   24.4110   43.3640 C   0  0  0  0  0  0  0  0  0  0  0  0
   57.2370   25.6870   44.1180 N   0  0  2  0  0  0  0  0  0  0  0  0
   58.1440   26.6520   43.4680 C   0  0  0  0  0  0  0  0  0  0  0  0
   57.5780   25.4750   45.5500 C   0  0  0  0  0  0  0  0  0  0  0  0
   58.2570   26.6710   46.2590 C   0  0  0  0  0  0  0  0  0  0  0  0
   57.4380   27.8810   46.2140 N   0  0  0  0  0  0  0  0  0  0  0  0
   58.0500   29.1600   46.0030 C   0  0  0  0  0  0  0  0  0  0  0  0
   58.9910   29.6450   46.9060 C   0  0  0  0  0  0  0  0  0  0  0  0
   59.6270   30.8480   46.6900 C   0  0  0  0  0  0  0  0  0  0  0  0
   59.2760   31.6830   45.6600 N   0  0  0  0  0  0  0  0  0  0  0  0
   59.7180   33.0860   45.6600 C   0  0  0  0  0  0  0  0  0  0  0  0
   58.4320   31.1930   44.6750 C   0  0  0  0  0  0  0  0  0  0  0  0
   58.1970   31.9050   43.4750 C   0  0  0  0  0  0  0  0  0  0  0  0
   57.3120   31.4180   42.5100 C   0  0  0  0  0  0  0  0  0  0  0  0
   57.0370   32.3270   41.0350 Cl  0  0  0  0  0  0  0  0  0  0  0  0
   56.6510   30.2090   42.7120 C   0  0  0  0  0  0  0  0  0  0  0  0
   56.8850   29.4650   43.8660 C   0  0  0  0  0  0  0  0  0  0  0  0
   57.7860   29.9250   44.8460 C   0  0  0  0  0  0  0  0  0  0  0  0
   60.6410   30.9790   47.7440 C   0  0  0  0  0  0  0  0  0  0  0  0
   61.6830   31.9030   47.8820 C   0  0  0  0  0  0  0  0  0  0  0  0
   62.5800   31.7720   48.9640 C   0  0  0  0  0  0  0  0  0  0  0  0
   62.4070   30.6960   49.8740 C   0  0  0  0  0  0  0  0  0  0  0  0
   61.3760   29.7620   49.6550 C   0  0  0  0  0  0  0  0  0  0  0  0
   61.2150   28.7820   50.4340 O   0  0  0  0  0  0  0  0  0  0  0  0
   60.5510   29.9240   48.5860 N   0  0  0  0  0  0  0  0  0  0  0  0
   59.5110   28.9940   48.1530 C   0  0  0  0  0  0  0  0  0  0  0  0
   63.2970   30.6030   51.0880 C   0  0  0  0  0  0  0  0  0  0  0  0
   64.6040   31.0760   50.7880 O   0  0  0  0  0  0  0  0  0  0  0  0
   64.8220   32.1720   49.9500 C   0  0  0  0  0  0  0  0  0  0  0  0
   65.9930   32.6180   49.8170 O   0  0  0  0  0  0  0  0  0  0  0  0
   63.6700   32.8190   49.2090 C   0  0  1  0  0  0  0  0  0  0  0  0
   64.1700   33.2920   47.9750 O   0  0  0  0  0  0  0  0  0  0  0  0
   63.0720   33.9740   50.0630 C   0  0  0  0  0  0  0  0  0  0  0  0
   61.7740   34.5550   49.4940 C   0  0  0  0  0  0  0  0  0  0  0  0
   55.7288   23.5593   44.7550 H   0  0  0  0  0  0  0  0  0  0  0  0
   55.0047   24.1726   43.2298 H   0  0  0  0  0  0  0  0  0  0  0  0
   55.9271   22.6313   43.2298 H   0  0  0  0  0  0  0  0  0  0  0  0
   58.0123   23.7818   43.6361 H   0  0  0  0  0  0  0  0  0  0  0  0
   57.1542   24.6543   42.2912 H   0  0  0  0  0  0  0  0  0  0  0  0
   56.2850   26.1260   44.1200 H   0  0  0  0  0  0  0  0  0  0  0  0
   58.6824   27.2248   44.2374 H   0  0  0  0  0  0  0  0  0  0  0  0
   58.8674   26.1103   42.8409 H   0  0  0  0  0  0  0  0  0  0  0  0
   57.5585   27.3405   42.8409 H   0  0  0  0  0  0  0  0  0  0  0  0
   56.6471   25.2458   46.0893 H   0  0  0  0  0  0  0  0  0  0  0  0
   58.3140   24.6577   45.5666 H   0  0  0  0  0  0  0  0  0  0  0  0
   58.4354   26.4036   47.3110 H   0  0  0  0  0  0  0  0  0  0  0  0
   59.1994   26.8830   45.7327 H   0  0  0  0  0  0  0  0  0  0  0  0
   56.4790   27.8640   46.6290 H   0  0  0  0  0  0  0  0  0  0  0  0
   59.8282   33.4357   46.6971 H   0  0  0  0  0  0  0  0  0  0  0  0
   60.6848   33.1658   45.1415 H   0  0  0  0  0  0  0  0  0  0  0  0
   58.9715   33.7056   45.1415 H   0  0  0  0  0  0  0  0  0  0  0  0
   58.7194   32.8570   43.2992 H   0  0  0  0  0  0  0  0  0  0  0  0
   55.9411   29.8401   41.9570 H   0  0  0  0  0  0  0  0  0  0  0  0
   56.3611   28.5091   44.0134 H   0  0  0  0  0  0  0  0  0  0  0  0
   61.8015   32.7211   47.1563 H   0  0  0  0  0  0  0  0  0  0  0  0
   59.9311   28.0006   47.9371 H   0  0  0  0  0  0  0  0  0  0  0  0
   58.7348   28.8199   48.9128 H   0  0  0  0  0  0  0  0  0  0  0  0
   62.8690   31.2125   51.8975 H   0  0  0  0  0  0  0  0  0  0  0  0
   63.3637   29.5500   51.3989 H   0  0  0  0  0  0  0  0  0  0  0  0
   65.1110   32.9970   47.8710 H   0  0  0  0  0  0  0  0  0  0  0  0
   62.8662   33.5884   51.0724 H   0  0  0  0  0  0  0  0  0  0  0  0
   63.8128   34.7871   50.0661 H   0  0  0  0  0  0  0  0  0  0  0  0
   61.1116   34.8515   50.3207 H   0  0  0  0  0  0  0  0  0  0  0  0
   62.0060   35.4352   48.8764 H   0  0  0  0  0  0  0  0  0  0  0  0
   61.2722   33.7956   48.8764 H   0  0  0  0  0  0  0  0  0  0  0  0
  1  2  1  0
  2  3  1  0
  3  4  1  0
  3  5  1  0
  5  6  1  0
  6  7  1  0
  7  8  1  0
  8  9  2  0
  9 10  1  0
 10 11  2  0
 11 12  1  0
 11 13  1  0
 13 14  2  0
 14 15  1  0
 15 16  1  0
 15 17  2  0
 17 18  1  0
 18 19  2  0
 10 20  1  0
 20 21  2  0
 21 22  1  0
 22 23  2  0
 23 24  1  0
 24 25  2  0
 24 26  1  0
 26 27  1  0
 23 28  1  0
 28 29  1  0
 29 30  1  0
 30 31  2  0
 30 32  1  0
 32 33  1  6
 32 34  1  0
 34 35  1  0
 19  8  1  0
 26 20  1  0
 27  9  1  0
 19 13  1  0
 32 22  1  0
  1 36  1  0
  1 37  1  0
  1 38  1  0
  2 39  1  0
  2 40  1  0
  3 41  1  1
  4 42  1  0
  4 43  1  0
  4 44  1  0
  5 45  1  0
  5 46  1  0
  6 47  1  0
  6 48  1  0
  7 49  1  0
 12 50  1  0
 12 51  1  0
 12 52  1  0
 14 53  1  0
 17 54  1  0
 18 55  1  0
 21 56  1  0
 27 57  1  0
 27 58  1  0
 28 59  1  0
 28 60  1  0
 33 61  1  0
 34 62  1  0
 34 63  1  0
 35 64  1  0
 35 65  1  0
 35 66  1  0
M  CHG  2   3   1  11   1
M  END
>  <UniqueID>  (7) 
7

>  <SMILES>  (7) 
CC[N@H+](C)CCNc1c2c([n+](C)c3cc(Cl)ccc13)-c1cc3c(c(=O)n1C2)COC(=O)[C@]3(O)CC

>  <Energy>  (7) 
122.37844714141706

>  <Genealogy>  (7) 
CC[NH+](C)CCNc1c2c([n+](C)c3cc(Cl)ccc13)-c1cc3c(c(=O)n1C2)COC(=O)C3(O)CC (protonated)
CC[N@H+](C)CCNc1c2c([n+](C)c3cc(Cl)ccc13)-c1cc3c(c(=O)n1C2)COC(=O)[C@]3(O)CC (chirality)
CC[N@H+](C)CCNc1c2c([n+](C)c3cc(Cl)ccc13)-c1cc3c(c(=O)n1C2)COC(=O)[C@]3(O)CC (3D coordinates assigned)
CC[N@H+](C)CCNc1c2c([n+](C)c3cc(Cl)ccc13)-c1cc3c(c(=O)n1C2)COC(=O)[C@]3(O)CC (nonaromatic ring conformer: 122.37844714141706 kcal/mol)

>  <smiles>  (7) 
CCN(C)CCNc1c2c([n+](C)c3cc(Cl)ccc13)-c1cc3c(c(=O)n1C2)COC(=O)C3(O)CC

>  <score_type>  (7) 
oracle

>  <origin>  (7) 
adg

>  <m_score__min__energy>  (7) 
-5.9100000000000001

>  <m_primary>  (7) 
energy

$$$$
7:0
     RDKit          3D

 65 67  0  0  0  0  0  0  0  0999 V2000
   65.6640   31.4100   50.9540 C   0  0  0  0  0  0  0  0  0  0  0  0
   64.1360   31.3300   50.9370 C   0  0  0  0  0  0  0  0  0  0  0  0
   63.5560   31.9860   49.7510 N   0  0  0  0  0  0  0  0  0  0  0  0
   64.5480   32.8090   49.0390 C   0  0  0  0  0  0  0  0  0  0  0  0
   64.0840   33.1790   47.6190 C   0  0  0  0  0  0  0  0  0  0  0  0
   62.7000   33.8420   47.5850 C   0  0  0  0  0  0  0  0  0  0  0  0
   61.6800   32.9140   48.0900 N   0  0  0  0  0  0  0  0  0  0  0  0
   60.8910   33.4830   49.1940 C   0  0  0  0  0  0  0  0  0  0  0  0
   60.4900   32.4520   50.2590 C   0  0  0  0  0  0  0  0  0  0  0  0
   61.0970   31.1430   49.9660 N   0  0  0  0  0  0  0  0  0  0  0  0
   60.1260   30.0410   50.0750 C   0  0  0  0  0  0  0  0  0  0  0  0
   59.2090   29.9370   48.8460 C   0  0  0  0  0  0  0  0  0  0  0  0
   59.8430   30.5470   47.6800 N   0  0  0  0  0  0  0  0  0  0  0  0
   59.1880   30.6000   46.4000 C   0  0  0  0  0  0  0  0  0  0  0  0
   58.7740   31.8310   45.8820 C   0  0  0  0  0  0  0  0  0  0  0  0
   58.0440   31.8780   44.6720 C   0  0  0  0  0  0  0  0  0  0  0  0
   57.7250   30.7180   43.9910 N   0  0  0  0  0  0  0  0  0  0  0  0
   57.0080   30.8580   42.7030 C   0  0  0  0  0  0  0  0  0  0  0  0
   58.1280   29.4820   44.4940 C   0  0  0  0  0  0  0  0  0  0  0  0
   57.7950   28.2460   43.8750 C   0  0  0  0  0  0  0  0  0  0  0  0
   58.3000   27.0380   44.3450 C   0  0  0  0  0  0  0  0  0  0  0  0
   59.1360   27.0090   45.4500 C   0  0  0  0  0  0  0  0  0  0  0  0
   59.4460   28.1910   46.1130 C   0  0  0  0  0  0  0  0  0  0  0  0
   58.9160   29.4230   45.6840 C   0  0  0  0  0  0  0  0  0  0  0  0
   57.7100   33.2730   44.1330 C   0  0  0  0  0  0  0  0  0  0  0  0
   57.3300   34.2130   45.2800 C   0  0  0  0  0  0  0  0  0  0  0  0
   58.4110   34.2210   46.3170 C   0  0  0  0  0  0  0  0  0  0  0  0
   59.0600   33.0970   46.6200 C   0  0  0  0  0  0  0  0  0  0  0  0
   66.0186   31.4286   51.9951 H   0  0  0  0  0  0  0  0  0  0  0  0
   66.0829   30.5326   50.4396 H   0  0  0  0  0  0  0  0  0  0  0  0
   65.9889   32.3264   50.4396 H   0  0  0  0  0  0  0  0  0  0  0  0
   63.8369   30.2714   50.9378 H   0  0  0  0  0  0  0  0  0  0  0  0
   63.7610   31.8533   51.8289 H   0  0  0  0  0  0  0  0  0  0  0  0
   63.1740   31.2480   49.1120 H   0  0  0  0  0  0  0  0  0  0  0  0
   62.7650   32.5960   50.0690 H   0  0  0  0  0  0  0  0  0  0  0  0
   64.7156   33.7345   49.6094 H   0  0  0  0  0  0  0  0  0  0  0  0
   65.4733   32.2210   48.9497 H   0  0  0  0  0  0  0  0  0  0  0  0
   64.8154   33.8755   47.1833 H   0  0  0  0  0  0  0  0  0  0  0  0
   64.0105   32.2427   47.0464 H   0  0  0  0  0  0  0  0  0  0  0  0
   62.7138   34.7441   48.2143 H   0  0  0  0  0  0  0  0  0  0  0  0
   62.4569   34.1118   46.5467 H   0  0  0  0  0  0  0  0  0  0  0  0
   62.1430   32.0310   48.4080 H   0  0  0  0  0  0  0  0  0  0  0  0
   61.4882   34.2693   49.6788 H   0  0  0  0  0  0  0  0  0  0  0  0
   59.9602   33.8736   48.7570 H   0  0  0  0  0  0  0  0  0  0  0  0
   60.8342   32.7978   51.2449 H   0  0  0  0  0  0  0  0  0  0  0  0
   59.3953   32.3447   50.2549 H   0  0  0  0  0  0  0  0  0  0  0  0
   61.5000   31.1620   48.9960 H   0  0  0  0  0  0  0  0  0  0  0  0
   60.6772   29.0954   50.1842 H   0  0  0  0  0  0  0  0  0  0  0  0
   59.4896   30.2432   50.9491 H   0  0  0  0  0  0  0  0  0  0  0  0
   59.0065   28.8767   48.6344 H   0  0  0  0  0  0  0  0  0  0  0  0
   58.2694   30.4682   49.0580 H   0  0  0  0  0  0  0  0  0  0  0  0
   60.7460   31.0570   47.8050 H   0  0  0  0  0  0  0  0  0  0  0  0
   55.9451   31.0655   42.8957 H   0  0  0  0  0  0  0  0  0  0  0  0
   57.4453   31.6877   42.1282 H   0  0  0  0  0  0  0  0  0  0  0  0
   57.1010   29.9247   42.1282 H   0  0  0  0  0  0  0  0  0  0  0  0
   57.1226   28.2450   43.0044 H   0  0  0  0  0  0  0  0  0  0  0  0
   58.0340   26.0997   43.8363 H   0  0  0  0  0  0  0  0  0  0  0  0
   59.5530   26.0537   45.8014 H   0  0  0  0  0  0  0  0  0  0  0  0
   60.1152   28.1634   46.9856 H   0  0  0  0  0  0  0  0  0  0  0  0
   58.5877   33.6783   43.6083 H   0  0  0  0  0  0  0  0  0  0  0  0
   56.8586   33.1931   43.4410 H   0  0  0  0  0  0  0  0  0  0  0  0
   57.1953   35.2314   44.8867 H   0  0  0  0  0  0  0  0  0  0  0  0
   56.3934   33.8625   45.7382 H   0  0  0  0  0  0  0  0  0  0  0  0
   58.6703   35.1585   46.8306 H   0  0  0  0  0  0  0  0  0  0  0  0
   59.8135   33.1021   47.4214 H   0  0  0  0  0  0  0  0  0  0  0  0
  1  2  1  0
  2  3  1  0
  3  4  1  0
  4  5  1  0
  5  6  1  0
  6  7  1  0
  7  8  1  0
  8  9  1  0
  9 10  1  0
 10 11  1  0
 11 12  1  0
 12 13  1  0
 13 14  1  0
 14 15  2  0
 15 16  1  0
 16 17  2  0
 17 18  1  0
 17 19  1  0
 19 20  2  0
 20 21  1  0
 21 22  2  0
 22 23  1  0
 23 24  2  0
 16 25  1  0
 25 26  1  0
 26 27  1  0
 27 28  2  0
 24 14  1  0
 28 15  1  0
 24 19  1  0
  1 29  1  0
  1 30  1  0
  1 31  1  0
  2 32  1  0
  2 33  1  0
  3 34  1  0
  3 35  1  0
  4 36  1  0
  4 37  1  0
  5 38  1  0
  5 39  1  0
  6 40  1  0
  6 41  1  0
  7 42  1  0
  8 43  1  0
  8 44  1  0
  9 45  1  0
  9 46  1  0
 10 47  1  0
 11 48  1  0
 11 49  1  0
 12 50  1  0
 12 51  1  0
 13 52  1  0
 18 53  1  0
 18 54  1  0
 18 55  1  0
 20 56  1  0
 21 57  1  0
 22 58  1  0
 23 59  1  0
 25 60  1  0
 25 61  1  0
 26 62  1  0
 26 63  1  0
 27 64  1  0
 28 65  1  0
M  CHG  2   3   1  17   1
M  END
>  <UniqueID>  (8) 
8

>  <SMILES>  (8) 
CC[NH2+]CCCNCCNCCNc1c2c([n+](C)c3ccccc13)CCC=C2

>  <Energy>  (8) 
86.78795179136588

>  <Genealogy>  (8) 
CC[NH2+]CCCNCCNCCNc1c2c([n+](C)c3ccccc13)CCC=C2 (protonated)
CC[NH2+]CCCNCCNCCNc1c2c([n+](C)c3ccccc13)CCC=C2 (3D coordinates assigned)
CC[NH2+]CCCNCCNCCNc1c2c([n+](C)c3ccccc13)CCC=C2 (nonaromatic ring conformer: 86.78795179136588 kcal/mol)

>  <smiles>  (8) 
CCNCCCNCCNCCNc1c2c([n+](C)c3ccccc13)CCC=C2

>  <score_type>  (8) 
oracle

>  <origin>  (8) 
adg

>  <m_score__min__energy>  (8) 
-5.7699999999999996

>  <m_primary>  (8) 
energy

$$$$
8:0
     RDKit          3D

 35 35  0  0  0  0  0  0  0  0999 V2000
   60.4130   30.1150   46.4840 C   0  0  0  0  0  0  0  0  0  0  0  0
   59.3400   29.4190   47.3070 C   0  0  0  0  0  0  0  0  0  0  0  0
   58.5940   28.5650   46.4660 O   0  0  0  0  0  0  0  0  0  0  0  0
   59.4310   28.0630   45.4450 C   0  0  0  0  0  0  0  0  0  0  0  0
   58.6610   28.0210   44.1230 C   0  0  0  0  0  0  0  0  0  0  0  0
   57.2880   28.5320   44.2870 N   0  0  0  0  0  0  0  0  0  0  0  0
   56.8640   29.3610   43.1440 C   0  0  0  0  0  0  0  0  0  0  0  0
   56.6370   30.8390   43.5060 C   0  0  0  0  0  0  0  0  0  0  0  0
   56.9840   31.1020   44.8680 O   0  0  0  0  0  0  0  0  0  0  0  0
   57.6570   32.2340   45.3620 C   0  0  0  0  0  0  0  0  0  0  0  0
   58.1880   33.1350   44.4300 C   0  0  0  0  0  0  0  0  0  0  0  0
   58.8630   34.2830   44.8540 C   0  0  0  0  0  0  0  0  0  0  0  0
   59.0160   34.5410   46.2170 C   0  0  0  0  0  0  0  0  0  0  0  0
   58.4970   33.6480   47.1580 C   0  0  0  0  0  0  0  0  0  0  0  0
   57.8230   32.4970   46.7370 C   0  0  0  0  0  0  0  0  0  0  0  0
   61.1425   30.5882   47.1577 H   0  0  0  0  0  0  0  0  0  0  0  0
   60.9250   29.3766   45.8495 H   0  0  0  0  0  0  0  0  0  0  0  0
   59.9475   30.8836   45.8495 H   0  0  0  0  0  0  0  0  0  0  0  0
   59.8133   28.8284   48.1052 H   0  0  0  0  0  0  0  0  0  0  0  0
   58.6739   30.1693   47.7579 H   0  0  0  0  0  0  0  0  0  0  0  0
   60.3087   28.7172   45.3366 H   0  0  0  0  0  0  0  0  0  0  0  0
   59.7590   27.0467   45.7087 H   0  0  0  0  0  0  0  0  0  0  0  0
   59.1876   28.6399   43.3817 H   0  0  0  0  0  0  0  0  0  0  0  0
   58.6046   26.9751   43.7868 H   0  0  0  0  0  0  0  0  0  0  0  0
   56.6390   27.7130   44.3440 H   0  0  0  0  0  0  0  0  0  0  0  0
   57.1950   29.0670   45.1790 H   0  0  0  0  0  0  0  0  0  0  0  0
   57.6424   29.3084   42.3685 H   0  0  0  0  0  0  0  0  0  0  0  0
   55.8996   28.9622   42.7963 H   0  0  0  0  0  0  0  0  0  0  0  0
   57.2581   31.4674   42.8507 H   0  0  0  0  0  0  0  0  0  0  0  0
   55.5698   31.0686   43.3702 H   0  0  0  0  0  0  0  0  0  0  0  0
   58.0726   32.9371   43.3541 H   0  0  0  0  0  0  0  0  0  0  0  0
   59.2741   34.9840   44.1126 H   0  0  0  0  0  0  0  0  0  0  0  0
   59.5446   35.4463   46.5501 H   0  0  0  0  0  0  0  0  0  0  0  0
   58.6188   33.8506   48.2323 H   0  0  0  0  0  0  0  0  0  0  0  0
   57.4209   31.7943   47.4817 H   0  0  0  0  0  0  0  0  0  0  0  0
  1  2  1  0
  2  3  1  0
  3  4  1  0
  4  5  1  0
  5  6  1  0
  6  7  1  0
  7  8  1  0
  8  9  1  0
  9 10  1  0
 10 11  2  0
 11 12  1  0
 12 13  2  0
 13 14  1  0
 14 15  2  0
 15 10  1  0
  1 16  1  0
  1 17  1  0
  1 18  1  0
  2 19  1  0
  2 20  1  0
  4 21  1  0
  4 22  1  0
  5 23  1  0
  5 24  1  0
  6 25  1  0
  6 26  1  0
  7 27  1  0
  7 28  1  0
  8 29  1  0
  8 30  1  0
 11 31  1  0
 12 32  1  0
 13 33  1  0
 14 34  1  0
 15 35  1  0
M  CHG  1   6   1
M  END
>  <UniqueID>  (9) 
9

>  <SMILES>  (9) 
CCOCC[NH2+]CCOc1ccccc1

>  <Energy>  (9) 
29.656805582200676

>  <Genealogy>  (9) 
CCOCC[NH2+]CCOc1ccccc1 (protonated)
CCOCC[NH2+]CCOc1ccccc1 (3D coordinates assigned)
CCOCC[NH2+]CCOc1ccccc1 (optimized conformer: 29.656805582200676 kcal/mol)

>  <smiles>  (9) 
CCOCCNCCOc1ccccc1

>  <score_type>  (9) 
oracle

>  <origin>  (9) 
adg

>  <m_score__min__energy>  (9) 
-4.4900000000000002

>  <m_primary>  (9) 
energy

$$$$
9:0
     RDKit          3D

 54 56  0  0  0  0  0  0  0  0999 V2000
   61.8080   33.8670   47.6160 C   0  0  0  0  0  0  0  0  0  0  0  0
   63.0170   33.5080   46.7550 C   0  0  0  0  0  0  0  0  0  0  0  0
   63.7890   32.4130   47.3680 N   0  0  0  0  0  0  0  0  0  0  0  0
   64.0750   32.6540   48.7940 C   0  0  0  0  0  0  0  0  0  0  0  0
   63.3630   31.6680   49.7300 C   0  0  0  0  0  0  0  0  0  0  0  0
   62.2640   31.0830   49.0650 O   0  0  0  0  0  0  0  0  0  0  0  0
   61.5310   30.2860   49.9710 C   0  0  0  0  0  0  0  0  0  0  0  0
   60.1180   30.8490   50.1380 C   0  0  0  0  0  0  0  0  0  0  0  0
   59.1510   30.3880   49.0390 C   0  0  0  0  0  0  0  0  0  0  0  0
   59.7790   30.4240   47.7140 N   0  0  0  0  0  0  0  0  0  0  0  0
   59.0120   30.4960   46.4940 C   0  0  0  0  0  0  0  0  0  0  0  0
   58.6140   31.7480   45.9860 C   0  0  0  0  0  0  0  0  0  0  0  0
   58.8670   32.9360   46.7050 C   0  0  0  0  0  0  0  0  0  0  0  0
   58.5760   34.1810   46.1530 C   0  0  0  0  0  0  0  0  0  0  0  0
   58.0360   34.2660   44.8770 C   0  0  0  0  0  0  0  0  0  0  0  0
   57.7370   33.1060   44.1640 C   0  0  0  0  0  0  0  0  0  0  0  0
   57.9700   31.8210   44.7210 C   0  0  0  0  0  0  0  0  0  0  0  0
   57.6030   30.6650   44.0580 N   0  0  0  0  0  0  0  0  0  0  0  0
   56.6900   30.7410   42.8940 C   0  0  0  0  0  0  0  0  0  0  0  0
   58.0440   29.4350   44.5110 C   0  0  0  0  0  0  0  0  0  0  0  0
   57.8630   28.2510   43.7480 C   0  0  0  0  0  0  0  0  0  0  0  0
   58.2320   27.0050   44.2510 C   0  0  0  0  0  0  0  0  0  0  0  0
   58.7820   26.9020   45.5200 C   0  0  0  0  0  0  0  0  0  0  0  0
   59.0160   28.0480   46.2760 C   0  0  0  0  0  0  0  0  0  0  0  0
   58.7050   29.3290   45.7640 C   0  0  0  0  0  0  0  0  0  0  0  0
   62.0783   33.7867   48.6793 H   0  0  0  0  0  0  0  0  0  0  0  0
   61.4931   34.8974   47.3945 H   0  0  0  0  0  0  0  0  0  0  0  0
   60.9818   33.1754   47.3945 H   0  0  0  0  0  0  0  0  0  0  0  0
   62.6702   33.1918   45.7601 H   0  0  0  0  0  0  0  0  0  0  0  0
   63.6654   34.3926   46.6711 H   0  0  0  0  0  0  0  0  0  0  0  0
   64.7080   32.3280   46.8740 H   0  0  0  0  0  0  0  0  0  0  0  0
   63.2750   31.5100   47.2490 H   0  0  0  0  0  0  0  0  0  0  0  0
   65.1598   32.5649   48.9526 H   0  0  0  0  0  0  0  0  0  0  0  0
   63.7025   33.6604   49.0359 H   0  0  0  0  0  0  0  0  0  0  0  0
   64.0675   30.8796   50.0335 H   0  0  0  0  0  0  0  0  0  0  0  0
   63.0034   32.2074   50.6187 H   0  0  0  0  0  0  0  0  0  0  0  0
   61.4702   29.2577   49.5850 H   0  0  0  0  0  0  0  0  0  0  0  0
   62.0386   30.2886   50.9469 H   0  0  0  0  0  0  0  0  0  0  0  0
   59.7236   30.5212   51.1111 H   0  0  0  0  0  0  0  0  0  0  0  0
   60.1920   31.9444   50.0706 H   0  0  0  0  0  0  0  0  0  0  0  0
   58.8317   29.3576   49.2543 H   0  0  0  0  0  0  0  0  0  0  0  0
   58.2907   31.0734   49.0295 H   0  0  0  0  0  0  0  0  0  0  0  0
   60.8190   30.3370   47.6550 H   0  0  0  0  0  0  0  0  0  0  0  0
   59.2997   32.8777   47.7146 H   0  0  0  0  0  0  0  0  0  0  0  0
   58.7741   35.0974   46.7283 H   0  0  0  0  0  0  0  0  0  0  0  0
   57.8435   35.2513   44.4273 H   0  0  0  0  0  0  0  0  0  0  0  0
   57.3132   33.1877   43.1522 H   0  0  0  0  0  0  0  0  0  0  0  0
   55.6519   30.8274   43.2473 H   0  0  0  0  0  0  0  0  0  0  0  0
   56.9446   31.6211   42.2852 H   0  0  0  0  0  0  0  0  0  0  0  0
   56.7956   29.8310   42.2852 H   0  0  0  0  0  0  0  0  0  0  0  0
   57.4236   28.3187   42.7418 H   0  0  0  0  0  0  0  0  0  0  0  0
   58.0868   26.1015   43.6405 H   0  0  0  0  0  0  0  0  0  0  0  0
   59.0340   25.9130   45.9303 H   0  0  0  0  0  0  0  0  0  0  0  0
   59.4479   27.9556   47.2834 H   0  0  0  0  0  0  0  0  0  0  0  0
  1  2  1  0
  2  3  1  0
  3  4  1  0
  4  5  1  0
  5  6  1  0
  6  7  1  0
  7  8  1  0
  8  9  1  0
  9 10  1  0
 10 11  1  0
 11 12  2  0
 12 13  1  0
 13 14  2  0
 14 15  1  0
 15 16  2  0
 16 17  1  0
 17 18  2  0
 18 19  1  0
 18 20  1  0
 20 21  2  0
 21 22  1  0
 22 23  2  0
 23 24  1  0
 24 25  2  0
 25 11  1  0
 17 12  1  0
 25 20  1  0
  1 26  1  0
  1 27  1  0
  1 28  1  0
  2 29  1  0
  2 30  1  0
  3 31  1  0
  3 32  1  0
  4 33  1  0
  4 34  1  0
  5 35  1  0
  5 36  1  0
  7 37  1  0
  7 38  1  0
  8 39  1  0
  8 40  1  0
  9 41  1  0
  9 42  1  0
 10 43  1  0
 13 44  1  0
 14 45  1  0
 15 46  1  0
 16 47  1  0
 19 48  1  0
 19 49  1  0
 19 50  1  0
 21 51  1  0
 22 52  1  0
 23 53  1  0
 24 54  1  0
M  CHG  2   3   1  18   1
M  END
>  <UniqueID>  (10) 
10

>  <SMILES>  (10) 
CC[NH2+]CCOCCCNc1c2ccccc2[n+](C)c2ccccc12

>  <Energy>  (10) 
70.73197058733892

>  <Genealogy>  (10) 
CC[NH2+]CCOCCCNc1c2ccccc2[n+](C)c2ccccc12 (protonated)
CC[NH2+]CCOCCCNc1c2ccccc2[n+](C)c2ccccc12 (3D coordinates assigned)
CC[NH2+]CCOCCCNc1c2ccccc2[n+](C)c2ccccc12 (optimized conformer: 70.73197058733892 kcal/mol)

>  <smiles>  (10) 
CCNCCOCCCNc1c2ccccc2[n+](C)c2ccccc12

>  <score_type>  (10) 
oracle

>  <origin>  (10) 
adg

>  <m_score__min__energy>  (10) 
-4.25

>  <m_primary>  (10) 
energy

$$$$
10:0
     RDKit          3D

 90 93  0  0  0  0  0  0  0  0999 V2000
   63.9870   29.8780   52.2910 C   0  0  0  0  0  0  0  0  0  0  0  0
   62.8900   29.2490   51.4220 C   0  0  0  0  0  0  0  0  0  0  0  0
   61.5030   29.4210   51.9410 N   0  0  0  0  0  0  0  0  0  0  0  0
   61.0150   28.2460   52.7120 C   0  0  0  0  0  0  0  0  0  0  0  0
   61.1640   26.9210   51.9570 C   0  0  0  0  0  0  0  0  0  0  0  0
   61.3160   30.6530   52.7560 C   0  0  0  0  0  0  0  0  0  0  0  0
   60.1990   31.5800   52.2450 C   0  0  0  0  0  0  0  0  0  0  0  0
   59.8710   31.2430   50.9140 O   0  0  0  0  0  0  0  0  0  0  0  0
   58.5450   30.7640   50.8540 C   0  0  0  0  0  0  0  0  0  0  0  0
   58.5500   29.3930   50.1830 C   0  0  0  0  0  0  0  0  0  0  0  0
   59.8750   28.9640   49.9290 O   0  0  0  0  0  0  0  0  0  0  0  0
   59.9760   28.3180   48.6730 C   0  0  0  0  0  0  0  0  0  0  0  0
   60.3730   29.3170   47.5840 C   0  0  0  0  0  0  0  0  0  0  0  0
   59.6930   30.5940   47.7980 N   0  0  0  0  0  0  0  0  0  0  0  0
   59.0140   31.2320   46.7120 C   0  0  0  0  0  0  0  0  0  0  0  0
   58.2500   30.4590   45.8210 C   0  0  0  0  0  0  0  0  0  0  0  0
   57.8970   29.1290   46.1310 C   0  0  0  0  0  0  0  0  0  0  0  0
   57.1000   28.3830   45.2630 C   0  0  0  0  0  0  0  0  0  0  0  0
   56.6400   28.9510   44.0810 C   0  0  0  0  0  0  0  0  0  0  0  0
   56.9990   30.2560   43.7440 C   0  0  0  0  0  0  0  0  0  0  0  0
   57.8420   31.0240   44.5870 C   0  0  0  0  0  0  0  0  0  0  0  0
   58.2780   32.2840   44.2310 N   0  0  0  0  0  0  0  0  0  0  0  0
   58.1650   32.7310   42.8240 C   0  0  0  0  0  0  0  0  0  0  0  0
   58.8400   33.1170   45.1820 C   0  0  0  0  0  0  0  0  0  0  0  0
   59.0560   34.4890   44.9190 C   0  0  0  0  0  0  0  0  0  0  0  0
   59.6560   35.3160   45.8600 C   0  0  0  0  0  0  0  0  0  0  0  0
   59.9900   34.8250   47.1130 C   0  0  0  0  0  0  0  0  0  0  0  0
   59.7210   33.4870   47.4610 C   0  0  0  0  0  0  0  0  0  0  0  0
   59.8990   33.0520   48.7960 O   0  0  0  0  0  0  0  0  0  0  0  0
   60.4580   33.8810   49.8230 C   0  0  0  0  0  0  0  0  0  0  0  0
   61.9480   34.2160   49.5840 C   0  0  0  0  0  0  0  0  0  0  0  0
   62.9600   33.1050   49.7640 N   0  0  0  0  0  0  0  0  0  0  0  0
   63.2850   33.0240   51.2130 C   0  0  0  0  0  0  0  0  0  0  0  0
   62.5130   31.7430   49.3210 C   0  0  0  0  0  0  0  0  0  0  0  0
   62.5570   31.4980   47.7920 C   0  0  0  0  0  0  0  0  0  0  0  0
   62.8940   32.7380   46.9690 C   0  0  0  0  0  0  0  0  0  0  0  0
   64.1220   33.4710   47.5180 C   0  0  0  0  0  0  0  0  0  0  0  0
   64.2330   33.4470   49.0620 C   0  0  0  0  0  0  0  0  0  0  0  0
   59.2040   32.6050   46.4630 C   0  0  0  0  0  0  0  0  0  0  0  0
   63.7396   29.7361   53.3534 H   0  0  0  0  0  0  0  0  0  0  0  0
   64.9507   29.3952   52.0713 H   0  0  0  0  0  0  0  0  0  0  0  0
   64.0572   30.9536   52.0713 H   0  0  0  0  0  0  0  0  0  0  0  0
   62.9405   29.7071   50.4232 H   0  0  0  0  0  0  0  0  0  0  0  0
   63.0848   28.1664   51.4145 H   0  0  0  0  0  0  0  0  0  0  0  0
   60.8760   29.5110   51.1060 H   0  0  0  0  0  0  0  0  0  0  0  0
   61.5882   28.1805   53.6486 H   0  0  0  0  0  0  0  0  0  0  0  0
   59.9408   28.3986   52.8931 H   0  0  0  0  0  0  0  0  0  0  0  0
   61.2568   26.0961   52.6788 H   0  0  0  0  0  0  0  0  0  0  0  0
   60.2786   26.7575   51.3251 H   0  0  0  0  0  0  0  0  0  0  0  0
   62.0636   26.9582   51.3251 H   0  0  0  0  0  0  0  0  0  0  0  0
   61.0717   30.3525   53.7856 H   0  0  0  0  0  0  0  0  0  0  0  0
   62.2552   31.2220   52.6914 H   0  0  0  0  0  0  0  0  0  0  0  0
   59.3090   31.4647   52.8810 H   0  0  0  0  0  0  0  0  0  0  0  0
   60.5470   32.6229   52.2809 H   0  0  0  0  0  0  0  0  0  0  0  0
   58.1366   30.6766   51.8716 H   0  0  0  0  0  0  0  0  0  0  0  0
   57.9202   31.4615   50.2769 H   0  0  0  0  0  0  0  0  0  0  0  0
   58.0557   28.6659   50.8440 H   0  0  0  0  0  0  0  0  0  0  0  0
   58.0128   29.4662   49.2259 H   0  0  0  0  0  0  0  0  0  0  0  0
   60.7382   27.5272   48.7334 H   0  0  0  0  0  0  0  0  0  0  0  0
   58.9978   27.8848   48.4173 H   0  0  0  0  0  0  0  0  0  0  0  0
   61.4611   29.4751   47.6151 H   0  0  0  0  0  0  0  0  0  0  0  0
   60.0800   28.9142   46.6033 H   0  0  0  0  0  0  0  0  0  0  0  0
   59.4930   30.9100   48.7740 H   0  0  0  0  0  0  0  0  0  0  0  0
   58.2541   28.6754   47.0673 H   0  0  0  0  0  0  0  0  0  0  0  0
   56.8355   27.3452   45.5139 H   0  0  0  0  0  0  0  0  0  0  0  0
   55.9910   28.3698   43.4094 H   0  0  0  0  0  0  0  0  0  0  0  0
   56.6221   30.6966   42.8092 H   0  0  0  0  0  0  0  0  0  0  0  0
   57.8955   33.7972   42.7985 H   0  0  0  0  0  0  0  0  0  0  0  0
   59.1285   32.5841   42.3141 H   0  0  0  0  0  0  0  0  0  0  0  0
   57.3870   32.1438   42.3141 H   0  0  0  0  0  0  0  0  0  0  0  0
   58.7433   34.9093   43.9517 H   0  0  0  0  0  0  0  0  0  0  0  0
   59.8673   36.3661   45.6098 H   0  0  0  0  0  0  0  0  0  0  0  0
   60.4717   35.4896   47.8453 H   0  0  0  0  0  0  0  0  0  0  0  0
   59.8891   34.8217   49.8626 H   0  0  0  0  0  0  0  0  0  0  0  0
   60.3937   33.3223   50.7684 H   0  0  0  0  0  0  0  0  0  0  0  0
   62.0405   34.5794   48.5499 H   0  0  0  0  0  0  0  0  0  0  0  0
   62.1965   34.9461   50.3684 H   0  0  0  0  0  0  0  0  0  0  0  0
   62.3847   33.2484   51.8038 H   0  0  0  0  0  0  0  0  0  0  0  0
   63.6382   32.0104   51.4535 H   0  0  0  0  0  0  0  0  0  0  0  0
   64.0726   33.7533   51.4535 H   0  0  0  0  0  0  0  0  0  0  0  0
   63.1628   30.9981   49.8036 H   0  0  0  0  0  0  0  0  0  0  0  0
   61.4557   31.6594   49.6127 H   0  0  0  0  0  0  0  0  0  0  0  0
   63.3183   30.7308   47.5874 H   0  0  0  0  0  0  0  0  0  0  0  0
   61.5456   31.1855   47.4928 H   0  0  0  0  0  0  0  0  0  0  0  0
   63.0964   32.4324   45.9319 H   0  0  0  0  0  0  0  0  0  0  0  0
   62.0360   33.4245   47.0196 H   0  0  0  0  0  0  0  0  0  0  0  0
   65.0226   32.9982   47.0993 H   0  0  0  0  0  0  0  0  0  0  0  0
   64.0206   34.5259   47.2231 H   0  0  0  0  0  0  0  0  0  0  0  0
   64.9917   32.7011   49.3414 H   0  0  0  0  0  0  0  0  0  0  0  0
   64.5011   34.4670   49.3746 H   0  0  0  0  0  0  0  0  0  0  0  0
  1  2  1  0
  2  3  1  0
  3  4  1  0
  4  5  1  0
  3  6  1  0
  6  7  1  0
  7  8  1  0
  8  9  1  0
  9 10  1  0
 10 11  1  0
 11 12  1  0
 12 13  1  0
 13 14  1  0
 14 15  1  0
 15 16  2  0
 16 17  1  0
 17 18  2  0
 18 19  1  0
 19 20  2  0
 20 21  1  0
 21 22  2  0
 22 23  1  0
 22 24  1  0
 24 25  2  0
 25 26  1  0
 26 27  2  0
 27 28  1  0
 28 29  1  0
 29 30  1  0
 30 31  1  0
 31 32  1  0
 32 33  1  0
 32 34  1  0
 34 35  1  0
 35 36  1  0
 36 37  1  0
 37 38  1  0
 28 39  2  0
 39 15  1  0
 21 16  1  0
 39 24  1  0
 38 32  1  0
  1 40  1  0
  1 41  1  0
  1 42  1  0
  2 43  1  0
  2 44  1  0
  3 45  1  0
  4 46  1  0
  4 47  1  0
  5 48  1  0
  5 49  1  0
  5 50  1  0
  6 51  1  0
  6 52  1  0
  7 53  1  0
  7 54  1  0
  9 55  1  0
  9 56  1  0
 10 57  1  0
 10 58  1  0
 12 59  1  0
 12 60  1  0
 13 61  1  0
 13 62  1  0
 14 63  1  0
 17 64  1  0
 18 65  1  0
 19 66  1  0
 20 67  1  0
 23 68  1  0
 23 69  1  0
 23 70  1  0
 25 71  1  0
 26 72  1  0
 27 73  1  0
 30 74  1  0
 30 75  1  0
 31 76  1  0
 31 77  1  0
 33 78  1  0
 33 79  1  0
 33 80  1  0
 34 81  1  0
 34 82  1  0
 35 83  1  0
 35 84  1  0
 36 85  1  0
 36 86  1  0
 37 87  1  0
 37 88  1  0
 38 89  1  0
 38 90  1  0
M  CHG  3   3   1  22   1  32   1
M  END
>  <UniqueID>  (11) 
11

>  <SMILES>  (11) 
CC[NH+](CC)CCOCCOCCNc1c2ccccc2[n+](C)c2cccc(OCC[N+]3(C)CCCCC3)c12

>  <Energy>  (11) 
147.21037861118117

>  <Genealogy>  (11) 
CC[NH+](CC)CCOCCOCCNc1c2ccccc2[n+](C)c2cccc(OCC[N+]3(C)CCCCC3)c12 (protonated)
CC[NH+](CC)CCOCCOCCNc1c2ccccc2[n+](C)c2cccc(OCC[N+]3(C)CCCCC3)c12 (3D coordinates assigned)
CC[NH+](CC)CCOCCOCCNc1c2ccccc2[n+](C)c2cccc(OCC[N+]3(C)CCCCC3)c12 (nonaromatic ring conformer: 147.21037861118117 kcal/mol)

>  <smiles>  (11) 
CCN(CC)CCOCCOCCNc1c2ccccc2[n+](C)c2cccc(OCC[N+]3(C)CCCCC3)c12

>  <score_type>  (11) 
oracle

>  <origin>  (11) 
adg

>  <m_score__min__energy>  (11) 
-4.0800000000000001

>  <m_primary>  (11) 
energy

$$$$
11:0
     RDKit          3D

 50 50  0  0  0  0  0  0  0  0999 V2000
   60.7250   26.3960   46.4370 C   0  0  0  0  0  0  0  0  0  0  0  0
   60.6290   26.9190   47.8670 C   0  0  0  0  0  0  0  0  0  0  0  0
   59.7270   28.0240   47.9430 O   0  0  0  0  0  0  0  0  0  0  0  0
   58.7210   28.3370   47.0130 C   0  0  0  0  0  0  0  0  0  0  0  0
   57.6640   27.4490   46.7360 C   0  0  0  0  0  0  0  0  0  0  0  0
   56.6460   27.7990   45.8490 C   0  0  0  0  0  0  0  0  0  0  0  0
   55.5890   26.8560   45.6190 N   0  0  0  0  0  0  0  0  0  0  0  0
   55.6700   25.1460   45.8950 S   0  0  0  0  0  0  0  0  0  0  0  0
   56.6710   24.3670   44.6460 C   0  0  0  0  0  0  0  0  0  0  0  0
   54.2800   24.5800   45.8220 O   0  0  0  0  0  0  0  0  0  0  0  0
   56.2310   24.8720   47.2630 O   0  0  0  0  0  0  0  0  0  0  0  0
   56.6760   29.0560   45.2300 C   0  0  0  0  0  0  0  0  0  0  0  0
   57.7150   29.9670   45.4890 C   0  0  0  0  0  0  0  0  0  0  0  0
   57.6750   31.2900   44.8050 C   0  0  0  0  0  0  0  0  0  0  0  0
   57.6560   31.3200   43.5440 O   0  0  0  0  0  0  0  0  0  0  0  0
   57.6200   32.6100   45.5430 C   0  0  0  0  0  0  0  0  0  0  0  0
   58.8300   32.8510   46.3690 N   0  0  2  0  0  0  0  0  0  0  0  0
   58.4870   33.0170   47.7950 C   0  0  0  0  0  0  0  0  0  0  0  0
   59.6380   33.9860   45.8550 C   0  0  0  0  0  0  0  0  0  0  0  0
   58.9010   34.8930   44.8570 C   0  0  0  0  0  0  0  0  0  0  0  0
   58.7640   29.5860   46.3590 C   0  0  0  0  0  0  0  0  0  0  0  0
   59.8290   30.4680   46.5840 O   0  0  0  0  0  0  0  0  0  0  0  0
   61.2000   30.0910   46.4850 C   0  0  0  0  0  0  0  0  0  0  0  0
   62.0620   31.1520   47.1530 C   0  0  0  0  0  0  0  0  0  0  0  0
   60.9236   25.3142   46.4548 H   0  0  0  0  0  0  0  0  0  0  0  0
   59.7769   26.5862   45.9126 H   0  0  0  0  0  0  0  0  0  0  0  0
   61.5437   26.9105   45.9126 H   0  0  0  0  0  0  0  0  0  0  0  0
   60.2678   26.1128   48.5225 H   0  0  0  0  0  0  0  0  0  0  0  0
   61.6262   27.2549   48.1875 H   0  0  0  0  0  0  0  0  0  0  0  0
   57.6407   26.4646   47.2264 H   0  0  0  0  0  0  0  0  0  0  0  0
   57.4514   23.7596   45.1277 H   0  0  0  0  0  0  0  0  0  0  0  0
   56.0385   23.7212   44.0192 H   0  0  0  0  0  0  0  0  0  0  0  0
   57.1417   25.1388   44.0192 H   0  0  0  0  0  0  0  0  0  0  0  0
   55.8740   29.3342   44.5305 H   0  0  0  0  0  0  0  0  0  0  0  0
   57.5281   33.4221   44.8068 H   0  0  0  0  0  0  0  0  0  0  0  0
   56.7540   32.5780   46.2205 H   0  0  0  0  0  0  0  0  0  0  0  0
   59.4540   32.0130   46.3050 H   0  0  0  0  0  0  0  0  0  0  0  0
   59.3037   32.6218   48.4170 H   0  0  0  0  0  0  0  0  0  0  0  0
   58.3421   34.0849   48.0154 H   0  0  0  0  0  0  0  0  0  0  0  0
   57.5596   32.4680   48.0154 H   0  0  0  0  0  0  0  0  0  0  0  0
   59.9507   34.6009   46.7118 H   0  0  0  0  0  0  0  0  0  0  0  0
   60.4855   33.5449   45.3098 H   0  0  0  0  0  0  0  0  0  0  0  0
   58.3005   35.6321   45.4076 H   0  0  0  0  0  0  0  0  0  0  0  0
   59.6346   35.4145   44.2246 H   0  0  0  0  0  0  0  0  0  0  0  0
   58.2405   34.2817   44.2246 H   0  0  0  0  0  0  0  0  0  0  0  0
   61.3525   29.1241   46.9868 H   0  0  0  0  0  0  0  0  0  0  0  0
   61.4819   30.0001   45.4256 H   0  0  0  0  0  0  0  0  0  0  0  0
   61.9826   31.0543   48.2458 H   0  0  0  0  0  0  0  0  0  0  0  0
   63.1104   31.0180   46.8481 H   0  0  0  0  0  0  0  0  0  0  0  0
   61.7162   32.1507   46.8481 H   0  0  0  0  0  0  0  0  0  0  0  0
  1  2  1  0
  2  3  1  0
  3  4  1  0
  4  5  2  0
  5  6  1  0
  6  7  1  0
  7  8  1  0
  8  9  1  0
  8 10  2  0
  8 11  2  0
  6 12  2  0
 12 13  1  0
 13 14  1  0
 14 15  2  0
 14 16  1  0
 16 17  1  0
 17 18  1  0
 17 19  1  0
 19 20  1  0
 13 21  2  0
 21 22  1  0
 22 23  1  0
 23 24  1  0
 21  4  1  0
  1 25  1  0
  1 26  1  0
  1 27  1  0
  2 28  1  0
  2 29  1  0
  5 30  1  0
  9 31  1  0
  9 32  1  0
  9 33  1  0
 12 34  1  0
 16 35  1  0
 16 36  1  0
 17 37  1  1
 18 38  1  0
 18 39  1  0
 18 40  1  0
 19 41  1  0
 19 42  1  0
 20 43  1  0
 20 44  1  0
 20 45  1  0
 23 46  1  0
 23 47  1  0
 24 48  1  0
 24 49  1  0
 24 50  1  0
M  CHG  2   7  -1  17   1
M  END
>  <UniqueID>  (12) 
12

>  <SMILES>  (12) 
CCOc1cc([N-]S(C)(=O)=O)cc(C(=O)C[N@H+](C)CC)c1OCC

>  <Energy>  (12) 
52.283615184741954

>  <Genealogy>  (12) 
CCOc1cc([N-]S(C)(=O)=O)cc(C(=O)C[NH+](C)CC)c1OCC (protonated)
CCOc1cc([N-]S(C)(=O)=O)cc(C(=O)C[N@H+](C)CC)c1OCC (chirality)
CCOc1cc([N-]S(C)(=O)=O)cc(C(=O)C[N@H+](C)CC)c1OCC (3D coordinates assigned)
CCOc1cc([N-]S(C)(=O)=O)cc(C(=O)C[N@H+](C)CC)c1OCC (optimized conformer: 52.283615184741954 kcal/mol)

>  <smiles>  (12) 
CCOc1cc(NS(C)(=O)=O)cc(C(=O)CN(C)CC)c1OCC

>  <score_type>  (12) 
oracle

>  <origin>  (12) 
adg

>  <m_score__min__energy>  (12) 
-6.9500000000000002

>  <m_primary>  (12) 
energy

$$$$
12:0
     RDKit          3D

 52 55  0  0  0  0  0  0  0  0999 V2000
   57.5310   32.1580   42.8310 C   0  0  0  0  0  0  0  0  0  0  0  0
   58.1440   31.8970   44.1290 N   0  0  0  0  0  0  0  0  0  0  0  0
   58.4810   30.6850   44.6270 C   0  0  0  0  0  0  0  0  0  0  0  0
   59.0820   30.8280   45.8740 C   0  0  0  0  0  0  0  0  0  0  0  0
   59.6390   29.7190   46.7180 C   0  0  0  0  0  0  0  0  0  0  0  0
   58.8600   28.4780   46.5340 N   0  0  0  0  0  0  0  0  0  0  0  0
   58.9320   27.6200   47.7450 C   0  0  0  0  0  0  0  0  0  0  0  0
   58.2990   26.2250   47.5740 C   0  0  0  0  0  0  0  0  0  0  0  0
   58.9860   25.3590   46.4910 C   0  0  0  0  0  0  0  0  0  0  0  0
   58.2640   25.4290   45.1990 N   0  0  0  0  0  0  0  0  0  0  0  0
   56.9810   24.6990   45.2560 C   0  0  0  0  0  0  0  0  0  0  0  0
   57.0930   23.3970   44.5090 C   0  0  0  0  0  0  0  0  0  0  0  0
   56.3930   23.2100   43.3090 C   0  0  0  0  0  0  0  0  0  0  0  0
   56.5100   22.0070   42.6130 C   0  0  0  0  0  0  0  0  0  0  0  0
   57.3260   20.9970   43.1260 C   0  0  0  0  0  0  0  0  0  0  0  0
   58.0010   21.1880   44.2920 N   0  0  0  0  0  0  0  0  0  0  0  0
   57.9030   22.3560   44.9870 C   0  0  0  0  0  0  0  0  0  0  0  0
   58.0430   26.8240   44.7620 C   0  0  0  0  0  0  0  0  0  0  0  0
   59.1360   27.8080   45.2350 C   0  0  0  0  0  0  0  0  0  0  0  0
   59.1200   32.1890   46.1220 C   0  0  0  0  0  0  0  0  0  0  0  0
   59.6330   32.9170   47.1960 C   0  0  0  0  0  0  0  0  0  0  0  0
   59.5400   34.3180   47.1470 C   0  0  0  0  0  0  0  0  0  0  0  0
   58.9460   34.9580   46.0370 C   0  0  0  0  0  0  0  0  0  0  0  0
   58.4400   34.2000   44.9650 C   0  0  0  0  0  0  0  0  0  0  0  0
   58.5430   32.8090   45.0400 C   0  0  0  0  0  0  0  0  0  0  0  0
   56.5280   32.5850   42.9784 H   0  0  0  0  0  0  0  0  0  0  0  0
   58.1532   32.8692   42.2680 H   0  0  0  0  0  0  0  0  0  0  0  0
   57.4495   31.2165   42.2680 H   0  0  0  0  0  0  0  0  0  0  0  0
   58.3053   29.7251   44.1194 H   0  0  0  0  0  0  0  0  0  0  0  0
   60.6840   29.5351   46.4280 H   0  0  0  0  0  0  0  0  0  0  0  0
   59.5818   30.0177   47.7751 H   0  0  0  0  0  0  0  0  0  0  0  0
   59.9912   27.4872   48.0104 H   0  0  0  0  0  0  0  0  0  0  0  0
   58.3553   28.1331   48.5287 H   0  0  0  0  0  0  0  0  0  0  0  0
   58.3631   25.6943   48.5354 H   0  0  0  0  0  0  0  0  0  0  0  0
   57.2596   26.3811   47.2494 H   0  0  0  0  0  0  0  0  0  0  0  0
   60.0150   25.7195   46.3451 H   0  0  0  0  0  0  0  0  0  0  0  0
   58.9813   24.3132   46.8320 H   0  0  0  0  0  0  0  0  0  0  0  0
   56.7248   24.4951   46.3061 H   0  0  0  0  0  0  0  0  0  0  0  0
   56.1959   25.3140   44.7918 H   0  0  0  0  0  0  0  0  0  0  0  0
   55.7512   24.0123   42.9161 H   0  0  0  0  0  0  0  0  0  0  0  0
   55.9650   21.8556   41.6696 H   0  0  0  0  0  0  0  0  0  0  0  0
   57.4236   20.0437   42.5859 H   0  0  0  0  0  0  0  0  0  0  0  0
   58.6100   20.4250   44.6620 H   0  0  0  0  0  0  0  0  0  0  0  0
   58.4611   22.4831   45.9264 H   0  0  0  0  0  0  0  0  0  0  0  0
   58.0128   26.8420   43.6626 H   0  0  0  0  0  0  0  0  0  0  0  0
   57.0971   27.1549   45.2155 H   0  0  0  0  0  0  0  0  0  0  0  0
   60.0786   27.2495   45.3327 H   0  0  0  0  0  0  0  0  0  0  0  0
   59.1776   28.6069   44.4800 H   0  0  0  0  0  0  0  0  0  0  0  0
   60.0962   32.4095   48.0550 H   0  0  0  0  0  0  0  0  0  0  0  0
   59.9327   34.9208   47.9792 H   0  0  0  0  0  0  0  0  0  0  0  0
   58.8785   36.0556   46.0103 H   0  0  0  0  0  0  0  0  0  0  0  0
   57.9774   34.6879   44.0944 H   0  0  0  0  0  0  0  0  0  0  0  0
  1  2  1  0
  2  3  1  0
  3  4  2  0
  4  5  1  0
  5  6  1  0
  6  7  1  0
  7  8  1  0
  8  9  1  0
  9 10  1  0
 10 11  1  0
 11 12  1  0
 12 13  2  0
 13 14  1  0
 14 15  2  0
 15 16  1  0
 16 17  2  0
 10 18  1  0
 18 19  1  0
  4 20  1  0
 20 21  2  0
 21 22  1  0
 22 23  2  0
 23 24  1  0
 24 25  2  0
 25  2  1  0
 19  6  1  0
 25 20  1  0
 17 12  1  0
  1 26  1  0
  1 27  1  0
  1 28  1  0
  3 29  1  0
  5 30  1  0
  5 31  1  0
  7 32  1  0
  7 33  1  0
  8 34  1  0
  8 35  1  0
  9 36  1  0
  9 37  1  0
 11 38  1  0
 11 39  1  0
 13 40  1  0
 14 41  1  0
 15 42  1  0
 16 43  1  0
 17 44  1  0
 18 45  1  0
 18 46  1  0
 19 47  1  0
 19 48  1  0
 21 49  1  0
 22 50  1  0
 23 51  1  0
 24 52  1  0
M  CHG  1  16   1
M  END
>  <UniqueID>  (13) 
13

>  <SMILES>  (13) 
Cn1cc(CN2CCCN(Cc3ccc[nH+]c3)CC2)c2ccccc21

>  <Energy>  (13) 
103.8719904596748

>  <Genealogy>  (13) 
Cn1cc(CN2CCCN(Cc3ccc[nH+]c3)CC2)c2ccccc21 (protonated)
Cn1cc(CN2CCCN(Cc3ccc[nH+]c3)CC2)c2ccccc21 (3D coordinates assigned)
Cn1cc(CN2CCCN(Cc3ccc[nH+]c3)CC2)c2ccccc21 (nonaromatic ring conformer: 103.8719904596748 kcal/mol)

>  <smiles>  (13) 
Cn1cc(CN2CCCN(Cc3cccnc3)CC2)c2ccccc21

>  <score_type>  (13) 
oracle

>  <origin>  (13) 
adg

>  <m_score__min__energy>  (13) 
-5.4100000000000001

>  <m_primary>  (13) 
energy

$$$$
13:0
     RDKit          3D

 55 58  0  0  0  0  0  0  0  0999 V2000
   63.3770   32.5950   47.1640 C   0  0  0  0  0  0  0  0  0  0  0  0
   63.3810   33.8460   48.0520 C   0  0  0  0  0  0  0  0  0  0  0  0
   62.1940   33.9220   48.9260 N   0  0  0  0  0  0  0  0  0  0  0  0
   62.5280   33.6600   50.3350 C   0  0  0  0  0  0  0  0  0  0  0  0
   61.2520   33.5120   51.1750 C   0  0  0  0  0  0  0  0  0  0  0  0
   59.7580   33.8440   50.1690 S   0  0  0  0  0  0  0  0  0  0  0  0
   58.8810   32.3110   50.6210 C   0  0  0  0  0  0  0  0  0  0  0  0
   59.4190   31.1320   49.8120 C   0  0  0  0  0  0  0  0  0  0  0  0
   60.1690   31.6130   48.6510 N   0  0  0  0  0  0  0  0  0  0  0  0
   59.6180   31.5300   47.3300 C   0  0  0  0  0  0  0  0  0  0  0  0
   59.2510   30.2940   46.8030 C   0  0  0  0  0  0  0  0  0  0  0  0
   58.6610   30.2040   45.5570 C   0  0  0  0  0  0  0  0  0  0  0  0
   58.3090   31.3240   44.8340 N   0  0  0  0  0  0  0  0  0  0  0  0
   57.3900   31.2070   43.6880 C   0  0  0  0  0  0  0  0  0  0  0  0
   58.7710   32.5570   45.2650 C   0  0  0  0  0  0  0  0  0  0  0  0
   58.6140   33.7280   44.4810 C   0  0  0  0  0  0  0  0  0  0  0  0
   59.0210   34.9720   44.9620 C   0  0  0  0  0  0  0  0  0  0  0  0
   59.6100   35.0780   46.2220 C   0  0  0  0  0  0  0  0  0  0  0  0
   59.8220   33.9430   47.0000 C   0  0  0  0  0  0  0  0  0  0  0  0
   59.4200   32.6780   46.5380 C   0  0  0  0  0  0  0  0  0  0  0  0
   58.4770   28.7740   45.2590 C   0  0  0  0  0  0  0  0  0  0  0  0
   58.1220   28.1120   44.0750 C   0  0  0  0  0  0  0  0  0  0  0  0
   58.1170   26.7070   44.0660 C   0  0  0  0  0  0  0  0  0  0  0  0
   58.5160   25.9840   45.2060 C   0  0  0  0  0  0  0  0  0  0  0  0
   58.9330   26.6550   46.3610 C   0  0  0  0  0  0  0  0  0  0  0  0
   58.9110   28.0500   46.3660 C   0  0  0  0  0  0  0  0  0  0  0  0
   59.4200   28.9420   47.4490 C   0  0  0  0  0  0  0  0  0  0  0  0
   63.3741   31.6957   47.7975 H   0  0  0  0  0  0  0  0  0  0  0  0
   62.4789   32.5990   46.5289 H   0  0  0  0  0  0  0  0  0  0  0  0
   64.2751   32.5933   46.5289 H   0  0  0  0  0  0  0  0  0  0  0  0
   64.2825   33.8286   48.6820 H   0  0  0  0  0  0  0  0  0  0  0  0
   63.3666   34.7253   47.3912 H   0  0  0  0  0  0  0  0  0  0  0  0
   61.7630   34.8720   48.8300 H   0  0  0  0  0  0  0  0  0  0  0  0
   63.1137   32.7312   50.4009 H   0  0  0  0  0  0  0  0  0  0  0  0
   63.1120   34.5071   50.7241 H   0  0  0  0  0  0  0  0  0  0  0  0
   61.1987   32.4867   51.5698 H   0  0  0  0  0  0  0  0  0  0  0  0
   61.2886   34.2416   51.9974 H   0  0  0  0  0  0  0  0  0  0  0  0
   59.0275   32.1121   51.6929 H   0  0  0  0  0  0  0  0  0  0  0  0
   57.8100   32.4347   50.4027 H   0  0  0  0  0  0  0  0  0  0  0  0
   60.0829   30.5282   50.4481 H   0  0  0  0  0  0  0  0  0  0  0  0
   58.5731   30.5212   49.4636 H   0  0  0  0  0  0  0  0  0  0  0  0
   61.0940   32.0820   48.7880 H   0  0  0  0  0  0  0  0  0  0  0  0
   56.3613   31.0760   44.0548 H   0  0  0  0  0  0  0  0  0  0  0  0
   57.4479   32.1198   43.0769 H   0  0  0  0  0  0  0  0  0  0  0  0
   57.6748   30.3379   43.0769 H   0  0  0  0  0  0  0  0  0  0  0  0
   58.1650   33.6541   43.4796 H   0  0  0  0  0  0  0  0  0  0  0  0
   58.8772   35.8721   44.3462 H   0  0  0  0  0  0  0  0  0  0  0  0
   59.9091   36.0654   46.6037 H   0  0  0  0  0  0  0  0  0  0  0  0
   60.3073   34.0370   47.9827 H   0  0  0  0  0  0  0  0  0  0  0  0
   57.8532   28.6805   43.1725 H   0  0  0  0  0  0  0  0  0  0  0  0
   57.7989   26.1680   43.1614 H   0  0  0  0  0  0  0  0  0  0  0  0
   58.4999   24.8843   45.1888 H   0  0  0  0  0  0  0  0  0  0  0  0
   59.2707   26.0950   47.2455 H   0  0  0  0  0  0  0  0  0  0  0  0
   58.8168   28.8523   48.3645 H   0  0  0  0  0  0  0  0  0  0  0  0
   60.4456   28.7193   47.7785 H   0  0  0  0  0  0  0  0  0  0  0  0
  1  2  1  0
  2  3  1  0
  3  4  1  0
  4  5  1  0
  5  6  1  0
  6  7  1  0
  7  8  1  0
  8  9  1  0
  9 10  1  0
 10 11  2  0
 11 12  1  0
 12 13  2  0
 13 14  1  0
 13 15  1  0
 15 16  2  0
 16 17  1  0
 17 18  2  0
 18 19  1  0
 19 20  2  0
 12 21  1  0
 21 22  2  0
 22 23  1  0
 23 24  2  0
 24 25  1  0
 25 26  2  0
 26 27  1  0
 20 10  1  0
 26 21  1  0
 27 11  1  0
 20 15  1  0
  1 28  1  0
  1 29  1  0
  1 30  1  0
  2 31  1  0
  2 32  1  0
  3 33  1  0
  4 34  1  0
  4 35  1  0
  5 36  1  0
  5 37  1  0
  7 38  1  0
  7 39  1  0
  8 40  1  0
  8 41  1  0
  9 42  1  0
 14 43  1  0
 14 44  1  0
 14 45  1  0
 16 46  1  0
 17 47  1  0
 18 48  1  0
 19 49  1  0
 22 50  1  0
 23 51  1  0
 24 52  1  0
 25 53  1  0
 27 54  1  0
 27 55  1  0
M  CHG  1  13   1
M  END
>  <UniqueID>  (14) 
14

>  <SMILES>  (14) 
CCNCCSCCNc1c2c([n+](C)c3ccccc13)-c1ccccc1C2

>  <Energy>  (14) 
91.78616364923332

>  <Genealogy>  (14) 
CCNCCSCCNc1c2c([n+](C)c3ccccc13)-c1ccccc1C2 (3D coordinates assigned)
CCNCCSCCNc1c2c([n+](C)c3ccccc13)-c1ccccc1C2 (nonaromatic ring conformer: 91.78616364923332 kcal/mol)

>  <smiles>  (14) 
CCNCCSCCNc1c2c([n+](C)c3ccccc13)-c1ccccc1C2

>  <score_type>  (14) 
oracle

>  <origin>  (14) 
adg

>  <m_score__min__energy>  (14) 
-6.8099999999999996

>  <m_primary>  (14) 
energy

$$$$
14:0
     RDKit          3D

 36 37  0  0  0  0  0  0  0  0999 V2000
   60.1210   28.9340   45.2410 C   0  0  0  0  0  0  0  0  0  0  0  0
   58.9900   28.2340   44.4890 C   0  0  0  0  0  0  0  0  0  0  0  0
   57.5950   28.6070   45.0150 C   0  0  0  0  0  0  0  0  0  0  0  0
   56.9080   29.7270   44.2090 C   0  0  0  0  0  0  0  0  0  0  0  0
   57.9080   30.6340   43.6240 N   0  0  0  0  0  0  0  0  0  0  0  0
   57.3990   32.0100   43.5470 C   0  0  0  0  0  0  0  0  0  0  0  0
   58.0890   32.8780   44.5530 C   0  0  0  0  0  0  0  0  0  0  0  0
   57.7720   34.1810   44.8700 C   0  0  0  0  0  0  0  0  0  0  0  0
   58.5910   34.5690   45.8200 O   0  0  0  0  0  0  0  0  0  0  0  0
   59.3900   33.5580   46.0980 C   0  0  0  0  0  0  0  0  0  0  0  0
   60.4510   33.6200   47.1300 C   0  0  0  0  0  0  0  0  0  0  0  0
   61.8090   33.4430   46.8060 C   0  0  0  0  0  0  0  0  0  0  0  0
   62.7890   33.5060   47.8000 C   0  0  0  0  0  0  0  0  0  0  0  0
   62.4270   33.7450   49.1290 C   0  0  0  0  0  0  0  0  0  0  0  0
   63.7700   33.8300   50.4860 Br  0  0  0  0  0  0  0  0  0  0  0  0
   61.0830   33.9220   49.4630 C   0  0  0  0  0  0  0  0  0  0  0  0
   60.0990   33.8600   48.4710 C   0  0  0  0  0  0  0  0  0  0  0  0
   59.1110   32.4800   45.3330 N   0  0  0  0  0  0  0  0  0  0  0  0
   59.9584   28.8334   46.3243 H   0  0  0  0  0  0  0  0  0  0  0  0
   61.0821   28.4726   44.9701 H   0  0  0  0  0  0  0  0  0  0  0  0
   60.1367   30.0000   44.9701 H   0  0  0  0  0  0  0  0  0  0  0  0
   59.0500   28.5138   43.4269 H   0  0  0  0  0  0  0  0  0  0  0  0
   59.1180   27.1516   44.6376 H   0  0  0  0  0  0  0  0  0  0  0  0
   56.9583   27.7108   44.9766 H   0  0  0  0  0  0  0  0  0  0  0  0
   57.7280   28.9837   46.0399 H   0  0  0  0  0  0  0  0  0  0  0  0
   56.3119   29.2773   43.4013 H   0  0  0  0  0  0  0  0  0  0  0  0
   56.2599   30.3035   44.8855 H   0  0  0  0  0  0  0  0  0  0  0  0
   58.1010   30.3200   42.6460 H   0  0  0  0  0  0  0  0  0  0  0  0
   57.5820   32.4084   42.5381 H   0  0  0  0  0  0  0  0  0  0  0  0
   56.3200   32.0041   43.7607 H   0  0  0  0  0  0  0  0  0  0  0  0
   56.9768   34.7864   44.4104 H   0  0  0  0  0  0  0  0  0  0  0  0
   62.1011   33.2537   45.7625 H   0  0  0  0  0  0  0  0  0  0  0  0
   63.8478   33.3672   47.5362 H   0  0  0  0  0  0  0  0  0  0  0  0
   60.7974   34.1106   50.5084 H   0  0  0  0  0  0  0  0  0  0  0  0
   59.0419   33.9999   48.7412 H   0  0  0  0  0  0  0  0  0  0  0  0
   59.5620   31.5400   45.3320 H   0  0  0  0  0  0  0  0  0  0  0  0
  1  2  1  0
  2  3  1  0
  3  4  1  0
  4  5  1  0
  5  6  1  0
  6  7  1  0
  7  8  2  0
  8  9  1  0
  9 10  1  0
 10 11  1  0
 11 12  2  0
 12 13  1  0
 13 14  2  0
 14 15  1  0
 14 16  1  0
 16 17  2  0
 10 18  2  0
 18  7  1  0
 17 11  1  0
  1 19  1  0
  1 20  1  0
  1 21  1  0
  2 22  1  0
  2 23  1  0
  3 24  1  0
  3 25  1  0
  4 26  1  0
  4 27  1  0
  5 28  1  0
  6 29  1  0
  6 30  1  0
  8 31  1  0
 12 32  1  0
 13 33  1  0
 16 34  1  0
 17 35  1  0
 18 36  1  0
M  CHG  1  18   1
M  END
>  <UniqueID>  (15) 
15

>  <SMILES>  (15) 
CCCCNCc1coc(-c2ccc(Br)cc2)[nH+]1

>  <Energy>  (15) 
62.4618526657795

>  <Genealogy>  (15) 
CCCCNCc1coc(-c2ccc(Br)cc2)[nH+]1 (protonated)
CCCCNCc1coc(-c2ccc(Br)cc2)[nH+]1 (3D coordinates assigned)
CCCCNCc1coc(-c2ccc(Br)cc2)[nH+]1 (optimized conformer: 62.4618526657795 kcal/mol)

>  <smiles>  (15) 
CCCCNCc1coc(-c2ccc(Br)cc2)n1

>  <score_type>  (15) 
oracle

>  <origin>  (15) 
adg

>  <m_score__min__energy>  (15) 
-5.0599999999999996

>  <m_primary>  (15) 
energy

$$$$
15:0
     RDKit          3D

 65 66  0  0  0  0  0  0  0  0999 V2000
   62.5170   32.7890   47.1440 C   0  0  0  0  0  0  0  0  0  0  0  0
   61.3340   33.5540   46.5490 C   0  0  0  0  0  0  0  0  0  0  0  0
   60.5940   34.3240   47.5740 N   0  0  0  0  0  0  0  0  0  0  0  0
   61.0070   34.0820   48.9760 C   0  0  0  0  0  0  0  0  0  0  0  0
   59.8620   34.1550   49.9920 C   0  0  0  0  0  0  0  0  0  0  0  0
   59.1420   34.5430   47.3560 C   0  0  0  0  0  0  0  0  0  0  0  0
   58.5040   33.6910   46.2400 C   0  0  0  0  0  0  0  0  0  0  0  0
   57.9080   32.4550   46.7500 N   0  0  0  0  0  0  0  0  0  0  0  0
   58.6570   31.2320   46.7080 C   0  0  0  0  0  0  0  0  0  0  0  0
   58.8950   30.5820   45.4790 C   0  0  0  0  0  0  0  0  0  0  0  0
   58.4850   31.1950   44.1630 C   0  0  0  0  0  0  0  0  0  0  0  0
   57.3540   30.5100   43.6300 O   0  0  0  0  0  0  0  0  0  0  0  0
   56.6360   29.5330   44.3320 C   0  0  0  0  0  0  0  0  0  0  0  0
   55.5010   29.8050   44.8130 O   0  0  0  0  0  0  0  0  0  0  0  0
   57.1900   28.2150   44.5040 N   0  0  0  0  0  0  0  0  0  0  0  0
   57.7930   27.5400   43.3480 C   0  0  0  0  0  0  0  0  0  0  0  0
   56.9920   27.4870   45.7670 C   0  0  0  0  0  0  0  0  0  0  0  0
   56.8450   25.9580   45.5710 C   0  0  0  0  0  0  0  0  0  0  0  0
   55.7900   25.2970   46.3750 N   0  0  0  0  0  0  0  0  0  0  0  0
   56.3150   24.4360   47.4440 C   0  0  0  0  0  0  0  0  0  0  0  0
   54.7650   24.6130   45.5720 C   0  0  0  0  0  0  0  0  0  0  0  0
   59.6070   29.3750   45.4770 C   0  0  0  0  0  0  0  0  0  0  0  0
   60.0770   28.8340   46.6330 N   0  0  0  0  0  0  0  0  0  0  0  0
   60.7730   27.6470   46.5580 O   0  0  0  0  0  0  0  0  0  0  0  0
   59.8760   29.4460   47.8390 C   0  0  0  0  0  0  0  0  0  0  0  0
   60.3750   28.8790   49.0280 C   0  0  0  0  0  0  0  0  0  0  0  0
   60.1610   29.5050   50.2580 C   0  0  0  0  0  0  0  0  0  0  0  0
   60.7890   28.7850   51.7300 Cl  0  0  0  0  0  0  0  0  0  0  0  0
   59.4500   30.7040   50.3180 C   0  0  0  0  0  0  0  0  0  0  0  0
   58.9490   31.2830   49.1510 C   0  0  0  0  0  0  0  0  0  0  0  0
   59.1570   30.6670   47.9000 C   0  0  0  0  0  0  0  0  0  0  0  0
   62.4618   32.8247   48.2420 H   0  0  0  0  0  0  0  0  0  0  0  0
   62.4823   31.7418   46.8090 H   0  0  0  0  0  0  0  0  0  0  0  0
   63.4578   33.2502   46.8090 H   0  0  0  0  0  0  0  0  0  0  0  0
   61.7105   34.2508   45.7857 H   0  0  0  0  0  0  0  0  0  0  0  0
   60.6413   32.8191   46.1131 H   0  0  0  0  0  0  0  0  0  0  0  0
   61.4563   33.0797   49.0347 H   0  0  0  0  0  0  0  0  0  0  0  0
   61.7134   34.8831   49.2392 H   0  0  0  0  0  0  0  0  0  0  0  0
   60.2742   34.1287   51.0115 H   0  0  0  0  0  0  0  0  0  0  0  0
   59.3021   35.0907   49.8469 H   0  0  0  0  0  0  0  0  0  0  0  0
   59.1878   33.2980   49.8469 H   0  0  0  0  0  0  0  0  0  0  0  0
   58.6196   34.3157   48.2970 H   0  0  0  0  0  0  0  0  0  0  0  0
   59.0387   35.5898   47.0343 H   0  0  0  0  0  0  0  0  0  0  0  0
   57.7192   34.2844   45.7481 H   0  0  0  0  0  0  0  0  0  0  0  0
   59.3012   33.4118   45.5353 H   0  0  0  0  0  0  0  0  0  0  0  0
   56.8720   32.3770   46.8430 H   0  0  0  0  0  0  0  0  0  0  0  0
   58.2279   32.2530   44.3198 H   0  0  0  0  0  0  0  0  0  0  0  0
   59.3213   31.1120   43.4532 H   0  0  0  0  0  0  0  0  0  0  0  0
   58.4876   26.7625   43.6987 H   0  0  0  0  0  0  0  0  0  0  0  0
   57.0018   27.0776   42.7396 H   0  0  0  0  0  0  0  0  0  0  0  0
   58.3414   28.2743   42.7396 H   0  0  0  0  0  0  0  0  0  0  0  0
   57.8582   27.6746   46.4186 H   0  0  0  0  0  0  0  0  0  0  0  0
   56.0546   27.8519   46.2121 H   0  0  0  0  0  0  0  0  0  0  0  0
   56.6230   25.7749   44.5093 H   0  0  0  0  0  0  0  0  0  0  0  0
   57.7951   25.5229   45.9146 H   0  0  0  0  0  0  0  0  0  0  0  0
   56.0532   24.8653   48.4224 H   0  0  0  0  0  0  0  0  0  0  0  0
   55.8755   23.4315   47.3549 H   0  0  0  0  0  0  0  0  0  0  0  0
   57.4092   24.3667   47.3549 H   0  0  0  0  0  0  0  0  0  0  0  0
   54.0385   24.1282   46.2407 H   0  0  0  0  0  0  0  0  0  0  0  0
   54.2464   25.3467   44.9374 H   0  0  0  0  0  0  0  0  0  0  0  0
   55.2435   23.8525   44.9374 H   0  0  0  0  0  0  0  0  0  0  0  0
   59.7889   28.8562   44.5242 H   0  0  0  0  0  0  0  0  0  0  0  0
   60.9381   27.9349   48.9874 H   0  0  0  0  0  0  0  0  0  0  0  0
   59.2837   31.1947   51.2884 H   0  0  0  0  0  0  0  0  0  0  0  0
   58.3875   32.2272   49.2078 H   0  0  0  0  0  0  0  0  0  0  0  0
  1  2  1  0
  2  3  1  0
  3  4  1  0
  4  5  1  0
  3  6  1  0
  6  7  1  0
  7  8  1  0
  8  9  1  0
  9 10  2  0
 10 11  1  0
 11 12  1  0
 12 13  1  0
 13 14  2  0
 13 15  1  0
 15 16  1  0
 15 17  1  0
 17 18  1  0
 18 19  1  0
 19 20  1  0
 19 21  1  0
 10 22  1  0
 22 23  2  0
 23 24  1  0
 23 25  1  0
 25 26  2  0
 26 27  1  0
 27 28  1  0
 27 29  2  0
 29 30  1  0
 30 31  2  0
 31  9  1  0
 31 25  1  0
  1 32  1  0
  1 33  1  0
  1 34  1  0
  2 35  1  0
  2 36  1  0
  4 37  1  0
  4 38  1  0
  5 39  1  0
  5 40  1  0
  5 41  1  0
  6 42  1  0
  6 43  1  0
  7 44  1  0
  7 45  1  0
  8 46  1  0
 11 47  1  0
 11 48  1  0
 16 49  1  0
 16 50  1  0
 16 51  1  0
 17 52  1  0
 17 53  1  0
 18 54  1  0
 18 55  1  0
 20 56  1  0
 20 57  1  0
 20 58  1  0
 21 59  1  0
 21 60  1  0
 21 61  1  0
 22 62  1  0
 26 63  1  0
 29 64  1  0
 30 65  1  0
M  CHG  2  23   1  24  -1
M  END
>  <UniqueID>  (16) 
16

>  <SMILES>  (16) 
CCN(CC)CCNc1c(COC(=O)N(C)CCN(C)C)c[n+]([O-])c2cc(Cl)ccc12

>  <Energy>  (16) 
79.74176039521564

>  <Genealogy>  (16) 
CCN(CC)CCNc1c(COC(=O)N(C)CCN(C)C)c[n+]([O-])c2cc(Cl)ccc12 (3D coordinates assigned)
CCN(CC)CCNc1c(COC(=O)N(C)CCN(C)C)c[n+]([O-])c2cc(Cl)ccc12 (optimized conformer: 79.74176039521564 kcal/mol)

>  <smiles>  (16) 
CCN(CC)CCNc1c(COC(=O)N(C)CCN(C)C)c[n+]([O-])c2cc(Cl)ccc12

>  <score_type>  (16) 
oracle

>  <origin>  (16) 
adg

>  <m_score__min__energy>  (16) 
-6.0499999999999998

>  <m_primary>  (16) 
energy

$$$$
16:0
     RDKit          3D

 66 69  0  0  0  0  0  0  0  0999 V2000
   59.8740   34.4270   48.8430 C   0  0  0  0  0  0  0  0  0  0  0  0
   59.7230   33.1930   48.0400 N   0  0  0  0  0  0  0  0  0  0  0  0
   59.0950   33.2420   46.8090 C   0  0  0  0  0  0  0  0  0  0  0  0
   58.8530   34.4710   46.1440 C   0  0  0  0  0  0  0  0  0  0  0  0
   58.1990   34.5070   44.9130 C   0  0  0  0  0  0  0  0  0  0  0  0
   57.7850   33.3280   44.3060 C   0  0  0  0  0  0  0  0  0  0  0  0
   58.0390   32.1030   44.9170 C   0  0  0  0  0  0  0  0  0  0  0  0
   58.6980   32.0400   46.1630 C   0  0  0  0  0  0  0  0  0  0  0  0
   58.9990   30.8020   46.7580 C   0  0  0  0  0  0  0  0  0  0  0  0
   58.5620   29.5790   46.1400 N   0  0  0  0  0  0  0  0  0  0  0  0
   59.4750   28.7680   45.3360 C   0  0  0  0  0  0  0  0  0  0  0  0
   58.7240   28.0640   44.2100 C   0  0  0  0  0  0  0  0  0  0  0  0
   57.3430   28.3500   44.3140 O   0  0  0  0  0  0  0  0  0  0  0  0
   56.9640   29.3270   43.3630 C   0  0  0  0  0  0  0  0  0  0  0  0
   55.6130   29.9310   43.7360 C   0  0  0  0  0  0  0  0  0  0  0  0
   55.1250   29.3270   44.8800 F   0  0  0  0  0  0  0  0  0  0  0  0
   59.7990   30.7680   47.9150 C   0  0  0  0  0  0  0  0  0  0  0  0
   60.2130   29.5430   48.4760 C   0  0  0  0  0  0  0  0  0  0  0  0
   61.0500   29.5130   49.5890 C   0  0  0  0  0  0  0  0  0  0  0  0
   61.5130   30.7060   50.1590 C   0  0  0  0  0  0  0  0  0  0  0  0
   62.3970   30.7340   51.2510 O   0  0  0  0  0  0  0  0  0  0  0  0
   63.7650   30.3200   51.2290 C   0  0  0  0  0  0  0  0  0  0  0  0
   64.6860   31.4840   51.6670 C   0  0  0  0  0  0  0  0  0  0  0  0
   65.0630   32.4450   50.5790 N   0  0  0  0  0  0  0  0  0  0  0  0
   66.5390   32.4460   50.4010 C   0  0  0  0  0  0  0  0  0  0  0  0
   64.3990   32.0660   49.2890 C   0  0  0  0  0  0  0  0  0  0  0  0
   64.0300   33.2990   48.4440 C   0  0  0  0  0  0  0  0  0  0  0  0
   63.1000   34.1570   49.0890 O   0  0  0  0  0  0  0  0  0  0  0  0
   63.2310   34.1770   50.5040 C   0  0  0  0  0  0  0  0  0  0  0  0
   64.6460   33.8230   51.0020 C   0  0  0  0  0  0  0  0  0  0  0  0
   61.0810   31.9250   49.6310 C   0  0  0  0  0  0  0  0  0  0  0  0
   60.1920   31.9870   48.5290 C   0  0  0  0  0  0  0  0  0  0  0  0
   59.8431   34.1742   49.9131 H   0  0  0  0  0  0  0  0  0  0  0  0
   60.8371   34.9029   48.6064 H   0  0  0  0  0  0  0  0  0  0  0  0
   59.0541   35.1211   48.6064 H   0  0  0  0  0  0  0  0  0  0  0  0
   59.1867   35.4114   46.6069 H   0  0  0  0  0  0  0  0  0  0  0  0
   58.0102   35.4724   44.4208 H   0  0  0  0  0  0  0  0  0  0  0  0
   57.2562   33.3623   43.3421 H   0  0  0  0  0  0  0  0  0  0  0  0
   57.7221   31.1730   44.4223 H   0  0  0  0  0  0  0  0  0  0  0  0
   57.5380   29.3930   46.0600 H   0  0  0  0  0  0  0  0  0  0  0  0
   60.2486   29.4186   44.9021 H   0  0  0  0  0  0  0  0  0  0  0  0
   59.9346   28.0069   45.9837 H   0  0  0  0  0  0  0  0  0  0  0  0
   59.1002   28.4201   43.2396 H   0  0  0  0  0  0  0  0  0  0  0  0
   58.8805   26.9780   44.2876 H   0  0  0  0  0  0  0  0  0  0  0  0
   57.7230   30.1228   43.3377 H   0  0  0  0  0  0  0  0  0  0  0  0
   56.8836   28.8523   42.3740 H   0  0  0  0  0  0  0  0  0  0  0  0
   55.7334   31.0094   43.9164 H   0  0  0  0  0  0  0  0  0  0  0  0
   54.9041   29.7678   42.9109 H   0  0  0  0  0  0  0  0  0  0  0  0
   59.8705   28.5981   48.0289 H   0  0  0  0  0  0  0  0  0  0  0  0
   61.3490   28.5474   50.0227 H   0  0  0  0  0  0  0  0  0  0  0  0
   63.8987   29.4727   51.9176 H   0  0  0  0  0  0  0  0  0  0  0  0
   64.0312   30.0192   50.2049 H   0  0  0  0  0  0  0  0  0  0  0  0
   64.1680   32.0493   52.4557 H   0  0  0  0  0  0  0  0  0  0  0  0
   65.6251   31.0200   52.0029 H   0  0  0  0  0  0  0  0  0  0  0  0
   67.0272   32.4463   51.3867 H   0  0  0  0  0  0  0  0  0  0  0  0
   66.8416   31.5481   49.8423 H   0  0  0  0  0  0  0  0  0  0  0  0
   66.8403   33.3443   49.8423 H   0  0  0  0  0  0  0  0  0  0  0  0
   65.0857   31.4314   48.7096 H   0  0  0  0  0  0  0  0  0  0  0  0
   63.4692   31.5303   49.5310 H   0  0  0  0  0  0  0  0  0  0  0  0
   64.9476   33.8693   48.2371 H   0  0  0  0  0  0  0  0  0  0  0  0
   63.5554   32.9346   47.5210 H   0  0  0  0  0  0  0  0  0  0  0  0
   62.9798   35.1865   50.8615 H   0  0  0  0  0  0  0  0  0  0  0  0
   62.5502   33.4091   50.9000 H   0  0  0  0  0  0  0  0  0  0  0  0
   65.3598   34.5519   50.5907 H   0  0  0  0  0  0  0  0  0  0  0  0
   64.6362   33.8522   52.1016 H   0  0  0  0  0  0  0  0  0  0  0  0
   61.4403   32.8615   50.0825 H   0  0  0  0  0  0  0  0  0  0  0  0
  1  2  1  0
  2  3  2  0
  3  4  1  0
  4  5  2  0
  5  6  1  0
  6  7  2  0
  7  8  1  0
  8  9  2  0
  9 10  1  0
 10 11  1  0
 11 12  1  0
 12 13  1  0
 13 14  1  0
 14 15  1  0
 15 16  1  0
  9 17  1  0
 17 18  2  0
 18 19  1  0
 19 20  2  0
 20 21  1  0
 21 22  1  0
 22 23  1  0
 23 24  1  0
 24 25  1  0
 24 26  1  0
 26 27  1  0
 27 28  1  0
 28 29  1  0
 29 30  1  0
 20 31  1  0
 31 32  2  0
 32  2  1  0
  8  3  1  0
 32 17  1  0
 30 24  1  0
  1 33  1  0
  1 34  1  0
  1 35  1  0
  4 36  1  0
  5 37  1  0
  6 38  1  0
  7 39  1  0
 10 40  1  0
 11 41  1  0
 11 42  1  0
 12 43  1  0
 12 44  1  0
 14 45  1  0
 14 46  1  0
 15 47  1  0
 15 48  1  0
 18 49  1  0
 19 50  1  0
 22 51  1  0
 22 52  1  0
 23 53  1  0
 23 54  1  0
 25 55  1  0
 25 56  1  0
 25 57  1  0
 26 58  1  0
 26 59  1  0
 27 60  1  0
 27 61  1  0
 29 62  1  0
 29 63  1  0
 30 64  1  0
 30 65  1  0
 31 66  1  0
M  CHG  2   2   1  24   1
M  END
>  <UniqueID>  (17) 
17

>  <SMILES>  (17) 
C[n+]1c2ccccc2c(NCCOCCF)c2ccc(OCC[N+]3(C)CCOCC3)cc21

>  <Energy>  (17) 
113.08670363532775

>  <Genealogy>  (17) 
C[n+]1c2ccccc2c(NCCOCCF)c2ccc(OCC[N+]3(C)CCOCC3)cc21 (3D coordinates assigned)
C[n+]1c2ccccc2c(NCCOCCF)c2ccc(OCC[N+]3(C)CCOCC3)cc21 (nonaromatic ring conformer: 113.08670363532775 kcal/mol)

>  <smiles>  (17) 
C[n+]1c2ccccc2c(NCCOCCF)c2ccc(OCC[N+]3(C)CCOCC3)cc21

>  <score_type>  (17) 
oracle

>  <origin>  (17) 
adg

>  <m_score__min__energy>  (17) 
-4.8499999999999996

>  <m_primary>  (17) 
energy

$$$$
17:0
     RDKit          3D

 39 41  0  0  0  0  0  0  0  0999 V2000
   58.2810   33.7160   45.7000 C   0  0  0  0  0  0  0  0  0  0  0  0
   57.9150   32.8530   44.5290 C   0  0  0  0  0  0  0  0  0  0  0  0
   58.4820   33.0960   43.2690 C   0  0  0  0  0  0  0  0  0  0  0  0
   58.1270   32.3060   42.1730 C   0  0  0  0  0  0  0  0  0  0  0  0
   57.2040   31.2690   42.3250 C   0  0  0  0  0  0  0  0  0  0  0  0
   56.6230   31.0170   43.5780 C   0  0  0  0  0  0  0  0  0  0  0  0
   55.6810   29.8550   43.7660 C   0  0  0  0  0  0  0  0  0  0  0  0
   55.7320   29.3540   45.1510 N   0  0  0  0  0  0  0  0  0  0  0  0
   56.6930   28.2520   45.3230 C   0  0  0  0  0  0  0  0  0  0  0  0
   58.0600   28.7790   45.6390 C   0  0  0  0  0  0  0  0  0  0  0  0
   59.2350   28.4140   45.0230 C   0  0  0  0  0  0  0  0  0  0  0  0
   60.1880   29.1550   45.5300 O   0  0  0  0  0  0  0  0  0  0  0  0
   59.6340   29.9470   46.4240 C   0  0  0  0  0  0  0  0  0  0  0  0
   60.3760   30.9720   47.1820 C   0  0  0  0  0  0  0  0  0  0  0  0
   59.6900   31.9370   47.9410 C   0  0  0  0  0  0  0  0  0  0  0  0
   60.3960   32.9290   48.6280 C   0  0  0  0  0  0  0  0  0  0  0  0
   61.7930   32.9670   48.5650 C   0  0  0  0  0  0  0  0  0  0  0  0
   62.6760   34.2140   49.4240 Cl  0  0  0  0  0  0  0  0  0  0  0  0
   62.4830   32.0100   47.8150 C   0  0  0  0  0  0  0  0  0  0  0  0
   61.7790   31.0170   47.1250 C   0  0  0  0  0  0  0  0  0  0  0  0
   58.3040   29.7450   46.5440 N   0  0  0  0  0  0  0  0  0  0  0  0
   56.9690   31.8270   44.6740 C   0  0  0  0  0  0  0  0  0  0  0  0
   58.0544   33.1816   46.6344 H   0  0  0  0  0  0  0  0  0  0  0  0
   59.3554   33.9490   45.6622 H   0  0  0  0  0  0  0  0  0  0  0  0
   57.7017   34.6503   45.6622 H   0  0  0  0  0  0  0  0  0  0  0  0
   59.2090   33.9119   43.1436 H   0  0  0  0  0  0  0  0  0  0  0  0
   58.5756   32.5012   41.1878 H   0  0  0  0  0  0  0  0  0  0  0  0
   56.9311   30.6472   41.4596 H   0  0  0  0  0  0  0  0  0  0  0  0
   54.6557   30.1825   43.5392 H   0  0  0  0  0  0  0  0  0  0  0  0
   55.9846   29.0438   43.0879 H   0  0  0  0  0  0  0  0  0  0  0  0
   54.7830   28.9720   45.3760 H   0  0  0  0  0  0  0  0  0  0  0  0
   56.3566   27.6061   46.1474 H   0  0  0  0  0  0  0  0  0  0  0  0
   56.7448   27.6811   44.3842 H   0  0  0  0  0  0  0  0  0  0  0  0
   59.3521   27.6423   44.2479 H   0  0  0  0  0  0  0  0  0  0  0  0
   58.5916   31.9111   47.9944 H   0  0  0  0  0  0  0  0  0  0  0  0
   59.8522   33.6807   49.2189 H   0  0  0  0  0  0  0  0  0  0  0  0
   63.5816   32.0377   47.7672 H   0  0  0  0  0  0  0  0  0  0  0  0
   62.3269   30.2677   46.5348 H   0  0  0  0  0  0  0  0  0  0  0  0
   56.4949   31.6552   45.6516 H   0  0  0  0  0  0  0  0  0  0  0  0
  1  2  1  0
  2  3  2  0
  3  4  1  0
  4  5  2  0
  5  6  1  0
  6  7  1  0
  7  8  1  0
  8  9  1  0
  9 10  1  0
 10 11  2  0
 11 12  1  0
 12 13  1  0
 13 14  1  0
 14 15  2  0
 15 16  1  0
 16 17  2  0
 17 18  1  0
 17 19  1  0
 19 20  2  0
 13 21  2  0
  6 22  2  0
 22  2  1  0
 21 10  1  0
 20 14  1  0
  1 23  1  0
  1 24  1  0
  1 25  1  0
  3 26  1  0
  4 27  1  0
  5 28  1  0
  7 29  1  0
  7 30  1  0
  8 31  1  0
  9 32  1  0
  9 33  1  0
 11 34  1  0
 15 35  1  0
 16 36  1  0
 19 37  1  0
 20 38  1  0
 22 39  1  0
M  END
>  <UniqueID>  (18) 
18

>  <SMILES>  (18) 
Cc1cccc(CNCc2coc(-c3ccc(Cl)cc3)n2)c1

>  <Energy>  (18) 
64.7675966624167

>  <Genealogy>  (18) 
Cc1cccc(CNCc2coc(-c3ccc(Cl)cc3)n2)c1 (3D coordinates assigned)
Cc1cccc(CNCc2coc(-c3ccc(Cl)cc3)n2)c1 (optimized conformer: 64.7675966624167 kcal/mol)

>  <smiles>  (18) 
Cc1cccc(CNCc2coc(-c3ccc(Cl)cc3)n2)c1

>  <score_type>  (18) 
oracle

>  <origin>  (18) 
adg

>  <m_score__min__energy>  (18) 
-7.3399999999999999

>  <m_primary>  (18) 
energy

$$$$
18:0
     RDKit          3D

 80 83  0  0  0  0  0  0  0  0999 V2000
   58.2300   33.8550   52.4930 C   0  0  0  0  0  0  0  0  0  0  0  0
   58.7270   32.4880   52.9880 C   0  0  0  0  0  0  0  0  0  0  0  0
   58.4190   31.3590   52.0720 N   0  0  2  0  0  0  0  0  0  0  0  0
   57.0770   31.5010   51.4700 C   0  0  0  0  0  0  0  0  0  0  0  0
   58.5990   30.0350   52.7320 C   0  0  0  0  0  0  0  0  0  0  0  0
   59.6350   29.1470   52.0220 C   0  0  0  0  0  0  0  0  0  0  0  0
   60.1250   29.7900   50.8590 O   0  0  0  0  0  0  0  0  0  0  0  0
   60.6490   28.8440   49.9520 C   0  0  0  0  0  0  0  0  0  0  0  0
   60.0780   29.1080   48.5590 C   0  0  0  0  0  0  0  0  0  0  0  0
   59.1910   30.2720   48.5700 N   0  0  0  0  0  0  0  0  0  0  0  0
   58.9110   31.0040   47.3660 C   0  0  0  0  0  0  0  0  0  0  0  0
   58.3350   30.3360   46.2670 C   0  0  0  0  0  0  0  0  0  0  0  0
   57.9380   28.9850   46.3680 C   0  0  0  0  0  0  0  0  0  0  0  0
   57.3520   28.3300   45.2870 C   0  0  0  0  0  0  0  0  0  0  0  0
   57.1280   29.0130   44.0990 C   0  0  0  0  0  0  0  0  0  0  0  0
   57.4920   30.3530   43.9830 C   0  0  0  0  0  0  0  0  0  0  0  0
   58.1160   31.0410   45.0560 C   0  0  0  0  0  0  0  0  0  0  0  0
   58.4750   32.3700   44.9540 N   0  0  0  0  0  0  0  0  0  0  0  0
   58.5060   33.0270   43.6270 C   0  0  0  0  0  0  0  0  0  0  0  0
   58.8070   33.0860   46.0910 C   0  0  0  0  0  0  0  0  0  0  0  0
   58.8400   34.5010   46.0810 C   0  0  0  0  0  0  0  0  0  0  0  0
   59.1800   35.2230   47.2170 C   0  0  0  0  0  0  0  0  0  0  0  0
   59.5320   34.5630   48.3840 C   0  0  0  0  0  0  0  0  0  0  0  0
   59.5450   33.1590   48.4430 C   0  0  0  0  0  0  0  0  0  0  0  0
   59.9890   32.4930   49.6010 O   0  0  0  0  0  0  0  0  0  0  0  0
   60.7980   33.0360   50.6490 C   0  0  0  0  0  0  0  0  0  0  0  0
   62.1880   32.3460   50.7110 C   0  0  0  0  0  0  0  0  0  0  0  0
   63.0740   32.5530   49.5120 N   0  0  0  0  0  0  0  0  0  0  0  0
   64.4830   32.2770   49.9150 C   0  0  0  0  0  0  0  0  0  0  0  0
   62.9330   33.9580   48.9790 C   0  0  0  0  0  0  0  0  0  0  0  0
   62.8950   34.0830   47.4390 C   0  0  0  0  0  0  0  0  0  0  0  0
   63.8080   33.0730   46.7610 C   0  0  0  0  0  0  0  0  0  0  0  0
   63.4450   31.6340   47.1570 C   0  0  0  0  0  0  0  0  0  0  0  0
   62.6590   31.5450   48.4860 C   0  0  0  0  0  0  0  0  0  0  0  0
   59.0990   32.4090   47.3110 C   0  0  0  0  0  0  0  0  0  0  0  0
   57.9972   34.4952   53.3567 H   0  0  0  0  0  0  0  0  0  0  0  0
   59.0126   34.3311   51.8840 H   0  0  0  0  0  0  0  0  0  0  0  0
   57.3244   33.7173   51.8840 H   0  0  0  0  0  0  0  0  0  0  0  0
   59.8185   32.5426   53.1132 H   0  0  0  0  0  0  0  0  0  0  0  0
   58.1992   32.2826   53.9310 H   0  0  0  0  0  0  0  0  0  0  0  0
   59.1110   31.4420   51.2870 H   0  0  0  0  0  0  0  0  0  0  0  0
   56.3238   31.5807   52.2678 H   0  0  0  0  0  0  0  0  0  0  0  0
   57.0486   32.4072   50.8471 H   0  0  0  0  0  0  0  0  0  0  0  0
   56.8596   30.6208   50.8471 H   0  0  0  0  0  0  0  0  0  0  0  0
   58.9305   30.2014   53.7676 H   0  0  0  0  0  0  0  0  0  0  0  0
   57.6324   29.5117   52.6902 H   0  0  0  0  0  0  0  0  0  0  0  0
   60.4729   28.9497   52.7069 H   0  0  0  0  0  0  0  0  0  0  0  0
   59.1535   28.2020   51.7302 H   0  0  0  0  0  0  0  0  0  0  0  0
   61.7451   28.9317   49.9223 H   0  0  0  0  0  0  0  0  0  0  0  0
   60.3725   27.8301   50.2770 H   0  0  0  0  0  0  0  0  0  0  0  0
   60.9064   29.2931   47.8594 H   0  0  0  0  0  0  0  0  0  0  0  0
   59.4985   28.2276   48.2441 H   0  0  0  0  0  0  0  0  0  0  0  0
   58.7420   30.5900   49.4590 H   0  0  0  0  0  0  0  0  0  0  0  0
   58.0933   28.4426   47.3123 H   0  0  0  0  0  0  0  0  0  0  0  0
   57.0666   27.2713   45.3747 H   0  0  0  0  0  0  0  0  0  0  0  0
   56.6622   28.4951   43.2476 H   0  0  0  0  0  0  0  0  0  0  0  0
   57.2920   30.8874   43.0425 H   0  0  0  0  0  0  0  0  0  0  0  0
   58.5575   34.1178   43.7590 H   0  0  0  0  0  0  0  0  0  0  0  0
   59.3889   32.6832   43.0682 H   0  0  0  0  0  0  0  0  0  0  0  0
   57.5946   32.7679   43.0682 H   0  0  0  0  0  0  0  0  0  0  0  0
   58.5913   35.0394   45.1546 H   0  0  0  0  0  0  0  0  0  0  0  0
   59.1700   36.3226   47.1909 H   0  0  0  0  0  0  0  0  0  0  0  0
   59.8048   35.1461   49.2759 H   0  0  0  0  0  0  0  0  0  0  0  0
   60.9407   34.1118   50.4694 H   0  0  0  0  0  0  0  0  0  0  0  0
   60.2841   32.8634   51.6062 H   0  0  0  0  0  0  0  0  0  0  0  0
   62.7182   32.7329   51.5937 H   0  0  0  0  0  0  0  0  0  0  0  0
   61.9847   31.2657   50.7504 H   0  0  0  0  0  0  0  0  0  0  0  0
   64.5544   32.2630   51.0126 H   0  0  0  0  0  0  0  0  0  0  0  0
   64.7943   31.3008   49.5148 H   0  0  0  0  0  0  0  0  0  0  0  0
   65.1396   33.0636   49.5148 H   0  0  0  0  0  0  0  0  0  0  0  0
   61.9980   34.3794   49.3767 H   0  0  0  0  0  0  0  0  0  0  0  0
   63.8350   34.4971   49.3043 H   0  0  0  0  0  0  0  0  0  0  0  0
   61.8637   33.9161   47.0948 H   0  0  0  0  0  0  0  0  0  0  0  0
   63.2464   35.0905   47.1719 H   0  0  0  0  0  0  0  0  0  0  0  0
   63.7115   33.1791   45.6704 H   0  0  0  0  0  0  0  0  0  0  0  0
   64.8412   33.2701   47.0828 H   0  0  0  0  0  0  0  0  0  0  0  0
   62.8293   31.1966   46.3573 H   0  0  0  0  0  0  0  0  0  0  0  0
   64.3889   31.0874   47.2995 H   0  0  0  0  0  0  0  0  0  0  0  0
   61.5917   31.6953   48.2665 H   0  0  0  0  0  0  0  0  0  0  0  0
   62.8703   30.5535   48.9129 H   0  0  0  0  0  0  0  0  0  0  0  0
  1  2  1  0
  2  3  1  0
  3  4  1  0
  3  5  1  0
  5  6  1  0
  6  7  1  0
  7  8  1  0
  8  9  1  0
  9 10  1  0
 10 11  1  0
 11 12  2  0
 12 13  1  0
 13 14  2  0
 14 15  1  0
 15 16  2  0
 16 17  1  0
 17 18  2  0
 18 19  1  0
 18 20  1  0
 20 21  2  0
 21 22  1  0
 22 23  2  0
 23 24  1  0
 24 25  1  0
 25 26  1  0
 26 27  1  0
 27 28  1  0
 28 29  1  0
 28 30  1  0
 30 31  1  0
 31 32  1  0
 32 33  1  0
 33 34  1  0
 24 35  2  0
 35 11  1  0
 17 12  1  0
 35 20  1  0
 34 28  1  0
  1 36  1  0
  1 37  1  0
  1 38  1  0
  2 39  1  0
  2 40  1  0
  3 41  1  6
  4 42  1  0
  4 43  1  0
  4 44  1  0
  5 45  1  0
  5 46  1  0
  6 47  1  0
  6 48  1  0
  8 49  1  0
  8 50  1  0
  9 51  1  0
  9 52  1  0
 10 53  1  0
 13 54  1  0
 14 55  1  0
 15 56  1  0
 16 57  1  0
 19 58  1  0
 19 59  1  0
 19 60  1  0
 21 61  1  0
 22 62  1  0
 23 63  1  0
 26 64  1  0
 26 65  1  0
 27 66  1  0
 27 67  1  0
 29 68  1  0
 29 69  1  0
 29 70  1  0
 30 71  1  0
 30 72  1  0
 31 73  1  0
 31 74  1  0
 32 75  1  0
 32 76  1  0
 33 77  1  0
 33 78  1  0
 34 79  1  0
 34 80  1  0
M  CHG  3   3   1  18   1  28   1
M  END
>  <UniqueID>  (19) 
19

>  <SMILES>  (19) 
CC[N@H+](C)CCOCCNc1c2ccccc2[n+](C)c2cccc(OCC[N+]3(C)CCCCC3)c12

>  <Energy>  (19) 
133.87831934175085

>  <Genealogy>  (19) 
CC[NH+](C)CCOCCNc1c2ccccc2[n+](C)c2cccc(OCC[N+]3(C)CCCCC3)c12 (protonated)
CC[N@H+](C)CCOCCNc1c2ccccc2[n+](C)c2cccc(OCC[N+]3(C)CCCCC3)c12 (chirality)
CC[N@H+](C)CCOCCNc1c2ccccc2[n+](C)c2cccc(OCC[N+]3(C)CCCCC3)c12 (3D coordinates assigned)
CC[N@H+](C)CCOCCNc1c2ccccc2[n+](C)c2cccc(OCC[N+]3(C)CCCCC3)c12 (nonaromatic ring conformer: 133.87831934175085 kcal/mol)

>  <smiles>  (19) 
CCN(C)CCOCCNc1c2ccccc2[n+](C)c2cccc(OCC[N+]3(C)CCCCC3)c12

>  <score_type>  (19) 
oracle

>  <origin>  (19) 
adg

>  <m_score__min__energy>  (19) 
-3.7400000000000002

>  <m_primary>  (19) 
energy

$$$$
19:0
     RDKit          3D

 43 46  0  0  0  0  0  0  0  0999 V2000
   59.5820   34.5890   49.0020 C   0  0  0  0  0  0  0  0  0  0  0  0
   60.7010   34.1620   48.1610 N   0  0  0  0  0  0  0  0  0  0  0  0
   60.7390   33.9310   46.8160 C   0  0  0  0  0  0  0  0  0  0  0  0
   59.5810   34.1150   45.8600 C   0  0  0  0  0  0  0  0  0  0  0  0
   58.7100   32.9190   45.7180 N   0  0  0  0  0  0  0  0  0  0  0  0
   57.6130   33.1180   44.7470 C   0  0  0  0  0  0  0  0  0  0  0  0
   57.1140   31.8060   44.2230 C   0  0  0  0  0  0  0  0  0  0  0  0
   57.4090   31.2700   42.9860 C   0  0  0  0  0  0  0  0  0  0  0  0
   56.7140   30.0820   42.9210 C   0  0  0  0  0  0  0  0  0  0  0  0
   56.0320   29.9720   44.1160 C   0  0  0  0  0  0  0  0  0  0  0  0
   56.2850   31.0170   44.8690 O   0  0  0  0  0  0  0  0  0  0  0  0
   58.1890   32.4060   47.0050 C   0  0  0  0  0  0  0  0  0  0  0  0
   59.0000   31.2470   47.5000 C   0  0  0  0  0  0  0  0  0  0  0  0
   59.3060   30.9710   48.8260 C   0  0  0  0  0  0  0  0  0  0  0  0
   60.0790   29.8150   48.9830 C   0  0  0  0  0  0  0  0  0  0  0  0
   60.3800   29.1780   47.7850 C   0  0  0  0  0  0  0  0  0  0  0  0
   59.6830   30.0550   46.5300 S   0  0  0  0  0  0  0  0  0  0  0  0
   61.9580   33.5110   46.3840 N   0  0  0  0  0  0  0  0  0  0  0  0
   62.6860   33.4580   47.5110 C   0  0  0  0  0  0  0  0  0  0  0  0
   64.0160   33.0650   47.6430 C   0  0  0  0  0  0  0  0  0  0  0  0
   64.5740   33.0700   48.9350 C   0  0  0  0  0  0  0  0  0  0  0  0
   63.7960   33.4610   50.0490 C   0  0  0  0  0  0  0  0  0  0  0  0
   62.4550   33.8510   49.8790 C   0  0  0  0  0  0  0  0  0  0  0  0
   61.9350   33.8390   48.5830 C   0  0  0  0  0  0  0  0  0  0  0  0
   59.8585   34.4835   50.0615 H   0  0  0  0  0  0  0  0  0  0  0  0
   59.3434   35.6413   48.7883 H   0  0  0  0  0  0  0  0  0  0  0  0
   58.7030   33.9631   48.7883 H   0  0  0  0  0  0  0  0  0  0  0  0
   58.9636   34.9498   46.2232 H   0  0  0  0  0  0  0  0  0  0  0  0
   60.0178   34.3064   44.8688 H   0  0  0  0  0  0  0  0  0  0  0  0
   56.7849   33.6454   45.2431 H   0  0  0  0  0  0  0  0  0  0  0  0
   57.9961   33.7094   43.9023 H   0  0  0  0  0  0  0  0  0  0  0  0
   58.0625   31.7011   42.2133 H   0  0  0  0  0  0  0  0  0  0  0  0
   56.7046   29.3662   42.0858 H   0  0  0  0  0  0  0  0  0  0  0  0
   55.3754   29.1348   44.3952 H   0  0  0  0  0  0  0  0  0  0  0  0
   58.2240   33.2125   47.7523 H   0  0  0  0  0  0  0  0  0  0  0  0
   57.1554   32.0636   46.8484 H   0  0  0  0  0  0  0  0  0  0  0  0
   58.9746   31.5972   49.6674 H   0  0  0  0  0  0  0  0  0  0  0  0
   60.4166   29.4453   49.9625 H   0  0  0  0  0  0  0  0  0  0  0  0
   60.9727   28.2577   47.6761 H   0  0  0  0  0  0  0  0  0  0  0  0
   64.6093   32.7614   46.7679 H   0  0  0  0  0  0  0  0  0  0  0  0
   65.6218   32.7679   49.0791 H   0  0  0  0  0  0  0  0  0  0  0  0
   64.2419   33.4602   51.0546 H   0  0  0  0  0  0  0  0  0  0  0  0
   61.8375   34.1548   50.7371 H   0  0  0  0  0  0  0  0  0  0  0  0
  1  2  1  0
  2  3  1  0
  3  4  1  0
  4  5  1  0
  5  6  1  0
  6  7  1  0
  7  8  2  0
  8  9  1  0
  9 10  2  0
 10 11  1  0
  5 12  1  0
 12 13  1  0
 13 14  2  0
 14 15  1  0
 15 16  2  0
 16 17  1  0
  3 18  2  0
 18 19  1  0
 19 20  2  0
 20 21  1  0
 21 22  2  0
 22 23  1  0
 23 24  2  0
 24  2  1  0
 11  7  1  0
 17 13  1  0
 24 19  1  0
  1 25  1  0
  1 26  1  0
  1 27  1  0
  4 28  1  0
  4 29  1  0
  6 30  1  0
  6 31  1  0
  8 32  1  0
  9 33  1  0
 10 34  1  0
 12 35  1  0
 12 36  1  0
 14 37  1  0
 15 38  1  0
 16 39  1  0
 20 40  1  0
 21 41  1  0
 22 42  1  0
 23 43  1  0
M  END
>  <UniqueID>  (20) 
20

>  <SMILES>  (20) 
Cn1c(CN(Cc2ccco2)Cc2cccs2)nc2ccccc21

>  <Energy>  (20) 
138.55116586717122

>  <Genealogy>  (20) 
Cn1c(CN(Cc2ccco2)Cc2cccs2)nc2ccccc21 (3D coordinates assigned)
Cn1c(CN(Cc2ccco2)Cc2cccs2)nc2ccccc21 (optimized conformer: 138.55116586717122 kcal/mol)

>  <smiles>  (20) 
Cn1c(CN(Cc2ccco2)Cc2cccs2)nc2ccccc21

>  <score_type>  (20) 
oracle

>  <origin>  (20) 
adg

>  <m_score__min__energy>  (20) 
-8.2200000000000006

>  <m_primary>  (20) 
energy

$$$$
20:0
     RDKit          3D

 48 50  0  0  0  0  0  0  0  0999 V2000
   59.2530   25.2460   46.0360 C   0  0  0  0  0  0  0  0  0  0  0  0
   59.8390   26.3710   46.4440 C   0  0  0  0  0  0  0  0  0  0  0  0
   59.4730   27.7250   45.9590 C   0  0  0  0  0  0  0  0  0  0  0  0
   58.8590   27.9410   44.7170 C   0  0  0  0  0  0  0  0  0  0  0  0
   58.5290   29.2300   44.3040 C   0  0  0  0  0  0  0  0  0  0  0  0
   58.7930   30.3560   45.1220 C   0  0  0  0  0  0  0  0  0  0  0  0
   59.4820   30.1460   46.3440 C   0  0  0  0  0  0  0  0  0  0  0  0
   59.8000   28.8320   46.7510 C   0  0  0  0  0  0  0  0  0  0  0  0
   59.8310   31.2530   47.1400 C   0  0  0  0  0  0  0  0  0  0  0  0
   60.4590   31.0610   48.4190 N   0  0  0  0  0  0  0  0  0  0  0  0
   61.8560   31.4350   48.6380 C   0  0  0  0  0  0  0  0  0  0  0  0
   62.6800   31.2720   47.3520 C   0  0  0  0  0  0  0  0  0  0  0  0
   63.9560   32.0060   47.4290 N   0  0  0  0  0  0  0  0  0  0  0  0
   63.7590   33.4500   47.6470 C   0  0  0  0  0  0  0  0  0  0  0  0
   63.3820   34.1920   46.3600 C   0  0  0  0  0  0  0  0  0  0  0  0
   59.6060   32.5510   46.6520 C   0  0  0  0  0  0  0  0  0  0  0  0
   60.0900   33.6800   47.3500 C   0  0  0  0  0  0  0  0  0  0  0  0
   59.9060   34.9620   46.8420 C   0  0  0  0  0  0  0  0  0  0  0  0
   59.2600   35.1440   45.6260 C   0  0  0  0  0  0  0  0  0  0  0  0
   58.7760   34.0450   44.9170 C   0  0  0  0  0  0  0  0  0  0  0  0
   58.9130   32.7270   45.4240 C   0  0  0  0  0  0  0  0  0  0  0  0
   58.4120   31.6310   44.7480 N   0  0  0  0  0  0  0  0  0  0  0  0
   57.4490   31.8230   43.6410 C   0  0  0  0  0  0  0  0  0  0  0  0
   59.5796   24.2772   46.4420 H   0  0  0  0  0  0  0  0  0  0  0  0
   58.4427   25.2861   45.2932 H   0  0  0  0  0  0  0  0  0  0  0  0
   60.6455   26.2910   47.1878 H   0  0  0  0  0  0  0  0  0  0  0  0
   58.6359   27.0851   44.0630 H   0  0  0  0  0  0  0  0  0  0  0  0
   58.0538   29.3763   43.3228 H   0  0  0  0  0  0  0  0  0  0  0  0
   60.3153   28.6749   47.7101 H   0  0  0  0  0  0  0  0  0  0  0  0
   59.8620   30.8380   49.2470 H   0  0  0  0  0  0  0  0  0  0  0  0
   61.9002   32.4852   48.9624 H   0  0  0  0  0  0  0  0  0  0  0  0
   62.2779   30.7741   49.4095 H   0  0  0  0  0  0  0  0  0  0  0  0
   62.8914   30.2038   47.1964 H   0  0  0  0  0  0  0  0  0  0  0  0
   62.0965   31.6828   46.5149 H   0  0  0  0  0  0  0  0  0  0  0  0
   64.5230   31.6420   48.2300 H   0  0  0  0  0  0  0  0  0  0  0  0
   64.5040   31.8530   46.5500 H   0  0  0  0  0  0  0  0  0  0  0  0
   62.9535   33.5889   48.3831 H   0  0  0  0  0  0  0  0  0  0  0  0
   64.7115   33.8667   48.0062 H   0  0  0  0  0  0  0  0  0  0  0  0
   62.8973   35.1459   46.6153 H   0  0  0  0  0  0  0  0  0  0  0  0
   64.2898   34.3882   45.7705 H   0  0  0  0  0  0  0  0  0  0  0  0
   62.6883   33.5745   45.7705 H   0  0  0  0  0  0  0  0  0  0  0  0
   60.6180   33.5439   48.3054 H   0  0  0  0  0  0  0  0  0  0  0  0
   60.2729   35.8332   47.4045 H   0  0  0  0  0  0  0  0  0  0  0  0
   59.1297   36.1583   45.2209 H   0  0  0  0  0  0  0  0  0  0  0  0
   58.2795   34.2027   43.9481 H   0  0  0  0  0  0  0  0  0  0  0  0
   56.4495   32.0223   44.0549 H   0  0  0  0  0  0  0  0  0  0  0  0
   57.7664   32.6755   43.0226 H   0  0  0  0  0  0  0  0  0  0  0  0
   57.4152   30.9139   43.0226 H   0  0  0  0  0  0  0  0  0  0  0  0
  1  2  2  0
  2  3  1  0
  3  4  2  0
  4  5  1  0
  5  6  2  0
  6  7  1  0
  7  8  2  0
  7  9  1  0
  9 10  1  0
 10 11  1  0
 11 12  1  0
 12 13  1  0
 13 14  1  0
 14 15  1  0
  9 16  2  0
 16 17  1  0
 17 18  2  0
 18 19  1  0
 19 20  2  0
 20 21  1  0
 21 22  2  0
 22 23  1  0
  8  3  1  0
 21 16  1  0
 22  6  1  0
  1 24  1  0
  1 25  1  0
  2 26  1  0
  4 27  1  0
  5 28  1  0
  8 29  1  0
 10 30  1  0
 11 31  1  0
 11 32  1  0
 12 33  1  0
 12 34  1  0
 13 35  1  0
 13 36  1  0
 14 37  1  0
 14 38  1  0
 15 39  1  0
 15 40  1  0
 15 41  1  0
 17 42  1  0
 18 43  1  0
 19 44  1  0
 20 45  1  0
 23 46  1  0
 23 47  1  0
 23 48  1  0
M  CHG  2  13   1  22   1
M  END
>  <UniqueID>  (21) 
21

>  <SMILES>  (21) 
C=Cc1ccc2c(c1)c(NCC[NH2+]CC)c1ccccc1[n+]2C

>  <Energy>  (21) 
72.80785056841336

>  <Genealogy>  (21) 
C=Cc1ccc2c(c1)c(NCC[NH2+]CC)c1ccccc1[n+]2C (protonated)
C=Cc1ccc2c(c1)c(NCC[NH2+]CC)c1ccccc1[n+]2C (3D coordinates assigned)
C=Cc1ccc2c(c1)c(NCC[NH2+]CC)c1ccccc1[n+]2C (optimized conformer: 72.80785056841336 kcal/mol)

>  <smiles>  (21) 
C=Cc1ccc2c(c1)c(NCCNCC)c1ccccc1[n+]2C

>  <score_type>  (21) 
oracle

>  <origin>  (21) 
adg

>  <m_score__min__energy>  (21) 
-4.5999999999999996

>  <m_primary>  (21) 
energy

$$$$
21:0
     RDKit          3D

 68 71  0  0  0  0  0  0  0  0999 V2000
   58.7060   30.4680   50.1140 C   0  0  0  0  0  0  0  0  0  0  0  0
   59.7310   29.3270   50.0550 C   0  0  0  0  0  0  0  0  0  0  0  0
   60.6100   29.3590   48.8570 N   0  0  0  0  0  0  0  0  0  0  0  0
   61.4710   30.5620   48.7760 C   0  0  0  0  0  0  0  0  0  0  0  0
   62.2530   30.7930   50.0700 C   0  0  0  0  0  0  0  0  0  0  0  0
   59.8480   29.1520   47.6040 C   0  0  0  0  0  0  0  0  0  0  0  0
   60.7450   29.4170   46.3920 C   0  0  0  0  0  0  0  0  0  0  0  0
   59.9850   29.2630   45.1530 N   0  0  0  0  0  0  0  0  0  0  0  0
   58.5770   29.0000   45.1490 C   0  0  0  0  0  0  0  0  0  0  0  0
   57.6220   29.9750   44.8070 C   0  0  0  0  0  0  0  0  0  0  0  0
   57.8810   31.4150   44.6020 C   0  0  0  0  0  0  0  0  0  0  0  0
   57.4610   31.9590   43.5430 O   0  0  0  0  0  0  0  0  0  0  0  0
   58.6180   32.2010   45.5630 N   0  0  0  0  0  0  0  0  0  0  0  0
   58.5630   31.8520   46.9940 C   0  0  0  0  0  0  0  0  0  0  0  0
   58.9860   33.0310   47.8730 C   0  0  0  0  0  0  0  0  0  0  0  0
   60.2580   33.5770   47.3840 N   0  0  0  0  0  0  0  0  0  0  0  0
   61.3590   33.7860   48.2850 C   0  0  0  0  0  0  0  0  0  0  0  0
   61.1210   34.1030   49.6340 C   0  0  0  0  0  0  0  0  0  0  0  0
   62.1910   34.2930   50.5130 C   0  0  0  0  0  0  0  0  0  0  0  0
   63.5060   34.1660   50.0560 C   0  0  0  0  0  0  0  0  0  0  0  0
   63.7510   33.8510   48.7170 C   0  0  0  0  0  0  0  0  0  0  0  0
   62.6840   33.6560   47.8350 C   0  0  0  0  0  0  0  0  0  0  0  0
   60.4340   33.8440   45.9490 C   0  0  0  0  0  0  0  0  0  0  0  0
   59.1730   33.5000   45.1460 C   0  0  0  0  0  0  0  0  0  0  0  0
   56.0780   29.2960   44.9120 S   0  0  0  0  0  0  0  0  0  0  0  0
   56.6150   27.7800   45.3680 C   0  0  0  0  0  0  0  0  0  0  0  0
   55.8330   26.7050   45.6200 N   0  0  0  0  0  0  0  0  0  0  0  0
   56.3980   25.5240   45.9920 C   0  0  0  0  0  0  0  0  0  0  0  0
   55.5200   24.3500   46.2960 C   0  0  0  0  0  0  0  0  0  0  0  0
   57.7960   25.4270   46.1370 C   0  0  0  0  0  0  0  0  0  0  0  0
   58.6220   26.5370   45.8610 C   0  0  0  0  0  0  0  0  0  0  0  0
   60.1110   26.3930   46.0290 C   0  0  0  0  0  0  0  0  0  0  0  0
   58.0000   27.7480   45.4730 C   0  0  0  0  0  0  0  0  0  0  0  0
   58.4878   30.7109   51.1644 H   0  0  0  0  0  0  0  0  0  0  0  0
   59.1160   31.3556   49.6099 H   0  0  0  0  0  0  0  0  0  0  0  0
   57.7797   30.1552   49.6099 H   0  0  0  0  0  0  0  0  0  0  0  0
   60.3665   29.3875   50.9508 H   0  0  0  0  0  0  0  0  0  0  0  0
   59.1578   28.3897   50.0015 H   0  0  0  0  0  0  0  0  0  0  0  0
   62.1837   30.4339   47.9480 H   0  0  0  0  0  0  0  0  0  0  0  0
   60.8221   31.4346   48.6099 H   0  0  0  0  0  0  0  0  0  0  0  0
   61.5990   30.5998   50.9331 H   0  0  0  0  0  0  0  0  0  0  0  0
   63.1156   30.1113   50.1038 H   0  0  0  0  0  0  0  0  0  0  0  0
   62.6068   31.8340   50.1038 H   0  0  0  0  0  0  0  0  0  0  0  0
   59.4837   28.1147   47.5670 H   0  0  0  0  0  0  0  0  0  0  0  0
   58.9972   29.8489   47.5811 H   0  0  0  0  0  0  0  0  0  0  0  0
   61.1396   30.4421   46.4502 H   0  0  0  0  0  0  0  0  0  0  0  0
   61.5730   28.6928   46.3954 H   0  0  0  0  0  0  0  0  0  0  0  0
   60.5010   29.2500   44.2440 H   0  0  0  0  0  0  0  0  0  0  0  0
   57.5334   31.5640   47.2528 H   0  0  0  0  0  0  0  0  0  0  0  0
   59.2584   31.0190   47.1741 H   0  0  0  0  0  0  0  0  0  0  0  0
   58.2129   33.8126   47.8344 H   0  0  0  0  0  0  0  0  0  0  0  0
   59.1102   32.6876   48.9106 H   0  0  0  0  0  0  0  0  0  0  0  0
   60.0881   34.2019   49.9992 H   0  0  0  0  0  0  0  0  0  0  0  0
   61.9979   34.5430   51.5667 H   0  0  0  0  0  0  0  0  0  0  0  0
   64.3468   34.3139   50.7497 H   0  0  0  0  0  0  0  0  0  0  0  0
   64.7857   33.7562   48.3560 H   0  0  0  0  0  0  0  0  0  0  0  0
   62.8825   33.3996   46.7839 H   0  0  0  0  0  0  0  0  0  0  0  0
   60.6638   34.9108   45.8110 H   0  0  0  0  0  0  0  0  0  0  0  0
   61.2558   33.2115   45.5821 H   0  0  0  0  0  0  0  0  0  0  0  0
   58.4178   34.2828   45.3099 H   0  0  0  0  0  0  0  0  0  0  0  0
   59.4420   33.4399   44.0811 H   0  0  0  0  0  0  0  0  0  0  0  0
   55.4311   24.2311   47.3859 H   0  0  0  0  0  0  0  0  0  0  0  0
   54.5227   24.5161   45.8627 H   0  0  0  0  0  0  0  0  0  0  0  0
   55.9612   23.4403   45.8627 H   0  0  0  0  0  0  0  0  0  0  0  0
   58.2465   24.4795   46.4676 H   0  0  0  0  0  0  0  0  0  0  0  0
   60.3585   26.3691   47.1005 H   0  0  0  0  0  0  0  0  0  0  0  0
   60.4448   25.4584   45.5546 H   0  0  0  0  0  0  0  0  0  0  0  0
   60.6177   27.2463   45.5546 H   0  0  0  0  0  0  0  0  0  0  0  0
  1  2  1  0
  2  3  1  0
  3  4  1  0
  4  5  1  0
  3  6  1  0
  6  7  1  0
  7  8  1  0
  8  9  1  0
  9 10  2  0
 10 11  1  0
 11 12  2  0
 11 13  1  0
 13 14  1  0
 14 15  1  0
 15 16  1  0
 16 17  1  0
 17 18  2  0
 18 19  1  0
 19 20  2  0
 20 21  1  0
 21 22  2  0
 16 23  1  0
 23 24  1  0
 10 25  1  0
 25 26  1  0
 26 27  2  0
 27 28  1  0
 28 29  1  0
 28 30  2  0
 30 31  1  0
 31 32  1  0
 31 33  2  0
 33  9  1  0
 24 13  1  0
 33 26  1  0
 22 17  1  0
  1 34  1  0
  1 35  1  0
  1 36  1  0
  2 37  1  0
  2 38  1  0
  4 39  1  0
  4 40  1  0
  5 41  1  0
  5 42  1  0
  5 43  1  0
  6 44  1  0
  6 45  1  0
  7 46  1  0
  7 47  1  0
  8 48  1  0
 14 49  1  0
 14 50  1  0
 15 51  1  0
 15 52  1  0
 18 53  1  0
 19 54  1  0
 20 55  1  0
 21 56  1  0
 22 57  1  0
 23 58  1  0
 23 59  1  0
 24 60  1  0
 24 61  1  0
 29 62  1  0
 29 63  1  0
 29 64  1  0
 30 65  1  0
 32 66  1  0
 32 67  1  0
 32 68  1  0
M  END
>  <UniqueID>  (22) 
22

>  <SMILES>  (22) 
CCN(CC)CCNc1c(C(=O)N2CCN(c3ccccc3)CC2)sc2nc(C)cc(C)c12

>  <Energy>  (22) 
116.4416073359447

>  <Genealogy>  (22) 
CCN(CC)CCNc1c(C(=O)N2CCN(c3ccccc3)CC2)sc2nc(C)cc(C)c12 (3D coordinates assigned)
CCN(CC)CCNc1c(C(=O)N2CCN(c3ccccc3)CC2)sc2nc(C)cc(C)c12 (nonaromatic ring conformer: 116.4416073359447 kcal/mol)

>  <smiles>  (22) 
CCN(CC)CCNc1c(C(=O)N2CCN(c3ccccc3)CC2)sc2nc(C)cc(C)c12

>  <score_type>  (22) 
oracle

>  <origin>  (22) 
adg

>  <m_score__min__energy>  (22) 
-7.5499999999999998

>  <m_primary>  (22) 
energy

$$$$
22:0
     RDKit          3D

 45 48  0  0  0  0  0  0  0  0999 V2000
   63.3720   33.8570   46.1250 C   0  0  0  0  0  0  0  0  0  0  0  0
   63.6170   33.7310   47.6320 C   0  0  0  0  0  0  0  0  0  0  0  0
   64.1080   32.3890   48.0090 N   0  0  0  0  0  0  0  0  0  0  0  0
   63.0840   31.5670   48.6830 C   0  0  0  0  0  0  0  0  0  0  0  0
   62.1050   30.9280   47.6880 C   0  0  0  0  0  0  0  0  0  0  0  0
   60.7320   31.3020   48.0230 N   0  0  0  0  0  0  0  0  0  0  0  0
   59.6970   31.2810   47.0280 C   0  0  0  0  0  0  0  0  0  0  0  0
   59.3400   32.4680   46.3160 C   0  0  0  0  0  0  0  0  0  0  0  0
   60.0250   33.6830   46.5090 C   0  0  0  0  0  0  0  0  0  0  0  0
   59.6500   34.8280   45.8000 C   0  0  0  0  0  0  0  0  0  0  0  0
   58.5980   34.7790   44.8840 C   0  0  0  0  0  0  0  0  0  0  0  0
   57.9150   33.5820   44.6600 C   0  0  0  0  0  0  0  0  0  0  0  0
   58.2780   32.4220   45.3610 C   0  0  0  0  0  0  0  0  0  0  0  0
   57.6490   31.2330   45.1480 N   0  0  0  0  0  0  0  0  0  0  0  0
   58.0030   30.1200   45.7970 C   0  0  0  0  0  0  0  0  0  0  0  0
   57.2520   29.0400   45.4360 C   0  0  0  0  0  0  0  0  0  0  0  0
   57.4710   27.7840   46.0230 C   0  0  0  0  0  0  0  0  0  0  0  0
   56.6900   26.5840   45.6710 C   0  0  0  0  0  0  0  0  0  0  0  0
   55.4820   26.4640   46.0080 O   0  0  0  0  0  0  0  0  0  0  0  0
   58.4970   27.6950   46.9970 C   0  0  0  0  0  0  0  0  0  0  0  0
   59.2630   28.8300   47.3590 C   0  0  0  0  0  0  0  0  0  0  0  0
   59.0150   30.0750   46.7430 C   0  0  0  0  0  0  0  0  0  0  0  0
   56.3100   29.5440   44.4250 C   0  0  0  0  0  0  0  0  0  0  0  0
   56.5770   30.8490   44.2800 C   0  0  0  0  0  0  0  0  0  0  0  0
   62.4061   34.3537   45.9508 H   0  0  0  0  0  0  0  0  0  0  0  0
   64.1777   34.4526   45.6711 H   0  0  0  0  0  0  0  0  0  0  0  0
   63.3562   32.8552   45.6711 H   0  0  0  0  0  0  0  0  0  0  0  0
   64.3653   34.4791   47.9327 H   0  0  0  0  0  0  0  0  0  0  0  0
   62.6575   33.8950   48.1443 H   0  0  0  0  0  0  0  0  0  0  0  0
   64.9410   32.4970   48.6340 H   0  0  0  0  0  0  0  0  0  0  0  0
   64.4390   31.8840   47.1530 H   0  0  0  0  0  0  0  0  0  0  0  0
   63.5867   30.7681   49.2478 H   0  0  0  0  0  0  0  0  0  0  0  0
   62.5067   32.2259   49.3483 H   0  0  0  0  0  0  0  0  0  0  0  0
   62.3395   31.2774   46.6717 H   0  0  0  0  0  0  0  0  0  0  0  0
   62.2026   29.8336   47.7396 H   0  0  0  0  0  0  0  0  0  0  0  0
   60.5870   31.8910   48.8730 H   0  0  0  0  0  0  0  0  0  0  0  0
   60.8608   33.7315   47.2225 H   0  0  0  0  0  0  0  0  0  0  0  0
   60.1874   35.7735   45.9651 H   0  0  0  0  0  0  0  0  0  0  0  0
   58.3058   35.6871   44.3363 H   0  0  0  0  0  0  0  0  0  0  0  0
   57.0906   33.5483   43.9325 H   0  0  0  0  0  0  0  0  0  0  0  0
   57.1726   25.7759   45.1017 H   0  0  0  0  0  0  0  0  0  0  0  0
   58.7017   26.7281   47.4799 H   0  0  0  0  0  0  0  0  0  0  0  0
   60.0516   28.7409   48.1207 H   0  0  0  0  0  0  0  0  0  0  0  0
   55.5400   28.9651   43.8940 H   0  0  0  0  0  0  0  0  0  0  0  0
   56.0490   31.5272   43.5935 H   0  0  0  0  0  0  0  0  0  0  0  0
  1  2  1  0
  2  3  1  0
  3  4  1  0
  4  5  1  0
  5  6  1  0
  6  7  1  0
  7  8  2  0
  8  9  1  0
  9 10  2  0
 10 11  1  0
 11 12  2  0
 12 13  1  0
 13 14  2  0
 14 15  1  0
 15 16  2  0
 16 17  1  0
 17 18  1  0
 18 19  2  0
 17 20  2  0
 20 21  1  0
 21 22  2  0
 16 23  1  0
 23 24  2  0
 22  7  1  0
 13  8  1  0
 24 14  1  0
 22 15  1  0
  1 25  1  0
  1 26  1  0
  1 27  1  0
  2 28  1  0
  2 29  1  0
  3 30  1  0
  3 31  1  0
  4 32  1  0
  4 33  1  0
  5 34  1  0
  5 35  1  0
  6 36  1  0
  9 37  1  0
 10 38  1  0
 11 39  1  0
 12 40  1  0
 18 41  1  0
 20 42  1  0
 21 43  1  0
 23 44  1  0
 24 45  1  0
M  CHG  2   3   1  14   1
M  END
>  <UniqueID>  (23) 
23

>  <SMILES>  (23) 
CC[NH2+]CCNc1c2ccccc2[n+]2c3c(c(C=O)ccc13)C=C2

>  <Energy>  (23) 
96.9408114521859

>  <Genealogy>  (23) 
CC[NH2+]CCNc1c2ccccc2[n+]2c3c(c(C=O)ccc13)C=C2 (protonated)
CC[NH2+]CCNc1c2ccccc2[n+]2c3c(c(C=O)ccc13)C=C2 (3D coordinates assigned)
CC[NH2+]CCNc1c2ccccc2[n+]2c3c(c(C=O)ccc13)C=C2 (nonaromatic ring conformer: 96.9408114521859 kcal/mol)

>  <smiles>  (23) 
CCNCCNc1c2ccccc2[n+]2c3c(c(C=O)ccc13)C=C2

>  <score_type>  (23) 
oracle

>  <origin>  (23) 
adg

>  <m_score__min__energy>  (23) 
-5.6900000000000004

>  <m_primary>  (23) 
energy

$$$$
23:0
     RDKit          3D

 44 46  0  0  0  0  0  0  0  0999 V2000
   56.4210   29.3810   42.5740 N   0  0  0  0  0  0  0  0  0  0  0  0
   56.4720   29.3260   44.0000 C   0  0  0  0  0  0  0  0  0  0  0  0
   55.4030   29.3180   44.6640 O   0  0  0  0  0  0  0  0  0  0  0  0
   57.7900   29.2360   44.7040 C   0  0  0  0  0  0  0  0  0  0  0  0
   57.9800   30.4050   45.5610 N   0  0  0  0  0  0  0  0  0  0  0  0
   57.7510   31.6910   45.2080 C   0  0  0  0  0  0  0  0  0  0  0  0
   58.0960   32.5450   46.2500 C   0  0  0  0  0  0  0  0  0  0  0  0
   57.9250   34.0330   46.2730 C   0  0  0  0  0  0  0  0  0  0  0  0
   58.9640   34.6600   45.4470 N   0  0  0  0  0  0  0  0  0  0  0  0
   59.9530   35.3780   46.2690 C   0  0  0  0  0  0  0  0  0  0  0  0
   59.9490   34.8350   47.7010 C   0  0  0  0  0  0  0  0  0  0  0  0
   61.2660   34.1960   48.0580 C   0  0  0  0  0  0  0  0  0  0  0  0
   61.7390   34.2350   49.3810 C   0  0  0  0  0  0  0  0  0  0  0  0
   62.9810   33.6790   49.7020 C   0  0  0  0  0  0  0  0  0  0  0  0
   63.7640   33.0910   48.7040 C   0  0  0  0  0  0  0  0  0  0  0  0
   64.9720   32.5580   49.0160 F   0  0  0  0  0  0  0  0  0  0  0  0
   63.3040   33.0550   47.3840 C   0  0  0  0  0  0  0  0  0  0  0  0
   62.0600   33.6070   47.0610 C   0  0  0  0  0  0  0  0  0  0  0  0
   58.5430   31.7320   47.2730 C   0  0  0  0  0  0  0  0  0  0  0  0
   59.0040   32.0400   48.5530 C   0  0  0  0  0  0  0  0  0  0  0  0
   59.4070   30.9760   49.3790 C   0  0  0  0  0  0  0  0  0  0  0  0
   59.3440   29.6440   48.9140 C   0  0  0  0  0  0  0  0  0  0  0  0
   58.8710   29.3630   47.6180 C   0  0  0  0  0  0  0  0  0  0  0  0
   58.4710   30.4370   46.8190 C   0  0  0  0  0  0  0  0  0  0  0  0
   57.2990   29.3710   42.0100 H   0  0  0  0  0  0  0  0  0  0  0  0
   55.5020   29.4290   42.0820 H   0  0  0  0  0  0  0  0  0  0  0  0
   57.8124   28.3251   45.3202 H   0  0  0  0  0  0  0  0  0  0  0  0
   58.5967   29.2010   43.9570 H   0  0  0  0  0  0  0  0  0  0  0  0
   57.3496   32.0145   44.2363 H   0  0  0  0  0  0  0  0  0  0  0  0
   56.9334   34.2939   45.8747 H   0  0  0  0  0  0  0  0  0  0  0  0
   58.0125   34.3952   47.3080 H   0  0  0  0  0  0  0  0  0  0  0  0
   58.4950   35.3500   44.8130 H   0  0  0  0  0  0  0  0  0  0  0  0
   60.9537   35.2433   45.8327 H   0  0  0  0  0  0  0  0  0  0  0  0
   59.6919   36.4463   46.2908 H   0  0  0  0  0  0  0  0  0  0  0  0
   59.7552   35.6649   48.3965 H   0  0  0  0  0  0  0  0  0  0  0  0
   59.1642   34.0677   47.7748 H   0  0  0  0  0  0  0  0  0  0  0  0
   61.1295   34.7049   50.1670 H   0  0  0  0  0  0  0  0  0  0  0  0
   63.3424   33.7042   50.7406 H   0  0  0  0  0  0  0  0  0  0  0  0
   63.9207   32.5924   46.5993 H   0  0  0  0  0  0  0  0  0  0  0  0
   61.7022   33.5795   46.0212 H   0  0  0  0  0  0  0  0  0  0  0  0
   59.0507   33.0812   48.9046 H   0  0  0  0  0  0  0  0  0  0  0  0
   59.7741   31.1826   50.3951 H   0  0  0  0  0  0  0  0  0  0  0  0
   59.6665   28.8208   49.5685 H   0  0  0  0  0  0  0  0  0  0  0  0
   58.8180   28.3292   47.2458 H   0  0  0  0  0  0  0  0  0  0  0  0
  1  2  1  0
  2  3  2  0
  2  4  1  0
  4  5  1  0
  5  6  1  0
  6  7  2  0
  7  8  1  0
  8  9  1  0
  9 10  1  0
 10 11  1  0
 11 12  1  0
 12 13  2  0
 13 14  1  0
 14 15  2  0
 15 16  1  0
 15 17  1  0
 17 18  2  0
  7 19  1  0
 19 20  2  0
 20 21  1  0
 21 22  2  0
 22 23  1  0
 23 24  2  0
 24  5  1  0
 18 12  1  0
 24 19  1  0
  1 25  1  0
  1 26  1  0
  4 27  1  0
  4 28  1  0
  6 29  1  0
  8 30  1  0
  8 31  1  0
  9 32  1  0
 10 33  1  0
 10 34  1  0
 11 35  1  0
 11 36  1  0
 13 37  1  0
 14 38  1  0
 17 39  1  0
 18 40  1  0
 20 41  1  0
 21 42  1  0
 22 43  1  0
 23 44  1  0
M  END
>  <UniqueID>  (24) 
24

>  <SMILES>  (24) 
NC(=O)Cn1cc(CNCCc2ccc(F)cc2)c2ccccc21

>  <Energy>  (24) 
71.49665029448013

>  <Genealogy>  (24) 
NC(=O)Cn1cc(CNCCc2ccc(F)cc2)c2ccccc21 (3D coordinates assigned)
NC(=O)Cn1cc(CNCCc2ccc(F)cc2)c2ccccc21 (optimized conformer: 71.49665029448013 kcal/mol)

>  <smiles>  (24) 
NC(=O)Cn1cc(CNCCc2ccc(F)cc2)c2ccccc21

>  <score_type>  (24) 
oracle

>  <origin>  (24) 
adg

>  <m_score__min__energy>  (24) 
-7.9699999999999998

>  <m_primary>  (24) 
energy

$$$$
24:0
     RDKit          3D

 62 64  0  0  0  0  0  0  0  0999 V2000
   60.8000   27.8340   50.2130 C   0  0  0  0  0  0  0  0  0  0  0  0
   61.1240   29.2100   50.8020 C   0  0  0  0  0  0  0  0  0  0  0  0
   60.4970   30.3080   50.0500 N   0  0  0  0  0  0  0  0  0  0  0  0
   59.0520   30.3980   50.2980 C   0  0  0  0  0  0  0  0  0  0  0  0
   58.5810   31.8460   50.1400 C   0  0  0  0  0  0  0  0  0  0  0  0
   59.5480   32.6140   49.4450 O   0  0  0  0  0  0  0  0  0  0  0  0
   60.0600   33.6580   50.2540 C   0  0  0  0  0  0  0  0  0  0  0  0
   61.5910   33.6510   50.2530 C   0  0  0  0  0  0  0  0  0  0  0  0
   62.0960   32.3700   49.7380 N   0  0  0  0  0  0  0  0  0  0  0  0
   63.4300   32.5200   49.1350 C   0  0  0  0  0  0  0  0  0  0  0  0
   63.3660   32.3420   47.6090 C   0  0  0  0  0  0  0  0  0  0  0  0
   62.3520   31.2700   47.1620 C   0  0  0  0  0  0  0  0  0  0  0  0
   60.9850   31.5090   47.6710 N   0  0  0  0  0  0  0  0  0  0  0  0
   59.9650   31.1790   46.6800 C   0  0  0  0  0  0  0  0  0  0  0  0
   59.6460   29.8260   46.3590 C   0  0  0  0  0  0  0  0  0  0  0  0
   60.2900   28.7230   46.9790 C   0  0  0  0  0  0  0  0  0  0  0  0
   59.9090   27.4130   46.7060 C   0  0  0  0  0  0  0  0  0  0  0  0
   58.8750   27.1580   45.8220 C   0  0  0  0  0  0  0  0  0  0  0  0
   58.2430   28.2110   45.1700 C   0  0  0  0  0  0  0  0  0  0  0  0
   58.6390   29.5570   45.3850 C   0  0  0  0  0  0  0  0  0  0  0  0
   58.0570   30.5870   44.6780 N   0  0  0  0  0  0  0  0  0  0  0  0
   57.2760   30.2940   43.4520 C   0  0  0  0  0  0  0  0  0  0  0  0
   58.2290   31.8930   45.0850 C   0  0  0  0  0  0  0  0  0  0  0  0
   57.4190   32.9360   44.5650 C   0  0  0  0  0  0  0  0  0  0  0  0
   57.6370   34.2640   44.9170 C   0  0  0  0  0  0  0  0  0  0  0  0
   58.6570   34.5890   45.7970 C   0  0  0  0  0  0  0  0  0  0  0  0
   59.4390   33.5860   46.3630 C   0  0  0  0  0  0  0  0  0  0  0  0
   59.2210   32.2190   46.0510 C   0  0  0  0  0  0  0  0  0  0  0  0
   60.6310   27.1163   51.0293 H   0  0  0  0  0  0  0  0  0  0  0  0
   59.8939   27.9045   49.5933 H   0  0  0  0  0  0  0  0  0  0  0  0
   61.6424   27.4928   49.5933 H   0  0  0  0  0  0  0  0  0  0  0  0
   60.7629   29.2428   51.8405 H   0  0  0  0  0  0  0  0  0  0  0  0
   62.2139   29.3480   50.7474 H   0  0  0  0  0  0  0  0  0  0  0  0
   60.9490   31.2140   50.3200 H   0  0  0  0  0  0  0  0  0  0  0  0
   58.5186   29.7611   49.5770 H   0  0  0  0  0  0  0  0  0  0  0  0
   58.8407   30.0602   51.3233 H   0  0  0  0  0  0  0  0  0  0  0  0
   57.6364   31.8591   49.5765 H   0  0  0  0  0  0  0  0  0  0  0  0
   58.4350   32.2816   51.1395 H   0  0  0  0  0  0  0  0  0  0  0  0
   59.7042   34.6230   49.8640 H   0  0  0  0  0  0  0  0  0  0  0  0
   59.7091   33.5069   51.2855 H   0  0  0  0  0  0  0  0  0  0  0  0
   61.9570   34.4683   49.6142 H   0  0  0  0  0  0  0  0  0  0  0  0
   61.9497   33.7881   51.2838 H   0  0  0  0  0  0  0  0  0  0  0  0
   62.1880   31.7160   50.5520 H   0  0  0  0  0  0  0  0  0  0  0  0
   63.8181   33.5233   49.3645 H   0  0  0  0  0  0  0  0  0  0  0  0
   64.0926   31.7470   49.5513 H   0  0  0  0  0  0  0  0  0  0  0  0
   63.0799   33.3032   47.1571 H   0  0  0  0  0  0  0  0  0  0  0  0
   64.3604   32.0080   47.2780 H   0  0  0  0  0  0  0  0  0  0  0  0
   62.3180   31.2586   46.0626 H   0  0  0  0  0  0  0  0  0  0  0  0
   62.6903   30.3089   47.5766 H   0  0  0  0  0  0  0  0  0  0  0  0
   60.8920   32.5130   47.9420 H   0  0  0  0  0  0  0  0  0  0  0  0
   60.8440   31.0410   48.5870 H   0  0  0  0  0  0  0  0  0  0  0  0
   61.1080   28.9082   47.6907 H   0  0  0  0  0  0  0  0  0  0  0  0
   60.4313   26.5771   47.1944 H   0  0  0  0  0  0  0  0  0  0  0  0
   58.5534   26.1228   45.6353 H   0  0  0  0  0  0  0  0  0  0  0  0
   57.4192   27.9965   44.4733 H   0  0  0  0  0  0  0  0  0  0  0  0
   56.2801   29.9204   43.7322 H   0  0  0  0  0  0  0  0  0  0  0  0
   57.1688   31.2131   42.8571 H   0  0  0  0  0  0  0  0  0  0  0  0
   57.7998   29.5312   42.8571 H   0  0  0  0  0  0  0  0  0  0  0  0
   56.6028   32.6894   43.8700 H   0  0  0  0  0  0  0  0  0  0  0  0
   56.9998   35.0561   44.4969 H   0  0  0  0  0  0  0  0  0  0  0  0
   58.8492   35.6424   46.0490 H   0  0  0  0  0  0  0  0  0  0  0  0
   60.2408   33.8582   47.0651 H   0  0  0  0  0  0  0  0  0  0  0  0
  1  2  1  0
  2  3  1  0
  3  4  1  0
  4  5  1  0
  5  6  1  0
  6  7  1  0
  7  8  1  0
  8  9  1  0
  9 10  1  0
 10 11  1  0
 11 12  1  0
 12 13  1  0
 13 14  1  0
 14 15  2  0
 15 16  1  0
 16 17  2  0
 17 18  1  0
 18 19  2  0
 19 20  1  0
 20 21  2  0
 21 22  1  0
 21 23  1  0
 23 24  2  0
 24 25  1  0
 25 26  2  0
 26 27  1  0
 27 28  2  0
 28 14  1  0
 20 15  1  0
 28 23  1  0
  1 29  1  0
  1 30  1  0
  1 31  1  0
  2 32  1  0
  2 33  1  0
  3 34  1  0
  4 35  1  0
  4 36  1  0
  5 37  1  0
  5 38  1  0
  7 39  1  0
  7 40  1  0
  8 41  1  0
  8 42  1  0
  9 43  1  0
 10 44  1  0
 10 45  1  0
 11 46  1  0
 11 47  1  0
 12 48  1  0
 12 49  1  0
 13 50  1  0
 13 51  1  0
 16 52  1  0
 17 53  1  0
 18 54  1  0
 19 55  1  0
 22 56  1  0
 22 57  1  0
 22 58  1  0
 24 59  1  0
 25 60  1  0
 26 61  1  0
 27 62  1  0
M  CHG  2  13   1  21   1
M  END
>  <UniqueID>  (25) 
25

>  <SMILES>  (25) 
CCNCCOCCNCCC[NH2+]c1c2ccccc2[n+](C)c2ccccc12

>  <Energy>  (25) 
89.06003253989526

>  <Genealogy>  (25) 
CCNCCOCCNCCC[NH2+]c1c2ccccc2[n+](C)c2ccccc12 (protonated)
CCNCCOCCNCCC[NH2+]c1c2ccccc2[n+](C)c2ccccc12 (3D coordinates assigned)
CCNCCOCCNCCC[NH2+]c1c2ccccc2[n+](C)c2ccccc12 (optimized conformer: 89.06003253989526 kcal/mol)

>  <smiles>  (25) 
CCNCCOCCNCCCNc1c2ccccc2[n+](C)c2ccccc12

>  <score_type>  (25) 
oracle

>  <origin>  (25) 
adg

>  <m_score__min__energy>  (25) 
-3.52

>  <m_primary>  (25) 
energy

$$$$
25:0
     RDKit          3D

 59 61  0  0  0  0  0  0  0  0999 V2000
   58.5400   32.0130   49.6680 C   0  0  0  0  0  0  0  0  0  0  0  0
   59.6340   33.0420   49.9570 C   0  0  0  0  0  0  0  0  0  0  0  0
   59.6750   34.1680   48.9130 C   0  0  0  0  0  0  0  0  0  0  0  0
   61.0390   34.2670   48.2080 C   0  0  0  0  0  0  0  0  0  0  0  0
   60.9770   33.9910   46.6920 C   0  0  0  0  0  0  0  0  0  0  0  0
   59.6260   33.4230   46.2500 C   0  0  0  0  0  0  0  0  0  0  0  0
   58.6840   34.4510   46.0430 C   0  0  0  0  0  0  0  0  0  0  0  0
   57.4190   34.1990   45.5660 C   0  0  0  0  0  0  0  0  0  0  0  0
   57.0590   32.9180   45.2230 C   0  0  0  0  0  0  0  0  0  0  0  0
   57.9520   31.8330   45.3640 C   0  0  0  0  0  0  0  0  0  0  0  0
   59.2440   32.0390   45.9700 C   0  0  0  0  0  0  0  0  0  0  0  0
   60.0150   30.8450   46.2600 C   0  0  0  0  0  0  0  0  0  0  0  0
   61.3820   30.8800   46.7430 N   0  0  0  0  0  0  0  0  0  0  0  0
   61.4320   30.8060   48.2200 C   0  0  0  0  0  0  0  0  0  0  0  0
   62.7240   31.4290   48.8000 C   0  0  0  0  0  0  0  0  0  0  0  0
   63.5790   32.0650   47.7820 N   0  0  0  0  0  0  0  0  0  0  0  0
   64.1340   33.3480   48.2370 C   0  0  0  0  0  0  0  0  0  0  0  0
   64.1330   33.4230   49.7620 C   0  0  0  0  0  0  0  0  0  0  0  0
   59.3990   29.5640   46.0980 C   0  0  0  0  0  0  0  0  0  0  0  0
   60.0040   28.3660   46.5750 C   0  0  0  0  0  0  0  0  0  0  0  0
   59.3880   27.1280   46.4170 C   0  0  0  0  0  0  0  0  0  0  0  0
   58.1560   27.0400   45.7900 C   0  0  0  0  0  0  0  0  0  0  0  0
   57.5420   28.1880   45.3060 C   0  0  0  0  0  0  0  0  0  0  0  0
   58.1570   29.4620   45.4320 C   0  0  0  0  0  0  0  0  0  0  0  0
   57.5570   30.5870   44.9310 N   0  0  0  0  0  0  0  0  0  0  0  0
   56.4820   30.4560   43.9200 C   0  0  0  0  0  0  0  0  0  0  0  0
   58.1350   31.6320   50.6171 H   0  0  0  0  0  0  0  0  0  0  0  0
   57.7337   32.4877   49.0895 H   0  0  0  0  0  0  0  0  0  0  0  0
   58.9645   31.1792   49.0895 H   0  0  0  0  0  0  0  0  0  0  0  0
   59.4485   33.4853   50.9465 H   0  0  0  0  0  0  0  0  0  0  0  0
   60.6013   32.5193   49.9221 H   0  0  0  0  0  0  0  0  0  0  0  0
   58.8998   33.9763   48.1565 H   0  0  0  0  0  0  0  0  0  0  0  0
   59.5002   35.1183   49.4387 H   0  0  0  0  0  0  0  0  0  0  0  0
   61.4352   35.2819   48.3599 H   0  0  0  0  0  0  0  0  0  0  0  0
   61.6846   33.4930   48.6486 H   0  0  0  0  0  0  0  0  0  0  0  0
   61.1549   34.9344   46.1549 H   0  0  0  0  0  0  0  0  0  0  0  0
   61.7457   33.2394   46.4593 H   0  0  0  0  0  0  0  0  0  0  0  0
   58.9700   35.4885   46.2704 H   0  0  0  0  0  0  0  0  0  0  0  0
   56.6965   35.0216   45.4592 H   0  0  0  0  0  0  0  0  0  0  0  0
   56.0491   32.7328   44.8284 H   0  0  0  0  0  0  0  0  0  0  0  0
   61.8890   31.6810   46.3440 H   0  0  0  0  0  0  0  0  0  0  0  0
   61.9260   30.0900   46.3300 H   0  0  0  0  0  0  0  0  0  0  0  0
   60.5653   31.3452   48.6300 H   0  0  0  0  0  0  0  0  0  0  0  0
   61.4169   29.7430   48.5025 H   0  0  0  0  0  0  0  0  0  0  0  0
   62.4407   32.1904   49.5416 H   0  0  0  0  0  0  0  0  0  0  0  0
   63.3067   30.6090   49.2451 H   0  0  0  0  0  0  0  0  0  0  0  0
   64.3430   31.4190   47.4770 H   0  0  0  0  0  0  0  0  0  0  0  0
   65.1667   33.4454   47.8709 H   0  0  0  0  0  0  0  0  0  0  0  0
   63.5116   34.1641   47.8413 H   0  0  0  0  0  0  0  0  0  0  0  0
   64.1466   32.4053   50.1792 H   0  0  0  0  0  0  0  0  0  0  0  0
   65.0239   33.9709   50.1028 H   0  0  0  0  0  0  0  0  0  0  0  0
   63.2278   33.9469   50.1028 H   0  0  0  0  0  0  0  0  0  0  0  0
   60.9799   28.4205   47.0796 H   0  0  0  0  0  0  0  0  0  0  0  0
   59.8803   26.2180   46.7906 H   0  0  0  0  0  0  0  0  0  0  0  0
   57.6647   26.0625   45.6756 H   0  0  0  0  0  0  0  0  0  0  0  0
   56.5605   28.1089   44.8157 H   0  0  0  0  0  0  0  0  0  0  0  0
   55.5134   30.3380   44.4279 H   0  0  0  0  0  0  0  0  0  0  0  0
   56.4586   31.3579   43.2907 H   0  0  0  0  0  0  0  0  0  0  0  0
   56.6758   29.5748   43.2907 H   0  0  0  0  0  0  0  0  0  0  0  0
  1  2  1  0
  2  3  1  0
  3  4  1  0
  4  5  1  0
  5  6  1  0
  6  7  2  0
  7  8  1  0
  8  9  2  0
  9 10  1  0
 10 11  2  0
 11 12  1  0
 12 13  1  0
 13 14  1  0
 14 15  1  0
 15 16  1  0
 16 17  1  0
 17 18  1  0
 12 19  2  0
 19 20  1  0
 20 21  2  0
 21 22  1  0
 22 23  2  0
 23 24  1  0
 24 25  2  0
 25 26  1  0
 11  6  1  0
 24 19  1  0
 25 10  1  0
  1 27  1  0
  1 28  1  0
  1 29  1  0
  2 30  1  0
  2 31  1  0
  3 32  1  0
  3 33  1  0
  4 34  1  0
  4 35  1  0
  5 36  1  0
  5 37  1  0
  7 38  1  0
  8 39  1  0
  9 40  1  0
 13 41  1  0
 13 42  1  0
 14 43  1  0
 14 44  1  0
 15 45  1  0
 15 46  1  0
 16 47  1  0
 17 48  1  0
 17 49  1  0
 18 50  1  0
 18 51  1  0
 18 52  1  0
 20 53  1  0
 21 54  1  0
 22 55  1  0
 23 56  1  0
 26 57  1  0
 26 58  1  0
 26 59  1  0
M  CHG  2  13   1  25   1
M  END
>  <UniqueID>  (26) 
26

>  <SMILES>  (26) 
CCCCCc1cccc2c1c([NH2+]CCNCC)c1ccccc1[n+]2C

>  <Energy>  (26) 
102.46274003226318

>  <Genealogy>  (26) 
CCCCCc1cccc2c1c([NH2+]CCNCC)c1ccccc1[n+]2C (protonated)
CCCCCc1cccc2c1c([NH2+]CCNCC)c1ccccc1[n+]2C (3D coordinates assigned)
CCCCCc1cccc2c1c([NH2+]CCNCC)c1ccccc1[n+]2C (optimized conformer: 102.46274003226318 kcal/mol)

>  <smiles>  (26) 
CCCCCc1cccc2c1c(NCCNCC)c1ccccc1[n+]2C

>  <score_type>  (26) 
oracle

>  <origin>  (26) 
adg

>  <m_score__min__energy>  (26) 
-4.8300000000000001

>  <m_primary>  (26) 
energy

$$$$
27:0
     RDKit          3D

 37 38  0  0  0  0  0  0  0  0999 V2000
   61.1260   29.5950   49.6900 C   0  0  0  0  0  0  0  0  0  0  0  0
   61.7730   30.9060   49.7610 C   0  0  0  0  0  0  0  0  0  0  0  0
   62.3070   31.9850   49.8200 C   0  0  0  0  0  0  0  0  0  0  0  0
   62.9660   33.2940   49.8930 C   0  0  0  0  0  0  0  0  0  0  0  0
   62.1590   34.2920   49.2730 O   0  0  0  0  0  0  0  0  0  0  0  0
   61.1950   34.0550   48.2770 C   0  0  0  0  0  0  0  0  0  0  0  0
   61.5400   33.6800   46.9640 C   0  0  0  0  0  0  0  0  0  0  0  0
   60.5430   33.4610   46.0080 C   0  0  0  0  0  0  0  0  0  0  0  0
   59.1930   33.6150   46.3480 C   0  0  0  0  0  0  0  0  0  0  0  0
   57.9380   33.3520   45.1340 S   0  0  0  0  0  0  0  0  0  0  0  0
   56.8350   34.3530   45.3430 O   0  0  0  0  0  0  0  0  0  0  0  0
   58.5170   33.5800   43.7650 O   0  0  0  0  0  0  0  0  0  0  0  0
   57.2760   31.7390   45.2220 N   0  0  0  0  0  0  0  0  0  0  0  0
   56.9630   31.2350   43.8740 C   0  0  0  0  0  0  0  0  0  0  0  0
   56.6030   29.7350   43.9220 C   0  0  0  0  0  0  0  0  0  0  0  0
   56.3960   29.3040   45.2540 O   0  0  0  0  0  0  0  0  0  0  0  0
   57.6030   29.4170   45.9890 C   0  0  0  0  0  0  0  0  0  0  0  0
   58.2140   30.8320   45.8980 C   0  0  0  0  0  0  0  0  0  0  0  0
   58.8480   33.9820   47.6540 C   0  0  0  0  0  0  0  0  0  0  0  0
   59.8430   34.2010   48.6120 C   0  0  0  0  0  0  0  0  0  0  0  0
   59.4910   34.5600   49.8720 F   0  0  0  0  0  0  0  0  0  0  0  0
   60.9417   29.2215   50.7081 H   0  0  0  0  0  0  0  0  0  0  0  0
   60.1696   29.6866   49.1543 H   0  0  0  0  0  0  0  0  0  0  0  0
   61.7805   28.8917   49.1543 H   0  0  0  0  0  0  0  0  0  0  0  0
   63.1257   33.5610   50.9481 H   0  0  0  0  0  0  0  0  0  0  0  0
   63.9305   33.2377   49.3671 H   0  0  0  0  0  0  0  0  0  0  0  0
   62.5982   33.5588   46.6893 H   0  0  0  0  0  0  0  0  0  0  0  0
   60.8201   33.1666   44.9850 H   0  0  0  0  0  0  0  0  0  0  0  0
   56.1102   31.7981   43.4670 H   0  0  0  0  0  0  0  0  0  0  0  0
   57.8476   31.3659   43.2334 H   0  0  0  0  0  0  0  0  0  0  0  0
   55.6829   29.5675   43.3429 H   0  0  0  0  0  0  0  0  0  0  0  0
   57.4383   29.1610   43.4944 H   0  0  0  0  0  0  0  0  0  0  0  0
   57.3970   29.1879   47.0450 H   0  0  0  0  0  0  0  0  0  0  0  0
   58.3268   28.7095   45.5583 H   0  0  0  0  0  0  0  0  0  0  0  0
   58.4177   31.2072   46.9117 H   0  0  0  0  0  0  0  0  0  0  0  0
   59.1509   30.7858   45.3235 H   0  0  0  0  0  0  0  0  0  0  0  0
   57.7891   34.0987   47.9281 H   0  0  0  0  0  0  0  0  0  0  0  0
  1  2  1  0
  2  3  3  0
  3  4  1  0
  4  5  1  0
  5  6  1  0
  6  7  2  0
  7  8  1  0
  8  9  2  0
  9 10  1  0
 10 11  2  0
 10 12  2  0
 10 13  1  0
 13 14  1  0
 14 15  1  0
 15 16  1  0
 16 17  1  0
 17 18  1  0
  9 19  1  0
 19 20  2  0
 20 21  1  0
 20  6  1  0
 18 13  1  0
  1 22  1  0
  1 23  1  0
  1 24  1  0
  4 25  1  0
  4 26  1  0
  7 27  1  0
  8 28  1  0
 14 29  1  0
 14 30  1  0
 15 31  1  0
 15 32  1  0
 17 33  1  0
 17 34  1  0
 18 35  1  0
 18 36  1  0
 19 37  1  0
M  END
>  <UniqueID>  (27) 
27

>  <SMILES>  (27) 
CC#CCOc1ccc(S(=O)(=O)N2CCOCC2)cc1F

>  <Energy>  (27) 
37.750218678643

>  <Genealogy>  (27) 
CC#CCOc1ccc(S(=O)(=O)N2CCOCC2)cc1F (3D coordinates assigned)
CC#CCOc1ccc(S(=O)(=O)N2CCOCC2)cc1F (nonaromatic ring conformer: 37.750218678643 kcal/mol)

>  <smiles>  (27) 
CC#CCOc1ccc(S(=O)(=O)N2CCOCC2)cc1F

>  <score_type>  (27) 
oracle

>  <origin>  (27) 
adg

>  <m_score__min__energy>  (27) 
-6.8300000000000001

>  <m_primary>  (27) 
energy

$$$$
28:0
     RDKit          3D

 53 54  0  0  0  0  0  0  0  0999 V2000
   56.9790   27.7710   45.6190 C   0  0  0  0  0  0  0  0  0  0  0  0
   57.3420   28.8300   44.5660 C   0  0  0  0  0  0  0  0  0  0  0  0
   57.3790   30.2230   45.0820 N   0  0  0  0  0  0  0  0  0  0  0  0
   56.6990   31.1800   44.1780 C   0  0  0  0  0  0  0  0  0  0  0  0
   57.7320   31.9400   43.3550 C   0  0  0  0  0  0  0  0  0  0  0  0
   58.7170   30.6970   45.5020 C   0  0  0  0  0  0  0  0  0  0  0  0
   59.4320   29.6720   46.3940 C   0  0  0  0  0  0  0  0  0  0  0  0
   58.9750   29.7910   47.7270 O   0  0  0  0  0  0  0  0  0  0  0  0
   59.2020   28.5930   48.4420 C   0  0  0  0  0  0  0  0  0  0  0  0
   60.0400   28.8970   49.6830 C   0  0  0  0  0  0  0  0  0  0  0  0
   60.3830   30.3160   49.7410 N   0  0  0  0  0  0  0  0  0  0  0  0
   61.5870   30.7940   50.3540 C   0  0  0  0  0  0  0  0  0  0  0  0
   62.3540   29.9900   50.9520 O   0  0  0  0  0  0  0  0  0  0  0  0
   61.8920   32.2680   50.3350 C   0  0  0  0  0  0  0  0  0  0  0  0
   62.1060   32.7870   48.9350 C   0  0  0  0  0  0  0  0  0  0  0  0
   63.4130   32.9480   48.4250 C   0  0  0  0  0  0  0  0  0  0  0  0
   63.6260   33.4600   47.1280 C   0  0  0  0  0  0  0  0  0  0  0  0
   62.5370   33.8320   46.3210 C   0  0  0  0  0  0  0  0  0  0  0  0
   61.2540   33.6830   46.8420 C   0  0  0  0  0  0  0  0  0  0  0  0
   61.0360   33.1800   48.1120 C   0  0  0  0  0  0  0  0  0  0  0  0
   59.5840   33.1740   48.3230 C   0  0  0  0  0  0  0  0  0  0  0  0
   58.9890   32.7490   49.3490 O   0  0  0  0  0  0  0  0  0  0  0  0
   58.9110   33.7050   47.1780 N   0  0  0  0  0  0  0  0  0  0  0  0
   57.5130   33.4780   46.8370 C   0  0  0  0  0  0  0  0  0  0  0  0
   59.9580   33.9840   46.2480 C   0  0  0  0  0  0  0  0  0  0  0  0
   59.7700   34.4060   45.0760 O   0  0  0  0  0  0  0  0  0  0  0  0
   57.1228   28.1905   46.6256 H   0  0  0  0  0  0  0  0  0  0  0  0
   55.9276   27.4735   45.4925 H   0  0  0  0  0  0  0  0  0  0  0  0
   57.6268   26.8910   45.4925 H   0  0  0  0  0  0  0  0  0  0  0  0
   58.3357   28.5865   44.1619 H   0  0  0  0  0  0  0  0  0  0  0  0
   56.5492   28.7990   43.8041 H   0  0  0  0  0  0  0  0  0  0  0  0
   56.0278   30.6295   43.5024 H   0  0  0  0  0  0  0  0  0  0  0  0
   56.1176   31.8949   44.7788 H   0  0  0  0  0  0  0  0  0  0  0  0
   58.4317   32.4548   44.0298 H   0  0  0  0  0  0  0  0  0  0  0  0
   58.2872   31.2335   42.7206 H   0  0  0  0  0  0  0  0  0  0  0  0
   57.2227   32.6803   42.7206 H   0  0  0  0  0  0  0  0  0  0  0  0
   59.3286   30.8765   44.6055 H   0  0  0  0  0  0  0  0  0  0  0  0
   58.5849   31.6218   46.0827 H   0  0  0  0  0  0  0  0  0  0  0  0
   59.2205   28.6575   46.0253 H   0  0  0  0  0  0  0  0  0  0  0  0
   60.5154   29.8604   46.3648 H   0  0  0  0  0  0  0  0  0  0  0  0
   58.2384   28.1586   48.7466 H   0  0  0  0  0  0  0  0  0  0  0  0
   59.7382   27.8773   47.8014 H   0  0  0  0  0  0  0  0  0  0  0  0
   59.4653   28.6276   50.5814 H   0  0  0  0  0  0  0  0  0  0  0  0
   60.9695   28.3107   49.6338 H   0  0  0  0  0  0  0  0  0  0  0  0
   59.7000   31.0090   49.3580 H   0  0  0  0  0  0  0  0  0  0  0  0
   61.0493   32.8101   50.7889 H   0  0  0  0  0  0  0  0  0  0  0  0
   62.8218   32.4280   50.9005 H   0  0  0  0  0  0  0  0  0  0  0  0
   64.2764   32.6705   49.0474 H   0  0  0  0  0  0  0  0  0  0  0  0
   64.6516   33.5689   46.7454 H   0  0  0  0  0  0  0  0  0  0  0  0
   62.6935   34.2293   45.3073 H   0  0  0  0  0  0  0  0  0  0  0  0
   56.9215   33.3820   47.7595 H   0  0  0  0  0  0  0  0  0  0  0  0
   57.1370   34.3269   46.2470 H   0  0  0  0  0  0  0  0  0  0  0  0
   57.4249   32.5538   46.2470 H   0  0  0  0  0  0  0  0  0  0  0  0
  1  2  1  0
  2  3  1  0
  3  4  1  0
  4  5  1  0
  3  6  1  0
  6  7  1  0
  7  8  1  0
  8  9  1  0
  9 10  1  0
 10 11  1  0
 11 12  1  0
 12 13  2  0
 12 14  1  0
 14 15  1  0
 15 16  2  0
 16 17  1  0
 17 18  2  0
 18 19  1  0
 19 20  2  0
 20 21  1  0
 21 22  2  0
 21 23  1  0
 23 24  1  0
 23 25  1  0
 25 26  2  0
 20 15  1  0
 25 19  1  0
  1 27  1  0
  1 28  1  0
  1 29  1  0
  2 30  1  0
  2 31  1  0
  4 32  1  0
  4 33  1  0
  5 34  1  0
  5 35  1  0
  5 36  1  0
  6 37  1  0
  6 38  1  0
  7 39  1  0
  7 40  1  0
  9 41  1  0
  9 42  1  0
 10 43  1  0
 10 44  1  0
 11 45  1  0
 14 46  1  0
 14 47  1  0
 16 48  1  0
 17 49  1  0
 18 50  1  0
 24 51  1  0
 24 52  1  0
 24 53  1  0
M  END
>  <UniqueID>  (28) 
28

>  <SMILES>  (28) 
CCN(CC)CCOCCNC(=O)Cc1cccc2c1C(=O)N(C)C2=O

>  <Energy>  (28) 
82.28490890951149

>  <Genealogy>  (28) 
CCN(CC)CCOCCNC(=O)Cc1cccc2c1C(=O)N(C)C2=O (3D coordinates assigned)
CCN(CC)CCOCCNC(=O)Cc1cccc2c1C(=O)N(C)C2=O (nonaromatic ring conformer: 82.28490890951149 kcal/mol)

>  <smiles>  (28) 
CCN(CC)CCOCCNC(=O)Cc1cccc2c1C(=O)N(C)C2=O

>  <score_type>  (28) 
oracle

>  <origin>  (28) 
adg

>  <m_score__min__energy>  (28) 
-6.1500000000000004

>  <m_primary>  (28) 
energy

$$$$
29:0
     RDKit          3D

 74 77  0  0  0  0  0  0  0  0999 V2000
   59.6580   35.1860   45.9060 C   0  0  0  0  0  0  0  0  0  0  0  0
   58.8570   34.2090   46.7820 C   0  0  0  0  0  0  0  0  0  0  0  0
   57.7310   33.5370   46.0890 N   0  0  0  0  0  0  0  0  0  0  0  0
   57.1910   34.2390   44.9130 C   0  0  0  0  0  0  0  0  0  0  0  0
   57.8750   32.0750   45.9120 C   0  0  0  0  0  0  0  0  0  0  0  0
   57.4110   31.5630   44.5440 C   0  0  0  0  0  0  0  0  0  0  0  0
   56.1850   30.8780   44.7090 O   0  0  0  0  0  0  0  0  0  0  0  0
   56.3350   29.4980   44.4330 C   0  0  0  0  0  0  0  0  0  0  0  0
   57.7240   29.1490   43.8420 C   0  0  0  0  0  0  0  0  0  0  0  0
   58.6980   28.5860   44.8020 N   0  0  0  0  0  0  0  0  0  0  0  0
   58.1260   28.0730   46.0670 C   0  0  0  0  0  0  0  0  0  0  0  0
   58.5650   28.9170   47.2750 C   0  0  0  0  0  0  0  0  0  0  0  0
   60.0460   28.9950   47.4090 N   0  0  0  0  0  0  0  0  0  0  0  0
   60.5620   28.0430   48.4150 C   0  0  0  0  0  0  0  0  0  0  0  0
   60.5540   28.6800   49.8140 C   0  0  0  0  0  0  0  0  0  0  0  0
   60.5460   30.1550   49.7620 N   0  0  0  0  0  0  0  0  0  0  0  0
   61.8950   30.7110   49.7950 C   0  0  0  0  0  0  0  0  0  0  0  0
   62.3060   31.6500   48.8060 C   0  0  0  0  0  0  0  0  0  0  0  0
   61.4470   32.0440   47.7460 C   0  0  0  0  0  0  0  0  0  0  0  0
   61.8740   32.9270   46.7590 C   0  0  0  0  0  0  0  0  0  0  0  0
   63.1630   33.4330   46.7900 C   0  0  0  0  0  0  0  0  0  0  0  0
   64.0250   33.0830   47.8250 C   0  0  0  0  0  0  0  0  0  0  0  0
   63.6090   32.2190   48.8710 C   0  0  0  0  0  0  0  0  0  0  0  0
   64.4450   31.9260   49.9270 N   0  0  0  0  0  0  0  0  0  0  0  0
   65.6500   32.7570   50.1650 C   0  0  0  0  0  0  0  0  0  0  0  0
   64.1400   30.8940   50.7890 C   0  0  0  0  0  0  0  0  0  0  0  0
   65.1110   30.3850   51.6900 C   0  0  0  0  0  0  0  0  0  0  0  0
   64.7830   29.4190   52.6360 C   0  0  0  0  0  0  0  0  0  0  0  0
   63.4900   28.9300   52.7060 C   0  0  0  0  0  0  0  0  0  0  0  0
   62.5270   29.3640   51.7990 C   0  0  0  0  0  0  0  0  0  0  0  0
   62.8370   30.3150   50.7900 C   0  0  0  0  0  0  0  0  0  0  0  0
   60.7690   28.8380   46.1230 C   0  0  0  0  0  0  0  0  0  0  0  0
   59.9450   29.3650   44.9430 C   0  0  0  0  0  0  0  0  0  0  0  0
   60.2237   35.8760   46.5493 H   0  0  0  0  0  0  0  0  0  0  0  0
   60.3563   34.6211   45.2709 H   0  0  0  0  0  0  0  0  0  0  0  0
   58.9672   35.7600   45.2709 H   0  0  0  0  0  0  0  0  0  0  0  0
   59.5457   33.4336   47.1486 H   0  0  0  0  0  0  0  0  0  0  0  0
   58.4118   34.8086   47.5896 H   0  0  0  0  0  0  0  0  0  0  0  0
   56.5514   35.0705   45.2440 H   0  0  0  0  0  0  0  0  0  0  0  0
   58.0210   34.6331   44.3081 H   0  0  0  0  0  0  0  0  0  0  0  0
   56.5972   33.5379   44.3081 H   0  0  0  0  0  0  0  0  0  0  0  0
   58.9364   31.8146   46.0368 H   0  0  0  0  0  0  0  0  0  0  0  0
   57.2301   31.5986   46.6651 H   0  0  0  0  0  0  0  0  0  0  0  0
   57.2714   32.4121   43.8587 H   0  0  0  0  0  0  0  0  0  0  0  0
   58.1663   30.8838   44.1218 H   0  0  0  0  0  0  0  0  0  0  0  0
   56.2006   28.9362   45.3691 H   0  0  0  0  0  0  0  0  0  0  0  0
   55.5789   29.2276   43.6812 H   0  0  0  0  0  0  0  0  0  0  0  0
   57.5756   28.4131   43.0380 H   0  0  0  0  0  0  0  0  0  0  0  0
   58.1543   30.1005   43.4962 H   0  0  0  0  0  0  0  0  0  0  0  0
   57.0285   28.0956   45.9967 H   0  0  0  0  0  0  0  0  0  0  0  0
   58.4912   27.0461   46.2161 H   0  0  0  0  0  0  0  0  0  0  0  0
   58.1675   29.9358   47.1565 H   0  0  0  0  0  0  0  0  0  0  0  0
   58.1728   28.4323   48.1812 H   0  0  0  0  0  0  0  0  0  0  0  0
   59.9268   27.1450   48.4227 H   0  0  0  0  0  0  0  0  0  0  0  0
   61.5959   27.7744   48.1527 H   0  0  0  0  0  0  0  0  0  0  0  0
   59.6560   28.3408   50.3512 H   0  0  0  0  0  0  0  0  0  0  0  0
   61.4745   28.3681   50.3291 H   0  0  0  0  0  0  0  0  0  0  0  0
   59.9900   30.5250   50.5640 H   0  0  0  0  0  0  0  0  0  0  0  0
   59.9800   30.4770   48.9510 H   0  0  0  0  0  0  0  0  0  0  0  0
   60.4235   31.6431   47.7044 H   0  0  0  0  0  0  0  0  0  0  0  0
   61.1868   33.2236   45.9529 H   0  0  0  0  0  0  0  0  0  0  0  0
   63.5057   34.1123   45.9956 H   0  0  0  0  0  0  0  0  0  0  0  0
   65.0492   33.4841   47.8324 H   0  0  0  0  0  0  0  0  0  0  0  0
   65.8109   32.8680   51.2475 H   0  0  0  0  0  0  0  0  0  0  0  0
   66.5263   32.2703   49.7120 H   0  0  0  0  0  0  0  0  0  0  0  0
   65.5066   33.7491   49.7120 H   0  0  0  0  0  0  0  0  0  0  0  0
   66.1433   30.7616   51.6395 H   0  0  0  0  0  0  0  0  0  0  0  0
   65.5512   29.0439   53.3283 H   0  0  0  0  0  0  0  0  0  0  0  0
   63.2225   28.1962   53.4806 H   0  0  0  0  0  0  0  0  0  0  0  0
   61.5051   28.9623   51.8649 H   0  0  0  0  0  0  0  0  0  0  0  0
   61.7151   29.3967   46.1752 H   0  0  0  0  0  0  0  0  0  0  0  0
   60.9536   27.7657   45.9614 H   0  0  0  0  0  0  0  0  0  0  0  0
   59.6952   30.4219   45.1178 H   0  0  0  0  0  0  0  0  0  0  0  0
   60.5359   29.2658   44.0205 H   0  0  0  0  0  0  0  0  0  0  0  0
  1  2  1  0
  2  3  1  0
  3  4  1  0
  3  5  1  0
  5  6  1  0
  6  7  1  0
  7  8  1  0
  8  9  1  0
  9 10  1  0
 10 11  1  0
 11 12  1  0
 12 13  1  0
 13 14  1  0
 14 15  1  0
 15 16  1  0
 16 17  1  0
 17 18  1  0
 18 19  2  0
 19 20  1  0
 20 21  2  0
 21 22  1  0
 22 23  2  0
 23 24  1  0
 24 25  1  0
 24 26  2  0
 26 27  1  0
 27 28  2  0
 28 29  1  0
 29 30  2  0
 30 31  1  0
 13 32  1  0
 32 33  1  0
 33 10  1  0
 31 17  2  0
 23 18  1  0
 31 26  1  0
  1 34  1  0
  1 35  1  0
  1 36  1  0
  2 37  1  0
  2 38  1  0
  4 39  1  0
  4 40  1  0
  4 41  1  0
  5 42  1  0
  5 43  1  0
  6 44  1  0
  6 45  1  0
  8 46  1  0
  8 47  1  0
  9 48  1  0
  9 49  1  0
 11 50  1  0
 11 51  1  0
 12 52  1  0
 12 53  1  0
 14 54  1  0
 14 55  1  0
 15 56  1  0
 15 57  1  0
 16 58  1  0
 16 59  1  0
 19 60  1  0
 20 61  1  0
 21 62  1  0
 22 63  1  0
 25 64  1  0
 25 65  1  0
 25 66  1  0
 27 67  1  0
 28 68  1  0
 29 69  1  0
 30 70  1  0
 32 71  1  0
 32 72  1  0
 33 73  1  0
 33 74  1  0
M  CHG  2  16   1  24   1
M  END
>  <UniqueID>  (29) 
29

>  <SMILES>  (29) 
CCN(C)CCOCCN1CCN(CC[NH2+]c2c3ccccc3[n+](C)c3ccccc23)CC1

>  <Energy>  (29) 
128.78312250266256

>  <Genealogy>  (29) 
CCN(C)CCOCCN1CCN(CC[NH2+]c2c3ccccc3[n+](C)c3ccccc23)CC1 (protonated)
CCN(C)CCOCCN1CCN(CC[NH2+]c2c3ccccc3[n+](C)c3ccccc23)CC1 (3D coordinates assigned)
CCN(C)CCOCCN1CCN(CC[NH2+]c2c3ccccc3[n+](C)c3ccccc23)CC1 (nonaromatic ring conformer: 128.78312250266256 kcal/mol)

>  <smiles>  (29) 
CCN(C)CCOCCN1CCN(CCNc2c3ccccc3[n+](C)c3ccccc23)CC1

>  <score_type>  (29) 
oracle

>  <origin>  (29) 
adg

>  <m_score__min__energy>  (29) 
-5.8200000000000003

>  <m_primary>  (29) 
energy

$$$$
