0:0
     RDKit          3D

 58 62  0  0  1  0  0  0  0  0999 V2000
   55.5230   29.7240   43.3770 Cl  0  0  0  0  0  0  0  0  0  0  0  0
   56.7500   30.3630   44.4360 C   0  0  0  0  0  0  0  0  0  0  0  0
   56.7390   31.6900   44.8160 C   0  0  0  0  0  0  0  0  0  0  0  0
   57.6770   32.2550   45.6470 C   0  0  0  0  0  0  0  0  0  0  0  0
   57.7110   33.6040   46.0410 N   0  0  0  0  0  0  0  0  0  0  0  0
   58.6880   34.5880   45.7240 C   0  0  0  0  0  0  0  0  0  0  0  0
   59.9280   34.3610   46.4830 C   0  0  0  0  0  0  0  0  0  0  0  0
   61.1700   33.9120   46.1430 C   0  0  0  0  0  0  0  0  0  0  0  0
   61.9780   33.8750   47.2390 N   0  0  0  0  0  0  0  0  0  0  0  0
   63.3480   33.4630   47.2910 C   0  0  0  0  0  0  0  0  0  0  0  0
   63.4960   31.9670   47.4890 C   0  0  0  0  0  0  0  0  0  0  0  0
   63.1320   31.5460   48.8840 C   0  0  0  0  0  0  0  0  0  0  0  0
   63.8470   32.4690   49.8180 C   0  0  0  0  0  0  0  0  0  0  0  0
   63.1280   33.3670   50.6130 C   0  0  0  0  0  0  0  0  0  0  0  0
   63.7910   34.2340   51.4870 C   0  0  0  0  0  0  0  0  0  0  0  0
   65.1690   34.1880   51.5540 C   0  0  0  0  0  0  0  0  0  0  0  0
   65.9010   33.3020   50.7710 C   0  0  0  0  0  0  0  0  0  0  0  0
   65.2330   32.4410   49.9010 C   0  0  0  0  0  0  0  0  0  0  0  0
   61.2070   34.3070   48.2280 N   0  0  0  0  0  0  0  0  0  0  0  0
   60.0000   34.6010   47.8260 N   0  0  0  0  0  0  0  0  0  0  0  0
   58.6730   31.3740   46.1000 C   0  0  0  0  0  0  0  0  0  0  0  0
   58.6900   30.0480   45.7250 C   0  0  0  0  0  0  0  0  0  0  0  0
   59.7090   29.2400   46.2150 C   0  0  0  0  0  0  0  0  0  0  0  0
   60.6110   29.7270   46.9980 N   0  0  0  0  0  0  0  0  0  0  0  0
   60.3300   29.8960   48.3860 C   0  0  0  0  0  0  0  0  0  0  0  0
   60.3820   28.7880   49.2060 C   0  0  0  0  0  0  0  0  0  0  0  0
   60.1060   28.9590   50.5650 C   0  0  0  0  0  0  0  0  0  0  0  0
   59.7890   30.2330   51.0440 C   0  0  0  0  0  0  0  0  0  0  0  0
   59.7430   31.3260   50.2030 C   0  0  0  0  0  0  0  0  0  0  0  0
   59.3100   33.0480   50.8790 Br  0  0  0  0  0  0  0  0  0  0  0  0
   60.0180   31.1610   48.8460 C   0  0  0  0  0  0  0  0  0  0  0  0
   59.7170   27.9480   45.8440 N   0  0  0  0  0  0  0  0  0  0  0  0
   58.7570   27.4510   45.0150 C   0  0  0  0  0  0  0  0  0  0  0  0
   57.7630   28.2330   44.5360 N   0  0  0  0  0  0  0  0  0  0  0  0
   57.7260   29.5310   44.8880 C   0  0  0  0  0  0  0  0  0  0  0  0
   55.9331   32.3325   44.4316 H   0  0  0  0  0  0  0  0  0  0  0  0
   56.8980   33.9270   46.6570 H   0  0  0  0  0  0  0  0  0  0  0  0
   58.9108   34.5406   44.6478 H   0  0  0  0  0  0  0  0  0  0  0  0
   58.2891   35.5778   45.9908 H   0  0  0  0  0  0  0  0  0  0  0  0
   61.4760   33.6209   45.1273 H   0  0  0  0  0  0  0  0  0  0  0  0
   63.8373   33.7442   46.3468 H   0  0  0  0  0  0  0  0  0  0  0  0
   63.8154   33.9626   48.1524 H   0  0  0  0  0  0  0  0  0  0  0  0
   62.8369   31.4476   46.7778 H   0  0  0  0  0  0  0  0  0  0  0  0
   64.5505   31.7041   47.3187 H   0  0  0  0  0  0  0  0  0  0  0  0
   62.0449   31.6263   49.0316 H   0  0  0  0  0  0  0  0  0  0  0  0
   63.4204   30.5004   49.0671 H   0  0  0  0  0  0  0  0  0  0  0  0
   62.0301   33.3916   50.5502 H   0  0  0  0  0  0  0  0  0  0  0  0
   63.2240   34.9408   52.1107 H   0  0  0  0  0  0  0  0  0  0  0  0
   65.6984   34.8654   52.2402 H   0  0  0  0  0  0  0  0  0  0  0  0
   66.9988   33.2805   50.8375 H   0  0  0  0  0  0  0  0  0  0  0  0
   65.8055   31.7376   49.2786 H   0  0  0  0  0  0  0  0  0  0  0  0
   59.4588   31.7519   46.7706 H   0  0  0  0  0  0  0  0  0  0  0  0
   60.6339   27.7968   48.8010 H   0  0  0  0  0  0  0  0  0  0  0  0
   60.1379   28.0996   51.2509 H   0  0  0  0  0  0  0  0  0  0  0  0
   59.5716   30.3673   52.1139 H   0  0  0  0  0  0  0  0  0  0  0  0
   59.9873   32.0183   48.1575 H   0  0  0  0  0  0  0  0  0  0  0  0
   58.7911   26.3895   44.7287 H   0  0  0  0  0  0  0  0  0  0  0  0
   57.0260   27.8260   43.8930 H   0  0  0  0  0  0  0  0  0  0  0  0
  1  2  1  0
  2  3  2  0
  3  4  1  0
  4  5  1  0
  5  6  1  0
  6  7  1  0
  7  8  2  0
  8  9  1  0
  9 10  1  0
 10 11  1  0
 11 12  1  0
 12 13  1  0
 13 14  2  0
 14 15  1  0
 15 16  2  0
 16 17  1  0
 17 18  2  0
  9 19  1  0
 19 20  2  0
  4 21  2  0
 21 22  1  0
 22 23  1  0
 23 24  2  0
 24 25  1  0
 25 26  2  0
 26 27  1  0
 27 28  2  0
 28 29  1  0
 29 30  1  0
 29 31  2  0
 23 32  1  0
 32 33  2  0
 33 34  1  0
 34 35  1  0
 35  2  1  0
 20  7  1  0
 35 22  2  0
 18 13  1  0
 31 25  1  0
  3 36  1  0
  5 37  1  0
  6 38  1  0
  6 39  1  0
  8 40  1  0
 10 41  1  0
 10 42  1  0
 11 43  1  0
 11 44  1  0
 12 45  1  0
 12 46  1  0
 14 47  1  0
 15 48  1  0
 16 49  1  0
 17 50  1  0
 18 51  1  0
 21 52  1  0
 26 53  1  0
 27 54  1  0
 28 55  1  0
 31 56  1  0
 33 57  1  0
 34 58  1  0
M  END
>  <smiles>  (1) 
Clc1cc(NCc2cn(CCCc3ccccc3)nn2)cc2c(=Nc3cccc(Br)c3)nc[nH]c12

>  <score_type>  (1) 
oracle

>  <origin>  (1) 
adg

>  <m_score__min__energy>  (1) 
-10.24

>  <m_primary>  (1) 
energy

$$$$
1:0
     RDKit          3D

 36 38  0  0  0  0  0  0  0  0999 V2000
   60.0300   34.5480   48.7560 C   0  0  0  0  0  0  0  0  0  0  0  0
   59.3390   33.8430   47.6670 N   0  0  0  0  0  0  0  0  0  0  0  0
   58.8370   34.5870   46.6370 C   0  0  0  0  0  0  0  0  0  0  0  0
   58.1800   33.9830   45.5680 C   0  0  0  0  0  0  0  0  0  0  0  0
   58.0290   32.5970   45.5460 C   0  0  0  0  0  0  0  0  0  0  0  0
   57.3680   31.9730   44.4750 C   0  0  0  0  0  0  0  0  0  0  0  0
   57.2040   30.5860   44.4630 C   0  0  0  0  0  0  0  0  0  0  0  0
   56.3010   29.7430   43.0070 Br  0  0  0  0  0  0  0  0  0  0  0  0
   57.7010   29.8140   45.5160 C   0  0  0  0  0  0  0  0  0  0  0  0
   58.3620   30.4240   46.5840 C   0  0  0  0  0  0  0  0  0  0  0  0
   58.5320   31.8230   46.6150 C   0  0  0  0  0  0  0  0  0  0  0  0
   59.1690   32.4770   47.6960 C   0  0  0  0  0  0  0  0  0  0  0  0
   59.6170   31.7110   48.8270 N   0  0  0  0  0  0  0  0  0  0  0  0
   60.8330   30.9020   48.7670 C   0  0  0  0  0  0  0  0  0  0  0  0
   62.0210   31.7690   48.4500 C   0  0  0  0  0  0  0  0  0  0  0  0
   62.2590   32.1870   47.1300 C   0  0  0  0  0  0  0  0  0  0  0  0
   63.3190   33.0540   46.8460 C   0  0  0  0  0  0  0  0  0  0  0  0
   64.1430   33.5140   47.8770 C   0  0  0  0  0  0  0  0  0  0  0  0
   63.9070   33.1100   49.1940 C   0  0  0  0  0  0  0  0  0  0  0  0
   62.8480   32.2430   49.4820 C   0  0  0  0  0  0  0  0  0  0  0  0
   59.6645   34.1751   49.7242 H   0  0  0  0  0  0  0  0  0  0  0  0
   61.1127   34.3696   48.6794 H   0  0  0  0  0  0  0  0  0  0  0  0
   59.8299   35.6269   48.6794 H   0  0  0  0  0  0  0  0  0  0  0  0
   58.9537   35.6807   46.6523 H   0  0  0  0  0  0  0  0  0  0  0  0
   57.7824   34.5958   44.7456 H   0  0  0  0  0  0  0  0  0  0  0  0
   56.9784   32.5785   43.6434 H   0  0  0  0  0  0  0  0  0  0  0  0
   57.5711   28.7218   45.5037 H   0  0  0  0  0  0  0  0  0  0  0  0
   58.7530   29.8082   47.4074 H   0  0  0  0  0  0  0  0  0  0  0  0
   59.1850   31.8970   49.7600 H   0  0  0  0  0  0  0  0  0  0  0  0
   60.9908   30.4112   49.7387 H   0  0  0  0  0  0  0  0  0  0  0  0
   60.7210   30.1451   47.9767 H   0  0  0  0  0  0  0  0  0  0  0  0
   61.6093   31.8311   46.3169 H   0  0  0  0  0  0  0  0  0  0  0  0
   63.5044   33.3742   45.8101 H   0  0  0  0  0  0  0  0  0  0  0  0
   64.9776   34.1943   47.6518 H   0  0  0  0  0  0  0  0  0  0  0  0
   64.5549   33.4743   50.0049 H   0  0  0  0  0  0  0  0  0  0  0  0
   62.6620   31.9311   50.5203 H   0  0  0  0  0  0  0  0  0  0  0  0
  1  2  1  0
  2  3  2  0
  3  4  1  0
  4  5  2  0
  5  6  1  0
  6  7  2  0
  7  8  1  0
  7  9  1  0
  9 10  2  0
 10 11  1  0
 11 12  2  0
 12 13  1  0
 13 14  1  0
 14 15  1  0
 15 16  2  0
 16 17  1  0
 17 18  2  0
 18 19  1  0
 19 20  2  0
 12  2  1  0
 20 15  1  0
 11  5  1  0
  1 21  1  0
  1 22  1  0
  1 23  1  0
  3 24  1  0
  4 25  1  0
  6 26  1  0
  9 27  1  0
 10 28  1  0
 13 29  1  0
 14 30  1  0
 14 31  1  0
 16 32  1  0
 17 33  1  0
 18 34  1  0
 19 35  1  0
 20 36  1  0
M  CHG  1   2   1
M  END
>  <UniqueID>  (2) 
1

>  <SMILES>  (2) 
C[n+]1ccc2cc(Br)ccc2c1NCc1ccccc1

>  <Energy>  (2) 
46.84384878027125

>  <Genealogy>  (2) 
C[n+]1ccc2cc(Br)ccc2c1NCc1ccccc1 (3D coordinates assigned)
C[n+]1ccc2cc(Br)ccc2c1NCc1ccccc1 (optimized conformer: 46.84384878027125 kcal/mol)

>  <smiles>  (2) 
C[n+]1ccc2cc(Br)ccc2c1NCc1ccccc1

>  <score_type>  (2) 
oracle

>  <origin>  (2) 
adg

>  <m_score__min__energy>  (2) 
-5.9100000000000001

>  <m_primary>  (2) 
energy

$$$$
2:0
     RDKit          3D

 67 68  0  0  0  0  0  0  0  0999 V2000
   56.5900   23.4050   43.2870 C   0  0  0  0  0  0  0  0  0  0  0  0
   56.3250   23.6480   44.6650 O   0  0  0  0  0  0  0  0  0  0  0  0
   56.9210   24.6680   45.4220 C   0  0  0  0  0  0  0  0  0  0  0  0
   58.2990   24.6820   45.7040 C   0  0  0  0  0  0  0  0  0  0  0  0
   58.8570   25.7140   46.4600 C   0  0  0  0  0  0  0  0  0  0  0  0
   58.0510   26.7550   46.9400 C   0  0  0  0  0  0  0  0  0  0  0  0
   58.6470   27.8490   47.7860 C   0  0  0  0  0  0  0  0  0  0  0  0
   59.8010   28.5320   47.0480 C   0  0  0  0  0  0  0  0  0  0  0  0
   59.2680   29.5090   46.0890 N   0  0  0  0  0  0  0  0  0  0  0  0
   59.8330   29.3090   44.7450 C   0  0  0  0  0  0  0  0  0  0  0  0
   59.6080   27.8710   44.2560 C   0  0  0  0  0  0  0  0  0  0  0  0
   58.2680   27.6670   43.5200 C   0  0  0  0  0  0  0  0  0  0  0  0
   57.1630   28.4590   44.1060 N   0  0  0  0  0  0  0  0  0  0  0  0
   56.8970   29.6880   43.3360 C   0  0  0  0  0  0  0  0  0  0  0  0
   56.5660   30.8820   44.2470 C   0  0  0  0  0  0  0  0  0  0  0  0
   57.3840   32.1340   43.9050 C   0  0  0  0  0  0  0  0  0  0  0  0
   58.1360   32.6200   45.1160 C   0  0  0  0  0  0  0  0  0  0  0  0
   59.1930   33.5290   44.9730 C   0  0  0  0  0  0  0  0  0  0  0  0
   59.9140   33.9590   46.0900 C   0  0  0  0  0  0  0  0  0  0  0  0
   59.6000   33.4810   47.3800 C   0  0  0  0  0  0  0  0  0  0  0  0
   60.3460   33.9280   48.5430 N   0  0  0  0  0  0  0  0  0  0  0  0
   59.6710   34.1210   49.8320 C   0  0  0  0  0  0  0  0  0  0  0  0
   61.7860   34.1940   48.4490 C   0  0  0  0  0  0  0  0  0  0  0  0
   58.5440   32.5530   47.5090 C   0  0  0  0  0  0  0  0  0  0  0  0
   57.8260   32.1260   46.3890 C   0  0  0  0  0  0  0  0  0  0  0  0
   56.6730   26.7390   46.6730 C   0  0  0  0  0  0  0  0  0  0  0  0
   56.1030   25.7010   45.9100 C   0  0  0  0  0  0  0  0  0  0  0  0
   54.7300   25.6580   45.6180 O   0  0  0  0  0  0  0  0  0  0  0  0
   53.9450   24.4710   45.6080 C   0  0  0  0  0  0  0  0  0  0  0  0
   57.3978   22.6642   43.1940 H   0  0  0  0  0  0  0  0  0  0  0  0
   55.6814   23.0196   42.8013 H   0  0  0  0  0  0  0  0  0  0  0  0
   56.8954   24.3435   42.8013 H   0  0  0  0  0  0  0  0  0  0  0  0
   58.9417   23.8734   45.3258 H   0  0  0  0  0  0  0  0  0  0  0  0
   59.9347   25.7102   46.6801 H   0  0  0  0  0  0  0  0  0  0  0  0
   57.8707   28.5948   48.0122 H   0  0  0  0  0  0  0  0  0  0  0  0
   59.0329   27.4075   48.7167 H   0  0  0  0  0  0  0  0  0  0  0  0
   60.4454   29.0478   47.7751 H   0  0  0  0  0  0  0  0  0  0  0  0
   60.3864   27.7737   46.5073 H   0  0  0  0  0  0  0  0  0  0  0  0
   59.5580   30.4610   46.4170 H   0  0  0  0  0  0  0  0  0  0  0  0
   59.3488   30.0058   44.0450 H   0  0  0  0  0  0  0  0  0  0  0  0
   60.9161   29.4955   44.7914 H   0  0  0  0  0  0  0  0  0  0  0  0
   60.4251   27.6064   43.5687 H   0  0  0  0  0  0  0  0  0  0  0  0
   59.5846   27.2287   45.1487 H   0  0  0  0  0  0  0  0  0  0  0  0
   58.3955   27.9662   42.4692 H   0  0  0  0  0  0  0  0  0  0  0  0
   57.9984   26.6046   43.6131 H   0  0  0  0  0  0  0  0  0  0  0  0
   56.2900   27.8860   44.1830 H   0  0  0  0  0  0  0  0  0  0  0  0
   57.4420   28.7360   45.0760 H   0  0  0  0  0  0  0  0  0  0  0  0
   57.7886   29.9331   42.7402 H   0  0  0  0  0  0  0  0  0  0  0  0
   56.0250   29.5018   42.6919 H   0  0  0  0  0  0  0  0  0  0  0  0
   55.4974   31.1201   44.1403 H   0  0  0  0  0  0  0  0  0  0  0  0
   56.8180   30.5925   45.2779 H   0  0  0  0  0  0  0  0  0  0  0  0
   58.1011   31.8910   43.1070 H   0  0  0  0  0  0  0  0  0  0  0  0
   56.6983   32.9264   43.5704 H   0  0  0  0  0  0  0  0  0  0  0  0
   59.4570   33.9067   43.9742 H   0  0  0  0  0  0  0  0  0  0  0  0
   60.7361   34.6786   45.9622 H   0  0  0  0  0  0  0  0  0  0  0  0
   60.3781   33.9188   50.6500 H   0  0  0  0  0  0  0  0  0  0  0  0
   59.3114   35.1579   49.9060 H   0  0  0  0  0  0  0  0  0  0  0  0
   58.8176   33.4309   49.9060 H   0  0  0  0  0  0  0  0  0  0  0  0
   62.2112   34.2725   49.4605 H   0  0  0  0  0  0  0  0  0  0  0  0
   62.2763   33.3712   47.9080 H   0  0  0  0  0  0  0  0  0  0  0  0
   61.9500   35.1376   47.9080 H   0  0  0  0  0  0  0  0  0  0  0  0
   58.2833   32.1613   48.5033 H   0  0  0  0  0  0  0  0  0  0  0  0
   57.0114   31.3965   46.5082 H   0  0  0  0  0  0  0  0  0  0  0  0
   56.0327   27.5440   47.0629 H   0  0  0  0  0  0  0  0  0  0  0  0
   53.7387   24.1591   46.6425 H   0  0  0  0  0  0  0  0  0  0  0  0
   52.9956   24.6636   45.0869 H   0  0  0  0  0  0  0  0  0  0  0  0
   54.4939   23.6728   45.0869 H   0  0  0  0  0  0  0  0  0  0  0  0
  1  2  1  0
  2  3  1  0
  3  4  2  0
  4  5  1  0
  5  6  2  0
  6  7  1  0
  7  8  1  0
  8  9  1  0
  9 10  1  0
 10 11  1  0
 11 12  1  0
 12 13  1  0
 13 14  1  0
 14 15  1  0
 15 16  1  0
 16 17  1  0
 17 18  2  0
 18 19  1  0
 19 20  2  0
 20 21  1  0
 21 22  1  0
 21 23  1  0
 20 24  1  0
 24 25  2  0
  6 26  1  0
 26 27  2  0
 27 28  1  0
 28 29  1  0
 27  3  1  0
 25 17  1  0
  1 30  1  0
  1 31  1  0
  1 32  1  0
  4 33  1  0
  5 34  1  0
  7 35  1  0
  7 36  1  0
  8 37  1  0
  8 38  1  0
  9 39  1  0
 10 40  1  0
 10 41  1  0
 11 42  1  0
 11 43  1  0
 12 44  1  0
 12 45  1  0
 13 46  1  0
 13 47  1  0
 14 48  1  0
 14 49  1  0
 15 50  1  0
 15 51  1  0
 16 52  1  0
 16 53  1  0
 18 54  1  0
 19 55  1  0
 22 56  1  0
 22 57  1  0
 22 58  1  0
 23 59  1  0
 23 60  1  0
 23 61  1  0
 24 62  1  0
 25 63  1  0
 26 64  1  0
 29 65  1  0
 29 66  1  0
 29 67  1  0
M  CHG  1  13   1
M  END
>  <UniqueID>  (3) 
2

>  <SMILES>  (3) 
COc1ccc(CCNCCC[NH2+]CCCc2ccc(N(C)C)cc2)cc1OC

>  <Energy>  (3) 
58.2023755245909

>  <Genealogy>  (3) 
COc1ccc(CCNCCC[NH2+]CCCc2ccc(N(C)C)cc2)cc1OC (protonated)
COc1ccc(CCNCCC[NH2+]CCCc2ccc(N(C)C)cc2)cc1OC (3D coordinates assigned)
COc1ccc(CCNCCC[NH2+]CCCc2ccc(N(C)C)cc2)cc1OC (optimized conformer: 58.2023755245909 kcal/mol)

>  <smiles>  (3) 
COc1ccc(CCNCCCNCCCc2ccc(N(C)C)cc2)cc1OC

>  <score_type>  (3) 
oracle

>  <origin>  (3) 
adg

>  <m_score__min__energy>  (3) 
-6.29

>  <m_primary>  (3) 
energy

$$$$
3:0
     RDKit          3D

 29 31  0  0  0  0  0  0  0  0999 V2000
   61.0890   31.7950   47.1080 C   0  0  0  0  0  0  0  0  0  0  0  0
   59.8580   32.4800   46.5680 C   0  0  0  0  0  0  0  0  0  0  0  0
   59.7830   33.8810   46.6870 C   0  0  0  0  0  0  0  0  0  0  0  0
   58.6800   34.5820   46.2040 C   0  0  0  0  0  0  0  0  0  0  0  0
   57.6310   33.9020   45.5940 C   0  0  0  0  0  0  0  0  0  0  0  0
   57.6760   32.5120   45.4630 C   0  0  0  0  0  0  0  0  0  0  0  0
   56.6420   31.8710   44.8720 N   0  0  0  0  0  0  0  0  0  0  0  0
   56.6450   30.5500   44.7230 N   0  0  0  0  0  0  0  0  0  0  0  0
   57.6600   29.7950   45.1450 N   0  0  0  0  0  0  0  0  0  0  0  0
   57.5750   28.3730   44.9330 C   0  0  0  0  0  0  0  0  0  0  0  0
   57.0690   27.5230   45.9340 C   0  0  0  0  0  0  0  0  0  0  0  0
   57.0130   26.1430   45.7260 C   0  0  0  0  0  0  0  0  0  0  0  0
   57.4700   25.5950   44.5230 C   0  0  0  0  0  0  0  0  0  0  0  0
   57.3930   23.7070   44.2410 Br  0  0  0  0  0  0  0  0  0  0  0  0
   57.9890   26.4300   43.5290 C   0  0  0  0  0  0  0  0  0  0  0  0
   58.0470   27.8120   43.7350 C   0  0  0  0  0  0  0  0  0  0  0  0
   58.7330   30.3690   45.7770 C   0  0  0  0  0  0  0  0  0  0  0  0
   59.6550   29.6340   46.2240 O   0  0  0  0  0  0  0  0  0  0  0  0
   58.7810   31.7750   45.9460 C   0  0  0  0  0  0  0  0  0  0  0  0
   61.0638   31.8090   48.2076 H   0  0  0  0  0  0  0  0  0  0  0  0
   61.1136   30.7535   46.7550 H   0  0  0  0  0  0  0  0  0  0  0  0
   61.9871   32.3231   46.7550 H   0  0  0  0  0  0  0  0  0  0  0  0
   60.6064   34.4295   47.1678 H   0  0  0  0  0  0  0  0  0  0  0  0
   58.6386   35.6765   46.3054 H   0  0  0  0  0  0  0  0  0  0  0  0
   56.7632   34.4607   45.2135 H   0  0  0  0  0  0  0  0  0  0  0  0
   56.7157   27.9477   46.8852 H   0  0  0  0  0  0  0  0  0  0  0  0
   56.6086   25.4858   46.5099 H   0  0  0  0  0  0  0  0  0  0  0  0
   58.3520   25.9996   42.5841 H   0  0  0  0  0  0  0  0  0  0  0  0
   58.4650   28.4639   42.9538 H   0  0  0  0  0  0  0  0  0  0  0  0
  1  2  1  0
  2  3  2  0
  3  4  1  0
  4  5  2  0
  5  6  1  0
  6  7  1  0
  7  8  2  0
  8  9  1  0
  9 10  1  0
 10 11  2  0
 11 12  1  0
 12 13  2  0
 13 14  1  0
 13 15  1  0
 15 16  2  0
  9 17  1  0
 17 18  2  0
 17 19  1  0
 19  2  1  0
 19  6  2  0
 16 10  1  0
  1 20  1  0
  1 21  1  0
  1 22  1  0
  3 23  1  0
  4 24  1  0
  5 25  1  0
 11 26  1  0
 12 27  1  0
 15 28  1  0
 16 29  1  0
M  END
>  <UniqueID>  (4) 
3

>  <SMILES>  (4) 
Cc1cccc2nnn(-c3ccc(Br)cc3)c(=O)c12

>  <Energy>  (4) 
47.574116133672014

>  <Genealogy>  (4) 
Cc1cccc2nnn(-c3ccc(Br)cc3)c(=O)c12 (3D coordinates assigned)
Cc1cccc2nnn(-c3ccc(Br)cc3)c(=O)c12 (optimized conformer: 47.574116133672014 kcal/mol)

>  <smiles>  (4) 
Cc1cccc2nnn(-c3ccc(Br)cc3)c(=O)c12

>  <score_type>  (4) 
oracle

>  <origin>  (4) 
adg

>  <m_score__min__energy>  (4) 
-8.0899999999999999

>  <m_primary>  (4) 
energy

$$$$
4:0
     RDKit          3D

 44 45  0  0  0  0  0  0  0  0999 V2000
   60.6510   28.9430   44.8750 C   0  0  0  0  0  0  0  0  0  0  0  0
   59.3710   28.3830   45.4880 C   0  0  0  0  0  0  0  0  0  0  0  0
   58.1950   29.0610   44.9360 N   0  0  0  0  0  0  0  0  0  0  0  0
   57.4140   28.5930   43.9480 C   0  0  0  0  0  0  0  0  0  0  0  0
   56.4400   29.5280   43.6870 C   0  0  0  0  0  0  0  0  0  0  0  0
   56.5990   30.5870   44.5070 N   0  0  0  0  0  0  0  0  0  0  0  0
   57.6730   30.2680   45.2620 C   0  0  0  0  0  0  0  0  0  0  0  0
   58.2170   31.1950   46.3110 C   0  0  0  0  0  0  0  0  0  0  0  0
   57.4180   32.4250   46.3610 N   0  0  0  0  0  0  0  0  0  0  0  0
   58.0680   33.4910   45.5860 C   0  0  0  0  0  0  0  0  0  0  0  0
   58.7110   34.5480   46.5180 C   0  0  0  0  0  0  0  0  0  0  0  0
   58.8580   34.0030   47.9630 C   0  0  0  0  0  0  0  0  0  0  0  0
   60.2600   33.4360   48.2620 C   0  0  0  0  0  0  0  0  0  0  0  0
   60.8770   32.9040   47.0330 N   0  0  0  0  0  0  0  0  0  0  0  0
   62.0250   31.9940   47.2580 C   0  0  0  0  0  0  0  0  0  0  0  0
   63.3730   32.6830   47.5680 C   0  0  0  0  0  0  0  0  0  0  0  0
   63.1920   33.9340   48.1220 F   0  0  0  0  0  0  0  0  0  0  0  0
   64.0820   32.8270   46.3890 F   0  0  0  0  0  0  0  0  0  0  0  0
   64.1280   31.9080   48.4300 F   0  0  0  0  0  0  0  0  0  0  0  0
   61.1410   33.9390   46.0060 C   0  0  0  0  0  0  0  0  0  0  0  0
   60.0760   35.0540   46.0090 C   0  0  0  0  0  0  0  0  0  0  0  0
   61.3404   29.2446   45.6774 H   0  0  0  0  0  0  0  0  0  0  0  0
   61.1277   28.1712   44.2528 H   0  0  0  0  0  0  0  0  0  0  0  0
   60.4078   29.8169   44.2528 H   0  0  0  0  0  0  0  0  0  0  0  0
   59.3050   27.3074   45.2672 H   0  0  0  0  0  0  0  0  0  0  0  0
   59.3972   28.5474   46.5753 H   0  0  0  0  0  0  0  0  0  0  0  0
   57.5333   27.6270   43.4355 H   0  0  0  0  0  0  0  0  0  0  0  0
   55.6520   29.4276   42.9261 H   0  0  0  0  0  0  0  0  0  0  0  0
   58.1799   30.6970   47.2911 H   0  0  0  0  0  0  0  0  0  0  0  0
   59.2569   31.4514   46.0604 H   0  0  0  0  0  0  0  0  0  0  0  0
   56.5050   32.2160   45.8970 H   0  0  0  0  0  0  0  0  0  0  0  0
   58.8503   33.0480   44.9522 H   0  0  0  0  0  0  0  0  0  0  0  0
   57.3050   33.9883   44.9692 H   0  0  0  0  0  0  0  0  0  0  0  0
   58.0236   35.4068   46.5184 H   0  0  0  0  0  0  0  0  0  0  0  0
   58.6557   34.8231   48.6676 H   0  0  0  0  0  0  0  0  0  0  0  0
   58.1419   33.1753   48.0731 H   0  0  0  0  0  0  0  0  0  0  0  0
   60.8951   34.2372   48.6679 H   0  0  0  0  0  0  0  0  0  0  0  0
   60.1641   32.6196   48.9930 H   0  0  0  0  0  0  0  0  0  0  0  0
   61.7766   31.3394   48.1064 H   0  0  0  0  0  0  0  0  0  0  0  0
   62.1731   31.4566   46.3097 H   0  0  0  0  0  0  0  0  0  0  0  0
   62.1249   34.3896   46.2031 H   0  0  0  0  0  0  0  0  0  0  0  0
   61.1121   33.4498   45.0212 H   0  0  0  0  0  0  0  0  0  0  0  0
   60.4182   35.8702   46.6622 H   0  0  0  0  0  0  0  0  0  0  0  0
   59.9449   35.4013   44.9735 H   0  0  0  0  0  0  0  0  0  0  0  0
  1  2  1  0
  2  3  1  0
  3  4  1  0
  4  5  2  0
  5  6  1  0
  6  7  2  0
  7  8  1  0
  8  9  1  0
  9 10  1  0
 10 11  1  0
 11 12  1  0
 12 13  1  0
 13 14  1  0
 14 15  1  0
 15 16  1  0
 16 17  1  0
 16 18  1  0
 16 19  1  0
 14 20  1  0
 20 21  1  0
  7  3  1  0
 21 11  1  0
  1 22  1  0
  1 23  1  0
  1 24  1  0
  2 25  1  0
  2 26  1  0
  4 27  1  0
  5 28  1  0
  8 29  1  0
  8 30  1  0
  9 31  1  0
 10 32  1  0
 10 33  1  0
 11 34  1  0
 12 35  1  0
 12 36  1  0
 13 37  1  0
 13 38  1  0
 15 39  1  0
 15 40  1  0
 20 41  1  0
 20 42  1  0
 21 43  1  0
 21 44  1  0
M  END
>  <UniqueID>  (5) 
4

>  <SMILES>  (5) 
CCn1ccnc1CNCC1CCN(CC(F)(F)F)CC1

>  <Energy>  (5) 
76.53472621050136

>  <Genealogy>  (5) 
CCn1ccnc1CNCC1CCN(CC(F)(F)F)CC1 (3D coordinates assigned)
CCn1ccnc1CNCC1CCN(CC(F)(F)F)CC1 (nonaromatic ring conformer: 76.53472621050136 kcal/mol)

>  <smiles>  (5) 
CCn1ccnc1CNCC1CCN(CC(F)(F)F)CC1

>  <score_type>  (5) 
oracle

>  <origin>  (5) 
adg

>  <m_score__min__energy>  (5) 
-6.5099999999999998

>  <m_primary>  (5) 
energy

$$$$
5:0
     RDKit          3D

 41 42  0  0  0  0  0  0  0  0999 V2000
   56.9580   30.8800   43.4360 C   0  0  0  0  0  0  0  0  0  0  0  0
   56.9790   31.1880   44.8790 N   0  0  0  0  0  0  0  0  0  0  0  0
   57.9060   30.2660   45.5540 C   0  0  0  0  0  0  0  0  0  0  0  0
   57.3990   32.5850   45.1260 C   0  0  0  0  0  0  0  0  0  0  0  0
   58.7640   32.6690   45.8200 C   0  0  0  0  0  0  0  0  0  0  0  0
   58.8060   33.9830   47.0930 S   0  0  0  0  0  0  0  0  0  0  0  0
   60.5780   33.8590   47.4110 C   0  0  0  0  0  0  0  0  0  0  0  0
   61.4510   33.8790   46.3180 C   0  0  0  0  0  0  0  0  0  0  0  0
   62.8280   33.8000   46.5130 C   0  0  0  0  0  0  0  0  0  0  0  0
   63.3470   33.7150   47.8040 C   0  0  0  0  0  0  0  0  0  0  0  0
   62.4970   33.7140   48.9250 C   0  0  0  0  0  0  0  0  0  0  0  0
   63.0810   33.6360   50.2490 N   0  0  0  0  0  0  0  0  0  0  0  0
   63.6160   32.2940   50.5290 C   0  0  0  0  0  0  0  0  0  0  0  0
   65.1130   32.2940   50.6260 C   0  0  0  0  0  0  0  0  0  0  0  0
   65.9060   31.1940   50.8850 C   0  0  0  0  0  0  0  0  0  0  0  0
   67.2020   31.6630   50.8880 C   0  0  0  0  0  0  0  0  0  0  0  0
   67.1150   33.0140   50.6270 C   0  0  0  0  0  0  0  0  0  0  0  0
   68.5860   34.2190   50.5140 Br  0  0  0  0  0  0  0  0  0  0  0  0
   65.8590   33.3630   50.4710 O   0  0  0  0  0  0  0  0  0  0  0  0
   61.0930   33.7870   48.7230 C   0  0  0  0  0  0  0  0  0  0  0  0
   60.1880   33.8390   49.8480 C   0  0  0  0  0  0  0  0  0  0  0  0
   59.4630   33.8720   50.7500 N   0  0  0  0  0  0  0  0  0  0  0  0
   56.8838   29.7917   43.2944 H   0  0  0  0  0  0  0  0  0  0  0  0
   56.0912   31.3705   42.9690 H   0  0  0  0  0  0  0  0  0  0  0  0
   57.8833   31.2483   42.9690 H   0  0  0  0  0  0  0  0  0  0  0  0
   57.7997   30.3717   46.6437 H   0  0  0  0  0  0  0  0  0  0  0  0
   57.6723   29.2317   45.2614 H   0  0  0  0  0  0  0  0  0  0  0  0
   58.9390   30.5053   45.2614 H   0  0  0  0  0  0  0  0  0  0  0  0
   57.4593   33.1118   44.1622 H   0  0  0  0  0  0  0  0  0  0  0  0
   56.6547   33.0473   45.7910 H   0  0  0  0  0  0  0  0  0  0  0  0
   58.9785   31.7027   46.2998 H   0  0  0  0  0  0  0  0  0  0  0  0
   59.5188   32.9107   45.0572 H   0  0  0  0  0  0  0  0  0  0  0  0
   61.0473   33.9576   45.2978 H   0  0  0  0  0  0  0  0  0  0  0  0
   63.5066   33.8047   45.6473 H   0  0  0  0  0  0  0  0  0  0  0  0
   64.4355   33.6478   47.9481 H   0  0  0  0  0  0  0  0  0  0  0  0
   63.8730   34.3190   50.3030 H   0  0  0  0  0  0  0  0  0  0  0  0
   62.4060   33.9150   50.9970 H   0  0  0  0  0  0  0  0  0  0  0  0
   63.1985   31.9371   51.4821 H   0  0  0  0  0  0  0  0  0  0  0  0
   63.3298   31.6340   49.6968 H   0  0  0  0  0  0  0  0  0  0  0  0
   65.5730   30.1593   51.0537 H   0  0  0  0  0  0  0  0  0  0  0  0
   68.1178   31.0792   51.0628 H   0  0  0  0  0  0  0  0  0  0  0  0
  1  2  1  0
  2  3  1  0
  2  4  1  0
  4  5  1  0
  5  6  1  0
  6  7  1  0
  7  8  2  0
  8  9  1  0
  9 10  2  0
 10 11  1  0
 11 12  1  0
 12 13  1  0
 13 14  1  0
 14 15  2  0
 15 16  1  0
 16 17  2  0
 17 18  1  0
 17 19  1  0
 11 20  2  0
 20 21  1  0
 21 22  3  0
 20  7  1  0
 19 14  1  0
  1 23  1  0
  1 24  1  0
  1 25  1  0
  3 26  1  0
  3 27  1  0
  3 28  1  0
  4 29  1  0
  4 30  1  0
  5 31  1  0
  5 32  1  0
  8 33  1  0
  9 34  1  0
 10 35  1  0
 12 36  1  0
 12 37  1  0
 13 38  1  0
 13 39  1  0
 15 40  1  0
 16 41  1  0
M  CHG  1  12   1
M  END
>  <UniqueID>  (6) 
5

>  <SMILES>  (6) 
CN(C)CCSc1cccc([NH2+]Cc2ccc(Br)o2)c1C#N

>  <Energy>  (6) 
60.83360840587705

>  <Genealogy>  (6) 
CN(C)CCSc1cccc([NH2+]Cc2ccc(Br)o2)c1C#N (protonated)
CN(C)CCSc1cccc([NH2+]Cc2ccc(Br)o2)c1C#N (3D coordinates assigned)
CN(C)CCSc1cccc([NH2+]Cc2ccc(Br)o2)c1C#N (optimized conformer: 60.83360840587705 kcal/mol)

>  <smiles>  (6) 
CN(C)CCSc1cccc(NCc2ccc(Br)o2)c1C#N

>  <score_type>  (6) 
oracle

>  <origin>  (6) 
adg

>  <m_score__min__energy>  (6) 
-5.6100000000000003

>  <m_primary>  (6) 
energy

$$$$
6:0
     RDKit          3D

 51 53  0  0  1  0  0  0  0  0999 V2000
   55.8330   29.7180   43.9930 C   0  0  0  0  0  0  0  0  0  0  0  0
   56.6930   30.8300   44.4960 C   0  0  0  0  0  0  0  0  0  0  0  0
   57.4300   31.5590   43.5540 N   0  0  0  0  0  0  0  0  0  0  0  0
   57.1280   31.4370   42.1850 C   0  0  0  0  0  0  0  0  0  0  0  0
   58.0200   32.3350   41.3450 C   0  0  0  0  0  0  0  0  0  0  0  0
   58.2220   32.6590   43.9810 C   0  0  0  0  0  0  0  0  0  0  0  0
   57.4360   33.7910   44.5320 C   0  0  0  0  0  0  0  0  0  0  0  0
   57.3560   33.8760   46.0040 C   0  0  0  0  0  0  0  0  0  0  0  0
   58.5220   34.4950   46.6990 C   0  0  0  0  0  0  0  0  0  0  0  0
   59.1660   33.6190   47.5970 N   0  0  0  0  0  0  0  0  0  0  0  0
   59.8300   32.5840   47.3190 C   0  0  0  0  0  0  0  0  0  0  0  0
   59.2120   31.4890   46.8240 N   0  0  0  0  0  0  0  0  0  0  0  0
   59.9940   30.4320   46.5660 C   0  0  0  0  0  0  0  0  0  0  0  0
   59.3870   29.2030   46.0360 C   0  0  0  0  0  0  0  0  0  0  0  0
   58.7280   28.3020   46.8850 C   0  0  0  0  0  0  0  0  0  0  0  0
   58.1620   27.1570   46.3570 C   0  0  0  0  0  0  0  0  0  0  0  0
   58.2120   26.8520   45.0160 C   0  0  0  0  0  0  0  0  0  0  0  0
   58.8580   27.7390   44.1920 C   0  0  0  0  0  0  0  0  0  0  0  0
   59.4350   28.8950   44.7030 C   0  0  0  0  0  0  0  0  0  0  0  0
   61.3160   30.3940   46.7620 N   0  0  0  0  0  0  0  0  0  0  0  0
   61.9960   31.4830   47.2650 C   0  0  0  0  0  0  0  0  0  0  0  0
   63.3040   31.5860   47.5100 C   0  0  0  0  0  0  0  0  0  0  0  0
   63.7900   32.7580   48.0130 C   0  0  0  0  0  0  0  0  0  0  0  0
   62.2530   33.8340   48.1580 S   0  0  0  0  0  0  0  0  0  0  0  0
   61.1780   32.5640   47.5260 C   0  0  0  0  0  0  0  0  0  0  0  0
   55.4081   29.1685   44.8459 H   0  0  0  0  0  0  0  0  0  0  0  0
   55.0182   30.1326   43.3812 H   0  0  0  0  0  0  0  0  0  0  0  0
   56.4391   29.0336   43.3812 H   0  0  0  0  0  0  0  0  0  0  0  0
   56.0379   31.5402   45.0219 H   0  0  0  0  0  0  0  0  0  0  0  0
   57.4514   30.3350   45.1204 H   0  0  0  0  0  0  0  0  0  0  0  0
   57.2776   30.3919   41.8760 H   0  0  0  0  0  0  0  0  0  0  0  0
   56.0821   31.7406   42.0300 H   0  0  0  0  0  0  0  0  0  0  0  0
   58.6394   32.9586   42.0064 H   0  0  0  0  0  0  0  0  0  0  0  0
   58.6704   31.7154   40.7102 H   0  0  0  0  0  0  0  0  0  0  0  0
   57.3960   32.9813   40.7102 H   0  0  0  0  0  0  0  0  0  0  0  0
   58.9129   32.3058   44.7606 H   0  0  0  0  0  0  0  0  0  0  0  0
   58.7457   33.0385   43.0912 H   0  0  0  0  0  0  0  0  0  0  0  0
   57.8902   34.7238   44.1665 H   0  0  0  0  0  0  0  0  0  0  0  0
   56.4035   33.6249   44.1910 H   0  0  0  0  0  0  0  0  0  0  0  0
   56.4637   34.4675   46.2567 H   0  0  0  0  0  0  0  0  0  0  0  0
   57.3274   32.8338   46.3548 H   0  0  0  0  0  0  0  0  0  0  0  0
   59.2511   34.8149   45.9401 H   0  0  0  0  0  0  0  0  0  0  0  0
   58.1383   35.3410   47.2881 H   0  0  0  0  0  0  0  0  0  0  0  0
   58.2090   31.5400   46.6780 H   0  0  0  0  0  0  0  0  0  0  0  0
   58.6620   28.5053   47.9640 H   0  0  0  0  0  0  0  0  0  0  0  0
   57.6501   26.4603   47.0371 H   0  0  0  0  0  0  0  0  0  0  0  0
   57.7526   25.9341   44.6205 H   0  0  0  0  0  0  0  0  0  0  0  0
   58.9198   27.5322   43.1134 H   0  0  0  0  0  0  0  0  0  0  0  0
   59.9464   29.5843   44.0150 H   0  0  0  0  0  0  0  0  0  0  0  0
   63.9788   30.7407   47.3099 H   0  0  0  0  0  0  0  0  0  0  0  0
   64.8287   33.0121   48.2711 H   0  0  0  0  0  0  0  0  0  0  0  0
  1  2  1  0
  2  3  1  0
  3  4  1  0
  4  5  1  0
  3  6  1  0
  6  7  1  0
  7  8  1  0
  8  9  1  0
  9 10  1  0
 10 11  2  0
 11 12  1  0
 12 13  1  0
 13 14  1  0
 14 15  2  0
 15 16  1  0
 16 17  2  0
 17 18  1  0
 18 19  2  0
 13 20  2  0
 20 21  1  0
 21 22  1  0
 22 23  2  0
 23 24  1  0
 24 25  1  0
 25 11  1  0
 19 14  1  0
 25 21  2  0
  1 26  1  0
  1 27  1  0
  1 28  1  0
  2 29  1  0
  2 30  1  0
  4 31  1  0
  4 32  1  0
  5 33  1  0
  5 34  1  0
  5 35  1  0
  6 36  1  0
  6 37  1  0
  7 38  1  0
  7 39  1  0
  8 40  1  0
  8 41  1  0
  9 42  1  0
  9 43  1  0
 12 44  1  0
 15 45  1  0
 16 46  1  0
 17 47  1  0
 18 48  1  0
 19 49  1  0
 22 50  1  0
 23 51  1  0
M  END
>  <smiles>  (7) 
CCN(CC)CCCCN=c1[nH]c(-c2ccccc2)nc2ccsc12

>  <score_type>  (7) 
oracle

>  <origin>  (7) 
adg

>  <m_score__min__energy>  (7) 
-7.6100000000000003

>  <m_primary>  (7) 
energy

$$$$
7:0
     RDKit          3D

 41 43  0  0  0  0  0  0  0  0999 V2000
   58.6108   23.9741   46.4190 H   0  0  0  0  0  0  0  0  0  0  0  0
   58.3900   25.0150   46.1400 C   0  0  0  0  0  0  0  0  0  0  0  0
   58.0490   25.3260   44.8280 C   0  0  0  0  0  0  0  0  0  0  0  0
   58.0009   24.5301   44.0702 H   0  0  0  0  0  0  0  0  0  0  0  0
   57.7680   26.6440   44.4710 C   0  0  0  0  0  0  0  0  0  0  0  0
   57.4993   26.8778   43.4303 H   0  0  0  0  0  0  0  0  0  0  0  0
   57.8230   27.6820   45.4240 C   0  0  0  0  0  0  0  0  0  0  0  0
   57.5120   29.0760   44.9850 C   0  0  0  0  0  0  0  0  0  0  0  0
   56.3400   29.5930   45.1310 N   0  0  0  0  0  0  0  0  0  0  0  0
   56.3210   30.8740   44.6490 O   0  0  0  0  0  0  0  0  0  0  0  0
   57.5690   31.2850   44.1150 C   0  0  2  0  0  0  0  0  0  0  0  0
   58.0800   32.4970   44.8560 C   0  0  0  0  0  0  0  0  0  0  0  0
   58.1810   32.6590   46.5330 S   0  0  0  0  0  0  0  0  0  0  0  0
   58.7630   34.2310   46.4430 C   0  0  0  0  0  0  0  0  0  0  0  0
   59.0610   34.9440   47.4900 N   0  0  0  0  0  0  0  0  0  0  0  0
   60.0350   34.5820   48.5190 C   0  0  0  0  0  0  0  0  0  0  0  0
   59.5484   33.9369   49.2654 H   0  0  0  0  0  0  0  0  0  0  0  0
   60.4063   35.5026   48.9930 H   0  0  0  0  0  0  0  0  0  0  0  0
   61.2160   33.8360   47.9070 C   0  0  0  0  0  0  0  0  0  0  0  0
   61.8518   33.4344   48.7098 H   0  0  0  0  0  0  0  0  0  0  0  0
   60.8444   33.0084   47.2849 H   0  0  0  0  0  0  0  0  0  0  0  0
   61.8037   34.5271   47.2849 H   0  0  0  0  0  0  0  0  0  0  0  0
   58.8820   34.6490   45.1600 N   0  0  0  0  0  0  0  0  0  0  0  0
   59.2270   35.5880   44.8600 H   0  0  0  0  0  0  0  0  0  0  0  0
   58.4990   33.6940   44.2730 C   0  0  0  0  0  0  0  0  0  0  0  0
   58.5176   33.8512   43.1844 H   0  0  0  0  0  0  0  0  0  0  0  0
   57.3980   31.6000   42.6240 C   0  0  0  0  0  0  0  0  0  0  0  0
   56.8760   32.5615   42.5099 H   0  0  0  0  0  0  0  0  0  0  0  0
   58.3870   31.6607   42.1463 H   0  0  0  0  0  0  0  0  0  0  0  0
   56.8083   30.8037   42.1463 H   0  0  0  0  0  0  0  0  0  0  0  0
   58.4640   30.0420   44.3480 C   0  0  0  0  0  0  0  0  0  0  0  0
   58.8540   29.6485   43.3977 H   0  0  0  0  0  0  0  0  0  0  0  0
   59.3546   30.2496   44.9593 H   0  0  0  0  0  0  0  0  0  0  0  0
   58.1710   27.3630   46.7620 C   0  0  0  0  0  0  0  0  0  0  0  0
   58.2320   28.3780   47.7300 O   0  0  0  0  0  0  0  0  0  0  0  0
   59.3390   29.2500   47.9300 C   0  0  0  0  0  0  0  0  0  0  0  0
   59.5097   29.3845   49.0083 H   0  0  0  0  0  0  0  0  0  0  0  0
   60.2372   28.8142   47.4681 H   0  0  0  0  0  0  0  0  0  0  0  0
   59.1257   30.2253   47.4681 H   0  0  0  0  0  0  0  0  0  0  0  0
   58.4520   26.0230   47.1020 C   0  0  0  0  0  0  0  0  0  0  0  0
   58.7231   25.7702   48.1377 H   0  0  0  0  0  0  0  0  0  0  0  0
  1  2  1  0
  2  3  2  0
  3  4  1  0
  3  5  1  0
  5  6  1  0
  5  7  2  0
  7  8  1  0
  8  9  2  0
  9 10  1  0
 10 11  1  0
 11 12  1  0
 12 13  1  0
 13 14  1  0
 14 15  2  0
 15 16  1  0
 16 17  1  0
 16 18  1  0
 16 19  1  0
 19 20  1  0
 19 21  1  0
 19 22  1  0
 14 23  1  0
 23 24  1  0
 23 25  1  0
 25 26  1  0
 11 27  1  6
 27 28  1  0
 27 29  1  0
 27 30  1  0
 11 31  1  0
 31 32  1  0
 31 33  1  0
  7 34  1  0
 34 35  1  0
 35 36  1  0
 36 37  1  0
 36 38  1  0
 36 39  1  0
 34 40  2  0
 40 41  1  0
 40  2  1  0
 31  8  1  0
 25 12  2  0
M  END
>  <UniqueID>  (8) 
6

>  <SMILES>  (8) 
CC/N=c1\[nH]cc([C@@]2(C)CC(c3ccccc3OC)=NO2)s1

>  <Energy>  (8) 
84.53911937214609

>  <Genealogy>  (8) 
CCN=c1[nH]cc([C@@]2(C)CC(c3ccccc3OC)=NO2)s1 (chirality)
CC/N=c1\[nH]cc([C@@]2(C)CC(c3ccccc3OC)=NO2)s1 (cis-trans isomerization)
CC/N=c1\[nH]cc([C@@]2(C)CC(c3ccccc3OC)=NO2)s1 (3D coordinates assigned)
CC/N=c1\[nH]cc([C@@]2(C)CC(c3ccccc3OC)=NO2)s1 (nonaromatic ring conformer: 84.53911937214609 kcal/mol)

>  <smiles>  (8) 
CCN=c1[nH]cc(C2(C)CC(c3ccccc3OC)=NO2)s1

>  <score_type>  (8) 
oracle

>  <origin>  (8) 
adg

>  <m_score__min__energy>  (8) 
-8.1500000000000004

>  <m_primary>  (8) 
energy

$$$$
8:0
     RDKit          3D

 57 59  0  0  0  0  0  0  0  0999 V2000
   58.9270   34.3020   44.8810 C   0  0  0  0  0  0  0  0  0  0  0  0
   58.3550   34.2190   46.2950 C   0  0  0  0  0  0  0  0  0  0  0  0
   57.4110   33.0160   46.4370 C   0  0  0  0  0  0  0  0  0  0  0  0
   57.4530   32.1060   45.1970 C   0  0  0  0  0  0  0  0  0  0  0  0
   57.4260   30.6780   45.5650 N   0  0  0  0  0  0  0  0  0  0  0  0
   56.5260   29.7620   44.8400 C   0  0  0  0  0  0  0  0  0  0  0  0
   57.1620   29.2610   43.5330 C   0  0  0  0  0  0  0  0  0  0  0  0
   57.9540   27.9780   43.7690 C   0  0  0  0  0  0  0  0  0  0  0  0
   58.4380   30.1090   46.4270 C   0  0  0  0  0  0  0  0  0  0  0  0
   58.0950   29.3670   47.3850 O   0  0  0  0  0  0  0  0  0  0  0  0
   59.9030   30.3370   46.1950 C   0  0  0  0  0  0  0  0  0  0  0  0
   60.8900   29.7090   47.5960 S   0  0  0  0  0  0  0  0  0  0  0  0
   60.1130   30.7700   48.8350 C   0  0  0  0  0  0  0  0  0  0  0  0
   59.1390   30.2290   49.6180 N   0  0  0  0  0  0  0  0  0  0  0  0
   58.4730   30.9760   50.5370 C   0  0  0  0  0  0  0  0  0  0  0  0
   57.4510   30.4050   51.3130 C   0  0  0  0  0  0  0  0  0  0  0  0
   56.7630   31.1810   52.2500 C   0  0  0  0  0  0  0  0  0  0  0  0
   57.0910   32.5290   52.4200 C   0  0  0  0  0  0  0  0  0  0  0  0
   58.1080   33.1050   51.6570 C   0  0  0  0  0  0  0  0  0  0  0  0
   58.8060   32.3330   50.7070 C   0  0  0  0  0  0  0  0  0  0  0  0
   59.8450   32.8670   49.9250 C   0  0  0  0  0  0  0  0  0  0  0  0
   60.1910   34.0730   50.0870 O   0  0  0  0  0  0  0  0  0  0  0  0
   60.4930   32.0800   49.0070 N   0  0  0  0  0  0  0  0  0  0  0  0
   61.6140   32.6240   48.2770 C   0  0  0  0  0  0  0  0  0  0  0  0
   62.9060   32.5780   48.8310 C   0  0  0  0  0  0  0  0  0  0  0  0
   63.9820   33.1660   48.1600 C   0  0  0  0  0  0  0  0  0  0  0  0
   63.7760   33.8120   46.9370 C   0  0  0  0  0  0  0  0  0  0  0  0
   62.4950   33.8640   46.3780 C   0  0  0  0  0  0  0  0  0  0  0  0
   61.4170   33.2760   47.0460 C   0  0  0  0  0  0  0  0  0  0  0  0
   60.0143   34.4598   44.9340 H   0  0  0  0  0  0  0  0  0  0  0  0
   58.7182   33.3642   44.3454 H   0  0  0  0  0  0  0  0  0  0  0  0
   58.4603   35.1418   44.3454 H   0  0  0  0  0  0  0  0  0  0  0  0
   59.1824   34.1136   47.0121 H   0  0  0  0  0  0  0  0  0  0  0  0
   57.7848   35.1377   46.4969 H   0  0  0  0  0  0  0  0  0  0  0  0
   57.7109   32.4304   47.3185 H   0  0  0  0  0  0  0  0  0  0  0  0
   56.3852   33.3979   46.5458 H   0  0  0  0  0  0  0  0  0  0  0  0
   56.5814   32.3270   44.5633 H   0  0  0  0  0  0  0  0  0  0  0  0
   58.3923   32.3031   44.6596 H   0  0  0  0  0  0  0  0  0  0  0  0
   56.3029   28.8977   45.4828 H   0  0  0  0  0  0  0  0  0  0  0  0
   55.6069   30.3110   44.5872 H   0  0  0  0  0  0  0  0  0  0  0  0
   56.3674   29.0636   42.7984 H   0  0  0  0  0  0  0  0  0  0  0  0
   57.8490   30.0339   43.1579 H   0  0  0  0  0  0  0  0  0  0  0  0
   58.0600   27.8062   44.8503 H   0  0  0  0  0  0  0  0  0  0  0  0
   57.4221   27.1297   43.3134 H   0  0  0  0  0  0  0  0  0  0  0  0
   58.9507   28.0733   43.3134 H   0  0  0  0  0  0  0  0  0  0  0  0
   60.2079   29.8139   45.2766 H   0  0  0  0  0  0  0  0  0  0  0  0
   60.0792   31.4184   46.0978 H   0  0  0  0  0  0  0  0  0  0  0  0
   58.8960   29.2200   49.4920 H   0  0  0  0  0  0  0  0  0  0  0  0
   57.1913   29.3440   51.1829 H   0  0  0  0  0  0  0  0  0  0  0  0
   55.9622   30.7302   52.8546 H   0  0  0  0  0  0  0  0  0  0  0  0
   56.5463   33.1375   53.1569 H   0  0  0  0  0  0  0  0  0  0  0  0
   58.3655   34.1651   51.7978 H   0  0  0  0  0  0  0  0  0  0  0  0
   63.0704   32.0771   49.7965 H   0  0  0  0  0  0  0  0  0  0  0  0
   64.9916   33.1205   48.5943 H   0  0  0  0  0  0  0  0  0  0  0  0
   64.6228   34.2800   46.4137 H   0  0  0  0  0  0  0  0  0  0  0  0
   62.3358   34.3674   45.4130 H   0  0  0  0  0  0  0  0  0  0  0  0
   60.4095   33.3233   46.6069 H   0  0  0  0  0  0  0  0  0  0  0  0
  1  2  1  0
  2  3  1  0
  3  4  1  0
  4  5  1  0
  5  6  1  0
  6  7  1  0
  7  8  1  0
  5  9  1  0
  9 10  2  0
  9 11  1  0
 11 12  1  0
 12 13  1  0
 13 14  2  0
 14 15  1  0
 15 16  2  0
 16 17  1  0
 17 18  2  0
 18 19  1  0
 19 20  2  0
 20 21  1  0
 21 22  2  0
 21 23  1  0
 23 24  1  0
 24 25  2  0
 25 26  1  0
 26 27  2  0
 27 28  1  0
 28 29  2  0
 23 13  1  0
 29 24  1  0
 20 15  1  0
  1 30  1  0
  1 31  1  0
  1 32  1  0
  2 33  1  0
  2 34  1  0
  3 35  1  0
  3 36  1  0
  4 37  1  0
  4 38  1  0
  6 39  1  0
  6 40  1  0
  7 41  1  0
  7 42  1  0
  8 43  1  0
  8 44  1  0
  8 45  1  0
 11 46  1  0
 11 47  1  0
 14 48  1  0
 16 49  1  0
 17 50  1  0
 18 51  1  0
 19 52  1  0
 25 53  1  0
 26 54  1  0
 27 55  1  0
 28 56  1  0
 29 57  1  0
M  CHG  1  14   1
M  END
>  <UniqueID>  (9) 
7

>  <SMILES>  (9) 
CCCCN(CCC)C(=O)CSc1[nH+]c2ccccc2c(=O)n1-c1ccccc1

>  <Energy>  (9) 
55.76671235424946

>  <Genealogy>  (9) 
CCCCN(CCC)C(=O)CSc1[nH+]c2ccccc2c(=O)n1-c1ccccc1 (protonated)
CCCCN(CCC)C(=O)CSc1[nH+]c2ccccc2c(=O)n1-c1ccccc1 (3D coordinates assigned)
CCCCN(CCC)C(=O)CSc1[nH+]c2ccccc2c(=O)n1-c1ccccc1 (optimized conformer: 55.76671235424946 kcal/mol)

>  <smiles>  (9) 
CCCCN(CCC)C(=O)CSc1nc2ccccc2c(=O)n1-c1ccccc1

>  <score_type>  (9) 
oracle

>  <origin>  (9) 
adg

>  <m_score__min__energy>  (9) 
-6.4299999999999997

>  <m_primary>  (9) 
energy

$$$$
9:0
     RDKit          3D

 47 50  0  0  0  0  0  0  0  0999 V2000
   60.5500   27.7040   48.3100 C   0  0  0  0  0  0  0  0  0  0  0  0
   59.4900   27.9760   47.2770 C   0  0  0  0  0  0  0  0  0  0  0  0
   59.2910   29.2770   46.7940 C   0  0  0  0  0  0  0  0  0  0  0  0
   58.3420   29.5400   45.8450 N   0  0  0  0  0  0  0  0  0  0  0  0
   58.1880   30.8970   45.3810 C   0  0  0  0  0  0  0  0  0  0  0  0
   58.1160   31.9600   46.2990 C   0  0  0  0  0  0  0  0  0  0  0  0
   57.9580   33.2730   45.8460 C   0  0  0  0  0  0  0  0  0  0  0  0
   57.8890   34.2930   46.7360 F   0  0  0  0  0  0  0  0  0  0  0  0
   57.8670   33.5350   44.4760 C   0  0  0  0  0  0  0  0  0  0  0  0
   57.9330   32.4840   43.5560 C   0  0  0  0  0  0  0  0  0  0  0  0
   57.8450   32.7390   42.2280 F   0  0  0  0  0  0  0  0  0  0  0  0
   58.0910   31.1690   44.0060 C   0  0  0  0  0  0  0  0  0  0  0  0
   57.5520   28.5340   45.3440 C   0  0  0  0  0  0  0  0  0  0  0  0
   56.6610   28.7950   44.4880 O   0  0  0  0  0  0  0  0  0  0  0  0
   57.7220   27.2110   45.7910 C   0  0  0  0  0  0  0  0  0  0  0  0
   56.9610   26.1850   45.3050 N   0  0  0  0  0  0  0  0  0  0  0  0
   57.1320   24.9040   45.7450 C   0  0  0  0  0  0  0  0  0  0  0  0
   56.3240   23.8360   45.2130 N   0  0  0  0  0  0  0  0  0  0  0  0
   56.2860   22.5320   45.8850 C   0  0  0  0  0  0  0  0  0  0  0  0
   55.8010   21.4390   44.9180 C   0  0  0  0  0  0  0  0  0  0  0  0
   56.3260   21.6410   43.5490 N   0  0  0  0  0  0  0  0  0  0  0  0
   57.7830   21.4370   43.4860 C   0  0  0  0  0  0  0  0  0  0  0  0
   55.9230   22.9410   42.9510 C   0  0  0  0  0  0  0  0  0  0  0  0
   55.5440   24.0150   43.9880 C   0  0  0  0  0  0  0  0  0  0  0  0
   58.1200   24.6400   46.7030 C   0  0  0  0  0  0  0  0  0  0  0  0
   58.8750   25.6570   47.1900 N   0  0  0  0  0  0  0  0  0  0  0  0
   58.7040   26.9370   46.7620 C   0  0  0  0  0  0  0  0  0  0  0  0
   60.1187   27.8147   49.3159 H   0  0  0  0  0  0  0  0  0  0  0  0
   60.9298   26.6793   48.1846 H   0  0  0  0  0  0  0  0  0  0  0  0
   61.3763   28.4192   48.1846 H   0  0  0  0  0  0  0  0  0  0  0  0
   59.9081   30.0995   47.1846 H   0  0  0  0  0  0  0  0  0  0  0  0
   58.1843   31.7574   47.3780 H   0  0  0  0  0  0  0  0  0  0  0  0
   57.7434   34.5689   44.1213 H   0  0  0  0  0  0  0  0  0  0  0  0
   58.1395   30.3440   43.2800 H   0  0  0  0  0  0  0  0  0  0  0  0
   56.2510   26.3710   44.5600 H   0  0  0  0  0  0  0  0  0  0  0  0
   57.2959   22.2786   46.2399 H   0  0  0  0  0  0  0  0  0  0  0  0
   55.5881   22.5903   46.7333 H   0  0  0  0  0  0  0  0  0  0  0  0
   56.1404   20.4604   45.2883 H   0  0  0  0  0  0  0  0  0  0  0  0
   54.7030   21.4866   44.8726 H   0  0  0  0  0  0  0  0  0  0  0  0
   58.1897   21.3801   44.5065 H   0  0  0  0  0  0  0  0  0  0  0  0
   57.9993   20.4998   42.9522 H   0  0  0  0  0  0  0  0  0  0  0  0
   58.2484   22.2787   42.9522 H   0  0  0  0  0  0  0  0  0  0  0  0
   56.7625   23.3208   42.3502 H   0  0  0  0  0  0  0  0  0  0  0  0
   55.0238   22.7493   42.3471 H   0  0  0  0  0  0  0  0  0  0  0  0
   55.7489   25.0115   43.5697 H   0  0  0  0  0  0  0  0  0  0  0  0
   54.4747   23.9194   44.2276 H   0  0  0  0  0  0  0  0  0  0  0  0
   58.2830   23.6120   47.0590 H   0  0  0  0  0  0  0  0  0  0  0  0
  1  2  1  0
  2  3  2  0
  3  4  1  0
  4  5  1  0
  5  6  2  0
  6  7  1  0
  7  8  1  0
  7  9  2  0
  9 10  1  0
 10 11  1  0
 10 12  2  0
  4 13  1  0
 13 14  2  0
 13 15  1  0
 15 16  2  0
 16 17  1  0
 17 18  1  0
 18 19  1  0
 19 20  1  0
 20 21  1  0
 21 22  1  0
 21 23  1  0
 23 24  1  0
 17 25  2  0
 25 26  1  0
 26 27  2  0
 27  2  1  0
 12  5  1  0
 27 15  1  0
 24 18  1  0
  1 28  1  0
  1 29  1  0
  1 30  1  0
  3 31  1  0
  6 32  1  0
  9 33  1  0
 12 34  1  0
 16 35  1  0
 19 36  1  0
 19 37  1  0
 20 38  1  0
 20 39  1  0
 22 40  1  0
 22 41  1  0
 22 42  1  0
 23 43  1  0
 23 44  1  0
 24 45  1  0
 24 46  1  0
 25 47  1  0
M  CHG  1  16   1
M  END
>  <UniqueID>  (10) 
8

>  <SMILES>  (10) 
Cc1cn(-c2cc(F)cc(F)c2)c(=O)c2[nH+]c(N3CCN(C)CC3)cnc12

>  <Energy>  (10) 
75.14776134974127

>  <Genealogy>  (10) 
Cc1cn(-c2cc(F)cc(F)c2)c(=O)c2[nH+]c(N3CCN(C)CC3)cnc12 (protonated)
Cc1cn(-c2cc(F)cc(F)c2)c(=O)c2[nH+]c(N3CCN(C)CC3)cnc12 (3D coordinates assigned)
Cc1cn(-c2cc(F)cc(F)c2)c(=O)c2[nH+]c(N3CCN(C)CC3)cnc12 (nonaromatic ring conformer: 75.14776134974127 kcal/mol)

>  <smiles>  (10) 
Cc1cn(-c2cc(F)cc(F)c2)c(=O)c2nc(N3CCN(C)CC3)cnc12

>  <score_type>  (10) 
oracle

>  <origin>  (10) 
adg

>  <m_score__min__energy>  (10) 
-5.9699999999999998

>  <m_primary>  (10) 
energy

$$$$
10:0
     RDKit          3D

 43 44  0  0  0  0  0  0  0  0999 V2000
   59.7920   28.9080   45.5470 C   0  0  0  0  0  0  0  0  0  0  0  0
   58.8250   28.7970   46.7140 C   0  0  0  0  0  0  0  0  0  0  0  0
   57.8240   29.8040   46.5980 O   0  0  0  0  0  0  0  0  0  0  0  0
   57.9900   31.0230   45.9210 C   0  0  0  0  0  0  0  0  0  0  0  0
   58.7600   32.0740   46.4610 C   0  0  0  0  0  0  0  0  0  0  0  0
   58.9170   33.2780   45.7610 C   0  0  0  0  0  0  0  0  0  0  0  0
   59.7750   34.3780   46.3320 C   0  0  0  0  0  0  0  0  0  0  0  0
   59.3070   34.7500   47.6780 N   0  0  0  0  0  0  0  0  0  0  0  0
   60.2190   34.2700   48.7310 C   0  0  0  0  0  0  0  0  0  0  0  0
   61.3320   33.4200   48.1670 C   0  0  0  0  0  0  0  0  0  0  0  0
   61.2320   32.0180   48.1930 C   0  0  0  0  0  0  0  0  0  0  0  0
   62.2720   31.2270   47.6960 C   0  0  0  0  0  0  0  0  0  0  0  0
   63.4190   31.8290   47.1700 C   0  0  0  0  0  0  0  0  0  0  0  0
   63.5280   33.2220   47.1420 C   0  0  0  0  0  0  0  0  0  0  0  0
   62.4900   34.0170   47.6390 C   0  0  0  0  0  0  0  0  0  0  0  0
   58.3270   33.4260   44.4990 C   0  0  0  0  0  0  0  0  0  0  0  0
   57.5610   32.3930   43.9560 C   0  0  0  0  0  0  0  0  0  0  0  0
   57.3730   31.1960   44.6640 C   0  0  0  0  0  0  0  0  0  0  0  0
   56.5620   30.0840   44.0410 C   0  0  0  0  0  0  0  0  0  0  0  0
   55.4860   29.6540   44.9310 N   0  0  0  0  0  0  0  0  0  0  0  0
   60.8166   29.0256   45.9297 H   0  0  0  0  0  0  0  0  0  0  0  0
   59.7321   27.9971   44.9333 H   0  0  0  0  0  0  0  0  0  0  0  0
   59.5273   29.7817   44.9333 H   0  0  0  0  0  0  0  0  0  0  0  0
   58.3501   27.8049   46.7037 H   0  0  0  0  0  0  0  0  0  0  0  0
   59.3728   28.9312   47.6584 H   0  0  0  0  0  0  0  0  0  0  0  0
   59.2422   31.9475   47.4415 H   0  0  0  0  0  0  0  0  0  0  0  0
   60.8165   34.0296   46.3941 H   0  0  0  0  0  0  0  0  0  0  0  0
   59.7086   35.2584   45.6759 H   0  0  0  0  0  0  0  0  0  0  0  0
   59.2030   35.7890   47.7440 H   0  0  0  0  0  0  0  0  0  0  0  0
   58.3680   34.3140   47.8390 H   0  0  0  0  0  0  0  0  0  0  0  0
   60.6592   35.1383   49.2432 H   0  0  0  0  0  0  0  0  0  0  0  0
   59.6374   33.6506   49.4295 H   0  0  0  0  0  0  0  0  0  0  0  0
   60.3311   31.5411   48.6064 H   0  0  0  0  0  0  0  0  0  0  0  0
   62.1879   30.1305   47.7188 H   0  0  0  0  0  0  0  0  0  0  0  0
   64.2362   31.2058   46.7779 H   0  0  0  0  0  0  0  0  0  0  0  0
   64.4315   33.6939   46.7285 H   0  0  0  0  0  0  0  0  0  0  0  0
   62.5801   35.1131   47.6166 H   0  0  0  0  0  0  0  0  0  0  0  0
   58.4678   34.3593   43.9341 H   0  0  0  0  0  0  0  0  0  0  0  0
   57.1009   32.5183   42.9648 H   0  0  0  0  0  0  0  0  0  0  0  0
   56.1255   30.4432   43.0974 H   0  0  0  0  0  0  0  0  0  0  0  0
   57.2272   29.2271   43.8585 H   0  0  0  0  0  0  0  0  0  0  0  0
   54.6810   30.3160   44.8340 H   0  0  0  0  0  0  0  0  0  0  0  0
   55.8250   29.7110   45.9200 H   0  0  0  0  0  0  0  0  0  0  0  0
  1  2  1  0
  2  3  1  0
  3  4  1  0
  4  5  2  0
  5  6  1  0
  6  7  1  0
  7  8  1  0
  8  9  1  0
  9 10  1  0
 10 11  2  0
 11 12  1  0
 12 13  2  0
 13 14  1  0
 14 15  2  0
  6 16  2  0
 16 17  1  0
 17 18  2  0
 18 19  1  0
 19 20  1  0
 18  4  1  0
 15 10  1  0
  1 21  1  0
  1 22  1  0
  1 23  1  0
  2 24  1  0
  2 25  1  0
  5 26  1  0
  7 27  1  0
  7 28  1  0
  8 29  1  0
  8 30  1  0
  9 31  1  0
  9 32  1  0
 11 33  1  0
 12 34  1  0
 13 35  1  0
 14 36  1  0
 15 37  1  0
 16 38  1  0
 17 39  1  0
 19 40  1  0
 19 41  1  0
 20 42  1  0
 20 43  1  0
M  CHG  1   8   1
M  END
>  <UniqueID>  (11) 
9

>  <SMILES>  (11) 
CCOc1cc(C[NH2+]Cc2ccccc2)ccc1CN

>  <Energy>  (11) 
37.232390419247984

>  <Genealogy>  (11) 
CCOc1cc(C[NH2+]Cc2ccccc2)ccc1CN (protonated)
CCOc1cc(C[NH2+]Cc2ccccc2)ccc1CN (3D coordinates assigned)
CCOc1cc(C[NH2+]Cc2ccccc2)ccc1CN (optimized conformer: 37.232390419247984 kcal/mol)

>  <smiles>  (11) 
CCOc1cc(CNCc2ccccc2)ccc1CN

>  <score_type>  (11) 
oracle

>  <origin>  (11) 
adg

>  <m_score__min__energy>  (11) 
-6.25

>  <m_primary>  (11) 
energy

$$$$
11:0
     RDKit          3D

 53 58  0  0  0  0  0  0  0  0999 V2000
   56.8240   22.1040   43.6950 C   0  0  0  0  0  0  0  0  0  0  0  0
   57.6800   22.1830   44.7950 C   0  0  0  0  0  0  0  0  0  0  0  0
   58.1860   23.4220   45.2030 C   0  0  0  0  0  0  0  0  0  0  0  0
   57.8400   24.5970   44.5110 C   0  0  0  0  0  0  0  0  0  0  0  0
   58.3750   25.9140   44.9400 C   0  0  0  0  0  0  0  0  0  0  0  0
   59.4490   25.9850   45.8690 C   0  0  0  0  0  0  0  0  0  0  0  0
   59.9600   27.2270   46.2860 C   0  0  0  0  0  0  0  0  0  0  0  0
   59.3840   28.3820   45.7540 C   0  0  0  0  0  0  0  0  0  0  0  0
   58.3500   28.3220   44.8680 C   0  0  0  0  0  0  0  0  0  0  0  0
   57.8160   27.1110   44.4360 C   0  0  0  0  0  0  0  0  0  0  0  0
   57.9300   29.5560   44.5450 N   0  0  0  0  0  0  0  0  0  0  0  0
   58.7630   30.3600   45.2540 C   0  0  0  0  0  0  0  0  0  0  0  0
   58.6150   31.8250   45.2470 C   0  0  0  0  0  0  0  0  0  0  0  0
   57.4140   32.4300   44.8490 C   0  0  0  0  0  0  0  0  0  0  0  0
   57.3140   33.8230   44.8600 C   0  0  0  0  0  0  0  0  0  0  0  0
   58.3990   34.5940   45.2810 C   0  0  0  0  0  0  0  0  0  0  0  0
   59.5690   33.9570   45.6950 C   0  0  0  0  0  0  0  0  0  0  0  0
   59.6490   32.5990   45.6740 N   0  0  0  0  0  0  0  0  0  0  0  0
   59.6690   29.6730   46.0100 N   0  0  0  0  0  0  0  0  0  0  0  0
   60.5560   30.1990   47.0560 C   0  0  0  0  0  0  0  0  0  0  0  0
   59.8070   30.3290   48.3540 C   0  0  0  0  0  0  0  0  0  0  0  0
   59.1750   31.5350   48.6970 C   0  0  0  0  0  0  0  0  0  0  0  0
   58.4430   31.6380   49.8830 C   0  0  0  0  0  0  0  0  0  0  0  0
   58.3270   30.5360   50.7470 C   0  0  0  0  0  0  0  0  0  0  0  0
   57.5710   30.6410   51.9670 N   0  0  0  0  0  0  0  0  0  0  0  0
   56.3830   30.0840   52.1530 N   0  0  0  0  0  0  0  0  0  0  0  0
   56.0090   30.4040   53.4040 C   0  0  0  0  0  0  0  0  0  0  0  0
   57.0120   31.1670   53.9600 C   0  0  0  0  0  0  0  0  0  0  0  0
   57.9830   31.3030   53.0390 N   0  0  0  0  0  0  0  0  0  0  0  0
   58.9590   29.3290   50.4000 C   0  0  0  0  0  0  0  0  0  0  0  0
   59.6890   29.2270   49.2140 C   0  0  0  0  0  0  0  0  0  0  0  0
   56.9750   24.5040   43.4030 C   0  0  0  0  0  0  0  0  0  0  0  0
   56.4730   23.2630   42.9990 C   0  0  0  0  0  0  0  0  0  0  0  0
   56.4261   21.1292   43.3765 H   0  0  0  0  0  0  0  0  0  0  0  0
   57.9571   21.2697   45.3418 H   0  0  0  0  0  0  0  0  0  0  0  0
   58.8592   23.4778   46.0711 H   0  0  0  0  0  0  0  0  0  0  0  0
   59.8856   25.0569   46.2665 H   0  0  0  0  0  0  0  0  0  0  0  0
   60.7873   27.2865   47.0085 H   0  0  0  0  0  0  0  0  0  0  0  0
   56.9806   27.0860   43.7209 H   0  0  0  0  0  0  0  0  0  0  0  0
   56.5598   31.8139   44.5315 H   0  0  0  0  0  0  0  0  0  0  0  0
   56.3826   34.3115   44.5377 H   0  0  0  0  0  0  0  0  0  0  0  0
   58.3321   35.6920   45.2862 H   0  0  0  0  0  0  0  0  0  0  0  0
   60.4273   34.5530   46.0386 H   0  0  0  0  0  0  0  0  0  0  0  0
   61.4040   29.5119   47.1929 H   0  0  0  0  0  0  0  0  0  0  0  0
   60.9220   31.1906   46.7515 H   0  0  0  0  0  0  0  0  0  0  0  0
   59.2566   32.4043   48.0279 H   0  0  0  0  0  0  0  0  0  0  0  0
   57.9541   32.5887   50.1420 H   0  0  0  0  0  0  0  0  0  0  0  0
   55.0701   30.1093   53.8956 H   0  0  0  0  0  0  0  0  0  0  0  0
   57.0179   31.5896   54.9756 H   0  0  0  0  0  0  0  0  0  0  0  0
   58.8778   28.4586   51.0677 H   0  0  0  0  0  0  0  0  0  0  0  0
   60.1751   28.2756   48.9522 H   0  0  0  0  0  0  0  0  0  0  0  0
   56.6927   25.4133   42.8522 H   0  0  0  0  0  0  0  0  0  0  0  0
   55.8002   23.1994   42.1311 H   0  0  0  0  0  0  0  0  0  0  0  0
  1  2  2  0
  2  3  1  0
  3  4  2  0
  4  5  1  0
  5  6  2  0
  6  7  1  0
  7  8  2  0
  8  9  1  0
  9 10  2  0
  9 11  1  0
 11 12  2  0
 12 13  1  0
 13 14  2  0
 14 15  1  0
 15 16  2  0
 16 17  1  0
 17 18  2  0
 12 19  1  0
 19 20  1  0
 20 21  1  0
 21 22  2  0
 22 23  1  0
 23 24  2  0
 24 25  1  0
 25 26  1  0
 26 27  2  0
 27 28  1  0
 28 29  2  0
 24 30  1  0
 30 31  2  0
  4 32  1  0
 32 33  2  0
 33  1  1  0
 10  5  1  0
 18 13  1  0
 31 21  1  0
 19  8  1  0
 29 25  1  0
  1 34  1  0
  2 35  1  0
  3 36  1  0
  6 37  1  0
  7 38  1  0
 10 39  1  0
 14 40  1  0
 15 41  1  0
 16 42  1  0
 17 43  1  0
 20 44  1  0
 20 45  1  0
 22 46  1  0
 23 47  1  0
 27 48  1  0
 28 49  1  0
 30 50  1  0
 31 51  1  0
 32 52  1  0
 33 53  1  0
M  END
>  <UniqueID>  (12) 
10

>  <SMILES>  (12) 
c1ccc(-c2ccc3c(c2)nc(-c2ccccn2)n3Cc2ccc(-n3nccn3)cc2)cc1

>  <Energy>  (12) 
142.987656450997

>  <Genealogy>  (12) 
c1ccc(-c2ccc3c(c2)nc(-c2ccccn2)n3Cc2ccc(-n3nccn3)cc2)cc1 (3D coordinates assigned)
c1ccc(-c2ccc3c(c2)nc(-c2ccccn2)n3Cc2ccc(-n3nccn3)cc2)cc1 (optimized conformer: 142.987656450997 kcal/mol)

>  <smiles>  (12) 
c1ccc(-c2ccc3c(c2)nc(-c2ccccn2)n3Cc2ccc(-n3nccn3)cc2)cc1

>  <score_type>  (12) 
oracle

>  <origin>  (12) 
adg

>  <m_score__min__energy>  (12) 
-8.8599999999999994

>  <m_primary>  (12) 
energy

$$$$
12:0
     RDKit          3D

 50 52  0  0  0  0  0  0  0  0999 V2000
   57.0610   31.2140   42.8470 C   0  0  0  0  0  0  0  0  0  0  0  0
   56.0700   30.3100   43.5630 C   0  0  0  0  0  0  0  0  0  0  0  0
   56.5080   30.0860   44.9000 O   0  0  0  0  0  0  0  0  0  0  0  0
   57.7890   29.6320   45.2490 C   0  0  0  0  0  0  0  0  0  0  0  0
   58.4760   28.8190   44.3400 C   0  0  0  0  0  0  0  0  0  0  0  0
   59.7530   28.3390   44.6440 C   0  0  0  0  0  0  0  0  0  0  0  0
   60.3530   28.6640   45.8620 C   0  0  0  0  0  0  0  0  0  0  0  0
   59.6740   29.4690   46.7880 C   0  0  0  0  0  0  0  0  0  0  0  0
   60.3060   29.8180   48.0760 C   0  0  0  0  0  0  0  0  0  0  0  0
   60.1580   28.9290   49.1530 C   0  0  0  0  0  0  0  0  0  0  0  0
   60.7300   29.2150   50.3930 C   0  0  0  0  0  0  0  0  0  0  0  0
   61.4620   30.3890   50.5710 C   0  0  0  0  0  0  0  0  0  0  0  0
   61.6280   31.2780   49.5080 C   0  0  0  0  0  0  0  0  0  0  0  0
   61.0580   31.0090   48.2520 C   0  0  0  0  0  0  0  0  0  0  0  0
   61.3340   31.9770   47.1220 C   0  0  0  0  0  0  0  0  0  0  0  0
   61.9070   33.2340   47.6530 N   0  0  0  0  0  0  0  0  0  0  0  0
   62.8370   33.8280   46.6760 C   0  0  0  0  0  0  0  0  0  0  0  0
   60.8410   34.2020   47.9850 C   0  0  0  0  0  0  0  0  0  0  0  0
   59.6700   34.0380   47.0520 C   0  0  0  0  0  0  0  0  0  0  0  0
   58.5010   33.3970   47.4960 C   0  0  0  0  0  0  0  0  0  0  0  0
   57.4170   33.2270   46.6290 C   0  0  0  0  0  0  0  0  0  0  0  0
   57.4900   33.6980   45.3150 C   0  0  0  0  0  0  0  0  0  0  0  0
   58.6490   34.3400   44.8670 C   0  0  0  0  0  0  0  0  0  0  0  0
   59.7350   34.5100   45.7290 C   0  0  0  0  0  0  0  0  0  0  0  0
   58.3990   29.9630   46.4750 C   0  0  0  0  0  0  0  0  0  0  0  0
   57.6608   31.7611   43.5893 H   0  0  0  0  0  0  0  0  0  0  0  0
   57.7249   30.6039   42.2169 H   0  0  0  0  0  0  0  0  0  0  0  0
   56.5143   31.9310   42.2169 H   0  0  0  0  0  0  0  0  0  0  0  0
   55.0805   30.7902   43.5774 H   0  0  0  0  0  0  0  0  0  0  0  0
   56.0044   29.3479   43.0338 H   0  0  0  0  0  0  0  0  0  0  0  0
   58.0078   28.5561   43.3800 H   0  0  0  0  0  0  0  0  0  0  0  0
   60.2866   27.7036   43.9218 H   0  0  0  0  0  0  0  0  0  0  0  0
   61.3600   28.2880   46.0957 H   0  0  0  0  0  0  0  0  0  0  0  0
   59.5861   27.9991   49.0178 H   0  0  0  0  0  0  0  0  0  0  0  0
   60.6036   28.5139   51.2312 H   0  0  0  0  0  0  0  0  0  0  0  0
   61.9090   30.6144   51.5505 H   0  0  0  0  0  0  0  0  0  0  0  0
   62.2112   32.1990   49.6549 H   0  0  0  0  0  0  0  0  0  0  0  0
   62.0471   31.5212   46.4193 H   0  0  0  0  0  0  0  0  0  0  0  0
   60.3897   32.2036   46.6054 H   0  0  0  0  0  0  0  0  0  0  0  0
   63.6477   34.3458   47.2094 H   0  0  0  0  0  0  0  0  0  0  0  0
   63.2621   33.0338   46.0447 H   0  0  0  0  0  0  0  0  0  0  0  0
   62.2952   34.5477   46.0447 H   0  0  0  0  0  0  0  0  0  0  0  0
   60.5066   34.0316   49.0190 H   0  0  0  0  0  0  0  0  0  0  0  0
   61.2405   35.2214   47.8786 H   0  0  0  0  0  0  0  0  0  0  0  0
   58.4383   33.0273   48.5301 H   0  0  0  0  0  0  0  0  0  0  0  0
   56.5056   32.7219   46.9816 H   0  0  0  0  0  0  0  0  0  0  0  0
   56.6367   33.5639   44.6339 H   0  0  0  0  0  0  0  0  0  0  0  0
   58.7055   34.7120   43.8333 H   0  0  0  0  0  0  0  0  0  0  0  0
   60.6445   35.0150   45.3715 H   0  0  0  0  0  0  0  0  0  0  0  0
   57.8728   30.6121   47.1904 H   0  0  0  0  0  0  0  0  0  0  0  0
  1  2  1  0
  2  3  1  0
  3  4  1  0
  4  5  2  0
  5  6  1  0
  6  7  2  0
  7  8  1  0
  8  9  1  0
  9 10  2  0
 10 11  1  0
 11 12  2  0
 12 13  1  0
 13 14  2  0
 14 15  1  0
 15 16  1  0
 16 17  1  0
 16 18  1  0
 18 19  1  0
 19 20  2  0
 20 21  1  0
 21 22  2  0
 22 23  1  0
 23 24  2  0
  8 25  2  0
 25  4  1  0
 14  9  1  0
 24 19  1  0
  1 26  1  0
  1 27  1  0
  1 28  1  0
  2 29  1  0
  2 30  1  0
  5 31  1  0
  6 32  1  0
  7 33  1  0
 10 34  1  0
 11 35  1  0
 12 36  1  0
 13 37  1  0
 15 38  1  0
 15 39  1  0
 17 40  1  0
 17 41  1  0
 17 42  1  0
 18 43  1  0
 18 44  1  0
 20 45  1  0
 21 46  1  0
 22 47  1  0
 23 48  1  0
 24 49  1  0
 25 50  1  0
M  END
>  <UniqueID>  (13) 
11

>  <SMILES>  (13) 
CCOc1cccc(-c2ccccc2CN(C)Cc2ccccc2)c1

>  <Energy>  (13) 
56.43445363528209

>  <Genealogy>  (13) 
CCOc1cccc(-c2ccccc2CN(C)Cc2ccccc2)c1 (3D coordinates assigned)
CCOc1cccc(-c2ccccc2CN(C)Cc2ccccc2)c1 (optimized conformer: 56.43445363528209 kcal/mol)

>  <smiles>  (13) 
CCOc1cccc(-c2ccccc2CN(C)Cc2ccccc2)c1

>  <score_type>  (13) 
oracle

>  <origin>  (13) 
adg

>  <m_score__min__energy>  (13) 
-8.0600000000000005

>  <m_primary>  (13) 
energy

$$$$
13:0
     RDKit          3D

 51 55  0  0  0  0  0  0  0  0999 V2000
   57.2300   31.5900   41.9080 C   0  0  0  0  0  0  0  0  0  0  0  0
   56.7640   30.4850   42.6250 C   0  0  0  0  0  0  0  0  0  0  0  0
   56.9420   30.4190   44.0110 C   0  0  0  0  0  0  0  0  0  0  0  0
   57.5880   31.4620   44.6850 C   0  0  0  0  0  0  0  0  0  0  0  0
   57.7600   31.3990   46.0310 N   0  0  0  0  0  0  0  0  0  0  0  0
   58.3820   32.3920   46.7220 C   0  0  0  0  0  0  0  0  0  0  0  0
   58.5370   32.2890   48.1090 C   0  0  0  0  0  0  0  0  0  0  0  0
   59.1740   33.3180   48.8310 C   0  0  0  0  0  0  0  0  0  0  0  0
   59.3430   33.2750   50.2250 O   0  0  0  0  0  0  0  0  0  0  0  0
   60.4570   33.8070   50.9440 C   0  0  0  0  0  0  0  0  0  0  0  0
   61.3310   32.6970   51.5500 C   0  0  0  0  0  0  0  0  0  0  0  0
   62.7700   32.9160   51.2780 N   0  0  0  0  0  0  0  0  0  0  0  0
   63.3470   31.8250   50.4480 C   0  0  0  0  0  0  0  0  0  0  0  0
   64.5260   32.3140   49.5960 C   0  0  0  0  0  0  0  0  0  0  0  0
   64.1020   33.3640   48.6330 N   0  0  0  0  0  0  0  0  0  0  0  0
   63.7270   32.9620   47.2470 C   0  0  0  0  0  0  0  0  0  0  0  0
   62.2790   32.5200   47.0900 C   0  0  0  0  0  0  0  0  0  0  0  0
   62.7570   33.8090   46.4270 C   0  0  0  0  0  0  0  0  0  0  0  0
   63.0410   34.2490   49.1740 C   0  0  0  0  0  0  0  0  0  0  0  0
   63.0160   34.2670   50.7120 C   0  0  0  0  0  0  0  0  0  0  0  0
   59.6610   34.4370   48.1440 C   0  0  0  0  0  0  0  0  0  0  0  0
   59.5110   34.5460   46.7590 C   0  0  0  0  0  0  0  0  0  0  0  0
   58.8700   33.5300   46.0400 C   0  0  0  0  0  0  0  0  0  0  0  0
   58.7040   33.6170   44.6520 C   0  0  0  0  0  0  0  0  0  0  0  0
   58.0600   32.5810   43.9620 C   0  0  0  0  0  0  0  0  0  0  0  0
   57.8770   32.6380   42.5710 C   0  0  0  0  0  0  0  0  0  0  0  0
   57.0875   31.6359   40.8182 H   0  0  0  0  0  0  0  0  0  0  0  0
   56.2555   29.6643   42.0979 H   0  0  0  0  0  0  0  0  0  0  0  0
   56.5741   29.5470   44.5715 H   0  0  0  0  0  0  0  0  0  0  0  0
   58.1601   31.4012   48.6378 H   0  0  0  0  0  0  0  0  0  0  0  0
   61.0706   34.4070   50.2559 H   0  0  0  0  0  0  0  0  0  0  0  0
   60.0681   34.4229   51.7682 H   0  0  0  0  0  0  0  0  0  0  0  0
   61.1742   32.6755   52.6386 H   0  0  0  0  0  0  0  0  0  0  0  0
   61.0384   31.7426   51.0879 H   0  0  0  0  0  0  0  0  0  0  0  0
   63.6977   31.0211   51.1119 H   0  0  0  0  0  0  0  0  0  0  0  0
   62.5620   31.4642   49.7672 H   0  0  0  0  0  0  0  0  0  0  0  0
   65.2992   32.7285   50.2596 H   0  0  0  0  0  0  0  0  0  0  0  0
   64.9179   31.4593   49.0251 H   0  0  0  0  0  0  0  0  0  0  0  0
   64.7283   32.5615   47.0301 H   0  0  0  0  0  0  0  0  0  0  0  0
   62.0360   31.6421   46.4734 H   0  0  0  0  0  0  0  0  0  0  0  0
   61.4668   32.2579   47.7840 H   0  0  0  0  0  0  0  0  0  0  0  0
   62.8599   33.8600   45.3330 H   0  0  0  0  0  0  0  0  0  0  0  0
   62.4339   34.8603   46.4449 H   0  0  0  0  0  0  0  0  0  0  0  0
   63.2171   35.2727   48.8121 H   0  0  0  0  0  0  0  0  0  0  0  0
   62.0722   33.8589   48.8286 H   0  0  0  0  0  0  0  0  0  0  0  0
   63.9854   34.6352   51.0791 H   0  0  0  0  0  0  0  0  0  0  0  0
   62.1947   34.9252   51.0318 H   0  0  0  0  0  0  0  0  0  0  0  0
   60.1673   35.2392   48.7009 H   0  0  0  0  0  0  0  0  0  0  0  0
   59.8972   35.4315   46.2328 H   0  0  0  0  0  0  0  0  0  0  0  0
   59.0778   34.4954   44.1054 H   0  0  0  0  0  0  0  0  0  0  0  0
   58.2422   33.5063   42.0030 H   0  0  0  0  0  0  0  0  0  0  0  0
  1  2  2  0
  2  3  1  0
  3  4  2  0
  4  5  1  0
  5  6  2  0
  6  7  1  0
  7  8  2  0
  8  9  1  0
  9 10  1  0
 10 11  1  0
 11 12  1  0
 12 13  1  0
 13 14  1  0
 14 15  1  0
 15 16  1  0
 16 17  1  0
 17 18  1  0
 15 19  1  0
 19 20  1  0
  8 21  1  0
 21 22  2  0
 22 23  1  0
 23 24  2  0
 24 25  1  0
 25 26  2  0
 26  1  1  0
 25  4  1  0
 23  6  1  0
 20 12  1  0
 18 16  1  0
  1 27  1  0
  2 28  1  0
  3 29  1  0
  7 30  1  0
 10 31  1  0
 10 32  1  0
 11 33  1  0
 11 34  1  0
 13 35  1  0
 13 36  1  0
 14 37  1  0
 14 38  1  0
 16 39  1  0
 17 40  1  0
 17 41  1  0
 18 42  1  0
 18 43  1  0
 19 44  1  0
 19 45  1  0
 20 46  1  0
 20 47  1  0
 21 48  1  0
 22 49  1  0
 24 50  1  0
 26 51  1  0
M  END
>  <UniqueID>  (14) 
12

>  <SMILES>  (14) 
c1ccc2nc3cc(OCCN4CCN(C5CC5)CC4)ccc3cc2c1

>  <Energy>  (14) 
348.87428011186927

>  <Genealogy>  (14) 
c1ccc2nc3cc(OCCN4CCN(C5CC5)CC4)ccc3cc2c1 (3D coordinates assigned)
c1ccc2nc3cc(OCCN4CCN(C5CC5)CC4)ccc3cc2c1 (nonaromatic ring conformer: 348.87428011186927 kcal/mol)

>  <smiles>  (14) 
c1ccc2nc3cc(OCCN4CCN(C5CC5)CC4)ccc3cc2c1

>  <score_type>  (14) 
oracle

>  <origin>  (14) 
adg

>  <m_score__min__energy>  (14) 
-8.4399999999999995

>  <m_primary>  (14) 
energy

$$$$
14:0
     RDKit          3D

 30 32  0  0  0  0  0  0  0  0999 V2000
   55.5160   28.9540   44.8460 N   0  0  0  0  0  0  0  0  0  0  0  0
   56.7040   30.1440   44.4430 S   0  0  0  0  0  0  0  0  0  0  0  0
   56.1180   31.5030   44.7030 O   0  0  0  0  0  0  0  0  0  0  0  0
   57.0540   30.0150   42.9870 O   0  0  0  0  0  0  0  0  0  0  0  0
   58.1560   29.9070   45.4280 C   0  0  0  0  0  0  0  0  0  0  0  0
   58.6900   31.0000   46.1250 C   0  0  0  0  0  0  0  0  0  0  0  0
   59.8300   30.8660   46.8520 N   0  0  0  0  0  0  0  0  0  0  0  0
   60.4900   29.6830   46.9330 C   0  0  0  0  0  0  0  0  0  0  0  0
   59.9970   28.5600   46.2680 C   0  0  0  0  0  0  0  0  0  0  0  0
   58.8160   28.6580   45.5180 C   0  0  0  0  0  0  0  0  0  0  0  0
   58.3010   27.4430   44.8530 C   0  0  0  0  0  0  0  0  0  0  0  0
   58.3540   27.3330   43.4540 C   0  0  0  0  0  0  0  0  0  0  0  0
   57.8730   26.1860   42.8170 C   0  0  0  0  0  0  0  0  0  0  0  0
   57.3450   25.1340   43.5710 C   0  0  0  0  0  0  0  0  0  0  0  0
   56.8740   24.0180   42.9530 N   0  0  0  0  0  0  0  0  0  0  0  0
   56.3570   22.9740   43.6570 C   0  0  0  0  0  0  0  0  0  0  0  0
   56.2970   23.0300   45.0510 C   0  0  0  0  0  0  0  0  0  0  0  0
   56.7730   24.1620   45.7170 C   0  0  0  0  0  0  0  0  0  0  0  0
   57.3020   25.2300   44.9800 C   0  0  0  0  0  0  0  0  0  0  0  0
   57.7870   26.3820   45.6150 C   0  0  0  0  0  0  0  0  0  0  0  0
   54.8900   29.3780   45.5680 H   0  0  0  0  0  0  0  0  0  0  0  0
   58.1816   31.9746   46.0829 H   0  0  0  0  0  0  0  0  0  0  0  0
   61.4150   29.6094   47.5238 H   0  0  0  0  0  0  0  0  0  0  0  0
   60.5326   27.6013   46.3317 H   0  0  0  0  0  0  0  0  0  0  0  0
   58.7764   28.1542   42.8563 H   0  0  0  0  0  0  0  0  0  0  0  0
   57.9099   26.1108   41.7202 H   0  0  0  0  0  0  0  0  0  0  0  0
   55.9858   22.0846   43.1268 H   0  0  0  0  0  0  0  0  0  0  0  0
   55.8775   22.1880   45.6211 H   0  0  0  0  0  0  0  0  0  0  0  0
   56.7327   24.2147   46.8150 H   0  0  0  0  0  0  0  0  0  0  0  0
   57.7647   26.4546   46.7124 H   0  0  0  0  0  0  0  0  0  0  0  0
  1  2  1  0
  2  3  2  0
  2  4  2  0
  2  5  1  0
  5  6  2  0
  6  7  1  0
  7  8  2  0
  8  9  1  0
  9 10  2  0
 10 11  1  0
 11 12  2  0
 12 13  1  0
 13 14  2  0
 14 15  1  0
 15 16  2  0
 16 17  1  0
 17 18  2  0
 18 19  1  0
 19 20  2  0
 10  5  1  0
 20 11  1  0
 19 14  1  0
  1 21  1  0
  6 22  1  0
  8 23  1  0
  9 24  1  0
 12 25  1  0
 13 26  1  0
 16 27  1  0
 17 28  1  0
 18 29  1  0
 20 30  1  0
M  CHG  1   1  -1
M  END
>  <UniqueID>  (15) 
13

>  <SMILES>  (15) 
[NH-]S(=O)(=O)c1cnccc1-c1ccc2ncccc2c1

>  <Energy>  (15) 
45.15639452407234

>  <Genealogy>  (15) 
[NH-]S(=O)(=O)c1cnccc1-c1ccc2ncccc2c1 (protonated)
[NH-]S(=O)(=O)c1cnccc1-c1ccc2ncccc2c1 (3D coordinates assigned)
[NH-]S(=O)(=O)c1cnccc1-c1ccc2ncccc2c1 (optimized conformer: 45.15639452407234 kcal/mol)

>  <smiles>  (15) 
NS(=O)(=O)c1cnccc1-c1ccc2ncccc2c1

>  <score_type>  (15) 
oracle

>  <origin>  (15) 
adg

>  <m_score__min__energy>  (15) 
-10.19

>  <m_primary>  (15) 
energy

$$$$
15:0
     RDKit          3D

 54 57  0  0  0  0  0  0  0  0999 V2000
   54.8951   29.7280   43.7737 H   0  0  0  0  0  0  0  0  0  0  0  0
   55.9300   29.9760   44.0520 C   0  0  0  0  0  0  0  0  0  0  0  0
   56.2970   31.0350   44.8020 N   0  0  0  0  0  0  0  0  0  0  0  0
   57.6140   30.9970   44.9400 N   0  0  0  0  0  0  0  0  0  0  0  0
   58.4030   32.0310   45.6220 C   0  0  0  0  0  0  0  0  0  0  0  0
   59.4132   31.6337   45.7997 H   0  0  0  0  0  0  0  0  0  0  0  0
   57.8010   32.3790   46.9880 C   0  0  0  0  0  0  0  0  0  0  0  0
   57.7321   31.4647   47.5956 H   0  0  0  0  0  0  0  0  0  0  0  0
   56.8013   32.8114   46.8339 H   0  0  0  0  0  0  0  0  0  0  0  0
   58.6800   33.4120   47.7250 C   0  0  0  0  0  0  0  0  0  0  0  0
   59.4776   32.8705   48.2547 H   0  0  0  0  0  0  0  0  0  0  0  0
   58.0148   33.9644   48.4049 H   0  0  0  0  0  0  0  0  0  0  0  0
   59.3140   34.4220   46.8340 N   0  0  0  0  0  0  0  0  0  0  0  0
   60.7710   34.2100   46.6680 C   0  0  0  0  0  0  0  0  0  0  0  0
   61.2191   35.1163   46.2346 H   0  0  0  0  0  0  0  0  0  0  0  0
   60.9256   33.3473   46.0033 H   0  0  0  0  0  0  0  0  0  0  0  0
   61.4310   33.9190   47.9940 C   0  0  0  0  0  0  0  0  0  0  0  0
   60.8910   34.4530   49.1760 C   0  0  0  0  0  0  0  0  0  0  0  0
   59.9925   35.0860   49.1295 H   0  0  0  0  0  0  0  0  0  0  0  0
   61.4880   34.1850   50.4090 C   0  0  0  0  0  0  0  0  0  0  0  0
   61.0601   34.6079   51.3299 H   0  0  0  0  0  0  0  0  0  0  0  0
   62.6260   33.3820   50.4750 C   0  0  0  0  0  0  0  0  0  0  0  0
   63.0958   33.1747   51.4478 H   0  0  0  0  0  0  0  0  0  0  0  0
   63.1710   32.8400   49.3080 C   0  0  0  0  0  0  0  0  0  0  0  0
   64.0681   32.2062   49.3671 H   0  0  0  0  0  0  0  0  0  0  0  0
   62.5790   33.1000   48.0560 C   0  0  0  0  0  0  0  0  0  0  0  0
   63.0970   32.5660   46.8650 O   0  0  0  0  0  0  0  0  0  0  0  0
   63.7680   31.3150   46.7650 C   0  0  0  0  0  0  0  0  0  0  0  0
   63.9753   30.9285   47.7738 H   0  0  0  0  0  0  0  0  0  0  0  0
   63.1322   30.6003   46.2220 H   0  0  0  0  0  0  0  0  0  0  0  0
   64.7151   31.4493   46.2220 H   0  0  0  0  0  0  0  0  0  0  0  0
   58.6000   34.5920   45.5490 C   0  0  0  0  0  0  0  0  0  0  0  0
   59.1289   35.3483   44.9505 H   0  0  0  0  0  0  0  0  0  0  0  0
   57.5703   34.9019   45.7809 H   0  0  0  0  0  0  0  0  0  0  0  0
   58.5190   33.2850   44.7320 C   0  0  0  0  0  0  0  0  0  0  0  0
   59.4274   33.1974   44.1178 H   0  0  0  0  0  0  0  0  0  0  0  0
   57.6115   33.3370   44.1126 H   0  0  0  0  0  0  0  0  0  0  0  0
   58.0990   29.9380   44.2640 C   0  0  0  0  0  0  0  0  0  0  0  0
   59.3730   29.6810   44.1670 N   0  0  0  0  0  0  0  0  0  0  0  0
   60.2450   29.0840   45.1420 C   0  0  0  0  0  0  0  0  0  0  0  0
   61.1720   28.3150   44.7760 O   0  0  0  0  0  0  0  0  0  0  0  0
   60.0040   29.3440   46.5890 C   0  0  0  0  0  0  0  0  0  0  0  0
   60.7820   30.3260   47.2400 C   0  0  0  0  0  0  0  0  0  0  0  0
   61.5486   30.8743   46.6728 H   0  0  0  0  0  0  0  0  0  0  0  0
   60.5920   30.6110   48.5940 C   0  0  0  0  0  0  0  0  0  0  0  0
   61.2057   31.3812   49.0842 H   0  0  0  0  0  0  0  0  0  0  0  0
   59.6270   29.9220   49.3250 C   0  0  0  0  0  0  0  0  0  0  0  0
   59.4769   30.1507   50.3904 H   0  0  0  0  0  0  0  0  0  0  0  0
   58.8510   28.9420   48.7060 C   0  0  0  0  0  0  0  0  0  0  0  0
   58.0929   28.3986   49.2891 H   0  0  0  0  0  0  0  0  0  0  0  0
   59.0280   28.6430   47.3480 C   0  0  0  0  0  0  0  0  0  0  0  0
   58.0270   27.3550   46.6810 Cl  0  0  0  0  0  0  0  0  0  0  0  0
   57.0480   29.2470   43.6840 C   0  0  0  0  0  0  0  0  0  0  0  0
   57.0914   28.3328   43.0737 H   0  0  0  0  0  0  0  0  0  0  0  0
  1  2  1  0
  2  3  1  0
  3  4  1  0
  4  5  1  0
  5  6  1  0
  5  7  1  0
  7  8  1  0
  7  9  1  0
  7 10  1  0
 10 11  1  0
 10 12  1  0
 10 13  1  0
 13 14  1  0
 14 15  1  0
 14 16  1  0
 14 17  1  0
 17 18  2  0
 18 19  1  0
 18 20  1  0
 20 21  1  0
 20 22  2  0
 22 23  1  0
 22 24  1  0
 24 25  1  0
 24 26  2  0
 26 27  1  0
 27 28  1  0
 28 29  1  0
 28 30  1  0
 28 31  1  0
 13 32  1  0
 32 33  1  0
 32 34  1  0
 32 35  1  0
 35 36  1  0
 35 37  1  0
  4 38  1  0
 38 39  2  0
 39 40  1  0
 40 41  2  0
 40 42  1  0
 42 43  2  0
 43 44  1  0
 43 45  1  0
 45 46  1  0
 45 47  2  0
 47 48  1  0
 47 49  1  0
 49 50  1  0
 49 51  2  0
 51 52  1  0
 38 53  1  0
 53 54  1  0
 53  2  2  0
 35  5  1  0
 51 42  1  0
 26 17  1  0
M  CHG  1   3  -1
M  END
>  <UniqueID>  (16) 
14

>  <SMILES>  (16) 
COc1ccccc1CN1CCC(n2[n-]cc/c2=N\C(=O)c2ccccc2Cl)CC1

>  <Energy>  (16) 
105.4023247515696

>  <Genealogy>  (16) 
COc1ccccc1CN1CCC(n2[n-]ccc2=NC(=O)c2ccccc2Cl)CC1 (protonated)
COc1ccccc1CN1CCC(n2[n-]cc/c2=N\C(=O)c2ccccc2Cl)CC1 (cis-trans isomerization)
COc1ccccc1CN1CCC(n2[n-]cc/c2=N\C(=O)c2ccccc2Cl)CC1 (3D coordinates assigned)
COc1ccccc1CN1CCC(n2[n-]cc/c2=N\C(=O)c2ccccc2Cl)CC1 (nonaromatic ring conformer: 105.4023247515696 kcal/mol)

>  <smiles>  (16) 
COc1ccccc1CN1CCC(n2[nH]ccc2=NC(=O)c2ccccc2Cl)CC1

>  <score_type>  (16) 
oracle

>  <origin>  (16) 
adg

>  <m_score__min__energy>  (16) 
-10.390000000000001

>  <m_primary>  (16) 
energy

$$$$
16:0
     RDKit          3D

 37 39  0  0  0  0  0  0  0  0999 V2000
   58.0630   31.7230   46.3280 C   0  0  0  0  0  0  0  0  0  0  0  0
   58.4590   30.3170   45.9300 C   0  0  0  0  0  0  0  0  0  0  0  0
   59.7320   29.7990   46.2850 C   0  0  0  0  0  0  0  0  0  0  0  0
   60.6650   30.5260   47.1770 C   0  0  0  0  0  0  0  0  0  0  0  0
   61.2760   31.7130   46.7470 C   0  0  0  0  0  0  0  0  0  0  0  0
   62.1660   32.3930   47.5820 C   0  0  0  0  0  0  0  0  0  0  0  0
   62.4680   31.8930   48.8630 C   0  0  0  0  0  0  0  0  0  0  0  0
   63.4150   32.6160   49.7510 C   0  0  0  0  0  0  0  0  0  0  0  0
   64.7920   32.3250   49.7170 C   0  0  0  0  0  0  0  0  0  0  0  0
   65.6810   33.0080   50.5530 C   0  0  0  0  0  0  0  0  0  0  0  0
   65.2070   33.9840   51.4310 C   0  0  0  0  0  0  0  0  0  0  0  0
   63.8430   34.2810   51.4760 C   0  0  0  0  0  0  0  0  0  0  0  0
   62.9490   33.6030   50.6410 C   0  0  0  0  0  0  0  0  0  0  0  0
   61.8630   30.6960   49.2850 C   0  0  0  0  0  0  0  0  0  0  0  0
   60.9730   30.0170   48.4490 C   0  0  0  0  0  0  0  0  0  0  0  0
   60.1290   28.5520   45.7890 C   0  0  0  0  0  0  0  0  0  0  0  0
   59.2640   27.8170   44.9870 C   0  0  0  0  0  0  0  0  0  0  0  0
   58.0270   28.2930   44.6980 N   0  0  0  0  0  0  0  0  0  0  0  0
   57.5860   29.5020   45.1590 C   0  0  0  0  0  0  0  0  0  0  0  0
   56.1940   29.9080   44.8390 C   0  0  0  0  0  0  0  0  0  0  0  0
   55.9480   31.0940   44.4950 O   0  0  0  0  0  0  0  0  0  0  0  0
   55.1550   28.9850   44.8580 O   0  0  0  0  0  0  0  0  0  0  0  0
   58.0410   31.8011   47.4250 H   0  0  0  0  0  0  0  0  0  0  0  0
   58.7946   32.4382   45.9241 H   0  0  0  0  0  0  0  0  0  0  0  0
   57.0656   31.9512   45.9241 H   0  0  0  0  0  0  0  0  0  0  0  0
   61.0530   32.1110   45.7461 H   0  0  0  0  0  0  0  0  0  0  0  0
   62.6344   33.3262   47.2360 H   0  0  0  0  0  0  0  0  0  0  0  0
   65.1711   31.5555   49.0284 H   0  0  0  0  0  0  0  0  0  0  0  0
   66.7556   32.7756   50.5186 H   0  0  0  0  0  0  0  0  0  0  0  0
   65.9081   34.5196   52.0879 H   0  0  0  0  0  0  0  0  0  0  0  0
   63.4711   35.0496   52.1695 H   0  0  0  0  0  0  0  0  0  0  0  0
   61.8760   33.8420   50.6796 H   0  0  0  0  0  0  0  0  0  0  0  0
   62.0923   30.2908   50.2816 H   0  0  0  0  0  0  0  0  0  0  0  0
   60.5110   29.0785   48.7891 H   0  0  0  0  0  0  0  0  0  0  0  0
   61.1248   28.1539   46.0337 H   0  0  0  0  0  0  0  0  0  0  0  0
   59.5840   26.8445   44.5846 H   0  0  0  0  0  0  0  0  0  0  0  0
   57.3990   27.6900   44.1190 H   0  0  0  0  0  0  0  0  0  0  0  0
  1  2  1  0
  2  3  2  0
  3  4  1  0
  4  5  2  0
  5  6  1  0
  6  7  2  0
  7  8  1  0
  8  9  2  0
  9 10  1  0
 10 11  2  0
 11 12  1  0
 12 13  2  0
  7 14  1  0
 14 15  2  0
  3 16  1  0
 16 17  2  0
 17 18  1  0
 18 19  2  0
 19 20  1  0
 20 21  2  0
 20 22  1  0
 19  2  1  0
 15  4  1  0
 13  8  1  0
  1 23  1  0
  1 24  1  0
  1 25  1  0
  5 26  1  0
  6 27  1  0
  9 28  1  0
 10 29  1  0
 11 30  1  0
 12 31  1  0
 13 32  1  0
 14 33  1  0
 15 34  1  0
 16 35  1  0
 17 36  1  0
 18 37  1  0
M  CHG  2  18   1  22  -1
M  END
>  <UniqueID>  (17) 
15

>  <SMILES>  (17) 
Cc1c(-c2ccc(-c3ccccc3)cc2)cc[nH+]c1C(=O)[O-]

>  <Energy>  (17) 
58.45209561775549

>  <Genealogy>  (17) 
Cc1c(-c2ccc(-c3ccccc3)cc2)cc[nH+]c1C(=O)[O-] (protonated)
Cc1c(-c2ccc(-c3ccccc3)cc2)cc[nH+]c1C(=O)[O-] (3D coordinates assigned)
Cc1c(-c2ccc(-c3ccccc3)cc2)cc[nH+]c1C(=O)[O-] (optimized conformer: 58.45209561775549 kcal/mol)

>  <smiles>  (17) 
Cc1c(-c2ccc(-c3ccccc3)cc2)ccnc1C(=O)O

>  <score_type>  (17) 
oracle

>  <origin>  (17) 
adg

>  <m_score__min__energy>  (17) 
-7.8300000000000001

>  <m_primary>  (17) 
energy

$$$$
17:0
     RDKit          3D

 40 42  0  0  0  0  0  0  0  0999 V2000
   61.1950   30.5660   47.2840 C   0  0  0  0  0  0  0  0  0  0  0  0
   61.9860   31.7300   47.0630 O   0  0  0  0  0  0  0  0  0  0  0  0
   62.5140   32.5400   48.0800 C   0  0  0  0  0  0  0  0  0  0  0  0
   63.7680   32.2720   48.6660 C   0  0  0  0  0  0  0  0  0  0  0  0
   64.2560   33.0830   49.6940 C   0  0  0  0  0  0  0  0  0  0  0  0
   63.5040   34.1660   50.1480 C   0  0  0  0  0  0  0  0  0  0  0  0
   62.2630   34.4450   49.5730 C   0  0  0  0  0  0  0  0  0  0  0  0
   61.7610   33.6410   48.5360 C   0  0  0  0  0  0  0  0  0  0  0  0
   60.4890   33.9590   47.9450 N   0  0  0  0  0  0  0  0  0  0  0  0
   60.4210   34.7120   46.6880 C   0  0  0  0  0  0  0  0  0  0  0  0
   59.6710   33.9080   45.6070 C   0  0  0  0  0  0  0  0  0  0  0  0
   58.6970   32.9350   46.1710 N   0  0  0  0  0  0  0  0  0  0  0  0
   57.6440   32.6330   45.2230 C   0  0  0  0  0  0  0  0  0  0  0  0
   56.9740   33.5800   44.7260 O   0  0  0  0  0  0  0  0  0  0  0  0
   57.3190   31.2470   44.8150 C   0  0  0  0  0  0  0  0  0  0  0  0
   56.8570   30.8630   43.5680 C   0  0  0  0  0  0  0  0  0  0  0  0
   56.6860   29.4970   43.6350 C   0  0  0  0  0  0  0  0  0  0  0  0
   57.0520   29.1360   44.9140 C   0  0  0  0  0  0  0  0  0  0  0  0
   57.0310   27.3640   45.6160 Br  0  0  0  0  0  0  0  0  0  0  0  0
   57.4230   30.1950   45.5930 O   0  0  0  0  0  0  0  0  0  0  0  0
   58.1390   33.3660   47.4720 C   0  0  0  0  0  0  0  0  0  0  0  0
   59.2520   33.4240   48.5280 C   0  0  0  0  0  0  0  0  0  0  0  0
   61.0818   30.3995   48.3654 H   0  0  0  0  0  0  0  0  0  0  0  0
   60.2033   30.7047   46.8286 H   0  0  0  0  0  0  0  0  0  0  0  0
   61.6890   29.6951   46.8286 H   0  0  0  0  0  0  0  0  0  0  0  0
   64.3659   31.4193   48.3118 H   0  0  0  0  0  0  0  0  0  0  0  0
   65.2352   32.8667   50.1460 H   0  0  0  0  0  0  0  0  0  0  0  0
   63.8889   34.8008   50.9597 H   0  0  0  0  0  0  0  0  0  0  0  0
   61.6738   35.3007   49.9345 H   0  0  0  0  0  0  0  0  0  0  0  0
   59.8919   35.6602   46.8640 H   0  0  0  0  0  0  0  0  0  0  0  0
   61.4455   34.9042   46.3367 H   0  0  0  0  0  0  0  0  0  0  0  0
   59.1269   34.6130   44.9613 H   0  0  0  0  0  0  0  0  0  0  0  0
   60.4226   33.3315   45.0478 H   0  0  0  0  0  0  0  0  0  0  0  0
   59.2200   32.0420   46.3480 H   0  0  0  0  0  0  0  0  0  0  0  0
   56.6657   31.5138   42.7021 H   0  0  0  0  0  0  0  0  0  0  0  0
   56.3309   28.8324   42.8336 H   0  0  0  0  0  0  0  0  0  0  0  0
   57.6885   34.3635   47.3625 H   0  0  0  0  0  0  0  0  0  0  0  0
   57.3738   32.6441   47.7934 H   0  0  0  0  0  0  0  0  0  0  0  0
   58.9317   34.0738   49.3557 H   0  0  0  0  0  0  0  0  0  0  0  0
   59.4448   32.4058   48.8969 H   0  0  0  0  0  0  0  0  0  0  0  0
  1  2  1  0
  2  3  1  0
  3  4  2  0
  4  5  1  0
  5  6  2  0
  6  7  1  0
  7  8  2  0
  8  9  1  0
  9 10  1  0
 10 11  1  0
 11 12  1  0
 12 13  1  0
 13 14  2  0
 13 15  1  0
 15 16  2  0
 16 17  1  0
 17 18  2  0
 18 19  1  0
 18 20  1  0
 12 21  1  0
 21 22  1  0
  8  3  1  0
 22  9  1  0
 20 15  1  0
  1 23  1  0
  1 24  1  0
  1 25  1  0
  4 26  1  0
  5 27  1  0
  6 28  1  0
  7 29  1  0
 10 30  1  0
 10 31  1  0
 11 32  1  0
 11 33  1  0
 12 34  1  0
 16 35  1  0
 17 36  1  0
 21 37  1  0
 21 38  1  0
 22 39  1  0
 22 40  1  0
M  CHG  1  12   1
M  END
>  <UniqueID>  (18) 
16

>  <SMILES>  (18) 
COc1ccccc1N1CC[NH+](C(=O)c2ccc(Br)o2)CC1

>  <Energy>  (18) 
79.86393393760298

>  <Genealogy>  (18) 
COc1ccccc1N1CC[NH+](C(=O)c2ccc(Br)o2)CC1 (protonated)
COc1ccccc1N1CC[NH+](C(=O)c2ccc(Br)o2)CC1 (3D coordinates assigned)
COc1ccccc1N1CC[NH+](C(=O)c2ccc(Br)o2)CC1 (nonaromatic ring conformer: 79.86393393760298 kcal/mol)

>  <smiles>  (18) 
COc1ccccc1N1CCN(C(=O)c2ccc(Br)o2)CC1

>  <score_type>  (18) 
oracle

>  <origin>  (18) 
adg

>  <m_score__min__energy>  (18) 
-5.5099999999999998

>  <m_primary>  (18) 
energy

$$$$
18:0
     RDKit          3D

 72 74  0  0  0  0  0  0  0  0999 V2000
   62.6191   30.3029   51.5032 H   0  0  0  0  0  0  0  0  0  0  0  0
   62.8600   31.3760   51.4820 C   0  0  0  0  0  0  0  0  0  0  0  0
   61.9590   32.2660   51.9240 C   0  0  0  0  0  0  0  0  0  0  0  0
   62.3155   33.2292   52.3179 H   0  0  0  0  0  0  0  0  0  0  0  0
   60.4680   31.9940   51.9010 C   0  0  0  0  0  0  0  0  0  0  0  0
   60.1018   32.0107   52.9381 H   0  0  0  0  0  0  0  0  0  0  0  0
   60.3404   31.0183   51.4093 H   0  0  0  0  0  0  0  0  0  0  0  0
   59.6580   32.9750   51.1050 N   0  0  0  0  0  0  0  0  0  0  0  0
   60.5670   33.8550   50.3240 C   0  0  0  0  0  0  0  0  0  0  0  0
   61.1826   34.4509   51.0139 H   0  0  0  0  0  0  0  0  0  0  0  0
   61.2202   33.2373   49.6902 H   0  0  0  0  0  0  0  0  0  0  0  0
   59.9708   34.5279   49.6902 H   0  0  0  0  0  0  0  0  0  0  0  0
   58.8470   33.8010   52.0310 C   0  0  0  0  0  0  0  0  0  0  0  0
   59.1003   33.5430   53.0699 H   0  0  0  0  0  0  0  0  0  0  0  0
   59.0603   34.8657   51.8551 H   0  0  0  0  0  0  0  0  0  0  0  0
   57.7786   33.6072   51.8551 H   0  0  0  0  0  0  0  0  0  0  0  0
   58.7560   32.1650   50.2090 C   0  0  0  0  0  0  0  0  0  0  0  0
   58.3451   32.8530   49.4555 H   0  0  0  0  0  0  0  0  0  0  0  0
   58.0305   31.7105   50.8997 H   0  0  0  0  0  0  0  0  0  0  0  0
   59.3630   30.9460   49.4380 C   0  0  0  0  0  0  0  0  0  0  0  0
   58.7145   30.7326   48.5755 H   0  0  0  0  0  0  0  0  0  0  0  0
   59.4154   30.1222   50.1650 H   0  0  0  0  0  0  0  0  0  0  0  0
   60.7990   31.1450   48.9160 C   0  0  0  0  0  0  0  0  0  0  0  0
   61.4678   30.4492   49.4438 H   0  0  0  0  0  0  0  0  0  0  0  0
   61.0847   32.1910   49.1009 H   0  0  0  0  0  0  0  0  0  0  0  0
   60.9010   30.8980   47.4790 N   0  0  0  0  0  0  0  0  0  0  0  0
   61.7360   30.3880   47.1030 H   0  0  0  0  0  0  0  0  0  0  0  0
   59.7340   30.9440   46.6400 C   0  0  0  0  0  0  0  0  0  0  0  0
   59.3270   32.1510   46.0430 C   0  0  0  0  0  0  0  0  0  0  0  0
   60.0350   33.3520   46.2620 C   0  0  0  0  0  0  0  0  0  0  0  0
   60.9690   33.3334   46.8427 H   0  0  0  0  0  0  0  0  0  0  0  0
   59.5670   34.5590   45.7530 C   0  0  0  0  0  0  0  0  0  0  0  0
   60.1273   35.4878   45.9356 H   0  0  0  0  0  0  0  0  0  0  0  0
   58.3900   34.5900   45.0130 C   0  0  0  0  0  0  0  0  0  0  0  0
   57.9970   35.5509   44.6494 H   0  0  0  0  0  0  0  0  0  0  0  0
   57.7060   33.4090   44.7300 C   0  0  0  0  0  0  0  0  0  0  0  0
   56.7794   33.4475   44.1385 H   0  0  0  0  0  0  0  0  0  0  0  0
   58.1880   32.1580   45.1940 C   0  0  0  0  0  0  0  0  0  0  0  0
   57.5800   30.9670   44.8400 N   0  0  0  0  0  0  0  0  0  0  0  0
   56.6480   30.9290   43.6930 C   0  0  0  0  0  0  0  0  0  0  0  0
   55.6129   30.8868   44.0629 H   0  0  0  0  0  0  0  0  0  0  0  0
   56.7822   31.8334   43.0814 H   0  0  0  0  0  0  0  0  0  0  0  0
   56.8554   30.0386   43.0814 H   0  0  0  0  0  0  0  0  0  0  0  0
   57.8910   29.8030   45.5180 C   0  0  0  0  0  0  0  0  0  0  0  0
   57.1280   28.6210   45.3500 C   0  0  0  0  0  0  0  0  0  0  0  0
   56.2575   28.6354   44.6777 H   0  0  0  0  0  0  0  0  0  0  0  0
   57.4560   27.4310   46.0210 C   0  0  0  0  0  0  0  0  0  0  0  0
   56.6810   26.2360   45.8120 N   0  0  0  0  0  0  0  0  0  0  0  0
   57.2330   25.1830   45.4300 O   0  0  0  0  0  0  0  0  0  0  0  0
   55.3190   26.2420   46.0030 O   0  0  0  0  0  0  0  0  0  0  0  0
   58.5450   27.4240   46.8970 C   0  0  0  0  0  0  0  0  0  0  0  0
   58.8112   26.4995   47.4304 H   0  0  0  0  0  0  0  0  0  0  0  0
   59.2950   28.5790   47.0990 C   0  0  0  0  0  0  0  0  0  0  0  0
   60.1435   28.5583   47.7987 H   0  0  0  0  0  0  0  0  0  0  0  0
   58.9840   29.7740   46.4210 C   0  0  0  0  0  0  0  0  0  0  0  0
   64.1950   31.8270   50.9580 C   0  0  0  0  0  0  0  0  0  0  0  0
   64.4593   32.7890   51.4214 H   0  0  0  0  0  0  0  0  0  0  0  0
   64.9495   31.0659   51.2060 H   0  0  0  0  0  0  0  0  0  0  0  0
   64.1480   31.9900   49.5030 N   0  0  0  0  0  0  0  0  0  0  0  0
   63.2220   31.6350   49.1700 H   0  0  0  0  0  0  0  0  0  0  0  0
   64.2330   33.4150   49.1600 C   0  0  0  0  0  0  0  0  0  0  0  0
   64.0884   34.0122   50.0724 H   0  0  0  0  0  0  0  0  0  0  0  0
   65.2231   33.6074   48.7210 H   0  0  0  0  0  0  0  0  0  0  0  0
   63.1640   33.8070   48.1320 C   0  0  0  0  0  0  0  0  0  0  0  0
   62.1725   33.5991   48.5607 H   0  0  0  0  0  0  0  0  0  0  0  0
   63.2988   34.8755   47.9083 H   0  0  0  0  0  0  0  0  0  0  0  0
   63.2950   33.0410   46.8090 C   0  0  0  0  0  0  0  0  0  0  0  0
   62.3636   33.1542   46.2348 H   0  0  0  0  0  0  0  0  0  0  0  0
   64.1472   33.4540   46.2494 H   0  0  0  0  0  0  0  0  0  0  0  0
   63.5400   31.6210   47.0450 N   0  0  0  0  0  0  0  0  0  0  0  0
   64.5230   31.5110   47.3900 H   0  0  0  0  0  0  0  0  0  0  0  0
   62.9170   31.3180   47.8280 H   0  0  0  0  0  0  0  0  0  0  0  0
  1  2  1  0
  2  3  2  0
  3  4  1  0
  3  5  1  0
  5  6  1  0
  5  7  1  0
  5  8  1  0
  8  9  1  0
  9 10  1  0
  9 11  1  0
  9 12  1  0
  8 13  1  0
 13 14  1  0
 13 15  1  0
 13 16  1  0
  8 17  1  0
 17 18  1  0
 17 19  1  0
 17 20  1  0
 20 21  1  0
 20 22  1  0
 20 23  1  0
 23 24  1  0
 23 25  1  0
 23 26  1  0
 26 27  1  0
 26 28  1  0
 28 29  2  0
 29 30  1  0
 30 31  1  0
 30 32  2  0
 32 33  1  0
 32 34  1  0
 34 35  1  0
 34 36  2  0
 36 37  1  0
 36 38  1  0
 38 39  2  0
 39 40  1  0
 40 41  1  0
 40 42  1  0
 40 43  1  0
 39 44  1  0
 44 45  2  0
 45 46  1  0
 45 47  1  0
 47 48  1  0
 48 49  2  0
 48 50  1  0
 47 51  2  0
 51 52  1  0
 51 53  1  0
 53 54  1  0
 53 55  2  0
  2 56  1  0
 56 57  1  0
 56 58  1  0
 56 59  1  0
 59 60  1  0
 59 61  1  0
 61 62  1  0
 61 63  1  0
 61 64  1  0
 64 65  1  0
 64 66  1  0
 64 67  1  0
 67 68  1  0
 67 69  1  0
 67 70  1  0
 70 71  1  0
 70 72  1  0
 55 28  1  0
 38 29  1  0
 55 44  1  0
M  CHG  4   8   1  39   1  48   1  50  -1
M  END
>  <UniqueID>  (19) 
17

>  <SMILES>  (19) 
C[n+]1c2ccccc2c(NCCC[N+](C)(C)C/C=C/CNCCCN)c2ccc([N+](=O)[O-])cc21

>  <Energy>  (19) 
110.50940997296371

>  <Genealogy>  (19) 
C[n+]1c2ccccc2c(NCCC[N+](C)(C)C/C=C/CNCCCN)c2ccc([N+](=O)[O-])cc21 (cis-trans isomerization)
C[n+]1c2ccccc2c(NCCC[N+](C)(C)C/C=C/CNCCCN)c2ccc([N+](=O)[O-])cc21 (3D coordinates assigned)
C[n+]1c2ccccc2c(NCCC[N+](C)(C)C/C=C/CNCCCN)c2ccc([N+](=O)[O-])cc21 (optimized conformer: 110.50940997296371 kcal/mol)

>  <smiles>  (19) 
C[n+]1c2ccccc2c(NCCC[N+](C)(C)CC=CCNCCCN)c2ccc([N+](=O)[O-])cc21

>  <score_type>  (19) 
oracle

>  <origin>  (19) 
adg

>  <m_score__min__energy>  (19) 
-5.9900000000000002

>  <m_primary>  (19) 
energy

$$$$
19:0
     RDKit          3D

 37 38  0  0  0  0  0  0  0  0999 V2000
   60.3770   29.6180   48.8260 C   0  0  0  0  0  0  0  0  0  0  0  0
   60.2900   30.5450   47.7480 O   0  0  0  0  0  0  0  0  0  0  0  0
   61.2020   31.5880   47.5180 C   0  0  0  0  0  0  0  0  0  0  0  0
   62.4980   31.5790   48.0730 C   0  0  0  0  0  0  0  0  0  0  0  0
   63.3600   32.6600   47.8730 C   0  0  0  0  0  0  0  0  0  0  0  0
   62.9390   33.7620   47.1280 C   0  0  0  0  0  0  0  0  0  0  0  0
   61.6610   33.7800   46.5660 C   0  0  0  0  0  0  0  0  0  0  0  0
   60.7970   32.6890   46.7330 C   0  0  0  0  0  0  0  0  0  0  0  0
   59.4890   32.7370   46.1450 N   0  0  0  0  0  0  0  0  0  0  0  0
   58.8330   33.9690   45.8100 C   0  0  0  0  0  0  0  0  0  0  0  0
   59.2430   35.0570   46.3010 O   0  0  0  0  0  0  0  0  0  0  0  0
   57.6090   33.9540   44.9360 C   0  0  0  0  0  0  0  0  0  0  0  0
   57.4080   32.5990   44.2540 C   0  0  0  0  0  0  0  0  0  0  0  0
   56.9450   31.6140   45.2300 N   0  0  0  0  0  0  0  0  0  0  0  0
   56.8160   30.0520   44.4830 S   0  0  0  0  0  0  0  0  0  0  0  0
   56.8570   30.2090   42.9890 O   0  0  0  0  0  0  0  0  0  0  0  0
   55.5180   29.4000   44.8720 O   0  0  0  0  0  0  0  0  0  0  0  0
   58.1630   29.0480   44.9900 C   0  0  0  0  0  0  0  0  0  0  0  0
   59.5020   29.3760   44.8570 C   0  0  0  0  0  0  0  0  0  0  0  0
   60.3570   28.3740   45.3330 C   0  0  0  0  0  0  0  0  0  0  0  0
   59.6880   27.2670   45.8420 C   0  0  0  0  0  0  0  0  0  0  0  0
   58.0320   27.5320   45.6990 S   0  0  0  0  0  0  0  0  0  0  0  0
   60.3261   30.1608   49.7814 H   0  0  0  0  0  0  0  0  0  0  0  0
   59.5418   28.9047   48.7645 H   0  0  0  0  0  0  0  0  0  0  0  0
   61.3303   29.0726   48.7645 H   0  0  0  0  0  0  0  0  0  0  0  0
   62.8324   30.7157   48.6670 H   0  0  0  0  0  0  0  0  0  0  0  0
   64.3721   32.6423   48.3035 H   0  0  0  0  0  0  0  0  0  0  0  0
   63.6148   34.6178   46.9832 H   0  0  0  0  0  0  0  0  0  0  0  0
   61.3301   34.6558   45.9886 H   0  0  0  0  0  0  0  0  0  0  0  0
   58.9450   31.8480   46.0690 H   0  0  0  0  0  0  0  0  0  0  0  0
   56.7273   34.1738   45.5559 H   0  0  0  0  0  0  0  0  0  0  0  0
   57.7428   34.7129   44.1510 H   0  0  0  0  0  0  0  0  0  0  0  0
   56.6589   32.7005   43.4549 H   0  0  0  0  0  0  0  0  0  0  0  0
   58.3645   32.2633   43.8269 H   0  0  0  0  0  0  0  0  0  0  0  0
   59.8563   30.3229   44.4236 H   0  0  0  0  0  0  0  0  0  0  0  0
   61.4537   28.4553   45.3066 H   0  0  0  0  0  0  0  0  0  0  0  0
   60.1610   26.3692   46.2666 H   0  0  0  0  0  0  0  0  0  0  0  0
  1  2  1  0
  2  3  1  0
  3  4  2  0
  4  5  1  0
  5  6  2  0
  6  7  1  0
  7  8  2  0
  8  9  1  0
  9 10  1  0
 10 11  2  0
 10 12  1  0
 12 13  1  0
 13 14  1  0
 14 15  1  0
 15 16  2  0
 15 17  2  0
 15 18  1  0
 18 19  2  0
 19 20  1  0
 20 21  2  0
 21 22  1  0
  8  3  1  0
 22 18  1  0
  1 23  1  0
  1 24  1  0
  1 25  1  0
  4 26  1  0
  5 27  1  0
  6 28  1  0
  7 29  1  0
  9 30  1  0
 12 31  1  0
 12 32  1  0
 13 33  1  0
 13 34  1  0
 19 35  1  0
 20 36  1  0
 21 37  1  0
M  CHG  1  14  -1
M  END
>  <UniqueID>  (20) 
18

>  <SMILES>  (20) 
COc1ccccc1NC(=O)CC[N-]S(=O)(=O)c1cccs1

>  <Energy>  (20) 
61.44792529093144

>  <Genealogy>  (20) 
COc1ccccc1NC(=O)CC[N-]S(=O)(=O)c1cccs1 (protonated)
COc1ccccc1NC(=O)CC[N-]S(=O)(=O)c1cccs1 (3D coordinates assigned)
COc1ccccc1NC(=O)CC[N-]S(=O)(=O)c1cccs1 (optimized conformer: 61.44792529093144 kcal/mol)

>  <smiles>  (20) 
COc1ccccc1NC(=O)CCNS(=O)(=O)c1cccs1

>  <score_type>  (20) 
oracle

>  <origin>  (20) 
adg

>  <m_score__min__energy>  (20) 
-8.7300000000000004

>  <m_primary>  (20) 
energy

$$$$
20:0
     RDKit          3D

 57 60  0  0  0  0  0  0  0  0999 V2000
   55.8250   30.0730   43.5750 C   0  0  0  0  0  0  0  0  0  0  0  0
   56.4030   30.0880   44.8760 O   0  0  0  0  0  0  0  0  0  0  0  0
   57.7170   29.6920   45.1690 C   0  0  0  0  0  0  0  0  0  0  0  0
   58.1780   28.3870   44.8980 C   0  0  0  0  0  0  0  0  0  0  0  0
   59.4970   28.0290   45.1790 C   0  0  0  0  0  0  0  0  0  0  0  0
   60.3720   28.9630   45.7330 C   0  0  0  0  0  0  0  0  0  0  0  0
   59.9300   30.2570   46.0100 C   0  0  0  0  0  0  0  0  0  0  0  0
   58.6040   30.6320   45.7350 C   0  0  0  0  0  0  0  0  0  0  0  0
   58.1610   31.9650   46.0510 N   0  0  0  0  0  0  0  0  0  0  0  0
   57.6080   32.8370   45.0110 C   0  0  0  0  0  0  0  0  0  0  0  0
   58.4490   34.1260   44.8720 C   0  0  0  0  0  0  0  0  0  0  0  0
   59.2150   34.4840   46.0960 N   0  0  0  0  0  0  0  0  0  0  0  0
   60.6260   34.0320   46.0140 C   0  0  0  0  0  0  0  0  0  0  0  0
   61.2600   33.8720   47.4050 C   0  0  0  0  0  0  0  0  0  0  0  0
   62.0880   32.5860   47.4930 C   0  0  0  0  0  0  0  0  0  0  0  0
   62.0100   32.0260   48.8030 O   0  0  0  0  0  0  0  0  0  0  0  0
   60.8240   31.7340   49.4950 C   0  0  0  0  0  0  0  0  0  0  0  0
   60.2450   30.4630   49.3110 C   0  0  0  0  0  0  0  0  0  0  0  0
   59.0590   30.1130   49.9750 C   0  0  0  0  0  0  0  0  0  0  0  0
   58.4640   31.0470   50.8240 C   0  0  0  0  0  0  0  0  0  0  0  0
   59.0200   32.2850   51.0150 C   0  0  0  0  0  0  0  0  0  0  0  0
   60.2000   32.6570   50.3660 C   0  0  0  0  0  0  0  0  0  0  0  0
   58.2280   33.1120   51.9520 C   0  0  0  0  0  0  0  0  0  0  0  0
   57.0530   32.2010   52.3560 C   0  0  0  0  0  0  0  0  0  0  0  0
   57.2210   30.8660   51.6050 C   0  0  0  0  0  0  0  0  0  0  0  0
   58.5160   34.0470   47.3260 C   0  0  0  0  0  0  0  0  0  0  0  0
   58.3730   32.5180   47.3930 C   0  0  0  0  0  0  0  0  0  0  0  0
   54.7287   30.0446   43.6611 H   0  0  0  0  0  0  0  0  0  0  0  0
   56.1265   30.9793   43.0293 H   0  0  0  0  0  0  0  0  0  0  0  0
   56.1731   29.1836   43.0293 H   0  0  0  0  0  0  0  0  0  0  0  0
   57.4924   27.6456   44.4617 H   0  0  0  0  0  0  0  0  0  0  0  0
   59.8471   27.0088   44.9633 H   0  0  0  0  0  0  0  0  0  0  0  0
   61.4120   28.6791   45.9519 H   0  0  0  0  0  0  0  0  0  0  0  0
   60.6248   30.9893   46.4470 H   0  0  0  0  0  0  0  0  0  0  0  0
   57.6100   32.2997   44.0511 H   0  0  0  0  0  0  0  0  0  0  0  0
   56.5813   33.1142   45.2922 H   0  0  0  0  0  0  0  0  0  0  0  0
   59.1622   33.9863   44.0462 H   0  0  0  0  0  0  0  0  0  0  0  0
   57.7424   34.9485   44.6870 H   0  0  0  0  0  0  0  0  0  0  0  0
   60.6590   33.0628   45.4948 H   0  0  0  0  0  0  0  0  0  0  0  0
   61.1967   34.7961   45.4658 H   0  0  0  0  0  0  0  0  0  0  0  0
   61.9143   34.7340   47.6022 H   0  0  0  0  0  0  0  0  0  0  0  0
   60.4533   33.8181   48.1509 H   0  0  0  0  0  0  0  0  0  0  0  0
   61.7021   31.8573   46.7650 H   0  0  0  0  0  0  0  0  0  0  0  0
   63.1387   32.8254   47.2721 H   0  0  0  0  0  0  0  0  0  0  0  0
   60.7275   29.7372   48.6399 H   0  0  0  0  0  0  0  0  0  0  0  0
   58.6069   29.1209   49.8288 H   0  0  0  0  0  0  0  0  0  0  0  0
   60.6372   33.6530   50.5301 H   0  0  0  0  0  0  0  0  0  0  0  0
   58.8279   33.3887   52.8315 H   0  0  0  0  0  0  0  0  0  0  0  0
   57.8933   34.0578   51.5010 H   0  0  0  0  0  0  0  0  0  0  0  0
   57.0701   32.0256   53.4418 H   0  0  0  0  0  0  0  0  0  0  0  0
   56.0925   32.6714   52.0989 H   0  0  0  0  0  0  0  0  0  0  0  0
   57.3223   30.0298   52.3124 H   0  0  0  0  0  0  0  0  0  0  0  0
   56.3547   30.6256   50.9712 H   0  0  0  0  0  0  0  0  0  0  0  0
   59.0886   34.3891   48.2007 H   0  0  0  0  0  0  0  0  0  0  0  0
   57.5062   34.4832   47.3169 H   0  0  0  0  0  0  0  0  0  0  0  0
   59.2894   32.0867   47.8221 H   0  0  0  0  0  0  0  0  0  0  0  0
   57.5066   32.2679   48.0230 H   0  0  0  0  0  0  0  0  0  0  0  0
  1  2  1  0
  2  3  1  0
  3  4  2  0
  4  5  1  0
  5  6  2  0
  6  7  1  0
  7  8  2  0
  8  9  1  0
  9 10  1  0
 10 11  1  0
 11 12  1  0
 12 13  1  0
 13 14  1  0
 14 15  1  0
 15 16  1  0
 16 17  1  0
 17 18  2  0
 18 19  1  0
 19 20  2  0
 20 21  1  0
 21 22  2  0
 21 23  1  0
 23 24  1  0
 24 25  1  0
 12 26  1  0
 26 27  1  0
  8  3  1  0
 27  9  1  0
 22 17  1  0
 25 20  1  0
  1 28  1  0
  1 29  1  0
  1 30  1  0
  4 31  1  0
  5 32  1  0
  6 33  1  0
  7 34  1  0
 10 35  1  0
 10 36  1  0
 11 37  1  0
 11 38  1  0
 13 39  1  0
 13 40  1  0
 14 41  1  0
 14 42  1  0
 15 43  1  0
 15 44  1  0
 18 45  1  0
 19 46  1  0
 22 47  1  0
 23 48  1  0
 23 49  1  0
 24 50  1  0
 24 51  1  0
 25 52  1  0
 25 53  1  0
 26 54  1  0
 26 55  1  0
 27 56  1  0
 27 57  1  0
M  END
>  <UniqueID>  (21) 
19

>  <SMILES>  (21) 
COc1ccccc1N1CCN(CCCOc2ccc3c(c2)CCC3)CC1

>  <Energy>  (21) 
77.26855349464176

>  <Genealogy>  (21) 
COc1ccccc1N1CCN(CCCOc2ccc3c(c2)CCC3)CC1 (3D coordinates assigned)
COc1ccccc1N1CCN(CCCOc2ccc3c(c2)CCC3)CC1 (nonaromatic ring conformer: 77.26855349464176 kcal/mol)

>  <smiles>  (21) 
COc1ccccc1N1CCN(CCCOc2ccc3c(c2)CCC3)CC1

>  <score_type>  (21) 
oracle

>  <origin>  (21) 
adg

>  <m_score__min__energy>  (21) 
-8.3699999999999992

>  <m_primary>  (21) 
energy

$$$$
21:0
     RDKit          3D

 35 37  0  0  0  0  0  0  0  0999 V2000
   56.5600   30.0860   43.6190 C   0  0  0  0  0  0  0  0  0  0  0  0
   56.4560   30.8740   44.8000 O   0  0  0  0  0  0  0  0  0  0  0  0
   57.4500   31.7530   45.2550 C   0  0  0  0  0  0  0  0  0  0  0  0
   57.2440   33.1280   45.0950 C   0  0  0  0  0  0  0  0  0  0  0  0
   58.2030   34.0460   45.5330 C   0  0  0  0  0  0  0  0  0  0  0  0
   59.3820   33.6010   46.1530 C   0  0  0  0  0  0  0  0  0  0  0  0
   60.4260   34.5890   46.6110 C   0  0  0  0  0  0  0  0  0  0  0  0
   61.3600   33.9650   47.5650 N   0  0  0  0  0  0  0  0  0  0  0  0
   62.7270   33.7120   47.1680 C   0  0  0  0  0  0  0  0  0  0  0  0
   63.0870   33.8440   45.9670 O   0  0  0  0  0  0  0  0  0  0  0  0
   63.7560   33.3650   48.2010 C   0  0  0  0  0  0  0  0  0  0  0  0
   63.1680   32.6630   49.2930 O   0  0  0  0  0  0  0  0  0  0  0  0
   61.8750   32.9350   49.7470 C   0  0  0  0  0  0  0  0  0  0  0  0
   61.4970   32.5150   51.0260 C   0  0  0  0  0  0  0  0  0  0  0  0
   60.2140   32.7870   51.5030 C   0  0  0  0  0  0  0  0  0  0  0  0
   59.3020   33.4720   50.6990 C   0  0  0  0  0  0  0  0  0  0  0  0
   59.6660   33.8790   49.4110 C   0  0  0  0  0  0  0  0  0  0  0  0
   60.9590   33.6100   48.9140 C   0  0  0  0  0  0  0  0  0  0  0  0
   59.5980   32.2200   46.2970 C   0  0  0  0  0  0  0  0  0  0  0  0
   58.6390   31.3030   45.8580 C   0  0  0  0  0  0  0  0  0  0  0  0
   56.6994   29.0301   43.8939 H   0  0  0  0  0  0  0  0  0  0  0  0
   55.6401   30.1920   43.0253 H   0  0  0  0  0  0  0  0  0  0  0  0
   57.4209   30.4270   43.0253 H   0  0  0  0  0  0  0  0  0  0  0  0
   56.3197   33.4894   44.6206 H   0  0  0  0  0  0  0  0  0  0  0  0
   58.0331   35.1235   45.3912 H   0  0  0  0  0  0  0  0  0  0  0  0
   60.9901   34.9475   45.7373 H   0  0  0  0  0  0  0  0  0  0  0  0
   59.9199   35.4269   47.1127 H   0  0  0  0  0  0  0  0  0  0  0  0
   64.5285   32.7316   47.7405 H   0  0  0  0  0  0  0  0  0  0  0  0
   64.1982   34.2975   48.5817 H   0  0  0  0  0  0  0  0  0  0  0  0
   62.2128   31.9688   51.6579 H   0  0  0  0  0  0  0  0  0  0  0  0
   59.9217   32.4616   52.5123 H   0  0  0  0  0  0  0  0  0  0  0  0
   58.2937   33.6926   51.0792 H   0  0  0  0  0  0  0  0  0  0  0  0
   58.9390   34.4126   48.7811 H   0  0  0  0  0  0  0  0  0  0  0  0
   60.5286   31.8581   46.7586 H   0  0  0  0  0  0  0  0  0  0  0  0
   58.8145   30.2245   45.9845 H   0  0  0  0  0  0  0  0  0  0  0  0
  1  2  1  0
  2  3  1  0
  3  4  2  0
  4  5  1  0
  5  6  2  0
  6  7  1  0
  7  8  1  0
  8  9  1  0
  9 10  2  0
  9 11  1  0
 11 12  1  0
 12 13  1  0
 13 14  2  0
 14 15  1  0
 15 16  2  0
 16 17  1  0
 17 18  2  0
  6 19  1  0
 19 20  2  0
 20  3  1  0
 18  8  1  0
 18 13  1  0
  1 21  1  0
  1 22  1  0
  1 23  1  0
  4 24  1  0
  5 25  1  0
  7 26  1  0
  7 27  1  0
 11 28  1  0
 11 29  1  0
 14 30  1  0
 15 31  1  0
 16 32  1  0
 17 33  1  0
 19 34  1  0
 20 35  1  0
M  END
>  <UniqueID>  (22) 
20

>  <SMILES>  (22) 
COc1ccc(CN2C(=O)COc3ccccc32)cc1

>  <Energy>  (22) 
41.03791536231615

>  <Genealogy>  (22) 
COc1ccc(CN2C(=O)COc3ccccc32)cc1 (3D coordinates assigned)
COc1ccc(CN2C(=O)COc3ccccc32)cc1 (nonaromatic ring conformer: 41.03791536231615 kcal/mol)

>  <smiles>  (22) 
COc1ccc(CN2C(=O)COc3ccccc32)cc1

>  <score_type>  (22) 
oracle

>  <origin>  (22) 
adg

>  <m_score__min__energy>  (22) 
-6.4400000000000004

>  <m_primary>  (22) 
energy

$$$$
22:0
     RDKit          3D

 43 44  0  0  0  0  0  0  0  0999 V2000
   57.8500   33.7040   44.7710 C   0  0  0  0  0  0  0  0  0  0  0  0
   57.5390   32.3640   44.1230 C   0  0  0  0  0  0  0  0  0  0  0  0
   57.0260   31.4700   45.1030 O   0  0  0  0  0  0  0  0  0  0  0  0
   56.9150   30.0940   44.8810 C   0  0  0  0  0  0  0  0  0  0  0  0
   55.7830   29.5450   44.7910 O   0  0  0  0  0  0  0  0  0  0  0  0
   58.1580   29.2580   44.7930 C   0  0  0  0  0  0  0  0  0  0  0  0
   58.7790   28.9160   46.1420 C   0  0  0  0  0  0  0  0  0  0  0  0
   58.9050   27.5680   46.5480 C   0  0  0  0  0  0  0  0  0  0  0  0
   59.5230   27.2340   47.7510 C   0  0  0  0  0  0  0  0  0  0  0  0
   60.0240   28.2330   48.5800 C   0  0  0  0  0  0  0  0  0  0  0  0
   60.8340   27.8060   50.0770 Cl  0  0  0  0  0  0  0  0  0  0  0  0
   59.8700   29.5730   48.2270 C   0  0  0  0  0  0  0  0  0  0  0  0
   59.1950   29.9430   47.0430 C   0  0  0  0  0  0  0  0  0  0  0  0
   59.0100   31.3520   46.7400 N   0  0  0  0  0  0  0  0  0  0  0  0
   59.9660   32.1860   47.4390 C   0  0  0  0  0  0  0  0  0  0  0  0
   61.1760   32.5310   46.8060 C   0  0  0  0  0  0  0  0  0  0  0  0
   62.1370   33.3140   47.4600 C   0  0  0  0  0  0  0  0  0  0  0  0
   63.4050   33.6950   46.7550 C   0  0  0  0  0  0  0  0  0  0  0  0
   61.8750   33.7900   48.7480 C   0  0  0  0  0  0  0  0  0  0  0  0
   60.6810   33.4630   49.3910 C   0  0  0  0  0  0  0  0  0  0  0  0
   59.7180   32.6640   48.7550 C   0  0  0  0  0  0  0  0  0  0  0  0
   58.4400   32.3400   49.4850 C   0  0  0  0  0  0  0  0  0  0  0  0
   57.8251   33.5966   45.8655 H   0  0  0  0  0  0  0  0  0  0  0  0
   58.8498   34.0393   44.4582 H   0  0  0  0  0  0  0  0  0  0  0  0
   57.1001   34.4454   44.4582 H   0  0  0  0  0  0  0  0  0  0  0  0
   56.7911   32.5057   43.3289 H   0  0  0  0  0  0  0  0  0  0  0  0
   58.4590   31.9442   43.6902 H   0  0  0  0  0  0  0  0  0  0  0  0
   57.9054   28.3175   44.2814 H   0  0  0  0  0  0  0  0  0  0  0  0
   58.9019   29.8553   44.2455 H   0  0  0  0  0  0  0  0  0  0  0  0
   58.5086   26.7696   45.9035 H   0  0  0  0  0  0  0  0  0  0  0  0
   59.6151   26.1784   48.0462 H   0  0  0  0  0  0  0  0  0  0  0  0
   60.2813   30.3553   48.8819 H   0  0  0  0  0  0  0  0  0  0  0  0
   58.0600   31.6990   46.9920 H   0  0  0  0  0  0  0  0  0  0  0  0
   59.1020   31.4710   45.7050 H   0  0  0  0  0  0  0  0  0  0  0  0
   61.3699   32.1802   45.7816 H   0  0  0  0  0  0  0  0  0  0  0  0
   64.1818   33.9284   47.4981 H   0  0  0  0  0  0  0  0  0  0  0  0
   63.7400   32.8578   46.1250 H   0  0  0  0  0  0  0  0  0  0  0  0
   63.2231   34.5782   46.1250 H   0  0  0  0  0  0  0  0  0  0  0  0
   62.6143   34.4258   49.2572 H   0  0  0  0  0  0  0  0  0  0  0  0
   60.4919   33.8357   50.4085 H   0  0  0  0  0  0  0  0  0  0  0  0
   58.6160   32.3846   50.5699 H   0  0  0  0  0  0  0  0  0  0  0  0
   57.6649   33.0700   49.2090 H   0  0  0  0  0  0  0  0  0  0  0  0
   58.1063   31.3288   49.2090 H   0  0  0  0  0  0  0  0  0  0  0  0
  1  2  1  0
  2  3  1  0
  3  4  1  0
  4  5  2  0
  4  6  1  0
  6  7  1  0
  7  8  2  0
  8  9  1  0
  9 10  2  0
 10 11  1  0
 10 12  1  0
 12 13  2  0
 13 14  1  0
 14 15  1  0
 15 16  2  0
 16 17  1  0
 17 18  1  0
 17 19  2  0
 19 20  1  0
 20 21  2  0
 21 22  1  0
 13  7  1  0
 21 15  1  0
  1 23  1  0
  1 24  1  0
  1 25  1  0
  2 26  1  0
  2 27  1  0
  6 28  1  0
  6 29  1  0
  8 30  1  0
  9 31  1  0
 12 32  1  0
 14 33  1  0
 14 34  1  0
 16 35  1  0
 18 36  1  0
 18 37  1  0
 18 38  1  0
 19 39  1  0
 20 40  1  0
 22 41  1  0
 22 42  1  0
 22 43  1  0
M  CHG  1  14   1
M  END
>  <UniqueID>  (23) 
21

>  <SMILES>  (23) 
CCOC(=O)Cc1ccc(Cl)cc1[NH2+]c1cc(C)ccc1C

>  <Energy>  (23) 
45.693426839146476

>  <Genealogy>  (23) 
CCOC(=O)Cc1ccc(Cl)cc1[NH2+]c1cc(C)ccc1C (protonated)
CCOC(=O)Cc1ccc(Cl)cc1[NH2+]c1cc(C)ccc1C (3D coordinates assigned)
CCOC(=O)Cc1ccc(Cl)cc1[NH2+]c1cc(C)ccc1C (optimized conformer: 45.693426839146476 kcal/mol)

>  <smiles>  (23) 
CCOC(=O)Cc1ccc(Cl)cc1Nc1cc(C)ccc1C

>  <score_type>  (23) 
oracle

>  <origin>  (23) 
adg

>  <m_score__min__energy>  (23) 
-5.5999999999999996

>  <m_primary>  (23) 
energy

$$$$
23:0
     RDKit          3D

 43 46  0  0  0  0  0  0  0  0999 V2000
   58.0700   21.1440   43.6850 N   0  0  0  0  0  0  0  0  0  0  0  0
   56.6150   22.0710   43.8010 S   0  0  0  0  0  0  0  0  0  0  0  0
   55.6930   21.4330   44.8030 O   0  0  0  0  0  0  0  0  0  0  0  0
   55.9270   22.1010   42.4640 O   0  0  0  0  0  0  0  0  0  0  0  0
   57.0040   23.7110   44.3060 C   0  0  0  0  0  0  0  0  0  0  0  0
   57.4320   24.6570   43.3670 C   0  0  0  0  0  0  0  0  0  0  0  0
   57.7310   25.9630   43.7670 C   0  0  0  0  0  0  0  0  0  0  0  0
   57.6000   26.3440   45.1150 C   0  0  0  0  0  0  0  0  0  0  0  0
   57.9160   27.7310   45.5410 C   0  0  0  0  0  0  0  0  0  0  0  0
   58.8940   27.9710   46.5240 C   0  0  0  0  0  0  0  0  0  0  0  0
   59.1950   29.2740   46.9290 C   0  0  0  0  0  0  0  0  0  0  0  0
   58.5220   30.3660   46.3570 C   0  0  0  0  0  0  0  0  0  0  0  0
   58.8080   31.6910   46.7360 C   0  0  0  0  0  0  0  0  0  0  0  0
   59.7680   31.9390   47.7320 O   0  0  0  0  0  0  0  0  0  0  0  0
   61.1060   32.2940   47.5030 C   0  0  0  0  0  0  0  0  0  0  0  0
   61.3790   33.4440   46.7520 C   0  0  0  0  0  0  0  0  0  0  0  0
   62.6990   33.8390   46.5160 C   0  0  0  0  0  0  0  0  0  0  0  0
   63.7570   33.0910   47.0400 C   0  0  0  0  0  0  0  0  0  0  0  0
   63.4950   31.9530   47.8070 C   0  0  0  0  0  0  0  0  0  0  0  0
   62.1750   31.5560   48.0460 C   0  0  0  0  0  0  0  0  0  0  0  0
   58.0890   32.7420   46.1410 C   0  0  0  0  0  0  0  0  0  0  0  0
   57.1300   32.4620   45.1670 C   0  0  0  0  0  0  0  0  0  0  0  0
   56.8780   31.1780   44.8040 N   0  0  0  0  0  0  0  0  0  0  0  0
   57.5380   30.1320   45.3690 C   0  0  0  0  0  0  0  0  0  0  0  0
   57.2420   28.8250   44.9680 C   0  0  0  0  0  0  0  0  0  0  0  0
   57.1620   25.3900   46.0510 C   0  0  0  0  0  0  0  0  0  0  0  0
   56.8650   24.0840   45.6490 C   0  0  0  0  0  0  0  0  0  0  0  0
   58.2860   20.7940   44.6450 H   0  0  0  0  0  0  0  0  0  0  0  0
   57.8510   20.3060   43.1010 H   0  0  0  0  0  0  0  0  0  0  0  0
   57.5335   24.3715   42.3096 H   0  0  0  0  0  0  0  0  0  0  0  0
   58.0711   26.6978   43.0224 H   0  0  0  0  0  0  0  0  0  0  0  0
   59.4275   27.1233   46.9787 H   0  0  0  0  0  0  0  0  0  0  0  0
   59.9620   29.4452   47.6987 H   0  0  0  0  0  0  0  0  0  0  0  0
   60.5492   34.0405   46.3451 H   0  0  0  0  0  0  0  0  0  0  0  0
   62.9051   34.7388   45.9177 H   0  0  0  0  0  0  0  0  0  0  0  0
   64.7957   33.3982   46.8486 H   0  0  0  0  0  0  0  0  0  0  0  0
   64.3282   31.3681   48.2237 H   0  0  0  0  0  0  0  0  0  0  0  0
   61.9719   30.6657   48.6593 H   0  0  0  0  0  0  0  0  0  0  0  0
   58.2818   33.7822   46.4423 H   0  0  0  0  0  0  0  0  0  0  0  0
   56.5759   33.2846   44.6913 H   0  0  0  0  0  0  0  0  0  0  0  0
   56.4758   28.6511   44.1981 H   0  0  0  0  0  0  0  0  0  0  0  0
   57.0521   25.6736   47.1081 H   0  0  0  0  0  0  0  0  0  0  0  0
   56.5211   23.3472   46.3898 H   0  0  0  0  0  0  0  0  0  0  0  0
  1  2  1  0
  2  3  2  0
  2  4  2  0
  2  5  1  0
  5  6  2  0
  6  7  1  0
  7  8  2  0
  8  9  1  0
  9 10  2  0
 10 11  1  0
 11 12  2  0
 12 13  1  0
 13 14  1  0
 14 15  1  0
 15 16  2  0
 16 17  1  0
 17 18  2  0
 18 19  1  0
 19 20  2  0
 13 21  2  0
 21 22  1  0
 22 23  2  0
 23 24  1  0
 24 25  2  0
  8 26  1  0
 26 27  2  0
 27  5  1  0
 25  9  1  0
 24 12  1  0
 20 15  1  0
  1 28  1  0
  1 29  1  0
  6 30  1  0
  7 31  1  0
 10 32  1  0
 11 33  1  0
 16 34  1  0
 17 35  1  0
 18 36  1  0
 19 37  1  0
 20 38  1  0
 21 39  1  0
 22 40  1  0
 25 41  1  0
 26 42  1  0
 27 43  1  0
M  END
>  <UniqueID>  (24) 
22

>  <SMILES>  (24) 
NS(=O)(=O)c1ccc(-c2ccc3c(Oc4ccccc4)ccnc3c2)cc1

>  <Energy>  (24) 
62.3769871421551

>  <Genealogy>  (24) 
NS(=O)(=O)c1ccc(-c2ccc3c(Oc4ccccc4)ccnc3c2)cc1 (3D coordinates assigned)
NS(=O)(=O)c1ccc(-c2ccc3c(Oc4ccccc4)ccnc3c2)cc1 (optimized conformer: 62.3769871421551 kcal/mol)

>  <smiles>  (24) 
NS(=O)(=O)c1ccc(-c2ccc3c(Oc4ccccc4)ccnc3c2)cc1

>  <score_type>  (24) 
oracle

>  <origin>  (24) 
adg

>  <m_score__min__energy>  (24) 
-9.6899999999999995

>  <m_primary>  (24) 
energy

$$$$
24:0
     RDKit          3D

 51 53  0  0  0  0  0  0  0  0999 V2000
   63.7790   32.9450   47.0570 C   0  0  0  0  0  0  0  0  0  0  0  0
   62.5050   33.5110   47.6110 C   0  0  0  0  0  0  0  0  0  0  0  0
   62.3580   33.7010   48.9940 C   0  0  0  0  0  0  0  0  0  0  0  0
   61.1560   34.1910   49.5120 C   0  0  0  0  0  0  0  0  0  0  0  0
   60.0900   34.4830   48.6570 C   0  0  0  0  0  0  0  0  0  0  0  0
   60.2170   34.2820   47.2720 C   0  0  0  0  0  0  0  0  0  0  0  0
   59.0540   34.5740   46.3550 C   0  0  0  0  0  0  0  0  0  0  0  0
   58.0090   33.5390   46.4350 N   0  0  0  0  0  0  0  0  0  0  0  0
   57.0260   33.6380   45.3470 C   0  0  0  0  0  0  0  0  0  0  0  0
   57.0240   32.3720   44.4830 C   0  0  0  0  0  0  0  0  0  0  0  0
   57.1320   31.2010   45.2960 O   0  0  0  0  0  0  0  0  0  0  0  0
   57.7820   30.0060   44.9430 C   0  0  0  0  0  0  0  0  0  0  0  0
   57.1800   29.0290   44.1250 C   0  0  0  0  0  0  0  0  0  0  0  0
   57.8660   27.8550   43.8070 C   0  0  0  0  0  0  0  0  0  0  0  0
   59.1570   27.6460   44.2890 C   0  0  0  0  0  0  0  0  0  0  0  0
   59.7700   28.6110   45.0910 C   0  0  0  0  0  0  0  0  0  0  0  0
   59.0850   29.7960   45.4250 C   0  0  0  0  0  0  0  0  0  0  0  0
   59.6590   30.7900   46.2360 O   0  0  0  0  0  0  0  0  0  0  0  0
   60.7130   30.5820   47.1770 C   0  0  0  0  0  0  0  0  0  0  0  0
   60.2340   30.8450   48.5800 C   0  0  0  0  0  0  0  0  0  0  0  0
   58.9470   31.3470   48.8180 C   0  0  0  0  0  0  0  0  0  0  0  0
   58.5200   31.5770   50.1260 C   0  0  0  0  0  0  0  0  0  0  0  0
   59.3810   31.2960   51.1870 C   0  0  0  0  0  0  0  0  0  0  0  0
   60.6240   30.7980   50.9450 N   0  0  0  0  0  0  0  0  0  0  0  0
   61.0620   30.5650   49.6770 C   0  0  0  0  0  0  0  0  0  0  0  0
   61.4280   33.7890   46.7560 C   0  0  0  0  0  0  0  0  0  0  0  0
   64.4404   32.6512   47.8854 H   0  0  0  0  0  0  0  0  0  0  0  0
   63.5507   32.0636   46.4397 H   0  0  0  0  0  0  0  0  0  0  0  0
   64.2800   33.7052   46.4397 H   0  0  0  0  0  0  0  0  0  0  0  0
   63.1911   33.4636   49.6719 H   0  0  0  0  0  0  0  0  0  0  0  0
   61.0488   34.3472   50.5956 H   0  0  0  0  0  0  0  0  0  0  0  0
   59.1475   34.8718   49.0698 H   0  0  0  0  0  0  0  0  0  0  0  0
   58.6154   35.5427   46.6365 H   0  0  0  0  0  0  0  0  0  0  0  0
   59.4338   34.5914   45.3228 H   0  0  0  0  0  0  0  0  0  0  0  0
   58.4530   32.5910   46.4110 H   0  0  0  0  0  0  0  0  0  0  0  0
   56.0246   33.7780   45.7802 H   0  0  0  0  0  0  0  0  0  0  0  0
   57.2970   34.4931   44.7103 H   0  0  0  0  0  0  0  0  0  0  0  0
   56.0858   32.3279   43.9104 H   0  0  0  0  0  0  0  0  0  0  0  0
   57.8873   32.4089   43.8024 H   0  0  0  0  0  0  0  0  0  0  0  0
   56.1645   29.1920   43.7350 H   0  0  0  0  0  0  0  0  0  0  0  0
   57.3864   27.0934   43.1746 H   0  0  0  0  0  0  0  0  0  0  0  0
   59.6939   26.7195   44.0373 H   0  0  0  0  0  0  0  0  0  0  0  0
   60.7917   28.4453   45.4634 H   0  0  0  0  0  0  0  0  0  0  0  0
   61.0622   29.5415   47.1038 H   0  0  0  0  0  0  0  0  0  0  0  0
   61.5340   31.2773   46.9476 H   0  0  0  0  0  0  0  0  0  0  0  0
   58.2743   31.5594   47.9740 H   0  0  0  0  0  0  0  0  0  0  0  0
   57.5134   31.9764   50.3190 H   0  0  0  0  0  0  0  0  0  0  0  0
   59.0544   31.4774   52.2216 H   0  0  0  0  0  0  0  0  0  0  0  0
   61.2560   30.5890   51.7500 H   0  0  0  0  0  0  0  0  0  0  0  0
   62.0695   30.1554   49.5122 H   0  0  0  0  0  0  0  0  0  0  0  0
   61.5320   33.6200   45.6741 H   0  0  0  0  0  0  0  0  0  0  0  0
  1  2  1  0
  2  3  2  0
  3  4  1  0
  4  5  2  0
  5  6  1  0
  6  7  1  0
  7  8  1  0
  8  9  1  0
  9 10  1  0
 10 11  1  0
 11 12  1  0
 12 13  2  0
 13 14  1  0
 14 15  2  0
 15 16  1  0
 16 17  2  0
 17 18  1  0
 18 19  1  0
 19 20  1  0
 20 21  2  0
 21 22  1  0
 22 23  2  0
 23 24  1  0
 24 25  2  0
  6 26  2  0
 26  2  1  0
 17 12  1  0
 25 20  1  0
  1 27  1  0
  1 28  1  0
  1 29  1  0
  3 30  1  0
  4 31  1  0
  5 32  1  0
  7 33  1  0
  7 34  1  0
  8 35  1  0
  9 36  1  0
  9 37  1  0
 10 38  1  0
 10 39  1  0
 13 40  1  0
 14 41  1  0
 15 42  1  0
 16 43  1  0
 19 44  1  0
 19 45  1  0
 21 46  1  0
 22 47  1  0
 23 48  1  0
 24 49  1  0
 25 50  1  0
 26 51  1  0
M  CHG  1  24   1
M  END
>  <UniqueID>  (25) 
23

>  <SMILES>  (25) 
Cc1cccc(CNCCOc2ccccc2OCc2ccc[nH+]c2)c1

>  <Energy>  (25) 
52.31143571521346

>  <Genealogy>  (25) 
Cc1cccc(CNCCOc2ccccc2OCc2ccc[nH+]c2)c1 (protonated)
Cc1cccc(CNCCOc2ccccc2OCc2ccc[nH+]c2)c1 (3D coordinates assigned)
Cc1cccc(CNCCOc2ccccc2OCc2ccc[nH+]c2)c1 (optimized conformer: 52.31143571521346 kcal/mol)

>  <smiles>  (25) 
Cc1cccc(CNCCOc2ccccc2OCc2cccnc2)c1

>  <score_type>  (25) 
oracle

>  <origin>  (25) 
adg

>  <m_score__min__energy>  (25) 
-6.1799999999999997

>  <m_primary>  (25) 
energy

$$$$
25:0
     RDKit          3D

 39 41  0  0  0  0  0  0  0  0999 V2000
   57.4470   31.9620   41.7660 C   0  0  0  0  0  0  0  0  0  0  0  0
   57.4450   31.3300   43.1170 C   0  0  0  0  0  0  0  0  0  0  0  0
   56.5690   30.3300   43.3990 N   0  0  0  0  0  0  0  0  0  0  0  0
   56.5280   29.7650   44.6330 C   0  0  0  0  0  0  0  0  0  0  0  0
   55.7130   28.8350   44.8700 O   0  0  0  0  0  0  0  0  0  0  0  0
   57.3870   30.2170   45.6360 C   0  0  0  0  0  0  0  0  0  0  0  0
   58.2760   31.2570   45.3350 C   0  0  0  0  0  0  0  0  0  0  0  0
   59.2280   31.7920   46.3740 C   0  0  0  0  0  0  0  0  0  0  0  0
   58.7040   33.0360   47.0050 N   0  0  2  0  0  0  0  0  0  0  0  0
   57.5090   33.5230   46.2850 C   0  0  0  0  0  0  0  0  0  0  0  0
   57.9760   34.5380   45.2420 C   0  0  0  0  0  0  0  0  0  0  0  0
   59.4490   34.7710   45.5340 C   0  0  0  0  0  0  0  0  0  0  0  0
   59.6440   34.1790   46.9280 C   0  0  2  0  0  0  0  0  0  0  0  0
   61.0790   33.8640   47.3720 C   0  0  0  0  0  0  0  0  0  0  0  0
   62.0800   33.7890   46.3790 C   0  0  0  0  0  0  0  0  0  0  0  0
   63.4000   33.4790   46.7080 C   0  0  0  0  0  0  0  0  0  0  0  0
   63.7450   33.2030   48.0290 C   0  0  0  0  0  0  0  0  0  0  0  0
   62.7660   33.2190   49.0220 C   0  0  0  0  0  0  0  0  0  0  0  0
   63.1030   32.9140   50.3000 F   0  0  0  0  0  0  0  0  0  0  0  0
   61.4380   33.5290   48.7040 C   0  0  0  0  0  0  0  0  0  0  0  0
   60.5220   33.4610   49.7010 F   0  0  0  0  0  0  0  0  0  0  0  0
   58.2800   31.7930   44.0850 N   0  0  0  0  0  0  0  0  0  0  0  0
   57.4505   33.0567   41.8733 H   0  0  0  0  0  0  0  0  0  0  0  0
   58.3441   31.6448   41.2142 H   0  0  0  0  0  0  0  0  0  0  0  0
   56.5479   31.6505   41.2142 H   0  0  0  0  0  0  0  0  0  0  0  0
   57.3664   29.7670   46.6395 H   0  0  0  0  0  0  0  0  0  0  0  0
   59.3722   31.0292   47.1533 H   0  0  0  0  0  0  0  0  0  0  0  0
   60.1809   32.0308   45.8790 H   0  0  0  0  0  0  0  0  0  0  0  0
   58.4520   32.8530   48.0050 H   0  0  0  0  0  0  0  0  0  0  0  0
   57.0021   32.6822   45.7888 H   0  0  0  0  0  0  0  0  0  0  0  0
   56.8005   33.9890   46.9857 H   0  0  0  0  0  0  0  0  0  0  0  0
   57.8443   34.1347   44.2271 H   0  0  0  0  0  0  0  0  0  0  0  0
   57.3969   35.4718   45.2932 H   0  0  0  0  0  0  0  0  0  0  0  0
   60.0809   34.2537   44.7970 H   0  0  0  0  0  0  0  0  0  0  0  0
   59.7297   35.8333   45.4807 H   0  0  0  0  0  0  0  0  0  0  0  0
   59.4172   34.9513   47.6777 H   0  0  0  0  0  0  0  0  0  0  0  0
   61.8147   33.9782   45.3284 H   0  0  0  0  0  0  0  0  0  0  0  0
   64.1697   33.4525   45.9226 H   0  0  0  0  0  0  0  0  0  0  0  0
   64.7888   32.9726   48.2887 H   0  0  0  0  0  0  0  0  0  0  0  0
  1  2  1  0
  2  3  2  0
  3  4  1  0
  4  5  2  0
  4  6  1  0
  6  7  2  0
  7  8  1  0
  8  9  1  0
  9 10  1  0
 10 11  1  0
 11 12  1  0
 12 13  1  0
 13 14  1  0
 14 15  2  0
 15 16  1  0
 16 17  2  0
 17 18  1  0
 18 19  1  0
 18 20  2  0
 20 21  1  0
  7 22  1  0
 22  2  1  0
 13  9  1  0
 20 14  1  0
  1 23  1  0
  1 24  1  0
  1 25  1  0
  6 26  1  0
  8 27  1  0
  8 28  1  0
  9 29  1  1
 10 30  1  0
 10 31  1  0
 11 32  1  0
 11 33  1  0
 12 34  1  0
 12 35  1  0
 13 36  1  1
 15 37  1  0
 16 38  1  0
 17 39  1  0
M  CHG  2   9   1  22  -1
M  END
>  <UniqueID>  (26) 
24

>  <SMILES>  (26) 
Cc1nc(=O)cc(C[N@@H+]2CCC[C@@H]2c2cccc(F)c2F)[n-]1

>  <Energy>  (26) 
55.108270664065316

>  <Genealogy>  (26) 
Cc1nc(=O)cc(C[NH+]2CCCC2c2cccc(F)c2F)[n-]1 (protonated)
Cc1nc(=O)cc(C[N@@H+]2CCC[C@@H]2c2cccc(F)c2F)[n-]1 (chirality)
Cc1nc(=O)cc(C[N@@H+]2CCC[C@@H]2c2cccc(F)c2F)[n-]1 (3D coordinates assigned)
Cc1nc(=O)cc(C[N@@H+]2CCC[C@@H]2c2cccc(F)c2F)[n-]1 (nonaromatic ring conformer: 55.108270664065316 kcal/mol)

>  <smiles>  (26) 
Cc1nc(=O)cc(CN2CCCC2c2cccc(F)c2F)[nH]1

>  <score_type>  (26) 
oracle

>  <origin>  (26) 
adg

>  <m_score__min__energy>  (26) 
-7.5300000000000002

>  <m_primary>  (26) 
energy

$$$$
26:0
     RDKit          3D

 46 48  0  0  0  0  0  0  0  0999 V2000
   59.2380   34.9740   45.2220 C   0  0  0  0  0  0  0  0  0  0  0  0
   60.1190   34.3430   46.1480 O   0  0  0  0  0  0  0  0  0  0  0  0
   59.7430   33.8830   47.4190 C   0  0  0  0  0  0  0  0  0  0  0  0
   60.0200   34.6200   48.5880 C   0  0  0  0  0  0  0  0  0  0  0  0
   59.6570   34.1210   49.8420 C   0  0  0  0  0  0  0  0  0  0  0  0
   59.0180   32.8860   49.9450 C   0  0  0  0  0  0  0  0  0  0  0  0
   58.7350   32.1470   48.7950 C   0  0  0  0  0  0  0  0  0  0  0  0
   59.0870   32.6400   47.5290 C   0  0  0  0  0  0  0  0  0  0  0  0
   58.7700   31.8710   46.3570 N   0  0  0  0  0  0  0  0  0  0  0  0
   57.5380   32.1500   45.6070 C   0  0  0  0  0  0  0  0  0  0  0  0
   57.1750   30.9710   44.7010 C   0  0  0  0  0  0  0  0  0  0  0  0
   57.3770   29.7120   45.4430 N   0  0  0  0  0  0  0  0  0  0  0  0
   56.7200   28.5460   44.8140 C   0  0  0  0  0  0  0  0  0  0  0  0
   57.0950   27.2250   45.4490 C   0  0  0  0  0  0  0  0  0  0  0  0
   58.3790   26.8720   45.4850 O   0  0  0  0  0  0  0  0  0  0  0  0
   58.8040   25.7240   46.0060 C   0  0  0  0  0  0  0  0  0  0  0  0
   60.2680   25.4180   46.0120 C   0  0  0  0  0  0  0  0  0  0  0  0
   60.9830   26.5770   46.3350 O   0  0  0  0  0  0  0  0  0  0  0  0
   57.8880   24.8240   46.5640 C   0  0  0  0  0  0  0  0  0  0  0  0
   56.5330   25.1540   46.5570 C   0  0  0  0  0  0  0  0  0  0  0  0
   55.6890   24.3630   47.0550 O   0  0  0  0  0  0  0  0  0  0  0  0
   56.1230   26.3670   45.9960 C   0  0  0  0  0  0  0  0  0  0  0  0
   54.7740   26.7120   45.9930 O   0  0  0  0  0  0  0  0  0  0  0  0
   58.7930   29.4570   45.8070 C   0  0  0  0  0  0  0  0  0  0  0  0
   59.6230   30.7470   45.9570 C   0  0  0  0  0  0  0  0  0  0  0  0
   58.4636   35.5286   45.7722 H   0  0  0  0  0  0  0  0  0  0  0  0
   59.8082   35.6703   44.5896 H   0  0  0  0  0  0  0  0  0  0  0  0
   58.7623   34.2100   44.5896 H   0  0  0  0  0  0  0  0  0  0  0  0
   60.5252   35.5943   48.5129 H   0  0  0  0  0  0  0  0  0  0  0  0
   59.8758   34.7035   50.7491 H   0  0  0  0  0  0  0  0  0  0  0  0
   58.7366   32.4937   50.9334 H   0  0  0  0  0  0  0  0  0  0  0  0
   58.2329   31.1721   48.8816 H   0  0  0  0  0  0  0  0  0  0  0  0
   56.7160   32.3263   46.3164 H   0  0  0  0  0  0  0  0  0  0  0  0
   57.7002   33.0395   44.9805 H   0  0  0  0  0  0  0  0  0  0  0  0
   56.1218   31.0528   44.3942 H   0  0  0  0  0  0  0  0  0  0  0  0
   57.8147   30.9805   43.8062 H   0  0  0  0  0  0  0  0  0  0  0  0
   55.6306   28.6745   44.8958 H   0  0  0  0  0  0  0  0  0  0  0  0
   57.0592   28.5094   43.7682 H   0  0  0  0  0  0  0  0  0  0  0  0
   60.4769   24.6377   46.7586 H   0  0  0  0  0  0  0  0  0  0  0  0
   60.5736   25.0627   45.0168 H   0  0  0  0  0  0  0  0  0  0  0  0
   60.3750   27.3370   46.1440 H   0  0  0  0  0  0  0  0  0  0  0  0
   58.2308   23.8740   46.9999 H   0  0  0  0  0  0  0  0  0  0  0  0
   58.8158   28.9134   46.7630 H   0  0  0  0  0  0  0  0  0  0  0  0
   59.2408   28.8734   44.9892 H   0  0  0  0  0  0  0  0  0  0  0  0
   60.3969   30.5910   46.7230 H   0  0  0  0  0  0  0  0  0  0  0  0
   60.0862   30.9832   44.9877 H   0  0  0  0  0  0  0  0  0  0  0  0
  1  2  1  0
  2  3  1  0
  3  4  2  0
  4  5  1  0
  5  6  2  0
  6  7  1  0
  7  8  2  0
  8  9  1  0
  9 10  1  0
 10 11  1  0
 11 12  1  0
 12 13  1  0
 13 14  1  0
 14 15  1  0
 15 16  1  0
 16 17  1  0
 17 18  1  0
 16 19  2  0
 19 20  1  0
 20 21  2  0
 20 22  1  0
 22 23  1  0
 12 24  1  0
 24 25  1  0
  8  3  1  0
 25  9  1  0
 22 14  2  0
  1 26  1  0
  1 27  1  0
  1 28  1  0
  4 29  1  0
  5 30  1  0
  6 31  1  0
  7 32  1  0
 10 33  1  0
 10 34  1  0
 11 35  1  0
 11 36  1  0
 13 37  1  0
 13 38  1  0
 17 39  1  0
 17 40  1  0
 18 41  1  0
 19 42  1  0
 24 43  1  0
 24 44  1  0
 25 45  1  0
 25 46  1  0
M  CHG  1  23  -1
M  END
>  <UniqueID>  (27) 
25

>  <SMILES>  (27) 
COc1ccccc1N1CCN(Cc2oc(CO)cc(=O)c2[O-])CC1

>  <Energy>  (27) 
60.720959751407946

>  <Genealogy>  (27) 
COc1ccccc1N1CCN(Cc2oc(CO)cc(=O)c2[O-])CC1 (protonated)
COc1ccccc1N1CCN(Cc2oc(CO)cc(=O)c2[O-])CC1 (3D coordinates assigned)
COc1ccccc1N1CCN(Cc2oc(CO)cc(=O)c2[O-])CC1 (nonaromatic ring conformer: 60.720959751407946 kcal/mol)

>  <smiles>  (27) 
COc1ccccc1N1CCN(Cc2oc(CO)cc(=O)c2O)CC1

>  <score_type>  (27) 
oracle

>  <origin>  (27) 
adg

>  <m_score__min__energy>  (27) 
-10.220000000000001

>  <m_primary>  (27) 
energy

$$$$
27:0
     RDKit          3D

 35 34  0  0  0  0  0  0  0  0999 V2000
   60.7040   26.7020   47.5650 C   0  0  0  0  0  0  0  0  0  0  0  0
   60.3920   27.3160   46.5760 C   0  0  0  0  0  0  0  0  0  0  0  0
   60.0060   28.0620   45.3750 C   0  0  0  0  0  0  0  0  0  0  0  0
   58.5340   28.1090   45.2720 N   0  0  0  0  0  0  0  0  0  0  0  0
   57.8490   26.9220   45.8530 C   0  0  0  0  0  0  0  0  0  0  0  0
   57.6910   25.6930   44.9230 C   0  0  0  0  0  0  0  0  0  0  0  0
   57.7850   25.9820   43.4150 C   0  0  0  0  0  0  0  0  0  0  0  0
   57.5090   27.3850   43.1000 N   0  0  0  0  0  0  0  0  0  0  0  0
   57.9890   29.4280   45.6670 C   0  0  0  0  0  0  0  0  0  0  0  0
   58.4830   30.5760   44.7680 C   0  0  0  0  0  0  0  0  0  0  0  0
   57.3570   31.3700   44.0770 C   0  0  0  0  0  0  0  0  0  0  0  0
   56.1580   30.5030   43.6650 C   0  0  0  0  0  0  0  0  0  0  0  0
   56.5340   29.5450   42.6300 N   0  0  0  0  0  0  0  0  0  0  0  0
   60.9888   26.1416   48.4677 H   0  0  0  0  0  0  0  0  0  0  0  0
   60.4013   29.0866   45.4378 H   0  0  0  0  0  0  0  0  0  0  0  0
   60.4183   27.5617   44.4863 H   0  0  0  0  0  0  0  0  0  0  0  0
   58.4237   26.6025   46.7348 H   0  0  0  0  0  0  0  0  0  0  0  0
   56.8240   27.2552   46.0729 H   0  0  0  0  0  0  0  0  0  0  0  0
   58.4810   24.9716   45.1789 H   0  0  0  0  0  0  0  0  0  0  0  0
   56.6715   25.3167   45.0935 H   0  0  0  0  0  0  0  0  0  0  0  0
   58.7999   25.7350   43.0700 H   0  0  0  0  0  0  0  0  0  0  0  0
   57.0273   25.3676   42.9067 H   0  0  0  0  0  0  0  0  0  0  0  0
   58.4020   27.9290   43.0540 H   0  0  0  0  0  0  0  0  0  0  0  0
   56.9090   27.7900   43.8560 H   0  0  0  0  0  0  0  0  0  0  0  0
   56.9960   27.4680   42.1940 H   0  0  0  0  0  0  0  0  0  0  0  0
   56.8913   29.3853   45.6097 H   0  0  0  0  0  0  0  0  0  0  0  0
   58.3387   29.6362   46.6889 H   0  0  0  0  0  0  0  0  0  0  0  0
   59.0655   31.2731   45.3883 H   0  0  0  0  0  0  0  0  0  0  0  0
   59.0801   30.1147   43.9676 H   0  0  0  0  0  0  0  0  0  0  0  0
   57.0027   32.1467   44.7707 H   0  0  0  0  0  0  0  0  0  0  0  0
   57.7804   31.7949   43.1549 H   0  0  0  0  0  0  0  0  0  0  0  0
   55.7912   29.9552   44.5456 H   0  0  0  0  0  0  0  0  0  0  0  0
   55.3725   31.1604   43.2641 H   0  0  0  0  0  0  0  0  0  0  0  0
   57.4680   29.8300   42.2550 H   0  0  0  0  0  0  0  0  0  0  0  0
   55.8560   29.6390   41.8380 H   0  0  0  0  0  0  0  0  0  0  0  0
  1  2  3  0
  2  3  1  0
  3  4  1  0
  4  5  1  0
  5  6  1  0
  6  7  1  0
  7  8  1  0
  4  9  1  0
  9 10  1  0
 10 11  1  0
 11 12  1  0
 12 13  1  0
  1 14  1  0
  3 15  1  0
  3 16  1  0
  5 17  1  0
  5 18  1  0
  6 19  1  0
  6 20  1  0
  7 21  1  0
  7 22  1  0
  8 23  1  0
  8 24  1  0
  8 25  1  0
  9 26  1  0
  9 27  1  0
 10 28  1  0
 10 29  1  0
 11 30  1  0
 11 31  1  0
 12 32  1  0
 12 33  1  0
 13 34  1  0
 13 35  1  0
M  CHG  1   8   1
M  END
>  <UniqueID>  (28) 
26

>  <SMILES>  (28) 
C#CCN(CCC[NH3+])CCCCN

>  <Energy>  (28) 
28.357459879945885

>  <Genealogy>  (28) 
C#CCN(CCC[NH3+])CCCCN (protonated)
C#CCN(CCC[NH3+])CCCCN (3D coordinates assigned)
C#CCN(CCC[NH3+])CCCCN (optimized conformer: 28.357459879945885 kcal/mol)

>  <smiles>  (28) 
C#CCN(CCCN)CCCCN

>  <score_type>  (28) 
oracle

>  <origin>  (28) 
adg

>  <m_score__min__energy>  (28) 
-2.8199999999999998

>  <m_primary>  (28) 
energy

$$$$
28:0
     RDKit          3D

 40 40  0  0  0  0  0  0  0  0999 V2000
   58.4910   32.5760   48.3910 C   0  0  0  0  0  0  0  0  0  0  0  0
   58.6630   33.7520   47.4180 C   0  0  0  0  0  0  0  0  0  0  0  0
   58.6790   33.3690   45.9800 N   0  0  0  0  0  0  0  0  0  0  0  0
   59.2450   34.4580   45.1410 C   0  0  0  0  0  0  0  0  0  0  0  0
   59.9120   35.5590   45.9740 C   0  0  0  0  0  0  0  0  0  0  0  0
   57.3470   32.9430   45.4780 C   0  0  0  0  0  0  0  0  0  0  0  0
   57.3710   31.5690   44.8720 C   0  0  0  0  0  0  0  0  0  0  0  0
   56.2930   30.9290   44.7230 O   0  0  0  0  0  0  0  0  0  0  0  0
   58.5950   31.0050   44.4950 O   0  0  0  0  0  0  0  0  0  0  0  0
   59.0350   29.7240   44.9360 C   0  0  0  0  0  0  0  0  0  0  0  0
   60.0780   29.8440   46.0510 C   0  0  0  0  0  0  0  0  0  0  0  0
   60.3310   31.2140   46.3700 O   0  0  0  0  0  0  0  0  0  0  0  0
   61.3870   31.6930   47.1630 C   0  0  0  0  0  0  0  0  0  0  0  0
   61.6890   31.0040   48.3450 C   0  0  0  0  0  0  0  0  0  0  0  0
   62.7510   31.4180   49.1560 C   0  0  0  0  0  0  0  0  0  0  0  0
   63.5160   32.5320   48.7970 C   0  0  0  0  0  0  0  0  0  0  0  0
   64.9740   33.0870   49.8970 Br  0  0  0  0  0  0  0  0  0  0  0  0
   63.2050   33.2430   47.6340 C   0  0  0  0  0  0  0  0  0  0  0  0
   62.1400   32.8340   46.8250 C   0  0  0  0  0  0  0  0  0  0  0  0
   58.5450   32.9453   49.4257 H   0  0  0  0  0  0  0  0  0  0  0  0
   57.5137   32.1002   48.2220 H   0  0  0  0  0  0  0  0  0  0  0  0
   59.2911   31.8403   48.2220 H   0  0  0  0  0  0  0  0  0  0  0  0
   57.8307   34.4534   47.5770 H   0  0  0  0  0  0  0  0  0  0  0  0
   59.6469   34.1939   47.6339 H   0  0  0  0  0  0  0  0  0  0  0  0
   59.3210   32.5430   45.9080 H   0  0  0  0  0  0  0  0  0  0  0  0
   59.9955   34.0261   44.4627 H   0  0  0  0  0  0  0  0  0  0  0  0
   58.4134   34.9176   44.5867 H   0  0  0  0  0  0  0  0  0  0  0  0
   59.7796   35.3404   47.0439 H   0  0  0  0  0  0  0  0  0  0  0  0
   60.9856   35.5979   45.7379 H   0  0  0  0  0  0  0  0  0  0  0  0
   59.4493   36.5286   45.7379 H   0  0  0  0  0  0  0  0  0  0  0  0
   56.6366   32.9453   46.3179 H   0  0  0  0  0  0  0  0  0  0  0  0
   57.0460   33.6495   44.6904 H   0  0  0  0  0  0  0  0  0  0  0  0
   58.1701   29.1594   45.3144 H   0  0  0  0  0  0  0  0  0  0  0  0
   59.4979   29.2050   44.0838 H   0  0  0  0  0  0  0  0  0  0  0  0
   59.7060   29.3284   46.9486 H   0  0  0  0  0  0  0  0  0  0  0  0
   61.0160   29.3857   45.7044 H   0  0  0  0  0  0  0  0  0  0  0  0
   61.0867   30.1312   48.6374 H   0  0  0  0  0  0  0  0  0  0  0  0
   62.9848   30.8659   50.0782 H   0  0  0  0  0  0  0  0  0  0  0  0
   63.7991   34.1257   47.3548 H   0  0  0  0  0  0  0  0  0  0  0  0
   61.8892   33.4066   45.9199 H   0  0  0  0  0  0  0  0  0  0  0  0
  1  2  1  0
  2  3  1  0
  3  4  1  0
  4  5  1  0
  3  6  1  0
  6  7  1  0
  7  8  2  0
  7  9  1  0
  9 10  1  0
 10 11  1  0
 11 12  1  0
 12 13  1  0
 13 14  2  0
 14 15  1  0
 15 16  2  0
 16 17  1  0
 16 18  1  0
 18 19  2  0
 19 13  1  0
  1 20  1  0
  1 21  1  0
  1 22  1  0
  2 23  1  0
  2 24  1  0
  3 25  1  0
  4 26  1  0
  4 27  1  0
  5 28  1  0
  5 29  1  0
  5 30  1  0
  6 31  1  0
  6 32  1  0
 10 33  1  0
 10 34  1  0
 11 35  1  0
 11 36  1  0
 14 37  1  0
 15 38  1  0
 18 39  1  0
 19 40  1  0
M  CHG  1   3   1
M  END
>  <UniqueID>  (29) 
27

>  <SMILES>  (29) 
CC[NH+](CC)CC(=O)OCCOc1ccc(Br)cc1

>  <Energy>  (29) 
36.4779451024048

>  <Genealogy>  (29) 
CC[NH+](CC)CC(=O)OCCOc1ccc(Br)cc1 (protonated)
CC[NH+](CC)CC(=O)OCCOc1ccc(Br)cc1 (3D coordinates assigned)
CC[NH+](CC)CC(=O)OCCOc1ccc(Br)cc1 (optimized conformer: 36.4779451024048 kcal/mol)

>  <smiles>  (29) 
CCN(CC)CC(=O)OCCOc1ccc(Br)cc1

>  <score_type>  (29) 
oracle

>  <origin>  (29) 
adg

>  <m_score__min__energy>  (29) 
-4.7300000000000004

>  <m_primary>  (29) 
energy

$$$$
29:0
     RDKit          3D

 28 29  0  0  0  0  0  0  0  0999 V2000
   59.5270   34.8560   47.6430 C   0  0  0  0  0  0  0  0  0  0  0  0
   58.9430   33.9850   46.5700 C   0  0  0  0  0  0  0  0  0  0  0  0
   59.0490   34.3580   45.2210 C   0  0  0  0  0  0  0  0  0  0  0  0
   58.5360   33.5270   44.2200 C   0  0  0  0  0  0  0  0  0  0  0  0
   57.9200   32.3170   44.5570 C   0  0  0  0  0  0  0  0  0  0  0  0
   57.2590   31.2580   43.2680 S   0  0  0  0  0  0  0  0  0  0  0  0
   57.5840   29.7530   44.1980 C   0  0  0  0  0  0  0  0  0  0  0  0
   58.8990   29.2710   44.2480 C   0  0  0  0  0  0  0  0  0  0  0  0
   59.1940   28.0950   44.9400 C   0  0  0  0  0  0  0  0  0  0  0  0
   58.1780   27.3910   45.5900 C   0  0  0  0  0  0  0  0  0  0  0  0
   58.5850   25.7790   46.5320 Br  0  0  0  0  0  0  0  0  0  0  0  0
   56.8650   27.8690   45.5560 C   0  0  0  0  0  0  0  0  0  0  0  0
   56.5550   29.0530   44.8680 C   0  0  0  0  0  0  0  0  0  0  0  0
   55.2030   29.5300   44.8710 N   0  0  0  0  0  0  0  0  0  0  0  0
   57.8350   31.9300   45.8990 C   0  0  0  0  0  0  0  0  0  0  0  0
   58.3470   32.7580   46.9030 C   0  0  0  0  0  0  0  0  0  0  0  0
   59.2567   34.4528   48.6301 H   0  0  0  0  0  0  0  0  0  0  0  0
   60.6222   34.8767   47.5428 H   0  0  0  0  0  0  0  0  0  0  0  0
   59.1303   35.8771   47.5428 H   0  0  0  0  0  0  0  0  0  0  0  0
   59.5367   35.3062   44.9505 H   0  0  0  0  0  0  0  0  0  0  0  0
   58.6171   33.8257   43.1644 H   0  0  0  0  0  0  0  0  0  0  0  0
   59.7033   29.8225   43.7391 H   0  0  0  0  0  0  0  0  0  0  0  0
   60.2284   27.7223   44.9733 H   0  0  0  0  0  0  0  0  0  0  0  0
   56.0684   27.3133   46.0723 H   0  0  0  0  0  0  0  0  0  0  0  0
   54.4140   28.9600   44.4960 H   0  0  0  0  0  0  0  0  0  0  0  0
   54.9800   30.4860   45.2270 H   0  0  0  0  0  0  0  0  0  0  0  0
   57.3643   30.9720   46.1649 H   0  0  0  0  0  0  0  0  0  0  0  0
   58.2827   32.4473   47.9562 H   0  0  0  0  0  0  0  0  0  0  0  0
  1  2  1  0
  2  3  2  0
  3  4  1  0
  4  5  2  0
  5  6  1  0
  6  7  1  0
  7  8  2  0
  8  9  1  0
  9 10  2  0
 10 11  1  0
 10 12  1  0
 12 13  2  0
 13 14  1  0
  5 15  1  0
 15 16  2  0
 16  2  1  0
 13  7  1  0
  1 17  1  0
  1 18  1  0
  1 19  1  0
  3 20  1  0
  4 21  1  0
  8 22  1  0
  9 23  1  0
 12 24  1  0
 14 25  1  0
 14 26  1  0
 15 27  1  0
 16 28  1  0
M  END
>  <UniqueID>  (30) 
28

>  <SMILES>  (30) 
Cc1ccc(Sc2ccc(Br)cc2N)cc1

>  <Energy>  (30) 
23.42019269603249

>  <Genealogy>  (30) 
Cc1ccc(Sc2ccc(Br)cc2N)cc1 (3D coordinates assigned)
Cc1ccc(Sc2ccc(Br)cc2N)cc1 (optimized conformer: 23.42019269603249 kcal/mol)

>  <smiles>  (30) 
Cc1ccc(Sc2ccc(Br)cc2N)cc1

>  <score_type>  (30) 
oracle

>  <origin>  (30) 
adg

>  <m_score__min__energy>  (30) 
-7.9299999999999997

>  <m_primary>  (30) 
energy

$$$$
30:0
     RDKit          3D

 50 52  0  0  0  0  0  0  0  0999 V2000
   58.0150   32.3340   42.5140 C   0  0  0  0  0  0  0  0  0  0  0  0
   57.0550   31.2850   43.0640 C   0  0  0  0  0  0  0  0  0  0  0  0
   56.9630   31.4050   44.5380 N   0  0  0  0  0  0  0  0  0  0  0  0
   57.8430   32.4810   45.0470 C   0  0  0  0  0  0  0  0  0  0  0  0
   58.1390   32.2610   46.5270 C   0  0  0  0  0  0  0  0  0  0  0  0
   57.2520   30.1120   45.2000 C   0  0  0  0  0  0  0  0  0  0  0  0
   56.6750   28.9500   44.3910 C   0  0  0  0  0  0  0  0  0  0  0  0
   55.8940   28.0820   45.2620 N   0  0  0  0  0  0  0  0  0  0  0  0
   56.4010   26.8570   45.8000 C   0  0  0  0  0  0  0  0  0  0  0  0
   55.7090   26.1860   46.6120 O   0  0  0  0  0  0  0  0  0  0  0  0
   57.7770   26.3850   45.4390 C   0  0  0  0  0  0  0  0  0  0  0  0
   58.7680   27.4390   45.6820 N   0  0  0  0  0  0  0  0  0  0  0  0
   59.5220   27.8540   44.6490 N   0  0  0  0  0  0  0  0  0  0  0  0
   60.4290   28.8600   44.7860 C   0  0  0  0  0  0  0  0  0  0  0  0
   60.5500   29.4460   45.9980 N   0  0  0  0  0  0  0  0  0  0  0  0
   61.3430   30.4510   46.3210 N   0  0  0  0  0  0  0  0  0  0  0  0
   61.1060   30.7230   47.6290 C   0  0  0  0  0  0  0  0  0  0  0  0
   61.7910   31.8080   48.3730 C   0  0  0  0  0  0  0  0  0  0  0  0
   61.0680   32.5940   49.2920 C   0  0  0  0  0  0  0  0  0  0  0  0
   61.7020   33.6190   50.0020 C   0  0  0  0  0  0  0  0  0  0  0  0
   63.0600   33.8720   49.8050 C   0  0  0  0  0  0  0  0  0  0  0  0
   63.7890   33.1010   48.8960 C   0  0  0  0  0  0  0  0  0  0  0  0
   63.1610   32.0750   48.1840 C   0  0  0  0  0  0  0  0  0  0  0  0
   60.1310   29.8550   48.1280 C   0  0  0  0  0  0  0  0  0  0  0  0
   59.8160   29.0660   47.0440 C   0  0  0  0  0  0  0  0  0  0  0  0
   58.8850   28.0430   46.9120 C   0  0  0  0  0  0  0  0  0  0  0  0
   58.1680   27.6930   47.8910 O   0  0  0  0  0  0  0  0  0  0  0  0
   58.4984   32.8623   43.3490 H   0  0  0  0  0  0  0  0  0  0  0  0
   58.7822   31.8419   41.8981 H   0  0  0  0  0  0  0  0  0  0  0  0
   57.4570   33.0546   41.8981 H   0  0  0  0  0  0  0  0  0  0  0  0
   56.0586   31.4365   42.6233 H   0  0  0  0  0  0  0  0  0  0  0  0
   57.4288   30.2831   42.8061 H   0  0  0  0  0  0  0  0  0  0  0  0
   58.7872   32.4761   44.4826 H   0  0  0  0  0  0  0  0  0  0  0  0
   57.3365   33.4494   44.9216 H   0  0  0  0  0  0  0  0  0  0  0  0
   57.4025   32.8084   47.1335 H   0  0  0  0  0  0  0  0  0  0  0  0
   58.0782   31.1871   46.7574 H   0  0  0  0  0  0  0  0  0  0  0  0
   59.1498   32.6288   46.7574 H   0  0  0  0  0  0  0  0  0  0  0  0
   58.3413   29.9861   45.2864 H   0  0  0  0  0  0  0  0  0  0  0  0
   56.7878   30.1136   46.1972 H   0  0  0  0  0  0  0  0  0  0  0  0
   56.0279   29.3456   43.5943 H   0  0  0  0  0  0  0  0  0  0  0  0
   57.4990   28.3723   43.9468 H   0  0  0  0  0  0  0  0  0  0  0  0
   58.0286   25.5053   46.0496 H   0  0  0  0  0  0  0  0  0  0  0  0
   57.7923   26.1253   44.3702 H   0  0  0  0  0  0  0  0  0  0  0  0
   61.0453   29.1864   43.9353 H   0  0  0  0  0  0  0  0  0  0  0  0
   59.9971   32.4002   49.4523 H   0  0  0  0  0  0  0  0  0  0  0  0
   61.1287   34.2270   50.7173 H   0  0  0  0  0  0  0  0  0  0  0  0
   63.5564   34.6781   50.3651 H   0  0  0  0  0  0  0  0  0  0  0  0
   64.8593   33.3018   48.7403 H   0  0  0  0  0  0  0  0  0  0  0  0
   63.7413   31.4714   47.4705 H   0  0  0  0  0  0  0  0  0  0  0  0
   59.7141   29.8121   49.1450 H   0  0  0  0  0  0  0  0  0  0  0  0
  1  2  1  0
  2  3  1  0
  3  4  1  0
  4  5  1  0
  3  6  1  0
  6  7  1  0
  7  8  1  0
  8  9  1  0
  9 10  2  0
  9 11  1  0
 11 12  1  0
 12 13  1  0
 13 14  2  0
 14 15  1  0
 15 16  1  0
 16 17  2  0
 17 18  1  0
 18 19  2  0
 19 20  1  0
 20 21  2  0
 21 22  1  0
 22 23  2  0
 17 24  1  0
 24 25  2  0
 25 26  1  0
 26 27  2  0
 26 12  1  0
 25 15  1  0
 23 18  1  0
  1 28  1  0
  1 29  1  0
  1 30  1  0
  2 31  1  0
  2 32  1  0
  4 33  1  0
  4 34  1  0
  5 35  1  0
  5 36  1  0
  5 37  1  0
  6 38  1  0
  6 39  1  0
  7 40  1  0
  7 41  1  0
 11 42  1  0
 11 43  1  0
 14 44  1  0
 19 45  1  0
 20 46  1  0
 21 47  1  0
 22 48  1  0
 23 49  1  0
 24 50  1  0
M  CHG  1   8  -1
M  END
>  <UniqueID>  (31) 
29

>  <SMILES>  (31) 
CCN(CC)CC[N-]C(=O)Cn1ncn2nc(-c3ccccc3)cc2c1=O

>  <Energy>  (31) 
82.09803467931879

>  <Genealogy>  (31) 
CCN(CC)CC[N-]C(=O)Cn1ncn2nc(-c3ccccc3)cc2c1=O (protonated)
CCN(CC)CC[N-]C(=O)Cn1ncn2nc(-c3ccccc3)cc2c1=O (3D coordinates assigned)
CCN(CC)CC[N-]C(=O)Cn1ncn2nc(-c3ccccc3)cc2c1=O (optimized conformer: 82.09803467931879 kcal/mol)

>  <smiles>  (31) 
CCN(CC)CCNC(=O)Cn1ncn2nc(-c3ccccc3)cc2c1=O

>  <score_type>  (31) 
oracle

>  <origin>  (31) 
adg

>  <m_score__min__energy>  (31) 
-9.5

>  <m_primary>  (31) 
energy

$$$$
31:0
     RDKit          3D

 58 61  0  0  0  0  0  0  0  0999 V2000
   57.7770   26.0120   47.5040 C   0  0  0  0  0  0  0  0  0  0  0  0
   58.2940   27.3350   47.6570 O   0  0  0  0  0  0  0  0  0  0  0  0
   59.1020   27.9830   46.7100 C   0  0  0  0  0  0  0  0  0  0  0  0
   59.1480   27.5720   45.3620 C   0  0  0  0  0  0  0  0  0  0  0  0
   59.9740   28.2270   44.4470 C   0  0  0  0  0  0  0  0  0  0  0  0
   60.7630   29.2970   44.8630 C   0  0  0  0  0  0  0  0  0  0  0  0
   60.7290   29.7160   46.1950 C   0  0  0  0  0  0  0  0  0  0  0  0
   59.8970   29.0700   47.1260 C   0  0  0  0  0  0  0  0  0  0  0  0
   59.8530   29.5350   48.4890 N   0  0  0  0  0  0  0  0  0  0  0  0
   58.5700   29.8450   49.1370 C   0  0  0  0  0  0  0  0  0  0  0  0
   58.7510   31.0390   50.0890 C   0  0  0  0  0  0  0  0  0  0  0  0
   59.8060   30.8120   51.1250 N   0  0  0  0  0  0  0  0  0  0  0  0
   60.4540   32.1040   51.4830 C   0  0  0  0  0  0  0  0  0  0  0  0
   59.6370   33.3060   51.0570 C   0  0  0  0  0  0  0  0  0  0  0  0
   58.5250   33.5190   51.6140 O   0  0  0  0  0  0  0  0  0  0  0  0
   60.0030   34.1120   49.9060 N   0  0  0  0  0  0  0  0  0  0  0  0
   60.8570   33.7110   48.8320 C   0  0  0  0  0  0  0  0  0  0  0  0
   62.1220   33.1640   49.1100 C   0  0  0  0  0  0  0  0  0  0  0  0
   63.0200   32.9040   48.0720 C   0  0  0  0  0  0  0  0  0  0  0  0
   62.6820   33.2220   46.7570 C   0  0  0  0  0  0  0  0  0  0  0  0
   61.4420   33.8030   46.4770 C   0  0  0  0  0  0  0  0  0  0  0  0
   60.5290   34.0480   47.5090 C   0  0  0  0  0  0  0  0  0  0  0  0
   58.9290   34.7720   47.1160 S   0  0  0  0  0  0  0  0  0  0  0  0
   58.5230   33.4600   45.9580 C   0  0  0  0  0  0  0  0  0  0  0  0
   58.1900   32.1880   46.4400 C   0  0  0  0  0  0  0  0  0  0  0  0
   57.7990   31.1800   45.5500 C   0  0  0  0  0  0  0  0  0  0  0  0
   57.7480   31.4420   44.1740 C   0  0  0  0  0  0  0  0  0  0  0  0
   58.0950   32.7080   43.6870 C   0  0  0  0  0  0  0  0  0  0  0  0
   58.5030   33.7120   44.5760 C   0  0  0  0  0  0  0  0  0  0  0  0
   60.8160   29.7910   50.7270 C   0  0  0  0  0  0  0  0  0  0  0  0
   61.0920   29.8170   49.2170 C   0  0  0  0  0  0  0  0  0  0  0  0
   57.6039   25.5690   48.4959 H   0  0  0  0  0  0  0  0  0  0  0  0
   56.8280   26.0511   46.9492 H   0  0  0  0  0  0  0  0  0  0  0  0
   58.5011   25.3973   46.9492 H   0  0  0  0  0  0  0  0  0  0  0  0
   58.5272   26.7274   45.0283 H   0  0  0  0  0  0  0  0  0  0  0  0
   60.0019   27.8983   43.3976 H   0  0  0  0  0  0  0  0  0  0  0  0
   61.4137   29.8127   44.1415 H   0  0  0  0  0  0  0  0  0  0  0  0
   61.3584   30.5583   46.5182 H   0  0  0  0  0  0  0  0  0  0  0  0
   57.8235   30.0979   48.3697 H   0  0  0  0  0  0  0  0  0  0  0  0
   58.2272   28.9697   49.7082 H   0  0  0  0  0  0  0  0  0  0  0  0
   59.0293   31.9214   49.4941 H   0  0  0  0  0  0  0  0  0  0  0  0
   57.7978   31.1819   50.6190 H   0  0  0  0  0  0  0  0  0  0  0  0
   59.3140   30.4470   51.9770 H   0  0  0  0  0  0  0  0  0  0  0  0
   60.5892   32.1393   52.5741 H   0  0  0  0  0  0  0  0  0  0  0  0
   61.4161   32.1513   50.9518 H   0  0  0  0  0  0  0  0  0  0  0  0
   62.4057   32.9399   50.1489 H   0  0  0  0  0  0  0  0  0  0  0  0
   63.9961   32.4473   48.2925 H   0  0  0  0  0  0  0  0  0  0  0  0
   63.3904   33.0159   45.9411 H   0  0  0  0  0  0  0  0  0  0  0  0
   61.1827   34.0687   45.4415 H   0  0  0  0  0  0  0  0  0  0  0  0
   58.2356   31.9804   47.5193 H   0  0  0  0  0  0  0  0  0  0  0  0
   57.5320   30.1831   45.9306 H   0  0  0  0  0  0  0  0  0  0  0  0
   57.4349   30.6518   43.4757 H   0  0  0  0  0  0  0  0  0  0  0  0
   58.0475   32.9146   42.6076 H   0  0  0  0  0  0  0  0  0  0  0  0
   58.8074   34.6967   44.1918 H   0  0  0  0  0  0  0  0  0  0  0  0
   61.7550   29.9916   51.2637 H   0  0  0  0  0  0  0  0  0  0  0  0
   60.4169   28.7986   50.9836 H   0  0  0  0  0  0  0  0  0  0  0  0
   61.4678   30.8102   48.9301 H   0  0  0  0  0  0  0  0  0  0  0  0
   61.8447   29.0542   48.9688 H   0  0  0  0  0  0  0  0  0  0  0  0
  1  2  1  0
  2  3  1  0
  3  4  2  0
  4  5  1  0
  5  6  2  0
  6  7  1  0
  7  8  2  0
  8  9  1  0
  9 10  1  0
 10 11  1  0
 11 12  1  0
 12 13  1  0
 13 14  1  0
 14 15  2  0
 14 16  1  0
 16 17  1  0
 17 18  2  0
 18 19  1  0
 19 20  2  0
 20 21  1  0
 21 22  2  0
 22 23  1  0
 23 24  1  0
 24 25  2  0
 25 26  1  0
 26 27  2  0
 27 28  1  0
 28 29  2  0
 12 30  1  0
 30 31  1  0
  8  3  1  0
 31  9  1  0
 22 17  1  0
 29 24  1  0
  1 32  1  0
  1 33  1  0
  1 34  1  0
  4 35  1  0
  5 36  1  0
  6 37  1  0
  7 38  1  0
 10 39  1  0
 10 40  1  0
 11 41  1  0
 11 42  1  0
 12 43  1  0
 13 44  1  0
 13 45  1  0
 18 46  1  0
 19 47  1  0
 20 48  1  0
 21 49  1  0
 25 50  1  0
 26 51  1  0
 27 52  1  0
 28 53  1  0
 29 54  1  0
 30 55  1  0
 30 56  1  0
 31 57  1  0
 31 58  1  0
M  CHG  2  12   1  16  -1
M  END
>  <UniqueID>  (32) 
30

>  <SMILES>  (32) 
COc1ccccc1N1CC[NH+](CC(=O)[N-]c2ccccc2Sc2ccccc2)CC1

>  <Energy>  (32) 
77.95511956998386

>  <Genealogy>  (32) 
COc1ccccc1N1CC[NH+](CC(=O)[N-]c2ccccc2Sc2ccccc2)CC1 (protonated)
COc1ccccc1N1CC[NH+](CC(=O)[N-]c2ccccc2Sc2ccccc2)CC1 (3D coordinates assigned)
COc1ccccc1N1CC[NH+](CC(=O)[N-]c2ccccc2Sc2ccccc2)CC1 (nonaromatic ring conformer: 77.95511956998386 kcal/mol)

>  <smiles>  (32) 
COc1ccccc1N1CCN(CC(=O)Nc2ccccc2Sc2ccccc2)CC1

>  <score_type>  (32) 
oracle

>  <origin>  (32) 
adg

>  <m_score__min__energy>  (32) 
-8.3900000000000006

>  <m_primary>  (32) 
energy

$$$$
32:0
     RDKit          3D

 83 87  0  0  0  0  0  0  0  0999 V2000
   66.0890   33.4050   50.9060 C   0  0  0  0  0  0  0  0  0  0  0  0
   65.0330   32.7730   50.1920 O   0  0  0  0  0  0  0  0  0  0  0  0
   63.6730   33.0970   50.3270 C   0  0  0  0  0  0  0  0  0  0  0  0
   63.0190   33.9520   49.4210 C   0  0  0  0  0  0  0  0  0  0  0  0
   61.6630   34.2470   49.5820 C   0  0  0  0  0  0  0  0  0  0  0  0
   60.9440   33.7080   50.6560 C   0  0  0  0  0  0  0  0  0  0  0  0
   59.4720   33.9940   50.8090 C   0  0  0  0  0  0  0  0  0  0  0  0
   58.8410   33.1270   51.9060 C   0  0  0  0  0  0  0  0  0  0  0  0
   59.2860   33.5560   53.2490 N   0  0  0  0  0  0  0  0  0  0  0  0
   58.9090   34.9460   53.5440 C   0  0  0  0  0  0  0  0  0  0  0  0
   58.9690   32.6080   54.3450 C   0  0  0  0  0  0  0  0  0  0  0  0
   60.0600   31.5570   54.6570 C   0  0  0  0  0  0  0  0  0  0  0  0
   60.6790   31.0310   53.4400 N   0  0  0  0  0  0  0  0  0  0  0  0
   59.9510   30.2340   52.4910 C   0  0  0  0  0  0  0  0  0  0  0  0
   58.7430   29.9500   52.7180 O   0  0  0  0  0  0  0  0  0  0  0  0
   60.5790   29.7580   51.2800 N   0  0  0  0  0  0  0  0  0  0  0  0
   61.4240   28.5610   51.2970 C   0  0  0  0  0  0  0  0  0  0  0  0
   60.7930   27.4990   50.4070 C   0  0  0  0  0  0  0  0  0  0  0  0
   60.4600   28.0560   49.0500 C   0  0  0  0  0  0  0  0  0  0  0  0
   60.2450   27.1850   48.0310 N   0  0  0  0  0  0  0  0  0  0  0  0
   59.8850   27.6080   46.7920 C   0  0  0  0  0  0  0  0  0  0  0  0
   59.6140   26.6520   45.7440 N   0  0  0  0  0  0  0  0  0  0  0  0
   58.8260   27.0370   44.5650 C   0  0  0  0  0  0  0  0  0  0  0  0
   57.3930   26.5170   44.7310 C   0  0  0  0  0  0  0  0  0  0  0  0
   57.3920   25.0040   45.0100 C   0  0  0  0  0  0  0  0  0  0  0  0
   58.2980   24.6450   46.2000 C   0  0  0  0  0  0  0  0  0  0  0  0
   59.7070   25.2090   45.9980 C   0  0  0  0  0  0  0  0  0  0  0  0
   59.7590   28.9400   46.5560 N   0  0  0  0  0  0  0  0  0  0  0  0
   59.9530   29.8660   47.5310 C   0  0  0  0  0  0  0  0  0  0  0  0
   59.8150   31.2950   47.1750 C   0  0  0  0  0  0  0  0  0  0  0  0
   58.5340   31.8540   47.0390 C   0  0  0  0  0  0  0  0  0  0  0  0
   58.3810   33.2090   46.7370 C   0  0  0  0  0  0  0  0  0  0  0  0
   59.5050   34.0220   46.5860 C   0  0  0  0  0  0  0  0  0  0  0  0
   60.7820   33.4830   46.7400 C   0  0  0  0  0  0  0  0  0  0  0  0
   60.9470   32.1250   47.0400 C   0  0  0  0  0  0  0  0  0  0  0  0
   62.5800   31.4930   47.2130 Cl  0  0  0  0  0  0  0  0  0  0  0  0
   60.2790   29.4400   48.8390 C   0  0  0  0  0  0  0  0  0  0  0  0
   60.3600   30.4280   49.9910 C   0  0  0  0  0  0  0  0  0  0  0  0
   61.5920   32.8530   51.5600 C   0  0  0  0  0  0  0  0  0  0  0  0
   62.9550   32.5420   51.3980 C   0  0  0  0  0  0  0  0  0  0  0  0
   63.6310   31.6840   52.2810 O   0  0  0  0  0  0  0  0  0  0  0  0
   64.2190   30.4430   51.9050 C   0  0  0  0  0  0  0  0  0  0  0  0
   65.9146   33.3006   51.9871 H   0  0  0  0  0  0  0  0  0  0  0  0
   67.0457   32.9308   50.6415 H   0  0  0  0  0  0  0  0  0  0  0  0
   66.1232   34.4722   50.6415 H   0  0  0  0  0  0  0  0  0  0  0  0
   63.5784   34.3905   48.5815 H   0  0  0  0  0  0  0  0  0  0  0  0
   61.1573   34.9063   48.8612 H   0  0  0  0  0  0  0  0  0  0  0  0
   59.3393   35.0541   51.0709 H   0  0  0  0  0  0  0  0  0  0  0  0
   58.9745   33.7604   49.8561 H   0  0  0  0  0  0  0  0  0  0  0  0
   57.7460   33.2135   51.8462 H   0  0  0  0  0  0  0  0  0  0  0  0
   59.1569   32.0848   51.7509 H   0  0  0  0  0  0  0  0  0  0  0  0
   58.8694   35.0918   54.6336 H   0  0  0  0  0  0  0  0  0  0  0  0
   59.6546   35.6282   53.1096 H   0  0  0  0  0  0  0  0  0  0  0  0
   57.9209   35.1580   53.1096 H   0  0  0  0  0  0  0  0  0  0  0  0
   58.7928   33.1942   55.2589 H   0  0  0  0  0  0  0  0  0  0  0  0
   58.0914   32.0385   54.0053 H   0  0  0  0  0  0  0  0  0  0  0  0
   60.8382   32.0263   55.2768 H   0  0  0  0  0  0  0  0  0  0  0  0
   59.5825   30.7183   55.1849 H   0  0  0  0  0  0  0  0  0  0  0  0
   61.6720   31.2930   53.2510 H   0  0  0  0  0  0  0  0  0  0  0  0
   62.4264   28.8113   50.9193 H   0  0  0  0  0  0  0  0  0  0  0  0
   61.5115   28.1812   52.3256 H   0  0  0  0  0  0  0  0  0  0  0  0
   61.4990   26.6638   50.2889 H   0  0  0  0  0  0  0  0  0  0  0  0
   59.8619   27.1549   50.8809 H   0  0  0  0  0  0  0  0  0  0  0  0
   58.8122   28.1330   44.4724 H   0  0  0  0  0  0  0  0  0  0  0  0
   59.2760   26.6039   43.6595 H   0  0  0  0  0  0  0  0  0  0  0  0
   56.9145   27.0396   45.5724 H   0  0  0  0  0  0  0  0  0  0  0  0
   56.8386   26.7051   43.7997 H   0  0  0  0  0  0  0  0  0  0  0  0
   56.3640   24.6836   45.2350 H   0  0  0  0  0  0  0  0  0  0  0  0
   57.7782   24.4902   44.1174 H   0  0  0  0  0  0  0  0  0  0  0  0
   57.8688   25.0671   47.1206 H   0  0  0  0  0  0  0  0  0  0  0  0
   58.3635   23.5496   46.2763 H   0  0  0  0  0  0  0  0  0  0  0  0
   60.3079   25.0320   46.9022 H   0  0  0  0  0  0  0  0  0  0  0  0
   60.1864   24.7118   45.1419 H   0  0  0  0  0  0  0  0  0  0  0  0
   57.6447   31.2202   47.1713 H   0  0  0  0  0  0  0  0  0  0  0  0
   57.3740   33.6355   46.6181 H   0  0  0  0  0  0  0  0  0  0  0  0
   59.3838   35.0885   46.3454 H   0  0  0  0  0  0  0  0  0  0  0  0
   61.6652   34.1286   46.6251 H   0  0  0  0  0  0  0  0  0  0  0  0
   61.1936   31.1213   49.8056 H   0  0  0  0  0  0  0  0  0  0  0  0
   59.4004   30.9629   50.0463 H   0  0  0  0  0  0  0  0  0  0  0  0
   61.0304   32.4223   52.4021 H   0  0  0  0  0  0  0  0  0  0  0  0
   64.4877   29.8759   52.8084 H   0  0  0  0  0  0  0  0  0  0  0  0
   63.5001   29.8626   51.3080 H   0  0  0  0  0  0  0  0  0  0  0  0
   65.1234   30.6317   51.3080 H   0  0  0  0  0  0  0  0  0  0  0  0
  1  2  1  0
  2  3  1  0
  3  4  2  0
  4  5  1  0
  5  6  2  0
  6  7  1  0
  7  8  1  0
  8  9  1  0
  9 10  1  0
  9 11  1  0
 11 12  1  0
 12 13  1  0
 13 14  1  0
 14 15  2  0
 14 16  1  0
 16 17  1  0
 17 18  1  0
 18 19  1  0
 19 20  2  0
 20 21  1  0
 21 22  1  0
 22 23  1  0
 23 24  1  0
 24 25  1  0
 25 26  1  0
 26 27  1  0
 21 28  2  0
 28 29  1  0
 29 30  1  0
 30 31  2  0
 31 32  1  0
 32 33  2  0
 33 34  1  0
 34 35  2  0
 35 36  1  0
 29 37  2  0
 37 38  1  0
  6 39  1  0
 39 40  2  0
 40 41  1  0
 41 42  1  0
 40  3  1  0
 38 16  1  0
 37 19  1  0
 27 22  1  0
 35 30  1  0
  1 43  1  0
  1 44  1  0
  1 45  1  0
  4 46  1  0
  5 47  1  0
  7 48  1  0
  7 49  1  0
  8 50  1  0
  8 51  1  0
 10 52  1  0
 10 53  1  0
 10 54  1  0
 11 55  1  0
 11 56  1  0
 12 57  1  0
 12 58  1  0
 13 59  1  0
 17 60  1  0
 17 61  1  0
 18 62  1  0
 18 63  1  0
 23 64  1  0
 23 65  1  0
 24 66  1  0
 24 67  1  0
 25 68  1  0
 25 69  1  0
 26 70  1  0
 26 71  1  0
 27 72  1  0
 27 73  1  0
 31 74  1  0
 32 75  1  0
 33 76  1  0
 34 77  1  0
 38 78  1  0
 38 79  1  0
 39 80  1  0
 42 81  1  0
 42 82  1  0
 42 83  1  0
M  END
>  <UniqueID>  (33) 
31

>  <SMILES>  (33) 
COc1ccc(CCN(C)CCNC(=O)N2CCc3nc(N4CCCCC4)nc(-c4ccccc4Cl)c3C2)cc1OC

>  <Energy>  (33) 
95.93884333639424

>  <Genealogy>  (33) 
COc1ccc(CCN(C)CCNC(=O)N2CCc3nc(N4CCCCC4)nc(-c4ccccc4Cl)c3C2)cc1OC (3D coordinates assigned)
COc1ccc(CCN(C)CCNC(=O)N2CCc3nc(N4CCCCC4)nc(-c4ccccc4Cl)c3C2)cc1OC (nonaromatic ring conformer: 95.93884333639424 kcal/mol)

>  <smiles>  (33) 
COc1ccc(CCN(C)CCNC(=O)N2CCc3nc(N4CCCCC4)nc(-c4ccccc4Cl)c3C2)cc1OC

>  <score_type>  (33) 
oracle

>  <origin>  (33) 
adg

>  <m_score__min__energy>  (33) 
-9.2400000000000002

>  <m_primary>  (33) 
energy

$$$$
33:0
     RDKit          3D

 31 34  0  0  0  0  0  0  0  0999 V2000
   58.0230   32.7980   43.6360 C   0  0  0  0  0  0  0  0  0  0  0  0
   58.4520   33.2850   44.9450 N   0  0  0  0  0  0  0  0  0  0  0  0
   58.4130   34.5710   45.3520 C   0  0  0  0  0  0  0  0  0  0  0  0
   58.9330   34.7460   46.5850 N   0  0  0  0  0  0  0  0  0  0  0  0
   59.2940   33.5030   46.9640 C   0  0  0  0  0  0  0  0  0  0  0  0
   58.9960   32.5970   45.9710 C   0  0  0  0  0  0  0  0  0  0  0  0
   59.2440   31.1320   46.0270 C   0  0  0  0  0  0  0  0  0  0  0  0
   58.2630   30.2530   45.5320 C   0  0  0  0  0  0  0  0  0  0  0  0
   58.4650   28.8730   45.5510 C   0  0  0  0  0  0  0  0  0  0  0  0
   59.6430   28.3470   46.0760 C   0  0  0  0  0  0  0  0  0  0  0  0
   60.6160   29.1980   46.5990 C   0  0  0  0  0  0  0  0  0  0  0  0
   60.4320   30.5940   46.5980 C   0  0  0  0  0  0  0  0  0  0  0  0
   61.4590   31.4340   47.1690 N   0  0  0  0  0  0  0  0  0  0  0  0
   62.7930   31.2180   47.1200 C   0  0  0  0  0  0  0  0  0  0  0  0
   63.4830   32.1600   47.7930 N   0  0  0  0  0  0  0  0  0  0  0  0
   62.5590   32.9980   48.2920 C   0  0  0  0  0  0  0  0  0  0  0  0
   62.9350   34.4150   49.2570 Cl  0  0  0  0  0  0  0  0  0  0  0  0
   61.3070   32.5530   47.9130 C   0  0  0  0  0  0  0  0  0  0  0  0
   59.9920   33.1860   48.2420 C   0  0  0  0  0  0  0  0  0  0  0  0
   57.3012   31.9786   43.7682 H   0  0  0  0  0  0  0  0  0  0  0  0
   57.5485   33.6181   43.0772 H   0  0  0  0  0  0  0  0  0  0  0  0
   58.8964   32.4307   43.0772 H   0  0  0  0  0  0  0  0  0  0  0  0
   58.0012   35.3896   44.7435 H   0  0  0  0  0  0  0  0  0  0  0  0
   57.3252   30.6592   45.1250 H   0  0  0  0  0  0  0  0  0  0  0  0
   57.6930   28.1993   45.1509 H   0  0  0  0  0  0  0  0  0  0  0  0
   59.8060   27.2591   46.0781 H   0  0  0  0  0  0  0  0  0  0  0  0
   61.5399   28.7729   47.0181 H   0  0  0  0  0  0  0  0  0  0  0  0
   63.2600   30.3730   46.5929 H   0  0  0  0  0  0  0  0  0  0  0  0
   64.5190   32.2230   47.9030 H   0  0  0  0  0  0  0  0  0  0  0  0
   59.3821   32.4898   48.8364 H   0  0  0  0  0  0  0  0  0  0  0  0
   60.1486   34.1044   48.8269 H   0  0  0  0  0  0  0  0  0  0  0  0
  1  2  1  0
  2  3  1  0
  3  4  2  0
  4  5  1  0
  5  6  2  0
  6  7  1  0
  7  8  2  0
  8  9  1  0
  9 10  2  0
 10 11  1  0
 11 12  2  0
 12 13  1  0
 13 14  1  0
 14 15  2  0
 15 16  1  0
 16 17  1  0
 16 18  2  0
 18 19  1  0
  6  2  1  0
 12  7  1  0
 18 13  1  0
 19  5  1  0
  1 20  1  0
  1 21  1  0
  1 22  1  0
  3 23  1  0
  8 24  1  0
  9 25  1  0
 10 26  1  0
 11 27  1  0
 14 28  1  0
 15 29  1  0
 19 30  1  0
 19 31  1  0
M  CHG  1  15   1
M  END
>  <UniqueID>  (34) 
32

>  <SMILES>  (34) 
Cn1cnc2c1-c1ccccc1-n1c[nH+]c(Cl)c1C2

>  <Energy>  (34) 
108.10633863852522

>  <Genealogy>  (34) 
Cn1cnc2c1-c1ccccc1-n1c[nH+]c(Cl)c1C2 (protonated)
Cn1cnc2c1-c1ccccc1-n1c[nH+]c(Cl)c1C2 (3D coordinates assigned)
Cn1cnc2c1-c1ccccc1-n1c[nH+]c(Cl)c1C2 (nonaromatic ring conformer: 108.10633863852522 kcal/mol)

>  <smiles>  (34) 
Cn1cnc2c1-c1ccccc1-n1cnc(Cl)c1C2

>  <score_type>  (34) 
oracle

>  <origin>  (34) 
adg

>  <m_score__min__energy>  (34) 
-5.25

>  <m_primary>  (34) 
energy

$$$$
34:0
     RDKit          3D

 36 37  0  0  0  0  0  0  0  0999 V2000
   57.0220   30.8630   42.8290 C   0  0  0  0  0  0  0  0  0  0  0  0
   56.2470   30.6350   44.1220 C   0  0  0  0  0  0  0  0  0  0  0  0
   57.0250   31.0290   45.2530 O   0  0  0  0  0  0  0  0  0  0  0  0
   57.7910   32.2030   45.3590 C   0  0  0  0  0  0  0  0  0  0  0  0
   57.3860   33.4130   44.7610 C   0  0  0  0  0  0  0  0  0  0  0  0
   58.1530   34.5690   44.9100 C   0  0  0  0  0  0  0  0  0  0  0  0
   59.3240   34.5410   45.6640 C   0  0  0  0  0  0  0  0  0  0  0  0
   59.7430   33.3520   46.2640 C   0  0  0  0  0  0  0  0  0  0  0  0
   60.8770   33.3610   47.0090 F   0  0  0  0  0  0  0  0  0  0  0  0
   58.9960   32.1670   46.1010 C   0  0  0  0  0  0  0  0  0  0  0  0
   59.4710   30.8740   46.7490 C   0  0  0  0  0  0  0  0  0  0  0  0
   58.9360   29.6340   46.1290 N   0  0  0  0  0  0  0  0  0  0  0  0
   58.9310   28.4820   47.0540 C   0  0  0  0  0  0  0  0  0  0  0  0
   58.3790   27.2150   46.3580 C   0  0  0  0  0  0  0  0  0  0  0  0
   57.9450   27.4860   45.0370 O   0  0  0  0  0  0  0  0  0  0  0  0
   59.0260   27.9790   44.2680 C   0  0  0  0  0  0  0  0  0  0  0  0
   59.6200   29.2740   44.8700 C   0  0  0  0  0  0  0  0  0  0  0  0
   58.0522   31.1661   43.0676 H   0  0  0  0  0  0  0  0  0  0  0  0
   57.0400   29.9321   42.2433 H   0  0  0  0  0  0  0  0  0  0  0  0
   56.5330   31.6553   42.2433 H   0  0  0  0  0  0  0  0  0  0  0  0
   55.3205   31.2275   44.0969 H   0  0  0  0  0  0  0  0  0  0  0  0
   56.0127   29.5638   44.2097 H   0  0  0  0  0  0  0  0  0  0  0  0
   56.4576   33.4465   44.1719 H   0  0  0  0  0  0  0  0  0  0  0  0
   57.8320   35.5055   44.4305 H   0  0  0  0  0  0  0  0  0  0  0  0
   59.9197   35.4575   45.7869 H   0  0  0  0  0  0  0  0  0  0  0  0
   60.5687   30.8424   46.6855 H   0  0  0  0  0  0  0  0  0  0  0  0
   59.0968   30.8899   47.7833 H   0  0  0  0  0  0  0  0  0  0  0  0
   57.9370   29.8470   45.8910 H   0  0  0  0  0  0  0  0  0  0  0  0
   59.9595   28.2876   47.3921 H   0  0  0  0  0  0  0  0  0  0  0  0
   58.2832   28.7223   47.9099 H   0  0  0  0  0  0  0  0  0  0  0  0
   59.1725   26.4540   46.3228 H   0  0  0  0  0  0  0  0  0  0  0  0
   57.5134   26.8580   46.9353 H   0  0  0  0  0  0  0  0  0  0  0  0
   59.8132   27.2117   44.2286 H   0  0  0  0  0  0  0  0  0  0  0  0
   58.6490   28.2131   43.2615 H   0  0  0  0  0  0  0  0  0  0  0  0
   60.6898   29.1185   45.0734 H   0  0  0  0  0  0  0  0  0  0  0  0
   59.4802   30.0924   44.1485 H   0  0  0  0  0  0  0  0  0  0  0  0
  1  2  1  0
  2  3  1  0
  3  4  1  0
  4  5  2  0
  5  6  1  0
  6  7  2  0
  7  8  1  0
  8  9  1  0
  8 10  2  0
 10 11  1  0
 11 12  1  0
 12 13  1  0
 13 14  1  0
 14 15  1  0
 15 16  1  0
 16 17  1  0
 10  4  1  0
 17 12  1  0
  1 18  1  0
  1 19  1  0
  1 20  1  0
  2 21  1  0
  2 22  1  0
  5 23  1  0
  6 24  1  0
  7 25  1  0
 11 26  1  0
 11 27  1  0
 12 28  1  0
 13 29  1  0
 13 30  1  0
 14 31  1  0
 14 32  1  0
 16 33  1  0
 16 34  1  0
 17 35  1  0
 17 36  1  0
M  CHG  1  12   1
M  END
>  <UniqueID>  (35) 
33

>  <SMILES>  (35) 
CCOc1cccc(F)c1C[NH+]1CCOCC1

>  <Energy>  (35) 
46.479756104865274

>  <Genealogy>  (35) 
CCOc1cccc(F)c1C[NH+]1CCOCC1 (protonated)
CCOc1cccc(F)c1C[NH+]1CCOCC1 (3D coordinates assigned)
CCOc1cccc(F)c1C[NH+]1CCOCC1 (nonaromatic ring conformer: 46.479756104865274 kcal/mol)

>  <smiles>  (35) 
CCOc1cccc(F)c1CN1CCOCC1

>  <score_type>  (35) 
oracle

>  <origin>  (35) 
adg

>  <m_score__min__energy>  (35) 
-3.5899999999999999

>  <m_primary>  (35) 
energy

$$$$
35:0
     RDKit          3D

 21 21  0  0  0  0  0  0  0  0999 V2000
   57.7240   31.5340   43.1980 C   0  0  0  0  0  0  0  0  0  0  0  0
   57.0260   31.2210   44.4770 C   0  0  0  0  0  0  0  0  0  0  0  0
   56.1200   30.3430   44.4950 O   0  0  0  0  0  0  0  0  0  0  0  0
   57.3320   31.9560   45.6260 O   0  0  0  0  0  0  0  0  0  0  0  0
   58.6400   32.2870   46.0010 C   0  0  0  0  0  0  0  0  0  0  0  0
   59.1340   33.5740   45.7130 C   0  0  0  0  0  0  0  0  0  0  0  0
   58.2570   34.5870   45.0330 C   0  0  0  0  0  0  0  0  0  0  0  0
   60.4360   33.9230   46.1080 C   0  0  0  0  0  0  0  0  0  0  0  0
   61.2500   32.9910   46.7580 C   0  0  0  0  0  0  0  0  0  0  0  0
   63.0220   33.4740   47.2830 Br  0  0  0  0  0  0  0  0  0  0  0  0
   60.7720   31.7050   47.0160 C   0  0  0  0  0  0  0  0  0  0  0  0
   59.4740   31.3450   46.6370 C   0  0  0  0  0  0  0  0  0  0  0  0
   58.9080   29.5380   46.9330 Br  0  0  0  0  0  0  0  0  0  0  0  0
   58.7079   31.9752   43.4157 H   0  0  0  0  0  0  0  0  0  0  0  0
   57.8572   30.6094   42.6172 H   0  0  0  0  0  0  0  0  0  0  0  0
   57.1222   32.2484   42.6172 H   0  0  0  0  0  0  0  0  0  0  0  0
   57.7358   35.1890   45.7919 H   0  0  0  0  0  0  0  0  0  0  0  0
   58.8756   35.2446   44.4047 H   0  0  0  0  0  0  0  0  0  0  0  0
   57.5176   34.0689   44.4047 H   0  0  0  0  0  0  0  0  0  0  0  0
   60.8169   34.9347   45.9048 H   0  0  0  0  0  0  0  0  0  0  0  0
   61.4187   30.9713   47.5195 H   0  0  0  0  0  0  0  0  0  0  0  0
  1  2  1  0
  2  3  2  0
  2  4  1  0
  4  5  1  0
  5  6  2  0
  6  7  1  0
  6  8  1  0
  8  9  2  0
  9 10  1  0
  9 11  1  0
 11 12  2  0
 12 13  1  0
 12  5  1  0
  1 14  1  0
  1 15  1  0
  1 16  1  0
  7 17  1  0
  7 18  1  0
  7 19  1  0
  8 20  1  0
 11 21  1  0
M  END
>  <UniqueID>  (36) 
34

>  <SMILES>  (36) 
CC(=O)Oc1c(C)cc(Br)cc1Br

>  <Energy>  (36) 
24.601685138767266

>  <Genealogy>  (36) 
CC(=O)Oc1c(C)cc(Br)cc1Br (3D coordinates assigned)
CC(=O)Oc1c(C)cc(Br)cc1Br (optimized conformer: 24.601685138767266 kcal/mol)

>  <smiles>  (36) 
CC(=O)Oc1c(C)cc(Br)cc1Br

>  <score_type>  (36) 
oracle

>  <origin>  (36) 
adg

>  <m_score__min__energy>  (36) 
-6.2999999999999998

>  <m_primary>  (36) 
energy

$$$$
36:0
     RDKit          3D

 57 60  0  0  0  0  0  0  0  0999 V2000
   67.5210   28.2510   50.7830 C   0  0  0  0  0  0  0  0  0  0  0  0
   67.5150   29.4130   51.7730 C   0  0  0  0  0  0  0  0  0  0  0  0
   66.6820   30.5530   51.2450 C   0  0  0  0  0  0  0  0  0  0  0  0
   65.2820   30.4610   51.2430 C   0  0  0  0  0  0  0  0  0  0  0  0
   64.5080   31.5410   50.8080 C   0  0  0  0  0  0  0  0  0  0  0  0
   65.1240   32.7310   50.3820 C   0  0  0  0  0  0  0  0  0  0  0  0
   64.3780   33.8300   49.9320 O   0  0  0  0  0  0  0  0  0  0  0  0
   63.3070   33.7630   49.0280 C   0  0  0  0  0  0  0  0  0  0  0  0
   63.5100   33.5710   47.6520 C   0  0  0  0  0  0  0  0  0  0  0  0
   62.4200   33.5050   46.7790 C   0  0  0  0  0  0  0  0  0  0  0  0
   61.1040   33.6310   47.2650 C   0  0  0  0  0  0  0  0  0  0  0  0
   59.9300   33.5800   46.3530 C   0  0  0  0  0  0  0  0  0  0  0  0
   59.4230   34.7340   45.7300 C   0  0  0  0  0  0  0  0  0  0  0  0
   58.3270   34.6290   44.8740 C   0  0  0  0  0  0  0  0  0  0  0  0
   57.7230   33.3900   44.6620 C   0  0  0  0  0  0  0  0  0  0  0  0
   58.2190   32.2610   45.3280 C   0  0  0  0  0  0  0  0  0  0  0  0
   57.6120   30.9260   45.1390 C   0  0  0  0  0  0  0  0  0  0  0  0
   56.5100   30.8450   44.5290 O   0  0  0  0  0  0  0  0  0  0  0  0
   58.2420   29.7250   45.6230 N   0  0  0  0  0  0  0  0  0  0  0  0
   59.7020   29.5640   45.5930 C   0  0  0  0  0  0  0  0  0  0  0  0
   60.0790   28.1740   45.0460 C   0  0  0  0  0  0  0  0  0  0  0  0
   59.2280   27.0630   45.5600 N   0  0  0  0  0  0  0  0  0  0  0  0
   60.0450   25.9260   46.0200 C   0  0  0  0  0  0  0  0  0  0  0  0
   58.2740   27.4660   46.6140 C   0  0  0  0  0  0  0  0  0  0  0  0
   57.4070   28.6280   46.1230 C   0  0  0  0  0  0  0  0  0  0  0  0
   59.3100   32.3860   46.1340 N   0  0  0  0  0  0  0  0  0  0  0  0
   60.9100   33.7860   48.6510 C   0  0  0  0  0  0  0  0  0  0  0  0
   62.0020   33.8480   49.5210 C   0  0  0  0  0  0  0  0  0  0  0  0
   66.5200   32.8130   50.3690 C   0  0  0  0  0  0  0  0  0  0  0  0
   67.2970   31.7370   50.8100 C   0  0  0  0  0  0  0  0  0  0  0  0
   67.5259   27.2993   51.3346 H   0  0  0  0  0  0  0  0  0  0  0  0
   66.6226   28.3035   50.1505 H   0  0  0  0  0  0  0  0  0  0  0  0
   68.4188   28.3128   50.1505 H   0  0  0  0  0  0  0  0  0  0  0  0
   67.0947   29.0707   52.7302 H   0  0  0  0  0  0  0  0  0  0  0  0
   68.5478   29.7637   51.9157 H   0  0  0  0  0  0  0  0  0  0  0  0
   64.7923   29.5371   51.5844 H   0  0  0  0  0  0  0  0  0  0  0  0
   63.4111   31.4593   50.7990 H   0  0  0  0  0  0  0  0  0  0  0  0
   64.5325   33.4719   47.2586 H   0  0  0  0  0  0  0  0  0  0  0  0
   62.5916   33.3533   45.7031 H   0  0  0  0  0  0  0  0  0  0  0  0
   59.8878   35.7134   45.9166 H   0  0  0  0  0  0  0  0  0  0  0  0
   57.9387   35.5240   44.3658 H   0  0  0  0  0  0  0  0  0  0  0  0
   56.8657   33.2997   43.9787 H   0  0  0  0  0  0  0  0  0  0  0  0
   60.1386   30.3387   44.9456 H   0  0  0  0  0  0  0  0  0  0  0  0
   60.0924   29.6620   46.6167 H   0  0  0  0  0  0  0  0  0  0  0  0
   59.9890   28.1987   43.9500 H   0  0  0  0  0  0  0  0  0  0  0  0
   61.1051   27.9688   45.3851 H   0  0  0  0  0  0  0  0  0  0  0  0
   60.0594   25.9060   47.1197 H   0  0  0  0  0  0  0  0  0  0  0  0
   59.6133   24.9876   45.6418 H   0  0  0  0  0  0  0  0  0  0  0  0
   61.0721   26.0358   45.6418 H   0  0  0  0  0  0  0  0  0  0  0  0
   57.6285   26.6118   46.8663 H   0  0  0  0  0  0  0  0  0  0  0  0
   58.8354   27.7869   47.5039 H   0  0  0  0  0  0  0  0  0  0  0  0
   56.7539   28.2732   45.3121 H   0  0  0  0  0  0  0  0  0  0  0  0
   56.8043   28.9989   46.9651 H   0  0  0  0  0  0  0  0  0  0  0  0
   59.8887   33.8590   49.0530 H   0  0  0  0  0  0  0  0  0  0  0  0
   61.8331   33.9646   50.6017 H   0  0  0  0  0  0  0  0  0  0  0  0
   67.0101   33.7298   50.0096 H   0  0  0  0  0  0  0  0  0  0  0  0
   68.3939   31.8191   50.8159 H   0  0  0  0  0  0  0  0  0  0  0  0
  1  2  1  0
  2  3  1  0
  3  4  2  0
  4  5  1  0
  5  6  2  0
  6  7  1  0
  7  8  1  0
  8  9  2  0
  9 10  1  0
 10 11  2  0
 11 12  1  0
 12 13  2  0
 13 14  1  0
 14 15  2  0
 15 16  1  0
 16 17  1  0
 17 18  2  0
 17 19  1  0
 19 20  1  0
 20 21  1  0
 21 22  1  0
 22 23  1  0
 22 24  1  0
 24 25  1  0
 16 26  2  0
 11 27  1  0
 27 28  2  0
  6 29  1  0
 29 30  2  0
 30  3  1  0
 28  8  1  0
 26 12  1  0
 25 19  1  0
  1 31  1  0
  1 32  1  0
  1 33  1  0
  2 34  1  0
  2 35  1  0
  4 36  1  0
  5 37  1  0
  9 38  1  0
 10 39  1  0
 13 40  1  0
 14 41  1  0
 15 42  1  0
 20 43  1  0
 20 44  1  0
 21 45  1  0
 21 46  1  0
 23 47  1  0
 23 48  1  0
 23 49  1  0
 24 50  1  0
 24 51  1  0
 25 52  1  0
 25 53  1  0
 27 54  1  0
 28 55  1  0
 29 56  1  0
 30 57  1  0
M  END
>  <UniqueID>  (37) 
35

>  <SMILES>  (37) 
CCc1ccc(Oc2ccc(-c3cccc(C(=O)N4CCN(C)CC4)n3)cc2)cc1

>  <Energy>  (37) 
77.61443662142985

>  <Genealogy>  (37) 
CCc1ccc(Oc2ccc(-c3cccc(C(=O)N4CCN(C)CC4)n3)cc2)cc1 (3D coordinates assigned)
CCc1ccc(Oc2ccc(-c3cccc(C(=O)N4CCN(C)CC4)n3)cc2)cc1 (nonaromatic ring conformer: 77.61443662142985 kcal/mol)

>  <smiles>  (37) 
CCc1ccc(Oc2ccc(-c3cccc(C(=O)N4CCN(C)CC4)n3)cc2)cc1

>  <score_type>  (37) 
oracle

>  <origin>  (37) 
adg

>  <m_score__min__energy>  (37) 
-9.1300000000000008

>  <m_primary>  (37) 
energy

$$$$
37:0
     RDKit          3D

 56 57  0  0  0  0  0  0  0  0999 V2000
   63.1110   33.7780   46.7660 C   0  0  0  0  0  0  0  0  0  0  0  0
   62.2900   33.2140   47.9240 C   0  0  0  0  0  0  0  0  0  0  0  0
   60.9270   33.8470   47.9870 C   0  0  0  0  0  0  0  0  0  0  0  0
   60.5180   34.3290   49.0790 O   0  0  0  0  0  0  0  0  0  0  0  0
   60.0650   33.8800   46.8390 N   0  0  0  0  0  0  0  0  0  0  0  0
   59.7420   35.1070   46.1100 C   0  0  0  0  0  0  0  0  0  0  0  0
   58.6210   34.7280   45.1130 C   0  0  0  0  0  0  0  0  0  0  0  0
   58.4600   33.2620   45.3150 C   0  0  0  0  0  0  0  0  0  0  0  0
   57.6260   32.3890   44.6150 C   0  0  0  0  0  0  0  0  0  0  0  0
   57.6730   31.0170   44.9270 C   0  0  0  0  0  0  0  0  0  0  0  0
   56.6070   29.8790   44.1060 S   0  0  0  0  0  0  0  0  0  0  0  0
   55.3280   29.7170   44.8800 O   0  0  0  0  0  0  0  0  0  0  0  0
   56.2750   30.4160   42.7420 O   0  0  0  0  0  0  0  0  0  0  0  0
   57.3800   28.3330   43.9380 N   0  0  0  0  0  0  0  0  0  0  0  0
   57.4410   27.6620   45.2380 C   0  0  0  0  0  0  0  0  0  0  0  0
   58.7970   26.9750   45.4080 C   0  0  0  0  0  0  0  0  0  0  0  0
   58.8130   26.0430   46.6310 C   0  0  0  0  0  0  0  0  0  0  0  0
   57.5850   25.1690   46.6480 C   0  0  0  0  0  0  0  0  0  0  0  0
   56.8220   25.2310   47.6520 O   0  0  0  0  0  0  0  0  0  0  0  0
   57.2740   24.2530   45.5720 N   0  0  0  0  0  0  0  0  0  0  0  0
   58.1710   23.1130   45.3170 C   0  0  0  0  0  0  0  0  0  0  0  0
   57.6840   22.2970   44.1210 C   0  0  0  0  0  0  0  0  0  0  0  0
   56.0130   24.3540   44.8220 C   0  0  0  0  0  0  0  0  0  0  0  0
   54.8500   24.7420   45.7450 C   0  0  0  0  0  0  0  0  0  0  0  0
   54.8070   26.1310   45.9380 O   0  0  0  0  0  0  0  0  0  0  0  0
   58.5600   30.5520   45.9210 C   0  0  0  0  0  0  0  0  0  0  0  0
   59.3920   31.4510   46.6060 C   0  0  0  0  0  0  0  0  0  0  0  0
   59.2980   32.8150   46.3000 C   0  0  0  0  0  0  0  0  0  0  0  0
   63.9561   34.3586   47.1643 H   0  0  0  0  0  0  0  0  0  0  0  0
   63.4926   32.9505   46.1499 H   0  0  0  0  0  0  0  0  0  0  0  0
   62.4755   34.4311   46.1499 H   0  0  0  0  0  0  0  0  0  0  0  0
   62.1750   32.1287   47.7865 H   0  0  0  0  0  0  0  0  0  0  0  0
   62.8184   33.4335   48.8635 H   0  0  0  0  0  0  0  0  0  0  0  0
   59.3890   35.8830   46.8052 H   0  0  0  0  0  0  0  0  0  0  0  0
   60.6235   35.5111   45.5907 H   0  0  0  0  0  0  0  0  0  0  0  0
   57.6885   35.2623   45.3476 H   0  0  0  0  0  0  0  0  0  0  0  0
   58.8632   34.9940   44.0735 H   0  0  0  0  0  0  0  0  0  0  0  0
   56.9464   32.7649   43.8360 H   0  0  0  0  0  0  0  0  0  0  0  0
   57.3059   28.4046   46.0381 H   0  0  0  0  0  0  0  0  0  0  0  0
   56.6436   26.9063   45.2925 H   0  0  0  0  0  0  0  0  0  0  0  0
   59.0124   26.3833   44.5061 H   0  0  0  0  0  0  0  0  0  0  0  0
   59.5591   27.7535   45.5601 H   0  0  0  0  0  0  0  0  0  0  0  0
   59.7092   25.4065   46.5888 H   0  0  0  0  0  0  0  0  0  0  0  0
   58.8245   26.6563   47.5441 H   0  0  0  0  0  0  0  0  0  0  0  0
   59.1831   23.4900   45.1084 H   0  0  0  0  0  0  0  0  0  0  0  0
   58.1796   22.4652   46.2060 H   0  0  0  0  0  0  0  0  0  0  0  0
   57.1510   21.4039   44.4791 H   0  0  0  0  0  0  0  0  0  0  0  0
   57.0039   22.9100   43.5113 H   0  0  0  0  0  0  0  0  0  0  0  0
   58.5464   21.9895   43.5113 H   0  0  0  0  0  0  0  0  0  0  0  0
   56.1210   25.1193   44.0393 H   0  0  0  0  0  0  0  0  0  0  0  0
   55.7925   23.3729   44.3761 H   0  0  0  0  0  0  0  0  0  0  0  0
   53.9040   24.4119   45.2909 H   0  0  0  0  0  0  0  0  0  0  0  0
   54.9977   24.2557   46.7205 H   0  0  0  0  0  0  0  0  0  0  0  0
   55.1400   26.3010   46.8580 H   0  0  0  0  0  0  0  0  0  0  0  0
   58.5996   29.4791   46.1603 H   0  0  0  0  0  0  0  0  0  0  0  0
   60.1019   31.0928   47.3660 H   0  0  0  0  0  0  0  0  0  0  0  0
  1  2  1  0
  2  3  1  0
  3  4  2  0
  3  5  1  0
  5  6  1  0
  6  7  1  0
  7  8  1  0
  8  9  2  0
  9 10  1  0
 10 11  1  0
 11 12  2  0
 11 13  2  0
 11 14  1  0
 14 15  1  0
 15 16  1  0
 16 17  1  0
 17 18  1  0
 18 19  2  0
 18 20  1  0
 20 21  1  0
 21 22  1  0
 20 23  1  0
 23 24  1  0
 24 25  1  0
 10 26  2  0
 26 27  1  0
 27 28  2  0
 28  5  1  0
 28  8  1  0
  1 29  1  0
  1 30  1  0
  1 31  1  0
  2 32  1  0
  2 33  1  0
  6 34  1  0
  6 35  1  0
  7 36  1  0
  7 37  1  0
  9 38  1  0
 15 39  1  0
 15 40  1  0
 16 41  1  0
 16 42  1  0
 17 43  1  0
 17 44  1  0
 21 45  1  0
 21 46  1  0
 22 47  1  0
 22 48  1  0
 22 49  1  0
 23 50  1  0
 23 51  1  0
 24 52  1  0
 24 53  1  0
 25 54  1  0
 26 55  1  0
 27 56  1  0
M  CHG  1  14  -1
M  END
>  <UniqueID>  (38) 
36

>  <SMILES>  (38) 
CCC(=O)N1CCc2cc(S(=O)(=O)[N-]CCCC(=O)N(CC)CCO)ccc21

>  <Energy>  (38) 
59.18315433071745

>  <Genealogy>  (38) 
CCC(=O)N1CCc2cc(S(=O)(=O)[N-]CCCC(=O)N(CC)CCO)ccc21 (protonated)
CCC(=O)N1CCc2cc(S(=O)(=O)[N-]CCCC(=O)N(CC)CCO)ccc21 (3D coordinates assigned)
CCC(=O)N1CCc2cc(S(=O)(=O)[N-]CCCC(=O)N(CC)CCO)ccc21 (nonaromatic ring conformer: 59.18315433071745 kcal/mol)

>  <smiles>  (38) 
CCC(=O)N1CCc2cc(S(=O)(=O)NCCCC(=O)N(CC)CCO)ccc21

>  <score_type>  (38) 
oracle

>  <origin>  (38) 
adg

>  <m_score__min__energy>  (38) 
-10.76

>  <m_primary>  (38) 
energy

$$$$
38:0
     RDKit          3D

 78 82  0  0  0  0  0  0  0  0999 V2000
   58.2650   33.6570   45.8650 C   0  0  0  0  0  0  0  0  0  0  0  0
   57.0190   32.9890   45.2960 C   0  0  0  0  0  0  0  0  0  0  0  0
   57.2210   31.5170   45.2510 N   0  0  0  0  0  0  0  0  0  0  0  0
   57.6060   31.0530   43.8990 C   0  0  0  0  0  0  0  0  0  0  0  0
   56.5100   30.1820   43.2870 C   0  0  0  0  0  0  0  0  0  0  0  0
   58.2080   31.0660   46.2590 C   0  0  0  0  0  0  0  0  0  0  0  0
   59.3250   30.2460   45.5990 C   0  0  0  0  0  0  0  0  0  0  0  0
   59.1900   28.8200   45.9420 N   0  0  0  0  0  0  0  0  0  0  0  0
   59.0460   27.8520   44.8410 C   0  0  0  0  0  0  0  0  0  0  0  0
   57.8160   26.9980   45.0420 C   0  0  0  0  0  0  0  0  0  0  0  0
   57.8400   25.6420   44.6820 C   0  0  0  0  0  0  0  0  0  0  0  0
   56.7140   24.8370   44.8900 C   0  0  0  0  0  0  0  0  0  0  0  0
   56.7160   23.4810   44.5380 C   0  0  0  0  0  0  0  0  0  0  0  0
   55.5720   22.6880   44.7550 C   0  0  0  0  0  0  0  0  0  0  0  0
   55.5330   21.3270   44.4130 O   0  0  0  0  0  0  0  0  0  0  0  0
   56.5720   20.3940   44.6940 C   0  0  0  0  0  0  0  0  0  0  0  0
   54.4250   23.2610   45.3310 C   0  0  0  0  0  0  0  0  0  0  0  0
   53.3030   22.4420   45.5360 O   0  0  0  0  0  0  0  0  0  0  0  0
   52.0380   22.9060   45.9950 C   0  0  0  0  0  0  0  0  0  0  0  0
   54.4280   24.6250   45.6840 C   0  0  0  0  0  0  0  0  0  0  0  0
   55.5630   25.4090   45.4660 C   0  0  0  0  0  0  0  0  0  0  0  0
   55.5600   26.7240   45.8090 N   0  0  0  0  0  0  0  0  0  0  0  0
   56.6420   27.5250   45.6160 C   0  0  0  0  0  0  0  0  0  0  0  0
   56.5780   28.7360   45.9520 O   0  0  0  0  0  0  0  0  0  0  0  0
   59.1870   28.3730   47.3220 C   0  0  0  0  0  0  0  0  0  0  0  0
   58.2520   28.7310   48.0910 O   0  0  0  0  0  0  0  0  0  0  0  0
   60.2560   27.4420   47.8500 C   0  0  0  0  0  0  0  0  0  0  0  0
   60.9310   27.9600   49.1270 C   0  0  0  0  0  0  0  0  0  0  0  0
   60.5580   29.3630   49.3600 N   0  0  0  0  0  0  0  0  0  0  0  0
   59.8440   29.7380   50.5530 C   0  0  0  0  0  0  0  0  0  0  0  0
   59.4940   28.8560   51.3850 O   0  0  0  0  0  0  0  0  0  0  0  0
   59.5210   31.1610   50.8070 C   0  0  0  0  0  0  0  0  0  0  0  0
   58.8030   31.5380   51.9550 C   0  0  0  0  0  0  0  0  0  0  0  0
   58.4970   32.8790   52.1930 C   0  0  0  0  0  0  0  0  0  0  0  0
   58.9010   33.8640   51.2910 C   0  0  0  0  0  0  0  0  0  0  0  0
   59.6200   33.5140   50.1390 C   0  0  0  0  0  0  0  0  0  0  0  0
   60.0290   34.5050   49.2350 C   0  0  0  0  0  0  0  0  0  0  0  0
   60.7490   34.1570   48.0920 C   0  0  0  0  0  0  0  0  0  0  0  0
   61.0670   32.8220   47.8390 C   0  0  0  0  0  0  0  0  0  0  0  0
   60.6670   31.8110   48.7290 C   0  0  0  0  0  0  0  0  0  0  0  0
   59.9370   32.1540   49.8890 C   0  0  0  0  0  0  0  0  0  0  0  0
   61.0060   30.3940   48.4600 C   0  0  0  0  0  0  0  0  0  0  0  0
   61.6920   30.0940   47.4440 O   0  0  0  0  0  0  0  0  0  0  0  0
   58.2235   33.6348   46.9640 H   0  0  0  0  0  0  0  0  0  0  0  0
   59.1598   33.1176   45.5209 H   0  0  0  0  0  0  0  0  0  0  0  0
   58.3110   34.7008   45.5209 H   0  0  0  0  0  0  0  0  0  0  0  0
   56.1545   33.2208   45.9355 H   0  0  0  0  0  0  0  0  0  0  0  0
   56.8346   33.3645   44.2786 H   0  0  0  0  0  0  0  0  0  0  0  0
   57.7737   31.9272   43.2528 H   0  0  0  0  0  0  0  0  0  0  0  0
   58.5247   30.4537   43.9822 H   0  0  0  0  0  0  0  0  0  0  0  0
   55.9218   29.7145   44.0904 H   0  0  0  0  0  0  0  0  0  0  0  0
   55.8508   30.8053   42.6650 H   0  0  0  0  0  0  0  0  0  0  0  0
   56.9684   29.3991   42.6650 H   0  0  0  0  0  0  0  0  0  0  0  0
   58.6488   31.9456   46.7509 H   0  0  0  0  0  0  0  0  0  0  0  0
   57.6941   30.4322   46.9968 H   0  0  0  0  0  0  0  0  0  0  0  0
   59.2630   30.3630   44.5070 H   0  0  0  0  0  0  0  0  0  0  0  0
   60.2966   30.6094   45.9649 H   0  0  0  0  0  0  0  0  0  0  0  0
   58.9563   28.3970   43.8897 H   0  0  0  0  0  0  0  0  0  0  0  0
   59.9318   27.2000   44.8236 H   0  0  0  0  0  0  0  0  0  0  0  0
   58.7473   25.2099   44.2346 H   0  0  0  0  0  0  0  0  0  0  0  0
   57.6153   23.0332   44.0899 H   0  0  0  0  0  0  0  0  0  0  0  0
   56.6872   20.2905   45.7830 H   0  0  0  0  0  0  0  0  0  0  0  0
   56.3155   19.4172   44.2580 H   0  0  0  0  0  0  0  0  0  0  0  0
   57.5156   20.7537   44.2580 H   0  0  0  0  0  0  0  0  0  0  0  0
   52.0261   22.9104   47.0949 H   0  0  0  0  0  0  0  0  0  0  0  0
   51.8645   23.9263   45.6224 H   0  0  0  0  0  0  0  0  0  0  0  0
   51.2459   22.2399   45.6224 H   0  0  0  0  0  0  0  0  0  0  0  0
   53.5309   25.0752   46.1340 H   0  0  0  0  0  0  0  0  0  0  0  0
   59.7943   26.4679   48.0689 H   0  0  0  0  0  0  0  0  0  0  0  0
   61.0344   27.3655   47.0765 H   0  0  0  0  0  0  0  0  0  0  0  0
   60.6071   27.3501   49.9832 H   0  0  0  0  0  0  0  0  0  0  0  0
   62.0227   27.8913   49.0114 H   0  0  0  0  0  0  0  0  0  0  0  0
   58.4793   30.7694   52.6723 H   0  0  0  0  0  0  0  0  0  0  0  0
   57.9349   33.1605   53.0957 H   0  0  0  0  0  0  0  0  0  0  0  0
   58.6547   34.9185   51.4842 H   0  0  0  0  0  0  0  0  0  0  0  0
   59.7815   35.5593   49.4277 H   0  0  0  0  0  0  0  0  0  0  0  0
   61.0676   34.9387   47.3867 H   0  0  0  0  0  0  0  0  0  0  0  0
   61.6358   32.5589   46.9350 H   0  0  0  0  0  0  0  0  0  0  0  0
  1  2  1  0
  2  3  1  0
  3  4  1  0
  4  5  1  0
  3  6  1  0
  6  7  1  0
  7  8  1  0
  8  9  1  0
  9 10  1  0
 10 11  2  0
 11 12  1  0
 12 13  2  0
 13 14  1  0
 14 15  1  0
 15 16  1  0
 14 17  2  0
 17 18  1  0
 18 19  1  0
 17 20  1  0
 20 21  2  0
 21 22  1  0
 22 23  1  0
 23 24  2  0
  8 25  1  0
 25 26  2  0
 25 27  1  0
 27 28  1  0
 28 29  1  0
 29 30  1  0
 30 31  2  0
 30 32  1  0
 32 33  2  0
 33 34  1  0
 34 35  2  0
 35 36  1  0
 36 37  2  0
 37 38  1  0
 38 39  2  0
 39 40  1  0
 40 41  2  0
 40 42  1  0
 42 43  2  0
 23 10  1  0
 42 29  1  0
 21 12  1  0
 41 32  1  0
 41 36  1  0
  1 44  1  0
  1 45  1  0
  1 46  1  0
  2 47  1  0
  2 48  1  0
  4 49  1  0
  4 50  1  0
  5 51  1  0
  5 52  1  0
  5 53  1  0
  6 54  1  0
  6 55  1  0
  7 56  1  0
  7 57  1  0
  9 58  1  0
  9 59  1  0
 11 60  1  0
 13 61  1  0
 16 62  1  0
 16 63  1  0
 16 64  1  0
 19 65  1  0
 19 66  1  0
 19 67  1  0
 20 68  1  0
 27 69  1  0
 27 70  1  0
 28 71  1  0
 28 72  1  0
 33 73  1  0
 34 74  1  0
 35 75  1  0
 37 76  1  0
 38 77  1  0
 39 78  1  0
M  CHG  1  22  -1
M  END
>  <UniqueID>  (39) 
37

>  <SMILES>  (39) 
CCN(CC)CCN(Cc1cc2cc(OC)c(OC)cc2[n-]c1=O)C(=O)CCN1C(=O)c2cccc3cccc(c23)C1=O

>  <Energy>  (39) 
88.05252832240852

>  <Genealogy>  (39) 
CCN(CC)CCN(Cc1cc2cc(OC)c(OC)cc2[n-]c1=O)C(=O)CCN1C(=O)c2cccc3cccc(c23)C1=O (protonated)
CCN(CC)CCN(Cc1cc2cc(OC)c(OC)cc2[n-]c1=O)C(=O)CCN1C(=O)c2cccc3cccc(c23)C1=O (3D coordinates assigned)
CCN(CC)CCN(Cc1cc2cc(OC)c(OC)cc2[n-]c1=O)C(=O)CCN1C(=O)c2cccc3cccc(c23)C1=O (nonaromatic ring conformer: 88.05252832240852 kcal/mol)

>  <smiles>  (39) 
CCN(CC)CCN(Cc1cc2cc(OC)c(OC)cc2[nH]c1=O)C(=O)CCN1C(=O)c2cccc3cccc(c23)C1=O

>  <score_type>  (39) 
oracle

>  <origin>  (39) 
adg

>  <m_score__min__energy>  (39) 
-11.380000000000001

>  <m_primary>  (39) 
energy

$$$$
39:0
     RDKit          3D

 44 46  0  0  0  0  0  0  0  0999 V2000
   64.9020   33.0470   50.1150 C   0  0  0  0  0  0  0  0  0  0  0  0
   63.7980   33.9410   50.0230 O   0  0  0  0  0  0  0  0  0  0  0  0
   62.6720   33.7940   49.1940 C   0  0  0  0  0  0  0  0  0  0  0  0
   62.9130   33.7280   47.8170 C   0  0  0  0  0  0  0  0  0  0  0  0
   61.8640   33.5850   46.9090 C   0  0  0  0  0  0  0  0  0  0  0  0
   60.5410   33.5040   47.3600 C   0  0  0  0  0  0  0  0  0  0  0  0
   59.4210   33.3560   46.3930 C   0  0  0  0  0  0  0  0  0  0  0  0
   58.4840   34.3890   46.2250 C   0  0  0  0  0  0  0  0  0  0  0  0
   57.4450   34.2550   45.3040 C   0  0  0  0  0  0  0  0  0  0  0  0
   57.3260   33.0910   44.5420 C   0  0  0  0  0  0  0  0  0  0  0  0
   58.2380   32.0330   44.7030 C   0  0  0  0  0  0  0  0  0  0  0  0
   58.1080   30.8020   43.8140 C   0  0  0  0  0  0  0  0  0  0  0  0
   56.8210   30.7780   42.9490 C   0  0  0  0  0  0  0  0  0  0  0  0
   55.7990   29.7490   43.4610 C   0  0  0  0  0  0  0  0  0  0  0  0
   55.7760   29.7360   44.8710 O   0  0  0  0  0  0  0  0  0  0  0  0
   56.9540   29.1430   45.3960 C   0  0  0  0  0  0  0  0  0  0  0  0
   58.2530   29.5090   44.6390 C   0  0  0  0  0  0  0  0  0  0  0  0
   59.2910   32.1820   45.6290 C   0  0  0  0  0  0  0  0  0  0  0  0
   60.2870   33.5650   48.7400 C   0  0  0  0  0  0  0  0  0  0  0  0
   61.3380   33.7120   49.6690 C   0  0  0  0  0  0  0  0  0  0  0  0
   61.0790   33.7750   51.0480 O   0  0  0  0  0  0  0  0  0  0  0  0
   59.8310   33.4620   51.6590 C   0  0  0  0  0  0  0  0  0  0  0  0
   65.1343   32.8589   51.1736 H   0  0  0  0  0  0  0  0  0  0  0  0
   64.6472   32.0977   49.6212 H   0  0  0  0  0  0  0  0  0  0  0  0
   65.7776   33.4936   49.6212 H   0  0  0  0  0  0  0  0  0  0  0  0
   63.9463   33.7899   47.4448 H   0  0  0  0  0  0  0  0  0  0  0  0
   62.0776   33.5355   45.8311 H   0  0  0  0  0  0  0  0  0  0  0  0
   58.5701   35.3083   46.8228 H   0  0  0  0  0  0  0  0  0  0  0  0
   56.7166   35.0695   45.1775 H   0  0  0  0  0  0  0  0  0  0  0  0
   56.5110   33.0009   43.8088 H   0  0  0  0  0  0  0  0  0  0  0  0
   58.9397   30.8621   43.0966 H   0  0  0  0  0  0  0  0  0  0  0  0
   56.3603   31.7766   42.9708 H   0  0  0  0  0  0  0  0  0  0  0  0
   57.1059   30.4922   41.9257 H   0  0  0  0  0  0  0  0  0  0  0  0
   54.7996   30.0133   43.0850 H   0  0  0  0  0  0  0  0  0  0  0  0
   56.0878   28.7507   43.1004 H   0  0  0  0  0  0  0  0  0  0  0  0
   57.0639   29.4662   46.4417 H   0  0  0  0  0  0  0  0  0  0  0  0
   56.8284   28.0553   45.2909 H   0  0  0  0  0  0  0  0  0  0  0  0
   59.0620   29.6463   45.3716 H   0  0  0  0  0  0  0  0  0  0  0  0
   58.4763   28.6890   43.9406 H   0  0  0  0  0  0  0  0  0  0  0  0
   60.0209   31.3689   45.7557 H   0  0  0  0  0  0  0  0  0  0  0  0
   59.2507   33.4970   49.1025 H   0  0  0  0  0  0  0  0  0  0  0  0
   59.9412   33.4897   52.7531 H   0  0  0  0  0  0  0  0  0  0  0  0
   59.0755   34.1985   51.3479 H   0  0  0  0  0  0  0  0  0  0  0  0
   59.5125   32.4562   51.3479 H   0  0  0  0  0  0  0  0  0  0  0  0
  1  2  1  0
  2  3  1  0
  3  4  2  0
  4  5  1  0
  5  6  2  0
  6  7  1  0
  7  8  2  0
  8  9  1  0
  9 10  2  0
 10 11  1  0
 11 12  1  0
 12 13  1  0
 13 14  1  0
 14 15  1  0
 15 16  1  0
 16 17  1  0
 11 18  2  0
  6 19  1  0
 19 20  2  0
 20 21  1  0
 21 22  1  0
 20  3  1  0
 18  7  1  0
 17 12  1  0
  1 23  1  0
  1 24  1  0
  1 25  1  0
  4 26  1  0
  5 27  1  0
  8 28  1  0
  9 29  1  0
 10 30  1  0
 12 31  1  0
 13 32  1  0
 13 33  1  0
 14 34  1  0
 14 35  1  0
 16 36  1  0
 16 37  1  0
 17 38  1  0
 17 39  1  0
 18 40  1  0
 19 41  1  0
 22 42  1  0
 22 43  1  0
 22 44  1  0
M  END
>  <UniqueID>  (40) 
38

>  <SMILES>  (40) 
COc1ccc(-c2cccc(C3CCOCC3)c2)cc1OC

>  <Energy>  (40) 
61.82772167021142

>  <Genealogy>  (40) 
COc1ccc(-c2cccc(C3CCOCC3)c2)cc1OC (3D coordinates assigned)
COc1ccc(-c2cccc(C3CCOCC3)c2)cc1OC (nonaromatic ring conformer: 61.82772167021142 kcal/mol)

>  <smiles>  (40) 
COc1ccc(-c2cccc(C3CCOCC3)c2)cc1OC

>  <score_type>  (40) 
oracle

>  <origin>  (40) 
adg

>  <m_score__min__energy>  (40) 
-7.8499999999999996

>  <m_primary>  (40) 
energy

$$$$
40:0
     RDKit          3D

 38 42  0  0  0  0  0  0  0  0999 V2000
   56.6570   29.4890   44.1390 C   0  0  0  0  0  0  0  0  0  0  0  0
   57.8710   29.7000   44.9950 C   0  0  0  0  0  0  0  0  0  0  0  0
   58.8050   28.6660   45.1990 C   0  0  0  0  0  0  0  0  0  0  0  0
   59.9460   28.8810   45.9920 C   0  0  0  0  0  0  0  0  0  0  0  0
   60.1780   30.1330   46.5800 C   0  0  0  0  0  0  0  0  0  0  0  0
   61.2740   30.3260   47.3520 F   0  0  0  0  0  0  0  0  0  0  0  0
   59.2540   31.1640   46.3570 C   0  0  0  0  0  0  0  0  0  0  0  0
   58.1290   30.9450   45.5820 C   0  0  0  0  0  0  0  0  0  0  0  0
   57.3000   32.0920   45.4780 N   0  0  0  0  0  0  0  0  0  0  0  0
   57.9820   33.0730   46.2540 C   0  0  0  0  0  0  0  0  0  0  0  0
   57.5290   34.2380   46.4120 O   0  0  0  0  0  0  0  0  0  0  0  0
   59.2730   32.5820   46.8620 C   0  0  2  0  0  0  0  0  0  0  0  0
   60.4780   33.3900   46.3060 C   0  0  0  0  0  0  0  0  0  0  0  0
   61.7310   33.2730   47.1510 C   0  0  0  0  0  0  0  0  0  0  0  0
   62.9900   33.4840   46.5710 C   0  0  0  0  0  0  0  0  0  0  0  0
   64.1430   33.4630   47.3600 C   0  0  0  0  0  0  0  0  0  0  0  0
   64.0460   33.2440   48.7350 C   0  0  0  0  0  0  0  0  0  0  0  0
   62.7970   33.0460   49.3300 C   0  0  0  0  0  0  0  0  0  0  0  0
   61.6300   33.0670   48.5450 C   0  0  0  0  0  0  0  0  0  0  0  0
   60.3320   32.8220   49.1120 N   0  0  0  0  0  0  0  0  0  0  0  0
   59.9730   32.6970   50.4060 C   0  0  0  0  0  0  0  0  0  0  0  0
   58.6260   32.3980   50.4870 C   0  0  0  0  0  0  0  0  0  0  0  0
   58.1500   32.3370   49.1900 C   0  0  0  0  0  0  0  0  0  0  0  0
   59.2290   32.6200   48.3700 C   0  0  0  0  0  0  0  0  0  0  0  0
   55.7774   29.3361   44.7815 H   0  0  0  0  0  0  0  0  0  0  0  0
   56.4980   30.3730   43.5039 H   0  0  0  0  0  0  0  0  0  0  0  0
   56.8056   28.6032   43.5039 H   0  0  0  0  0  0  0  0  0  0  0  0
   58.6407   27.6826   44.7344 H   0  0  0  0  0  0  0  0  0  0  0  0
   60.6619   28.0613   46.1524 H   0  0  0  0  0  0  0  0  0  0  0  0
   60.7056   33.0226   45.2944 H   0  0  0  0  0  0  0  0  0  0  0  0
   60.1844   34.4501   46.3109 H   0  0  0  0  0  0  0  0  0  0  0  0
   63.0704   33.6670   45.4893 H   0  0  0  0  0  0  0  0  0  0  0  0
   65.1284   33.6193   46.8969 H   0  0  0  0  0  0  0  0  0  0  0  0
   64.9560   33.2272   49.3527 H   0  0  0  0  0  0  0  0  0  0  0  0
   62.7264   32.8734   50.4141 H   0  0  0  0  0  0  0  0  0  0  0  0
   60.6490   32.8150   51.2657 H   0  0  0  0  0  0  0  0  0  0  0  0
   58.0441   32.2390   51.4068 H   0  0  0  0  0  0  0  0  0  0  0  0
   57.1213   32.1095   48.8736 H   0  0  0  0  0  0  0  0  0  0  0  0
  1  2  1  0
  2  3  2  0
  3  4  1  0
  4  5  2  0
  5  6  1  0
  5  7  1  0
  7  8  2  0
  8  9  1  0
  9 10  1  0
 10 11  2  0
 10 12  1  0
 12 13  1  6
 13 14  1  0
 14 15  2  0
 15 16  1  0
 16 17  2  0
 17 18  1  0
 18 19  2  0
 19 20  1  0
 20 21  1  0
 21 22  2  0
 22 23  1  0
 23 24  2  0
  8  2  1  0
 24 12  1  0
 12  7  1  0
 19 14  1  0
 24 20  1  0
  1 25  1  0
  1 26  1  0
  1 27  1  0
  3 28  1  0
  4 29  1  0
 13 30  1  0
 13 31  1  0
 15 32  1  0
 16 33  1  0
 17 34  1  0
 18 35  1  0
 21 36  1  0
 22 37  1  0
 23 38  1  0
M  CHG  1   9  -1
M  END
>  <UniqueID>  (41) 
39

>  <SMILES>  (41) 
Cc1ccc(F)c2c1[N-]C(=O)[C@]21Cc2ccccc2-n2cccc21

>  <Energy>  (41) 
94.12837030206245

>  <Genealogy>  (41) 
Cc1ccc(F)c2c1[N-]C(=O)C21Cc2ccccc2-n2cccc21 (protonated)
Cc1ccc(F)c2c1[N-]C(=O)[C@]21Cc2ccccc2-n2cccc21 (chirality)
Cc1ccc(F)c2c1[N-]C(=O)[C@]21Cc2ccccc2-n2cccc21 (3D coordinates assigned)
Cc1ccc(F)c2c1[N-]C(=O)[C@]21Cc2ccccc2-n2cccc21 (nonaromatic ring conformer: 94.12837030206245 kcal/mol)

>  <smiles>  (41) 
Cc1ccc(F)c2c1NC(=O)C21Cc2ccccc2-n2cccc21

>  <score_type>  (41) 
oracle

>  <origin>  (41) 
adg

>  <m_score__min__energy>  (41) 
-8.9700000000000006

>  <m_primary>  (41) 
energy

$$$$
41:0
     RDKit          3D

 54 56  0  0  0  0  0  0  0  0999 V2000
   57.8477   24.2245   45.5929 H   0  0  0  0  0  0  0  0  0  0  0  0
   57.5990   25.2960   45.5890 C   0  0  0  0  0  0  0  0  0  0  0  0
   56.2700   25.7150   45.7150 C   0  0  0  0  0  0  0  0  0  0  0  0
   55.1740   24.7170   45.8980 C   0  0  0  0  0  0  0  0  0  0  0  0
   54.9989   24.5575   46.9722 H   0  0  0  0  0  0  0  0  0  0  0  0
   54.2533   25.0933   45.4283 H   0  0  0  0  0  0  0  0  0  0  0  0
   55.4627   23.7651   45.4283 H   0  0  0  0  0  0  0  0  0  0  0  0
   55.9820   27.0450   45.7240 N   0  0  0  0  0  0  0  0  0  0  0  0
   56.9440   28.0030   45.6200 C   0  0  0  0  0  0  0  0  0  0  0  0
   56.6520   29.2700   45.6460 N   0  0  0  0  0  0  0  0  0  0  0  0
   56.3670   30.1490   44.5420 C   0  0  0  0  0  0  0  0  0  0  0  0
   55.1670   30.4690   44.3270 O   0  0  0  0  0  0  0  0  0  0  0  0
   57.4100   30.5920   43.5490 C   0  0  0  0  0  0  0  0  0  0  0  0
   56.9149   31.0400   42.6749 H   0  0  0  0  0  0  0  0  0  0  0  0
   58.0036   29.7214   43.2333 H   0  0  0  0  0  0  0  0  0  0  0  0
   58.3040   31.5920   44.1730 N   0  0  0  0  0  0  0  0  0  0  0  0
   58.5900   31.3600   45.6080 C   0  0  0  0  0  0  0  0  0  0  0  0
   58.3532   30.3111   45.8398 H   0  0  0  0  0  0  0  0  0  0  0  0
   59.6516   31.6060   45.7581 H   0  0  0  0  0  0  0  0  0  0  0  0
   57.7880   32.2630   46.5800 C   0  0  0  0  0  0  0  0  0  0  0  0
   56.8250   32.5188   46.1139 H   0  0  0  0  0  0  0  0  0  0  0  0
   57.6417   31.7063   47.5174 H   0  0  0  0  0  0  0  0  0  0  0  0
   58.5100   33.5130   46.9000 N   0  0  0  0  0  0  0  0  0  0  0  0
   59.9330   33.2440   47.1950 C   0  0  0  0  0  0  0  0  0  0  0  0
   60.4102   34.1690   47.5510 H   0  0  0  0  0  0  0  0  0  0  0  0
   60.4266   32.8921   46.2771 H   0  0  0  0  0  0  0  0  0  0  0  0
   60.0590   32.1860   48.2500 C   0  0  0  0  0  0  0  0  0  0  0  0
   60.4780   30.8810   48.0800 C   0  0  0  0  0  0  0  0  0  0  0  0
   60.7825   30.4161   47.1307 H   0  0  0  0  0  0  0  0  0  0  0  0
   60.4470   30.2800   49.2840 N   0  0  0  0  0  0  0  0  0  0  0  0
   60.7330   28.8730   49.5470 C   0  0  0  0  0  0  0  0  0  0  0  0
   60.3401   28.6011   50.5378 H   0  0  0  0  0  0  0  0  0  0  0  0
   61.8214   28.7160   49.5195 H   0  0  0  0  0  0  0  0  0  0  0  0
   60.0770   27.9980   48.4880 C   0  0  0  0  0  0  0  0  0  0  0  0
   59.4862   27.2100   48.9780 H   0  0  0  0  0  0  0  0  0  0  0  0
   59.4168   28.6146   47.8604 H   0  0  0  0  0  0  0  0  0  0  0  0
   60.8540   27.5371   47.8604 H   0  0  0  0  0  0  0  0  0  0  0  0
   60.0190   31.1410   50.1950 N   0  0  0  0  0  0  0  0  0  0  0  0
   59.8770   30.9240   51.2040 H   0  0  0  0  0  0  0  0  0  0  0  0
   59.7830   32.3210   49.5970 C   0  0  0  0  0  0  0  0  0  0  0  0
   59.4307   33.2367   50.0943 H   0  0  0  0  0  0  0  0  0  0  0  0
   58.3730   34.5330   45.8320 C   0  0  0  0  0  0  0  0  0  0  0  0
   57.3080   34.7888   45.7303 H   0  0  0  0  0  0  0  0  0  0  0  0
   58.9846   35.3969   46.1313 H   0  0  0  0  0  0  0  0  0  0  0  0
   58.8940   34.0650   44.4610 C   0  0  0  0  0  0  0  0  0  0  0  0
   58.9494   34.9390   43.7954 H   0  0  0  0  0  0  0  0  0  0  0  0
   59.8764   33.6020   44.6354 H   0  0  0  0  0  0  0  0  0  0  0  0
   58.0110   32.9960   43.7850 C   0  0  0  0  0  0  0  0  0  0  0  0
   56.9630   33.2082   44.0431 H   0  0  0  0  0  0  0  0  0  0  0  0
   58.2222   33.0641   42.7076 H   0  0  0  0  0  0  0  0  0  0  0  0
   58.2830   27.6170   45.4680 C   0  0  0  0  0  0  0  0  0  0  0  0
   59.0707   28.3768   45.3576 H   0  0  0  0  0  0  0  0  0  0  0  0
   58.6080   26.2570   45.4580 C   0  0  0  0  0  0  0  0  0  0  0  0
   59.6563   25.9426   45.3472 H   0  0  0  0  0  0  0  0  0  0  0  0
  1  2  1  0
  2  3  2  0
  3  4  1  0
  4  5  1  0
  4  6  1  0
  4  7  1  0
  3  8  1  0
  8  9  1  0
  9 10  2  0
 10 11  1  0
 11 12  2  0
 11 13  1  0
 13 14  1  0
 13 15  1  0
 13 16  1  0
 16 17  1  0
 17 18  1  0
 17 19  1  0
 17 20  1  0
 20 21  1  0
 20 22  1  0
 20 23  1  0
 23 24  1  0
 24 25  1  0
 24 26  1  0
 24 27  1  0
 27 28  2  0
 28 29  1  0
 28 30  1  0
 30 31  1  0
 31 32  1  0
 31 33  1  0
 31 34  1  0
 34 35  1  0
 34 36  1  0
 34 37  1  0
 30 38  1  0
 38 39  1  0
 38 40  2  0
 40 41  1  0
 23 42  1  0
 42 43  1  0
 42 44  1  0
 42 45  1  0
 45 46  1  0
 45 47  1  0
 45 48  1  0
 48 49  1  0
 48 50  1  0
  9 51  1  0
 51 52  1  0
 51 53  2  0
 53 54  1  0
 53  2  1  0
 48 16  1  0
 40 27  1  0
M  CHG  2   8  -1  38   1
M  END
>  <UniqueID>  (42) 
40

>  <SMILES>  (42) 
CCn1cc(CN2CCCN(CC(=O)/N=c3/cccc(C)[n-]3)CC2)c[nH+]1

>  <Energy>  (42) 
102.7333999494094

>  <Genealogy>  (42) 
CCn1cc(CN2CCCN(CC(=O)N=c3cccc(C)[n-]3)CC2)c[nH+]1 (protonated)
CCn1cc(CN2CCCN(CC(=O)/N=c3/cccc(C)[n-]3)CC2)c[nH+]1 (cis-trans isomerization)
CCn1cc(CN2CCCN(CC(=O)/N=c3/cccc(C)[n-]3)CC2)c[nH+]1 (3D coordinates assigned)
CCn1cc(CN2CCCN(CC(=O)/N=c3/cccc(C)[n-]3)CC2)c[nH+]1 (nonaromatic ring conformer: 102.7333999494094 kcal/mol)

>  <smiles>  (42) 
CCn1cc(CN2CCCN(CC(=O)N=c3cccc(C)[nH]3)CC2)cn1

>  <score_type>  (42) 
oracle

>  <origin>  (42) 
adg

>  <m_score__min__energy>  (42) 
-7.4199999999999999

>  <m_primary>  (42) 
energy

$$$$
42:0
     RDKit          3D

 50 52  0  0  0  0  0  0  0  0999 V2000
   63.3720   33.8430   46.3710 C   0  0  0  0  0  0  0  0  0  0  0  0
   63.5260   32.6000   47.2510 C   0  0  0  0  0  0  0  0  0  0  0  0
   62.4150   32.4960   48.2240 N   0  0  0  0  0  0  0  0  0  0  0  0
   62.0810   33.8270   48.7720 C   0  0  0  0  0  0  0  0  0  0  0  0
   62.7550   31.5540   49.3210 C   0  0  0  0  0  0  0  0  0  0  0  0
   61.6150   30.5550   49.5850 C   0  0  0  0  0  0  0  0  0  0  0  0
   60.4500   30.6780   48.5850 C   0  0  0  0  0  0  0  0  0  0  0  0
   60.9120   30.5930   47.1880 N   0  0  0  0  0  0  0  0  0  0  0  0
   59.7840   30.6170   46.2700 C   0  0  0  0  0  0  0  0  0  0  0  0
   59.1190   31.8360   45.9720 C   0  0  0  0  0  0  0  0  0  0  0  0
   59.4080   33.0340   46.6750 C   0  0  0  0  0  0  0  0  0  0  0  0
   58.7180   34.2110   46.4020 C   0  0  0  0  0  0  0  0  0  0  0  0
   57.7220   34.2280   45.4370 C   0  0  0  0  0  0  0  0  0  0  0  0
   57.4190   33.0710   44.7250 C   0  0  0  0  0  0  0  0  0  0  0  0
   58.1210   31.8590   44.9570 C   0  0  0  0  0  0  0  0  0  0  0  0
   57.8290   30.7140   44.2410 N   0  0  0  0  0  0  0  0  0  0  0  0
   57.0290   30.7980   42.9970 C   0  0  0  0  0  0  0  0  0  0  0  0
   58.2850   29.4880   44.6840 C   0  0  0  0  0  0  0  0  0  0  0  0
   57.7590   28.2750   44.1670 C   0  0  0  0  0  0  0  0  0  0  0  0
   58.2430   27.0410   44.5880 C   0  0  0  0  0  0  0  0  0  0  0  0
   59.2480   26.9750   45.5410 C   0  0  0  0  0  0  0  0  0  0  0  0
   59.7620   28.1440   46.0960 C   0  0  0  0  0  0  0  0  0  0  0  0
   59.2910   29.4180   45.6890 C   0  0  0  0  0  0  0  0  0  0  0  0
   63.2618   34.7324   47.0088 H   0  0  0  0  0  0  0  0  0  0  0  0
   64.2631   33.9553   45.7359 H   0  0  0  0  0  0  0  0  0  0  0  0
   62.4804   33.7345   45.7359 H   0  0  0  0  0  0  0  0  0  0  0  0
   63.5287   31.7050   46.6115 H   0  0  0  0  0  0  0  0  0  0  0  0
   64.4717   32.6801   47.8071 H   0  0  0  0  0  0  0  0  0  0  0  0
   62.0917   33.7842   49.8711 H   0  0  0  0  0  0  0  0  0  0  0  0
   62.8225   34.5624   48.4264 H   0  0  0  0  0  0  0  0  0  0  0  0
   61.0802   34.1252   48.4264 H   0  0  0  0  0  0  0  0  0  0  0  0
   63.6614   30.9958   49.0438 H   0  0  0  0  0  0  0  0  0  0  0  0
   62.9183   32.1391   50.2380 H   0  0  0  0  0  0  0  0  0  0  0  0
   62.0231   29.5355   49.5212 H   0  0  0  0  0  0  0  0  0  0  0  0
   61.2111   30.7796   50.5832 H   0  0  0  0  0  0  0  0  0  0  0  0
   59.7334   29.8648   48.7724 H   0  0  0  0  0  0  0  0  0  0  0  0
   59.9804   31.6622   48.7289 H   0  0  0  0  0  0  0  0  0  0  0  0
   61.5780   31.3650   46.9640 H   0  0  0  0  0  0  0  0  0  0  0  0
   61.4880   29.7330   47.0480 H   0  0  0  0  0  0  0  0  0  0  0  0
   60.1902   33.0323   47.4484 H   0  0  0  0  0  0  0  0  0  0  0  0
   58.9632   35.1308   46.9532 H   0  0  0  0  0  0  0  0  0  0  0  0
   57.1704   35.1578   45.2339 H   0  0  0  0  0  0  0  0  0  0  0  0
   56.6208   33.0962   43.9685 H   0  0  0  0  0  0  0  0  0  0  0  0
   55.9649   30.9097   43.2522 H   0  0  0  0  0  0  0  0  0  0  0  0
   57.3578   31.6666   42.4075 H   0  0  0  0  0  0  0  0  0  0  0  0
   57.1703   29.8801   42.4075 H   0  0  0  0  0  0  0  0  0  0  0  0
   56.9532   28.3118   43.4191 H   0  0  0  0  0  0  0  0  0  0  0  0
   57.8275   26.1150   44.1639 H   0  0  0  0  0  0  0  0  0  0  0  0
   59.6398   25.9976   45.8591 H   0  0  0  0  0  0  0  0  0  0  0  0
   60.5472   28.0780   46.8636 H   0  0  0  0  0  0  0  0  0  0  0  0
  1  2  1  0
  2  3  1  0
  3  4  1  0
  3  5  1  0
  5  6  1  0
  6  7  1  0
  7  8  1  0
  8  9  1  0
  9 10  2  0
 10 11  1  0
 11 12  2  0
 12 13  1  0
 13 14  2  0
 14 15  1  0
 15 16  2  0
 16 17  1  0
 16 18  1  0
 18 19  2  0
 19 20  1  0
 20 21  2  0
 21 22  1  0
 22 23  2  0
 23  9  1  0
 15 10  1  0
 23 18  1  0
  1 24  1  0
  1 25  1  0
  1 26  1  0
  2 27  1  0
  2 28  1  0
  4 29  1  0
  4 30  1  0
  4 31  1  0
  5 32  1  0
  5 33  1  0
  6 34  1  0
  6 35  1  0
  7 36  1  0
  7 37  1  0
  8 38  1  0
  8 39  1  0
 11 40  1  0
 12 41  1  0
 13 42  1  0
 14 43  1  0
 17 44  1  0
 17 45  1  0
 17 46  1  0
 19 47  1  0
 20 48  1  0
 21 49  1  0
 22 50  1  0
M  CHG  2   8   1  16   1
M  END
>  <UniqueID>  (43) 
41

>  <SMILES>  (43) 
CCN(C)CCC[NH2+]c1c2ccccc2[n+](C)c2ccccc12

>  <Energy>  (43) 
75.52922869856549

>  <Genealogy>  (43) 
CCN(C)CCC[NH2+]c1c2ccccc2[n+](C)c2ccccc12 (protonated)
CCN(C)CCC[NH2+]c1c2ccccc2[n+](C)c2ccccc12 (3D coordinates assigned)
CCN(C)CCC[NH2+]c1c2ccccc2[n+](C)c2ccccc12 (optimized conformer: 75.52922869856549 kcal/mol)

>  <smiles>  (43) 
CCN(C)CCCNc1c2ccccc2[n+](C)c2ccccc12

>  <score_type>  (43) 
oracle

>  <origin>  (43) 
adg

>  <m_score__min__energy>  (43) 
-3.8799999999999999

>  <m_primary>  (43) 
energy

$$$$
43:0
     RDKit          3D

 74 79  0  0  0  0  0  0  0  0999 V2000
   56.3150   29.6330   52.8810 C   0  0  0  0  0  0  0  0  0  0  0  0
   57.3830   29.3290   51.9890 O   0  0  0  0  0  0  0  0  0  0  0  0
   58.7380   29.3110   52.3570 C   0  0  0  0  0  0  0  0  0  0  0  0
   59.1990   28.5850   53.4760 C   0  0  0  0  0  0  0  0  0  0  0  0
   60.5510   28.6040   53.8240 C   0  0  0  0  0  0  0  0  0  0  0  0
   61.4620   29.3300   53.0580 C   0  0  0  0  0  0  0  0  0  0  0  0
   61.0200   30.0490   51.9470 C   0  0  0  0  0  0  0  0  0  0  0  0
   59.6610   30.0460   51.5900 C   0  0  0  0  0  0  0  0  0  0  0  0
   59.2230   30.8870   50.4530 C   0  0  0  0  0  0  0  0  0  0  0  0
   59.0570   32.2740   50.6510 C   0  0  0  0  0  0  0  0  0  0  0  0
   59.1160   32.8630   51.9620 N   0  0  0  0  0  0  0  0  0  0  0  0
   60.3840   33.4660   52.3900 C   0  0  0  0  0  0  0  0  0  0  0  0
   60.3870   33.7420   53.8880 C   0  0  0  0  0  0  0  0  0  0  0  0
   59.7960   32.6530   54.5690 O   0  0  0  0  0  0  0  0  0  0  0  0
   58.3990   32.6910   54.3770 C   0  0  0  0  0  0  0  0  0  0  0  0
   58.0040   32.5780   52.8840 C   0  0  0  0  0  0  0  0  0  0  0  0
   58.8600   33.0910   49.5870 N   0  0  0  0  0  0  0  0  0  0  0  0
   58.8020   32.6350   48.3120 C   0  0  0  0  0  0  0  0  0  0  0  0
   58.6510   33.5910   47.2530 N   0  0  0  0  0  0  0  0  0  0  0  0
   59.8450   34.3200   46.8120 C   0  0  0  0  0  0  0  0  0  0  0  0
   59.5680   35.1440   45.5530 C   0  0  0  0  0  0  0  0  0  0  0  0
   58.8030   34.3830   44.6380 O   0  0  0  0  0  0  0  0  0  0  0  0
   57.4820   34.2810   45.1270 C   0  0  0  0  0  0  0  0  0  0  0  0
   57.4180   33.5010   46.4530 C   0  0  0  0  0  0  0  0  0  0  0  0
   58.9510   31.2560   48.0500 C   0  0  0  0  0  0  0  0  0  0  0  0
   59.1310   30.3630   49.1400 C   0  0  0  0  0  0  0  0  0  0  0  0
   59.3700   28.8890   48.8910 C   0  0  0  0  0  0  0  0  0  0  0  0
   59.0030   28.4610   47.4640 C   0  0  0  0  0  0  0  0  0  0  0  0
   59.5360   29.4280   46.4850 N   0  0  1  0  0  0  0  0  0  0  0  0
   59.4840   28.9110   45.0950 C   0  0  0  0  0  0  0  0  0  0  0  0
   58.4050   29.5370   44.2290 C   0  0  0  0  0  0  0  0  0  0  0  0
   58.5140   30.8660   43.7790 C   0  0  0  0  0  0  0  0  0  0  0  0
   57.5090   31.4250   42.9810 C   0  0  0  0  0  0  0  0  0  0  0  0
   56.3880   30.6700   42.6280 C   0  0  0  0  0  0  0  0  0  0  0  0
   56.2680   29.3520   43.0790 C   0  0  0  0  0  0  0  0  0  0  0  0
   57.2650   28.7880   43.8790 C   0  0  0  0  0  0  0  0  0  0  0  0
   58.8590   30.7320   46.6300 C   0  0  0  0  0  0  0  0  0  0  0  0
   56.6647   29.5334   53.9192 H   0  0  0  0  0  0  0  0  0  0  0  0
   55.9736   30.6640   52.7064 H   0  0  0  0  0  0  0  0  0  0  0  0
   55.4818   28.9363   52.7064 H   0  0  0  0  0  0  0  0  0  0  0  0
   58.4882   28.0001   54.0782 H   0  0  0  0  0  0  0  0  0  0  0  0
   60.8984   28.0445   54.7051 H   0  0  0  0  0  0  0  0  0  0  0  0
   62.5280   29.3359   53.3292 H   0  0  0  0  0  0  0  0  0  0  0  0
   61.7409   30.6226   51.3460 H   0  0  0  0  0  0  0  0  0  0  0  0
   61.2074   32.7769   52.1508 H   0  0  0  0  0  0  0  0  0  0  0  0
   60.5105   34.4217   51.8603 H   0  0  0  0  0  0  0  0  0  0  0  0
   61.4227   33.8728   54.2347 H   0  0  0  0  0  0  0  0  0  0  0  0
   59.8133   34.6578   54.0933 H   0  0  0  0  0  0  0  0  0  0  0  0
   57.9441   31.8539   54.9269 H   0  0  0  0  0  0  0  0  0  0  0  0
   58.0363   33.6614   54.7469 H   0  0  0  0  0  0  0  0  0  0  0  0
   57.6471   31.5550   52.6942 H   0  0  0  0  0  0  0  0  0  0  0  0
   57.2250   33.3316   52.6961 H   0  0  0  0  0  0  0  0  0  0  0  0
   60.1684   34.9960   47.6173 H   0  0  0  0  0  0  0  0  0  0  0  0
   60.6296   33.5857   46.5772 H   0  0  0  0  0  0  0  0  0  0  0  0
   59.0114   36.0524   45.8268 H   0  0  0  0  0  0  0  0  0  0  0  0
   60.5237   35.4207   45.0838 H   0  0  0  0  0  0  0  0  0  0  0  0
   57.0844   35.2935   45.2907 H   0  0  0  0  0  0  0  0  0  0  0  0
   56.8844   33.7354   44.3819 H   0  0  0  0  0  0  0  0  0  0  0  0
   56.5860   33.9008   47.0512 H   0  0  0  0  0  0  0  0  0  0  0  0
   57.2785   32.4406   46.1957 H   0  0  0  0  0  0  0  0  0  0  0  0
   60.4350   28.6719   49.0603 H   0  0  0  0  0  0  0  0  0  0  0  0
   58.7247   28.3270   49.5821 H   0  0  0  0  0  0  0  0  0  0  0  0
   59.4302   27.4677   47.2621 H   0  0  0  0  0  0  0  0  0  0  0  0
   57.9074   28.4264   47.3720 H   0  0  0  0  0  0  0  0  0  0  0  0
   60.5550   29.5850   46.6940 H   0  0  0  0  0  0  0  0  0  0  0  0
   60.4582   29.1017   44.6211 H   0  0  0  0  0  0  0  0  0  0  0  0
   59.2431   27.8402   45.1688 H   0  0  0  0  0  0  0  0  0  0  0  0
   59.3923   31.4678   44.0554 H   0  0  0  0  0  0  0  0  0  0  0  0
   57.6024   32.4634   42.6303 H   0  0  0  0  0  0  0  0  0  0  0  0
   55.6021   31.1110   41.9972 H   0  0  0  0  0  0  0  0  0  0  0  0
   55.3851   28.7568   42.8029 H   0  0  0  0  0  0  0  0  0  0  0  0
   57.1589   27.7534   44.2373 H   0  0  0  0  0  0  0  0  0  0  0  0
   59.3320   31.4568   45.9511 H   0  0  0  0  0  0  0  0  0  0  0  0
   57.7959   30.5962   46.3825 H   0  0  0  0  0  0  0  0  0  0  0  0
  1  2  1  0
  2  3  1  0
  3  4  2  0
  4  5  1  0
  5  6  2  0
  6  7  1  0
  7  8  2  0
  8  9  1  0
  9 10  1  0
 10 11  1  0
 11 12  1  0
 12 13  1  0
 13 14  1  0
 14 15  1  0
 15 16  1  0
 10 17  2  0
 17 18  1  0
 18 19  1  0
 19 20  1  0
 20 21  1  0
 21 22  1  0
 22 23  1  0
 23 24  1  0
 18 25  2  0
 25 26  1  0
 26 27  1  0
 27 28  1  0
 28 29  1  0
 29 30  1  0
 30 31  1  0
 31 32  2  0
 32 33  1  0
 33 34  2  0
 34 35  1  0
 35 36  2  0
 29 37  1  0
  8  3  1  0
 26  9  2  0
 36 31  1  0
 16 11  1  0
 24 19  1  0
 37 25  1  0
  1 38  1  0
  1 39  1  0
  1 40  1  0
  4 41  1  0
  5 42  1  0
  6 43  1  0
  7 44  1  0
 12 45  1  0
 12 46  1  0
 13 47  1  0
 13 48  1  0
 15 49  1  0
 15 50  1  0
 16 51  1  0
 16 52  1  0
 20 53  1  0
 20 54  1  0
 21 55  1  0
 21 56  1  0
 23 57  1  0
 23 58  1  0
 24 59  1  0
 24 60  1  0
 27 61  1  0
 27 62  1  0
 28 63  1  0
 28 64  1  0
 29 65  1  1
 30 66  1  0
 30 67  1  0
 32 68  1  0
 33 69  1  0
 34 70  1  0
 35 71  1  0
 36 72  1  0
 37 73  1  0
 37 74  1  0
M  CHG  1  29   1
M  END
>  <UniqueID>  (44) 
42

>  <SMILES>  (44) 
COc1ccccc1-c1c(N2CCOCC2)nc(N2CCOCC2)c2c1CC[N@@H+](Cc1ccccc1)C2

>  <Energy>  (44) 
114.53248473683169

>  <Genealogy>  (44) 
COc1ccccc1-c1c(N2CCOCC2)nc(N2CCOCC2)c2c1CC[NH+](Cc1ccccc1)C2 (protonated)
COc1ccccc1-c1c(N2CCOCC2)nc(N2CCOCC2)c2c1CC[N@@H+](Cc1ccccc1)C2 (chirality)
COc1ccccc1-c1c(N2CCOCC2)nc(N2CCOCC2)c2c1CC[N@@H+](Cc1ccccc1)C2 (3D coordinates assigned)
COc1ccccc1-c1c(N2CCOCC2)nc(N2CCOCC2)c2c1CC[N@@H+](Cc1ccccc1)C2 (nonaromatic ring conformer: 114.53248473683169 kcal/mol)

>  <smiles>  (44) 
COc1ccccc1-c1c(N2CCOCC2)nc(N2CCOCC2)c2c1CCN(Cc1ccccc1)C2

>  <score_type>  (44) 
oracle

>  <origin>  (44) 
adg

>  <m_score__min__energy>  (44) 
-6.5999999999999996

>  <m_primary>  (44) 
energy

$$$$
44:0
     RDKit          3D

 35 37  0  0  0  0  0  0  0  0999 V2000
   59.5660   33.5870   50.9580 C   0  0  0  0  0  0  0  0  0  0  0  0
   60.5590   33.4700   50.2840 C   0  0  0  0  0  0  0  0  0  0  0  0
   61.7420   33.3500   49.4710 C   0  0  0  0  0  0  0  0  0  0  0  0
   62.9510   32.9520   50.0610 C   0  0  0  0  0  0  0  0  0  0  0  0
   64.1070   32.8390   49.2570 C   0  0  0  0  0  0  0  0  0  0  0  0
   65.4140   32.4510   49.8790 C   0  0  0  0  0  0  0  0  0  0  0  0
   64.0440   33.1430   47.9240 N   0  0  0  0  0  0  0  0  0  0  0  0
   62.8570   33.5240   47.3910 C   0  0  0  0  0  0  0  0  0  0  0  0
   62.6490   33.8360   46.1010 N   0  0  0  0  0  0  0  0  0  0  0  0
   61.3610   34.1450   46.0060 N   0  0  0  0  0  0  0  0  0  0  0  0
   60.8150   34.0190   47.2380 C   0  0  0  0  0  0  0  0  0  0  0  0
   59.3550   34.2440   47.5090 C   0  0  0  0  0  0  0  0  0  0  0  0
   58.5190   33.3080   46.7310 N   0  0  0  0  0  0  0  0  0  0  0  0
   59.1120   31.9520   46.6900 C   0  0  0  0  0  0  0  0  0  0  0  0
   58.4220   31.0760   45.6270 C   0  0  0  0  0  0  0  0  0  0  0  0
   57.1820   31.6350   45.2450 O   0  0  0  0  0  0  0  0  0  0  0  0
   57.3940   32.8660   44.5750 C   0  0  0  0  0  0  0  0  0  0  0  0
   58.3290   33.8110   45.3590 C   0  0  0  0  0  0  0  0  0  0  0  0
   61.7480   33.6220   48.1350 N   0  0  0  0  0  0  0  0  0  0  0  0
   58.6602   33.6937   51.5729 H   0  0  0  0  0  0  0  0  0  0  0  0
   62.9982   32.7304   51.1374 H   0  0  0  0  0  0  0  0  0  0  0  0
   65.3211   32.4786   50.9747 H   0  0  0  0  0  0  0  0  0  0  0  0
   65.6845   31.4338   49.5594 H   0  0  0  0  0  0  0  0  0  0  0  0
   66.1957   33.1558   49.5594 H   0  0  0  0  0  0  0  0  0  0  0  0
   64.8940   33.0840   47.3190 H   0  0  0  0  0  0  0  0  0  0  0  0
   59.1612   34.0925   48.5811 H   0  0  0  0  0  0  0  0  0  0  0  0
   59.0988   35.2714   47.2109 H   0  0  0  0  0  0  0  0  0  0  0  0
   60.1818   32.0350   46.4477 H   0  0  0  0  0  0  0  0  0  0  0  0
   58.9736   31.4806   47.6742 H   0  0  0  0  0  0  0  0  0  0  0  0
   59.0722   31.0024   44.7428 H   0  0  0  0  0  0  0  0  0  0  0  0
   58.2427   30.0783   46.0542 H   0  0  0  0  0  0  0  0  0  0  0  0
   57.8434   32.6602   43.5923 H   0  0  0  0  0  0  0  0  0  0  0  0
   56.4190   33.3657   44.4766 H   0  0  0  0  0  0  0  0  0  0  0  0
   59.3037   33.8625   44.8517 H   0  0  0  0  0  0  0  0  0  0  0  0
   57.8769   34.8129   45.4012 H   0  0  0  0  0  0  0  0  0  0  0  0
  1  2  3  0
  2  3  1  0
  3  4  2  0
  4  5  1  0
  5  6  1  0
  5  7  2  0
  7  8  1  0
  8  9  2  0
  9 10  1  0
 10 11  2  0
 11 12  1  0
 12 13  1  0
 13 14  1  0
 14 15  1  0
 15 16  1  0
 16 17  1  0
 17 18  1  0
 11 19  1  0
 19  3  1  0
 19  8  1  0
 18 13  1  0
  1 20  1  0
  4 21  1  0
  6 22  1  0
  6 23  1  0
  6 24  1  0
  7 25  1  0
 12 26  1  0
 12 27  1  0
 14 28  1  0
 14 29  1  0
 15 30  1  0
 15 31  1  0
 17 32  1  0
 17 33  1  0
 18 34  1  0
 18 35  1  0
M  CHG  1   7   1
M  END
>  <UniqueID>  (45) 
43

>  <SMILES>  (45) 
C#Cc1cc(C)[nH+]c2nnc(CN3CCOCC3)n12

>  <Energy>  (45) 
84.53628258367695

>  <Genealogy>  (45) 
C#Cc1cc(C)[nH+]c2nnc(CN3CCOCC3)n12 (protonated)
C#Cc1cc(C)[nH+]c2nnc(CN3CCOCC3)n12 (3D coordinates assigned)
C#Cc1cc(C)[nH+]c2nnc(CN3CCOCC3)n12 (nonaromatic ring conformer: 84.53628258367695 kcal/mol)

>  <smiles>  (45) 
C#Cc1cc(C)nc2nnc(CN3CCOCC3)n12

>  <score_type>  (45) 
oracle

>  <origin>  (45) 
adg

>  <m_score__min__energy>  (45) 
-5.71

>  <m_primary>  (45) 
energy

$$$$
45:0
     RDKit          3D

 52 53  0  0  0  0  0  0  0  0999 V2000
   59.0700   34.5890   45.7930 C   0  0  0  0  0  0  0  0  0  0  0  0
   59.4690   33.6040   46.7390 O   0  0  0  0  0  0  0  0  0  0  0  0
   60.7780   33.1190   46.8820 C   0  0  0  0  0  0  0  0  0  0  0  0
   61.9010   33.9640   46.7690 C   0  0  0  0  0  0  0  0  0  0  0  0
   63.1910   33.4450   46.9060 C   0  0  0  0  0  0  0  0  0  0  0  0
   63.3770   32.0840   47.1520 C   0  0  0  0  0  0  0  0  0  0  0  0
   62.2720   31.2380   47.2690 C   0  0  0  0  0  0  0  0  0  0  0  0
   60.9710   31.7480   47.1390 C   0  0  0  0  0  0  0  0  0  0  0  0
   59.8480   30.8630   47.2700 N   0  0  0  0  0  0  0  0  0  0  0  0
   59.7040   29.7680   46.2990 C   0  0  0  0  0  0  0  0  0  0  0  0
   58.5850   30.0480   45.3210 C   0  0  0  0  0  0  0  0  0  0  0  0
   58.4860   31.3240   44.7370 C   0  0  0  0  0  0  0  0  0  0  0  0
   57.4910   31.6000   43.7960 C   0  0  0  0  0  0  0  0  0  0  0  0
   56.5850   30.6050   43.4260 C   0  0  0  0  0  0  0  0  0  0  0  0
   56.6680   29.3350   44.0000 C   0  0  0  0  0  0  0  0  0  0  0  0
   57.6610   29.0470   44.9450 C   0  0  0  0  0  0  0  0  0  0  0  0
   57.6920   27.2880   45.7050 Br  0  0  0  0  0  0  0  0  0  0  0  0
   59.2030   30.7850   48.5530 C   0  0  0  0  0  0  0  0  0  0  0  0
   59.1600   29.3460   49.3450 S   0  0  0  0  0  0  0  0  0  0  0  0
   58.6170   31.9670   49.1310 N   0  0  0  0  0  0  0  0  0  0  0  0
   58.0400   32.0230   50.4740 C   0  0  0  0  0  0  0  0  0  0  0  0
   58.9350   32.8520   51.4030 C   0  0  0  0  0  0  0  0  0  0  0  0
   59.8180   33.8360   50.6210 C   0  0  0  0  0  0  0  0  0  0  0  0
   61.0620   33.1910   50.1480 N   0  0  0  0  0  0  0  0  0  0  0  0
   61.4390   32.0600   51.0160 C   0  0  0  0  0  0  0  0  0  0  0  0
   62.1620   34.1700   50.1190 C   0  0  0  0  0  0  0  0  0  0  0  0
   58.7083   35.4819   46.3239 H   0  0  0  0  0  0  0  0  0  0  0  0
   59.9291   34.8605   45.1619 H   0  0  0  0  0  0  0  0  0  0  0  0
   58.2642   34.1861   45.1619 H   0  0  0  0  0  0  0  0  0  0  0  0
   61.7609   35.0371   46.5720 H   0  0  0  0  0  0  0  0  0  0  0  0
   64.0623   34.1109   46.8197 H   0  0  0  0  0  0  0  0  0  0  0  0
   64.3941   31.6775   47.2538 H   0  0  0  0  0  0  0  0  0  0  0  0
   62.4222   30.1659   47.4641 H   0  0  0  0  0  0  0  0  0  0  0  0
   60.6465   29.6551   45.7431 H   0  0  0  0  0  0  0  0  0  0  0  0
   59.4644   28.8452   46.8476 H   0  0  0  0  0  0  0  0  0  0  0  0
   59.1984   32.1115   45.0239 H   0  0  0  0  0  0  0  0  0  0  0  0
   57.4216   32.6016   43.3467 H   0  0  0  0  0  0  0  0  0  0  0  0
   55.8048   30.8216   42.6814 H   0  0  0  0  0  0  0  0  0  0  0  0
   55.9489   28.5555   43.7082 H   0  0  0  0  0  0  0  0  0  0  0  0
   58.5990   32.8440   48.5630 H   0  0  0  0  0  0  0  0  0  0  0  0
   57.0435   32.4858   50.4219 H   0  0  0  0  0  0  0  0  0  0  0  0
   57.9601   31.0007   50.8723 H   0  0  0  0  0  0  0  0  0  0  0  0
   58.2978   33.4202   52.0966 H   0  0  0  0  0  0  0  0  0  0  0  0
   59.5951   32.1601   51.9466 H   0  0  0  0  0  0  0  0  0  0  0  0
   59.2555   34.2078   49.7519 H   0  0  0  0  0  0  0  0  0  0  0  0
   60.0922   34.6624   51.2932 H   0  0  0  0  0  0  0  0  0  0  0  0
   61.3397   32.3579   52.0702 H   0  0  0  0  0  0  0  0  0  0  0  0
   60.7772   31.2052   50.8126 H   0  0  0  0  0  0  0  0  0  0  0  0
   62.4813   31.7733   50.8126 H   0  0  0  0  0  0  0  0  0  0  0  0
   62.4511   34.4273   51.1487 H   0  0  0  0  0  0  0  0  0  0  0  0
   63.0253   33.7360   49.5933 H   0  0  0  0  0  0  0  0  0  0  0  0
   61.8311   35.0778   49.5933 H   0  0  0  0  0  0  0  0  0  0  0  0
  1  2  1  0
  2  3  1  0
  3  4  2  0
  4  5  1  0
  5  6  2  0
  6  7  1  0
  7  8  2  0
  8  9  1  0
  9 10  1  0
 10 11  1  0
 11 12  2  0
 12 13  1  0
 13 14  2  0
 14 15  1  0
 15 16  2  0
 16 17  1  0
  9 18  1  0
 18 19  2  0
 18 20  1  0
 20 21  1  0
 21 22  1  0
 22 23  1  0
 23 24  1  0
 24 25  1  0
 24 26  1  0
  8  3  1  0
 16 11  1  0
  1 27  1  0
  1 28  1  0
  1 29  1  0
  4 30  1  0
  5 31  1  0
  6 32  1  0
  7 33  1  0
 10 34  1  0
 10 35  1  0
 12 36  1  0
 13 37  1  0
 14 38  1  0
 15 39  1  0
 20 40  1  0
 21 41  1  0
 21 42  1  0
 22 43  1  0
 22 44  1  0
 23 45  1  0
 23 46  1  0
 25 47  1  0
 25 48  1  0
 25 49  1  0
 26 50  1  0
 26 51  1  0
 26 52  1  0
M  END
>  <UniqueID>  (46) 
44

>  <SMILES>  (46) 
COc1ccccc1N(Cc1ccccc1Br)C(=S)NCCCN(C)C

>  <Energy>  (46) 
57.43568426800656

>  <Genealogy>  (46) 
COc1ccccc1N(Cc1ccccc1Br)C(=S)NCCCN(C)C (3D coordinates assigned)
COc1ccccc1N(Cc1ccccc1Br)C(=S)NCCCN(C)C (optimized conformer: 57.43568426800656 kcal/mol)

>  <smiles>  (46) 
COc1ccccc1N(Cc1ccccc1Br)C(=S)NCCCN(C)C

>  <score_type>  (46) 
oracle

>  <origin>  (46) 
adg

>  <m_score__min__energy>  (46) 
-7.1600000000000001

>  <m_primary>  (46) 
energy

$$$$
