0:0
     RDKit          3D

 50 51  0  0  0  0  0  0  0  0999 V2000
   63.3580   33.7080   46.5220 C   0  0  0  0  0  0  0  0  0  0  0  0
   63.4260   32.5860   47.5540 C   0  0  0  0  0  0  0  0  0  0  0  0
   62.2020   32.5570   48.3850 N   0  0  0  0  0  0  0  0  0  0  0  0
   61.6830   33.9050   48.7210 C   0  0  0  0  0  0  0  0  0  0  0  0
   62.5810   34.5460   49.7710 C   0  0  0  0  0  0  0  0  0  0  0  0
   62.3330   31.6760   49.5670 C   0  0  0  0  0  0  0  0  0  0  0  0
   61.0110   30.9760   49.9630 C   0  0  0  0  0  0  0  0  0  0  0  0
   60.6160   29.8560   48.9790 C   0  0  0  0  0  0  0  0  0  0  0  0
   60.9360   30.1630   47.5730 N   0  0  0  0  0  0  0  0  0  0  0  0
   59.7550   30.1680   46.7420 C   0  0  0  0  0  0  0  0  0  0  0  0
   58.9680   29.0050   46.5810 C   0  0  0  0  0  0  0  0  0  0  0  0
   57.8170   28.9990   45.7390 C   0  0  0  0  0  0  0  0  0  0  0  0
   57.0840   27.7770   45.5200 N   0  0  0  0  0  0  0  0  0  0  0  0
   57.4250   26.5170   46.1850 C   0  0  0  0  0  0  0  0  0  0  0  0
   56.1910   25.6220   46.3270 C   0  0  0  0  0  0  0  0  0  0  0  0
   55.0220   26.3780   46.1670 O   0  0  0  0  0  0  0  0  0  0  0  0
   57.4400   30.1970   45.0630 C   0  0  0  0  0  0  0  0  0  0  0  0
   56.2510   30.2870   44.2610 N   0  0  0  0  0  0  0  0  0  0  0  0
   56.2860   30.8400   43.1420 O   0  0  0  0  0  0  0  0  0  0  0  0
   55.1180   29.5980   44.6250 O   0  0  0  0  0  0  0  0  0  0  0  0
   58.2570   31.3170   45.2420 C   0  0  0  0  0  0  0  0  0  0  0  0
   58.1190   32.5520   44.7360 N   0  0  0  0  0  0  0  0  0  0  0  0
   59.1250   33.2270   45.2340 O   0  0  0  0  0  0  0  0  0  0  0  0
   59.8990   32.5290   46.0270 N   0  0  0  0  0  0  0  0  0  0  0  0
   59.3510   31.3050   46.0400 C   0  0  0  0  0  0  0  0  0  0  0  0
   63.2992   34.6777   47.0380 H   0  0  0  0  0  0  0  0  0  0  0  0
   64.2594   33.6819   45.8920 H   0  0  0  0  0  0  0  0  0  0  0  0
   62.4664   33.5732   45.8920 H   0  0  0  0  0  0  0  0  0  0  0  0
   63.5300   31.6231   47.0325 H   0  0  0  0  0  0  0  0  0  0  0  0
   64.2913   32.7638   48.2095 H   0  0  0  0  0  0  0  0  0  0  0  0
   61.6725   34.5302   47.8160 H   0  0  0  0  0  0  0  0  0  0  0  0
   60.6604   33.8167   49.1167 H   0  0  0  0  0  0  0  0  0  0  0  0
   62.2153   34.2849   50.7750 H   0  0  0  0  0  0  0  0  0  0  0  0
   63.6100   34.1770   49.6481 H   0  0  0  0  0  0  0  0  0  0  0  0
   62.5663   35.6390   49.6481 H   0  0  0  0  0  0  0  0  0  0  0  0
   63.0833   30.9031   49.3440 H   0  0  0  0  0  0  0  0  0  0  0  0
   62.6293   32.3121   50.4141 H   0  0  0  0  0  0  0  0  0  0  0  0
   61.1302   30.5387   50.9653 H   0  0  0  0  0  0  0  0  0  0  0  0
   60.2137   31.7336   49.9435 H   0  0  0  0  0  0  0  0  0  0  0  0
   61.1508   28.9382   49.2646 H   0  0  0  0  0  0  0  0  0  0  0  0
   59.5238   29.7421   49.0429 H   0  0  0  0  0  0  0  0  0  0  0  0
   61.6530   29.4980   47.2050 H   0  0  0  0  0  0  0  0  0  0  0  0
   61.3660   31.1170   47.5350 H   0  0  0  0  0  0  0  0  0  0  0  0
   59.2490   28.0859   47.1160 H   0  0  0  0  0  0  0  0  0  0  0  0
   56.2750   27.7870   44.8600 H   0  0  0  0  0  0  0  0  0  0  0  0
   58.1854   25.9901   45.5898 H   0  0  0  0  0  0  0  0  0  0  0  0
   57.8119   26.7436   47.1895 H   0  0  0  0  0  0  0  0  0  0  0  0
   56.2227   24.8354   45.5587 H   0  0  0  0  0  0  0  0  0  0  0  0
   56.1904   25.1691   47.3295 H   0  0  0  0  0  0  0  0  0  0  0  0
   54.7760   26.7150   47.0680 H   0  0  0  0  0  0  0  0  0  0  0  0
  1  2  1  0
  2  3  1  0
  3  4  1  0
  4  5  1  0
  3  6  1  0
  6  7  1  0
  7  8  1  0
  8  9  1  0
  9 10  1  0
 10 11  2  0
 11 12  1  0
 12 13  1  0
 13 14  1  0
 14 15  1  0
 15 16  1  0
 12 17  2  0
 17 18  1  0
 18 19  2  0
 18 20  1  0
 17 21  1  0
 21 22  2  0
 22 23  1  0
 23 24  1  0
 24 25  2  0
 25 10  1  0
 25 21  1  0
  1 26  1  0
  1 27  1  0
  1 28  1  0
  2 29  1  0
  2 30  1  0
  4 31  1  0
  4 32  1  0
  5 33  1  0
  5 34  1  0
  5 35  1  0
  6 36  1  0
  6 37  1  0
  7 38  1  0
  7 39  1  0
  8 40  1  0
  8 41  1  0
  9 42  1  0
  9 43  1  0
 11 44  1  0
 13 45  1  0
 14 46  1  0
 14 47  1  0
 15 48  1  0
 15 49  1  0
 16 50  1  0
M  CHG  3   9   1  18   1  20  -1
M  END
>  <UniqueID>  (1) 
1

>  <SMILES>  (1) 
CCN(CC)CCC[NH2+]c1cc(NCCO)c([N+](=O)[O-])c2nonc12

>  <Energy>  (1) 
94.72293958173057

>  <Genealogy>  (1) 
CCN(CC)CCC[NH2+]c1cc(NCCO)c([N+](=O)[O-])c2nonc12 (protonated)
CCN(CC)CCC[NH2+]c1cc(NCCO)c([N+](=O)[O-])c2nonc12 (3D coordinates assigned)
CCN(CC)CCC[NH2+]c1cc(NCCO)c([N+](=O)[O-])c2nonc12 (optimized conformer: 94.72293958173057 kcal/mol)

>  <smiles>  (1) 
CCN(CC)CCCNc1cc(NCCO)c([N+](=O)[O-])c2nonc12

>  <score_type>  (1) 
oracle

>  <origin>  (1) 
adg

>  <m_score__min__energy>  (1) 
-6.3099999999999996

>  <m_primary>  (1) 
energy

$$$$
1:0
     RDKit          3D

 58 60  0  0  0  0  0  0  0  0999 V2000
   63.2710   33.9770   46.2220 C   0  0  0  0  0  0  0  0  0  0  0  0
   63.7810   33.6630   47.6340 C   0  0  0  0  0  0  0  0  0  0  0  0
   63.7460   32.2100   47.9530 N   0  0  0  0  0  0  0  0  0  0  0  0
   64.1290   31.9750   49.3710 C   0  0  0  0  0  0  0  0  0  0  0  0
   65.2120   32.9400   49.8760 C   0  0  0  0  0  0  0  0  0  0  0  0
   62.3910   31.6320   47.6940 C   0  0  0  0  0  0  0  0  0  0  0  0
   61.5180   31.6190   48.9620 C   0  0  0  0  0  0  0  0  0  0  0  0
   60.0990   31.6670   48.6160 N   0  0  0  0  0  0  0  0  0  0  0  0
   59.6600   31.7040   47.2470 C   0  0  0  0  0  0  0  0  0  0  0  0
   59.4980   32.9330   46.5870 C   0  0  0  0  0  0  0  0  0  0  0  0
   59.8880   34.1420   47.2020 C   0  0  0  0  0  0  0  0  0  0  0  0
   59.7620   35.3550   46.5300 C   0  0  0  0  0  0  0  0  0  0  0  0
   59.2700   35.3830   45.2300 C   0  0  0  0  0  0  0  0  0  0  0  0
   58.8860   34.2000   44.5990 C   0  0  0  0  0  0  0  0  0  0  0  0
   58.9660   32.9520   45.2700 C   0  0  0  0  0  0  0  0  0  0  0  0
   58.5610   31.7760   44.6690 N   0  0  0  0  0  0  0  0  0  0  0  0
   57.7460   31.8170   43.4330 C   0  0  0  0  0  0  0  0  0  0  0  0
   58.8980   30.5590   45.2350 C   0  0  0  0  0  0  0  0  0  0  0  0
   58.7440   29.3410   44.5320 C   0  0  0  0  0  0  0  0  0  0  0  0
   59.0240   28.1160   45.1350 C   0  0  0  0  0  0  0  0  0  0  0  0
   59.4850   28.0540   46.4580 C   0  0  0  0  0  0  0  0  0  0  0  0
   59.7500   26.7780   47.0950 N   0  0  0  0  0  0  0  0  0  0  0  0
   60.3160   26.7250   48.4490 C   0  0  0  0  0  0  0  0  0  0  0  0
   59.4440   25.5210   46.4030 C   0  0  0  0  0  0  0  0  0  0  0  0
   59.6950   29.2590   47.1490 C   0  0  0  0  0  0  0  0  0  0  0  0
   59.4240   30.5070   46.5500 C   0  0  0  0  0  0  0  0  0  0  0  0
   62.3361   34.5526   46.2894 H   0  0  0  0  0  0  0  0  0  0  0  0
   64.0265   34.5666   45.6820 H   0  0  0  0  0  0  0  0  0  0  0  0
   63.0847   33.0370   45.6820 H   0  0  0  0  0  0  0  0  0  0  0  0
   64.8194   34.0159   47.7186 H   0  0  0  0  0  0  0  0  0  0  0  0
   63.1157   34.1732   48.3461 H   0  0  0  0  0  0  0  0  0  0  0  0
   64.4590   31.7260   47.3550 H   0  0  0  0  0  0  0  0  0  0  0  0
   63.2339   32.0953   49.9989 H   0  0  0  0  0  0  0  0  0  0  0  0
   64.5446   30.9583   49.4319 H   0  0  0  0  0  0  0  0  0  0  0  0
   65.2160   32.9435   50.9760 H   0  0  0  0  0  0  0  0  0  0  0  0
   66.1953   32.6132   49.5068 H   0  0  0  0  0  0  0  0  0  0  0  0
   65.0003   33.9544   49.5068 H   0  0  0  0  0  0  0  0  0  0  0  0
   61.8889   32.2352   46.9232 H   0  0  0  0  0  0  0  0  0  0  0  0
   62.5230   30.5918   47.3615 H   0  0  0  0  0  0  0  0  0  0  0  0
   61.7199   30.6985   49.5293 H   0  0  0  0  0  0  0  0  0  0  0  0
   61.7632   32.5038   49.5678 H   0  0  0  0  0  0  0  0  0  0  0  0
   59.3870   31.7180   49.3780 H   0  0  0  0  0  0  0  0  0  0  0  0
   60.2960   34.1258   48.2234 H   0  0  0  0  0  0  0  0  0  0  0  0
   60.0520   36.2919   47.0281 H   0  0  0  0  0  0  0  0  0  0  0  0
   59.1833   36.3415   44.6973 H   0  0  0  0  0  0  0  0  0  0  0  0
   58.5150   34.2348   43.5640 H   0  0  0  0  0  0  0  0  0  0  0  0
   56.6798   31.8706   43.6984 H   0  0  0  0  0  0  0  0  0  0  0  0
   58.0215   32.7024   42.8413 H   0  0  0  0  0  0  0  0  0  0  0  0
   57.9313   30.9084   42.8413 H   0  0  0  0  0  0  0  0  0  0  0  0
   58.3963   29.3612   43.4886 H   0  0  0  0  0  0  0  0  0  0  0  0
   58.8815   27.1856   44.5657 H   0  0  0  0  0  0  0  0  0  0  0  0
   59.5053   26.8009   49.1885 H   0  0  0  0  0  0  0  0  0  0  0  0
   60.8496   25.7730   48.5863 H   0  0  0  0  0  0  0  0  0  0  0  0
   61.0171   27.5614   48.5863 H   0  0  0  0  0  0  0  0  0  0  0  0
   59.2518   24.7316   47.1445 H   0  0  0  0  0  0  0  0  0  0  0  0
   58.5527   25.6569   45.7728 H   0  0  0  0  0  0  0  0  0  0  0  0
   60.2980   25.2321   45.7728 H   0  0  0  0  0  0  0  0  0  0  0  0
   60.0790   29.2287   48.1793 H   0  0  0  0  0  0  0  0  0  0  0  0
  1  2  1  0
  2  3  1  0
  3  4  1  0
  4  5  1  0
  3  6  1  0
  6  7  1  0
  7  8  1  0
  8  9  1  0
  9 10  2  0
 10 11  1  0
 11 12  2  0
 12 13  1  0
 13 14  2  0
 14 15  1  0
 15 16  2  0
 16 17  1  0
 16 18  1  0
 18 19  2  0
 19 20  1  0
 20 21  2  0
 21 22  1  0
 22 23  1  0
 22 24  1  0
 21 25  1  0
 25 26  2  0
 26  9  1  0
 15 10  1  0
 26 18  1  0
  1 27  1  0
  1 28  1  0
  1 29  1  0
  2 30  1  0
  2 31  1  0
  3 32  1  0
  4 33  1  0
  4 34  1  0
  5 35  1  0
  5 36  1  0
  5 37  1  0
  6 38  1  0
  6 39  1  0
  7 40  1  0
  7 41  1  0
  8 42  1  0
 11 43  1  0
 12 44  1  0
 13 45  1  0
 14 46  1  0
 17 47  1  0
 17 48  1  0
 17 49  1  0
 19 50  1  0
 20 51  1  0
 23 52  1  0
 23 53  1  0
 23 54  1  0
 24 55  1  0
 24 56  1  0
 24 57  1  0
 25 58  1  0
M  CHG  2   3   1  16   1
M  END
>  <UniqueID>  (2) 
2

>  <SMILES>  (2) 
CC[NH+](CC)CCNc1c2ccccc2[n+](C)c2ccc(N(C)C)cc12

>  <Energy>  (2) 
87.67791275327906

>  <Genealogy>  (2) 
CC[NH+](CC)CCNc1c2ccccc2[n+](C)c2ccc(N(C)C)cc12 (protonated)
CC[NH+](CC)CCNc1c2ccccc2[n+](C)c2ccc(N(C)C)cc12 (3D coordinates assigned)
CC[NH+](CC)CCNc1c2ccccc2[n+](C)c2ccc(N(C)C)cc12 (optimized conformer: 87.67791275327906 kcal/mol)

>  <smiles>  (2) 
CCN(CC)CCNc1c2ccccc2[n+](C)c2ccc(N(C)C)cc12

>  <score_type>  (2) 
oracle

>  <origin>  (2) 
adg

>  <m_score__min__energy>  (2) 
-4.5800000000000001

>  <m_primary>  (2) 
energy

$$$$
2:0
     RDKit          3D

 79 84  0  0  0  0  0  0  0  0999 V2000
   57.3820   21.5190   49.8370 C   0  0  0  0  0  0  0  0  0  0  0  0
   57.0250   22.6050   48.9870 O   0  0  0  0  0  0  0  0  0  0  0  0
   56.7680   22.4910   47.6110 C   0  0  0  0  0  0  0  0  0  0  0  0
   57.2490   23.4320   46.6820 C   0  0  0  0  0  0  0  0  0  0  0  0
   56.9630   23.2950   45.3140 C   0  0  0  0  0  0  0  0  0  0  0  0
   57.4420   24.2160   44.3620 C   0  0  0  0  0  0  0  0  0  0  0  0
   58.2310   25.3030   44.7800 O   0  0  0  0  0  0  0  0  0  0  0  0
   57.8080   26.6380   44.8050 C   0  0  0  0  0  0  0  0  0  0  0  0
   57.7710   27.3520   43.6030 C   0  0  0  0  0  0  0  0  0  0  0  0
   57.4060   28.7000   43.5920 C   0  0  0  0  0  0  0  0  0  0  0  0
   57.0630   29.3480   44.7920 C   0  0  0  0  0  0  0  0  0  0  0  0
   56.7420   30.7460   44.8250 N   0  0  0  0  0  0  0  0  0  0  0  0
   57.5500   31.8000   44.2850 C   0  0  0  0  0  0  0  0  0  0  0  0
   57.5310   32.0000   43.0440 O   0  0  0  0  0  0  0  0  0  0  0  0
   58.4270   32.6350   45.1280 C   0  0  0  0  0  0  0  0  0  0  0  0
   58.3930   33.9850   45.1010 N   0  0  0  0  0  0  0  0  0  0  0  0
   59.3530   34.4170   45.9050 N   0  0  0  0  0  0  0  0  0  0  0  0
   59.9920   33.3960   46.4510 N   0  0  0  0  0  0  0  0  0  0  0  0
   61.1310   33.5380   47.3040 C   0  0  0  0  0  0  0  0  0  0  0  0
   62.4070   33.6840   46.7400 C   0  0  0  0  0  0  0  0  0  0  0  0
   63.5250   33.8360   47.5650 C   0  0  0  0  0  0  0  0  0  0  0  0
   63.3750   33.8350   48.9550 C   0  0  0  0  0  0  0  0  0  0  0  0
   62.1080   33.6790   49.5230 C   0  0  0  0  0  0  0  0  0  0  0  0
   60.9830   33.5320   48.7030 C   0  0  0  0  0  0  0  0  0  0  0  0
   59.4010   33.3410   49.4460 Cl  0  0  0  0  0  0  0  0  0  0  0  0
   59.4320   32.2510   46.0110 C   0  0  0  0  0  0  0  0  0  0  0  0
   59.8420   30.8670   46.4480 C   0  0  0  0  0  0  0  0  0  0  0  0
   61.1300   30.8920   46.9420 F   0  0  0  0  0  0  0  0  0  0  0  0
   59.0130   30.3950   47.4470 F   0  0  0  0  0  0  0  0  0  0  0  0
   59.7950   30.0080   45.3680 F   0  0  0  0  0  0  0  0  0  0  0  0
   57.0170   28.6120   45.9810 C   0  0  0  0  0  0  0  0  0  0  0  0
   57.3910   27.2640   45.9940 C   0  0  0  0  0  0  0  0  0  0  0  0
   57.3270   26.5700   47.1580 F   0  0  0  0  0  0  0  0  0  0  0  0
   57.0880   24.0490   43.0120 C   0  0  0  0  0  0  0  0  0  0  0  0
   56.3060   22.9590   42.6290 C   0  0  0  0  0  0  0  0  0  0  0  0
   55.8780   22.0660   43.5600 N   0  0  0  0  0  0  0  0  0  0  0  0
   56.1820   22.2030   44.8790 C   0  0  0  0  0  0  0  0  0  0  0  0
   55.7140   21.2620   45.7990 C   0  0  0  0  0  0  0  0  0  0  0  0
   56.0040   21.3990   47.1690 C   0  0  0  0  0  0  0  0  0  0  0  0
   55.5600   20.4720   48.1290 O   0  0  0  0  0  0  0  0  0  0  0  0
   54.2190   20.3440   48.6040 C   0  0  0  0  0  0  0  0  0  0  0  0
   53.4680   21.6730   48.4540 C   0  0  0  0  0  0  0  0  0  0  0  0
   53.0570   21.9230   47.0530 N   0  0  0  0  0  0  0  0  0  0  0  0
   53.4630   23.2790   46.6050 C   0  0  0  0  0  0  0  0  0  0  0  0
   52.8560   23.6200   45.2430 C   0  0  0  0  0  0  0  0  0  0  0  0
   51.3200   23.6270   45.2900 C   0  0  0  0  0  0  0  0  0  0  0  0
   50.7570   22.8520   46.4910 C   0  0  0  0  0  0  0  0  0  0  0  0
   51.6080   21.6130   46.8500 C   0  0  1  0  0  0  0  0  0  0  0  0
   51.4730   20.5150   45.7900 C   0  0  0  0  0  0  0  0  0  0  0  0
   57.2806   21.8273   50.8880 H   0  0  0  0  0  0  0  0  0  0  0  0
   56.7173   20.6651   49.6397 H   0  0  0  0  0  0  0  0  0  0  0  0
   58.4237   21.2260   49.6397 H   0  0  0  0  0  0  0  0  0  0  0  0
   57.8541   24.2820   47.0302 H   0  0  0  0  0  0  0  0  0  0  0  0
   58.0311   26.8486   42.6602 H   0  0  0  0  0  0  0  0  0  0  0  0
   57.3868   29.2559   42.6430 H   0  0  0  0  0  0  0  0  0  0  0  0
   62.5280   33.6789   45.6467 H   0  0  0  0  0  0  0  0  0  0  0  0
   64.5238   33.9565   47.1202 H   0  0  0  0  0  0  0  0  0  0  0  0
   64.2558   33.9572   49.6025 H   0  0  0  0  0  0  0  0  0  0  0  0
   61.9943   33.6717   50.6171 H   0  0  0  0  0  0  0  0  0  0  0  0
   56.6848   29.0962   46.9112 H   0  0  0  0  0  0  0  0  0  0  0  0
   57.4268   24.7761   42.2592 H   0  0  0  0  0  0  0  0  0  0  0  0
   56.0353   22.8220   41.5717 H   0  0  0  0  0  0  0  0  0  0  0  0
   55.1147   20.4081   45.4502 H   0  0  0  0  0  0  0  0  0  0  0  0
   53.7011   19.5676   48.0218 H   0  0  0  0  0  0  0  0  0  0  0  0
   54.2430   20.0665   49.6682 H   0  0  0  0  0  0  0  0  0  0  0  0
   52.5697   21.6469   49.0884 H   0  0  0  0  0  0  0  0  0  0  0  0
   54.1468   22.4832   48.7587 H   0  0  0  0  0  0  0  0  0  0  0  0
   53.1211   24.0179   47.3447 H   0  0  0  0  0  0  0  0  0  0  0  0
   54.5588   23.2998   46.5114 H   0  0  0  0  0  0  0  0  0  0  0  0
   53.2076   24.6159   44.9355 H   0  0  0  0  0  0  0  0  0  0  0  0
   53.1732   22.8501   44.5242 H   0  0  0  0  0  0  0  0  0  0  0  0
   50.9751   24.6697   45.3518 H   0  0  0  0  0  0  0  0  0  0  0  0
   50.9587   23.1308   44.3772 H   0  0  0  0  0  0  0  0  0  0  0  0
   50.7279   23.5238   47.3616 H   0  0  0  0  0  0  0  0  0  0  0  0
   49.7518   22.4983   46.2180 H   0  0  0  0  0  0  0  0  0  0  0  0
   51.2061   21.2570   47.8101 H   0  0  0  0  0  0  0  0  0  0  0  0
   51.3531   19.5401   46.2852 H   0  0  0  0  0  0  0  0  0  0  0  0
   50.5930   20.7179   45.1619 H   0  0  0  0  0  0  0  0  0  0  0  0
   52.3759   20.4987   45.1619 H   0  0  0  0  0  0  0  0  0  0  0  0
  1  2  1  0
  2  3  1  0
  3  4  2  0
  4  5  1  0
  5  6  2  0
  6  7  1  0
  7  8  1  0
  8  9  2  0
  9 10  1  0
 10 11  2  0
 11 12  1  0
 12 13  1  0
 13 14  2  0
 13 15  1  0
 15 16  1  0
 16 17  2  0
 17 18  1  0
 18 19  1  0
 19 20  2  0
 20 21  1  0
 21 22  2  0
 22 23  1  0
 23 24  2  0
 24 25  1  0
 18 26  1  0
 26 27  1  0
 27 28  1  0
 27 29  1  0
 27 30  1  0
 11 31  1  0
 31 32  2  0
 32 33  1  0
  6 34  1  0
 34 35  2  0
 35 36  1  0
 36 37  2  0
 37 38  1  0
 38 39  2  0
 39 40  1  0
 40 41  1  0
 41 42  1  0
 42 43  1  0
 43 44  1  0
 44 45  1  0
 45 46  1  0
 46 47  1  0
 47 48  1  0
 48 49  1  0
 39  3  1  0
 48 43  1  0
 37  5  1  0
 32  8  1  0
 26 15  2  0
 24 19  1  0
  1 50  1  0
  1 51  1  0
  1 52  1  0
  4 53  1  0
  9 54  1  0
 10 55  1  0
 20 56  1  0
 21 57  1  0
 22 58  1  0
 23 59  1  0
 31 60  1  0
 34 61  1  0
 35 62  1  0
 38 63  1  0
 41 64  1  0
 41 65  1  0
 42 66  1  0
 42 67  1  0
 44 68  1  0
 44 69  1  0
 45 70  1  0
 45 71  1  0
 46 72  1  0
 46 73  1  0
 47 74  1  0
 47 75  1  0
 48 76  1  1
 49 77  1  0
 49 78  1  0
 49 79  1  0
M  CHG  1  12  -1
M  END
>  <UniqueID>  (3) 
3

>  <SMILES>  (3) 
COc1cc2c(Oc3ccc([N-]C(=O)c4nnn(-c5ccccc5Cl)c4C(F)(F)F)cc3F)ccnc2cc1OCCN1CCCC[C@H]1C

>  <Energy>  (3) 
153.37150109564988

>  <Genealogy>  (3) 
COc1cc2c(Oc3ccc([N-]C(=O)c4nnn(-c5ccccc5Cl)c4C(F)(F)F)cc3F)ccnc2cc1OCCN1CCCCC1C (protonated)
COc1cc2c(Oc3ccc([N-]C(=O)c4nnn(-c5ccccc5Cl)c4C(F)(F)F)cc3F)ccnc2cc1OCCN1CCCC[C@H]1C (chirality)
COc1cc2c(Oc3ccc([N-]C(=O)c4nnn(-c5ccccc5Cl)c4C(F)(F)F)cc3F)ccnc2cc1OCCN1CCCC[C@H]1C (3D coordinates assigned)
COc1cc2c(Oc3ccc([N-]C(=O)c4nnn(-c5ccccc5Cl)c4C(F)(F)F)cc3F)ccnc2cc1OCCN1CCCC[C@H]1C (nonaromatic ring conformer: 153.37150109564988 kcal/mol)

>  <smiles>  (3) 
COc1cc2c(Oc3ccc(NC(=O)c4nnn(-c5ccccc5Cl)c4C(F)(F)F)cc3F)ccnc2cc1OCCN1CCCCC1C

>  <score_type>  (3) 
oracle

>  <origin>  (3) 
adg

>  <m_score__min__energy>  (3) 
-10.92

>  <m_primary>  (3) 
energy

$$$$
3:0
     RDKit          3D

 32 34  0  0  0  0  0  0  0  0999 V2000
   59.6270   35.2830   46.7440 C   0  0  0  0  0  0  0  0  0  0  0  0
   59.1160   34.6830   45.5710 O   0  0  0  0  0  0  0  0  0  0  0  0
   58.9640   33.2970   45.5780 C   0  0  0  0  0  0  0  0  0  0  0  0
   59.6480   32.4750   46.4520 C   0  0  0  0  0  0  0  0  0  0  0  0
   59.4930   31.1040   46.4530 C   0  0  0  0  0  0  0  0  0  0  0  0
   58.6250   30.5510   45.5470 C   0  0  0  0  0  0  0  0  0  0  0  0
   58.4260   29.0840   45.5110 C   0  0  0  0  0  0  0  0  0  0  0  0
   58.8520   28.1870   46.3940 C   0  0  0  0  0  0  0  0  0  0  0  0
   58.5740   26.8810   46.1950 C   0  0  0  0  0  0  0  0  0  0  0  0
   57.8590   26.5640   45.0730 C   0  0  0  0  0  0  0  0  0  0  0  0
   57.3840   25.3110   44.5370 C   0  0  0  0  0  0  0  0  0  0  0  0
   56.9270   24.3330   45.3840 C   0  0  0  0  0  0  0  0  0  0  0  0
   56.4820   23.1500   44.8290 C   0  0  0  0  0  0  0  0  0  0  0  0
   56.5160   23.0080   43.4520 C   0  0  0  0  0  0  0  0  0  0  0  0
   56.1020   21.9170   42.9790 O   0  0  0  0  0  0  0  0  0  0  0  0
   56.9690   23.9860   42.6520 N   0  0  0  0  0  0  0  0  0  0  0  0
   57.3900   25.1110   43.2090 N   0  0  0  0  0  0  0  0  0  0  0  0
   57.5700   28.1990   44.2710 S   0  0  0  0  0  0  0  0  0  0  0  0
   57.9140   31.3170   44.6480 C   0  0  0  0  0  0  0  0  0  0  0  0
   58.0890   32.6980   44.6690 C   0  0  0  0  0  0  0  0  0  0  0  0
   57.3950   33.4650   43.7910 F   0  0  0  0  0  0  0  0  0  0  0  0
   59.2014   34.7833   47.6267 H   0  0  0  0  0  0  0  0  0  0  0  0
   60.7224   35.1840   46.7592 H   0  0  0  0  0  0  0  0  0  0  0  0
   59.3549   36.3487   46.7592 H   0  0  0  0  0  0  0  0  0  0  0  0
   60.3420   32.9301   47.1740 H   0  0  0  0  0  0  0  0  0  0  0  0
   60.0501   30.4724   47.1607 H   0  0  0  0  0  0  0  0  0  0  0  0
   59.4249   28.5051   47.2775 H   0  0  0  0  0  0  0  0  0  0  0  0
   58.9072   26.1075   46.9026 H   0  0  0  0  0  0  0  0  0  0  0  0
   56.9156   24.4871   46.4731 H   0  0  0  0  0  0  0  0  0  0  0  0
   56.1079   22.3364   45.4678 H   0  0  0  0  0  0  0  0  0  0  0  0
   56.9910   23.8680   41.6020 H   0  0  0  0  0  0  0  0  0  0  0  0
   57.2244   30.8480   43.9307 H   0  0  0  0  0  0  0  0  0  0  0  0
  1  2  1  0
  2  3  1  0
  3  4  2  0
  4  5  1  0
  5  6  2  0
  6  7  1  0
  7  8  2  0
  8  9  1  0
  9 10  2  0
 10 11  1  0
 11 12  1  0
 12 13  2  0
 13 14  1  0
 14 15  2  0
 14 16  1  0
 16 17  1  0
 10 18  1  0
  6 19  1  0
 19 20  2  0
 20 21  1  0
 20  3  1  0
 18  7  1  0
 17 11  2  0
  1 22  1  0
  1 23  1  0
  1 24  1  0
  4 25  1  0
  5 26  1  0
  8 27  1  0
  9 28  1  0
 12 29  1  0
 13 30  1  0
 16 31  1  0
 19 32  1  0
M  END
>  <smiles>  (4) 
COc1ccc(-c2ccc(-c3ccc(=O)[nH]n3)s2)cc1F

>  <score_type>  (4) 
oracle

>  <origin>  (4) 
adg

>  <m_score__min__energy>  (4) 
-6.6600000000000001

>  <m_primary>  (4) 
energy

$$$$
4:0
     RDKit          3D

 59 62  0  0  0  0  0  0  0  0999 V2000
   55.1760   29.7580   43.7500 C   0  0  0  0  0  0  0  0  0  0  0  0
   55.9110   29.3280   44.8930 O   0  0  0  0  0  0  0  0  0  0  0  0
   57.2860   29.0460   44.9190 C   0  0  0  0  0  0  0  0  0  0  0  0
   57.7310   27.7300   44.6680 C   0  0  0  0  0  0  0  0  0  0  0  0
   59.0830   27.4100   44.6900 C   0  0  0  0  0  0  0  0  0  0  0  0
   60.0210   28.3930   44.9620 C   0  0  0  0  0  0  0  0  0  0  0  0
   59.6140   29.7010   45.2120 C   0  0  0  0  0  0  0  0  0  0  0  0
   58.2430   30.0760   45.2020 C   0  0  0  0  0  0  0  0  0  0  0  0
   57.8670   31.4750   45.4740 N   0  0  0  0  0  0  0  0  0  0  0  0
   58.1690   32.0270   46.8150 C   0  0  0  0  0  0  0  0  0  0  0  0
   57.7170   33.4700   47.0310 C   0  0  0  0  0  0  0  0  0  0  0  0
   57.9150   34.3080   45.8410 N   0  0  0  0  0  0  0  0  0  0  0  0
   59.3200   34.4330   45.3800 C   0  0  0  0  0  0  0  0  0  0  0  0
   60.2170   35.1870   46.3830 C   0  0  0  0  0  0  0  0  0  0  0  0
   61.0600   34.2650   47.1500 N   0  0  0  0  0  0  0  0  0  0  0  0
   62.3990   33.8210   46.7690 C   0  0  0  0  0  0  0  0  0  0  0  0
   62.8580   32.8600   47.8920 C   0  0  0  0  0  0  0  0  0  0  0  0
   61.8290   32.9320   48.9270 N   0  0  0  0  0  0  0  0  0  0  0  0
   61.6700   31.9480   49.9960 C   0  0  0  0  0  0  0  0  0  0  0  0
   60.7490   30.8430   49.5510 C   0  0  0  0  0  0  0  0  0  0  0  0
   59.4130   30.8160   49.9870 C   0  0  0  0  0  0  0  0  0  0  0  0
   58.5450   29.8180   49.5350 C   0  0  0  0  0  0  0  0  0  0  0  0
   58.9990   28.8460   48.6380 C   0  0  0  0  0  0  0  0  0  0  0  0
   58.1530   27.8860   48.1910 F   0  0  0  0  0  0  0  0  0  0  0  0
   60.3250   28.8710   48.1940 C   0  0  0  0  0  0  0  0  0  0  0  0
   61.1960   29.8670   48.6460 C   0  0  0  0  0  0  0  0  0  0  0  0
   60.8000   33.7740   48.4490 C   0  0  0  0  0  0  0  0  0  0  0  0
   59.7750   34.0700   49.1200 O   0  0  0  0  0  0  0  0  0  0  0  0
   57.0390   33.8040   44.7770 C   0  0  0  0  0  0  0  0  0  0  0  0
   57.3120   32.3330   44.3990 C   0  0  0  0  0  0  0  0  0  0  0  0
   54.2691   30.2886   44.0756 H   0  0  0  0  0  0  0  0  0  0  0  0
   55.7994   30.4339   43.1462 H   0  0  0  0  0  0  0  0  0  0  0  0
   54.8923   28.8834   43.1462 H   0  0  0  0  0  0  0  0  0  0  0  0
   56.9936   26.9431   44.4509 H   0  0  0  0  0  0  0  0  0  0  0  0
   59.4082   26.3780   44.4918 H   0  0  0  0  0  0  0  0  0  0  0  0
   61.0911   28.1391   44.9805 H   0  0  0  0  0  0  0  0  0  0  0  0
   60.3755   30.4662   45.4233 H   0  0  0  0  0  0  0  0  0  0  0  0
   57.6695   31.3962   47.5650 H   0  0  0  0  0  0  0  0  0  0  0  0
   59.2650   32.0287   46.9093 H   0  0  0  0  0  0  0  0  0  0  0  0
   56.6473   33.4695   47.2875 H   0  0  0  0  0  0  0  0  0  0  0  0
   58.3284   33.8929   47.8418 H   0  0  0  0  0  0  0  0  0  0  0  0
   59.7315   33.4238   45.2312 H   0  0  0  0  0  0  0  0  0  0  0  0
   59.3100   35.0134   44.4456 H   0  0  0  0  0  0  0  0  0  0  0  0
   60.8625   35.8853   45.8301 H   0  0  0  0  0  0  0  0  0  0  0  0
   59.5677   35.7274   47.0875 H   0  0  0  0  0  0  0  0  0  0  0  0
   62.3682   33.2952   45.8033 H   0  0  0  0  0  0  0  0  0  0  0  0
   63.0899   34.6691   46.6534 H   0  0  0  0  0  0  0  0  0  0  0  0
   62.9415   31.8332   47.5064 H   0  0  0  0  0  0  0  0  0  0  0  0
   63.8461   33.1413   48.2850 H   0  0  0  0  0  0  0  0  0  0  0  0
   62.6527   31.5229   50.2480 H   0  0  0  0  0  0  0  0  0  0  0  0
   61.2380   32.4425   50.8785 H   0  0  0  0  0  0  0  0  0  0  0  0
   59.0492   31.5831   50.6865 H   0  0  0  0  0  0  0  0  0  0  0  0
   57.5026   29.7971   49.8856 H   0  0  0  0  0  0  0  0  0  0  0  0
   60.6829   28.1065   47.4887 H   0  0  0  0  0  0  0  0  0  0  0  0
   62.2369   29.8860   48.2907 H   0  0  0  0  0  0  0  0  0  0  0  0
   55.9959   33.8884   45.1158 H   0  0  0  0  0  0  0  0  0  0  0  0
   57.2374   34.4102   43.8808 H   0  0  0  0  0  0  0  0  0  0  0  0
   56.3608   31.8881   44.0714 H   0  0  0  0  0  0  0  0  0  0  0  0
   58.0868   32.3674   43.6190 H   0  0  0  0  0  0  0  0  0  0  0  0
  1  2  1  0
  2  3  1  0
  3  4  2  0
  4  5  1  0
  5  6  2  0
  6  7  1  0
  7  8  2  0
  8  9  1  0
  9 10  1  0
 10 11  1  0
 11 12  1  0
 12 13  1  0
 13 14  1  0
 14 15  1  0
 15 16  1  0
 16 17  1  0
 17 18  1  0
 18 19  1  0
 19 20  1  0
 20 21  2  0
 21 22  1  0
 22 23  2  0
 23 24  1  0
 23 25  1  0
 25 26  2  0
 18 27  1  0
 27 28  2  0
 12 29  1  0
 29 30  1  0
  8  3  1  0
 30  9  1  0
 27 15  1  0
 26 20  1  0
  1 31  1  0
  1 32  1  0
  1 33  1  0
  4 34  1  0
  5 35  1  0
  6 36  1  0
  7 37  1  0
 10 38  1  0
 10 39  1  0
 11 40  1  0
 11 41  1  0
 13 42  1  0
 13 43  1  0
 14 44  1  0
 14 45  1  0
 16 46  1  0
 16 47  1  0
 17 48  1  0
 17 49  1  0
 19 50  1  0
 19 51  1  0
 21 52  1  0
 22 53  1  0
 25 54  1  0
 26 55  1  0
 29 56  1  0
 29 57  1  0
 30 58  1  0
 30 59  1  0
M  END
>  <UniqueID>  (5) 
4

>  <SMILES>  (5) 
COc1ccccc1N1CCN(CCN2CCN(Cc3ccc(F)cc3)C2=O)CC1

>  <Energy>  (5) 
84.98389896002718

>  <Genealogy>  (5) 
COc1ccccc1N1CCN(CCN2CCN(Cc3ccc(F)cc3)C2=O)CC1 (3D coordinates assigned)
COc1ccccc1N1CCN(CCN2CCN(Cc3ccc(F)cc3)C2=O)CC1 (nonaromatic ring conformer: 84.98389896002718 kcal/mol)

>  <smiles>  (5) 
COc1ccccc1N1CCN(CCN2CCN(Cc3ccc(F)cc3)C2=O)CC1

>  <score_type>  (5) 
oracle

>  <origin>  (5) 
adg

>  <m_score__min__energy>  (5) 
-7.8399999999999999

>  <m_primary>  (5) 
energy

$$$$
5:0
     RDKit          3D

 27 28  0  0  0  0  0  0  0  0999 V2000
   54.6800   29.7100   54.6110 O   0  0  0  0  0  0  0  0  0  0  0  0
   54.7650   30.1430   53.4310 C   0  0  0  0  0  0  0  0  0  0  0  0
   53.6840   29.8760   52.5230 N   0  0  0  0  0  0  0  0  0  0  0  0
   52.7110   30.6830   52.2020 C   0  0  0  0  0  0  0  0  0  0  0  0
   51.9040   31.1980   53.2230 C   0  0  0  0  0  0  0  0  0  0  0  0
   50.8560   32.0680   52.9100 C   0  0  0  0  0  0  0  0  0  0  0  0
   50.6270   32.4220   51.6190 N   0  0  0  0  0  0  0  0  0  0  0  0
   51.3990   31.9520   50.6040 C   0  0  0  0  0  0  0  0  0  0  0  0
   52.4570   31.0800   50.8720 C   0  0  0  0  0  0  0  0  0  0  0  0
   56.0020   30.8380   52.9920 C   0  0  0  0  0  0  0  0  0  0  0  0
   56.2310   31.1020   51.6310 C   0  0  0  0  0  0  0  0  0  0  0  0
   57.4030   31.7430   51.2240 C   0  0  0  0  0  0  0  0  0  0  0  0
   58.3570   32.1290   52.1660 C   0  0  0  0  0  0  0  0  0  0  0  0
   58.1410   31.8910   53.5340 C   0  0  0  0  0  0  0  0  0  0  0  0
   59.1940   32.2610   54.5500 C   0  0  0  0  0  0  0  0  0  0  0  0
   58.6730   32.2240   55.8320 F   0  0  0  0  0  0  0  0  0  0  0  0
   60.2580   31.3780   54.4910 F   0  0  0  0  0  0  0  0  0  0  0  0
   59.6520   33.5380   54.2860 F   0  0  0  0  0  0  0  0  0  0  0  0
   56.9710   31.2210   53.9350 C   0  0  0  0  0  0  0  0  0  0  0  0
   52.0942   30.9185   54.2698 H   0  0  0  0  0  0  0  0  0  0  0  0
   50.2156   32.4667   53.7106 H   0  0  0  0  0  0  0  0  0  0  0  0
   51.1902   32.2591   49.5686 H   0  0  0  0  0  0  0  0  0  0  0  0
   53.0875   30.7056   50.0521 H   0  0  0  0  0  0  0  0  0  0  0  0
   55.4831   30.8022   50.8822 H   0  0  0  0  0  0  0  0  0  0  0  0
   57.5747   31.9444   50.1563 H   0  0  0  0  0  0  0  0  0  0  0  0
   59.2832   32.6223   51.8361 H   0  0  0  0  0  0  0  0  0  0  0  0
   56.8126   30.9941   54.9996 H   0  0  0  0  0  0  0  0  0  0  0  0
  1  2  2  0
  2  3  1  0
  3  4  2  3
  4  5  1  0
  5  6  2  0
  6  7  1  0
  7  8  1  0
  8  9  2  0
  2 10  1  0
 10 11  2  0
 11 12  1  0
 12 13  2  0
 13 14  1  0
 14 15  1  0
 15 16  1  0
 15 17  1  0
 15 18  1  0
 14 19  2  0
  9  4  1  0
 19 10  1  0
  5 20  1  0
  6 21  1  0
  8 22  1  0
  9 23  1  0
 11 24  1  0
 12 25  1  0
 13 26  1  0
 19 27  1  0
M  CHG  1   7  -1
M  END
>  <UniqueID>  (6) 
5

>  <SMILES>  (6) 
O=C(N=c1cc[n-]cc1)c1cccc(C(F)(F)F)c1

>  <Energy>  (6) 
39.84498413753093

>  <Genealogy>  (6) 
O=C(N=c1cc[n-]cc1)c1cccc(C(F)(F)F)c1 (protonated)
O=C(N=c1cc[n-]cc1)c1cccc(C(F)(F)F)c1 (3D coordinates assigned)
O=C(N=c1cc[n-]cc1)c1cccc(C(F)(F)F)c1 (optimized conformer: 39.84498413753093 kcal/mol)

>  <smiles>  (6) 
O=C(N=c1cc[nH]cc1)c1cccc(C(F)(F)F)c1

>  <score_type>  (6) 
oracle

>  <origin>  (6) 
adg

>  <m_score__min__energy>  (6) 
-8.0700000000000003

>  <m_primary>  (6) 
energy

$$$$
6:0
     RDKit          3D

 36 37  0  0  0  0  0  0  0  0999 V2000
   58.4970   27.0720   46.8650 C   0  0  0  0  0  0  0  0  0  0  0  0
   58.8820   27.0520   45.3870 C   0  0  0  0  0  0  0  0  0  0  0  0
   57.7640   27.5890   44.4710 C   0  0  0  0  0  0  0  0  0  0  0  0
   58.1540   28.8370   43.7460 N   0  0  0  0  0  0  0  0  0  0  0  0
   56.9820   29.5880   43.2430 C   0  0  0  0  0  0  0  0  0  0  0  0
   56.2090   30.2790   44.3780 C   0  0  0  0  0  0  0  0  0  0  0  0
   57.0710   31.1850   45.1590 N   0  0  0  0  0  0  0  0  0  0  0  0
   57.3950   32.4310   44.4310 C   0  0  0  0  0  0  0  0  0  0  0  0
   58.1560   33.3660   45.3180 C   0  0  0  0  0  0  0  0  0  0  0  0
   59.0300   34.3490   44.8980 C   0  0  0  0  0  0  0  0  0  0  0  0
   59.5010   34.9410   46.0500 C   0  0  0  0  0  0  0  0  0  0  0  0
   58.8860   34.2850   47.0970 C   0  0  0  0  0  0  0  0  0  0  0  0
   58.0910   33.3500   46.6290 O   0  0  0  0  0  0  0  0  0  0  0  0
   58.2650   30.4760   45.6640 C   0  0  0  0  0  0  0  0  0  0  0  0
   59.0300   29.7150   44.5570 C   0  0  0  0  0  0  0  0  0  0  0  0
   59.4067   27.0247   47.4815 H   0  0  0  0  0  0  0  0  0  0  0  0
   57.9501   27.9998   47.0889 H   0  0  0  0  0  0  0  0  0  0  0  0
   57.8569   26.2059   47.0889 H   0  0  0  0  0  0  0  0  0  0  0  0
   59.7786   27.6741   45.2489 H   0  0  0  0  0  0  0  0  0  0  0  0
   59.0652   26.0042   45.1066 H   0  0  0  0  0  0  0  0  0  0  0  0
   57.5162   26.8153   43.7294 H   0  0  0  0  0  0  0  0  0  0  0  0
   56.9032   27.8344   45.1104 H   0  0  0  0  0  0  0  0  0  0  0  0
   58.7040   28.5750   42.8930 H   0  0  0  0  0  0  0  0  0  0  0  0
   57.3288   30.3530   42.5327 H   0  0  0  0  0  0  0  0  0  0  0  0
   56.3031   28.8717   42.7571 H   0  0  0  0  0  0  0  0  0  0  0  0
   55.3834   30.8612   43.9428 H   0  0  0  0  0  0  0  0  0  0  0  0
   55.8309   29.4998   45.0562 H   0  0  0  0  0  0  0  0  0  0  0  0
   58.0066   32.1881   43.5496 H   0  0  0  0  0  0  0  0  0  0  0  0
   56.4592   32.9165   44.1171 H   0  0  0  0  0  0  0  0  0  0  0  0
   59.2947   34.6057   43.8616 H   0  0  0  0  0  0  0  0  0  0  0  0
   60.2216   35.7691   46.1207 H   0  0  0  0  0  0  0  0  0  0  0  0
   59.0386   34.5111   48.1626 H   0  0  0  0  0  0  0  0  0  0  0  0
   58.9448   31.2130   46.1164 H   0  0  0  0  0  0  0  0  0  0  0  0
   57.9198   29.7313   46.3963 H   0  0  0  0  0  0  0  0  0  0  0  0
   59.5038   30.4500   43.8898 H   0  0  0  0  0  0  0  0  0  0  0  0
   59.7720   29.0718   45.0527 H   0  0  0  0  0  0  0  0  0  0  0  0
  1  2  1  0
  2  3  1  0
  3  4  1  0
  4  5  1  0
  5  6  1  0
  6  7  1  0
  7  8  1  0
  8  9  1  0
  9 10  2  0
 10 11  1  0
 11 12  2  0
 12 13  1  0
  7 14  1  0
 14 15  1  0
 15  4  1  0
 13  9  1  0
  1 16  1  0
  1 17  1  0
  1 18  1  0
  2 19  1  0
  2 20  1  0
  3 21  1  0
  3 22  1  0
  4 23  1  0
  5 24  1  0
  5 25  1  0
  6 26  1  0
  6 27  1  0
  8 28  1  0
  8 29  1  0
 10 30  1  0
 11 31  1  0
 12 32  1  0
 14 33  1  0
 14 34  1  0
 15 35  1  0
 15 36  1  0
M  CHG  1   4   1
M  END
>  <UniqueID>  (7) 
6

>  <SMILES>  (7) 
CCC[NH+]1CCN(Cc2ccco2)CC1

>  <Energy>  (7) 
66.92099435313654

>  <Genealogy>  (7) 
CCC[NH+]1CCN(Cc2ccco2)CC1 (protonated)
CCC[NH+]1CCN(Cc2ccco2)CC1 (3D coordinates assigned)
CCC[NH+]1CCN(Cc2ccco2)CC1 (nonaromatic ring conformer: 66.92099435313654 kcal/mol)

>  <smiles>  (7) 
CCCN1CCN(Cc2ccco2)CC1

>  <score_type>  (7) 
oracle

>  <origin>  (7) 
adg

>  <m_score__min__energy>  (7) 
-4.1399999999999997

>  <m_primary>  (7) 
energy

$$$$
7:0
     RDKit          3D

 54 57  0  0  0  0  0  0  0  0999 V2000
   61.1970   26.8390   50.9430 C   0  0  0  0  0  0  0  0  0  0  0  0
   61.0860   26.3870   49.5960 O   0  0  0  0  0  0  0  0  0  0  0  0
   60.3740   27.0580   48.5920 C   0  0  0  0  0  0  0  0  0  0  0  0
   59.7010   28.2380   48.9280 C   0  0  0  0  0  0  0  0  0  0  0  0
   58.9770   28.9440   47.9640 C   0  0  0  0  0  0  0  0  0  0  0  0
   58.9130   28.4790   46.6380 C   0  0  0  0  0  0  0  0  0  0  0  0
   58.1460   29.2290   45.6100 C   0  0  0  0  0  0  0  0  0  0  0  0
   57.0720   28.6210   44.9360 C   0  0  0  0  0  0  0  0  0  0  0  0
   56.3590   29.3250   43.9630 C   0  0  0  0  0  0  0  0  0  0  0  0
   56.7080   30.6400   43.6500 C   0  0  0  0  0  0  0  0  0  0  0  0
   57.7770   31.2640   44.3100 C   0  0  0  0  0  0  0  0  0  0  0  0
   58.1700   32.6790   43.9520 C   0  0  0  0  0  0  0  0  0  0  0  0
   57.5340   33.6890   44.8400 N   0  0  0  0  0  0  0  0  0  0  0  0
   57.2980   33.1330   46.2040 C   0  0  0  0  0  0  0  0  0  0  0  0
   58.3980   33.4890   47.2270 C   0  0  0  0  0  0  0  0  0  0  0  0
   59.6650   33.7760   46.5490 N   0  0  0  0  0  0  0  0  0  0  0  0
   60.8780   33.0800   46.8980 C   0  0  0  0  0  0  0  0  0  0  0  0
   62.1220   33.7330   46.8260 C   0  0  0  0  0  0  0  0  0  0  0  0
   63.2950   33.0630   47.1840 C   0  0  0  0  0  0  0  0  0  0  0  0
   63.2380   31.7370   47.6210 C   0  0  0  0  0  0  0  0  0  0  0  0
   62.0070   31.0820   47.7050 C   0  0  0  0  0  0  0  0  0  0  0  0
   60.8310   31.7490   47.3490 C   0  0  0  0  0  0  0  0  0  0  0  0
   59.6770   34.8080   45.5080 C   0  0  0  0  0  0  0  0  0  0  0  0
   58.2770   34.9750   44.8930 C   0  0  0  0  0  0  0  0  0  0  0  0
   58.4870   30.5560   45.2930 C   0  0  0  0  0  0  0  0  0  0  0  0
   59.5900   27.2930   46.3010 C   0  0  0  0  0  0  0  0  0  0  0  0
   60.3130   26.5880   47.2670 C   0  0  0  0  0  0  0  0  0  0  0  0
   60.9918   26.0034   51.6283 H   0  0  0  0  0  0  0  0  0  0  0  0
   62.2147   27.2171   51.1202 H   0  0  0  0  0  0  0  0  0  0  0  0
   60.4702   27.6455   51.1202 H   0  0  0  0  0  0  0  0  0  0  0  0
   59.7424   28.6133   49.9612 H   0  0  0  0  0  0  0  0  0  0  0  0
   58.4534   29.8700   48.2439 H   0  0  0  0  0  0  0  0  0  0  0  0
   56.7918   27.5848   45.1765 H   0  0  0  0  0  0  0  0  0  0  0  0
   55.5196   28.8417   43.4416 H   0  0  0  0  0  0  0  0  0  0  0  0
   56.1424   31.1890   42.8827 H   0  0  0  0  0  0  0  0  0  0  0  0
   59.2627   32.7736   44.0361 H   0  0  0  0  0  0  0  0  0  0  0  0
   57.8251   32.8721   42.9255 H   0  0  0  0  0  0  0  0  0  0  0  0
   56.5910   33.9030   44.4360 H   0  0  0  0  0  0  0  0  0  0  0  0
   56.3399   33.5249   46.5761 H   0  0  0  0  0  0  0  0  0  0  0  0
   57.2983   32.0374   46.1052 H   0  0  0  0  0  0  0  0  0  0  0  0
   58.0858   34.3755   47.7986 H   0  0  0  0  0  0  0  0  0  0  0  0
   58.5444   32.6316   47.9004 H   0  0  0  0  0  0  0  0  0  0  0  0
   62.1717   34.7778   46.4857 H   0  0  0  0  0  0  0  0  0  0  0  0
   64.2640   33.5799   47.1217 H   0  0  0  0  0  0  0  0  0  0  0  0
   64.1622   31.2091   47.8988 H   0  0  0  0  0  0  0  0  0  0  0  0
   61.9628   30.0391   48.0520 H   0  0  0  0  0  0  0  0  0  0  0  0
   59.8640   31.2299   47.4221 H   0  0  0  0  0  0  0  0  0  0  0  0
   59.9935   35.7640   45.9507 H   0  0  0  0  0  0  0  0  0  0  0  0
   60.3775   34.5040   44.7162 H   0  0  0  0  0  0  0  0  0  0  0  0
   57.7049   35.6906   45.5018 H   0  0  0  0  0  0  0  0  0  0  0  0
   58.4004   35.3383   43.8621 H   0  0  0  0  0  0  0  0  0  0  0  0
   59.3191   31.0447   45.8209 H   0  0  0  0  0  0  0  0  0  0  0  0
   59.5500   26.9171   45.2680 H   0  0  0  0  0  0  0  0  0  0  0  0
   60.8369   25.6612   46.9903 H   0  0  0  0  0  0  0  0  0  0  0  0
  1  2  1  0
  2  3  1  0
  3  4  2  0
  4  5  1  0
  5  6  2  0
  6  7  1  0
  7  8  2  0
  8  9  1  0
  9 10  2  0
 10 11  1  0
 11 12  1  0
 12 13  1  0
 13 14  1  0
 14 15  1  0
 15 16  1  0
 16 17  1  0
 17 18  2  0
 18 19  1  0
 19 20  2  0
 20 21  1  0
 21 22  2  0
 16 23  1  0
 23 24  1  0
 11 25  2  0
  6 26  1  0
 26 27  2  0
 27  3  1  0
 25  7  1  0
 24 13  1  0
 22 17  1  0
  1 28  1  0
  1 29  1  0
  1 30  1  0
  4 31  1  0
  5 32  1  0
  8 33  1  0
  9 34  1  0
 10 35  1  0
 12 36  1  0
 12 37  1  0
 13 38  1  0
 14 39  1  0
 14 40  1  0
 15 41  1  0
 15 42  1  0
 18 43  1  0
 19 44  1  0
 20 45  1  0
 21 46  1  0
 22 47  1  0
 23 48  1  0
 23 49  1  0
 24 50  1  0
 24 51  1  0
 25 52  1  0
 26 53  1  0
 27 54  1  0
M  CHG  1  13   1
M  END
>  <UniqueID>  (8) 
7

>  <SMILES>  (8) 
COc1ccc(-c2cccc(C[NH+]3CCN(c4ccccc4)CC3)c2)cc1

>  <Energy>  (8) 
74.60891880028892

>  <Genealogy>  (8) 
COc1ccc(-c2cccc(C[NH+]3CCN(c4ccccc4)CC3)c2)cc1 (protonated)
COc1ccc(-c2cccc(C[NH+]3CCN(c4ccccc4)CC3)c2)cc1 (3D coordinates assigned)
COc1ccc(-c2cccc(C[NH+]3CCN(c4ccccc4)CC3)c2)cc1 (nonaromatic ring conformer: 74.60891880028892 kcal/mol)

>  <smiles>  (8) 
COc1ccc(-c2cccc(CN3CCN(c4ccccc4)CC3)c2)cc1

>  <score_type>  (8) 
oracle

>  <origin>  (8) 
adg

>  <m_score__min__energy>  (8) 
-6.6500000000000004

>  <m_primary>  (8) 
energy

$$$$
8:0
     RDKit          3D

 50 52  0  0  0  0  0  0  0  0999 V2000
   58.0720   31.9960   42.6840 C   0  0  0  0  0  0  0  0  0  0  0  0
   58.0700   32.7660   43.9760 C   0  0  0  0  0  0  0  0  0  0  0  0
   58.9370   33.8580   44.1450 C   0  0  0  0  0  0  0  0  0  0  0  0
   58.9520   34.5680   45.3470 C   0  0  0  0  0  0  0  0  0  0  0  0
   58.1080   34.1920   46.3910 C   0  0  0  0  0  0  0  0  0  0  0  0
   57.2450   33.1040   46.2390 C   0  0  0  0  0  0  0  0  0  0  0  0
   57.2200   32.3760   45.0320 C   0  0  0  0  0  0  0  0  0  0  0  0
   56.3750   31.2680   44.8450 O   0  0  0  0  0  0  0  0  0  0  0  0
   56.7950   29.9030   44.8170 C   0  0  0  0  0  0  0  0  0  0  0  0
   58.1930   29.7640   45.3460 C   0  0  0  0  0  0  0  0  0  0  0  0
   59.2100   29.2230   44.5490 C   0  0  0  0  0  0  0  0  0  0  0  0
   60.5060   29.1320   45.0590 C   0  0  0  0  0  0  0  0  0  0  0  0
   60.7790   29.5880   46.3500 C   0  0  0  0  0  0  0  0  0  0  0  0
   59.7420   30.1370   47.1190 C   0  0  0  0  0  0  0  0  0  0  0  0
   60.0010   30.6640   48.5080 C   0  0  0  0  0  0  0  0  0  0  0  0
   58.9810   31.6570   48.9190 N   0  0  1  0  0  0  0  0  0  0  0  0
   58.4970   31.3300   50.2750 C   0  0  0  0  0  0  0  0  0  0  0  0
   59.5350   33.0340   48.8800 C   0  0  0  0  0  0  0  0  0  0  0  0
   60.9910   33.0460   48.4730 C   0  0  0  0  0  0  0  0  0  0  0  0
   61.9920   32.8470   49.4380 C   0  0  0  0  0  0  0  0  0  0  0  0
   63.3400   32.8420   49.0640 C   0  0  0  0  0  0  0  0  0  0  0  0
   63.6960   33.0330   47.7260 C   0  0  0  0  0  0  0  0  0  0  0  0
   62.7060   33.2280   46.7600 C   0  0  0  0  0  0  0  0  0  0  0  0
   61.3560   33.2330   47.1300 C   0  0  0  0  0  0  0  0  0  0  0  0
   58.4880   30.2150   46.5970 N   0  0  0  0  0  0  0  0  0  0  0  0
   58.0748   30.9174   42.9000 H   0  0  0  0  0  0  0  0  0  0  0  0
   57.1732   32.2514   42.1036 H   0  0  0  0  0  0  0  0  0  0  0  0
   58.9695   32.2561   42.1036 H   0  0  0  0  0  0  0  0  0  0  0  0
   59.6080   34.1555   43.3257 H   0  0  0  0  0  0  0  0  0  0  0  0
   59.6305   35.4250   45.4705 H   0  0  0  0  0  0  0  0  0  0  0  0
   58.1216   34.7535   47.3368 H   0  0  0  0  0  0  0  0  0  0  0  0
   56.5808   32.8135   47.0663 H   0  0  0  0  0  0  0  0  0  0  0  0
   56.1133   29.3032   45.4379 H   0  0  0  0  0  0  0  0  0  0  0  0
   56.7756   29.5496   43.7755 H   0  0  0  0  0  0  0  0  0  0  0  0
   58.9891   28.8729   43.5299 H   0  0  0  0  0  0  0  0  0  0  0  0
   61.3109   28.7018   44.4449 H   0  0  0  0  0  0  0  0  0  0  0  0
   61.7972   29.5175   46.7602 H   0  0  0  0  0  0  0  0  0  0  0  0
   59.9849   29.8229   49.2167 H   0  0  0  0  0  0  0  0  0  0  0  0
   60.9819   31.1618   48.5074 H   0  0  0  0  0  0  0  0  0  0  0  0
   58.1630   31.5870   48.2660 H   0  0  0  0  0  0  0  0  0  0  0  0
   59.1660   31.7820   51.0220 H   0  0  0  0  0  0  0  0  0  0  0  0
   57.4794   31.7264   50.4066 H   0  0  0  0  0  0  0  0  0  0  0  0
   58.4850   30.2380   50.4066 H   0  0  0  0  0  0  0  0  0  0  0  0
   58.9587   33.6286   48.1559 H   0  0  0  0  0  0  0  0  0  0  0  0
   59.4609   33.4594   49.8917 H   0  0  0  0  0  0  0  0  0  0  0  0
   61.7150   32.6945   50.4916 H   0  0  0  0  0  0  0  0  0  0  0  0
   64.1205   32.6876   49.8236 H   0  0  0  0  0  0  0  0  0  0  0  0
   64.7564   33.0298   47.4335 H   0  0  0  0  0  0  0  0  0  0  0  0
   62.9876   33.3778   45.7073 H   0  0  0  0  0  0  0  0  0  0  0  0
   60.5787   33.3839   46.3664 H   0  0  0  0  0  0  0  0  0  0  0  0
  1  2  1  0
  2  3  2  0
  3  4  1  0
  4  5  2  0
  5  6  1  0
  6  7  2  0
  7  8  1  0
  8  9  1  0
  9 10  1  0
 10 11  2  0
 11 12  1  0
 12 13  2  0
 13 14  1  0
 14 15  1  0
 15 16  1  0
 16 17  1  0
 16 18  1  0
 18 19  1  0
 19 20  2  0
 20 21  1  0
 21 22  2  0
 22 23  1  0
 23 24  2  0
 14 25  2  0
  7  2  1  0
 25 10  1  0
 24 19  1  0
  1 26  1  0
  1 27  1  0
  1 28  1  0
  3 29  1  0
  4 30  1  0
  5 31  1  0
  6 32  1  0
  9 33  1  0
  9 34  1  0
 11 35  1  0
 12 36  1  0
 13 37  1  0
 15 38  1  0
 15 39  1  0
 16 40  1  6
 17 41  1  0
 17 42  1  0
 17 43  1  0
 18 44  1  0
 18 45  1  0
 20 46  1  0
 21 47  1  0
 22 48  1  0
 23 49  1  0
 24 50  1  0
M  CHG  1  16   1
M  END
>  <UniqueID>  (9) 
8

>  <SMILES>  (9) 
Cc1ccccc1OCc1cccc(C[N@@H+](C)Cc2ccccc2)n1

>  <Energy>  (9) 
52.966728895741205

>  <Genealogy>  (9) 
Cc1ccccc1OCc1cccc(C[NH+](C)Cc2ccccc2)n1 (protonated)
Cc1ccccc1OCc1cccc(C[N@@H+](C)Cc2ccccc2)n1 (chirality)
Cc1ccccc1OCc1cccc(C[N@@H+](C)Cc2ccccc2)n1 (3D coordinates assigned)
Cc1ccccc1OCc1cccc(C[N@@H+](C)Cc2ccccc2)n1 (optimized conformer: 52.966728895741205 kcal/mol)

>  <smiles>  (9) 
Cc1ccccc1OCc1cccc(CN(C)Cc2ccccc2)n1

>  <score_type>  (9) 
oracle

>  <origin>  (9) 
adg

>  <m_score__min__energy>  (9) 
-7.3099999999999996

>  <m_primary>  (9) 
energy

$$$$
9:0
     RDKit          3D

 29 31  0  0  0  0  0  0  0  0999 V2000
   56.6410   30.4150   43.3950 C   0  0  0  0  0  0  0  0  0  0  0  0
   56.4250   31.2180   44.5500 O   0  0  0  0  0  0  0  0  0  0  0  0
   57.4030   32.0310   45.1420 C   0  0  0  0  0  0  0  0  0  0  0  0
   57.4440   33.4420   44.9400 C   0  0  0  0  0  0  0  0  0  0  0  0
   58.4420   34.2250   45.5500 C   0  0  0  0  0  0  0  0  0  0  0  0
   59.3750   33.5720   46.3490 C   0  0  0  0  0  0  0  0  0  0  0  0
   60.3830   34.0750   47.0140 O   0  0  0  0  0  0  0  0  0  0  0  0
   60.9740   33.0540   47.6190 C   0  0  0  0  0  0  0  0  0  0  0  0
   62.1700   33.2080   48.4800 C   0  0  0  0  0  0  0  0  0  0  0  0
   62.1780   34.0820   49.5840 C   0  0  0  0  0  0  0  0  0  0  0  0
   63.3220   34.2080   50.3780 C   0  0  0  0  0  0  0  0  0  0  0  0
   64.4670   33.4640   50.0850 C   0  0  0  0  0  0  0  0  0  0  0  0
   65.9000   33.6240   51.0850 Cl  0  0  0  0  0  0  0  0  0  0  0  0
   64.4700   32.5920   48.9930 C   0  0  0  0  0  0  0  0  0  0  0  0
   63.3300   32.4630   48.1950 C   0  0  0  0  0  0  0  0  0  0  0  0
   60.3530   31.8730   47.3520 N   0  0  0  0  0  0  0  0  0  0  0  0
   59.3420   32.2270   46.5450 C   0  0  0  0  0  0  0  0  0  0  0  0
   58.3720   31.4160   45.9610 C   0  0  0  0  0  0  0  0  0  0  0  0
   56.9153   29.3954   43.7034 H   0  0  0  0  0  0  0  0  0  0  0  0
   55.7200   30.3812   42.7945 H   0  0  0  0  0  0  0  0  0  0  0  0
   57.4547   30.8478   42.7945 H   0  0  0  0  0  0  0  0  0  0  0  0
   56.6885   33.9231   44.3014 H   0  0  0  0  0  0  0  0  0  0  0  0
   58.4827   35.3140   45.4003 H   0  0  0  0  0  0  0  0  0  0  0  0
   61.2790   34.6691   49.8232 H   0  0  0  0  0  0  0  0  0  0  0  0
   63.3201   34.8956   51.2366 H   0  0  0  0  0  0  0  0  0  0  0  0
   65.3715   32.0059   48.7611 H   0  0  0  0  0  0  0  0  0  0  0  0
   63.3392   31.7740   47.3376 H   0  0  0  0  0  0  0  0  0  0  0  0
   60.5860   30.9120   47.6830 H   0  0  0  0  0  0  0  0  0  0  0  0
   58.3622   30.3296   46.1333 H   0  0  0  0  0  0  0  0  0  0  0  0
  1  2  1  0
  2  3  1  0
  3  4  2  0
  4  5  1  0
  5  6  2  0
  6  7  1  0
  7  8  1  0
  8  9  1  0
  9 10  2  0
 10 11  1  0
 11 12  2  0
 12 13  1  0
 12 14  1  0
 14 15  2  0
  8 16  2  0
 16 17  1  0
 17 18  2  0
 18  3  1  0
 17  6  1  0
 15  9  1  0
  1 19  1  0
  1 20  1  0
  1 21  1  0
  4 22  1  0
  5 23  1  0
 10 24  1  0
 11 25  1  0
 14 26  1  0
 15 27  1  0
 16 28  1  0
 18 29  1  0
M  CHG  1  16   1
M  END
>  <UniqueID>  (10) 
9

>  <SMILES>  (10) 
COc1ccc2oc(-c3ccc(Cl)cc3)[nH+]c2c1

>  <Energy>  (10) 
71.02672445818543

>  <Genealogy>  (10) 
COc1ccc2oc(-c3ccc(Cl)cc3)[nH+]c2c1 (protonated)
COc1ccc2oc(-c3ccc(Cl)cc3)[nH+]c2c1 (3D coordinates assigned)
COc1ccc2oc(-c3ccc(Cl)cc3)[nH+]c2c1 (optimized conformer: 71.02672445818543 kcal/mol)

>  <smiles>  (10) 
COc1ccc2oc(-c3ccc(Cl)cc3)nc2c1

>  <score_type>  (10) 
oracle

>  <origin>  (10) 
adg

>  <m_score__min__energy>  (10) 
-4.8399999999999999

>  <m_primary>  (10) 
energy

$$$$
10:0
     RDKit          3D

 27 29  0  0  0  0  0  0  0  0999 V2000
   60.8050   26.8890   49.5690 C   0  0  0  0  0  0  0  0  0  0  0  0
   60.4120   26.3410   48.3140 O   0  0  0  0  0  0  0  0  0  0  0  0
   59.4860   26.9360   47.4430 C   0  0  0  0  0  0  0  0  0  0  0  0
   59.7830   28.1290   46.7400 C   0  0  0  0  0  0  0  0  0  0  0  0
   58.8230   28.6630   45.8840 C   0  0  0  0  0  0  0  0  0  0  0  0
   57.5980   28.0400   45.7240 C   0  0  0  0  0  0  0  0  0  0  0  0
   57.2630   26.8810   46.4140 C   0  0  0  0  0  0  0  0  0  0  0  0
   58.2240   26.3130   47.2820 C   0  0  0  0  0  0  0  0  0  0  0  0
   57.9670   25.1370   48.0040 O   0  0  0  0  0  0  0  0  0  0  0  0
   56.9770   24.1770   47.6510 C   0  0  0  0  0  0  0  0  0  0  0  0
   56.8170   28.8460   44.8180 C   0  0  0  0  0  0  0  0  0  0  0  0
   55.5080   29.1390   44.8740 N   0  0  0  0  0  0  0  0  0  0  0  0
   55.3790   30.4070   44.4950 N   0  0  0  0  0  0  0  0  0  0  0  0
   56.6080   30.9270   44.2710 C   0  0  0  0  0  0  0  0  0  0  0  0
   57.5410   29.9330   44.4630 C   0  0  0  0  0  0  0  0  0  0  0  0
   58.8970   29.9510   45.1010 C   0  0  0  0  0  0  0  0  0  0  0  0
   60.3737   26.2876   50.3829 H   0  0  0  0  0  0  0  0  0  0  0  0
   61.9022   26.8778   49.6466 H   0  0  0  0  0  0  0  0  0  0  0  0
   60.4425   27.9247   49.6466 H   0  0  0  0  0  0  0  0  0  0  0  0
   60.7561   28.6257   46.8680 H   0  0  0  0  0  0  0  0  0  0  0  0
   56.2738   26.4166   46.2879 H   0  0  0  0  0  0  0  0  0  0  0  0
   56.5374   23.7507   48.5648 H   0  0  0  0  0  0  0  0  0  0  0  0
   56.1891   24.6640   47.0577 H   0  0  0  0  0  0  0  0  0  0  0  0
   57.4395   23.3745   47.0577 H   0  0  0  0  0  0  0  0  0  0  0  0
   56.8247   31.9667   43.9844 H   0  0  0  0  0  0  0  0  0  0  0  0
   59.7027   29.9301   44.3524 H   0  0  0  0  0  0  0  0  0  0  0  0
   59.1215   30.8480   45.6967 H   0  0  0  0  0  0  0  0  0  0  0  0
  1  2  1  0
  2  3  1  0
  3  4  2  0
  4  5  1  0
  5  6  2  0
  6  7  1  0
  7  8  2  0
  8  9  1  0
  9 10  1  0
  6 11  1  0
 11 12  1  0
 12 13  1  0
 13 14  2  0
 14 15  1  0
 15 16  1  0
  8  3  1  0
 15 11  2  0
 16  5  1  0
  1 17  1  0
  1 18  1  0
  1 19  1  0
  4 20  1  0
  7 21  1  0
 10 22  1  0
 10 23  1  0
 10 24  1  0
 14 25  1  0
 16 26  1  0
 16 27  1  0
M  CHG  1  12  -1
M  END
>  <UniqueID>  (11) 
10

>  <SMILES>  (11) 
COc1cc2c(cc1OC)-c1[n-]ncc1C2

>  <Energy>  (11) 
98.63605747701243

>  <Genealogy>  (11) 
COc1cc2c(cc1OC)-c1[n-]ncc1C2 (protonated)
COc1cc2c(cc1OC)-c1[n-]ncc1C2 (3D coordinates assigned)
COc1cc2c(cc1OC)-c1[n-]ncc1C2 (nonaromatic ring conformer: 98.63605747701243 kcal/mol)

>  <smiles>  (11) 
COc1cc2c(cc1OC)-c1[nH]ncc1C2

>  <score_type>  (11) 
oracle

>  <origin>  (11) 
adg

>  <m_score__min__energy>  (11) 
-7.3099999999999996

>  <m_primary>  (11) 
energy

$$$$
11:0
     RDKit          2D

 36 38  0  0  0  0  0  0  0  0999 V2000
    6.7500   -3.8971    0.0000 C   0  0  0  0  0  0  0  0  0  0  0  0
    5.2500   -3.8971    0.0000 N   0  0  0  0  0  0  0  0  0  0  0  0
    4.5000   -5.1962    0.0000 C   0  0  0  0  0  0  0  0  0  0  0  0
    4.5000   -2.5981    0.0000 C   0  0  0  0  0  0  0  0  0  0  0  0
    3.7500   -1.2990    0.0000 C   0  0  0  0  0  0  0  0  0  0  0  0
    3.0000    0.0000    0.0000 N   0  0  0  0  0  0  0  0  0  0  0  0
    1.5000    0.0000    0.0000 C   0  0  0  0  0  0  0  0  0  0  0  0
    0.7500   -1.2990    0.0000 C   0  0  0  0  0  0  0  0  0  0  0  0
   -0.7500   -1.2990    0.0000 C   0  0  0  0  0  0  0  0  0  0  0  0
   -0.8000    0.0000    0.0000 C   0  0  0  0  0  0  0  0  0  0  0  0
   -0.4000    0.6928    0.0000 C   0  0  0  0  0  0  0  0  0  0  0  0
    0.7500    1.2990    0.0000 C   0  0  0  0  0  0  0  0  0  0  0  0
   -0.7500    1.2990    0.0000 C   0  0  0  0  0  0  0  0  0  0  0  0
   -1.5000    2.5981    0.0000 C   0  0  0  0  0  0  0  0  0  0  0  0
   -3.0000    2.5981    0.0000 C   0  0  0  0  0  0  0  0  0  0  0  0
   -3.7500    1.2990    0.0000 N   0  0  0  0  0  0  0  0  0  0  0  0
   -3.0000    0.0000    0.0000 C   0  0  0  0  0  0  0  0  0  0  0  0
   -3.7500   -1.2990    0.0000 O   0  0  0  0  0  0  0  0  0  0  0  0
   -1.5000    0.0000    0.0000 C   0  0  0  0  0  0  0  0  0  0  0  0
    8.2500   -3.8971    0.0000 H   0  0  0  0  0  0  0  0  0  0  0  0
    6.7500   -5.3971    0.0000 H   0  0  0  0  0  0  0  0  0  0  0  0
    6.7500   -2.3971    0.0000 H   0  0  0  0  0  0  0  0  0  0  0  0
    3.7500   -6.4952    0.0000 H   0  0  0  0  0  0  0  0  0  0  0  0
    5.7990   -5.9462    0.0000 H   0  0  0  0  0  0  0  0  0  0  0  0
    3.2010   -4.4462    0.0000 H   0  0  0  0  0  0  0  0  0  0  0  0
    3.2010   -3.3481    0.0000 H   0  0  0  0  0  0  0  0  0  0  0  0
    5.7990   -1.8481    0.0000 H   0  0  0  0  0  0  0  0  0  0  0  0
    2.4510   -2.0490    0.0000 H   0  0  0  0  0  0  0  0  0  0  0  0
    5.0490   -0.5490    0.0000 H   0  0  0  0  0  0  0  0  0  0  0  0
    3.7500    1.2990    0.0000 H   0  0  0  0  0  0  0  0  0  0  0  0
    1.5000   -2.5981    0.0000 H   0  0  0  0  0  0  0  0  0  0  0  0
   -1.5515   -0.1266    0.0000 H   0  0  0  0  0  0  0  0  0  0  0  0
   -1.7920    2.3780    0.0000 H   0  0  0  0  0  0  0  0  0  0  0  0
   -0.7500    3.8971    0.0000 H   0  0  0  0  0  0  0  0  0  0  0  0
   -3.7500    3.8971    0.0000 H   0  0  0  0  0  0  0  0  0  0  0  0
   -5.2500    1.2990    0.0000 H   0  0  0  0  0  0  0  0  0  0  0  0
  1  2  1  0
  2  3  1  0
  2  4  1  0
  4  5  1  0
  5  6  1  0
  6  7  1  0
  7  8  2  0
  8  9  1  0
  9 10  2  0
 10 11  1  0
 11 12  2  0
 12 13  1  0
 13 14  1  0
 14 15  2  0
 15 16  1  0
 16 17  1  0
 17 18  2  0
 17 19  1  0
 12  7  1  0
 19 13  2  0
 19  9  1  0
  1 20  1  0
  1 21  1  0
  1 22  1  0
  3 23  1  0
  3 24  1  0
  3 25  1  0
  4 26  1  0
  4 27  1  0
  5 28  1  0
  5 29  1  0
  6 30  1  0
  8 31  1  0
 10 32  1  0
 11 33  1  0
 14 34  1  0
 15 35  1  0
 16 36  1  0
M  END
>  <smiles>  (12) 
CN(C)CCNc1cc2ccc1c1cc[nH]c(=O)c21

>  <m_score__min__energy>  (12) 
nan

>  <m_primary>  (12) 
energy

$$$$
12:0
     RDKit          3D

 57 60  0  0  1  0  0  0  0  0999 V2000
   57.5740   28.0740   44.7640 C   0  0  0  0  0  0  0  0  0  0  0  0
   58.6720   28.3500   45.7030 N   0  0  0  0  0  0  0  0  0  0  0  0
   59.8100   28.6750   44.8440 C   0  0  0  0  0  0  0  0  0  0  0  0
   58.8740   27.1090   46.4240 C   0  0  0  0  0  0  0  0  0  0  0  0
   59.9810   27.2260   47.4480 C   0  0  0  0  0  0  0  0  0  0  0  0
   59.5850   28.2450   48.4080 N   0  0  0  0  0  0  0  0  0  0  0  0
   59.8450   29.5050   48.1570 C   0  0  0  0  0  0  0  0  0  0  0  0
   61.0360   30.0020   48.6000 N   0  0  0  0  0  0  0  0  0  0  0  0
   61.3860   31.2830   48.3880 C   0  0  0  0  0  0  0  0  0  0  0  0
   62.6740   31.7260   48.8950 C   0  0  0  0  0  0  0  0  0  0  0  0
   63.2900   32.7790   48.2580 C   0  0  0  0  0  0  0  0  0  0  0  0
   64.5260   33.2610   48.6860 C   0  0  0  0  0  0  0  0  0  0  0  0
   65.1430   32.6760   49.7640 C   0  0  0  0  0  0  0  0  0  0  0  0
   66.3790   33.1330   50.2190 C   0  0  0  0  0  0  0  0  0  0  0  0
   66.9940   32.5380   51.3070 C   0  0  0  0  0  0  0  0  0  0  0  0
   66.3590   31.4900   51.9250 C   0  0  0  0  0  0  0  0  0  0  0  0
   65.1340   31.0200   51.4930 C   0  0  0  0  0  0  0  0  0  0  0  0
   64.5330   31.6220   50.4080 C   0  0  0  0  0  0  0  0  0  0  0  0
   63.3110   31.1550   49.9750 C   0  0  0  0  0  0  0  0  0  0  0  0
   60.5090   32.0990   47.7050 C   0  0  0  0  0  0  0  0  0  0  0  0
   59.3090   31.5720   47.2670 C   0  0  0  0  0  0  0  0  0  0  0  0
   58.3540   32.4370   46.5300 C   0  0  0  0  0  0  0  0  0  0  0  0
   58.9280   33.7890   46.3000 C   0  0  0  0  0  0  0  0  0  0  0  0
   58.2360   34.5840   45.2420 C   0  0  0  0  0  0  0  0  0  0  0  0
   57.1470   33.8680   44.6100 N   0  0  0  0  0  0  0  0  0  0  0  0
   57.7430   32.6170   44.1190 C   0  0  0  0  0  0  0  0  0  0  0  0
   57.8810   31.7130   45.3070 C   0  0  0  0  0  0  0  0  0  0  0  0
   58.9850   30.2790   47.4960 N   0  0  0  0  0  0  0  0  0  0  0  0
   56.6582   27.8438   45.3282 H   0  0  0  0  0  0  0  0  0  0  0  0
   57.4024   28.9569   44.1308 H   0  0  0  0  0  0  0  0  0  0  0  0
   57.8403   27.2148   44.1308 H   0  0  0  0  0  0  0  0  0  0  0  0
   60.6811   28.9238   45.4679 H   0  0  0  0  0  0  0  0  0  0  0  0
   60.0491   27.8092   44.2090 H   0  0  0  0  0  0  0  0  0  0  0  0
   59.5558   29.5365   44.2090 H   0  0  0  0  0  0  0  0  0  0  0  0
   57.9398   26.8408   46.9391 H   0  0  0  0  0  0  0  0  0  0  0  0
   59.1620   26.3352   45.6972 H   0  0  0  0  0  0  0  0  0  0  0  0
   60.1220   26.2627   47.9600 H   0  0  0  0  0  0  0  0  0  0  0  0
   60.9294   27.4997   46.9626 H   0  0  0  0  0  0  0  0  0  0  0  0
   62.7974   33.2495   47.3943 H   0  0  0  0  0  0  0  0  0  0  0  0
   65.0033   34.1035   48.1641 H   0  0  0  0  0  0  0  0  0  0  0  0
   66.8702   33.9745   49.7085 H   0  0  0  0  0  0  0  0  0  0  0  0
   67.9692   32.8969   51.6679 H   0  0  0  0  0  0  0  0  0  0  0  0
   66.8398   31.0100   52.7901 H   0  0  0  0  0  0  0  0  0  0  0  0
   64.6457   30.1787   52.0066 H   0  0  0  0  0  0  0  0  0  0  0  0
   62.8365   30.3129   50.5000 H   0  0  0  0  0  0  0  0  0  0  0  0
   60.7605   33.1523   47.5120 H   0  0  0  0  0  0  0  0  0  0  0  0
   57.4530   32.6348   47.1293 H   0  0  0  0  0  0  0  0  0  0  0  0
   58.8720   34.3511   47.2439 H   0  0  0  0  0  0  0  0  0  0  0  0
   59.9599   33.6355   45.9512 H   0  0  0  0  0  0  0  0  0  0  0  0
   57.8332   35.4994   45.7000 H   0  0  0  0  0  0  0  0  0  0  0  0
   58.9786   34.8046   44.4610 H   0  0  0  0  0  0  0  0  0  0  0  0
   56.8090   34.4480   43.8120 H   0  0  0  0  0  0  0  0  0  0  0  0
   57.0888   32.1553   43.3648 H   0  0  0  0  0  0  0  0  0  0  0  0
   58.7186   32.8015   43.6455 H   0  0  0  0  0  0  0  0  0  0  0  0
   56.9012   31.2615   45.5218 H   0  0  0  0  0  0  0  0  0  0  0  0
   58.6338   30.9501   45.0594 H   0  0  0  0  0  0  0  0  0  0  0  0
   58.0880   29.9080   47.1610 H   0  0  0  0  0  0  0  0  0  0  0  0
  1  2  1  0
  2  3  1  0
  2  4  1  0
  4  5  1  0
  5  6  1  0
  6  7  2  0
  7  8  1  0
  8  9  2  0
  9 10  1  0
 10 11  2  0
 11 12  1  0
 12 13  2  0
 13 14  1  0
 14 15  2  0
 15 16  1  0
 16 17  2  0
 17 18  1  0
 18 19  2  0
  9 20  1  0
 20 21  2  0
 21 22  1  0
 22 23  1  0
 23 24  1  0
 24 25  1  0
 25 26  1  0
 26 27  1  0
 21 28  1  0
 28  7  1  0
 19 10  1  0
 27 22  1  0
 18 13  1  0
  1 29  1  0
  1 30  1  0
  1 31  1  0
  3 32  1  0
  3 33  1  0
  3 34  1  0
  4 35  1  0
  4 36  1  0
  5 37  1  0
  5 38  1  0
 11 39  1  0
 12 40  1  0
 14 41  1  0
 15 42  1  0
 16 43  1  0
 17 44  1  0
 19 45  1  0
 20 46  1  0
 22 47  1  0
 23 48  1  0
 23 49  1  0
 24 50  1  0
 24 51  1  0
 25 52  1  0
 26 53  1  0
 26 54  1  0
 27 55  1  0
 27 56  1  0
 28 57  1  0
M  END
>  <smiles>  (13) 
CN(C)CCN=c1nc(-c2ccc3ccccc3c2)cc(C2CCNCC2)[nH]1

>  <score_type>  (13) 
oracle

>  <origin>  (13) 
adg

>  <m_score__min__energy>  (13) 
-8.8499999999999996

>  <m_primary>  (13) 
energy

$$$$
13:0
     RDKit          3D

 40 41  0  0  0  0  0  0  0  0999 V2000
   60.4210   34.2030   46.8890 C   0  0  0  0  0  0  0  0  0  0  0  0
   59.2980   34.6470   45.9640 C   0  0  0  0  0  0  0  0  0  0  0  0
   58.0560   34.4050   46.5920 O   0  0  0  0  0  0  0  0  0  0  0  0
   57.3050   33.4560   45.8580 C   0  0  0  0  0  0  0  0  0  0  0  0
   58.0140   33.1290   44.5400 C   0  0  0  0  0  0  0  0  0  0  0  0
   57.4290   31.8760   43.8910 C   0  0  0  0  0  0  0  0  0  0  0  0
   56.6600   31.1290   44.8770 N   0  0  0  0  0  0  0  0  0  0  0  0
   56.3300   29.7470   44.7180 C   0  0  0  0  0  0  0  0  0  0  0  0
   55.1430   29.3530   44.8740 O   0  0  0  0  0  0  0  0  0  0  0  0
   57.4080   28.7580   44.3980 C   0  0  0  0  0  0  0  0  0  0  0  0
   57.9660   28.1840   45.6350 N   0  0  0  0  0  0  0  0  0  0  0  0
   57.3950   26.9750   46.1790 C   0  0  0  0  0  0  0  0  0  0  0  0
   56.3210   26.5020   45.7200 O   0  0  0  0  0  0  0  0  0  0  0  0
   58.1190   26.2330   47.2620 C   0  0  0  0  0  0  0  0  0  0  0  0
   58.8310   27.1330   48.1070 O   0  0  0  0  0  0  0  0  0  0  0  0
   59.4070   28.3150   47.6330 C   0  0  0  0  0  0  0  0  0  0  0  0
   60.3620   28.9710   48.4150 C   0  0  0  0  0  0  0  0  0  0  0  0
   60.9470   30.1550   47.9640 C   0  0  0  0  0  0  0  0  0  0  0  0
   60.5740   30.6920   46.7330 C   0  0  0  0  0  0  0  0  0  0  0  0
   59.6090   30.0510   45.9480 C   0  0  0  0  0  0  0  0  0  0  0  0
   59.0100   28.8510   46.3890 C   0  0  0  0  0  0  0  0  0  0  0  0
   60.1052   34.3278   47.9353 H   0  0  0  0  0  0  0  0  0  0  0  0
   60.6547   33.1448   46.7003 H   0  0  0  0  0  0  0  0  0  0  0  0
   61.3152   34.8153   46.7003 H   0  0  0  0  0  0  0  0  0  0  0  0
   59.3996   35.7215   45.7514 H   0  0  0  0  0  0  0  0  0  0  0  0
   59.3513   34.0834   45.0209 H   0  0  0  0  0  0  0  0  0  0  0  0
   57.2002   32.5365   46.4526 H   0  0  0  0  0  0  0  0  0  0  0  0
   56.3119   33.8750   45.6382 H   0  0  0  0  0  0  0  0  0  0  0  0
   57.8971   33.9777   43.8501 H   0  0  0  0  0  0  0  0  0  0  0  0
   59.0772   32.9450   44.7541 H   0  0  0  0  0  0  0  0  0  0  0  0
   56.7718   32.1677   43.0585 H   0  0  0  0  0  0  0  0  0  0  0  0
   58.2465   31.2456   43.5111 H   0  0  0  0  0  0  0  0  0  0  0  0
   56.9866   27.9499   43.7820 H   0  0  0  0  0  0  0  0  0  0  0  0
   58.2116   29.2725   43.8507 H   0  0  0  0  0  0  0  0  0  0  0  0
   57.3888   25.6738   47.8655 H   0  0  0  0  0  0  0  0  0  0  0  0
   58.8393   25.5449   46.7954 H   0  0  0  0  0  0  0  0  0  0  0  0
   60.6535   28.5524   49.3896 H   0  0  0  0  0  0  0  0  0  0  0  0
   61.7026   30.6645   48.5800 H   0  0  0  0  0  0  0  0  0  0  0  0
   61.0398   31.6229   46.3773 H   0  0  0  0  0  0  0  0  0  0  0  0
   59.3152   30.4850   44.9809 H   0  0  0  0  0  0  0  0  0  0  0  0
  1  2  1  0
  2  3  1  0
  3  4  1  0
  4  5  1  0
  5  6  1  0
  6  7  1  0
  7  8  1  0
  8  9  2  0
  8 10  1  0
 10 11  1  0
 11 12  1  0
 12 13  2  0
 12 14  1  0
 14 15  1  0
 15 16  1  0
 16 17  2  0
 17 18  1  0
 18 19  2  0
 19 20  1  0
 20 21  2  0
 21 11  1  0
 21 16  1  0
  1 22  1  0
  1 23  1  0
  1 24  1  0
  2 25  1  0
  2 26  1  0
  4 27  1  0
  4 28  1  0
  5 29  1  0
  5 30  1  0
  6 31  1  0
  6 32  1  0
 10 33  1  0
 10 34  1  0
 14 35  1  0
 14 36  1  0
 17 37  1  0
 18 38  1  0
 19 39  1  0
 20 40  1  0
M  CHG  1   7  -1
M  END
>  <UniqueID>  (14) 
11

>  <SMILES>  (14) 
CCOCCC[N-]C(=O)CN1C(=O)COc2ccccc21

>  <Energy>  (14) 
35.38138639431321

>  <Genealogy>  (14) 
CCOCCC[N-]C(=O)CN1C(=O)COc2ccccc21 (protonated)
CCOCCC[N-]C(=O)CN1C(=O)COc2ccccc21 (3D coordinates assigned)
CCOCCC[N-]C(=O)CN1C(=O)COc2ccccc21 (nonaromatic ring conformer: 35.38138639431321 kcal/mol)

>  <smiles>  (14) 
CCOCCCNC(=O)CN1C(=O)COc2ccccc21

>  <score_type>  (14) 
oracle

>  <origin>  (14) 
adg

>  <m_score__min__energy>  (14) 
-8.3499999999999996

>  <m_primary>  (14) 
energy

$$$$
14:0
     RDKit          3D

 74 77  0  0  0  0  0  0  0  0999 V2000
   68.8120   34.3900   50.7500 C   0  0  0  0  0  0  0  0  0  0  0  0
   68.3340   33.3310   51.7370 C   0  0  0  0  0  0  0  0  0  0  0  0
   66.9780   33.5680   52.1180 O   0  0  0  0  0  0  0  0  0  0  0  0
   65.8780   33.5950   51.2450 C   0  0  0  0  0  0  0  0  0  0  0  0
   64.7190   34.2530   51.6680 C   0  0  0  0  0  0  0  0  0  0  0  0
   63.5890   34.3040   50.8470 C   0  0  0  0  0  0  0  0  0  0  0  0
   63.6000   33.6990   49.5790 C   0  0  0  0  0  0  0  0  0  0  0  0
   62.4020   33.7530   48.7000 C   0  0  0  0  0  0  0  0  0  0  0  0
   61.1560   34.1710   49.2080 C   0  0  0  0  0  0  0  0  0  0  0  0
   60.0360   34.2380   48.3740 C   0  0  0  0  0  0  0  0  0  0  0  0
   60.1420   33.9000   47.0170 C   0  0  0  0  0  0  0  0  0  0  0  0
   58.9330   33.9650   46.1190 C   0  0  0  0  0  0  0  0  0  0  0  0
   57.8740   32.9150   46.4820 C   0  0  0  0  0  0  0  0  0  0  0  0
   58.1260   31.5600   45.7820 C   0  0  0  0  0  0  0  0  0  0  0  0
   58.8390   30.5520   46.6100 N   0  0  0  0  0  0  0  0  0  0  0  0
   59.2540   31.1180   47.9050 C   0  0  0  0  0  0  0  0  0  0  0  0
   58.1410   29.2570   46.8120 C   0  0  0  0  0  0  0  0  0  0  0  0
   58.4980   28.1730   45.7440 C   0  0  1  0  0  0  0  0  0  0  0  0
   57.9340   26.7790   46.0420 C   0  0  0  0  0  0  0  0  0  0  0  0
   57.7820   26.3110   47.3660 C   0  0  0  0  0  0  0  0  0  0  0  0
   57.3490   25.0070   47.6180 C   0  0  0  0  0  0  0  0  0  0  0  0
   57.0790   24.1400   46.5610 C   0  0  0  0  0  0  0  0  0  0  0  0
   57.2440   24.5730   45.2460 C   0  0  0  0  0  0  0  0  0  0  0  0
   57.6860   25.8790   44.9750 C   0  0  0  0  0  0  0  0  0  0  0  0
   57.7860   26.3060   43.5340 C   0  0  0  0  0  0  0  0  0  0  0  0
   58.4980   27.6530   43.3540 C   0  0  0  0  0  0  0  0  0  0  0  0
   58.1230   28.6420   44.3830 N   0  0  1  0  0  0  0  0  0  0  0  0
   56.7240   29.0350   44.2590 C   0  0  0  0  0  0  0  0  0  0  0  0
   55.9290   28.7920   45.1580 O   0  0  0  0  0  0  0  0  0  0  0  0
   56.2560   29.7480   43.0090 C   0  0  0  0  0  0  0  0  0  0  0  0
   57.0230   31.0410   42.7270 C   0  0  0  0  0  0  0  0  0  0  0  0
   61.3780   33.4740   46.5100 C   0  0  0  0  0  0  0  0  0  0  0  0
   62.4960   33.3990   47.3430 C   0  0  0  0  0  0  0  0  0  0  0  0
   64.7670   33.0400   49.1520 C   0  0  0  0  0  0  0  0  0  0  0  0
   65.8940   32.9840   49.9780 C   0  0  0  0  0  0  0  0  0  0  0  0
   69.2032   35.2567   51.3030 H   0  0  0  0  0  0  0  0  0  0  0  0
   69.6075   33.9692   50.1174 H   0  0  0  0  0  0  0  0  0  0  0  0
   67.9702   34.7082   50.1174 H   0  0  0  0  0  0  0  0  0  0  0  0
   68.4083   32.3396   51.2663 H   0  0  0  0  0  0  0  0  0  0  0  0
   68.9660   33.3763   52.6362 H   0  0  0  0  0  0  0  0  0  0  0  0
   64.6963   34.7351   52.6564 H   0  0  0  0  0  0  0  0  0  0  0  0
   62.6837   34.8220   51.1965 H   0  0  0  0  0  0  0  0  0  0  0  0
   61.0638   34.4467   50.2689 H   0  0  0  0  0  0  0  0  0  0  0  0
   59.0666   34.5575   48.7842 H   0  0  0  0  0  0  0  0  0  0  0  0
   58.4826   34.9648   46.2056 H   0  0  0  0  0  0  0  0  0  0  0  0
   59.2684   33.7601   45.0916 H   0  0  0  0  0  0  0  0  0  0  0  0
   57.8896   32.7588   47.5707 H   0  0  0  0  0  0  0  0  0  0  0  0
   56.8974   33.2916   46.1437 H   0  0  0  0  0  0  0  0  0  0  0  0
   57.1521   31.1381   45.4931 H   0  0  0  0  0  0  0  0  0  0  0  0
   58.7797   31.7727   44.9233 H   0  0  0  0  0  0  0  0  0  0  0  0
   58.8182   30.5236   48.7215 H   0  0  0  0  0  0  0  0  0  0  0  0
   60.3512   31.0955   47.9803 H   0  0  0  0  0  0  0  0  0  0  0  0
   58.9026   32.1576   47.9803 H   0  0  0  0  0  0  0  0  0  0  0  0
   58.4124   28.8682   47.8046 H   0  0  0  0  0  0  0  0  0  0  0  0
   57.0634   29.4564   46.7174 H   0  0  0  0  0  0  0  0  0  0  0  0
   59.5895   28.0450   45.7919 H   0  0  0  0  0  0  0  0  0  0  0  0
   58.0073   26.9813   48.2086 H   0  0  0  0  0  0  0  0  0  0  0  0
   57.2207   24.6632   48.6550 H   0  0  0  0  0  0  0  0  0  0  0  0
   56.7359   23.1148   46.7639 H   0  0  0  0  0  0  0  0  0  0  0  0
   57.0265   23.8869   44.4142 H   0  0  0  0  0  0  0  0  0  0  0  0
   58.3445   25.5378   42.9791 H   0  0  0  0  0  0  0  0  0  0  0  0
   56.7602   26.4237   43.1546 H   0  0  0  0  0  0  0  0  0  0  0  0
   59.5840   27.4859   43.4068 H   0  0  0  0  0  0  0  0  0  0  0  0
   58.1937   28.0598   42.3783 H   0  0  0  0  0  0  0  0  0  0  0  0
   58.7070   29.4890   44.1820 H   0  0  0  0  0  0  0  0  0  0  0  0
   56.3856   29.0711   42.1517 H   0  0  0  0  0  0  0  0  0  0  0  0
   55.2021   30.0218   43.1653 H   0  0  0  0  0  0  0  0  0  0  0  0
   57.3044   31.5154   43.6787 H   0  0  0  0  0  0  0  0  0  0  0  0
   57.9306   30.8105   42.1497 H   0  0  0  0  0  0  0  0  0  0  0  0
   56.3856   31.7270   42.1497 H   0  0  0  0  0  0  0  0  0  0  0  0
   61.4674   33.1971   45.4492 H   0  0  0  0  0  0  0  0  0  0  0  0
   63.4590   33.0598   46.9336 H   0  0  0  0  0  0  0  0  0  0  0  0
   64.7933   32.5648   48.1603 H   0  0  0  0  0  0  0  0  0  0  0  0
   66.7980   32.4593   49.6351 H   0  0  0  0  0  0  0  0  0  0  0  0
  1  2  1  0
  2  3  1  0
  3  4  1  0
  4  5  2  0
  5  6  1  0
  6  7  2  0
  7  8  1  0
  8  9  2  0
  9 10  1  0
 10 11  2  0
 11 12  1  0
 12 13  1  0
 13 14  1  0
 14 15  1  0
 15 16  1  0
 15 17  1  0
 17 18  1  0
 18 19  1  0
 19 20  2  0
 20 21  1  0
 21 22  2  0
 22 23  1  0
 23 24  2  0
 24 25  1  0
 25 26  1  0
 26 27  1  0
 27 28  1  0
 28 29  2  0
 28 30  1  0
 30 31  1  0
 11 32  1  0
 32 33  2  0
  7 34  1  0
 34 35  2  0
 35  4  1  0
 33  8  1  0
 27 18  1  0
 24 19  1  0
  1 36  1  0
  1 37  1  0
  1 38  1  0
  2 39  1  0
  2 40  1  0
  5 41  1  0
  6 42  1  0
  9 43  1  0
 10 44  1  0
 12 45  1  0
 12 46  1  0
 13 47  1  0
 13 48  1  0
 14 49  1  0
 14 50  1  0
 16 51  1  0
 16 52  1  0
 16 53  1  0
 17 54  1  0
 17 55  1  0
 18 56  1  6
 20 57  1  0
 21 58  1  0
 22 59  1  0
 23 60  1  0
 25 61  1  0
 25 62  1  0
 26 63  1  0
 26 64  1  0
 27 65  1  6
 30 66  1  0
 30 67  1  0
 31 68  1  0
 31 69  1  0
 31 70  1  0
 32 71  1  0
 33 72  1  0
 34 73  1  0
 35 74  1  0
M  CHG  1  27   1
M  END
>  <UniqueID>  (15) 
12

>  <SMILES>  (15) 
CCOc1ccc(-c2ccc(CCCN(C)C[C@H]3c4ccccc4CC[N@H+]3C(=O)CC)cc2)cc1

>  <Energy>  (15) 
92.77949819577645

>  <Genealogy>  (15) 
CCOc1ccc(-c2ccc(CCCN(C)CC3c4ccccc4CC[NH+]3C(=O)CC)cc2)cc1 (protonated)
CCOc1ccc(-c2ccc(CCCN(C)C[C@H]3c4ccccc4CC[N@H+]3C(=O)CC)cc2)cc1 (chirality)
CCOc1ccc(-c2ccc(CCCN(C)C[C@H]3c4ccccc4CC[N@H+]3C(=O)CC)cc2)cc1 (3D coordinates assigned)
CCOc1ccc(-c2ccc(CCCN(C)C[C@H]3c4ccccc4CC[N@H+]3C(=O)CC)cc2)cc1 (nonaromatic ring conformer: 92.77949819577645 kcal/mol)

>  <smiles>  (15) 
CCOc1ccc(-c2ccc(CCCN(C)CC3c4ccccc4CCN3C(=O)CC)cc2)cc1

>  <score_type>  (15) 
oracle

>  <origin>  (15) 
adg

>  <m_score__min__energy>  (15) 
-9.1600000000000001

>  <m_primary>  (15) 
energy

$$$$
15:0
     RDKit          3D

 39 42  0  0  0  0  0  0  0  0999 V2000
   59.9290   34.2170   48.9090 C   0  0  0  0  0  0  0  0  0  0  0  0
   60.1580   34.1770   47.5050 O   0  0  0  0  0  0  0  0  0  0  0  0
   59.2460   33.6780   46.5580 C   0  0  0  0  0  0  0  0  0  0  0  0
   58.4750   34.5420   45.7600 C   0  0  0  0  0  0  0  0  0  0  0  0
   57.5660   34.0290   44.8390 C   0  0  0  0  0  0  0  0  0  0  0  0
   57.4200   32.6520   44.6820 C   0  0  0  0  0  0  0  0  0  0  0  0
   58.1970   31.7510   45.4410 C   0  0  0  0  0  0  0  0  0  0  0  0
   58.0920   30.3390   45.2810 C   0  0  0  0  0  0  0  0  0  0  0  0
   58.7620   29.4800   46.1850 C   0  0  0  0  0  0  0  0  0  0  0  0
   59.6570   30.0290   47.1180 C   0  0  0  0  0  0  0  0  0  0  0  0
   59.8320   31.4030   47.2170 C   0  0  0  0  0  0  0  0  0  0  0  0
   59.0970   32.2810   46.4070 C   0  0  0  0  0  0  0  0  0  0  0  0
   58.5360   28.0040   46.1100 C   0  0  0  0  0  0  0  0  0  0  0  0
   58.7630   27.1680   47.2210 C   0  0  0  0  0  0  0  0  0  0  0  0
   58.5510   25.7940   47.1300 C   0  0  0  0  0  0  0  0  0  0  0  0
   58.1130   25.2290   45.9350 C   0  0  0  0  0  0  0  0  0  0  0  0
   57.8610   26.0340   44.8150 C   0  0  0  0  0  0  0  0  0  0  0  0
   57.3940   25.3800   43.5410 C   0  0  0  0  0  0  0  0  0  0  0  0
   58.0310   27.4390   44.9150 C   0  0  0  0  0  0  0  0  0  0  0  0
   57.7700   28.3560   43.7420 C   0  0  0  0  0  0  0  0  0  0  0  0
   57.2260   29.7140   44.2000 C   0  0  0  0  0  0  0  0  0  0  0  0
   60.8779   34.0512   49.4401 H   0  0  0  0  0  0  0  0  0  0  0  0
   59.5206   35.2001   49.1860 H   0  0  0  0  0  0  0  0  0  0  0  0
   59.2115   33.4306   49.1860 H   0  0  0  0  0  0  0  0  0  0  0  0
   58.5911   35.6309   45.8643 H   0  0  0  0  0  0  0  0  0  0  0  0
   56.9586   34.7154   44.2308 H   0  0  0  0  0  0  0  0  0  0  0  0
   56.6899   32.2625   43.9573 H   0  0  0  0  0  0  0  0  0  0  0  0
   60.2276   29.3608   47.7798 H   0  0  0  0  0  0  0  0  0  0  0  0
   60.5559   31.8078   47.9395 H   0  0  0  0  0  0  0  0  0  0  0  0
   59.1108   27.6041   48.1691 H   0  0  0  0  0  0  0  0  0  0  0  0
   58.7303   25.1529   48.0057 H   0  0  0  0  0  0  0  0  0  0  0  0
   57.9633   24.1412   45.8691 H   0  0  0  0  0  0  0  0  0  0  0  0
   56.7706   24.5069   43.7842 H   0  0  0  0  0  0  0  0  0  0  0  0
   56.8043   26.0997   42.9542 H   0  0  0  0  0  0  0  0  0  0  0  0
   58.2661   25.0558   42.9542 H   0  0  0  0  0  0  0  0  0  0  0  0
   58.7115   28.5141   43.1956 H   0  0  0  0  0  0  0  0  0  0  0  0
   57.0163   27.8829   43.0954 H   0  0  0  0  0  0  0  0  0  0  0  0
   57.1923   30.3930   43.3352 H   0  0  0  0  0  0  0  0  0  0  0  0
   56.2218   29.5538   44.6195 H   0  0  0  0  0  0  0  0  0  0  0  0
  1  2  1  0
  2  3  1  0
  3  4  2  0
  4  5  1  0
  5  6  2  0
  6  7  1  0
  7  8  2  0
  8  9  1  0
  9 10  2  0
 10 11  1  0
 11 12  2  0
  9 13  1  0
 13 14  2  0
 14 15  1  0
 15 16  2  0
 16 17  1  0
 17 18  1  0
 17 19  2  0
 19 20  1  0
 20 21  1  0
 12  3  1  0
 19 13  1  0
 12  7  1  0
 21  8  1  0
  1 22  1  0
  1 23  1  0
  1 24  1  0
  4 25  1  0
  5 26  1  0
  6 27  1  0
 10 28  1  0
 11 29  1  0
 14 30  1  0
 15 31  1  0
 16 32  1  0
 18 33  1  0
 18 34  1  0
 18 35  1  0
 20 36  1  0
 20 37  1  0
 21 38  1  0
 21 39  1  0
M  END
>  <UniqueID>  (16) 
13

>  <SMILES>  (16) 
COc1cccc2c3c(ccc12)-c1cccc(C)c1CC3

>  <Energy>  (16) 
58.391001437626954

>  <Genealogy>  (16) 
COc1cccc2c3c(ccc12)-c1cccc(C)c1CC3 (3D coordinates assigned)
COc1cccc2c3c(ccc12)-c1cccc(C)c1CC3 (nonaromatic ring conformer: 58.391001437626954 kcal/mol)

>  <smiles>  (16) 
COc1cccc2c3c(ccc12)-c1cccc(C)c1CC3

>  <score_type>  (16) 
oracle

>  <origin>  (16) 
adg

>  <m_score__min__energy>  (16) 
-7.4100000000000001

>  <m_primary>  (16) 
energy

$$$$
16:0
     RDKit          3D

 43 46  0  0  0  0  0  0  0  0999 V2000
   60.6120   27.1540   48.8520 C   0  0  0  0  0  0  0  0  0  0  0  0
   59.9480   26.3400   47.8900 O   0  0  0  0  0  0  0  0  0  0  0  0
   58.8400   26.7480   47.1290 C   0  0  0  0  0  0  0  0  0  0  0  0
   58.8460   27.9460   46.3950 C   0  0  0  0  0  0  0  0  0  0  0  0
   57.7280   28.3330   45.6500 C   0  0  0  0  0  0  0  0  0  0  0  0
   57.7500   29.5970   44.8760 C   0  0  0  0  0  0  0  0  0  0  0  0
   57.2990   29.6280   43.5420 C   0  0  0  0  0  0  0  0  0  0  0  0
   57.3120   30.7920   42.8260 N   0  0  0  0  0  0  0  0  0  0  0  0
   57.7630   31.9640   43.3590 C   0  0  0  0  0  0  0  0  0  0  0  0
   58.2310   31.9790   44.6760 C   0  0  0  0  0  0  0  0  0  0  0  0
   58.2190   30.8010   45.4180 C   0  0  0  0  0  0  0  0  0  0  0  0
   58.8770   31.0880   46.9510 S   0  0  0  0  0  0  0  0  0  0  0  0
   59.1600   32.7250   46.6720 C   0  0  0  0  0  0  0  0  0  0  0  0
   59.7160   33.6550   47.5470 C   0  0  0  0  0  0  0  0  0  0  0  0
   59.8680   34.9770   47.1030 C   0  0  0  0  0  0  0  0  0  0  0  0
   59.4670   35.3420   45.8040 C   0  0  0  0  0  0  0  0  0  0  0  0
   58.9090   34.3890   44.9350 C   0  0  0  0  0  0  0  0  0  0  0  0
   58.7580   33.0710   45.3850 C   0  0  0  0  0  0  0  0  0  0  0  0
   56.6010   27.5030   45.6220 C   0  0  0  0  0  0  0  0  0  0  0  0
   56.5690   26.2980   46.3510 C   0  0  0  0  0  0  0  0  0  0  0  0
   55.4320   25.4740   46.3280 O   0  0  0  0  0  0  0  0  0  0  0  0
   55.1280   24.5290   45.3080 C   0  0  0  0  0  0  0  0  0  0  0  0
   57.7050   25.9200   47.1130 C   0  0  0  0  0  0  0  0  0  0  0  0
   57.7760   24.7390   47.8760 O   0  0  0  0  0  0  0  0  0  0  0  0
   56.7370   23.7830   48.0600 C   0  0  0  0  0  0  0  0  0  0  0  0
   60.3402   26.8208   49.8645 H   0  0  0  0  0  0  0  0  0  0  0  0
   61.7003   27.0672   48.7172 H   0  0  0  0  0  0  0  0  0  0  0  0
   60.3083   28.2026   48.7172 H   0  0  0  0  0  0  0  0  0  0  0  0
   59.7402   28.5865   46.4066 H   0  0  0  0  0  0  0  0  0  0  0  0
   56.9319   28.7043   43.0709 H   0  0  0  0  0  0  0  0  0  0  0  0
   56.9650   30.7850   41.8420 H   0  0  0  0  0  0  0  0  0  0  0  0
   57.7584   32.8862   42.7595 H   0  0  0  0  0  0  0  0  0  0  0  0
   60.0279   33.3606   48.5599 H   0  0  0  0  0  0  0  0  0  0  0  0
   60.3030   35.7326   47.7737 H   0  0  0  0  0  0  0  0  0  0  0  0
   59.5914   36.3815   45.4664 H   0  0  0  0  0  0  0  0  0  0  0  0
   58.5963   34.6729   43.9193 H   0  0  0  0  0  0  0  0  0  0  0  0
   55.7272   27.7962   45.0216 H   0  0  0  0  0  0  0  0  0  0  0  0
   54.8221   23.5781   45.7686 H   0  0  0  0  0  0  0  0  0  0  0  0
   54.3085   24.9144   44.6836 H   0  0  0  0  0  0  0  0  0  0  0  0
   56.0185   24.3643   44.6836 H   0  0  0  0  0  0  0  0  0  0  0  0
   56.5681   23.6276   49.1358 H   0  0  0  0  0  0  0  0  0  0  0  0
   55.8120   24.1524   47.5932 H   0  0  0  0  0  0  0  0  0  0  0  0
   57.0283   22.8305   47.5932 H   0  0  0  0  0  0  0  0  0  0  0  0
  1  2  1  0
  2  3  1  0
  3  4  2  0
  4  5  1  0
  5  6  1  0
  6  7  2  0
  7  8  1  0
  8  9  2  0
  9 10  1  0
 10 11  2  0
 11 12  1  0
 12 13  1  0
 13 14  2  0
 14 15  1  0
 15 16  2  0
 16 17  1  0
 17 18  2  0
  5 19  2  0
 19 20  1  0
 20 21  1  0
 21 22  1  0
 20 23  2  0
 23 24  1  0
 24 25  1  0
 23  3  1  0
 11  6  1  0
 18 13  1  0
 18 10  1  0
  1 26  1  0
  1 27  1  0
  1 28  1  0
  4 29  1  0
  7 30  1  0
  8 31  1  0
  9 32  1  0
 14 33  1  0
 15 34  1  0
 16 35  1  0
 17 36  1  0
 19 37  1  0
 22 38  1  0
 22 39  1  0
 22 40  1  0
 25 41  1  0
 25 42  1  0
 25 43  1  0
M  CHG  1   8   1
M  END
>  <UniqueID>  (17) 
14

>  <SMILES>  (17) 
COc1cc(-c2c[nH+]cc3c2sc2ccccc23)cc(OC)c1OC

>  <Energy>  (17) 
91.60188321511623

>  <Genealogy>  (17) 
COc1cc(-c2c[nH+]cc3c2sc2ccccc23)cc(OC)c1OC (protonated)
COc1cc(-c2c[nH+]cc3c2sc2ccccc23)cc(OC)c1OC (3D coordinates assigned)
COc1cc(-c2c[nH+]cc3c2sc2ccccc23)cc(OC)c1OC (optimized conformer: 91.60188321511623 kcal/mol)

>  <smiles>  (17) 
COc1cc(-c2cncc3c2sc2ccccc23)cc(OC)c1OC

>  <score_type>  (17) 
oracle

>  <origin>  (17) 
adg

>  <m_score__min__energy>  (17) 
-6.2699999999999996

>  <m_primary>  (17) 
energy

$$$$
17:0
     RDKit          3D

 55 59  0  0  1  0  0  0  0  0999 V2000
   63.5170   31.0900   52.1510 C   0  0  0  0  0  0  0  0  0  0  0  0
   63.5080   32.2900   52.8230 O   0  0  0  0  0  0  0  0  0  0  0  0
   64.6330   33.0670   52.6770 C   0  0  0  0  0  0  0  0  0  0  0  0
   64.8900   33.4280   51.2250 C   0  0  0  0  0  0  0  0  0  0  0  0
   63.8050   34.3200   50.8530 N   0  0  0  0  0  0  0  0  0  0  0  0
   62.7010   33.9090   50.3900 C   0  0  0  0  0  0  0  0  0  0  0  0
   61.7140   33.5500   51.2270 N   0  0  0  0  0  0  0  0  0  0  0  0
   60.5720   33.1240   50.6610 C   0  0  0  0  0  0  0  0  0  0  0  0
   59.4360   32.7100   51.5160 C   0  0  0  0  0  0  0  0  0  0  0  0
   59.2270   33.2760   52.7600 C   0  0  0  0  0  0  0  0  0  0  0  0
   58.1900   32.9280   53.5920 C   0  0  0  0  0  0  0  0  0  0  0  0
   57.3190   31.9680   53.1610 C   0  0  0  0  0  0  0  0  0  0  0  0
   57.5150   31.3950   51.9220 C   0  0  0  0  0  0  0  0  0  0  0  0
   56.6230   30.4210   51.4970 O   0  0  0  0  0  0  0  0  0  0  0  0
   55.3100   30.4480   52.0200 C   0  0  0  0  0  0  0  0  0  0  0  0
   58.5740   31.7610   51.0910 C   0  0  0  0  0  0  0  0  0  0  0  0
   60.3660   33.0380   49.3440 N   0  0  0  0  0  0  0  0  0  0  0  0
   61.3420   33.3920   48.4330 C   0  0  0  0  0  0  0  0  0  0  0  0
   61.2320   33.3430   47.0910 C   0  0  0  0  0  0  0  0  0  0  0  0
   60.0100   32.8850   46.3590 C   0  0  0  0  0  0  0  0  0  0  0  0
   59.1860   33.8020   45.7390 C   0  0  0  0  0  0  0  0  0  0  0  0
   58.0690   33.3200   45.0760 C   0  0  0  0  0  0  0  0  0  0  0  0
   57.7800   31.9650   45.0300 C   0  0  0  0  0  0  0  0  0  0  0  0
   56.6690   31.4700   44.3730 C   0  0  0  0  0  0  0  0  0  0  0  0
   56.3660   30.1250   44.3170 C   0  0  0  0  0  0  0  0  0  0  0  0
   57.1980   29.2150   44.9420 C   0  0  0  0  0  0  0  0  0  0  0  0
   58.3080   29.6900   45.6010 C   0  0  0  0  0  0  0  0  0  0  0  0
   58.6020   31.0550   45.6490 C   0  0  0  0  0  0  0  0  0  0  0  0
   59.7160   31.5310   46.3100 C   0  0  0  0  0  0  0  0  0  0  0  0
   62.3260   33.7410   46.3710 C   0  0  0  0  0  0  0  0  0  0  0  0
   63.5880   34.2170   47.6460 S   0  0  0  0  0  0  0  0  0  0  0  0
   62.5040   33.8260   48.9900 C   0  0  0  0  0  0  0  0  0  0  0  0
   63.5232   30.2634   52.8767 H   0  0  0  0  0  0  0  0  0  0  0  0
   62.6194   31.0167   51.5194 H   0  0  0  0  0  0  0  0  0  0  0  0
   64.4156   31.0302   51.5194 H   0  0  0  0  0  0  0  0  0  0  0  0
   64.5024   33.9934   53.2556 H   0  0  0  0  0  0  0  0  0  0  0  0
   65.4950   32.4888   53.0412 H   0  0  0  0  0  0  0  0  0  0  0  0
   65.8598   33.9366   51.1204 H   0  0  0  0  0  0  0  0  0  0  0  0
   64.9266   32.5366   50.5815 H   0  0  0  0  0  0  0  0  0  0  0  0
   61.8930   33.6230   52.2320 H   0  0  0  0  0  0  0  0  0  0  0  0
   59.9307   34.0487   53.1033 H   0  0  0  0  0  0  0  0  0  0  0  0
   58.0653   33.4074   54.5741 H   0  0  0  0  0  0  0  0  0  0  0  0
   56.4740   31.6567   53.7927 H   0  0  0  0  0  0  0  0  0  0  0  0
   55.3531   30.4471   53.1192 H   0  0  0  0  0  0  0  0  0  0  0  0
   54.7961   31.3569   51.6739 H   0  0  0  0  0  0  0  0  0  0  0  0
   54.7591   29.5610   51.6739 H   0  0  0  0  0  0  0  0  0  0  0  0
   58.7046   31.2855   50.1077 H   0  0  0  0  0  0  0  0  0  0  0  0
   59.4084   34.8788   45.7701 H   0  0  0  0  0  0  0  0  0  0  0  0
   57.3951   34.0298   44.5739 H   0  0  0  0  0  0  0  0  0  0  0  0
   55.9956   32.1809   43.8719 H   0  0  0  0  0  0  0  0  0  0  0  0
   55.4703   29.7799   43.7798 H   0  0  0  0  0  0  0  0  0  0  0  0
   56.9778   28.1377   44.9130 H   0  0  0  0  0  0  0  0  0  0  0  0
   58.9803   28.9781   46.1022 H   0  0  0  0  0  0  0  0  0  0  0  0
   60.3877   30.8181   46.8107 H   0  0  0  0  0  0  0  0  0  0  0  0
   62.4336   33.7719   45.2767 H   0  0  0  0  0  0  0  0  0  0  0  0
  1  2  1  0
  2  3  1  0
  3  4  1  0
  4  5  1  0
  5  6  2  0
  6  7  1  0
  7  8  1  0
  8  9  1  0
  9 10  2  0
 10 11  1  0
 11 12  2  0
 12 13  1  0
 13 14  1  0
 14 15  1  0
 13 16  2  0
  8 17  2  0
 17 18  1  0
 18 19  1  0
 19 20  1  0
 20 21  2  0
 21 22  1  0
 22 23  2  0
 23 24  1  0
 24 25  2  0
 25 26  1  0
 26 27  2  0
 27 28  1  0
 28 29  2  0
 19 30  2  0
 30 31  1  0
 31 32  1  0
 32  6  1  0
 16  9  1  0
 32 18  2  0
 29 20  1  0
 28 23  1  0
  1 33  1  0
  1 34  1  0
  1 35  1  0
  3 36  1  0
  3 37  1  0
  4 38  1  0
  4 39  1  0
  7 40  1  0
 10 41  1  0
 11 42  1  0
 12 43  1  0
 15 44  1  0
 15 45  1  0
 15 46  1  0
 16 47  1  0
 21 48  1  0
 22 49  1  0
 24 50  1  0
 25 51  1  0
 26 52  1  0
 27 53  1  0
 29 54  1  0
 30 55  1  0
M  END
>  <smiles>  (18) 
COCCN=c1[nH]c(-c2cccc(OC)c2)nc2c(-c3ccc4ccccc4c3)csc12

>  <score_type>  (18) 
oracle

>  <origin>  (18) 
adg

>  <m_score__min__energy>  (18) 
-8.6300000000000008

>  <m_primary>  (18) 
energy

$$$$
18:0
     RDKit          3D

 33 33  0  0  0  0  0  0  0  0999 V2000
   57.0280   30.8180   43.9580 C   0  0  0  0  0  0  0  0  0  0  0  0
   56.9980   31.4750   45.2210 O   0  0  0  0  0  0  0  0  0  0  0  0
   57.8100   32.5660   45.5670 C   0  0  0  0  0  0  0  0  0  0  0  0
   58.1260   33.5000   44.5750 C   0  0  0  0  0  0  0  0  0  0  0  0
   58.9240   34.6080   44.8720 C   0  0  0  0  0  0  0  0  0  0  0  0
   59.4180   34.7890   46.1660 C   0  0  0  0  0  0  0  0  0  0  0  0
   59.1250   33.8540   47.1720 C   0  0  0  0  0  0  0  0  0  0  0  0
   59.6260   34.0660   48.5750 C   0  0  0  0  0  0  0  0  0  0  0  0
   61.1580   33.9650   48.6210 C   0  0  0  0  0  0  0  0  0  0  0  0
   61.6910   32.7470   47.8250 C   0  0  0  0  0  0  0  0  0  0  0  0
   63.1140   32.8370   47.4270 N   0  0  0  0  0  0  0  0  0  0  0  0
   64.0270   33.0200   48.5650 C   0  0  0  0  0  0  0  0  0  0  0  0
   63.3590   33.8360   46.3750 C   0  0  0  0  0  0  0  0  0  0  0  0
   58.3110   32.7490   46.8710 C   0  0  0  0  0  0  0  0  0  0  0  0
   57.0777   29.7299   44.1118 H   0  0  0  0  0  0  0  0  0  0  0  0
   56.1175   31.0673   43.3933 H   0  0  0  0  0  0  0  0  0  0  0  0
   57.9120   31.1492   43.3933 H   0  0  0  0  0  0  0  0  0  0  0  0
   57.7434   33.3613   43.5531 H   0  0  0  0  0  0  0  0  0  0  0  0
   59.1635   35.3388   44.0856 H   0  0  0  0  0  0  0  0  0  0  0  0
   60.0387   35.6670   46.3978 H   0  0  0  0  0  0  0  0  0  0  0  0
   59.3185   35.0635   48.9222 H   0  0  0  0  0  0  0  0  0  0  0  0
   59.1989   33.2891   49.2261 H   0  0  0  0  0  0  0  0  0  0  0  0
   61.5861   34.8829   48.1918 H   0  0  0  0  0  0  0  0  0  0  0  0
   61.4555   33.8364   49.6722 H   0  0  0  0  0  0  0  0  0  0  0  0
   61.5669   31.8499   48.4493 H   0  0  0  0  0  0  0  0  0  0  0  0
   61.1111   32.7111   46.8910 H   0  0  0  0  0  0  0  0  0  0  0  0
   63.4677   32.9079   49.5055 H   0  0  0  0  0  0  0  0  0  0  0  0
   64.8247   32.2639   48.5204 H   0  0  0  0  0  0  0  0  0  0  0  0
   64.4717   34.0251   48.5204 H   0  0  0  0  0  0  0  0  0  0  0  0
   63.5967   34.8052   46.8379 H   0  0  0  0  0  0  0  0  0  0  0  0
   64.2040   33.5109   45.7503 H   0  0  0  0  0  0  0  0  0  0  0  0
   62.4595   33.9388   45.7503 H   0  0  0  0  0  0  0  0  0  0  0  0
   58.0633   32.0221   47.6586 H   0  0  0  0  0  0  0  0  0  0  0  0
  1  2  1  0
  2  3  1  0
  3  4  2  0
  4  5  1  0
  5  6  2  0
  6  7  1  0
  7  8  1  0
  8  9  1  0
  9 10  1  0
 10 11  1  0
 11 12  1  0
 11 13  1  0
  7 14  2  0
 14  3  1  0
  1 15  1  0
  1 16  1  0
  1 17  1  0
  4 18  1  0
  5 19  1  0
  6 20  1  0
  8 21  1  0
  8 22  1  0
  9 23  1  0
  9 24  1  0
 10 25  1  0
 10 26  1  0
 12 27  1  0
 12 28  1  0
 12 29  1  0
 13 30  1  0
 13 31  1  0
 13 32  1  0
 14 33  1  0
M  END
>  <UniqueID>  (19) 
15

>  <SMILES>  (19) 
COc1cccc(CCCN(C)C)c1

>  <Energy>  (19) 
31.27742796348426

>  <Genealogy>  (19) 
COc1cccc(CCCN(C)C)c1 (3D coordinates assigned)
COc1cccc(CCCN(C)C)c1 (optimized conformer: 31.27742796348426 kcal/mol)

>  <smiles>  (19) 
COc1cccc(CCCN(C)C)c1

>  <score_type>  (19) 
oracle

>  <origin>  (19) 
adg

>  <m_score__min__energy>  (19) 
-5.3099999999999996

>  <m_primary>  (19) 
energy

$$$$
19:0
     RDKit          3D

 40 42  0  0  0  0  0  0  0  0999 V2000
   61.9190   33.7940   48.6460 C   0  0  0  0  0  0  0  0  0  0  0  0
   60.7210   33.5190   47.7940 C   0  0  0  0  0  0  0  0  0  0  0  0
   59.4380   34.6020   47.6150 S   0  0  0  0  0  0  0  0  0  0  0  0
   58.5630   33.6060   46.5960 C   0  0  0  0  0  0  0  0  0  0  0  0
   57.3520   33.8860   46.0600 N   0  0  0  0  0  0  0  0  0  0  0  0
   56.7620   32.9670   45.2530 C   0  0  0  0  0  0  0  0  0  0  0  0
   57.3880   31.7860   44.9840 N   0  0  0  0  0  0  0  0  0  0  0  0
   58.6110   31.4800   45.5040 C   0  0  0  0  0  0  0  0  0  0  0  0
   59.3450   29.9080   45.0360 S   0  0  0  0  0  0  0  0  0  0  0  0
   57.8590   29.2910   44.1700 C   0  0  0  0  0  0  0  0  0  0  0  0
   56.8500   28.7400   45.1420 C   0  0  0  0  0  0  0  0  0  0  0  0
   55.7250   29.3070   45.2100 O   0  0  0  0  0  0  0  0  0  0  0  0
   57.1430   27.6210   46.0110 N   0  0  0  0  0  0  0  0  0  0  0  0
   56.3230   26.4050   45.9940 C   0  0  0  0  0  0  0  0  0  0  0  0
   58.3440   27.6350   46.8080 C   0  0  0  0  0  0  0  0  0  0  0  0
   59.3660   26.6990   46.5720 C   0  0  0  0  0  0  0  0  0  0  0  0
   60.5280   26.7130   47.3490 C   0  0  0  0  0  0  0  0  0  0  0  0
   60.6780   27.6560   48.3690 C   0  0  0  0  0  0  0  0  0  0  0  0
   59.6650   28.5880   48.6140 C   0  0  0  0  0  0  0  0  0  0  0  0
   58.5020   28.5780   47.8390 C   0  0  0  0  0  0  0  0  0  0  0  0
   59.2330   32.4150   46.3610 C   0  0  0  0  0  0  0  0  0  0  0  0
   60.4690   32.3480   47.0560 C   0  0  0  0  0  0  0  0  0  0  0  0
   61.4070   31.1730   47.0460 C   0  0  0  0  0  0  0  0  0  0  0  0
   61.6369   33.7292   49.7072 H   0  0  0  0  0  0  0  0  0  0  0  0
   62.7016   33.0521   48.4287 H   0  0  0  0  0  0  0  0  0  0  0  0
   62.2997   34.8029   48.4287 H   0  0  0  0  0  0  0  0  0  0  0  0
   55.7751   33.1762   44.8145 H   0  0  0  0  0  0  0  0  0  0  0  0
   57.4013   30.1191   43.6090 H   0  0  0  0  0  0  0  0  0  0  0  0
   58.1639   28.4823   43.4896 H   0  0  0  0  0  0  0  0  0  0  0  0
   56.1113   26.0911   47.0268 H   0  0  0  0  0  0  0  0  0  0  0  0
   55.3767   26.6082   45.4712 H   0  0  0  0  0  0  0  0  0  0  0  0
   56.8660   25.6038   45.4712 H   0  0  0  0  0  0  0  0  0  0  0  0
   59.2508   25.9524   45.7725 H   0  0  0  0  0  0  0  0  0  0  0  0
   61.3257   25.9803   47.1570 H   0  0  0  0  0  0  0  0  0  0  0  0
   61.5931   27.6652   48.9793 H   0  0  0  0  0  0  0  0  0  0  0  0
   59.7835   29.3298   49.4175 H   0  0  0  0  0  0  0  0  0  0  0  0
   57.7063   29.3114   48.0365 H   0  0  0  0  0  0  0  0  0  0  0  0
   61.6401   30.8811   48.0806 H   0  0  0  0  0  0  0  0  0  0  0  0
   60.9317   30.3288   46.5250 H   0  0  0  0  0  0  0  0  0  0  0  0
   62.3355   31.4495   46.5250 H   0  0  0  0  0  0  0  0  0  0  0  0
  1  2  1  0
  2  3  1  0
  3  4  1  0
  4  5  2  0
  5  6  1  0
  6  7  2  0
  7  8  1  0
  8  9  1  0
  9 10  1  0
 10 11  1  0
 11 12  2  0
 11 13  1  0
 13 14  1  0
 13 15  1  0
 15 16  2  0
 16 17  1  0
 17 18  2  0
 18 19  1  0
 19 20  2  0
  8 21  2  0
 21 22  1  0
 22 23  1  0
 22  2  2  0
 21  4  1  0
 20 15  1  0
  1 24  1  0
  1 25  1  0
  1 26  1  0
  6 27  1  0
 10 28  1  0
 10 29  1  0
 14 30  1  0
 14 31  1  0
 14 32  1  0
 16 33  1  0
 17 34  1  0
 18 35  1  0
 19 36  1  0
 20 37  1  0
 23 38  1  0
 23 39  1  0
 23 40  1  0
M  END
>  <UniqueID>  (20) 
16

>  <SMILES>  (20) 
Cc1sc2ncnc(SCC(=O)N(C)c3ccccc3)c2c1C

>  <Energy>  (20) 
79.02797795756729

>  <Genealogy>  (20) 
Cc1sc2ncnc(SCC(=O)N(C)c3ccccc3)c2c1C (3D coordinates assigned)
Cc1sc2ncnc(SCC(=O)N(C)c3ccccc3)c2c1C (optimized conformer: 79.02797795756729 kcal/mol)

>  <smiles>  (20) 
Cc1sc2ncnc(SCC(=O)N(C)c3ccccc3)c2c1C

>  <score_type>  (20) 
oracle

>  <origin>  (20) 
adg

>  <m_score__min__energy>  (20) 
-7.8399999999999999

>  <m_primary>  (20) 
energy

$$$$
20:0
     RDKit          3D

 57 60  0  0  0  0  0  0  0  0999 V2000
   60.7560   28.3050   50.1400 C   0  0  0  0  0  0  0  0  0  0  0  0
   60.1140   29.3420   51.0690 C   0  0  0  0  0  0  0  0  0  0  0  0
   60.5800   30.7270   50.7920 N   0  0  0  0  0  0  0  0  0  0  0  0
   61.8110   31.0590   51.5750 C   0  0  0  0  0  0  0  0  0  0  0  0
   63.0860   30.8350   50.7590 C   0  0  0  0  0  0  0  0  0  0  0  0
   59.4820   31.6780   51.1000 C   0  0  0  0  0  0  0  0  0  0  0  0
   59.9200   33.1460   50.9490 C   0  0  0  0  0  0  0  0  0  0  0  0
   60.1020   33.4770   49.5340 N   0  0  0  0  0  0  0  0  0  0  0  0
   61.3160   33.2400   48.7920 C   0  0  0  0  0  0  0  0  0  0  0  0
   62.4080   34.1270   48.8830 C   0  0  0  0  0  0  0  0  0  0  0  0
   63.6080   33.8430   48.2280 C   0  0  0  0  0  0  0  0  0  0  0  0
   63.7450   32.6690   47.4880 C   0  0  0  0  0  0  0  0  0  0  0  0
   62.6710   31.7850   47.3790 C   0  0  0  0  0  0  0  0  0  0  0  0
   61.4470   32.0780   47.9940 C   0  0  0  0  0  0  0  0  0  0  0  0
   60.3590   31.1580   47.8290 N   0  0  0  0  0  0  0  0  0  0  0  0
   59.4450   31.0930   46.8900 C   0  0  0  0  0  0  0  0  0  0  0  0
   58.9410   29.8080   46.5630 C   0  0  0  0  0  0  0  0  0  0  0  0
   59.5130   28.6260   47.0900 C   0  0  0  0  0  0  0  0  0  0  0  0
   58.9630   27.3770   46.7880 C   0  0  0  0  0  0  0  0  0  0  0  0
   57.8370   27.2840   45.9660 C   0  0  0  0  0  0  0  0  0  0  0  0
   57.2550   28.4410   45.4440 C   0  0  0  0  0  0  0  0  0  0  0  0
   57.7990   29.6970   45.7380 C   0  0  0  0  0  0  0  0  0  0  0  0
   57.2090   30.8080   45.2380 N   0  0  0  0  0  0  0  0  0  0  0  0
   57.7050   32.0510   45.4530 C   0  0  0  0  0  0  0  0  0  0  0  0
   57.0680   33.1430   44.8520 C   0  0  0  0  0  0  0  0  0  0  0  0
   57.6160   34.4190   44.9520 C   0  0  0  0  0  0  0  0  0  0  0  0
   58.8250   34.6040   45.6170 C   0  0  0  0  0  0  0  0  0  0  0  0
   59.4640   33.5250   46.2320 C   0  0  0  0  0  0  0  0  0  0  0  0
   58.8780   32.2350   46.2330 C   0  0  0  0  0  0  0  0  0  0  0  0
   61.2403   27.5227   50.7428 H   0  0  0  0  0  0  0  0  0  0  0  0
   59.9805   27.8514   49.5053 H   0  0  0  0  0  0  0  0  0  0  0  0
   61.5078   28.7969   49.5053 H   0  0  0  0  0  0  0  0  0  0  0  0
   59.0226   29.3049   50.9370 H   0  0  0  0  0  0  0  0  0  0  0  0
   60.4078   29.0923   52.0992 H   0  0  0  0  0  0  0  0  0  0  0  0
   60.7670   30.7890   49.7610 H   0  0  0  0  0  0  0  0  0  0  0  0
   61.7647   32.1151   51.8790 H   0  0  0  0  0  0  0  0  0  0  0  0
   61.8466   30.3945   52.4509 H   0  0  0  0  0  0  0  0  0  0  0  0
   63.9362   30.6856   51.4408 H   0  0  0  0  0  0  0  0  0  0  0  0
   62.9638   29.9446   50.1248 H   0  0  0  0  0  0  0  0  0  0  0  0
   63.2746   31.7138   50.1248 H   0  0  0  0  0  0  0  0  0  0  0  0
   58.6449   31.4863   50.4126 H   0  0  0  0  0  0  0  0  0  0  0  0
   59.1858   31.5216   52.1478 H   0  0  0  0  0  0  0  0  0  0  0  0
   59.1483   33.8014   51.3790 H   0  0  0  0  0  0  0  0  0  0  0  0
   60.8738   33.2919   51.4771 H   0  0  0  0  0  0  0  0  0  0  0  0
   59.2910   33.9230   49.0480 H   0  0  0  0  0  0  0  0  0  0  0  0
   62.3140   35.0497   49.4744 H   0  0  0  0  0  0  0  0  0  0  0  0
   64.4492   34.5486   48.2960 H   0  0  0  0  0  0  0  0  0  0  0  0
   64.6990   32.4400   46.9906 H   0  0  0  0  0  0  0  0  0  0  0  0
   62.7861   30.8526   46.8068 H   0  0  0  0  0  0  0  0  0  0  0  0
   60.3967   28.6905   47.7419 H   0  0  0  0  0  0  0  0  0  0  0  0
   59.4183   26.4639   47.1990 H   0  0  0  0  0  0  0  0  0  0  0  0
   57.4087   26.2987   45.7299 H   0  0  0  0  0  0  0  0  0  0  0  0
   56.3665   28.3653   44.7999 H   0  0  0  0  0  0  0  0  0  0  0  0
   56.1298   32.9922   44.2979 H   0  0  0  0  0  0  0  0  0  0  0  0
   57.0948   35.2791   44.5065 H   0  0  0  0  0  0  0  0  0  0  0  0
   59.2793   35.6050   45.6583 H   0  0  0  0  0  0  0  0  0  0  0  0
   60.4364   33.6790   46.7227 H   0  0  0  0  0  0  0  0  0  0  0  0
  1  2  1  0
  2  3  1  0
  3  4  1  0
  4  5  1  0
  3  6  1  0
  6  7  1  0
  7  8  1  0
  8  9  1  0
  9 10  2  0
 10 11  1  0
 11 12  2  0
 12 13  1  0
 13 14  2  0
 14 15  1  0
 15 16  2  3
 16 17  1  0
 17 18  2  0
 18 19  1  0
 19 20  2  0
 20 21  1  0
 21 22  2  0
 22 23  1  0
 23 24  1  0
 24 25  2  0
 25 26  1  0
 26 27  2  0
 27 28  1  0
 28 29  2  0
 14  9  1  0
 29 16  1  0
 22 17  1  0
 29 24  1  0
  1 30  1  0
  1 31  1  0
  1 32  1  0
  2 33  1  0
  2 34  1  0
  3 35  1  0
  4 36  1  0
  4 37  1  0
  5 38  1  0
  5 39  1  0
  5 40  1  0
  6 41  1  0
  6 42  1  0
  7 43  1  0
  7 44  1  0
  8 45  1  0
 10 46  1  0
 11 47  1  0
 12 48  1  0
 13 49  1  0
 18 50  1  0
 19 51  1  0
 20 52  1  0
 21 53  1  0
 25 54  1  0
 26 55  1  0
 27 56  1  0
 28 57  1  0
M  CHG  2   3   1  23  -1
M  END
>  <UniqueID>  (21) 
17

>  <SMILES>  (21) 
CC[NH+](CC)CCNc1ccccc1N=c1c2ccccc2[n-]c2ccccc12

>  <Energy>  (21) 
88.24640559276062

>  <Genealogy>  (21) 
CC[NH+](CC)CCNc1ccccc1N=c1c2ccccc2[n-]c2ccccc12 (protonated)
CC[NH+](CC)CCNc1ccccc1N=c1c2ccccc2[n-]c2ccccc12 (3D coordinates assigned)
CC[NH+](CC)CCNc1ccccc1N=c1c2ccccc2[n-]c2ccccc12 (optimized conformer: 88.24640559276062 kcal/mol)

>  <smiles>  (21) 
CCN(CC)CCNc1ccccc1N=c1c2ccccc2[nH]c2ccccc12

>  <score_type>  (21) 
oracle

>  <origin>  (21) 
adg

>  <m_score__min__energy>  (21) 
-7.3799999999999999

>  <m_primary>  (21) 
energy

$$$$
21:0
     RDKit          3D

 47 49  0  0  0  0  0  0  0  0999 V2000
   56.5990   30.4650   43.2170 C   0  0  0  0  0  0  0  0  0  0  0  0
   56.6350   31.0970   44.4920 O   0  0  0  0  0  0  0  0  0  0  0  0
   57.7820   31.2010   45.2970 C   0  0  0  0  0  0  0  0  0  0  0  0
   58.5220   30.0700   45.6910 C   0  0  0  0  0  0  0  0  0  0  0  0
   59.6590   30.2080   46.4900 C   0  0  0  0  0  0  0  0  0  0  0  0
   60.0730   31.4780   46.9090 C   0  0  0  0  0  0  0  0  0  0  0  0
   61.2100   31.6390   47.7120 C   0  0  0  0  0  0  0  0  0  0  0  0
   61.6080   32.9220   48.1250 C   0  0  0  0  0  0  0  0  0  0  0  0
   62.8110   33.1070   48.9760 C   0  0  0  0  0  0  0  0  0  0  0  0
   62.7390   33.8580   50.1630 C   0  0  0  0  0  0  0  0  0  0  0  0
   63.8700   34.0320   50.9650 C   0  0  0  0  0  0  0  0  0  0  0  0
   65.1010   33.4600   50.5920 C   0  0  0  0  0  0  0  0  0  0  0  0
   66.2710   33.6030   51.3570 O   0  0  0  0  0  0  0  0  0  0  0  0
   67.4860   34.2040   50.9100 C   0  0  0  0  0  0  0  0  0  0  0  0
   67.8020   35.4590   51.7410 C   0  0  0  0  0  0  0  0  0  0  0  0
   66.8790   35.6270   52.8900 N   0  0  0  0  0  0  0  0  0  0  0  0
   67.6450   35.6390   54.1500 C   0  0  0  0  0  0  0  0  0  0  0  0
   66.0950   36.8710   52.7780 C   0  0  0  0  0  0  0  0  0  0  0  0
   65.1730   32.7110   49.4130 C   0  0  0  0  0  0  0  0  0  0  0  0
   64.0420   32.5340   48.6110 C   0  0  0  0  0  0  0  0  0  0  0  0
   60.8430   34.0260   47.7130 C   0  0  0  0  0  0  0  0  0  0  0  0
   59.7440   33.8500   46.9330 N   0  0  0  0  0  0  0  0  0  0  0  0
   59.3400   32.6190   46.5210 C   0  0  0  0  0  0  0  0  0  0  0  0
   58.1960   32.4770   45.7170 C   0  0  0  0  0  0  0  0  0  0  0  0
   57.2760   33.8990   45.2290 Cl  0  0  0  0  0  0  0  0  0  0  0  0
   56.5369   29.3748   43.3498 H   0  0  0  0  0  0  0  0  0  0  0  0
   55.7194   30.8170   42.6580 H   0  0  0  0  0  0  0  0  0  0  0  0
   57.5128   30.7148   42.6580 H   0  0  0  0  0  0  0  0  0  0  0  0
   58.2018   29.0689   45.3667 H   0  0  0  0  0  0  0  0  0  0  0  0
   60.2302   29.3173   46.7906 H   0  0  0  0  0  0  0  0  0  0  0  0
   61.7928   30.7584   48.0201 H   0  0  0  0  0  0  0  0  0  0  0  0
   61.7833   34.3127   50.4629 H   0  0  0  0  0  0  0  0  0  0  0  0
   63.7980   34.6189   51.8925 H   0  0  0  0  0  0  0  0  0  0  0  0
   68.3085   33.4816   51.0177 H   0  0  0  0  0  0  0  0  0  0  0  0
   67.3729   34.4943   49.8550 H   0  0  0  0  0  0  0  0  0  0  0  0
   68.8303   35.3791   52.1234 H   0  0  0  0  0  0  0  0  0  0  0  0
   67.6812   36.3335   51.0847 H   0  0  0  0  0  0  0  0  0  0  0  0
   66.2170   34.8160   52.9280 H   0  0  0  0  0  0  0  0  0  0  0  0
   66.9494   35.6281   55.0021 H   0  0  0  0  0  0  0  0  0  0  0  0
   68.2926   34.7509   54.1939 H   0  0  0  0  0  0  0  0  0  0  0  0
   68.2644   36.5470   54.1939 H   0  0  0  0  0  0  0  0  0  0  0  0
   65.8581   37.2469   53.7842 H   0  0  0  0  0  0  0  0  0  0  0  0
   66.6809   37.6259   52.2331 H   0  0  0  0  0  0  0  0  0  0  0  0
   65.1612   36.6681   52.2331 H   0  0  0  0  0  0  0  0  0  0  0  0
   66.1291   32.2567   49.1140 H   0  0  0  0  0  0  0  0  0  0  0  0
   64.1156   31.9417   47.6870 H   0  0  0  0  0  0  0  0  0  0  0  0
   61.1355   35.0398   48.0239 H   0  0  0  0  0  0  0  0  0  0  0  0
  1  2  1  0
  2  3  1  0
  3  4  2  0
  4  5  1  0
  5  6  2  0
  6  7  1  0
  7  8  2  0
  8  9  1  0
  9 10  2  0
 10 11  1  0
 11 12  2  0
 12 13  1  0
 13 14  1  0
 14 15  1  0
 15 16  1  0
 16 17  1  0
 16 18  1  0
 12 19  1  0
 19 20  2  0
  8 21  1  0
 21 22  2  0
 22 23  1  0
 23 24  2  0
 24 25  1  0
 24  3  1  0
 23  6  1  0
 20  9  1  0
  1 26  1  0
  1 27  1  0
  1 28  1  0
  4 29  1  0
  5 30  1  0
  7 31  1  0
 10 32  1  0
 11 33  1  0
 14 34  1  0
 14 35  1  0
 15 36  1  0
 15 37  1  0
 16 38  1  0
 17 39  1  0
 17 40  1  0
 17 41  1  0
 18 42  1  0
 18 43  1  0
 18 44  1  0
 19 45  1  0
 20 46  1  0
 21 47  1  0
M  CHG  1  16   1
M  END
>  <UniqueID>  (22) 
18

>  <SMILES>  (22) 
COc1ccc2cc(-c3ccc(OCC[NH+](C)C)cc3)cnc2c1Cl

>  <Energy>  (22) 
57.78771410432535

>  <Genealogy>  (22) 
COc1ccc2cc(-c3ccc(OCC[NH+](C)C)cc3)cnc2c1Cl (protonated)
COc1ccc2cc(-c3ccc(OCC[NH+](C)C)cc3)cnc2c1Cl (3D coordinates assigned)
COc1ccc2cc(-c3ccc(OCC[NH+](C)C)cc3)cnc2c1Cl (optimized conformer: 57.78771410432535 kcal/mol)

>  <smiles>  (22) 
COc1ccc2cc(-c3ccc(OCCN(C)C)cc3)cnc2c1Cl

>  <score_type>  (22) 
oracle

>  <origin>  (22) 
adg

>  <m_score__min__energy>  (22) 
-6.1299999999999999

>  <m_primary>  (22) 
energy

$$$$
22:0
     RDKit          3D

 44 45  0  0  0  0  0  0  0  0999 V2000
   58.1320   27.7310   47.3060 C   0  0  0  0  0  0  0  0  0  0  0  0
   57.6940   27.3460   45.9540 N   0  0  0  0  0  0  0  0  0  0  0  0
   56.7870   26.1910   46.0390 C   0  0  0  0  0  0  0  0  0  0  0  0
   58.8510   27.0400   45.0820 C   0  0  0  0  0  0  0  0  0  0  0  0
   58.7620   27.8070   43.7470 C   0  0  0  0  0  0  0  0  0  0  0  0
   57.3780   28.0810   43.3230 N   0  0  0  0  0  0  0  0  0  0  0  0
   57.1170   29.5150   43.1510 C   0  0  0  0  0  0  0  0  0  0  0  0
   56.3620   30.0490   44.3360 C   0  0  0  0  0  0  0  0  0  0  0  0
   55.4720   29.3370   44.8700 O   0  0  0  0  0  0  0  0  0  0  0  0
   56.6450   31.3400   44.8960 N   0  0  0  0  0  0  0  0  0  0  0  0
   57.8560   31.7330   45.5570 C   0  0  0  0  0  0  0  0  0  0  0  0
   58.1320   33.0790   45.8490 C   0  0  0  0  0  0  0  0  0  0  0  0
   59.3200   33.4320   46.4930 C   0  0  0  0  0  0  0  0  0  0  0  0
   60.2450   32.4440   46.8780 C   0  0  0  0  0  0  0  0  0  0  0  0
   61.5120   32.8200   47.5540 C   0  0  0  0  0  0  0  0  0  0  0  0
   61.5120   33.7190   48.6330 C   0  0  0  0  0  0  0  0  0  0  0  0
   62.7110   34.0650   49.2580 C   0  0  0  0  0  0  0  0  0  0  0  0
   63.9070   33.5110   48.8000 C   0  0  0  0  0  0  0  0  0  0  0  0
   63.9000   32.6410   47.7550 N   0  0  0  0  0  0  0  0  0  0  0  0
   62.7440   32.2890   47.1280 C   0  0  0  0  0  0  0  0  0  0  0  0
   59.9450   31.0940   46.6160 C   0  0  0  0  0  0  0  0  0  0  0  0
   58.7560   30.7450   45.9680 C   0  0  0  0  0  0  0  0  0  0  0  0
   57.5258   27.1982   48.0534 H   0  0  0  0  0  0  0  0  0  0  0  0
   59.1917   27.4666   47.4373 H   0  0  0  0  0  0  0  0  0  0  0  0
   58.0057   28.8158   47.4373 H   0  0  0  0  0  0  0  0  0  0  0  0
   56.5979   25.9502   47.0955 H   0  0  0  0  0  0  0  0  0  0  0  0
   55.8360   26.4342   45.5425 H   0  0  0  0  0  0  0  0  0  0  0  0
   57.2488   25.3248   45.5425 H   0  0  0  0  0  0  0  0  0  0  0  0
   59.7772   27.3286   45.6005 H   0  0  0  0  0  0  0  0  0  0  0  0
   58.8477   25.9617   44.8649 H   0  0  0  0  0  0  0  0  0  0  0  0
   59.2889   28.7660   43.8596 H   0  0  0  0  0  0  0  0  0  0  0  0
   59.2192   27.1708   42.9749 H   0  0  0  0  0  0  0  0  0  0  0  0
   56.7130   27.6930   44.0330 H   0  0  0  0  0  0  0  0  0  0  0  0
   58.0735   30.0502   43.0579 H   0  0  0  0  0  0  0  0  0  0  0  0
   56.5142   29.6646   42.2431 H   0  0  0  0  0  0  0  0  0  0  0  0
   57.4087   33.8591   45.5690 H   0  0  0  0  0  0  0  0  0  0  0  0
   59.5342   34.4907   46.7009 H   0  0  0  0  0  0  0  0  0  0  0  0
   60.5644   34.1516   48.9865 H   0  0  0  0  0  0  0  0  0  0  0  0
   62.7131   34.7681   50.1040 H   0  0  0  0  0  0  0  0  0  0  0  0
   64.8573   33.7786   49.2852 H   0  0  0  0  0  0  0  0  0  0  0  0
   64.8030   32.2330   47.4260 H   0  0  0  0  0  0  0  0  0  0  0  0
   62.7729   31.5852   46.2831 H   0  0  0  0  0  0  0  0  0  0  0  0
   60.6507   30.3081   46.9231 H   0  0  0  0  0  0  0  0  0  0  0  0
   58.5271   29.6856   45.7802 H   0  0  0  0  0  0  0  0  0  0  0  0
  1  2  1  0
  2  3  1  0
  2  4  1  0
  4  5  1  0
  5  6  1  0
  6  7  1  0
  7  8  1  0
  8  9  2  0
  8 10  1  0
 10 11  1  0
 11 12  2  0
 12 13  1  0
 13 14  2  0
 14 15  1  0
 15 16  2  0
 16 17  1  0
 17 18  2  0
 18 19  1  0
 19 20  2  0
 14 21  1  0
 21 22  2  0
 22 11  1  0
 20 15  1  0
  1 23  1  0
  1 24  1  0
  1 25  1  0
  3 26  1  0
  3 27  1  0
  3 28  1  0
  4 29  1  0
  4 30  1  0
  5 31  1  0
  5 32  1  0
  6 33  1  0
  7 34  1  0
  7 35  1  0
 12 36  1  0
 13 37  1  0
 16 38  1  0
 17 39  1  0
 18 40  1  0
 19 41  1  0
 20 42  1  0
 21 43  1  0
 22 44  1  0
M  CHG  2  10  -1  19   1
M  END
>  <UniqueID>  (23) 
19

>  <SMILES>  (23) 
CN(C)CCNCC(=O)[N-]c1ccc(-c2ccc[nH+]c2)cc1

>  <Energy>  (23) 
52.65216616676538

>  <Genealogy>  (23) 
CN(C)CCNCC(=O)[N-]c1ccc(-c2ccc[nH+]c2)cc1 (protonated)
CN(C)CCNCC(=O)[N-]c1ccc(-c2ccc[nH+]c2)cc1 (3D coordinates assigned)
CN(C)CCNCC(=O)[N-]c1ccc(-c2ccc[nH+]c2)cc1 (optimized conformer: 52.65216616676538 kcal/mol)

>  <smiles>  (23) 
CN(C)CCNCC(=O)Nc1ccc(-c2cccnc2)cc1

>  <score_type>  (23) 
oracle

>  <origin>  (23) 
adg

>  <m_score__min__energy>  (23) 
-7.7699999999999996

>  <m_primary>  (23) 
energy

$$$$
23:0
     RDKit          3D

 28 28  0  0  0  0  0  0  0  0999 V2000
   57.0050   32.8460   40.4050 C   0  0  0  0  0  0  0  0  0  0  0  0
   58.4250   32.3970   41.4480 S   0  0  0  0  0  0  0  0  0  0  0  0
   57.4170   31.5160   42.6540 C   0  0  0  0  0  0  0  0  0  0  0  0
   56.7070   30.3800   42.2540 C   0  0  0  0  0  0  0  0  0  0  0  0
   55.9270   29.6820   43.1780 C   0  0  0  0  0  0  0  0  0  0  0  0
   55.8700   30.1280   44.4990 C   0  0  0  0  0  0  0  0  0  0  0  0
   56.5680   31.2330   44.8750 N   0  0  0  0  0  0  0  0  0  0  0  0
   57.3350   31.9330   43.9960 C   0  0  0  0  0  0  0  0  0  0  0  0
   58.0430   33.0970   44.4590 C   0  0  0  0  0  0  0  0  0  0  0  0
   58.6480   34.0600   44.8540 C   0  0  0  0  0  0  0  0  0  0  0  0
   59.3820   35.2450   45.3170 C   0  0  0  0  0  0  0  0  0  0  0  0
   60.0120   34.9770   46.6260 N   0  0  0  0  0  0  0  0  0  0  0  0
   61.1580   34.0710   46.4550 C   0  0  0  0  0  0  0  0  0  0  0  0
   59.0450   34.3760   47.5620 C   0  0  0  0  0  0  0  0  0  0  0  0
   56.1514   33.1159   41.0441 H   0  0  0  0  0  0  0  0  0  0  0  0
   57.2730   33.7032   39.7699 H   0  0  0  0  0  0  0  0  0  0  0  0
   56.7315   31.9905   39.7699 H   0  0  0  0  0  0  0  0  0  0  0  0
   56.7629   30.0359   41.2107 H   0  0  0  0  0  0  0  0  0  0  0  0
   55.3633   28.7898   42.8679 H   0  0  0  0  0  0  0  0  0  0  0  0
   55.2602   29.5856   45.2365 H   0  0  0  0  0  0  0  0  0  0  0  0
   60.1618   35.4986   44.5838 H   0  0  0  0  0  0  0  0  0  0  0  0
   58.6783   36.0838   45.4229 H   0  0  0  0  0  0  0  0  0  0  0  0
   61.5383   33.7704   47.4424 H   0  0  0  0  0  0  0  0  0  0  0  0
   60.8394   33.1780   45.8973 H   0  0  0  0  0  0  0  0  0  0  0  0
   61.9534   34.5871   45.8973 H   0  0  0  0  0  0  0  0  0  0  0  0
   59.3638   34.5741   48.5960 H   0  0  0  0  0  0  0  0  0  0  0  0
   58.0506   34.8155   47.3943 H   0  0  0  0  0  0  0  0  0  0  0  0
   58.9988   33.2898   47.3943 H   0  0  0  0  0  0  0  0  0  0  0  0
  1  2  1  0
  2  3  1  0
  3  4  2  0
  4  5  1  0
  5  6  2  0
  6  7  1  0
  7  8  2  0
  8  9  1  0
  9 10  3  0
 10 11  1  0
 11 12  1  0
 12 13  1  0
 12 14  1  0
  8  3  1  0
  1 15  1  0
  1 16  1  0
  1 17  1  0
  4 18  1  0
  5 19  1  0
  6 20  1  0
 11 21  1  0
 11 22  1  0
 13 23  1  0
 13 24  1  0
 13 25  1  0
 14 26  1  0
 14 27  1  0
 14 28  1  0
M  END
>  <UniqueID>  (24) 
20

>  <SMILES>  (24) 
CSc1cccnc1C#CCN(C)C

>  <Energy>  (24) 
17.939872410427178

>  <Genealogy>  (24) 
CSc1cccnc1C#CCN(C)C (3D coordinates assigned)
CSc1cccnc1C#CCN(C)C (optimized conformer: 17.939872410427178 kcal/mol)

>  <smiles>  (24) 
CSc1cccnc1C#CCN(C)C

>  <score_type>  (24) 
oracle

>  <origin>  (24) 
adg

>  <m_score__min__energy>  (24) 
-5.2999999999999998

>  <m_primary>  (24) 
energy

$$$$
24:0
     RDKit          3D

 31 32  0  0  0  0  0  0  0  0999 V2000
   62.8130   33.5180   46.9640 C   0  0  0  0  0  0  0  0  0  0  0  0
   61.9610   33.4280   47.8120 C   0  0  0  0  0  0  0  0  0  0  0  0
   60.9240   33.3180   48.8440 C   0  0  0  0  0  0  0  0  0  0  0  0
   59.7620   34.2660   48.5400 C   0  0  0  0  0  0  0  0  0  0  0  0
   59.2250   34.0100   47.1570 C   0  0  0  0  0  0  0  0  0  0  0  0
   59.3910   34.9670   46.1440 C   0  0  0  0  0  0  0  0  0  0  0  0
   58.8730   34.7350   44.8670 C   0  0  0  0  0  0  0  0  0  0  0  0
   58.1700   33.5590   44.5980 C   0  0  0  0  0  0  0  0  0  0  0  0
   57.9630   32.6110   45.6060 C   0  0  0  0  0  0  0  0  0  0  0  0
   57.2520   31.4420   45.2970 O   0  0  0  0  0  0  0  0  0  0  0  0
   57.8270   30.2180   44.9230 C   0  0  0  0  0  0  0  0  0  0  0  0
   57.1590   29.4190   43.9870 C   0  0  0  0  0  0  0  0  0  0  0  0
   57.6920   28.1860   43.6000 C   0  0  0  0  0  0  0  0  0  0  0  0
   58.8920   27.7370   44.1560 C   0  0  0  0  0  0  0  0  0  0  0  0
   59.5570   28.5170   45.1060 C   0  0  0  0  0  0  0  0  0  0  0  0
   59.0250   29.7510   45.4950 C   0  0  0  0  0  0  0  0  0  0  0  0
   58.5090   32.8340   46.8840 C   0  0  0  0  0  0  0  0  0  0  0  0
   63.5905   33.6001   46.1902 H   0  0  0  0  0  0  0  0  0  0  0  0
   60.5497   32.2840   48.8721 H   0  0  0  0  0  0  0  0  0  0  0  0
   61.3599   33.5903   49.8165 H   0  0  0  0  0  0  0  0  0  0  0  0
   58.9604   34.1047   49.2758 H   0  0  0  0  0  0  0  0  0  0  0  0
   60.1233   35.3034   48.5965 H   0  0  0  0  0  0  0  0  0  0  0  0
   59.9302   35.9021   46.3557 H   0  0  0  0  0  0  0  0  0  0  0  0
   59.0195   35.4807   44.0717 H   0  0  0  0  0  0  0  0  0  0  0  0
   57.7764   33.3767   43.5871 H   0  0  0  0  0  0  0  0  0  0  0  0
   56.2087   29.7638   43.5534 H   0  0  0  0  0  0  0  0  0  0  0  0
   57.1658   27.5688   42.8569 H   0  0  0  0  0  0  0  0  0  0  0  0
   59.3137   26.7694   43.8461 H   0  0  0  0  0  0  0  0  0  0  0  0
   60.4991   28.1605   45.5480 H   0  0  0  0  0  0  0  0  0  0  0  0
   59.5449   30.3583   46.2506 H   0  0  0  0  0  0  0  0  0  0  0  0
   58.3736   32.0812   47.6746 H   0  0  0  0  0  0  0  0  0  0  0  0
  1  2  3  0
  2  3  1  0
  3  4  1  0
  4  5  1  0
  5  6  2  0
  6  7  1  0
  7  8  2  0
  8  9  1  0
  9 10  1  0
 10 11  1  0
 11 12  2  0
 12 13  1  0
 13 14  2  0
 14 15  1  0
 15 16  2  0
  9 17  2  0
 17  5  1  0
 16 11  1  0
  1 18  1  0
  3 19  1  0
  3 20  1  0
  4 21  1  0
  4 22  1  0
  6 23  1  0
  7 24  1  0
  8 25  1  0
 12 26  1  0
 13 27  1  0
 14 28  1  0
 15 29  1  0
 16 30  1  0
 17 31  1  0
M  END
>  <UniqueID>  (25) 
21

>  <SMILES>  (25) 
C#CCCc1cccc(Oc2ccccc2)c1

>  <Energy>  (25) 
32.25889133774981

>  <Genealogy>  (25) 
C#CCCc1cccc(Oc2ccccc2)c1 (3D coordinates assigned)
C#CCCc1cccc(Oc2ccccc2)c1 (optimized conformer: 32.25889133774981 kcal/mol)

>  <smiles>  (25) 
C#CCCc1cccc(Oc2ccccc2)c1

>  <score_type>  (25) 
oracle

>  <origin>  (25) 
adg

>  <m_score__min__energy>  (25) 
-6.4800000000000004

>  <m_primary>  (25) 
energy

$$$$
25:0
     RDKit          3D

 79 82  0  0  0  0  0  0  0  0999 V2000
   61.5080   27.1360   51.0800 C   0  0  0  0  0  0  0  0  0  0  0  0
   62.1790   26.9560   52.4530 C   0  0  0  0  0  0  0  0  0  0  0  0
   62.1600   28.1980   53.2660 N   0  0  0  0  0  0  0  0  0  0  0  0
   61.4360   27.9710   54.5460 C   0  0  0  0  0  0  0  0  0  0  0  0
   61.2390   29.2650   55.3530 C   0  0  0  0  0  0  0  0  0  0  0  0
   63.5150   28.8030   53.4190 C   0  0  0  0  0  0  0  0  0  0  0  0
   63.8460   29.9970   52.5030 C   0  0  0  0  0  0  0  0  0  0  0  0
   62.8200   30.2750   51.5520 O   0  0  0  0  0  0  0  0  0  0  0  0
   61.7710   31.1520   51.8610 C   0  0  0  0  0  0  0  0  0  0  0  0
   61.1580   31.0050   52.9510 O   0  0  0  0  0  0  0  0  0  0  0  0
   61.3350   32.1910   50.8790 C   0  0  0  0  0  0  0  0  0  0  0  0
   60.5470   33.2500   51.2260 C   0  0  0  0  0  0  0  0  0  0  0  0
   60.2060   33.5910   52.6520 C   0  0  0  0  0  0  0  0  0  0  0  0
   59.9460   34.0740   50.2160 N   0  0  0  0  0  0  0  0  0  0  0  0
   60.2980   34.0380   48.9710 C   0  0  0  0  0  0  0  0  0  0  0  0
   59.6600   34.9680   47.9790 C   0  0  0  0  0  0  0  0  0  0  0  0
   59.2170   34.2300   46.6680 C   0  0  0  0  0  0  0  0  0  0  0  0
   57.7250   33.8380   46.7930 C   0  0  0  0  0  0  0  0  0  0  0  0
   59.3610   35.2040   45.4790 C   0  0  0  0  0  0  0  0  0  0  0  0
   60.0580   32.9380   46.3810 C   0  0  0  0  0  0  0  0  0  0  0  0
   61.4120   32.9890   47.0470 C   0  0  0  0  0  0  0  0  0  0  0  0
   62.4280   32.9450   46.3730 O   0  0  0  0  0  0  0  0  0  0  0  0
   61.4920   33.2240   48.5430 C   0  0  2  0  0  0  0  0  0  0  0  0
   61.6320   31.9300   49.4020 C   0  0  2  0  0  0  0  0  0  0  0  0
   60.7650   30.7890   48.9020 C   0  0  0  0  0  0  0  0  0  0  0  0
   61.0980   29.9310   47.8670 C   0  0  0  0  0  0  0  0  0  0  0  0
   60.1010   29.0470   47.7120 N   0  0  0  0  0  0  0  0  0  0  0  0
   60.0000   28.0400   46.6580 C   0  0  0  0  0  0  0  0  0  0  0  0
   59.5720   28.6800   45.3330 C   0  0  0  0  0  0  0  0  0  0  0  0
   58.3550   29.4850   45.4960 C   0  0  0  0  0  0  0  0  0  0  0  0
   57.3990   30.1170   45.6310 N   0  0  0  0  0  0  0  0  0  0  0  0
   59.1470   29.2840   48.5950 N   0  0  0  0  0  0  0  0  0  0  0  0
   59.5140   30.3360   49.3530 C   0  0  0  0  0  0  0  0  0  0  0  0
   58.6680   30.8430   50.4680 C   0  0  0  0  0  0  0  0  0  0  0  0
   57.7380   32.2490   50.4630 S   0  0  0  0  0  0  0  0  0  0  0  0
   57.1540   32.1410   52.0300 C   0  0  0  0  0  0  0  0  0  0  0  0
   57.6680   30.9850   52.5980 C   0  0  0  0  0  0  0  0  0  0  0  0
   58.5140   30.2580   51.7390 C   0  0  0  0  0  0  0  0  0  0  0  0
   59.1730   28.9820   52.1750 C   0  0  0  0  0  0  0  0  0  0  0  0
   60.4543   27.4187   51.2211 H   0  0  0  0  0  0  0  0  0  0  0  0
   62.0277   27.9265   50.5187 H   0  0  0  0  0  0  0  0  0  0  0  0
   61.5623   26.1915   50.5187 H   0  0  0  0  0  0  0  0  0  0  0  0
   61.6472   26.1663   53.0040 H   0  0  0  0  0  0  0  0  0  0  0  0
   63.2316   26.6899   52.2766 H   0  0  0  0  0  0  0  0  0  0  0  0
   61.5790   28.8890   52.7330 H   0  0  0  0  0  0  0  0  0  0  0  0
   60.4481   27.5428   54.3206 H   0  0  0  0  0  0  0  0  0  0  0  0
   62.0453   27.2880   55.1562 H   0  0  0  0  0  0  0  0  0  0  0  0
   61.2739   29.0355   56.4282 H   0  0  0  0  0  0  0  0  0  0  0  0
   62.0390   29.9778   55.1040 H   0  0  0  0  0  0  0  0  0  0  0  0
   60.2631   29.7074   55.1040 H   0  0  0  0  0  0  0  0  0  0  0  0
   63.6122   29.1444   54.4602 H   0  0  0  0  0  0  0  0  0  0  0  0
   64.2204   28.0107   53.1282 H   0  0  0  0  0  0  0  0  0  0  0  0
   63.9929   30.8888   53.1300 H   0  0  0  0  0  0  0  0  0  0  0  0
   64.7534   29.7355   51.9389 H   0  0  0  0  0  0  0  0  0  0  0  0
   60.8176   32.9794   53.3316 H   0  0  0  0  0  0  0  0  0  0  0  0
   60.4107   34.6565   52.8332 H   0  0  0  0  0  0  0  0  0  0  0  0
   59.1405   33.3863   52.8332 H   0  0  0  0  0  0  0  0  0  0  0  0
   58.7742   35.4262   48.4432 H   0  0  0  0  0  0  0  0  0  0  0  0
   60.4068   35.7264   47.7013 H   0  0  0  0  0  0  0  0  0  0  0  0
   57.4525   33.7664   47.8563 H   0  0  0  0  0  0  0  0  0  0  0  0
   57.1028   34.6032   46.3058 H   0  0  0  0  0  0  0  0  0  0  0  0
   57.5592   32.8658   46.3058 H   0  0  0  0  0  0  0  0  0  0  0  0
   59.5120   36.2255   45.8580 H   0  0  0  0  0  0  0  0  0  0  0  0
   60.2253   34.9089   44.8659 H   0  0  0  0  0  0  0  0  0  0  0  0
   58.4483   35.1716   44.8659 H   0  0  0  0  0  0  0  0  0  0  0  0
   59.5079   32.0640   46.7598 H   0  0  0  0  0  0  0  0  0  0  0  0
   60.2146   32.8671   45.2945 H   0  0  0  0  0  0  0  0  0  0  0  0
   62.4260   33.7739   48.7306 H   0  0  0  0  0  0  0  0  0  0  0  0
   62.6834   31.6243   49.2966 H   0  0  0  0  0  0  0  0  0  0  0  0
   62.0230   29.9681   47.2729 H   0  0  0  0  0  0  0  0  0  0  0  0
   60.9795   27.5572   46.5255 H   0  0  0  0  0  0  0  0  0  0  0  0
   59.2435   27.2973   46.9514 H   0  0  0  0  0  0  0  0  0  0  0  0
   60.3835   29.3275   44.9696 H   0  0  0  0  0  0  0  0  0  0  0  0
   59.3617   27.8763   44.6120 H   0  0  0  0  0  0  0  0  0  0  0  0
   56.4818   32.8599   52.5212 H   0  0  0  0  0  0  0  0  0  0  0  0
   57.4362   30.6656   53.6248 H   0  0  0  0  0  0  0  0  0  0  0  0
   59.1957   28.9380   53.2739 H   0  0  0  0  0  0  0  0  0  0  0  0
   58.6051   28.1243   51.7853 H   0  0  0  0  0  0  0  0  0  0  0  0
   60.2011   28.9486   51.7853 H   0  0  0  0  0  0  0  0  0  0  0  0
  1  2  1  0
  2  3  1  0
  3  4  1  0
  4  5  1  0
  3  6  1  0
  6  7  1  0
  7  8  1  0
  8  9  1  0
  9 10  2  0
  9 11  1  0
 11 12  2  0
 12 13  1  0
 12 14  1  0
 14 15  2  0
 15 16  1  0
 16 17  1  0
 17 18  1  0
 17 19  1  0
 17 20  1  0
 20 21  1  0
 21 22  2  0
 21 23  1  0
 23 24  1  0
 24 25  1  0
 25 26  2  0
 26 27  1  0
 27 28  1  0
 28 29  1  0
 29 30  1  0
 30 31  3  0
 27 32  1  0
 32 33  2  0
 33 34  1  0
 34 35  1  0
 35 36  1  0
 36 37  2  0
 37 38  1  0
 38 39  1  0
 24 11  1  0
 33 25  1  0
 38 34  2  0
 23 15  1  0
  1 40  1  0
  1 41  1  0
  1 42  1  0
  2 43  1  0
  2 44  1  0
  3 45  1  0
  4 46  1  0
  4 47  1  0
  5 48  1  0
  5 49  1  0
  5 50  1  0
  6 51  1  0
  6 52  1  0
  7 53  1  0
  7 54  1  0
 13 55  1  0
 13 56  1  0
 13 57  1  0
 16 58  1  0
 16 59  1  0
 18 60  1  0
 18 61  1  0
 18 62  1  0
 19 63  1  0
 19 64  1  0
 19 65  1  0
 20 66  1  0
 20 67  1  0
 23 68  1  6
 24 69  1  1
 26 70  1  0
 28 71  1  0
 28 72  1  0
 29 73  1  0
 29 74  1  0
 36 75  1  0
 37 76  1  0
 39 77  1  0
 39 78  1  0
 39 79  1  0
M  CHG  1   3   1
M  END
>  <UniqueID>  (26) 
22

>  <SMILES>  (26) 
CC[NH+](CC)CCOC(=O)C1=C(C)N=C2CC(C)(C)CC(=O)[C@@H]2[C@@H]1c1cn(CCC#N)nc1-c1sccc1C

>  <Energy>  (26) 
146.8265947465592

>  <Genealogy>  (26) 
CC[NH+](CC)CCOC(=O)C1=C(C)N=C2CC(C)(C)CC(=O)C2C1c1cn(CCC#N)nc1-c1sccc1C (protonated)
CC[NH+](CC)CCOC(=O)C1=C(C)N=C2CC(C)(C)CC(=O)[C@@H]2[C@@H]1c1cn(CCC#N)nc1-c1sccc1C (chirality)
CC[NH+](CC)CCOC(=O)C1=C(C)N=C2CC(C)(C)CC(=O)[C@@H]2[C@@H]1c1cn(CCC#N)nc1-c1sccc1C (3D coordinates assigned)
CC[NH+](CC)CCOC(=O)C1=C(C)N=C2CC(C)(C)CC(=O)[C@@H]2[C@@H]1c1cn(CCC#N)nc1-c1sccc1C (nonaromatic ring conformer: 146.8265947465592 kcal/mol)

>  <smiles>  (26) 
CCN(CC)CCOC(=O)C1=C(C)N=C2CC(C)(C)CC(=O)C2C1c1cn(CCC#N)nc1-c1sccc1C

>  <score_type>  (26) 
oracle

>  <origin>  (26) 
adg

>  <m_score__min__energy>  (26) 
-6.0099999999999998

>  <m_primary>  (26) 
energy

$$$$
26:0
     RDKit          3D

 61 65  0  0  0  0  0  0  0  0999 V2000
   58.1370   26.7630   42.5450 C   0  0  0  0  0  0  0  0  0  0  0  0
   58.1750   26.3690   43.9120 O   0  0  0  0  0  0  0  0  0  0  0  0
   58.5500   27.2120   44.9700 C   0  0  0  0  0  0  0  0  0  0  0  0
   58.0990   27.0140   46.2880 C   0  0  0  0  0  0  0  0  0  0  0  0
   58.5000   27.8830   47.3080 C   0  0  0  0  0  0  0  0  0  0  0  0
   59.3480   28.9700   47.0330 C   0  0  0  0  0  0  0  0  0  0  0  0
   59.7730   29.8730   48.1320 C   0  0  0  0  0  0  0  0  0  0  0  0
   61.1270   30.1650   48.3590 C   0  0  0  0  0  0  0  0  0  0  0  0
   61.5030   30.9740   49.4420 C   0  0  0  0  0  0  0  0  0  0  0  0
   62.9430   31.2180   49.6930 C   0  0  0  0  0  0  0  0  0  0  0  0
   63.5370   30.4430   50.4900 O   0  0  0  0  0  0  0  0  0  0  0  0
   63.6870   32.3000   49.0620 N   0  0  0  0  0  0  0  0  0  0  0  0
   63.3950   32.4400   47.6170 C   0  0  0  0  0  0  0  0  0  0  0  0
   62.0620   33.1620   47.3130 C   0  0  0  0  0  0  0  0  0  0  0  0
   61.5220   33.8390   48.5050 N   0  0  0  0  0  0  0  0  0  0  0  0
   60.3070   34.6370   48.2330 C   0  0  0  0  0  0  0  0  0  0  0  0
   59.4850   34.1270   47.0680 C   0  0  0  0  0  0  0  0  0  0  0  0
   58.5750   33.0690   47.2470 C   0  0  0  0  0  0  0  0  0  0  0  0
   57.8190   32.6000   46.1680 C   0  0  0  0  0  0  0  0  0  0  0  0
   57.9730   33.1730   44.9020 C   0  0  0  0  0  0  0  0  0  0  0  0
   58.8840   34.2170   44.7130 C   0  0  0  0  0  0  0  0  0  0  0  0
   59.6400   34.6910   45.7890 C   0  0  0  0  0  0  0  0  0  0  0  0
   62.5680   34.5720   49.2270 C   0  0  0  0  0  0  0  0  0  0  0  0
   63.5990   33.5850   49.8070 C   0  0  0  0  0  0  0  0  0  0  0  0
   60.4980   31.5680   50.2400 C   0  0  0  0  0  0  0  0  0  0  0  0
   60.7930   32.4460   51.3030 C   0  0  0  0  0  0  0  0  0  0  0  0
   59.7630   32.9880   52.0760 C   0  0  0  0  0  0  0  0  0  0  0  0
   58.4320   32.6710   51.8000 C   0  0  0  0  0  0  0  0  0  0  0  0
   58.1220   31.8140   50.7420 C   0  0  0  0  0  0  0  0  0  0  0  0
   59.1440   31.2640   49.9610 C   0  0  0  0  0  0  0  0  0  0  0  0
   58.8280   30.4330   48.9340 N   0  0  0  0  0  0  0  0  0  0  0  0
   59.8040   29.1560   45.7140 C   0  0  0  0  0  0  0  0  0  0  0  0
   59.4040   28.2850   44.6960 C   0  0  0  0  0  0  0  0  0  0  0  0
   58.0316   27.8561   42.4813 H   0  0  0  0  0  0  0  0  0  0  0  0
   59.0690   26.4549   42.0486 H   0  0  0  0  0  0  0  0  0  0  0  0
   57.2810   26.2825   42.0486 H   0  0  0  0  0  0  0  0  0  0  0  0
   57.4285   26.1726   46.5171 H   0  0  0  0  0  0  0  0  0  0  0  0
   58.1481   27.7141   48.3364 H   0  0  0  0  0  0  0  0  0  0  0  0
   61.8959   29.7583   47.6857 H   0  0  0  0  0  0  0  0  0  0  0  0
   64.6950   32.0150   49.1090 H   0  0  0  0  0  0  0  0  0  0  0  0
   64.2120   33.0117   47.1526 H   0  0  0  0  0  0  0  0  0  0  0  0
   63.3063   31.4221   47.2097 H   0  0  0  0  0  0  0  0  0  0  0  0
   62.2341   33.9107   46.5257 H   0  0  0  0  0  0  0  0  0  0  0  0
   61.3308   32.4072   46.9879 H   0  0  0  0  0  0  0  0  0  0  0  0
   59.6758   34.6245   49.1338 H   0  0  0  0  0  0  0  0  0  0  0  0
   60.6436   35.6498   47.9666 H   0  0  0  0  0  0  0  0  0  0  0  0
   58.4577   32.6090   48.2393 H   0  0  0  0  0  0  0  0  0  0  0  0
   57.1020   31.7789   46.3156 H   0  0  0  0  0  0  0  0  0  0  0  0
   57.3775   32.8026   44.0546 H   0  0  0  0  0  0  0  0  0  0  0  0
   59.0059   34.6659   43.7162 H   0  0  0  0  0  0  0  0  0  0  0  0
   60.3593   35.5088   45.6347 H   0  0  0  0  0  0  0  0  0  0  0  0
   63.0733   35.2616   48.5349 H   0  0  0  0  0  0  0  0  0  0  0  0
   62.1087   35.1392   50.0500 H   0  0  0  0  0  0  0  0  0  0  0  0
   64.5882   34.0656   49.7871 H   0  0  0  0  0  0  0  0  0  0  0  0
   63.2692   33.3411   50.8277 H   0  0  0  0  0  0  0  0  0  0  0  0
   61.8387   32.7054   51.5248 H   0  0  0  0  0  0  0  0  0  0  0  0
   60.0024   33.6683   52.9066 H   0  0  0  0  0  0  0  0  0  0  0  0
   57.6265   33.0967   52.4165 H   0  0  0  0  0  0  0  0  0  0  0  0
   57.0720   31.5709   50.5222 H   0  0  0  0  0  0  0  0  0  0  0  0
   60.4798   29.9925   45.4827 H   0  0  0  0  0  0  0  0  0  0  0  0
   59.7647   28.4454   43.6693 H   0  0  0  0  0  0  0  0  0  0  0  0
  1  2  1  0
  2  3  1  0
  3  4  2  0
  4  5  1  0
  5  6  2  0
  6  7  1  0
  7  8  2  0
  8  9  1  0
  9 10  1  0
 10 11  2  0
 10 12  1  0
 12 13  1  0
 13 14  1  0
 14 15  1  0
 15 16  1  0
 16 17  1  0
 17 18  2  0
 18 19  1  0
 19 20  2  0
 20 21  1  0
 21 22  2  0
 15 23  1  0
 23 24  1  0
  9 25  2  0
 25 26  1  0
 26 27  2  0
 27 28  1  0
 28 29  2  0
 29 30  1  0
 30 31  2  0
  6 32  1  0
 32 33  2  0
 33  3  1  0
 31  7  1  0
 24 12  1  0
 30 25  1  0
 22 17  1  0
  1 34  1  0
  1 35  1  0
  1 36  1  0
  4 37  1  0
  5 38  1  0
  8 39  1  0
 12 40  1  0
 13 41  1  0
 13 42  1  0
 14 43  1  0
 14 44  1  0
 16 45  1  0
 16 46  1  0
 18 47  1  0
 19 48  1  0
 20 49  1  0
 21 50  1  0
 22 51  1  0
 23 52  1  0
 23 53  1  0
 24 54  1  0
 24 55  1  0
 26 56  1  0
 27 57  1  0
 28 58  1  0
 29 59  1  0
 32 60  1  0
 33 61  1  0
M  CHG  1  12   1
M  END
>  <UniqueID>  (27) 
23

>  <SMILES>  (27) 
COc1ccc(-c2cc(C(=O)[NH+]3CCN(Cc4ccccc4)CC3)c3ccccc3n2)cc1

>  <Energy>  (27) 
96.24293725224314

>  <Genealogy>  (27) 
COc1ccc(-c2cc(C(=O)[NH+]3CCN(Cc4ccccc4)CC3)c3ccccc3n2)cc1 (protonated)
COc1ccc(-c2cc(C(=O)[NH+]3CCN(Cc4ccccc4)CC3)c3ccccc3n2)cc1 (3D coordinates assigned)
COc1ccc(-c2cc(C(=O)[NH+]3CCN(Cc4ccccc4)CC3)c3ccccc3n2)cc1 (nonaromatic ring conformer: 96.24293725224314 kcal/mol)

>  <smiles>  (27) 
COc1ccc(-c2cc(C(=O)N3CCN(Cc4ccccc4)CC3)c3ccccc3n2)cc1

>  <score_type>  (27) 
oracle

>  <origin>  (27) 
adg

>  <m_score__min__energy>  (27) 
-7.4500000000000002

>  <m_primary>  (27) 
energy

$$$$
27:0
     RDKit          3D

 50 50  0  0  0  0  0  0  0  0999 V2000
   63.7010   33.1740   46.9610 C   0  0  0  0  0  0  0  0  0  0  0  0
   62.9250   31.9950   47.5500 C   0  0  0  0  0  0  0  0  0  0  0  0
   61.5180   32.3840   48.0310 C   0  0  0  0  0  0  0  0  0  0  0  0
   60.4110   31.6930   47.2070 C   0  0  0  0  0  0  0  0  0  0  0  0
   59.7740   32.5510   46.1710 N   0  0  0  0  0  0  0  0  0  0  0  0
   60.5210   33.7930   45.8640 C   0  0  0  0  0  0  0  0  0  0  0  0
   59.6480   35.0420   45.9980 C   0  0  0  0  0  0  0  0  0  0  0  0
   58.3500   32.8570   46.4390 C   0  0  0  0  0  0  0  0  0  0  0  0
   57.4440   32.2040   45.4350 C   0  0  0  0  0  0  0  0  0  0  0  0
   56.2660   32.6310   45.2940 O   0  0  0  0  0  0  0  0  0  0  0  0
   57.9190   31.0930   44.6600 N   0  0  0  0  0  0  0  0  0  0  0  0
   57.0460   30.1530   44.0150 C   0  0  0  0  0  0  0  0  0  0  0  0
   55.8330   30.4430   43.8210 O   0  0  0  0  0  0  0  0  0  0  0  0
   57.5440   28.8670   43.5930 N   0  0  0  0  0  0  0  0  0  0  0  0
   58.3640   28.1800   44.6190 C   0  0  0  0  0  0  0  0  0  0  0  0
   57.7870   28.3150   46.0460 C   0  0  0  0  0  0  0  0  0  0  0  0
   58.5390   27.4150   47.0480 C   0  0  0  0  0  0  0  0  0  0  0  0
   60.0210   27.1910   46.6830 C   0  0  0  0  0  0  0  0  0  0  0  0
   60.6010   28.3760   45.9040 C   0  0  0  0  0  0  0  0  0  0  0  0
   59.8580   28.6050   44.5710 C   0  0  0  0  0  0  0  0  0  0  0  0
   64.1066   33.7903   47.7769 H   0  0  0  0  0  0  0  0  0  0  0  0
   64.5275   32.7961   46.3412 H   0  0  0  0  0  0  0  0  0  0  0  0
   63.0270   33.7836   46.3412 H   0  0  0  0  0  0  0  0  0  0  0  0
   62.8292   31.2173   46.7780 H   0  0  0  0  0  0  0  0  0  0  0  0
   63.4853   31.6363   48.4260 H   0  0  0  0  0  0  0  0  0  0  0  0
   61.4102   32.0911   49.0858 H   0  0  0  0  0  0  0  0  0  0  0  0
   61.4055   33.4710   47.9051 H   0  0  0  0  0  0  0  0  0  0  0  0
   60.8535   30.8208   46.7036 H   0  0  0  0  0  0  0  0  0  0  0  0
   59.6161   31.4272   47.9194 H   0  0  0  0  0  0  0  0  0  0  0  0
   61.3688   33.8773   46.5598 H   0  0  0  0  0  0  0  0  0  0  0  0
   60.8633   33.7313   44.8204 H   0  0  0  0  0  0  0  0  0  0  0  0
   59.4908   35.2669   47.0632 H   0  0  0  0  0  0  0  0  0  0  0  0
   60.1489   35.8931   45.5136 H   0  0  0  0  0  0  0  0  0  0  0  0
   58.6766   34.8641   45.5136 H   0  0  0  0  0  0  0  0  0  0  0  0
   58.0900   32.4929   47.4439 H   0  0  0  0  0  0  0  0  0  0  0  0
   58.2135   33.9461   46.3673 H   0  0  0  0  0  0  0  0  0  0  0  0
   58.9440   30.8890   44.6760 H   0  0  0  0  0  0  0  0  0  0  0  0
   58.1040   28.9830   42.7170 H   0  0  0  0  0  0  0  0  0  0  0  0
   56.7260   28.2590   43.3520 H   0  0  0  0  0  0  0  0  0  0  0  0
   58.3190   27.1120   44.3593 H   0  0  0  0  0  0  0  0  0  0  0  0
   57.8761   29.3625   46.3699 H   0  0  0  0  0  0  0  0  0  0  0  0
   56.7333   28.0002   46.0231 H   0  0  0  0  0  0  0  0  0  0  0  0
   58.4925   27.8854   48.0413 H   0  0  0  0  0  0  0  0  0  0  0  0
   58.0490   26.4303   47.0289 H   0  0  0  0  0  0  0  0  0  0  0  0
   60.5993   27.0565   47.6090 H   0  0  0  0  0  0  0  0  0  0  0  0
   60.0843   26.2980   46.0438 H   0  0  0  0  0  0  0  0  0  0  0  0
   60.5149   29.2833   46.5199 H   0  0  0  0  0  0  0  0  0  0  0  0
   61.6532   28.1520   45.6746 H   0  0  0  0  0  0  0  0  0  0  0  0
   59.9087   29.6754   44.3225 H   0  0  0  0  0  0  0  0  0  0  0  0
   60.3504   27.9794   43.8119 H   0  0  0  0  0  0  0  0  0  0  0  0
  1  2  1  0
  2  3  1  0
  3  4  1  0
  4  5  1  0
  5  6  1  0
  6  7  1  0
  5  8  1  0
  8  9  1  0
  9 10  2  0
  9 11  1  0
 11 12  1  0
 12 13  2  0
 12 14  1  0
 14 15  1  0
 15 16  1  0
 16 17  1  0
 17 18  1  0
 18 19  1  0
 19 20  1  0
 20 15  1  0
  1 21  1  0
  1 22  1  0
  1 23  1  0
  2 24  1  0
  2 25  1  0
  3 26  1  0
  3 27  1  0
  4 28  1  0
  4 29  1  0
  6 30  1  0
  6 31  1  0
  7 32  1  0
  7 33  1  0
  7 34  1  0
  8 35  1  0
  8 36  1  0
 11 37  1  0
 14 38  1  0
 14 39  1  0
 15 40  1  0
 16 41  1  0
 16 42  1  0
 17 43  1  0
 17 44  1  0
 18 45  1  0
 18 46  1  0
 19 47  1  0
 19 48  1  0
 20 49  1  0
 20 50  1  0
M  CHG  1  14   1
M  END
>  <UniqueID>  (28) 
24

>  <SMILES>  (28) 
CCCCN(CC)CC(=O)NC(=O)[NH2+]C1CCCCC1

>  <Energy>  (28) 
47.16213243669939

>  <Genealogy>  (28) 
CCCCN(CC)CC(=O)NC(=O)[NH2+]C1CCCCC1 (protonated)
CCCCN(CC)CC(=O)NC(=O)[NH2+]C1CCCCC1 (3D coordinates assigned)
CCCCN(CC)CC(=O)NC(=O)[NH2+]C1CCCCC1 (nonaromatic ring conformer: 47.16213243669939 kcal/mol)

>  <smiles>  (28) 
CCCCN(CC)CC(=O)NC(=O)NC1CCCCC1

>  <score_type>  (28) 
oracle

>  <origin>  (28) 
adg

>  <m_score__min__energy>  (28) 
-6.4000000000000004

>  <m_primary>  (28) 
energy

$$$$
28:0
     RDKit          3D

 38 40  0  0  0  0  0  0  0  0999 V2000
   64.0670   33.0780   47.9580 C   0  0  0  0  0  0  0  0  0  0  0  0
   62.6590   32.9000   47.4860 C   0  0  0  0  0  0  0  0  0  0  0  0
   61.9410   33.9870   47.0820 N   0  0  0  0  0  0  0  0  0  0  0  0
   60.6690   33.8100   46.6610 C   0  0  0  0  0  0  0  0  0  0  0  0
   59.6220   34.9930   46.0970 S   0  0  0  0  0  0  0  0  0  0  0  0
   58.3680   33.9020   45.7730 C   0  0  0  0  0  0  0  0  0  0  0  0
   57.0200   34.2810   45.2620 C   0  0  0  0  0  0  0  0  0  0  0  0
   58.7580   32.6100   46.1270 C   0  0  0  0  0  0  0  0  0  0  0  0
   60.0680   32.5700   46.6250 C   0  0  0  0  0  0  0  0  0  0  0  0
   60.8070   31.4550   47.0430 C   0  0  0  0  0  0  0  0  0  0  0  0
   60.2470   30.1280   47.0100 N   0  0  0  0  0  0  0  0  0  0  0  0
   59.5990   29.5720   48.1990 C   0  0  0  0  0  0  0  0  0  0  0  0
   60.4290   29.2720   45.8300 C   0  0  0  0  0  0  0  0  0  0  0  0
   59.1590   28.4700   45.5130 C   0  0  0  0  0  0  0  0  0  0  0  0
   58.1170   29.3230   44.9430 N   0  0  0  0  0  0  0  0  0  0  0  0
   58.2730   30.3200   44.0560 C   0  0  0  0  0  0  0  0  0  0  0  0
   57.0360   30.8800   43.8270 C   0  0  0  0  0  0  0  0  0  0  0  0
   56.1080   30.2490   44.5770 N   0  0  0  0  0  0  0  0  0  0  0  0
   56.8050   29.3100   45.2510 C   0  0  0  0  0  0  0  0  0  0  0  0
   62.0950   31.6500   47.4620 N   0  0  0  0  0  0  0  0  0  0  0  0
   64.0875   33.0806   49.0578 H   0  0  0  0  0  0  0  0  0  0  0  0
   64.6872   32.2511   47.5817 H   0  0  0  0  0  0  0  0  0  0  0  0
   64.4619   34.0332   47.5817 H   0  0  0  0  0  0  0  0  0  0  0  0
   56.3462   34.4705   46.1105 H   0  0  0  0  0  0  0  0  0  0  0  0
   57.1026   35.1907   44.6492 H   0  0  0  0  0  0  0  0  0  0  0  0
   56.6164   33.4615   44.6492 H   0  0  0  0  0  0  0  0  0  0  0  0
   58.1123   31.7251   46.0269 H   0  0  0  0  0  0  0  0  0  0  0  0
   60.0760   29.9813   49.1018 H   0  0  0  0  0  0  0  0  0  0  0  0
   58.5322   29.8401   48.1944 H   0  0  0  0  0  0  0  0  0  0  0  0
   59.7019   28.4768   48.1944 H   0  0  0  0  0  0  0  0  0  0  0  0
   60.6771   29.9045   44.9649 H   0  0  0  0  0  0  0  0  0  0  0  0
   61.2411   28.5611   46.0424 H   0  0  0  0  0  0  0  0  0  0  0  0
   59.4070   27.6776   44.7915 H   0  0  0  0  0  0  0  0  0  0  0  0
   58.7787   28.0393   46.4510 H   0  0  0  0  0  0  0  0  0  0  0  0
   59.2210   30.6334   43.5944 H   0  0  0  0  0  0  0  0  0  0  0  0
   56.8349   31.7139   43.1383 H   0  0  0  0  0  0  0  0  0  0  0  0
   56.3528   28.6122   45.9711 H   0  0  0  0  0  0  0  0  0  0  0  0
   62.6600   30.8340   47.7870 H   0  0  0  0  0  0  0  0  0  0  0  0
  1  2  1  0
  2  3  2  0
  3  4  1  0
  4  5  1  0
  5  6  1  0
  6  7  1  0
  6  8  2  0
  8  9  1  0
  9 10  1  0
 10 11  1  0
 11 12  1  0
 11 13  1  0
 13 14  1  0
 14 15  1  0
 15 16  1  0
 16 17  2  0
 17 18  1  0
 18 19  2  0
 10 20  2  0
 20  2  1  0
  9  4  2  0
 19 15  1  0
  1 21  1  0
  1 22  1  0
  1 23  1  0
  7 24  1  0
  7 25  1  0
  7 26  1  0
  8 27  1  0
 12 28  1  0
 12 29  1  0
 12 30  1  0
 13 31  1  0
 13 32  1  0
 14 33  1  0
 14 34  1  0
 16 35  1  0
 17 36  1  0
 19 37  1  0
 20 38  1  0
M  CHG  1  20   1
M  END
>  <UniqueID>  (29) 
25

>  <SMILES>  (29) 
Cc1nc2sc(C)cc2c(N(C)CCn2ccnc2)[nH+]1

>  <Energy>  (29) 
96.95952284899585

>  <Genealogy>  (29) 
Cc1nc2sc(C)cc2c(N(C)CCn2ccnc2)[nH+]1 (protonated)
Cc1nc2sc(C)cc2c(N(C)CCn2ccnc2)[nH+]1 (3D coordinates assigned)
Cc1nc2sc(C)cc2c(N(C)CCn2ccnc2)[nH+]1 (optimized conformer: 96.95952284899585 kcal/mol)

>  <smiles>  (29) 
Cc1nc(N(C)CCn2ccnc2)c2cc(C)sc2n1

>  <score_type>  (29) 
oracle

>  <origin>  (29) 
adg

>  <m_score__min__energy>  (29) 
-5.3799999999999999

>  <m_primary>  (29) 
energy

$$$$
29:0
     RDKit          3D

 49 52  0  0  0  0  0  0  0  0999 V2000
   59.2980   34.6610   46.4850 C   0  0  0  0  0  0  0  0  0  0  0  0
   60.3500   34.0540   45.7890 C   0  0  0  0  0  0  0  0  0  0  0  0
   61.4240   33.5010   46.4880 C   0  0  0  0  0  0  0  0  0  0  0  0
   61.4720   33.5840   47.8910 C   0  0  0  0  0  0  0  0  0  0  0  0
   62.5840   32.9640   48.6430 C   0  0  0  0  0  0  0  0  0  0  0  0
   63.8300   33.6160   48.6220 C   0  0  0  0  0  0  0  0  0  0  0  0
   64.9060   33.1220   49.3580 C   0  0  0  0  0  0  0  0  0  0  0  0
   64.7520   31.9680   50.1260 C   0  0  0  0  0  0  0  0  0  0  0  0
   63.5270   31.3000   50.1510 C   0  0  0  0  0  0  0  0  0  0  0  0
   62.4290   31.7730   49.4080 C   0  0  0  0  0  0  0  0  0  0  0  0
   61.1230   30.9890   49.4680 C   0  0  0  0  0  0  0  0  0  0  0  0
   60.3750   30.9440   48.1920 N   0  0  0  0  0  0  0  0  0  0  0  0
   60.5910   29.7010   47.4410 C   0  0  0  0  0  0  0  0  0  0  0  0
   60.0130   29.8150   46.0170 C   0  0  0  0  0  0  0  0  0  0  0  0
   58.7320   30.5530   45.9600 N   0  0  0  0  0  0  0  0  0  0  0  0
   57.9960   30.5460   44.7190 C   0  0  0  0  0  0  0  0  0  0  0  0
   58.1040   31.6250   43.8300 C   0  0  0  0  0  0  0  0  0  0  0  0
   57.4110   31.6030   42.6110 C   0  0  0  0  0  0  0  0  0  0  0  0
   56.6440   30.4870   42.2560 C   0  0  0  0  0  0  0  0  0  0  0  0
   56.5550   29.3970   43.1230 C   0  0  0  0  0  0  0  0  0  0  0  0
   57.2200   29.4260   44.3510 C   0  0  0  0  0  0  0  0  0  0  0  0
   58.3290   31.5170   47.0030 C   0  0  0  0  0  0  0  0  0  0  0  0
   58.9350   31.1730   48.3590 C   0  0  0  0  0  0  0  0  0  0  0  0
   60.4010   34.1740   48.5840 C   0  0  0  0  0  0  0  0  0  0  0  0
   59.3200   34.7130   47.8810 C   0  0  0  0  0  0  0  0  0  0  0  0
   58.4531   35.0975   45.9322 H   0  0  0  0  0  0  0  0  0  0  0  0
   60.3302   34.0128   44.6900 H   0  0  0  0  0  0  0  0  0  0  0  0
   62.2350   32.9989   45.9401 H   0  0  0  0  0  0  0  0  0  0  0  0
   63.9570   34.5264   48.0178 H   0  0  0  0  0  0  0  0  0  0  0  0
   65.8752   33.6417   49.3331 H   0  0  0  0  0  0  0  0  0  0  0  0
   65.5985   31.5833   50.7137 H   0  0  0  0  0  0  0  0  0  0  0  0
   63.4179   30.3906   50.7602 H   0  0  0  0  0  0  0  0  0  0  0  0
   61.3557   29.9561   49.7664 H   0  0  0  0  0  0  0  0  0  0  0  0
   60.4780   31.5106   50.1905 H   0  0  0  0  0  0  0  0  0  0  0  0
   61.6708   29.5012   47.3771 H   0  0  0  0  0  0  0  0  0  0  0  0
   60.0801   28.8794   47.9643 H   0  0  0  0  0  0  0  0  0  0  0  0
   60.7452   30.3381   45.3844 H   0  0  0  0  0  0  0  0  0  0  0  0
   59.8144   28.7922   45.6644 H   0  0  0  0  0  0  0  0  0  0  0  0
   58.7329   32.4895   44.0890 H   0  0  0  0  0  0  0  0  0  0  0  0
   57.4703   32.4658   41.9313 H   0  0  0  0  0  0  0  0  0  0  0  0
   56.1115   30.4692   41.2937 H   0  0  0  0  0  0  0  0  0  0  0  0
   55.9614   28.5154   42.8394 H   0  0  0  0  0  0  0  0  0  0  0  0
   57.1383   28.5695   45.0364 H   0  0  0  0  0  0  0  0  0  0  0  0
   58.6653   32.5219   46.7077 H   0  0  0  0  0  0  0  0  0  0  0  0
   57.2339   31.4779   47.0989 H   0  0  0  0  0  0  0  0  0  0  0  0
   58.7723   32.0064   49.0583 H   0  0  0  0  0  0  0  0  0  0  0  0
   58.4579   30.2672   48.7614 H   0  0  0  0  0  0  0  0  0  0  0  0
   60.4136   34.2117   49.6833 H   0  0  0  0  0  0  0  0  0  0  0  0
   58.4862   35.1784   48.4270 H   0  0  0  0  0  0  0  0  0  0  0  0
  1  2  2  0
  2  3  1  0
  3  4  2  0
  4  5  1  0
  5  6  2  0
  6  7  1  0
  7  8  2  0
  8  9  1  0
  9 10  2  0
 10 11  1  0
 11 12  1  0
 12 13  1  0
 13 14  1  0
 14 15  1  0
 15 16  1  0
 16 17  2  0
 17 18  1  0
 18 19  2  0
 19 20  1  0
 20 21  2  0
 15 22  1  0
 22 23  1  0
  4 24  1  0
 24 25  2  0
 25  1  1  0
 10  5  1  0
 23 12  1  0
 21 16  1  0
  1 26  1  0
  2 27  1  0
  3 28  1  0
  6 29  1  0
  7 30  1  0
  8 31  1  0
  9 32  1  0
 11 33  1  0
 11 34  1  0
 13 35  1  0
 13 36  1  0
 14 37  1  0
 14 38  1  0
 17 39  1  0
 18 40  1  0
 19 41  1  0
 20 42  1  0
 21 43  1  0
 22 44  1  0
 22 45  1  0
 23 46  1  0
 23 47  1  0
 24 48  1  0
 25 49  1  0
M  END
>  <UniqueID>  (30) 
26

>  <SMILES>  (30) 
c1ccc(-c2ccccc2CN2CCN(c3ccccc3)CC2)cc1

>  <Energy>  (30) 
70.5756361668554

>  <Genealogy>  (30) 
c1ccc(-c2ccccc2CN2CCN(c3ccccc3)CC2)cc1 (3D coordinates assigned)
c1ccc(-c2ccccc2CN2CCN(c3ccccc3)CC2)cc1 (nonaromatic ring conformer: 70.5756361668554 kcal/mol)

>  <smiles>  (30) 
c1ccc(-c2ccccc2CN2CCN(c3ccccc3)CC2)cc1

>  <score_type>  (30) 
oracle

>  <origin>  (30) 
adg

>  <m_score__min__energy>  (30) 
-7.9100000000000001

>  <m_primary>  (30) 
energy

$$$$
30:0
     RDKit          3D

 41 43  0  0  0  0  0  0  0  0999 V2000
   55.2300   29.7120   43.6870 C   0  0  0  0  0  0  0  0  0  0  0  0
   55.8200   29.3870   44.9420 O   0  0  0  0  0  0  0  0  0  0  0  0
   57.1330   28.9190   45.1130 C   0  0  0  0  0  0  0  0  0  0  0  0
   57.4100   27.5390   45.2180 C   0  0  0  0  0  0  0  0  0  0  0  0
   58.7210   27.0900   45.3870 C   0  0  0  0  0  0  0  0  0  0  0  0
   59.7700   28.0040   45.4540 C   0  0  0  0  0  0  0  0  0  0  0  0
   59.5150   29.3710   45.3520 C   0  0  0  0  0  0  0  0  0  0  0  0
   58.2020   29.8460   45.1800 C   0  0  0  0  0  0  0  0  0  0  0  0
   57.9800   31.3080   45.0770 C   0  0  0  0  0  0  0  0  0  0  0  0
   56.7720   31.9030   44.9740 N   0  0  0  0  0  0  0  0  0  0  0  0
   57.0170   33.2000   44.9080 N   0  0  0  0  0  0  0  0  0  0  0  0
   58.3470   33.3600   44.9730 C   0  0  0  0  0  0  0  0  0  0  0  0
   59.1850   34.9410   44.9290 S   0  0  0  0  0  0  0  0  0  0  0  0
   59.2800   35.0660   46.7480 C   0  0  0  0  0  0  0  0  0  0  0  0
   59.5490   33.7250   47.3790 C   0  0  0  0  0  0  0  0  0  0  0  0
   58.6300   33.1660   48.0410 O   0  0  0  0  0  0  0  0  0  0  0  0
   60.8500   33.1020   47.3030 N   0  0  0  0  0  0  0  0  0  0  0  0
   60.9540   31.6400   47.4180 C   0  0  0  0  0  0  0  0  0  0  0  0
   62.3400   31.2430   47.9330 C   0  0  0  0  0  0  0  0  0  0  0  0
   63.3560   31.8540   47.1640 O   0  0  0  0  0  0  0  0  0  0  0  0
   63.3110   33.2540   47.3500 C   0  0  0  0  0  0  0  0  0  0  0  0
   62.0120   33.8380   46.7850 C   0  0  0  0  0  0  0  0  0  0  0  0
   58.9490   32.2010   45.0760 O   0  0  0  0  0  0  0  0  0  0  0  0
   54.2777   30.2366   43.8544 H   0  0  0  0  0  0  0  0  0  0  0  0
   55.9117   30.3619   43.1187 H   0  0  0  0  0  0  0  0  0  0  0  0
   55.0450   28.7885   43.1187 H   0  0  0  0  0  0  0  0  0  0  0  0
   56.5864   26.8116   45.1663 H   0  0  0  0  0  0  0  0  0  0  0  0
   58.9260   26.0123   45.4674 H   0  0  0  0  0  0  0  0  0  0  0  0
   60.8017   27.6466   45.5876 H   0  0  0  0  0  0  0  0  0  0  0  0
   60.3494   30.0857   45.4066 H   0  0  0  0  0  0  0  0  0  0  0  0
   56.2920   33.9460   44.8250 H   0  0  0  0  0  0  0  0  0  0  0  0
   60.0923   35.7573   47.0171 H   0  0  0  0  0  0  0  0  0  0  0  0
   58.3129   35.4353   47.1201 H   0  0  0  0  0  0  0  0  0  0  0  0
   60.1887   31.2761   48.1194 H   0  0  0  0  0  0  0  0  0  0  0  0
   60.8001   31.1919   46.4253 H   0  0  0  0  0  0  0  0  0  0  0  0
   62.4401   31.5619   48.9810 H   0  0  0  0  0  0  0  0  0  0  0  0
   62.4461   30.1511   47.8527 H   0  0  0  0  0  0  0  0  0  0  0  0
   63.3683   33.4766   48.4257 H   0  0  0  0  0  0  0  0  0  0  0  0
   64.1609   33.7071   46.8187 H   0  0  0  0  0  0  0  0  0  0  0  0
   61.9319   34.8949   47.0793 H   0  0  0  0  0  0  0  0  0  0  0  0
   62.0293   33.7505   45.6886 H   0  0  0  0  0  0  0  0  0  0  0  0
  1  2  1  0
  2  3  1  0
  3  4  2  0
  4  5  1  0
  5  6  2  0
  6  7  1  0
  7  8  2  0
  8  9  1  0
  9 10  2  0
 10 11  1  0
 11 12  2  0
 12 13  1  0
 13 14  1  0
 14 15  1  0
 15 16  2  0
 15 17  1  0
 17 18  1  0
 18 19  1  0
 19 20  1  0
 20 21  1  0
 21 22  1  0
 12 23  1  0
  8  3  1  0
 23  9  1  0
 22 17  1  0
  1 24  1  0
  1 25  1  0
  1 26  1  0
  4 27  1  0
  5 28  1  0
  6 29  1  0
  7 30  1  0
 11 31  1  0
 14 32  1  0
 14 33  1  0
 18 34  1  0
 18 35  1  0
 19 36  1  0
 19 37  1  0
 21 38  1  0
 21 39  1  0
 22 40  1  0
 22 41  1  0
M  CHG  1  11   1
M  END
>  <UniqueID>  (31) 
27

>  <SMILES>  (31) 
COc1ccccc1-c1n[nH+]c(SCC(=O)N2CCOCC2)o1

>  <Energy>  (31) 
77.52162578991609

>  <Genealogy>  (31) 
COc1ccccc1-c1n[nH+]c(SCC(=O)N2CCOCC2)o1 (protonated)
COc1ccccc1-c1n[nH+]c(SCC(=O)N2CCOCC2)o1 (3D coordinates assigned)
COc1ccccc1-c1n[nH+]c(SCC(=O)N2CCOCC2)o1 (nonaromatic ring conformer: 77.52162578991609 kcal/mol)

>  <smiles>  (31) 
COc1ccccc1-c1nnc(SCC(=O)N2CCOCC2)o1

>  <score_type>  (31) 
oracle

>  <origin>  (31) 
adg

>  <m_score__min__energy>  (31) 
-6.2699999999999996

>  <m_primary>  (31) 
energy

$$$$
31:0
     RDKit          3D

 48 49  0  0  0  0  0  0  0  0999 V2000
   59.3270   34.9060   45.7820 C   0  0  0  0  0  0  0  0  0  0  0  0
   58.2230   33.9180   46.1550 C   0  0  0  0  0  0  0  0  0  0  0  0
   58.4900   32.5660   45.6100 N   0  0  0  0  0  0  0  0  0  0  0  0
   57.4060   32.0370   44.7450 C   0  0  0  0  0  0  0  0  0  0  0  0
   57.8050   31.8620   43.2740 C   0  0  0  0  0  0  0  0  0  0  0  0
   58.8760   31.6110   46.6730 C   0  0  0  0  0  0  0  0  0  0  0  0
   60.3760   31.3250   46.6140 C   0  0  0  0  0  0  0  0  0  0  0  0
   60.6050   29.9360   46.8340 O   0  0  0  0  0  0  0  0  0  0  0  0
   60.2890   28.9540   45.8900 C   0  0  0  0  0  0  0  0  0  0  0  0
   61.1330   28.6300   45.0100 O   0  0  0  0  0  0  0  0  0  0  0  0
   58.9610   28.3040   45.9240 C   0  0  0  0  0  0  0  0  0  0  0  0
   57.9090   28.8030   45.1370 C   0  0  0  0  0  0  0  0  0  0  0  0
   56.6550   28.1850   45.1580 C   0  0  0  0  0  0  0  0  0  0  0  0
   56.4370   27.0480   45.9540 C   0  0  0  0  0  0  0  0  0  0  0  0
   55.1610   26.3910   46.0000 N   0  0  0  0  0  0  0  0  0  0  0  0
   54.9060   25.0150   45.6830 C   0  0  0  0  0  0  0  0  0  0  0  0
   53.8420   24.4870   46.0970 O   0  0  0  0  0  0  0  0  0  0  0  0
   55.8580   24.1870   44.9120 C   0  0  0  0  0  0  0  0  0  0  0  0
   55.4650   23.5400   43.8020 C   0  0  0  0  0  0  0  0  0  0  0  0
   56.5940   22.5980   42.7680 S   0  0  0  0  0  0  0  0  0  0  0  0
   57.6210   22.0410   44.1560 C   0  0  0  0  0  0  0  0  0  0  0  0
   58.2000   23.2780   44.8320 C   0  0  0  0  0  0  0  0  0  0  0  0
   57.1700   24.0800   45.4080 O   0  0  0  0  0  0  0  0  0  0  0  0
   57.4750   26.5650   46.7570 C   0  0  0  0  0  0  0  0  0  0  0  0
   58.7310   27.1820   46.7400 C   0  0  0  0  0  0  0  0  0  0  0  0
   59.7806   35.3120   46.6982 H   0  0  0  0  0  0  0  0  0  0  0  0
   60.0966   34.3894   45.1896 H   0  0  0  0  0  0  0  0  0  0  0  0
   58.8987   35.7280   45.1896 H   0  0  0  0  0  0  0  0  0  0  0  0
   58.1575   33.8539   47.2512 H   0  0  0  0  0  0  0  0  0  0  0  0
   57.2782   34.2809   45.7241 H   0  0  0  0  0  0  0  0  0  0  0  0
   57.0982   31.0568   45.1380 H   0  0  0  0  0  0  0  0  0  0  0  0
   56.5938   32.7785   44.7664 H   0  0  0  0  0  0  0  0  0  0  0  0
   58.8110   31.4208   43.2170 H   0  0  0  0  0  0  0  0  0  0  0  0
   57.0843   31.1974   42.7752 H   0  0  0  0  0  0  0  0  0  0  0  0
   57.8058   32.8424   42.7752 H   0  0  0  0  0  0  0  0  0  0  0  0
   58.6275   32.0413   47.6544 H   0  0  0  0  0  0  0  0  0  0  0  0
   58.3273   30.6695   46.5229 H   0  0  0  0  0  0  0  0  0  0  0  0
   60.7644   31.6082   45.6246 H   0  0  0  0  0  0  0  0  0  0  0  0
   60.8908   31.9085   47.3915 H   0  0  0  0  0  0  0  0  0  0  0  0
   58.0732   29.6851   44.5006 H   0  0  0  0  0  0  0  0  0  0  0  0
   55.8347   28.5912   44.5480 H   0  0  0  0  0  0  0  0  0  0  0  0
   54.4048   23.5889   43.5130 H   0  0  0  0  0  0  0  0  0  0  0  0
   57.0071   21.4756   44.8726 H   0  0  0  0  0  0  0  0  0  0  0  0
   58.4282   21.3851   43.7981 H   0  0  0  0  0  0  0  0  0  0  0  0
   58.8945   22.9621   45.6244 H   0  0  0  0  0  0  0  0  0  0  0  0
   58.7248   23.8767   44.0730 H   0  0  0  0  0  0  0  0  0  0  0  0
   57.3031   25.6940   47.4065 H   0  0  0  0  0  0  0  0  0  0  0  0
   59.5429   26.7871   47.3684 H   0  0  0  0  0  0  0  0  0  0  0  0
  1  2  1  0
  2  3  1  0
  3  4  1  0
  4  5  1  0
  3  6  1  0
  6  7  1  0
  7  8  1  0
  8  9  1  0
  9 10  2  0
  9 11  1  0
 11 12  2  0
 12 13  1  0
 13 14  2  0
 14 15  1  0
 15 16  1  0
 16 17  2  0
 16 18  1  0
 18 19  2  0
 19 20  1  0
 20 21  1  0
 21 22  1  0
 22 23  1  0
 14 24  1  0
 24 25  2  0
 25 11  1  0
 23 18  1  0
  1 26  1  0
  1 27  1  0
  1 28  1  0
  2 29  1  0
  2 30  1  0
  4 31  1  0
  4 32  1  0
  5 33  1  0
  5 34  1  0
  5 35  1  0
  6 36  1  0
  6 37  1  0
  7 38  1  0
  7 39  1  0
 12 40  1  0
 13 41  1  0
 19 42  1  0
 21 43  1  0
 21 44  1  0
 22 45  1  0
 22 46  1  0
 24 47  1  0
 25 48  1  0
M  CHG  1  15  -1
M  END
>  <UniqueID>  (32) 
28

>  <SMILES>  (32) 
CCN(CC)CCOC(=O)c1ccc([N-]C(=O)C2=CSCCO2)cc1

>  <Energy>  (32) 
55.48934870147104

>  <Genealogy>  (32) 
CCN(CC)CCOC(=O)c1ccc([N-]C(=O)C2=CSCCO2)cc1 (protonated)
CCN(CC)CCOC(=O)c1ccc([N-]C(=O)C2=CSCCO2)cc1 (3D coordinates assigned)
CCN(CC)CCOC(=O)c1ccc([N-]C(=O)C2=CSCCO2)cc1 (nonaromatic ring conformer: 55.48934870147104 kcal/mol)

>  <smiles>  (32) 
CCN(CC)CCOC(=O)c1ccc(NC(=O)C2=CSCCO2)cc1

>  <score_type>  (32) 
oracle

>  <origin>  (32) 
adg

>  <m_score__min__energy>  (32) 
-8.8599999999999994

>  <m_primary>  (32) 
energy

$$$$
32:0
     RDKit          3D

 57 60  0  0  0  0  0  0  0  0999 V2000
   56.9010   30.7180   52.2550 C   0  0  0  0  0  0  0  0  0  0  0  0
   57.4370   29.8450   51.2600 O   0  0  0  0  0  0  0  0  0  0  0  0
   58.5730   30.1310   50.4860 C   0  0  0  0  0  0  0  0  0  0  0  0
   59.6190   30.8710   51.0940 C   0  0  0  0  0  0  0  0  0  0  0  0
   60.7980   31.1740   50.3880 C   0  0  0  0  0  0  0  0  0  0  0  0
   60.8910   30.7270   49.0760 C   0  0  0  0  0  0  0  0  0  0  0  0
   61.8810   30.9310   48.1880 N   0  0  0  0  0  0  0  0  0  0  0  0
   61.4690   30.3650   47.0550 N   0  0  0  0  0  0  0  0  0  0  0  0
   60.2720   29.8020   47.2060 N   0  0  0  0  0  0  0  0  0  0  0  0
   59.4830   29.2600   46.1010 C   0  0  0  0  0  0  0  0  0  0  0  0
   58.1690   30.0400   45.9810 C   0  0  0  0  0  0  0  0  0  0  0  0
   58.1490   31.0430   44.8160 C   0  0  0  0  0  0  0  0  0  0  0  0
   57.0320   32.1050   44.8790 C   0  0  0  0  0  0  0  0  0  0  0  0
   57.3790   33.3520   45.5990 N   0  0  0  0  0  0  0  0  0  0  0  0
   58.1650   34.3740   44.8700 C   0  0  0  0  0  0  0  0  0  0  0  0
   59.6600   34.3450   45.2480 C   0  0  0  0  0  0  0  0  0  0  0  0
   59.8510   34.1450   46.6930 N   0  0  0  0  0  0  0  0  0  0  0  0
   61.1610   33.8960   47.2480 C   0  0  0  0  0  0  0  0  0  0  0  0
   62.2330   33.5550   46.4020 C   0  0  0  0  0  0  0  0  0  0  0  0
   63.5200   33.3940   46.9200 C   0  0  0  0  0  0  0  0  0  0  0  0
   63.7550   33.5690   48.2850 C   0  0  0  0  0  0  0  0  0  0  0  0
   62.7020   33.9040   49.1530 C   0  0  0  0  0  0  0  0  0  0  0  0
   62.9570   34.0510   50.6340 C   0  0  0  0  0  0  0  0  0  0  0  0
   61.7740   33.8500   51.3230 F   0  0  0  0  0  0  0  0  0  0  0  0
   63.4410   35.3150   50.9300 F   0  0  0  0  0  0  0  0  0  0  0  0
   63.8900   33.1190   51.0560 F   0  0  0  0  0  0  0  0  0  0  0  0
   61.4030   34.0410   48.6290 C   0  0  0  0  0  0  0  0  0  0  0  0
   58.6750   34.1920   47.5680 C   0  0  0  0  0  0  0  0  0  0  0  0
   57.6280   33.2040   47.0490 C   0  0  0  0  0  0  0  0  0  0  0  0
   59.8880   30.0310   48.4740 C   0  0  0  0  0  0  0  0  0  0  0  0
   58.7030   29.7070   49.1360 C   0  0  0  0  0  0  0  0  0  0  0  0
   57.1415   30.3264   53.2544 H   0  0  0  0  0  0  0  0  0  0  0  0
   57.3397   31.7200   52.1385 H   0  0  0  0  0  0  0  0  0  0  0  0
   55.8090   30.7801   52.1385 H   0  0  0  0  0  0  0  0  0  0  0  0
   59.5070   31.2133   52.1334 H   0  0  0  0  0  0  0  0  0  0  0  0
   61.6144   31.7428   50.8569 H   0  0  0  0  0  0  0  0  0  0  0  0
   60.0517   29.3532   45.1640 H   0  0  0  0  0  0  0  0  0  0  0  0
   59.2637   28.1993   46.2926 H   0  0  0  0  0  0  0  0  0  0  0  0
   57.3503   29.3203   45.8335 H   0  0  0  0  0  0  0  0  0  0  0  0
   58.0551   30.6218   46.9076 H   0  0  0  0  0  0  0  0  0  0  0  0
   59.1159   31.5673   44.8024 H   0  0  0  0  0  0  0  0  0  0  0  0
   57.9553   30.4516   43.9090 H   0  0  0  0  0  0  0  0  0  0  0  0
   56.7607   32.3734   43.8473 H   0  0  0  0  0  0  0  0  0  0  0  0
   56.2100   31.6460   45.4479 H   0  0  0  0  0  0  0  0  0  0  0  0
   58.0699   34.1888   43.7899 H   0  0  0  0  0  0  0  0  0  0  0  0
   57.7682   35.3622   45.1456 H   0  0  0  0  0  0  0  0  0  0  0  0
   60.1490   33.5219   44.7063 H   0  0  0  0  0  0  0  0  0  0  0  0
   60.1023   35.3142   44.9740 H   0  0  0  0  0  0  0  0  0  0  0  0
   62.0559   33.4143   45.3255 H   0  0  0  0  0  0  0  0  0  0  0  0
   64.3512   33.1284   46.2503 H   0  0  0  0  0  0  0  0  0  0  0  0
   64.7724   33.4437   48.6841 H   0  0  0  0  0  0  0  0  0  0  0  0
   60.5654   34.2642   49.3062 H   0  0  0  0  0  0  0  0  0  0  0  0
   58.9662   33.9165   48.5923 H   0  0  0  0  0  0  0  0  0  0  0  0
   58.2559   35.2090   47.5730 H   0  0  0  0  0  0  0  0  0  0  0  0
   57.9817   32.1807   47.2435 H   0  0  0  0  0  0  0  0  0  0  0  0
   56.6835   33.4121   47.5731 H   0  0  0  0  0  0  0  0  0  0  0  0
   57.9017   29.1459   48.6329 H   0  0  0  0  0  0  0  0  0  0  0  0
  1  2  1  0
  2  3  1  0
  3  4  2  0
  4  5  1  0
  5  6  2  0
  6  7  1  0
  7  8  2  0
  8  9  1  0
  9 10  1  0
 10 11  1  0
 11 12  1  0
 12 13  1  0
 13 14  1  0
 14 15  1  0
 15 16  1  0
 16 17  1  0
 17 18  1  0
 18 19  2  0
 19 20  1  0
 20 21  2  0
 21 22  1  0
 22 23  1  0
 23 24  1  0
 23 25  1  0
 23 26  1  0
 22 27  2  0
 17 28  1  0
 28 29  1  0
  9 30  1  0
 30 31  2  0
 31  3  1  0
 30  6  1  0
 29 14  1  0
 27 18  1  0
  1 32  1  0
  1 33  1  0
  1 34  1  0
  4 35  1  0
  5 36  1  0
 10 37  1  0
 10 38  1  0
 11 39  1  0
 11 40  1  0
 12 41  1  0
 12 42  1  0
 13 43  1  0
 13 44  1  0
 15 45  1  0
 15 46  1  0
 16 47  1  0
 16 48  1  0
 19 49  1  0
 20 50  1  0
 21 51  1  0
 27 52  1  0
 28 53  1  0
 28 54  1  0
 29 55  1  0
 29 56  1  0
 31 57  1  0
M  END
>  <UniqueID>  (33) 
29

>  <SMILES>  (33) 
COc1ccc2nnn(CCCCN3CCN(c4cccc(C(F)(F)F)c4)CC3)c2c1

>  <Energy>  (33) 
111.19872849379612

>  <Genealogy>  (33) 
COc1ccc2nnn(CCCCN3CCN(c4cccc(C(F)(F)F)c4)CC3)c2c1 (3D coordinates assigned)
COc1ccc2nnn(CCCCN3CCN(c4cccc(C(F)(F)F)c4)CC3)c2c1 (nonaromatic ring conformer: 111.19872849379612 kcal/mol)

>  <smiles>  (33) 
COc1ccc2nnn(CCCCN3CCN(c4cccc(C(F)(F)F)c4)CC3)c2c1

>  <score_type>  (33) 
oracle

>  <origin>  (33) 
adg

>  <m_score__min__energy>  (33) 
-8.9900000000000002

>  <m_primary>  (33) 
energy

$$$$
33:0
     RDKit          3D

 51 53  0  0  0  0  0  0  0  0999 V2000
   59.5270   33.7260   49.1900 C   0  0  0  0  0  0  0  0  0  0  0  0
   59.2460   34.6130   47.9690 C   0  0  0  0  0  0  0  0  0  0  0  0
   59.5400   33.9550   46.6750 N   0  0  0  0  0  0  0  0  0  0  0  0
   60.9870   33.9150   46.3600 C   0  0  0  0  0  0  0  0  0  0  0  0
   61.6210   32.7050   47.0340 C   0  0  0  0  0  0  0  0  0  0  0  0
   58.7050   34.4690   45.5670 C   0  0  0  0  0  0  0  0  0  0  0  0
   57.3220   33.8080   45.5700 C   0  0  0  0  0  0  0  0  0  0  0  0
   57.2630   32.7330   44.6310 O   0  0  0  0  0  0  0  0  0  0  0  0
   57.5930   31.3940   44.8970 C   0  0  0  0  0  0  0  0  0  0  0  0
   58.1730   30.9790   46.1100 C   0  0  0  0  0  0  0  0  0  0  0  0
   58.4850   29.6330   46.3190 C   0  0  0  0  0  0  0  0  0  0  0  0
   58.2200   28.6750   45.3250 C   0  0  0  0  0  0  0  0  0  0  0  0
   58.5530   27.2440   45.5460 C   0  0  0  0  0  0  0  0  0  0  0  0
   59.5630   26.8710   46.4460 C   0  0  0  0  0  0  0  0  0  0  0  0
   59.8590   25.5600   46.6410 N   0  0  0  0  0  0  0  0  0  0  0  0
   59.1990   24.5690   45.9870 C   0  0  0  0  0  0  0  0  0  0  0  0
   58.1790   24.8780   45.0740 C   0  0  0  0  0  0  0  0  0  0  0  0
   57.4500   23.8030   44.3530 C   0  0  0  0  0  0  0  0  0  0  0  0
   56.2440   24.0780   43.6860 C   0  0  0  0  0  0  0  0  0  0  0  0
   55.5750   23.0520   43.0140 C   0  0  0  0  0  0  0  0  0  0  0  0
   56.0870   21.7940   43.0060 N   0  0  0  0  0  0  0  0  0  0  0  0
   57.2500   21.4950   43.6400 C   0  0  0  0  0  0  0  0  0  0  0  0
   57.9520   22.4900   44.3240 C   0  0  0  0  0  0  0  0  0  0  0  0
   57.8620   26.2300   44.8610 C   0  0  0  0  0  0  0  0  0  0  0  0
   57.6320   29.0940   44.1190 C   0  0  0  0  0  0  0  0  0  0  0  0
   57.3210   30.4400   43.9120 C   0  0  0  0  0  0  0  0  0  0  0  0
   59.3450   34.3005   50.1102 H   0  0  0  0  0  0  0  0  0  0  0  0
   58.8625   32.8497   49.1673 H   0  0  0  0  0  0  0  0  0  0  0  0
   60.5749   33.3922   49.1673 H   0  0  0  0  0  0  0  0  0  0  0  0
   58.1828   34.8947   47.9817 H   0  0  0  0  0  0  0  0  0  0  0  0
   59.9121   35.4851   48.0450 H   0  0  0  0  0  0  0  0  0  0  0  0
   61.1231   33.8411   45.2710 H   0  0  0  0  0  0  0  0  0  0  0  0
   61.4676   34.8332   46.7285 H   0  0  0  0  0  0  0  0  0  0  0  0
   61.5606   32.8202   48.1263 H   0  0  0  0  0  0  0  0  0  0  0  0
   61.0845   31.7937   46.7312 H   0  0  0  0  0  0  0  0  0  0  0  0
   62.6757   32.6273   46.7312 H   0  0  0  0  0  0  0  0  0  0  0  0
   58.5844   35.5563   45.6818 H   0  0  0  0  0  0  0  0  0  0  0  0
   59.2034   34.2353   44.6146 H   0  0  0  0  0  0  0  0  0  0  0  0
   57.1129   33.4173   46.5768 H   0  0  0  0  0  0  0  0  0  0  0  0
   56.5740   34.5623   45.2845 H   0  0  0  0  0  0  0  0  0  0  0  0
   58.3819   31.7178   46.8977 H   0  0  0  0  0  0  0  0  0  0  0  0
   58.9419   29.3204   47.2695 H   0  0  0  0  0  0  0  0  0  0  0  0
   60.1180   27.6448   46.9966 H   0  0  0  0  0  0  0  0  0  0  0  0
   59.4656   23.5183   46.1741 H   0  0  0  0  0  0  0  0  0  0  0  0
   55.8286   25.0965   43.6930 H   0  0  0  0  0  0  0  0  0  0  0  0
   54.6312   23.2635   42.4900 H   0  0  0  0  0  0  0  0  0  0  0  0
   57.6401   20.4668   43.6148 H   0  0  0  0  0  0  0  0  0  0  0  0
   58.8938   22.2474   44.8379 H   0  0  0  0  0  0  0  0  0  0  0  0
   57.0653   26.4974   44.1513 H   0  0  0  0  0  0  0  0  0  0  0  0
   57.4151   28.3564   43.3323 H   0  0  0  0  0  0  0  0  0  0  0  0
   56.8575   30.7524   42.9646 H   0  0  0  0  0  0  0  0  0  0  0  0
  1  2  1  0
  2  3  1  0
  3  4  1  0
  4  5  1  0
  3  6  1  0
  6  7  1  0
  7  8  1  0
  8  9  1  0
  9 10  2  0
 10 11  1  0
 11 12  2  0
 12 13  1  0
 13 14  2  0
 14 15  1  0
 15 16  2  0
 16 17  1  0
 17 18  1  0
 18 19  2  0
 19 20  1  0
 20 21  2  0
 21 22  1  0
 22 23  2  0
 17 24  2  0
 12 25  1  0
 25 26  2  0
 26  9  1  0
 24 13  1  0
 23 18  1  0
  1 27  1  0
  1 28  1  0
  1 29  1  0
  2 30  1  0
  2 31  1  0
  4 32  1  0
  4 33  1  0
  5 34  1  0
  5 35  1  0
  5 36  1  0
  6 37  1  0
  6 38  1  0
  7 39  1  0
  7 40  1  0
 10 41  1  0
 11 42  1  0
 14 43  1  0
 16 44  1  0
 19 45  1  0
 20 46  1  0
 22 47  1  0
 23 48  1  0
 24 49  1  0
 25 50  1  0
 26 51  1  0
M  END
>  <UniqueID>  (34) 
30

>  <SMILES>  (34) 
CCN(CC)CCOc1ccc(-c2cncc(-c3ccncc3)c2)cc1

>  <Energy>  (34) 
65.16229437477607

>  <Genealogy>  (34) 
CCN(CC)CCOc1ccc(-c2cncc(-c3ccncc3)c2)cc1 (3D coordinates assigned)
CCN(CC)CCOc1ccc(-c2cncc(-c3ccncc3)c2)cc1 (optimized conformer: 65.16229437477607 kcal/mol)

>  <smiles>  (34) 
CCN(CC)CCOc1ccc(-c2cncc(-c3ccncc3)c2)cc1

>  <score_type>  (34) 
oracle

>  <origin>  (34) 
adg

>  <m_score__min__energy>  (34) 
-7.6200000000000001

>  <m_primary>  (34) 
energy

$$$$
34:0
     RDKit          3D

 32 33  0  0  0  0  0  0  0  0999 V2000
   57.0260   34.4800   44.8720 C   0  0  0  0  0  0  0  0  0  0  0  0
   57.2010   33.5210   45.9100 O   0  0  0  0  0  0  0  0  0  0  0  0
   58.2140   32.5440   45.9890 C   0  0  0  0  0  0  0  0  0  0  0  0
   59.4200   32.8870   46.6300 C   0  0  0  0  0  0  0  0  0  0  0  0
   59.5970   34.2910   47.1700 C   0  0  0  0  0  0  0  0  0  0  0  0
   60.4020   31.9350   46.7840 N   0  0  0  0  0  0  0  0  0  0  0  0
   61.6130   32.2200   47.5090 C   0  0  0  0  0  0  0  0  0  0  0  0
   61.8620   31.6070   48.7490 C   0  0  0  0  0  0  0  0  0  0  0  0
   63.0480   31.8740   49.4390 C   0  0  0  0  0  0  0  0  0  0  0  0
   63.9960   32.7440   48.8930 C   0  0  0  0  0  0  0  0  0  0  0  0
   65.4850   33.0770   49.7600 Cl  0  0  0  0  0  0  0  0  0  0  0  0
   63.7600   33.3460   47.6520 C   0  0  0  0  0  0  0  0  0  0  0  0
   62.5740   33.0810   46.9590 C   0  0  0  0  0  0  0  0  0  0  0  0
   60.2580   30.7110   46.2640 N   0  0  0  0  0  0  0  0  0  0  0  0
   59.1350   30.3370   45.5940 C   0  0  0  0  0  0  0  0  0  0  0  0
   59.0150   28.9370   45.0510 C   0  0  0  0  0  0  0  0  0  0  0  0
   58.0790   31.2440   45.4620 C   0  0  0  0  0  0  0  0  0  0  0  0
   57.0230   30.8850   44.8740 O   0  0  0  0  0  0  0  0  0  0  0  0
   56.8452   35.4706   45.3147 H   0  0  0  0  0  0  0  0  0  0  0  0
   57.9323   34.5163   44.2497 H   0  0  0  0  0  0  0  0  0  0  0  0
   56.1652   34.1939   44.2497 H   0  0  0  0  0  0  0  0  0  0  0  0
   59.5936   34.2640   48.2697 H   0  0  0  0  0  0  0  0  0  0  0  0
   60.5541   34.7020   46.8163 H   0  0  0  0  0  0  0  0  0  0  0  0
   58.7719   34.9266   46.8163 H   0  0  0  0  0  0  0  0  0  0  0  0
   61.1217   30.9154   49.1776 H   0  0  0  0  0  0  0  0  0  0  0  0
   63.2355   31.3987   50.4131 H   0  0  0  0  0  0  0  0  0  0  0  0
   64.5076   34.0281   47.2210 H   0  0  0  0  0  0  0  0  0  0  0  0
   62.3946   33.5492   45.9799 H   0  0  0  0  0  0  0  0  0  0  0  0
   61.0240   30.0080   46.3890 H   0  0  0  0  0  0  0  0  0  0  0  0
   58.9539   28.2238   45.8862 H   0  0  0  0  0  0  0  0  0  0  0  0
   58.1069   28.8592   44.4351 H   0  0  0  0  0  0  0  0  0  0  0  0
   59.8966   28.7058   44.4351 H   0  0  0  0  0  0  0  0  0  0  0  0
  1  2  1  0
  2  3  1  0
  3  4  2  0
  4  5  1  0
  4  6  1  0
  6  7  1  0
  7  8  2  0
  8  9  1  0
  9 10  2  0
 10 11  1  0
 10 12  1  0
 12 13  2  0
  6 14  1  0
 14 15  2  0
 15 16  1  0
 15 17  1  0
 17 18  2  0
 17  3  1  0
 13  7  1  0
  1 19  1  0
  1 20  1  0
  1 21  1  0
  5 22  1  0
  5 23  1  0
  5 24  1  0
  8 25  1  0
  9 26  1  0
 12 27  1  0
 13 28  1  0
 14 29  1  0
 16 30  1  0
 16 31  1  0
 16 32  1  0
M  CHG  1  14   1
M  END
>  <UniqueID>  (35) 
31

>  <SMILES>  (35) 
COc1c(C)n(-c2ccc(Cl)cc2)[nH+]c(C)c1=O

>  <Energy>  (35) 
44.34616238255274

>  <Genealogy>  (35) 
COc1c(C)n(-c2ccc(Cl)cc2)[nH+]c(C)c1=O (protonated)
COc1c(C)n(-c2ccc(Cl)cc2)[nH+]c(C)c1=O (3D coordinates assigned)
COc1c(C)n(-c2ccc(Cl)cc2)[nH+]c(C)c1=O (optimized conformer: 44.34616238255274 kcal/mol)

>  <smiles>  (35) 
COc1c(C)n(-c2ccc(Cl)cc2)nc(C)c1=O

>  <score_type>  (35) 
oracle

>  <origin>  (35) 
adg

>  <m_score__min__energy>  (35) 
-4.96

>  <m_primary>  (35) 
energy

$$$$
35:0
     RDKit          3D

 52 54  0  0  0  0  0  0  0  0999 V2000
   56.6420   29.6430   44.3630 C   0  0  0  0  0  0  0  0  0  0  0  0
   57.0350   28.2070   44.6940 C   0  0  0  0  0  0  0  0  0  0  0  0
   56.1110   27.6350   45.6170 O   0  0  0  0  0  0  0  0  0  0  0  0
   56.1920   26.3160   46.0850 C   0  0  0  0  0  0  0  0  0  0  0  0
   55.1720   25.4420   45.8550 N   0  0  0  0  0  0  0  0  0  0  0  0
   55.2300   24.1440   46.2480 C   0  0  0  0  0  0  0  0  0  0  0  0
   56.3650   23.6620   46.8980 C   0  0  0  0  0  0  0  0  0  0  0  0
   57.4270   24.5300   47.1520 C   0  0  0  0  0  0  0  0  0  0  0  0
   57.3460   25.8770   46.7650 C   0  0  0  0  0  0  0  0  0  0  0  0
   58.4730   26.7870   47.0560 C   0  0  0  0  0  0  0  0  0  0  0  0
   59.6410   26.3140   47.1140 O   0  0  0  0  0  0  0  0  0  0  0  0
   58.2450   28.1920   47.2750 N   0  0  0  0  0  0  0  0  0  0  0  0
   59.2910   29.1500   47.4990 C   0  0  0  0  0  0  0  0  0  0  0  0
   59.8180   29.9210   46.4480 C   0  0  0  0  0  0  0  0  0  0  0  0
   60.8420   30.8410   46.6910 C   0  0  0  0  0  0  0  0  0  0  0  0
   61.3550   31.0030   47.9870 C   0  0  0  0  0  0  0  0  0  0  0  0
   62.4120   31.9940   48.2590 C   0  0  0  0  0  0  0  0  0  0  0  0
   63.4260   31.6290   48.9170 O   0  0  0  0  0  0  0  0  0  0  0  0
   62.3020   33.3680   47.8220 N   0  0  0  0  0  0  0  0  0  0  0  0
   63.3710   33.9260   46.9880 C   0  0  0  0  0  0  0  0  0  0  0  0
   61.2020   34.2350   48.2830 C   0  0  0  0  0  0  0  0  0  0  0  0
   59.9930   34.0850   47.3960 C   0  0  0  0  0  0  0  0  0  0  0  0
   58.8630   33.3750   47.8390 C   0  0  0  0  0  0  0  0  0  0  0  0
   57.7340   33.2680   47.0200 C   0  0  0  0  0  0  0  0  0  0  0  0
   57.7270   33.8620   45.7560 C   0  0  0  0  0  0  0  0  0  0  0  0
   58.8500   34.5640   45.3060 C   0  0  0  0  0  0  0  0  0  0  0  0
   59.9790   34.6750   46.1220 C   0  0  0  0  0  0  0  0  0  0  0  0
   60.8680   30.1960   49.0250 C   0  0  0  0  0  0  0  0  0  0  0  0
   59.8440   29.2760   48.7810 C   0  0  0  0  0  0  0  0  0  0  0  0
   56.4881   30.2053   45.2958 H   0  0  0  0  0  0  0  0  0  0  0  0
   57.4435   30.1168   43.7772 H   0  0  0  0  0  0  0  0  0  0  0  0
   55.7109   29.6426   43.7772 H   0  0  0  0  0  0  0  0  0  0  0  0
   57.0388   27.6108   43.7696 H   0  0  0  0  0  0  0  0  0  0  0  0
   58.0364   28.2088   45.1491 H   0  0  0  0  0  0  0  0  0  0  0  0
   54.3810   23.4722   46.0535 H   0  0  0  0  0  0  0  0  0  0  0  0
   56.4226   22.6080   47.2074 H   0  0  0  0  0  0  0  0  0  0  0  0
   58.3306   24.1579   47.6570 H   0  0  0  0  0  0  0  0  0  0  0  0
   57.2700   28.5580   47.1960 H   0  0  0  0  0  0  0  0  0  0  0  0
   59.4223   29.7996   45.4288 H   0  0  0  0  0  0  0  0  0  0  0  0
   61.2474   31.4406   45.8627 H   0  0  0  0  0  0  0  0  0  0  0  0
   64.1613   34.3385   47.6324 H   0  0  0  0  0  0  0  0  0  0  0  0
   63.7925   33.1329   46.3529 H   0  0  0  0  0  0  0  0  0  0  0  0
   62.9613   34.7253   46.3529 H   0  0  0  0  0  0  0  0  0  0  0  0
   60.9308   33.9566   49.3121 H   0  0  0  0  0  0  0  0  0  0  0  0
   61.5389   35.2814   48.2449 H   0  0  0  0  0  0  0  0  0  0  0  0
   58.8668   32.9024   48.8323 H   0  0  0  0  0  0  0  0  0  0  0  0
   56.8505   32.7153   47.3720 H   0  0  0  0  0  0  0  0  0  0  0  0
   56.8378   33.7777   45.1140 H   0  0  0  0  0  0  0  0  0  0  0  0
   58.8445   35.0290   44.3091 H   0  0  0  0  0  0  0  0  0  0  0  0
   60.8607   35.2271   45.7646 H   0  0  0  0  0  0  0  0  0  0  0  0
   61.2933   30.2871   50.0354 H   0  0  0  0  0  0  0  0  0  0  0  0
   59.4693   28.6461   49.6013 H   0  0  0  0  0  0  0  0  0  0  0  0
  1  2  1  0
  2  3  1  0
  3  4  1  0
  4  5  2  0
  5  6  1  0
  6  7  2  0
  7  8  1  0
  8  9  2  0
  9 10  1  0
 10 11  2  0
 10 12  1  0
 12 13  1  0
 13 14  2  0
 14 15  1  0
 15 16  2  0
 16 17  1  0
 17 18  2  0
 17 19  1  0
 19 20  1  0
 19 21  1  0
 21 22  1  0
 22 23  2  0
 23 24  1  0
 24 25  2  0
 25 26  1  0
 26 27  2  0
 16 28  1  0
 28 29  2  0
  9  4  1  0
 29 13  1  0
 27 22  1  0
  1 30  1  0
  1 31  1  0
  1 32  1  0
  2 33  1  0
  2 34  1  0
  6 35  1  0
  7 36  1  0
  8 37  1  0
 12 38  1  0
 14 39  1  0
 15 40  1  0
 20 41  1  0
 20 42  1  0
 20 43  1  0
 21 44  1  0
 21 45  1  0
 23 46  1  0
 24 47  1  0
 25 48  1  0
 26 49  1  0
 27 50  1  0
 28 51  1  0
 29 52  1  0
M  END
>  <UniqueID>  (36) 
32

>  <SMILES>  (36) 
CCOc1ncccc1C(=O)Nc1ccc(C(=O)N(C)Cc2ccccc2)cc1

>  <Energy>  (36) 
61.00280568043745

>  <Genealogy>  (36) 
CCOc1ncccc1C(=O)Nc1ccc(C(=O)N(C)Cc2ccccc2)cc1 (3D coordinates assigned)
CCOc1ncccc1C(=O)Nc1ccc(C(=O)N(C)Cc2ccccc2)cc1 (optimized conformer: 61.00280568043745 kcal/mol)

>  <smiles>  (36) 
CCOc1ncccc1C(=O)Nc1ccc(C(=O)N(C)Cc2ccccc2)cc1

>  <score_type>  (36) 
oracle

>  <origin>  (36) 
adg

>  <m_score__min__energy>  (36) 
-8.1500000000000004

>  <m_primary>  (36) 
energy

$$$$
36:0
     RDKit          3D

 57 60  0  0  0  0  0  0  0  0999 V2000
   61.0910   31.9560   46.3710 O   0  0  0  0  0  0  0  0  0  0  0  0
   61.5510   32.6470   47.3180 C   0  0  0  0  0  0  0  0  0  0  0  0
   61.5280   34.1470   47.2260 C   0  0  0  0  0  0  0  0  0  0  0  0
   60.1470   34.6470   47.4080 N   0  0  0  0  0  0  0  0  0  0  0  0
   59.6490   35.3900   46.2330 C   0  0  0  0  0  0  0  0  0  0  0  0
   59.2950   34.4680   45.0420 C   0  0  0  0  0  0  0  0  0  0  0  0
   58.9010   33.1000   45.4670 N   0  0  0  0  0  0  0  0  0  0  0  0
   58.1260   32.3770   44.4270 C   0  0  0  0  0  0  0  0  0  0  0  0
   57.8300   30.9250   44.7540 C   0  0  0  0  0  0  0  0  0  0  0  0
   56.5840   30.3620   44.4360 C   0  0  0  0  0  0  0  0  0  0  0  0
   56.3050   29.0310   44.7580 C   0  0  0  0  0  0  0  0  0  0  0  0
   57.2660   28.2350   45.4030 C   0  0  0  0  0  0  0  0  0  0  0  0
   56.9320   26.8150   45.7880 C   0  0  0  0  0  0  0  0  0  0  0  0
   57.5580   26.4590   46.9710 F   0  0  0  0  0  0  0  0  0  0  0  0
   57.3490   25.9410   44.7980 F   0  0  0  0  0  0  0  0  0  0  0  0
   55.5650   26.6970   45.9500 F   0  0  0  0  0  0  0  0  0  0  0  0
   58.4970   28.8110   45.7610 C   0  0  0  0  0  0  0  0  0  0  0  0
   58.7770   30.1420   45.4390 C   0  0  0  0  0  0  0  0  0  0  0  0
   58.2270   33.1160   46.7780 C   0  0  0  0  0  0  0  0  0  0  0  0
   59.1910   33.6110   47.8780 C   0  0  0  0  0  0  0  0  0  0  0  0
   62.1910   31.9980   48.4260 N   0  0  0  0  0  0  0  0  0  0  0  0
   63.3230   32.7060   49.0430 C   0  0  0  0  0  0  0  0  0  0  0  0
   64.1020   31.8040   50.0010 C   0  0  0  0  0  0  0  0  0  0  0  0
   63.1560   31.1730   51.0240 C   0  0  0  0  0  0  0  0  0  0  0  0
   62.0580   30.4160   50.3270 C   0  0  0  0  0  0  0  0  0  0  0  0
   61.4660   29.3100   50.9580 C   0  0  0  0  0  0  0  0  0  0  0  0
   60.4490   28.5980   50.3200 C   0  0  0  0  0  0  0  0  0  0  0  0
   60.0180   28.9810   49.0500 C   0  0  0  0  0  0  0  0  0  0  0  0
   60.5890   30.0900   48.4200 C   0  0  0  0  0  0  0  0  0  0  0  0
   61.5930   30.8410   49.0620 C   0  0  0  0  0  0  0  0  0  0  0  0
   62.1740   34.5694   48.0097 H   0  0  0  0  0  0  0  0  0  0  0  0
   61.8935   34.4524   46.2345 H   0  0  0  0  0  0  0  0  0  0  0  0
   58.7465   35.9462   46.5264 H   0  0  0  0  0  0  0  0  0  0  0  0
   60.4548   36.0616   45.9018 H   0  0  0  0  0  0  0  0  0  0  0  0
   58.4586   34.9175   44.4867 H   0  0  0  0  0  0  0  0  0  0  0  0
   60.1964   34.3732   44.4187 H   0  0  0  0  0  0  0  0  0  0  0  0
   59.7800   32.5420   45.5850 H   0  0  0  0  0  0  0  0  0  0  0  0
   57.1680   32.8994   44.2880 H   0  0  0  0  0  0  0  0  0  0  0  0
   58.7501   32.3713   43.5212 H   0  0  0  0  0  0  0  0  0  0  0  0
   55.8219   30.9727   43.9298 H   0  0  0  0  0  0  0  0  0  0  0  0
   55.3241   28.6029   44.5041 H   0  0  0  0  0  0  0  0  0  0  0  0
   59.2454   28.2101   46.2984 H   0  0  0  0  0  0  0  0  0  0  0  0
   59.7449   30.5805   45.7233 H   0  0  0  0  0  0  0  0  0  0  0  0
   57.3578   33.7884   46.7296 H   0  0  0  0  0  0  0  0  0  0  0  0
   57.9036   32.0936   47.0233 H   0  0  0  0  0  0  0  0  0  0  0  0
   58.5939   34.0353   48.6987 H   0  0  0  0  0  0  0  0  0  0  0  0
   59.7867   32.7439   48.1994 H   0  0  0  0  0  0  0  0  0  0  0  0
   64.0013   33.0529   48.2495 H   0  0  0  0  0  0  0  0  0  0  0  0
   62.9234   33.5533   49.6195 H   0  0  0  0  0  0  0  0  0  0  0  0
   64.5986   31.0080   49.4268 H   0  0  0  0  0  0  0  0  0  0  0  0
   64.8513   32.4091   50.5324 H   0  0  0  0  0  0  0  0  0  0  0  0
   63.7235   30.4811   51.6637 H   0  0  0  0  0  0  0  0  0  0  0  0
   62.7073   31.9707   51.6342 H   0  0  0  0  0  0  0  0  0  0  0  0
   61.8049   29.0036   51.9586 H   0  0  0  0  0  0  0  0  0  0  0  0
   59.9869   27.7337   50.8195 H   0  0  0  0  0  0  0  0  0  0  0  0
   59.2269   28.4089   48.5432 H   0  0  0  0  0  0  0  0  0  0  0  0
   60.2514   30.3791   47.4138 H   0  0  0  0  0  0  0  0  0  0  0  0
  1  2  2  0
  2  3  1  0
  3  4  1  0
  4  5  1  0
  5  6  1  0
  6  7  1  0
  7  8  1  0
  8  9  1  0
  9 10  2  0
 10 11  1  0
 11 12  2  0
 12 13  1  0
 13 14  1  0
 13 15  1  0
 13 16  1  0
 12 17  1  0
 17 18  2  0
  7 19  1  0
 19 20  1  0
  2 21  1  0
 21 22  1  0
 22 23  1  0
 23 24  1  0
 24 25  1  0
 25 26  2  0
 26 27  1  0
 27 28  2  0
 28 29  1  0
 29 30  2  0
 20  4  1  0
 30 21  1  0
 18  9  1  0
 30 25  1  0
  3 31  1  0
  3 32  1  0
  5 33  1  0
  5 34  1  0
  6 35  1  0
  6 36  1  0
  7 37  1  0
  8 38  1  0
  8 39  1  0
 10 40  1  0
 11 41  1  0
 17 42  1  0
 18 43  1  0
 19 44  1  0
 19 45  1  0
 20 46  1  0
 20 47  1  0
 22 48  1  0
 22 49  1  0
 23 50  1  0
 23 51  1  0
 24 52  1  0
 24 53  1  0
 26 54  1  0
 27 55  1  0
 28 56  1  0
 29 57  1  0
M  CHG  1   7   1
M  END
>  <UniqueID>  (37) 
33

>  <SMILES>  (37) 
O=C(CN1CC[NH+](Cc2ccc(C(F)(F)F)cc2)CC1)N1CCCc2ccccc21

>  <Energy>  (37) 
83.14947009865494

>  <Genealogy>  (37) 
O=C(CN1CC[NH+](Cc2ccc(C(F)(F)F)cc2)CC1)N1CCCc2ccccc21 (protonated)
O=C(CN1CC[NH+](Cc2ccc(C(F)(F)F)cc2)CC1)N1CCCc2ccccc21 (3D coordinates assigned)
O=C(CN1CC[NH+](Cc2ccc(C(F)(F)F)cc2)CC1)N1CCCc2ccccc21 (nonaromatic ring conformer: 83.14947009865494 kcal/mol)

>  <smiles>  (37) 
O=C(CN1CCN(Cc2ccc(C(F)(F)F)cc2)CC1)N1CCCc2ccccc21

>  <score_type>  (37) 
oracle

>  <origin>  (37) 
adg

>  <m_score__min__energy>  (37) 
-6.96

>  <m_primary>  (37) 
energy

$$$$
37:0
     RDKit          3D

 32 33  0  0  0  0  0  0  0  0999 V2000
   61.7020   33.5790   48.1270 C   0  0  0  0  0  0  0  0  0  0  0  0
   60.6510   34.2030   49.0380 C   0  0  0  0  0  0  0  0  0  0  0  0
   59.3360   33.9320   48.5530 O   0  0  0  0  0  0  0  0  0  0  0  0
   58.9480   33.9190   47.2030 C   0  0  0  0  0  0  0  0  0  0  0  0
   59.2780   34.9520   46.3040 C   0  0  0  0  0  0  0  0  0  0  0  0
   58.8640   34.8820   44.9720 C   0  0  0  0  0  0  0  0  0  0  0  0
   58.1170   33.7900   44.5220 C   0  0  0  0  0  0  0  0  0  0  0  0
   57.7720   32.7540   45.4120 C   0  0  0  0  0  0  0  0  0  0  0  0
   57.0220   31.6330   45.0190 O   0  0  0  0  0  0  0  0  0  0  0  0
   56.9320   31.1190   43.6910 C   0  0  0  0  0  0  0  0  0  0  0  0
   56.4150   29.6660   43.7030 C   0  0  1  0  0  0  0  0  0  0  0  0
   57.4920   28.6400   44.0120 C   0  0  0  0  0  0  0  0  0  0  0  0
   56.6450   28.3190   45.2300 C   0  0  0  0  0  0  0  0  0  0  0  0
   55.6380   29.3290   44.9020 N   0  0  0  0  0  0  0  0  0  0  0  0
   58.1960   32.8310   46.7440 C   0  0  0  0  0  0  0  0  0  0  0  0
   62.4877   33.1125   48.7394 H   0  0  0  0  0  0  0  0  0  0  0  0
   61.2298   32.8148   47.4921 H   0  0  0  0  0  0  0  0  0  0  0  0
   62.1469   34.3594   47.4921 H   0  0  0  0  0  0  0  0  0  0  0  0
   60.7559   33.7842   50.0497 H   0  0  0  0  0  0  0  0  0  0  0  0
   60.8026   35.2923   49.0576 H   0  0  0  0  0  0  0  0  0  0  0  0
   59.8632   35.8160   46.6519 H   0  0  0  0  0  0  0  0  0  0  0  0
   59.1272   35.6902   44.2738 H   0  0  0  0  0  0  0  0  0  0  0  0
   57.7977   33.7393   43.4706 H   0  0  0  0  0  0  0  0  0  0  0  0
   56.2395   31.7439   43.1080 H   0  0  0  0  0  0  0  0  0  0  0  0
   57.9339   31.1343   43.2371 H   0  0  0  0  0  0  0  0  0  0  0  0
   55.9167   29.6300   42.7230 H   0  0  0  0  0  0  0  0  0  0  0  0
   57.5872   27.8251   43.2793 H   0  0  0  0  0  0  0  0  0  0  0  0
   58.5613   28.8909   44.0728 H   0  0  0  0  0  0  0  0  0  0  0  0
   56.2496   27.2925   45.2276 H   0  0  0  0  0  0  0  0  0  0  0  0
   57.1175   28.3494   46.2229 H   0  0  0  0  0  0  0  0  0  0  0  0
   55.6960   30.0950   45.6150 H   0  0  0  0  0  0  0  0  0  0  0  0
   57.9337   32.0225   47.4422 H   0  0  0  0  0  0  0  0  0  0  0  0
  1  2  1  0
  2  3  1  0
  3  4  1  0
  4  5  2  0
  5  6  1  0
  6  7  2  0
  7  8  1  0
  8  9  1  0
  9 10  1  0
 10 11  1  0
 11 12  1  0
 12 13  1  0
 13 14  1  0
  8 15  2  0
 15  4  1  0
 14 11  1  0
  1 16  1  0
  1 17  1  0
  1 18  1  0
  2 19  1  0
  2 20  1  0
  5 21  1  0
  6 22  1  0
  7 23  1  0
 10 24  1  0
 10 25  1  0
 11 26  1  6
 12 27  1  0
 12 28  1  0
 13 29  1  0
 13 30  1  0
 14 31  1  0
 15 32  1  0
M  END
>  <UniqueID>  (38) 
34

>  <SMILES>  (38) 
CCOc1cccc(OC[C@H]2CCN2)c1

>  <Energy>  (38) 
95.0402362287159

>  <Genealogy>  (38) 
CCOc1cccc(OC[C@H]2CCN2)c1 (chirality)
CCOc1cccc(OC[C@H]2CCN2)c1 (3D coordinates assigned)
CCOc1cccc(OC[C@H]2CCN2)c1 (nonaromatic ring conformer: 95.0402362287159 kcal/mol)

>  <smiles>  (38) 
CCOc1cccc(OCC2CCN2)c1

>  <score_type>  (38) 
oracle

>  <origin>  (38) 
adg

>  <m_score__min__energy>  (38) 
-6.0800000000000001

>  <m_primary>  (38) 
energy

$$$$
38:0
     RDKit          3D

 51 53  0  0  0  0  0  0  0  0999 V2000
   63.6030   33.3020   47.1090 C   0  0  0  0  0  0  0  0  0  0  0  0
   62.4620   33.5280   46.7930 C   0  0  0  0  0  0  0  0  0  0  0  0
   61.0990   33.7950   46.3900 C   0  0  0  0  0  0  0  0  0  0  0  0
   60.2510   33.8490   47.6730 C   0  0  0  0  0  0  0  0  0  0  0  0
   58.8860   34.3810   47.3690 C   0  0  0  0  0  0  0  0  0  0  0  0
   58.0730   33.3570   46.6210 C   0  0  0  0  0  0  0  0  0  0  0  0
   57.5510   33.8310   45.3000 C   0  0  0  0  0  0  0  0  0  0  0  0
   58.1290   32.9300   44.2300 C   0  0  0  0  0  0  0  0  0  0  0  0
   57.1680   31.8800   43.7690 C   0  0  0  0  0  0  0  0  0  0  0  0
   56.9600   31.0090   44.8660 O   0  0  0  0  0  0  0  0  0  0  0  0
   57.7470   29.9140   45.1320 C   0  0  0  0  0  0  0  0  0  0  0  0
   59.1230   29.9020   45.0400 C   0  0  0  0  0  0  0  0  0  0  0  0
   59.8800   28.7700   45.3200 C   0  0  0  0  0  0  0  0  0  0  0  0
   59.2350   27.5940   45.7110 C   0  0  0  0  0  0  0  0  0  0  0  0
   57.8810   27.6350   45.7930 C   0  0  0  0  0  0  0  0  0  0  0  0
   57.1170   28.7490   45.5190 C   0  0  0  0  0  0  0  0  0  0  0  0
   57.1800   26.4250   46.1940 C   0  0  0  0  0  0  0  0  0  0  0  0
   55.8680   26.1320   46.3740 N   0  0  0  0  0  0  0  0  0  0  0  0
   55.7650   24.8680   46.7500 N   0  0  0  0  0  0  0  0  0  0  0  0
   56.9910   24.3230   46.8220 C   0  0  0  0  0  0  0  0  0  0  0  0
   57.2980   22.9970   47.1880 O   0  0  0  0  0  0  0  0  0  0  0  0
   57.1080   21.9800   46.2330 C   0  0  0  0  0  0  0  0  0  0  0  0
   57.9150   25.3000   46.4710 C   0  0  0  0  0  0  0  0  0  0  0  0
   59.3780   25.1860   46.3970 C   0  0  0  0  0  0  0  0  0  0  0  0
   60.0920   26.4340   45.9940 C   0  0  0  0  0  0  0  0  0  0  0  0
   64.6443   33.0957   47.3974 H   0  0  0  0  0  0  0  0  0  0  0  0
   61.0437   34.7574   45.8602 H   0  0  0  0  0  0  0  0  0  0  0  0
   60.7311   33.0127   45.7098 H   0  0  0  0  0  0  0  0  0  0  0  0
   60.1610   32.8358   48.0918 H   0  0  0  0  0  0  0  0  0  0  0  0
   60.7414   34.5138   48.3993 H   0  0  0  0  0  0  0  0  0  0  0  0
   58.3763   34.6290   48.3117 H   0  0  0  0  0  0  0  0  0  0  0  0
   58.9868   35.2801   46.7433 H   0  0  0  0  0  0  0  0  0  0  0  0
   58.7069   32.4754   46.4448 H   0  0  0  0  0  0  0  0  0  0  0  0
   57.1952   33.1340   47.2453 H   0  0  0  0  0  0  0  0  0  0  0  0
   56.4527   33.7716   45.2874 H   0  0  0  0  0  0  0  0  0  0  0  0
   57.8412   34.8771   45.1226 H   0  0  0  0  0  0  0  0  0  0  0  0
   58.4130   33.5490   43.3662 H   0  0  0  0  0  0  0  0  0  0  0  0
   58.9961   32.4136   44.6675 H   0  0  0  0  0  0  0  0  0  0  0  0
   56.2170   32.3429   43.4668 H   0  0  0  0  0  0  0  0  0  0  0  0
   57.5649   31.3344   42.9002 H   0  0  0  0  0  0  0  0  0  0  0  0
   59.6411   30.8227   44.7336 H   0  0  0  0  0  0  0  0  0  0  0  0
   60.9763   28.8000   45.2345 H   0  0  0  0  0  0  0  0  0  0  0  0
   56.0213   28.7099   45.6075 H   0  0  0  0  0  0  0  0  0  0  0  0
   54.8650   24.3900   46.9540 H   0  0  0  0  0  0  0  0  0  0  0  0
   56.9293   21.0237   46.7464 H   0  0  0  0  0  0  0  0  0  0  0  0
   56.2402   22.2258   45.6033 H   0  0  0  0  0  0  0  0  0  0  0  0
   58.0060   21.8959   45.6033 H   0  0  0  0  0  0  0  0  0  0  0  0
   59.7470   24.8879   47.3894 H   0  0  0  0  0  0  0  0  0  0  0  0
   59.5878   24.4461   45.6106 H   0  0  0  0  0  0  0  0  0  0  0  0
   60.7767   26.7103   46.8094 H   0  0  0  0  0  0  0  0  0  0  0  0
   60.5995   26.1973   45.0472 H   0  0  0  0  0  0  0  0  0  0  0  0
  1  2  3  0
  2  3  1  0
  3  4  1  0
  4  5  1  0
  5  6  1  0
  6  7  1  0
  7  8  1  0
  8  9  1  0
  9 10  1  0
 10 11  1  0
 11 12  2  0
 12 13  1  0
 13 14  2  0
 14 15  1  0
 15 16  2  0
 15 17  1  0
 17 18  2  0
 18 19  1  0
 19 20  1  0
 20 21  1  0
 21 22  1  0
 20 23  2  0
 23 24  1  0
 24 25  1  0
 16 11  1  0
 23 17  1  0
 25 14  1  0
  1 26  1  0
  3 27  1  0
  3 28  1  0
  4 29  1  0
  4 30  1  0
  5 31  1  0
  5 32  1  0
  6 33  1  0
  6 34  1  0
  7 35  1  0
  7 36  1  0
  8 37  1  0
  8 38  1  0
  9 39  1  0
  9 40  1  0
 12 41  1  0
 13 42  1  0
 16 43  1  0
 19 44  1  0
 22 45  1  0
 22 46  1  0
 22 47  1  0
 24 48  1  0
 24 49  1  0
 25 50  1  0
 25 51  1  0
M  END
>  <smiles>  (39) 
C#CCCCCCCCOc1ccc2c(c1)-c1n[nH]c(OC)c1CC2

>  <score_type>  (39) 
oracle

>  <origin>  (39) 
adg

>  <m_score__min__energy>  (39) 
-8.0199999999999996

>  <m_primary>  (39) 
energy

$$$$
39:0
     RDKit          3D

 58 59  0  0  0  0  0  0  0  0999 V2000
   56.4400   29.4440   42.6120 C   0  0  0  0  0  0  0  0  0  0  0  0
   56.7820   30.9300   42.5110 C   0  0  0  0  0  0  0  0  0  0  0  0
   57.6020   31.4270   43.7150 C   0  0  0  0  0  0  0  0  0  0  0  0
   57.4050   30.6210   44.9820 C   0  0  0  0  0  0  0  0  0  0  0  0
   56.2780   30.0950   45.2040 O   0  0  0  0  0  0  0  0  0  0  0  0
   58.4760   30.4350   45.9440 N   0  0  0  0  0  0  0  0  0  0  0  0
   58.5260   31.2940   47.1430 C   0  0  0  0  0  0  0  0  0  0  0  0
   58.3380   32.7770   46.7970 C   0  0  0  0  0  0  0  0  0  0  0  0
   59.5900   33.3560   46.2410 N   0  0  0  0  0  0  0  0  0  0  0  0
   60.5750   33.6510   47.3080 C   0  0  0  0  0  0  0  0  0  0  0  0
   61.9740   33.8200   46.7220 C   0  0  0  0  0  0  0  0  0  0  0  0
   59.3100   34.5580   45.4220 C   0  0  0  0  0  0  0  0  0  0  0  0
   57.8800   34.5410   44.8820 C   0  0  0  0  0  0  0  0  0  0  0  0
   59.6230   29.5460   45.6780 C   0  0  0  0  0  0  0  0  0  0  0  0
   59.1530   28.1630   45.3190 C   0  0  0  0  0  0  0  0  0  0  0  0
   59.1980   27.1300   46.2650 C   0  0  0  0  0  0  0  0  0  0  0  0
   58.7050   25.8700   45.9330 C   0  0  0  0  0  0  0  0  0  0  0  0
   58.1660   25.6340   44.6600 C   0  0  0  0  0  0  0  0  0  0  0  0
   57.6230   24.3010   44.2960 C   0  0  0  0  0  0  0  0  0  0  0  0
   58.1470   23.1310   44.8790 C   0  0  0  0  0  0  0  0  0  0  0  0
   57.6330   21.8760   44.5360 C   0  0  0  0  0  0  0  0  0  0  0  0
   56.5920   21.7750   43.6110 C   0  0  0  0  0  0  0  0  0  0  0  0
   56.0620   22.9270   43.0260 C   0  0  0  0  0  0  0  0  0  0  0  0
   56.5740   24.1850   43.3650 C   0  0  0  0  0  0  0  0  0  0  0  0
   58.1460   26.6950   43.7380 C   0  0  0  0  0  0  0  0  0  0  0  0
   58.6330   27.9180   44.0820 N   0  0  0  0  0  0  0  0  0  0  0  0
   56.3733   29.1543   43.6711 H   0  0  0  0  0  0  0  0  0  0  0  0
   55.4750   29.2555   42.1188 H   0  0  0  0  0  0  0  0  0  0  0  0
   57.2255   28.8526   42.1188 H   0  0  0  0  0  0  0  0  0  0  0  0
   57.3654   31.0966   41.5934 H   0  0  0  0  0  0  0  0  0  0  0  0
   55.8361   31.4913   42.4950 H   0  0  0  0  0  0  0  0  0  0  0  0
   58.6676   31.3884   43.4449 H   0  0  0  0  0  0  0  0  0  0  0  0
   57.2517   32.4465   43.9339 H   0  0  0  0  0  0  0  0  0  0  0  0
   57.7268   30.9865   47.8335 H   0  0  0  0  0  0  0  0  0  0  0  0
   59.5178   31.1761   47.6038 H   0  0  0  0  0  0  0  0  0  0  0  0
   57.5347   32.8738   46.0518 H   0  0  0  0  0  0  0  0  0  0  0  0
   58.0774   33.3217   47.7164 H   0  0  0  0  0  0  0  0  0  0  0  0
   60.2841   34.5797   47.8207 H   0  0  0  0  0  0  0  0  0  0  0  0
   60.5889   32.8104   48.0174 H   0  0  0  0  0  0  0  0  0  0  0  0
   62.7055   33.9084   47.5388 H   0  0  0  0  0  0  0  0  0  0  0  0
   62.2202   32.9451   46.1024 H   0  0  0  0  0  0  0  0  0  0  0  0
   62.0047   34.7284   46.1024 H   0  0  0  0  0  0  0  0  0  0  0  0
   59.4478   35.4551   46.0434 H   0  0  0  0  0  0  0  0  0  0  0  0
   60.0036   34.5659   44.5683 H   0  0  0  0  0  0  0  0  0  0  0  0
   57.1707   34.5326   45.7227 H   0  0  0  0  0  0  0  0  0  0  0  0
   57.7095   35.4372   44.2674 H   0  0  0  0  0  0  0  0  0  0  0  0
   57.7308   33.6410   44.2674 H   0  0  0  0  0  0  0  0  0  0  0  0
   60.2109   29.9554   44.8433 H   0  0  0  0  0  0  0  0  0  0  0  0
   60.2404   29.4846   46.5863 H   0  0  0  0  0  0  0  0  0  0  0  0
   59.6202   27.3130   47.2641 H   0  0  0  0  0  0  0  0  0  0  0  0
   58.7387   25.0566   46.6727 H   0  0  0  0  0  0  0  0  0  0  0  0
   58.9663   23.2045   45.6093 H   0  0  0  0  0  0  0  0  0  0  0  0
   58.0495   20.9675   44.9956 H   0  0  0  0  0  0  0  0  0  0  0  0
   56.1890   20.7872   43.3428 H   0  0  0  0  0  0  0  0  0  0  0  0
   55.2413   22.8458   42.2981 H   0  0  0  0  0  0  0  0  0  0  0  0
   56.1535   25.0891   42.9005 H   0  0  0  0  0  0  0  0  0  0  0  0
   57.7335   26.5353   42.7309 H   0  0  0  0  0  0  0  0  0  0  0  0
   58.5960   28.6840   43.3730 H   0  0  0  0  0  0  0  0  0  0  0  0
  1  2  1  0
  2  3  1  0
  3  4  1  0
  4  5  2  0
  4  6  1  0
  6  7  1  0
  7  8  1  0
  8  9  1  0
  9 10  1  0
 10 11  1  0
  9 12  1  0
 12 13  1  0
  6 14  1  0
 14 15  1  0
 15 16  2  0
 16 17  1  0
 17 18  2  0
 18 19  1  0
 19 20  2  0
 20 21  1  0
 21 22  2  0
 22 23  1  0
 23 24  2  0
 18 25  1  0
 25 26  2  0
 26 15  1  0
 24 19  1  0
  1 27  1  0
  1 28  1  0
  1 29  1  0
  2 30  1  0
  2 31  1  0
  3 32  1  0
  3 33  1  0
  7 34  1  0
  7 35  1  0
  8 36  1  0
  8 37  1  0
 10 38  1  0
 10 39  1  0
 11 40  1  0
 11 41  1  0
 11 42  1  0
 12 43  1  0
 12 44  1  0
 13 45  1  0
 13 46  1  0
 13 47  1  0
 14 48  1  0
 14 49  1  0
 16 50  1  0
 17 51  1  0
 20 52  1  0
 21 53  1  0
 22 54  1  0
 23 55  1  0
 24 56  1  0
 25 57  1  0
 26 58  1  0
M  CHG  1  26   1
M  END
>  <UniqueID>  (40) 
35

>  <SMILES>  (40) 
CCCC(=O)N(CCN(CC)CC)Cc1ccc(-c2ccccc2)c[nH+]1

>  <Energy>  (40) 
55.701486819966185

>  <Genealogy>  (40) 
CCCC(=O)N(CCN(CC)CC)Cc1ccc(-c2ccccc2)c[nH+]1 (protonated)
CCCC(=O)N(CCN(CC)CC)Cc1ccc(-c2ccccc2)c[nH+]1 (3D coordinates assigned)
CCCC(=O)N(CCN(CC)CC)Cc1ccc(-c2ccccc2)c[nH+]1 (optimized conformer: 55.701486819966185 kcal/mol)

>  <smiles>  (40) 
CCCC(=O)N(CCN(CC)CC)Cc1ccc(-c2ccccc2)cn1

>  <score_type>  (40) 
oracle

>  <origin>  (40) 
adg

>  <m_score__min__energy>  (40) 
-6.9299999999999997

>  <m_primary>  (40) 
energy

$$$$
40:0
     RDKit          3D

 32 33  0  0  0  0  0  0  0  0999 V2000
   58.9708   35.8192   47.7386 H   0  0  0  0  0  0  0  0  0  0  0  0
   59.3170   34.7770   47.8010 C   0  0  0  0  0  0  0  0  0  0  0  0
   60.3390   34.5140   48.6330 C   0  0  0  0  0  0  0  0  0  0  0  0
   60.2185   34.8012   49.6880 H   0  0  0  0  0  0  0  0  0  0  0  0
   61.6140   33.8690   48.2450 C   0  0  0  0  0  0  0  0  0  0  0  0
   62.5140   33.3970   49.2060 C   0  0  0  0  0  0  0  0  0  0  0  0
   62.2816   33.4894   50.2772 H   0  0  0  0  0  0  0  0  0  0  0  0
   63.7090   32.8080   48.7930 C   0  0  0  0  0  0  0  0  0  0  0  0
   64.7010   32.3090   49.8000 C   0  0  0  0  0  0  0  0  0  0  0  0
   64.3213   32.5000   50.8146 H   0  0  0  0  0  0  0  0  0  0  0  0
   64.8512   31.2281   49.6622 H   0  0  0  0  0  0  0  0  0  0  0  0
   65.6584   32.8328   49.6622 H   0  0  0  0  0  0  0  0  0  0  0  0
   63.9900   32.7620   47.4610 N   0  0  0  0  0  0  0  0  0  0  0  0
   64.8900   32.3470   47.1330 H   0  0  0  0  0  0  0  0  0  0  0  0
   63.1540   33.2350   46.5640 O   0  0  0  0  0  0  0  0  0  0  0  0
   61.9910   33.7840   46.8960 C   0  0  0  0  0  0  0  0  0  0  0  0
   61.2330   34.2180   45.9870 O   0  0  0  0  0  0  0  0  0  0  0  0
   58.6200   33.7770   46.9620 C   0  0  0  0  0  0  0  0  0  0  0  0
   58.8060   32.3970   47.1550 C   0  0  0  0  0  0  0  0  0  0  0  0
   59.4713   32.0408   47.9553 H   0  0  0  0  0  0  0  0  0  0  0  0
   58.1490   31.4750   46.3340 C   0  0  0  0  0  0  0  0  0  0  0  0
   58.2899   30.3972   46.5026 H   0  0  0  0  0  0  0  0  0  0  0  0
   57.3140   31.9120   45.3000 C   0  0  0  0  0  0  0  0  0  0  0  0
   56.6750   30.9480   44.5070 O   0  0  0  0  0  0  0  0  0  0  0  0
   57.0220   30.6590   43.1570 C   0  0  0  0  0  0  0  0  0  0  0  0
   57.8671   29.9551   43.1383 H   0  0  0  0  0  0  0  0  0  0  0  0
   56.1587   30.2091   42.6448 H   0  0  0  0  0  0  0  0  0  0  0  0
   57.3083   31.5894   42.6448 H   0  0  0  0  0  0  0  0  0  0  0  0
   57.1500   33.2940   45.0870 C   0  0  0  0  0  0  0  0  0  0  0  0
   56.5023   33.6500   44.2723 H   0  0  0  0  0  0  0  0  0  0  0  0
   57.8080   34.2160   45.9080 C   0  0  0  0  0  0  0  0  0  0  0  0
   57.6869   35.2938   45.7246 H   0  0  0  0  0  0  0  0  0  0  0  0
  1  2  1  0
  2  3  2  0
  3  4  1  0
  3  5  1  0
  5  6  2  0
  6  7  1  0
  6  8  1  0
  8  9  1  0
  9 10  1  0
  9 11  1  0
  9 12  1  0
  8 13  2  0
 13 14  1  0
 13 15  1  0
 15 16  1  0
 16 17  2  0
  2 18  1  0
 18 19  2  0
 19 20  1  0
 19 21  1  0
 21 22  1  0
 21 23  2  0
 23 24  1  0
 24 25  1  0
 25 26  1  0
 25 27  1  0
 25 28  1  0
 23 29  1  0
 29 30  1  0
 29 31  2  0
 31 32  1  0
 16  5  1  0
 31 18  1  0
M  CHG  1  13   1
M  END
>  <UniqueID>  (41) 
36

>  <SMILES>  (41) 
COc1ccc(/C=C\c2cc(C)[nH+]oc2=O)cc1

>  <Energy>  (41) 
41.83133624088153

>  <Genealogy>  (41) 
COc1ccc(C=Cc2cc(C)[nH+]oc2=O)cc1 (protonated)
COc1ccc(/C=C\c2cc(C)[nH+]oc2=O)cc1 (cis-trans isomerization)
COc1ccc(/C=C\c2cc(C)[nH+]oc2=O)cc1 (3D coordinates assigned)
COc1ccc(/C=C\c2cc(C)[nH+]oc2=O)cc1 (optimized conformer: 41.83133624088153 kcal/mol)

>  <smiles>  (41) 
COc1ccc(C=Cc2cc(C)noc2=O)cc1

>  <score_type>  (41) 
oracle

>  <origin>  (41) 
adg

>  <m_score__min__energy>  (41) 
-6.1100000000000003

>  <m_primary>  (41) 
energy

$$$$
41:0
     RDKit          3D

 23 23  0  0  0  0  0  0  0  0999 V2000
   58.5630   34.2370   45.4800 C   0  0  0  0  0  0  0  0  0  0  0  0
   57.3860   33.3800   45.0450 C   0  0  0  0  0  0  0  0  0  0  0  0
   57.5080   32.1020   45.6210 O   0  0  0  0  0  0  0  0  0  0  0  0
   57.0300   30.9430   44.4800 S   0  0  0  0  0  0  0  0  0  0  0  0
   55.5300   30.8450   44.4900 O   0  0  0  0  0  0  0  0  0  0  0  0
   57.4630   31.3650   43.1020 O   0  0  0  0  0  0  0  0  0  0  0  0
   57.6990   29.3620   44.8790 C   0  0  0  0  0  0  0  0  0  0  0  0
   59.0740   29.1330   44.7370 C   0  0  0  0  0  0  0  0  0  0  0  0
   59.6120   27.8770   45.0360 C   0  0  0  0  0  0  0  0  0  0  0  0
   58.7790   26.8440   45.4740 C   0  0  0  0  0  0  0  0  0  0  0  0
   57.4030   27.0640   45.6130 C   0  0  0  0  0  0  0  0  0  0  0  0
   56.5440   25.9980   46.0580 C   0  0  0  0  0  0  0  0  0  0  0  0
   55.8540   25.1420   46.4170 N   0  0  0  0  0  0  0  0  0  0  0  0
   56.8630   28.3220   45.3140 C   0  0  0  0  0  0  0  0  0  0  0  0
   58.6070   34.2690   46.5787 H   0  0  0  0  0  0  0  0  0  0  0  0
   59.4957   33.8051   45.0881 H   0  0  0  0  0  0  0  0  0  0  0  0
   58.4384   35.2572   45.0881 H   0  0  0  0  0  0  0  0  0  0  0  0
   56.4475   33.8464   45.3793 H   0  0  0  0  0  0  0  0  0  0  0  0
   57.3771   33.2925   43.9485 H   0  0  0  0  0  0  0  0  0  0  0  0
   59.7321   29.9431   44.3895 H   0  0  0  0  0  0  0  0  0  0  0  0
   60.6924   27.7021   44.9262 H   0  0  0  0  0  0  0  0  0  0  0  0
   59.2044   25.8574   45.7098 H   0  0  0  0  0  0  0  0  0  0  0  0
   55.7819   28.4947   45.4204 H   0  0  0  0  0  0  0  0  0  0  0  0
  1  2  1  0
  2  3  1  0
  3  4  1  0
  4  5  2  0
  4  6  2  0
  4  7  1  0
  7  8  2  0
  8  9  1  0
  9 10  2  0
 10 11  1  0
 11 12  1  0
 12 13  3  0
 11 14  2  0
 14  7  1  0
  1 15  1  0
  1 16  1  0
  1 17  1  0
  2 18  1  0
  2 19  1  0
  8 20  1  0
  9 21  1  0
 10 22  1  0
 14 23  1  0
M  END
>  <UniqueID>  (42) 
37

>  <SMILES>  (42) 
CCOS(=O)(=O)c1cccc(C#N)c1

>  <Energy>  (42) 
19.309588891629737

>  <Genealogy>  (42) 
CCOS(=O)(=O)c1cccc(C#N)c1 (3D coordinates assigned)
CCOS(=O)(=O)c1cccc(C#N)c1 (optimized conformer: 19.309588891629737 kcal/mol)

>  <smiles>  (42) 
CCOS(=O)(=O)c1cccc(C#N)c1

>  <score_type>  (42) 
oracle

>  <origin>  (42) 
adg

>  <m_score__min__energy>  (42) 
-5.7699999999999996

>  <m_primary>  (42) 
energy

$$$$
42:0
     RDKit          3D

 50 52  0  0  0  0  0  0  0  0999 V2000
   58.1490   27.0200   42.6570 C   0  0  0  0  0  0  0  0  0  0  0  0
   58.5650   27.3820   44.0810 C   0  0  0  0  0  0  0  0  0  0  0  0
   57.4000   28.0030   44.8590 C   0  0  0  0  0  0  0  0  0  0  0  0
   57.6600   29.4350   45.1100 N   0  0  0  0  0  0  0  0  0  0  0  0
   58.1990   29.8290   46.3140 C   0  0  0  0  0  0  0  0  0  0  0  0
   58.4760   28.9860   47.2100 O   0  0  0  0  0  0  0  0  0  0  0  0
   58.4510   31.1820   46.5150 C   0  0  0  0  0  0  0  0  0  0  0  0
   58.1930   32.0750   45.5280 C   0  0  0  0  0  0  0  0  0  0  0  0
   58.6090   33.3000   45.9000 N   0  0  0  0  0  0  0  0  0  0  0  0
   59.1150   33.1170   47.1450 C   0  0  0  0  0  0  0  0  0  0  0  0
   59.8320   34.2100   47.8870 C   0  0  0  0  0  0  0  0  0  0  0  0
   61.3100   33.9340   47.9250 C   0  0  0  0  0  0  0  0  0  0  0  0
   62.0240   33.7470   46.7280 C   0  0  0  0  0  0  0  0  0  0  0  0
   63.3920   33.4670   46.7590 C   0  0  0  0  0  0  0  0  0  0  0  0
   64.0610   33.3710   47.9830 C   0  0  0  0  0  0  0  0  0  0  0  0
   63.3600   33.5550   49.1780 C   0  0  0  0  0  0  0  0  0  0  0  0
   61.9900   33.8360   49.1510 C   0  0  0  0  0  0  0  0  0  0  0  0
   59.0220   31.8210   47.5600 N   0  0  0  0  0  0  0  0  0  0  0  0
   59.5640   31.2250   48.7820 C   0  0  0  0  0  0  0  0  0  0  0  0
   57.6770   31.7070   44.3210 N   0  0  0  0  0  0  0  0  0  0  0  0
   57.4630   32.7010   43.2550 C   0  0  0  0  0  0  0  0  0  0  0  0
   58.2480   32.3100   41.9990 C   0  0  0  0  0  0  0  0  0  0  0  0
   57.3820   32.4210   40.7480 C   0  0  0  0  0  0  0  0  0  0  0  0
   57.4240   30.3670   44.1130 C   0  0  0  0  0  0  0  0  0  0  0  0
   56.9820   29.9850   42.9920 O   0  0  0  0  0  0  0  0  0  0  0  0
   57.3196   26.2982   42.6896 H   0  0  0  0  0  0  0  0  0  0  0  0
   57.8243   27.9280   42.1278 H   0  0  0  0  0  0  0  0  0  0  0  0
   59.0035   26.5730   42.1278 H   0  0  0  0  0  0  0  0  0  0  0  0
   58.8976   26.4709   44.6000 H   0  0  0  0  0  0  0  0  0  0  0  0
   59.3802   28.1187   44.0286 H   0  0  0  0  0  0  0  0  0  0  0  0
   56.4751   27.8990   44.2727 H   0  0  0  0  0  0  0  0  0  0  0  0
   57.2943   27.4831   45.8226 H   0  0  0  0  0  0  0  0  0  0  0  0
   58.6120   34.1840   45.3460 H   0  0  0  0  0  0  0  0  0  0  0  0
   59.6552   35.1696   47.3791 H   0  0  0  0  0  0  0  0  0  0  0  0
   59.4498   34.2525   48.9176 H   0  0  0  0  0  0  0  0  0  0  0  0
   61.5025   33.8216   45.7624 H   0  0  0  0  0  0  0  0  0  0  0  0
   63.9441   33.3217   45.8187 H   0  0  0  0  0  0  0  0  0  0  0  0
   65.1385   33.1508   48.0054 H   0  0  0  0  0  0  0  0  0  0  0  0
   63.8863   33.4788   50.1409 H   0  0  0  0  0  0  0  0  0  0  0  0
   61.4423   33.9810   50.0939 H   0  0  0  0  0  0  0  0  0  0  0  0
   59.1172   31.7163   49.6589 H   0  0  0  0  0  0  0  0  0  0  0  0
   59.3266   30.1511   48.8027 H   0  0  0  0  0  0  0  0  0  0  0  0
   60.6555   31.3597   48.8027 H   0  0  0  0  0  0  0  0  0  0  0  0
   56.3910   32.7486   43.0129 H   0  0  0  0  0  0  0  0  0  0  0  0
   57.8138   33.6829   43.6053 H   0  0  0  0  0  0  0  0  0  0  0  0
   59.1149   32.9791   41.8954 H   0  0  0  0  0  0  0  0  0  0  0  0
   58.5740   31.2647   42.1043 H   0  0  0  0  0  0  0  0  0  0  0  0
   56.3303   32.5558   41.0409 H   0  0  0  0  0  0  0  0  0  0  0  0
   57.7098   33.2845   40.1505 H   0  0  0  0  0  0  0  0  0  0  0  0
   57.4814   31.5028   40.1505 H   0  0  0  0  0  0  0  0  0  0  0  0
  1  2  1  0
  2  3  1  0
  3  4  1  0
  4  5  1  0
  5  6  2  0
  5  7  1  0
  7  8  2  0
  8  9  1  0
  9 10  2  0
 10 11  1  0
 11 12  1  0
 12 13  2  0
 13 14  1  0
 14 15  2  0
 15 16  1  0
 16 17  2  0
 10 18  1  0
 18 19  1  0
  8 20  1  0
 20 21  1  0
 21 22  1  0
 22 23  1  0
 20 24  1  0
 24 25  2  0
 24  4  1  0
 18  7  1  0
 17 12  1  0
  1 26  1  0
  1 27  1  0
  1 28  1  0
  2 29  1  0
  2 30  1  0
  3 31  1  0
  3 32  1  0
  9 33  1  0
 11 34  1  0
 11 35  1  0
 13 36  1  0
 14 37  1  0
 15 38  1  0
 16 39  1  0
 17 40  1  0
 19 41  1  0
 19 42  1  0
 19 43  1  0
 21 44  1  0
 21 45  1  0
 22 46  1  0
 22 47  1  0
 23 48  1  0
 23 49  1  0
 23 50  1  0
M  CHG  1   9   1
M  END
>  <UniqueID>  (43) 
38

>  <SMILES>  (43) 
CCCn1c(=O)c2c([nH+]c(Cc3ccccc3)n2C)n(CCC)c1=O

>  <Energy>  (43) 
86.88269965317362

>  <Genealogy>  (43) 
CCCn1c(=O)c2c([nH+]c(Cc3ccccc3)n2C)n(CCC)c1=O (protonated)
CCCn1c(=O)c2c([nH+]c(Cc3ccccc3)n2C)n(CCC)c1=O (3D coordinates assigned)
CCCn1c(=O)c2c([nH+]c(Cc3ccccc3)n2C)n(CCC)c1=O (optimized conformer: 86.88269965317362 kcal/mol)

>  <smiles>  (43) 
CCCn1c(=O)c2c(nc(Cc3ccccc3)n2C)n(CCC)c1=O

>  <score_type>  (43) 
oracle

>  <origin>  (43) 
adg

>  <m_score__min__energy>  (43) 
-5.7599999999999998

>  <m_primary>  (43) 
energy

$$$$
43:0
     RDKit          3D

 52 54  0  0  0  0  0  0  0  0999 V2000
   57.4100   21.9360   44.1630 C   0  0  0  0  0  0  0  0  0  0  0  0
   57.7740   21.3110   45.5060 C   0  0  0  0  0  0  0  0  0  0  0  0
   57.6830   22.2760   46.5540 O   0  0  0  0  0  0  0  0  0  0  0  0
   57.6590   23.6700   46.3820 C   0  0  0  0  0  0  0  0  0  0  0  0
   56.4980   24.4430   46.5710 C   0  0  0  0  0  0  0  0  0  0  0  0
   56.5320   25.8280   46.3840 C   0  0  0  0  0  0  0  0  0  0  0  0
   57.7240   26.4680   46.0020 C   0  0  0  0  0  0  0  0  0  0  0  0
   57.7610   27.9400   45.8040 C   0  0  0  0  0  0  0  0  0  0  0  0
   57.0170   28.5420   44.7760 C   0  0  0  0  0  0  0  0  0  0  0  0
   57.0650   29.9300   44.6050 C   0  0  0  0  0  0  0  0  0  0  0  0
   56.2810   30.5840   43.5140 C   0  0  0  0  0  0  0  0  0  0  0  0
   57.8340   30.6870   45.4330 N   0  0  0  0  0  0  0  0  0  0  0  0
   58.5690   30.1450   46.4420 C   0  0  0  0  0  0  0  0  0  0  0  0
   59.3900   31.0240   47.3000 C   0  0  0  0  0  0  0  0  0  0  0  0
   59.1280   31.1240   48.5310 O   0  0  0  0  0  0  0  0  0  0  0  0
   60.4710   31.7860   46.7360 N   0  0  0  0  0  0  0  0  0  0  0  0
   61.4370   32.4850   47.5380 C   0  0  0  0  0  0  0  0  0  0  0  0
   62.7230   31.9420   47.6790 C   0  0  0  0  0  0  0  0  0  0  0  0
   63.6870   32.5960   48.4480 C   0  0  0  0  0  0  0  0  0  0  0  0
   63.3700   33.7900   49.0960 C   0  0  0  0  0  0  0  0  0  0  0  0
   62.0850   34.3280   48.9880 C   0  0  0  0  0  0  0  0  0  0  0  0
   61.1000   33.6750   48.2190 C   0  0  0  0  0  0  0  0  0  0  0  0
   59.7800   34.1520   48.1350 O   0  0  0  0  0  0  0  0  0  0  0  0
   59.2510   34.9690   47.0890 C   0  0  0  0  0  0  0  0  0  0  0  0
   58.3140   34.1630   46.1970 C   0  0  0  0  0  0  0  0  0  0  0  0
   58.5420   28.7550   46.6420 C   0  0  0  0  0  0  0  0  0  0  0  0
   58.8800   25.6920   45.8080 C   0  0  0  0  0  0  0  0  0  0  0  0
   58.8440   24.3080   45.9960 C   0  0  0  0  0  0  0  0  0  0  0  0
   56.8630   22.8753   44.3319 H   0  0  0  0  0  0  0  0  0  0  0  0
   58.3284   22.1437   43.5943 H   0  0  0  0  0  0  0  0  0  0  0  0
   56.7762   21.2397   43.5943 H   0  0  0  0  0  0  0  0  0  0  0  0
   57.0825   20.4821   45.7176 H   0  0  0  0  0  0  0  0  0  0  0  0
   58.8089   20.9417   45.4548 H   0  0  0  0  0  0  0  0  0  0  0  0
   55.5582   23.9543   46.8676 H   0  0  0  0  0  0  0  0  0  0  0  0
   55.6188   26.4218   46.5370 H   0  0  0  0  0  0  0  0  0  0  0  0
   56.3988   27.9246   44.1077 H   0  0  0  0  0  0  0  0  0  0  0  0
   55.5071   31.2295   43.9549 H   0  0  0  0  0  0  0  0  0  0  0  0
   56.9547   31.1916   42.8920 H   0  0  0  0  0  0  0  0  0  0  0  0
   55.8040   29.8123   42.8920 H   0  0  0  0  0  0  0  0  0  0  0  0
   60.4700   31.9680   45.7070 H   0  0  0  0  0  0  0  0  0  0  0  0
   62.9733   30.9942   47.1800 H   0  0  0  0  0  0  0  0  0  0  0  0
   64.6966   32.1699   48.5431 H   0  0  0  0  0  0  0  0  0  0  0  0
   64.1337   34.3093   49.6936 H   0  0  0  0  0  0  0  0  0  0  0  0
   61.8403   35.2669   49.5062 H   0  0  0  0  0  0  0  0  0  0  0  0
   58.6945   35.8079   47.5325 H   0  0  0  0  0  0  0  0  0  0  0  0
   60.0849   35.3446   46.4778 H   0  0  0  0  0  0  0  0  0  0  0  0
   57.6285   33.5733   46.8234 H   0  0  0  0  0  0  0  0  0  0  0  0
   57.7329   34.8479   45.5619 H   0  0  0  0  0  0  0  0  0  0  0  0
   58.9044   33.4861   45.5619 H   0  0  0  0  0  0  0  0  0  0  0  0
   59.1317   28.3043   47.4539 H   0  0  0  0  0  0  0  0  0  0  0  0
   59.8196   26.1778   45.5060 H   0  0  0  0  0  0  0  0  0  0  0  0
   59.7561   23.7135   45.8391 H   0  0  0  0  0  0  0  0  0  0  0  0
  1  2  1  0
  2  3  1  0
  3  4  1  0
  4  5  2  0
  5  6  1  0
  6  7  2  0
  7  8  1  0
  8  9  2  0
  9 10  1  0
 10 11  1  0
 10 12  2  0
 12 13  1  0
 13 14  1  0
 14 15  2  0
 14 16  1  0
 16 17  1  0
 17 18  2  0
 18 19  1  0
 19 20  2  0
 20 21  1  0
 21 22  2  0
 22 23  1  0
 23 24  1  0
 24 25  1  0
 13 26  2  0
  7 27  1  0
 27 28  2  0
 28  4  1  0
 26  8  1  0
 22 17  1  0
  1 29  1  0
  1 30  1  0
  1 31  1  0
  2 32  1  0
  2 33  1  0
  5 34  1  0
  6 35  1  0
  9 36  1  0
 11 37  1  0
 11 38  1  0
 11 39  1  0
 16 40  1  0
 18 41  1  0
 19 42  1  0
 20 43  1  0
 21 44  1  0
 24 45  1  0
 24 46  1  0
 25 47  1  0
 25 48  1  0
 25 49  1  0
 26 50  1  0
 27 51  1  0
 28 52  1  0
M  END
>  <UniqueID>  (44) 
39

>  <SMILES>  (44) 
CCOc1ccc(-c2cc(C)nc(C(=O)Nc3ccccc3OCC)c2)cc1

>  <Energy>  (44) 
59.33459074469051

>  <Genealogy>  (44) 
CCOc1ccc(-c2cc(C)nc(C(=O)Nc3ccccc3OCC)c2)cc1 (3D coordinates assigned)
CCOc1ccc(-c2cc(C)nc(C(=O)Nc3ccccc3OCC)c2)cc1 (optimized conformer: 59.33459074469051 kcal/mol)

>  <smiles>  (44) 
CCOc1ccc(-c2cc(C)nc(C(=O)Nc3ccccc3OCC)c2)cc1

>  <score_type>  (44) 
oracle

>  <origin>  (44) 
adg

>  <m_score__min__energy>  (44) 
-8.0199999999999996

>  <m_primary>  (44) 
energy

$$$$
44:0
     RDKit          3D

 57 60  0  0  0  0  0  0  0  0999 V2000
   60.0340   26.3540   46.9410 C   0  0  0  0  0  0  0  0  0  0  0  0
   59.0910   26.1860   45.7790 C   0  0  0  0  0  0  0  0  0  0  0  0
   58.6110   24.9110   45.4570 C   0  0  0  0  0  0  0  0  0  0  0  0
   57.7490   24.7380   44.3630 C   0  0  0  0  0  0  0  0  0  0  0  0
   57.2310   23.4300   44.0410 N   0  0  0  0  0  0  0  0  0  0  0  0
   57.5810   22.2530   44.5930 C   0  0  0  0  0  0  0  0  0  0  0  0
   56.8330   21.2610   43.9970 C   0  0  0  0  0  0  0  0  0  0  0  0
   56.0160   21.8040   43.0720 N   0  0  0  0  0  0  0  0  0  0  0  0
   56.2840   23.1260   43.1260 C   0  0  0  0  0  0  0  0  0  0  0  0
   57.4080   25.8190   43.6040 N   0  0  0  0  0  0  0  0  0  0  0  0
   57.8860   27.0720   43.8630 C   0  0  0  0  0  0  0  0  0  0  0  0
   57.4670   28.2150   42.9790 C   0  0  0  0  0  0  0  0  0  0  0  0
   58.7260   27.2840   44.9770 C   0  0  0  0  0  0  0  0  0  0  0  0
   59.2020   28.6020   45.2950 N   0  0  0  0  0  0  0  0  0  0  0  0
   60.6180   28.9340   45.0950 C   0  0  0  0  0  0  0  0  0  0  0  0
   61.1400   29.7810   46.2630 C   0  0  0  0  0  0  0  0  0  0  0  0
   60.1790   30.8210   46.6550 N   0  0  0  0  0  0  0  0  0  0  0  0
   60.5400   31.7410   47.6920 C   0  0  0  0  0  0  0  0  0  0  0  0
   61.6520   32.3290   47.6380 O   0  0  0  0  0  0  0  0  0  0  0  0
   59.6580   31.9370   48.8960 C   0  0  0  0  0  0  0  0  0  0  0  0
   59.0100   33.3290   48.8990 C   0  0  0  0  0  0  0  0  0  0  0  0
   58.6580   33.7920   47.5060 C   0  0  0  0  0  0  0  0  0  0  0  0
   59.5750   34.5450   46.7500 C   0  0  0  0  0  0  0  0  0  0  0  0
   59.2530   34.9440   45.4480 C   0  0  0  0  0  0  0  0  0  0  0  0
   58.0200   34.5880   44.8890 C   0  0  0  0  0  0  0  0  0  0  0  0
   57.1060   33.8400   45.6350 C   0  0  0  0  0  0  0  0  0  0  0  0
   57.4210   33.4430   46.9380 C   0  0  0  0  0  0  0  0  0  0  0  0
   58.9180   30.9760   45.9220 C   0  0  0  0  0  0  0  0  0  0  0  0
   58.2450   29.6130   45.7670 C   0  0  0  0  0  0  0  0  0  0  0  0
   59.4758   26.2545   47.8836 H   0  0  0  0  0  0  0  0  0  0  0  0
   60.8151   25.5809   46.8941 H   0  0  0  0  0  0  0  0  0  0  0  0
   60.5000   27.3493   46.8941 H   0  0  0  0  0  0  0  0  0  0  0  0
   58.9101   24.0429   46.0627 H   0  0  0  0  0  0  0  0  0  0  0  0
   58.3332   22.1084   45.3825 H   0  0  0  0  0  0  0  0  0  0  0  0
   56.8932   20.1896   44.2389 H   0  0  0  0  0  0  0  0  0  0  0  0
   55.7853   23.8751   42.4934 H   0  0  0  0  0  0  0  0  0  0  0  0
   56.7460   25.6930   42.8050 H   0  0  0  0  0  0  0  0  0  0  0  0
   57.1551   29.0657   43.6027 H   0  0  0  0  0  0  0  0  0  0  0  0
   58.3130   28.5166   42.3440 H   0  0  0  0  0  0  0  0  0  0  0  0
   56.6265   27.8984   42.3440 H   0  0  0  0  0  0  0  0  0  0  0  0
   61.2026   28.0044   45.0320 H   0  0  0  0  0  0  0  0  0  0  0  0
   60.7209   29.5097   44.1634 H   0  0  0  0  0  0  0  0  0  0  0  0
   61.3244   29.1233   47.1253 H   0  0  0  0  0  0  0  0  0  0  0  0
   62.0668   30.2767   45.9385 H   0  0  0  0  0  0  0  0  0  0  0  0
   58.8657   31.1740   48.8865 H   0  0  0  0  0  0  0  0  0  0  0  0
   60.2804   31.8444   49.7982 H   0  0  0  0  0  0  0  0  0  0  0  0
   58.0918   33.2920   49.5035 H   0  0  0  0  0  0  0  0  0  0  0  0
   59.7354   34.0405   49.3203 H   0  0  0  0  0  0  0  0  0  0  0  0
   60.5476   34.8208   47.1835 H   0  0  0  0  0  0  0  0  0  0  0  0
   59.9700   35.5384   44.8628 H   0  0  0  0  0  0  0  0  0  0  0  0
   57.7710   34.8970   43.8631 H   0  0  0  0  0  0  0  0  0  0  0  0
   56.1362   33.5627   45.1962 H   0  0  0  0  0  0  0  0  0  0  0  0
   56.6972   32.8548   47.5212 H   0  0  0  0  0  0  0  0  0  0  0  0
   58.2519   31.6521   46.4781 H   0  0  0  0  0  0  0  0  0  0  0  0
   59.1231   31.3977   44.9269 H   0  0  0  0  0  0  0  0  0  0  0  0
   57.8411   29.2987   46.7407 H   0  0  0  0  0  0  0  0  0  0  0  0
   57.4378   29.7038   45.0253 H   0  0  0  0  0  0  0  0  0  0  0  0
  1  2  1  0
  2  3  2  0
  3  4  1  0
  4  5  1  0
  5  6  1  0
  6  7  2  0
  7  8  1  0
  8  9  2  0
  4 10  2  0
 10 11  1  0
 11 12  1  0
 11 13  2  0
 13 14  1  0
 14 15  1  0
 15 16  1  0
 16 17  1  0
 17 18  1  0
 18 19  2  0
 18 20  1  0
 20 21  1  0
 21 22  1  0
 22 23  2  0
 23 24  1  0
 24 25  2  0
 25 26  1  0
 26 27  2  0
 17 28  1  0
 28 29  1  0
 13  2  1  0
 29 14  1  0
  9  5  1  0
 27 22  1  0
  1 30  1  0
  1 31  1  0
  1 32  1  0
  3 33  1  0
  6 34  1  0
  7 35  1  0
  9 36  1  0
 10 37  1  0
 12 38  1  0
 12 39  1  0
 12 40  1  0
 15 41  1  0
 15 42  1  0
 16 43  1  0
 16 44  1  0
 20 45  1  0
 20 46  1  0
 21 47  1  0
 21 48  1  0
 23 49  1  0
 24 50  1  0
 25 51  1  0
 26 52  1  0
 27 53  1  0
 28 54  1  0
 28 55  1  0
 29 56  1  0
 29 57  1  0
M  CHG  1  10   1
M  END
>  <UniqueID>  (45) 
40

>  <SMILES>  (45) 
Cc1cc(-n2ccnc2)[nH+]c(C)c1N1CCN(C(=O)CCc2ccccc2)CC1

>  <Energy>  (45) 
97.35922467469406

>  <Genealogy>  (45) 
Cc1cc(-n2ccnc2)[nH+]c(C)c1N1CCN(C(=O)CCc2ccccc2)CC1 (protonated)
Cc1cc(-n2ccnc2)[nH+]c(C)c1N1CCN(C(=O)CCc2ccccc2)CC1 (3D coordinates assigned)
Cc1cc(-n2ccnc2)[nH+]c(C)c1N1CCN(C(=O)CCc2ccccc2)CC1 (nonaromatic ring conformer: 97.35922467469406 kcal/mol)

>  <smiles>  (45) 
Cc1cc(-n2ccnc2)nc(C)c1N1CCN(C(=O)CCc2ccccc2)CC1

>  <score_type>  (45) 
oracle

>  <origin>  (45) 
adg

>  <m_score__min__energy>  (45) 
-7.8799999999999999

>  <m_primary>  (45) 
energy

$$$$
