0:0
     RDKit          3D

 36 38  0  0  0  0  0  0  0  0999 V2000
   55.6580   25.5590   45.7710 C   0  0  0  0  0  0  0  0  0  0  0  0
   56.2030   26.8590   45.9740 O   0  0  0  0  0  0  0  0  0  0  0  0
   57.5650   27.1300   46.1910 C   0  0  0  0  0  0  0  0  0  0  0  0
   58.1600   26.9510   47.4570 C   0  0  0  0  0  0  0  0  0  0  0  0
   59.5110   27.2400   47.6520 C   0  0  0  0  0  0  0  0  0  0  0  0
   60.2850   27.7130   46.5940 C   0  0  0  0  0  0  0  0  0  0  0  0
   59.7120   27.8940   45.3350 C   0  0  0  0  0  0  0  0  0  0  0  0
   58.3560   27.5930   45.1160 C   0  0  0  0  0  0  0  0  0  0  0  0
   57.7730   27.8000   43.7370 C   0  0  0  0  0  0  0  0  0  0  0  0
   56.9050   28.9780   43.7120 N   0  0  0  0  0  0  0  0  0  0  0  0
   57.3320   30.3110   44.0530 C   0  0  0  0  0  0  0  0  0  0  0  0
   57.3940   31.2920   43.0510 C   0  0  0  0  0  0  0  0  0  0  0  0
   57.7850   32.5600   43.3470 N   0  0  0  0  0  0  0  0  0  0  0  0
   58.1310   32.9280   44.6080 C   0  0  0  0  0  0  0  0  0  0  0  0
   58.5260   34.2430   44.8740 C   0  0  0  0  0  0  0  0  0  0  0  0
   58.8810   34.6180   46.1740 C   0  0  0  0  0  0  0  0  0  0  0  0
   58.8450   33.6780   47.2110 C   0  0  0  0  0  0  0  0  0  0  0  0
   58.4530   32.3610   46.9540 C   0  0  0  0  0  0  0  0  0  0  0  0
   58.0930   31.9780   45.6520 C   0  0  0  0  0  0  0  0  0  0  0  0
   57.6950   30.6670   45.3640 C   0  0  0  0  0  0  0  0  0  0  0  0
   55.4605   25.0880   46.7452 H   0  0  0  0  0  0  0  0  0  0  0  0
   54.7180   25.6397   45.2055 H   0  0  0  0  0  0  0  0  0  0  0  0
   56.3746   24.9452   45.2055 H   0  0  0  0  0  0  0  0  0  0  0  0
   57.5543   26.5807   48.2972 H   0  0  0  0  0  0  0  0  0  0  0  0
   59.9661   27.0942   48.6428 H   0  0  0  0  0  0  0  0  0  0  0  0
   61.3489   27.9439   46.7518 H   0  0  0  0  0  0  0  0  0  0  0  0
   60.3264   28.2756   44.5062 H   0  0  0  0  0  0  0  0  0  0  0  0
   58.5921   27.9401   43.0163 H   0  0  0  0  0  0  0  0  0  0  0  0
   57.1756   26.9158   43.4700 H   0  0  0  0  0  0  0  0  0  0  0  0
   55.8970   28.8240   43.4790 H   0  0  0  0  0  0  0  0  0  0  0  0
   57.1238   31.0325   42.0168 H   0  0  0  0  0  0  0  0  0  0  0  0
   58.5575   34.9827   44.0605 H   0  0  0  0  0  0  0  0  0  0  0  0
   59.1890   35.6533   46.3820 H   0  0  0  0  0  0  0  0  0  0  0  0
   59.1262   33.9769   48.2316 H   0  0  0  0  0  0  0  0  0  0  0  0
   58.4266   31.6252   47.7713 H   0  0  0  0  0  0  0  0  0  0  0  0
   57.6662   29.9137   46.1651 H   0  0  0  0  0  0  0  0  0  0  0  0
  1  2  1  0
  2  3  1  0
  3  4  2  0
  4  5  1  0
  5  6  2  0
  6  7  1  0
  7  8  2  0
  8  9  1  0
  9 10  1  0
 10 11  1  0
 11 12  2  0
 12 13  1  0
 13 14  2  0
 14 15  1  0
 15 16  2  0
 16 17  1  0
 17 18  2  0
 18 19  1  0
 19 20  2  0
  8  3  1  0
 20 11  1  0
 19 14  1  0
  1 21  1  0
  1 22  1  0
  1 23  1  0
  4 24  1  0
  5 25  1  0
  6 26  1  0
  7 27  1  0
  9 28  1  0
  9 29  1  0
 10 30  1  0
 12 31  1  0
 15 32  1  0
 16 33  1  0
 17 34  1  0
 18 35  1  0
 20 36  1  0
M  END
>  <UniqueID>  (1) 
1

>  <SMILES>  (1) 
COc1ccccc1CNc1cnc2ccccc2c1

>  <Energy>  (1) 
40.928402111186564

>  <Genealogy>  (1) 
COc1ccccc1CNc1cnc2ccccc2c1 (3D coordinates assigned)
COc1ccccc1CNc1cnc2ccccc2c1 (optimized conformer: 40.928402111186564 kcal/mol)

>  <smiles>  (1) 
COc1ccccc1CNc1cnc2ccccc2c1

>  <score_type>  (1) 
oracle

>  <origin>  (1) 
adg

>  <m_score__min__energy>  (1) 
-7.4900000000000002

>  <m_primary>  (1) 
energy

$$$$
1:0
     RDKit          3D

 39 41  0  0  0  0  0  0  0  0999 V2000
   57.3340   31.2040   42.9890 C   0  0  0  0  0  0  0  0  0  0  0  0
   57.8670   31.4150   44.3440 N   0  0  0  0  0  0  0  0  0  0  0  0
   57.1070   32.4720   45.0480 C   0  0  0  0  0  0  0  0  0  0  0  0
   58.0290   33.4300   45.7590 C   0  0  0  0  0  0  0  0  0  0  0  0
   58.1660   33.3770   47.1550 C   0  0  0  0  0  0  0  0  0  0  0  0
   59.0350   34.2640   47.7940 C   0  0  0  0  0  0  0  0  0  0  0  0
   59.7480   35.1650   47.0680 N   0  0  0  0  0  0  0  0  0  0  0  0
   59.6450   35.2290   45.7140 C   0  0  0  0  0  0  0  0  0  0  0  0
   58.7890   34.3600   45.0340 C   0  0  0  0  0  0  0  0  0  0  0  0
   57.9690   30.1480   45.1070 C   0  0  0  0  0  0  0  0  0  0  0  0
   58.9900   30.1860   46.2140 C   0  0  0  0  0  0  0  0  0  0  0  0
   59.0640   29.3380   47.2980 C   0  0  0  0  0  0  0  0  0  0  0  0
   60.0890   29.7140   48.0280 O   0  0  0  0  0  0  0  0  0  0  0  0
   60.6430   30.7520   47.4340 C   0  0  0  0  0  0  0  0  0  0  0  0
   61.8320   31.4560   47.9680 C   0  0  0  0  0  0  0  0  0  0  0  0
   62.4930   32.4070   47.1680 C   0  0  0  0  0  0  0  0  0  0  0  0
   63.6180   33.0810   47.6510 C   0  0  0  0  0  0  0  0  0  0  0  0
   64.0980   32.8130   48.9360 C   0  0  0  0  0  0  0  0  0  0  0  0
   65.1890   33.4680   49.4020 F   0  0  0  0  0  0  0  0  0  0  0  0
   63.4530   31.8710   49.7380 C   0  0  0  0  0  0  0  0  0  0  0  0
   62.3270   31.1920   49.2600 C   0  0  0  0  0  0  0  0  0  0  0  0
   59.9920   31.0780   46.2970 N   0  0  0  0  0  0  0  0  0  0  0  0
   56.3131   30.7999   43.0554 H   0  0  0  0  0  0  0  0  0  0  0  0
   57.3146   32.1623   42.4493 H   0  0  0  0  0  0  0  0  0  0  0  0
   57.9758   30.4921   42.4493 H   0  0  0  0  0  0  0  0  0  0  0  0
   56.5068   33.0304   44.3145 H   0  0  0  0  0  0  0  0  0  0  0  0
   56.4598   31.9930   45.7974 H   0  0  0  0  0  0  0  0  0  0  0  0
   57.5935   32.6428   47.7409 H   0  0  0  0  0  0  0  0  0  0  0  0
   59.1428   34.2334   48.8883 H   0  0  0  0  0  0  0  0  0  0  0  0
   60.2372   35.9668   45.1528 H   0  0  0  0  0  0  0  0  0  0  0  0
   58.7112   34.4044   43.9377 H   0  0  0  0  0  0  0  0  0  0  0  0
   56.9858   29.9292   45.5492 H   0  0  0  0  0  0  0  0  0  0  0  0
   58.2935   29.3721   44.3980 H   0  0  0  0  0  0  0  0  0  0  0  0
   58.3869   28.4981   47.5129 H   0  0  0  0  0  0  0  0  0  0  0  0
   62.1213   32.6213   46.1551 H   0  0  0  0  0  0  0  0  0  0  0  0
   64.1266   33.8237   47.0187 H   0  0  0  0  0  0  0  0  0  0  0  0
   63.8310   31.6615   50.7495 H   0  0  0  0  0  0  0  0  0  0  0  0
   61.8256   30.4481   49.8965 H   0  0  0  0  0  0  0  0  0  0  0  0
   60.2110   31.8340   45.6130 H   0  0  0  0  0  0  0  0  0  0  0  0
  1  2  1  0
  2  3  1  0
  3  4  1  0
  4  5  2  0
  5  6  1  0
  6  7  2  0
  7  8  1  0
  8  9  2  0
  2 10  1  0
 10 11  1  0
 11 12  2  0
 12 13  1  0
 13 14  1  0
 14 15  1  0
 15 16  2  0
 16 17  1  0
 17 18  2  0
 18 19  1  0
 18 20  1  0
 20 21  2  0
 14 22  2  0
  9  4  1  0
 22 11  1  0
 21 15  1  0
  1 23  1  0
  1 24  1  0
  1 25  1  0
  3 26  1  0
  3 27  1  0
  5 28  1  0
  6 29  1  0
  8 30  1  0
  9 31  1  0
 10 32  1  0
 10 33  1  0
 12 34  1  0
 16 35  1  0
 17 36  1  0
 20 37  1  0
 21 38  1  0
 22 39  1  0
M  CHG  1  22   1
M  END
>  <UniqueID>  (2) 
2

>  <SMILES>  (2) 
CN(Cc1ccncc1)Cc1coc(-c2ccc(F)cc2)[nH+]1

>  <Energy>  (2) 
75.81973338687217

>  <Genealogy>  (2) 
CN(Cc1ccncc1)Cc1coc(-c2ccc(F)cc2)[nH+]1 (protonated)
CN(Cc1ccncc1)Cc1coc(-c2ccc(F)cc2)[nH+]1 (3D coordinates assigned)
CN(Cc1ccncc1)Cc1coc(-c2ccc(F)cc2)[nH+]1 (optimized conformer: 75.81973338687217 kcal/mol)

>  <smiles>  (2) 
CN(Cc1ccncc1)Cc1coc(-c2ccc(F)cc2)n1

>  <score_type>  (2) 
oracle

>  <origin>  (2) 
adg

>  <m_score__min__energy>  (2) 
-5.3700000000000001

>  <m_primary>  (2) 
energy

$$$$
2:0
     RDKit          3D

 40 42  0  0  0  0  0  0  0  0999 V2000
   55.1430   28.0800   44.8820 H   0  0  0  0  0  0  0  0  0  0  0  0
   55.6870   27.5680   45.5660 O   0  0  0  0  0  0  0  0  0  0  0  0
   57.0820   27.6170   45.5830 C   0  0  0  0  0  0  0  0  0  0  0  0
   57.8120   28.7680   45.2840 C   0  0  0  0  0  0  0  0  0  0  0  0
   57.2580   30.0330   44.7560 C   0  0  0  0  0  0  0  0  0  0  0  0
   56.3206   29.9743   44.1835 H   0  0  0  0  0  0  0  0  0  0  0  0
   57.8140   31.2640   44.9210 C   0  0  0  0  0  0  0  0  0  0  0  0
   58.1700   31.7030   46.2180 C   0  0  0  0  0  0  0  0  0  0  0  0
   58.0249   31.0219   47.0695 H   0  0  0  0  0  0  0  0  0  0  0  0
   58.7020   32.9790   46.4520 C   0  0  0  0  0  0  0  0  0  0  0  0
   59.0480   33.3860   47.8620 C   0  0  0  0  0  0  0  0  0  0  0  0
   58.5040   32.7461   48.5723 H   0  0  0  0  0  0  0  0  0  0  0  0
   60.1305   33.2727   48.0212 H   0  0  0  0  0  0  0  0  0  0  0  0
   58.7619   34.4362   48.0212 H   0  0  0  0  0  0  0  0  0  0  0  0
   58.8500   33.8760   45.3780 C   0  0  0  0  0  0  0  0  0  0  0  0
   59.4010   35.2640   45.5870 C   0  0  0  0  0  0  0  0  0  0  0  0
   59.4819   35.4679   46.6649 H   0  0  0  0  0  0  0  0  0  0  0  0
   60.3963   35.3369   45.1243 H   0  0  0  0  0  0  0  0  0  0  0  0
   58.7267   35.9997   45.1243 H   0  0  0  0  0  0  0  0  0  0  0  0
   58.5090   33.4630   44.0850 C   0  0  0  0  0  0  0  0  0  0  0  0
   58.6384   34.1643   43.2475 H   0  0  0  0  0  0  0  0  0  0  0  0
   58.0040   32.1720   43.8270 C   0  0  0  0  0  0  0  0  0  0  0  0
   57.7610   31.8560   42.5390 C   0  0  0  0  0  0  0  0  0  0  0  0
   57.3664   30.8620   42.2816 H   0  0  0  0  0  0  0  0  0  0  0  0
   57.9573   32.5922   41.7456 H   0  0  0  0  0  0  0  0  0  0  0  0
   59.4520   28.3840   45.3850 S   0  0  0  0  0  0  0  0  0  0  0  0
   59.1680   26.7990   45.8620 C   0  0  0  0  0  0  0  0  0  0  0  0
   60.3640   25.7030   46.0970 S   0  0  0  0  0  0  0  0  0  0  0  0
   57.8370   26.5280   45.9160 N   0  0  0  0  0  0  0  0  0  0  0  0
   57.2700   25.2520   46.2640 C   0  0  0  0  0  0  0  0  0  0  0  0
   56.6320   24.4700   45.2860 C   0  0  0  0  0  0  0  0  0  0  0  0
   56.5714   24.8314   44.2488 H   0  0  0  0  0  0  0  0  0  0  0  0
   56.0740   23.2340   45.6270 C   0  0  0  0  0  0  0  0  0  0  0  0
   55.5777   22.6245   44.8575 H   0  0  0  0  0  0  0  0  0  0  0  0
   56.1460   22.7720   46.9440 C   0  0  0  0  0  0  0  0  0  0  0  0
   55.7085   21.7984   47.2098 H   0  0  0  0  0  0  0  0  0  0  0  0
   56.7740   23.5470   47.9240 C   0  0  0  0  0  0  0  0  0  0  0  0
   56.8281   23.1837   48.9609 H   0  0  0  0  0  0  0  0  0  0  0  0
   57.3330   24.7830   47.5870 C   0  0  0  0  0  0  0  0  0  0  0  0
   57.8243   25.3911   48.3608 H   0  0  0  0  0  0  0  0  0  0  0  0
  1  2  1  0
  2  3  1  0
  3  4  2  0
  4  5  1  0
  5  6  1  0
  5  7  2  0
  7  8  1  0
  8  9  1  0
  8 10  2  0
 10 11  1  0
 11 12  1  0
 11 13  1  0
 11 14  1  0
 10 15  1  0
 15 16  1  0
 16 17  1  0
 16 18  1  0
 16 19  1  0
 15 20  2  0
 20 21  1  0
 20 22  1  0
 22 23  2  0
 23 24  1  0
 23 25  1  0
  4 26  1  0
 26 27  1  0
 27 28  2  0
 27 29  1  0
 29 30  1  0
 30 31  2  0
 31 32  1  0
 31 33  1  0
 33 34  1  0
 33 35  2  0
 35 36  1  0
 35 37  1  0
 37 38  1  0
 37 39  2  0
 39 40  1  0
 29  3  1  0
 39 30  1  0
 22  7  1  0
M  END
>  <UniqueID>  (3) 
3

>  <SMILES>  (3) 
C=c1cc(C)c(C)c/c1=C\c1sc(=S)n(-c2ccccc2)c1O

>  <Energy>  (3) 
97.64676253039224

>  <Genealogy>  (3) 
C=c1cc(C)c(C)c/c1=C\c1sc(=S)n(-c2ccccc2)c1O (cis-trans isomerization)
C=c1cc(C)c(C)c/c1=C\c1sc(=S)n(-c2ccccc2)c1O (3D coordinates assigned)
C=c1cc(C)c(C)c/c1=C\c1sc(=S)n(-c2ccccc2)c1O (optimized conformer: 97.64676253039224 kcal/mol)

>  <smiles>  (3) 
C=c1cc(C)c(C)cc1=Cc1sc(=S)n(-c2ccccc2)c1O

>  <score_type>  (3) 
oracle

>  <origin>  (3) 
adg

>  <m_score__min__energy>  (3) 
-8.7799999999999994

>  <m_primary>  (3) 
energy

$$$$
3:0
     RDKit          3D

 39 42  0  0  0  0  0  0  0  0999 V2000
   66.9540   32.9900   50.1090 C   0  0  0  0  0  0  0  0  0  0  0  0
   65.6150   32.3270   50.2050 C   0  0  0  0  0  0  0  0  0  0  0  0
   64.5180   32.8440   49.5050 C   0  0  0  0  0  0  0  0  0  0  0  0
   63.2630   32.2210   49.6110 C   0  0  0  0  0  0  0  0  0  0  0  0
   62.1000   32.7640   48.8620 C   0  0  0  0  0  0  0  0  0  0  0  0
   61.4200   31.9990   47.8970 C   0  0  0  0  0  0  0  0  0  0  0  0
   60.3270   32.5510   47.2160 C   0  0  0  0  0  0  0  0  0  0  0  0
   59.6520   31.8260   46.2750 N   0  0  0  0  0  0  0  0  0  0  0  0
   58.5810   32.3430   45.6000 C   0  0  0  0  0  0  0  0  0  0  0  0
   57.8780   31.5290   44.5760 C   0  0  0  0  0  0  0  0  0  0  0  0
   57.7450   32.0030   43.2580 C   0  0  0  0  0  0  0  0  0  0  0  0
   57.0850   31.2380   42.2930 C   0  0  0  0  0  0  0  0  0  0  0  0
   56.5510   29.9930   42.6300 C   0  0  0  0  0  0  0  0  0  0  0  0
   56.6770   29.5100   43.9350 C   0  0  0  0  0  0  0  0  0  0  0  0
   57.3350   30.2720   44.9050 C   0  0  0  0  0  0  0  0  0  0  0  0
   58.1550   33.6530   45.8790 C   0  0  0  0  0  0  0  0  0  0  0  0
   58.8260   34.4120   46.8370 C   0  0  0  0  0  0  0  0  0  0  0  0
   59.9190   33.8660   47.5150 C   0  0  0  0  0  0  0  0  0  0  0  0
   60.6130   34.5930   48.4870 C   0  0  0  0  0  0  0  0  0  0  0  0
   61.6700   34.0300   49.1290 N   0  0  0  0  0  0  0  0  0  0  0  0
   63.1480   31.0720   50.4130 C   0  0  0  0  0  0  0  0  0  0  0  0
   64.2670   30.5880   51.0950 C   0  0  0  0  0  0  0  0  0  0  0  0
   65.4620   31.2200   50.9790 N   0  0  0  0  0  0  0  0  0  0  0  0
   67.3415   33.1819   51.1204 H   0  0  0  0  0  0  0  0  0  0  0  0
   67.6507   32.3327   49.5680 H   0  0  0  0  0  0  0  0  0  0  0  0
   66.8536   33.9425   49.5680 H   0  0  0  0  0  0  0  0  0  0  0  0
   64.6385   33.7364   48.8732 H   0  0  0  0  0  0  0  0  0  0  0  0
   61.7452   30.9713   47.6779 H   0  0  0  0  0  0  0  0  0  0  0  0
   59.9540   30.8430   46.0820 H   0  0  0  0  0  0  0  0  0  0  0  0
   58.1637   32.9830   42.9853 H   0  0  0  0  0  0  0  0  0  0  0  0
   56.9859   31.6176   41.2653 H   0  0  0  0  0  0  0  0  0  0  0  0
   56.0314   29.3927   41.8687 H   0  0  0  0  0  0  0  0  0  0  0  0
   56.2576   28.5282   44.1997 H   0  0  0  0  0  0  0  0  0  0  0  0
   57.4291   29.8874   45.9313 H   0  0  0  0  0  0  0  0  0  0  0  0
   57.2940   34.0786   45.3427 H   0  0  0  0  0  0  0  0  0  0  0  0
   58.4959   35.4377   47.0584 H   0  0  0  0  0  0  0  0  0  0  0  0
   60.3036   35.6198   48.7318 H   0  0  0  0  0  0  0  0  0  0  0  0
   62.1807   30.5561   50.5031 H   0  0  0  0  0  0  0  0  0  0  0  0
   64.1791   29.6924   51.7276 H   0  0  0  0  0  0  0  0  0  0  0  0
  1  2  1  0
  2  3  2  0
  3  4  1  0
  4  5  1  0
  5  6  2  0
  6  7  1  0
  7  8  2  0
  8  9  1  0
  9 10  1  0
 10 11  2  0
 11 12  1  0
 12 13  2  0
 13 14  1  0
 14 15  2  0
  9 16  2  0
 16 17  1  0
 17 18  2  0
 18 19  1  0
 19 20  2  0
  4 21  2  0
 21 22  1  0
 22 23  2  0
 23  2  1  0
 20  5  1  0
 18  7  1  0
 15 10  1  0
  1 24  1  0
  1 25  1  0
  1 26  1  0
  3 27  1  0
  6 28  1  0
  8 29  1  0
 11 30  1  0
 12 31  1  0
 13 32  1  0
 14 33  1  0
 15 34  1  0
 16 35  1  0
 17 36  1  0
 19 37  1  0
 21 38  1  0
 22 39  1  0
M  CHG  1   8   1
M  END
>  <UniqueID>  (4) 
4

>  <SMILES>  (4) 
Cc1cc(-c2cc3[nH+]c(-c4ccccc4)ccc3cn2)ccn1

>  <Energy>  (4) 
56.25622655845503

>  <Genealogy>  (4) 
Cc1cc(-c2cc3[nH+]c(-c4ccccc4)ccc3cn2)ccn1 (protonated)
Cc1cc(-c2cc3[nH+]c(-c4ccccc4)ccc3cn2)ccn1 (3D coordinates assigned)
Cc1cc(-c2cc3[nH+]c(-c4ccccc4)ccc3cn2)ccn1 (optimized conformer: 56.25622655845503 kcal/mol)

>  <smiles>  (4) 
Cc1cc(-c2cc3nc(-c4ccccc4)ccc3cn2)ccn1

>  <score_type>  (4) 
oracle

>  <origin>  (4) 
adg

>  <m_score__min__energy>  (4) 
-6.4299999999999997

>  <m_primary>  (4) 
energy

$$$$
4:0
     RDKit          3D

 48 51  0  0  0  0  0  0  0  0999 V2000
   58.1550   26.7470   42.7760 C   0  0  0  0  0  0  0  0  0  0  0  0
   58.2600   27.4500   44.0970 C   0  0  0  0  0  0  0  0  0  0  0  0
   57.3100   27.2280   45.1030 C   0  0  0  0  0  0  0  0  0  0  0  0
   57.4300   27.8750   46.3360 C   0  0  0  0  0  0  0  0  0  0  0  0
   58.4950   28.7460   46.5860 C   0  0  0  0  0  0  0  0  0  0  0  0
   58.5540   29.4160   47.8540 N   0  0  0  0  0  0  0  0  0  0  0  0
   59.4190   28.9780   48.9130 C   0  0  0  0  0  0  0  0  0  0  0  0
   60.0780   27.9160   48.7950 O   0  0  0  0  0  0  0  0  0  0  0  0
   59.5840   29.8100   50.1490 C   0  0  0  0  0  0  0  0  0  0  0  0
   61.1920   30.6680   50.1540 S   0  0  0  0  0  0  0  0  0  0  0  0
   60.7860   31.7890   48.8170 C   0  0  0  0  0  0  0  0  0  0  0  0
   59.4820   31.9770   48.4760 N   0  0  0  0  0  0  0  0  0  0  0  0
   59.1140   32.7870   47.4430 C   0  0  0  0  0  0  0  0  0  0  0  0
   57.7640   32.9380   47.1200 C   0  0  0  0  0  0  0  0  0  0  0  0
   57.3870   33.7520   46.0510 C   0  0  0  0  0  0  0  0  0  0  0  0
   58.3570   34.4210   45.3000 C   0  0  0  0  0  0  0  0  0  0  0  0
   59.7130   34.2790   45.6130 C   0  0  0  0  0  0  0  0  0  0  0  0
   60.1010   33.4620   46.6830 C   0  0  0  0  0  0  0  0  0  0  0  0
   61.4450   33.2640   47.0350 C   0  0  0  0  0  0  0  0  0  0  0  0
   61.7820   32.4410   48.0800 C   0  0  0  0  0  0  0  0  0  0  0  0
   63.2470   32.3550   48.2750 C   0  0  0  0  0  0  0  0  0  0  0  0
   63.8300   33.2260   47.1490 C   0  0  0  0  0  0  0  0  0  0  0  0
   62.6470   33.8430   46.3830 C   0  0  0  0  0  0  0  0  0  0  0  0
   59.5020   28.9120   45.6060 C   0  0  0  0  0  0  0  0  0  0  0  0
   60.7400   29.7290   45.8710 C   0  0  0  0  0  0  0  0  0  0  0  0
   59.3630   28.2820   44.3590 C   0  0  0  0  0  0  0  0  0  0  0  0
   57.9944   25.6719   42.9445 H   0  0  0  0  0  0  0  0  0  0  0  0
   57.3085   27.1595   42.2074 H   0  0  0  0  0  0  0  0  0  0  0  0
   59.0851   26.8941   42.2074 H   0  0  0  0  0  0  0  0  0  0  0  0
   56.4684   26.5433   44.9219 H   0  0  0  0  0  0  0  0  0  0  0  0
   56.6780   27.6970   47.1188 H   0  0  0  0  0  0  0  0  0  0  0  0
   58.1680   30.3800   47.9150 H   0  0  0  0  0  0  0  0  0  0  0  0
   58.7780   30.5575   50.1889 H   0  0  0  0  0  0  0  0  0  0  0  0
   59.5400   29.1461   51.0250 H   0  0  0  0  0  0  0  0  0  0  0  0
   56.9965   32.4146   47.7090 H   0  0  0  0  0  0  0  0  0  0  0  0
   56.3226   33.8674   45.7987 H   0  0  0  0  0  0  0  0  0  0  0  0
   58.0531   35.0619   44.4593 H   0  0  0  0  0  0  0  0  0  0  0  0
   60.4735   34.8080   45.0199 H   0  0  0  0  0  0  0  0  0  0  0  0
   63.5330   32.7496   49.2612 H   0  0  0  0  0  0  0  0  0  0  0  0
   63.6163   31.3194   48.2404 H   0  0  0  0  0  0  0  0  0  0  0  0
   64.4572   34.0223   47.5764 H   0  0  0  0  0  0  0  0  0  0  0  0
   64.4551   32.6215   46.4754 H   0  0  0  0  0  0  0  0  0  0  0  0
   62.6512   34.9390   46.4768 H   0  0  0  0  0  0  0  0  0  0  0  0
   62.6856   33.6264   45.3052 H   0  0  0  0  0  0  0  0  0  0  0  0
   60.8890   29.8273   46.9564 H   0  0  0  0  0  0  0  0  0  0  0  0
   61.6121   29.2284   45.4250 H   0  0  0  0  0  0  0  0  0  0  0  0
   60.6227   30.7277   45.4250 H   0  0  0  0  0  0  0  0  0  0  0  0
   60.1235   28.4406   43.5802 H   0  0  0  0  0  0  0  0  0  0  0  0
  1  2  1  0
  2  3  2  0
  3  4  1  0
  4  5  2  0
  5  6  1  0
  6  7  1  0
  7  8  2  0
  7  9  1  0
  9 10  1  0
 10 11  1  0
 11 12  2  0
 12 13  1  0
 13 14  2  0
 14 15  1  0
 15 16  2  0
 16 17  1  0
 17 18  2  0
 18 19  1  0
 19 20  2  0
 20 21  1  0
 21 22  1  0
 22 23  1  0
  5 24  1  0
 24 25  1  0
 24 26  2  0
 26  2  1  0
 20 11  1  0
 18 13  1  0
 23 19  1  0
  1 27  1  0
  1 28  1  0
  1 29  1  0
  3 30  1  0
  4 31  1  0
  6 32  1  0
  9 33  1  0
  9 34  1  0
 14 35  1  0
 15 36  1  0
 16 37  1  0
 17 38  1  0
 21 39  1  0
 21 40  1  0
 22 41  1  0
 22 42  1  0
 23 43  1  0
 23 44  1  0
 25 45  1  0
 25 46  1  0
 25 47  1  0
 26 48  1  0
M  END
>  <UniqueID>  (5) 
5

>  <SMILES>  (5) 
Cc1ccc(NC(=O)CSc2nc3ccccc3c3c2CCC3)c(C)c1

>  <Energy>  (5) 
60.9838469906295

>  <Genealogy>  (5) 
Cc1ccc(NC(=O)CSc2nc3ccccc3c3c2CCC3)c(C)c1 (3D coordinates assigned)
Cc1ccc(NC(=O)CSc2nc3ccccc3c3c2CCC3)c(C)c1 (nonaromatic ring conformer: 60.9838469906295 kcal/mol)

>  <smiles>  (5) 
Cc1ccc(NC(=O)CSc2nc3ccccc3c3c2CCC3)c(C)c1

>  <score_type>  (5) 
oracle

>  <origin>  (5) 
adg

>  <m_score__min__energy>  (5) 
-8.8499999999999996

>  <m_primary>  (5) 
energy

$$$$
5:0
     RDKit          3D

 53 56  0  0  0  0  0  0  0  0999 V2000
   58.1370   26.8600   42.5970 C   0  0  0  0  0  0  0  0  0  0  0  0
   57.9140   26.8170   44.0030 O   0  0  0  0  0  0  0  0  0  0  0  0
   58.5690   27.6370   44.9340 C   0  0  0  0  0  0  0  0  0  0  0  0
   58.1920   27.6930   46.2880 C   0  0  0  0  0  0  0  0  0  0  0  0
   58.8780   28.5270   47.1770 C   0  0  0  0  0  0  0  0  0  0  0  0
   59.9490   29.3170   46.7310 C   0  0  0  0  0  0  0  0  0  0  0  0
   60.6550   30.1730   47.6490 N   0  0  0  0  0  0  0  0  0  0  0  0
   60.3520   30.0860   49.0830 C   0  0  0  0  0  0  0  0  0  0  0  0
   61.0880   31.1800   49.8670 C   0  0  0  0  0  0  0  0  0  0  0  0
   61.1670   32.4430   49.1040 N   0  0  0  0  0  0  0  0  0  0  0  0
   59.8490   33.0710   48.8510 C   0  0  0  0  0  0  0  0  0  0  0  0
   59.9410   34.1280   47.7310 C   0  0  0  0  0  0  0  0  0  0  0  0
   58.6410   34.3690   47.0740 N   0  0  0  0  0  0  0  0  0  0  0  0
   57.8980   33.1300   46.7810 C   0  0  0  0  0  0  0  0  0  0  0  0
   57.9580   32.7670   45.3250 C   0  0  0  0  0  0  0  0  0  0  0  0
   58.4720   33.5310   44.2800 C   0  0  0  0  0  0  0  0  0  0  0  0
   58.2050   32.9330   43.0930 N   0  0  0  0  0  0  0  0  0  0  0  0
   57.5370   31.8260   43.3670 N   0  0  0  0  0  0  0  0  0  0  0  0
   57.0200   30.9410   42.4810 C   0  0  0  0  0  0  0  0  0  0  0  0
   56.2880   29.8600   42.9880 C   0  0  0  0  0  0  0  0  0  0  0  0
   56.1200   29.7460   44.3830 C   0  0  0  0  0  0  0  0  0  0  0  0
   56.6650   30.6750   45.2230 N   0  0  0  0  0  0  0  0  0  0  0  0
   57.3740   31.6990   44.6870 C   0  0  0  0  0  0  0  0  0  0  0  0
   61.9670   32.2870   47.8640 C   0  0  0  0  0  0  0  0  0  0  0  0
   61.8550   30.8930   47.2060 C   0  0  0  0  0  0  0  0  0  0  0  0
   60.3200   29.2620   45.3770 C   0  0  0  0  0  0  0  0  0  0  0  0
   59.6350   28.4280   44.4890 C   0  0  0  0  0  0  0  0  0  0  0  0
   59.1997   27.0649   42.4004 H   0  0  0  0  0  0  0  0  0  0  0  0
   57.8618   25.8922   42.1523 H   0  0  0  0  0  0  0  0  0  0  0  0
   57.5217   27.6560   42.1523 H   0  0  0  0  0  0  0  0  0  0  0  0
   57.3543   27.0784   46.6492 H   0  0  0  0  0  0  0  0  0  0  0  0
   58.5757   28.5640   48.2340 H   0  0  0  0  0  0  0  0  0  0  0  0
   59.2684   30.2053   49.2297 H   0  0  0  0  0  0  0  0  0  0  0  0
   60.6849   29.1050   49.4530 H   0  0  0  0  0  0  0  0  0  0  0  0
   60.5507   31.3659   50.8087 H   0  0  0  0  0  0  0  0  0  0  0  0
   62.1136   30.8318   50.0591 H   0  0  0  0  0  0  0  0  0  0  0  0
   59.1320   32.2924   48.5516 H   0  0  0  0  0  0  0  0  0  0  0  0
   59.5173   33.5691   49.7740 H   0  0  0  0  0  0  0  0  0  0  0  0
   60.2971   35.0734   48.1663 H   0  0  0  0  0  0  0  0  0  0  0  0
   60.6360   33.7474   46.9680 H   0  0  0  0  0  0  0  0  0  0  0  0
   58.0440   35.0270   47.6290 H   0  0  0  0  0  0  0  0  0  0  0  0
   58.3320   32.3084   47.3697 H   0  0  0  0  0  0  0  0  0  0  0  0
   56.8434   33.2965   47.0457 H   0  0  0  0  0  0  0  0  0  0  0  0
   59.0148   34.4802   44.4002 H   0  0  0  0  0  0  0  0  0  0  0  0
   57.1703   31.0674   41.3987 H   0  0  0  0  0  0  0  0  0  0  0  0
   55.8515   29.1126   42.3092 H   0  0  0  0  0  0  0  0  0  0  0  0
   55.5465   28.9038   44.7976 H   0  0  0  0  0  0  0  0  0  0  0  0
   61.6264   33.0393   47.1374 H   0  0  0  0  0  0  0  0  0  0  0  0
   63.0211   32.4162   48.1508 H   0  0  0  0  0  0  0  0  0  0  0  0
   61.8119   31.0177   46.1139 H   0  0  0  0  0  0  0  0  0  0  0  0
   62.7351   30.3040   47.5037 H   0  0  0  0  0  0  0  0  0  0  0  0
   61.1548   29.8792   45.0135 H   0  0  0  0  0  0  0  0  0  0  0  0
   59.9360   28.3928   43.4316 H   0  0  0  0  0  0  0  0  0  0  0  0
  1  2  1  0
  2  3  1  0
  3  4  2  0
  4  5  1  0
  5  6  2  0
  6  7  1  0
  7  8  1  0
  8  9  1  0
  9 10  1  0
 10 11  1  0
 11 12  1  0
 12 13  1  0
 13 14  1  0
 14 15  1  0
 15 16  1  0
 16 17  2  0
 17 18  1  0
 18 19  1  0
 19 20  2  0
 20 21  1  0
 21 22  2  0
 22 23  1  0
 10 24  1  0
 24 25  1  0
  6 26  1  0
 26 27  2  0
 27  3  1  0
 25  7  1  0
 23 15  2  0
 23 18  1  0
  1 28  1  0
  1 29  1  0
  1 30  1  0
  4 31  1  0
  5 32  1  0
  8 33  1  0
  8 34  1  0
  9 35  1  0
  9 36  1  0
 11 37  1  0
 11 38  1  0
 12 39  1  0
 12 40  1  0
 13 41  1  0
 14 42  1  0
 14 43  1  0
 16 44  1  0
 19 45  1  0
 20 46  1  0
 21 47  1  0
 24 48  1  0
 24 49  1  0
 25 50  1  0
 25 51  1  0
 26 52  1  0
 27 53  1  0
M  END
>  <UniqueID>  (6) 
6

>  <SMILES>  (6) 
COc1ccc(N2CCN(CCNCc3cnn4cccnc34)CC2)cc1

>  <Energy>  (6) 
105.6568186137865

>  <Genealogy>  (6) 
COc1ccc(N2CCN(CCNCc3cnn4cccnc34)CC2)cc1 (3D coordinates assigned)
COc1ccc(N2CCN(CCNCc3cnn4cccnc34)CC2)cc1 (nonaromatic ring conformer: 105.6568186137865 kcal/mol)

>  <smiles>  (6) 
COc1ccc(N2CCN(CCNCc3cnn4cccnc34)CC2)cc1

>  <score_type>  (6) 
oracle

>  <origin>  (6) 
adg

>  <m_score__min__energy>  (6) 
-8.0899999999999999

>  <m_primary>  (6) 
energy

$$$$
6:0
     RDKit          3D

 26 27  0  0  0  0  0  0  0  0999 V2000
   60.0520   34.2500   46.6870 C   0  0  0  0  0  0  0  0  0  0  0  0
   59.1420   33.2120   46.1100 C   0  0  0  0  0  0  0  0  0  0  0  0
   57.8510   33.5540   45.6970 C   0  0  0  0  0  0  0  0  0  0  0  0
   57.0220   32.5720   45.1590 C   0  0  0  0  0  0  0  0  0  0  0  0
   57.4860   31.2510   45.0340 C   0  0  0  0  0  0  0  0  0  0  0  0
   56.6920   30.2270   44.5140 C   0  0  0  0  0  0  0  0  0  0  0  0
   55.5170   30.4600   44.1190 O   0  0  0  0  0  0  0  0  0  0  0  0
   57.1860   28.9660   44.4380 N   0  0  0  0  0  0  0  0  0  0  0  0
   58.4490   28.6630   44.8560 C   0  0  0  0  0  0  0  0  0  0  0  0
   58.9140   27.2290   44.7580 C   0  0  0  0  0  0  0  0  0  0  0  0
   59.2780   29.6580   45.3290 N   0  0  0  0  0  0  0  0  0  0  0  0
   60.6500   29.3380   45.7690 C   0  0  0  0  0  0  0  0  0  0  0  0
   58.7980   30.9410   45.4510 C   0  0  0  0  0  0  0  0  0  0  0  0
   59.5760   31.9310   45.9750 N   0  0  0  0  0  0  0  0  0  0  0  0
   60.0113   34.2036   47.7853 H   0  0  0  0  0  0  0  0  0  0  0  0
   61.0822   34.0627   46.3500 H   0  0  0  0  0  0  0  0  0  0  0  0
   59.7315   35.2468   46.3500 H   0  0  0  0  0  0  0  0  0  0  0  0
   57.4928   34.5893   45.7959 H   0  0  0  0  0  0  0  0  0  0  0  0
   56.0040   32.8305   44.8319 H   0  0  0  0  0  0  0  0  0  0  0  0
   56.5710   28.2120   44.0540 H   0  0  0  0  0  0  0  0  0  0  0  0
   59.0476   26.8170   45.7691 H   0  0  0  0  0  0  0  0  0  0  0  0
   58.1621   26.6359   44.2168 H   0  0  0  0  0  0  0  0  0  0  0  0
   59.8708   27.1900   44.2168 H   0  0  0  0  0  0  0  0  0  0  0  0
   60.6898   29.3287   46.8682 H   0  0  0  0  0  0  0  0  0  0  0  0
   60.9374   28.3487   45.3833 H   0  0  0  0  0  0  0  0  0  0  0  0
   61.3454   30.0981   45.3833 H   0  0  0  0  0  0  0  0  0  0  0  0
  1  2  1  0
  2  3  2  0
  3  4  1  0
  4  5  2  0
  5  6  1  0
  6  7  2  0
  6  8  1  0
  8  9  2  0
  9 10  1  0
  9 11  1  0
 11 12  1  0
 11 13  1  0
 13 14  2  0
 14  2  1  0
 13  5  1  0
  1 15  1  0
  1 16  1  0
  1 17  1  0
  3 18  1  0
  4 19  1  0
  8 20  1  0
 10 21  1  0
 10 22  1  0
 10 23  1  0
 12 24  1  0
 12 25  1  0
 12 26  1  0
M  CHG  1   8   1
M  END
>  <UniqueID>  (7) 
7

>  <SMILES>  (7) 
Cc1ccc2c(=O)[nH+]c(C)n(C)c2n1

>  <Energy>  (7) 
33.72082493478877

>  <Genealogy>  (7) 
Cc1ccc2c(=O)[nH+]c(C)n(C)c2n1 (protonated)
Cc1ccc2c(=O)[nH+]c(C)n(C)c2n1 (3D coordinates assigned)
Cc1ccc2c(=O)[nH+]c(C)n(C)c2n1 (optimized conformer: 33.72082493478877 kcal/mol)

>  <smiles>  (7) 
Cc1ccc2c(=O)nc(C)n(C)c2n1

>  <score_type>  (7) 
oracle

>  <origin>  (7) 
adg

>  <m_score__min__energy>  (7) 
-4.2599999999999998

>  <m_primary>  (7) 
energy

$$$$
7:0
     RDKit          3D

 38 40  0  0  0  0  0  0  0  0999 V2000
   57.4455   28.0765   47.6554 H   0  0  0  0  0  0  0  0  0  0  0  0
   57.9490   27.7660   46.7280 C   0  0  0  0  0  0  0  0  0  0  0  0
   58.7040   28.6600   46.0770 C   0  0  0  0  0  0  0  0  0  0  0  0
   59.7922   28.6607   46.2377 H   0  0  0  0  0  0  0  0  0  0  0  0
   58.1120   29.6470   45.1470 C   0  0  0  0  0  0  0  0  0  0  0  0
   57.4260   29.1530   44.0320 C   0  0  0  0  0  0  0  0  0  0  0  0
   57.3056   28.0678   43.8980 H   0  0  0  0  0  0  0  0  0  0  0  0
   56.8950   30.0330   43.0910 C   0  0  0  0  0  0  0  0  0  0  0  0
   56.3643   29.6386   42.2119 H   0  0  0  0  0  0  0  0  0  0  0  0
   57.0290   31.3750   43.2530 N   0  0  0  0  0  0  0  0  0  0  0  0
   56.6220   32.0040   42.5240 H   0  0  0  0  0  0  0  0  0  0  0  0
   57.6580   31.9050   44.3410 C   0  0  0  0  0  0  0  0  0  0  0  0
   57.7490   33.2970   44.4910 C   0  0  0  0  0  0  0  0  0  0  0  0
   57.3380   33.9587   43.7143 H   0  0  0  0  0  0  0  0  0  0  0  0
   58.3580   33.8470   45.6200 C   0  0  0  0  0  0  0  0  0  0  0  0
   58.4343   34.9393   45.7251 H   0  0  0  0  0  0  0  0  0  0  0  0
   58.8700   33.0150   46.6150 C   0  0  0  0  0  0  0  0  0  0  0  0
   59.3381   33.4538   47.5085 H   0  0  0  0  0  0  0  0  0  0  0  0
   58.7910   31.6270   46.4820 C   0  0  0  0  0  0  0  0  0  0  0  0
   59.1864   30.9787   47.2778 H   0  0  0  0  0  0  0  0  0  0  0  0
   58.2070   31.0500   45.3330 C   0  0  0  0  0  0  0  0  0  0  0  0
   57.7640   26.3750   46.2500 C   0  0  0  0  0  0  0  0  0  0  0  0
   58.8770   25.5170   46.1360 C   0  0  0  0  0  0  0  0  0  0  0  0
   59.8828   25.8986   46.3656 H   0  0  0  0  0  0  0  0  0  0  0  0
   58.7170   24.1780   45.7320 C   0  0  0  0  0  0  0  0  0  0  0  0
   59.8000   23.2950   45.6050 O   0  0  0  0  0  0  0  0  0  0  0  0
   59.7790   22.1000   44.8320 C   0  0  0  0  0  0  0  0  0  0  0  0
   59.7637   21.2290   45.5037 H   0  0  0  0  0  0  0  0  0  0  0  0
   58.8805   22.0895   44.1975 H   0  0  0  0  0  0  0  0  0  0  0  0
   60.6765   22.0579   44.1975 H   0  0  0  0  0  0  0  0  0  0  0  0
   57.4370   23.6990   45.4490 C   0  0  0  0  0  0  0  0  0  0  0  0
   57.3036   22.6540   45.1325 H   0  0  0  0  0  0  0  0  0  0  0  0
   56.3250   24.5340   45.5640 C   0  0  0  0  0  0  0  0  0  0  0  0
   55.3226   24.1393   45.3417 H   0  0  0  0  0  0  0  0  0  0  0  0
   56.4720   25.8710   45.9600 C   0  0  0  0  0  0  0  0  0  0  0  0
   55.3050   26.7040   46.0240 N   0  0  0  0  0  0  0  0  0  0  0  0
   55.1420   27.4910   45.3590 H   0  0  0  0  0  0  0  0  0  0  0  0
   54.5450   26.4970   46.7100 H   0  0  0  0  0  0  0  0  0  0  0  0
  1  2  1  0
  2  3  2  0
  3  4  1  0
  3  5  1  0
  5  6  2  0
  6  7  1  0
  6  8  1  0
  8  9  1  0
  8 10  2  0
 10 11  1  0
 10 12  1  0
 12 13  2  0
 13 14  1  0
 13 15  1  0
 15 16  1  0
 15 17  2  0
 17 18  1  0
 17 19  1  0
 19 20  1  0
 19 21  2  0
  2 22  1  0
 22 23  2  0
 23 24  1  0
 23 25  1  0
 25 26  1  0
 26 27  1  0
 27 28  1  0
 27 29  1  0
 27 30  1  0
 25 31  2  0
 31 32  1  0
 31 33  1  0
 33 34  1  0
 33 35  2  0
 35 36  1  0
 36 37  1  0
 36 38  1  0
 21  5  1  0
 35 22  1  0
 21 12  1  0
M  CHG  1  10   1
M  END
>  <UniqueID>  (8) 
8

>  <SMILES>  (8) 
COc1ccc(N)c(/C=C/c2cc[nH+]c3ccccc23)c1

>  <Energy>  (8) 
54.76691229389865

>  <Genealogy>  (8) 
COc1ccc(N)c(C=Cc2cc[nH+]c3ccccc23)c1 (protonated)
COc1ccc(N)c(/C=C/c2cc[nH+]c3ccccc23)c1 (cis-trans isomerization)
COc1ccc(N)c(/C=C/c2cc[nH+]c3ccccc23)c1 (3D coordinates assigned)
COc1ccc(N)c(/C=C/c2cc[nH+]c3ccccc23)c1 (optimized conformer: 54.76691229389865 kcal/mol)

>  <smiles>  (8) 
COc1ccc(N)c(C=Cc2ccnc3ccccc23)c1

>  <score_type>  (8) 
oracle

>  <origin>  (8) 
adg

>  <m_score__min__energy>  (8) 
-6.7300000000000004

>  <m_primary>  (8) 
energy

$$$$
8:0
     RDKit          3D

 52 56  0  0  0  0  0  0  0  0999 V2000
   60.3550   33.0100   50.7250 C   0  0  0  0  0  0  0  0  0  0  0  0
   60.9650   31.8150   50.2500 O   0  0  0  0  0  0  0  0  0  0  0  0
   60.5750   31.1290   49.0890 C   0  0  0  0  0  0  0  0  0  0  0  0
   59.4090   30.3410   49.0430 C   0  0  0  0  0  0  0  0  0  0  0  0
   59.0540   29.6710   47.8720 C   0  0  0  0  0  0  0  0  0  0  0  0
   59.8570   29.7680   46.7280 C   0  0  0  0  0  0  0  0  0  0  0  0
   59.4940   29.0100   45.4720 C   0  0  1  0  0  0  0  0  0  0  0  0
   59.8910   27.6000   45.6180 N   0  0  0  0  0  0  0  0  0  0  0  0
   58.9490   26.5190   45.7650 C   0  0  0  0  0  0  0  0  0  0  0  0
   59.4100   25.2250   46.0400 C   0  0  0  0  0  0  0  0  0  0  0  0
   58.5060   24.1740   46.1870 C   0  0  0  0  0  0  0  0  0  0  0  0
   57.1340   24.4010   46.0570 C   0  0  0  0  0  0  0  0  0  0  0  0
   56.6470   25.6930   45.7760 C   0  0  0  0  0  0  0  0  0  0  0  0
   55.2730   25.9490   45.6370 O   0  0  0  0  0  0  0  0  0  0  0  0
   54.2650   24.9450   45.5780 C   0  0  0  0  0  0  0  0  0  0  0  0
   57.5680   26.7520   45.6280 C   0  0  0  0  0  0  0  0  0  0  0  0
   57.1590   28.1330   45.3330 C   0  0  0  0  0  0  0  0  0  0  0  0
   55.8930   28.5840   45.2290 N   0  0  0  0  0  0  0  0  0  0  0  0
   55.9700   29.8950   45.0480 N   0  0  0  0  0  0  0  0  0  0  0  0
   57.2800   30.2190   45.0350 C   0  0  0  0  0  0  0  0  0  0  0  0
   57.7670   31.6090   44.9610 C   0  0  0  0  0  0  0  0  0  0  0  0
   58.1330   32.1820   43.7360 C   0  0  0  0  0  0  0  0  0  0  0  0
   58.6100   33.4950   43.7050 C   0  0  0  0  0  0  0  0  0  0  0  0
   58.7060   34.2130   44.8560 N   0  0  0  0  0  0  0  0  0  0  0  0
   58.3410   33.6870   46.0550 C   0  0  0  0  0  0  0  0  0  0  0  0
   57.8570   32.3790   46.1290 C   0  0  0  0  0  0  0  0  0  0  0  0
   58.0520   29.1250   45.2120 N   0  0  0  0  0  0  0  0  0  0  0  0
   61.0160   30.5590   46.7670 C   0  0  0  0  0  0  0  0  0  0  0  0
   61.3800   31.2390   47.9450 C   0  0  0  0  0  0  0  0  0  0  0  0
   62.5380   32.0330   48.0180 O   0  0  0  0  0  0  0  0  0  0  0  0
   62.7960   33.1610   47.1890 C   0  0  0  0  0  0  0  0  0  0  0  0
   60.3552   33.0096   51.8250 H   0  0  0  0  0  0  0  0  0  0  0  0
   60.9191   33.8803   50.3586 H   0  0  0  0  0  0  0  0  0  0  0  0
   59.3192   33.0636   50.3586 H   0  0  0  0  0  0  0  0  0  0  0  0
   58.7736   30.2531   49.9366 H   0  0  0  0  0  0  0  0  0  0  0  0
   58.1378   29.0627   47.8467 H   0  0  0  0  0  0  0  0  0  0  0  0
   60.0308   29.4406   44.6138 H   0  0  0  0  0  0  0  0  0  0  0  0
   60.9130   27.3920   45.6830 H   0  0  0  0  0  0  0  0  0  0  0  0
   60.4893   25.0376   46.1403 H   0  0  0  0  0  0  0  0  0  0  0  0
   58.8749   23.1612   46.4064 H   0  0  0  0  0  0  0  0  0  0  0  0
   56.4286   23.5652   46.1748 H   0  0  0  0  0  0  0  0  0  0  0  0
   53.9750   24.6561   46.5990 H   0  0  0  0  0  0  0  0  0  0  0  0
   53.3868   25.3380   45.0447 H   0  0  0  0  0  0  0  0  0  0  0  0
   54.6545   24.0653   45.0447 H   0  0  0  0  0  0  0  0  0  0  0  0
   58.0455   31.6024   42.8052 H   0  0  0  0  0  0  0  0  0  0  0  0
   58.9083   33.9485   42.7483 H   0  0  0  0  0  0  0  0  0  0  0  0
   58.4270   34.2929   46.9691 H   0  0  0  0  0  0  0  0  0  0  0  0
   57.5487   31.9562   47.0966 H   0  0  0  0  0  0  0  0  0  0  0  0
   61.6454   30.6484   45.8693 H   0  0  0  0  0  0  0  0  0  0  0  0
   62.9971   34.0403   47.8185 H   0  0  0  0  0  0  0  0  0  0  0  0
   63.6707   32.9569   46.5539 H   0  0  0  0  0  0  0  0  0  0  0  0
   61.9196   33.3574   46.5539 H   0  0  0  0  0  0  0  0  0  0  0  0
  1  2  1  0
  2  3  1  0
  3  4  2  0
  4  5  1  0
  5  6  2  0
  6  7  1  0
  7  8  1  0
  8  9  1  0
  9 10  2  0
 10 11  1  0
 11 12  2  0
 12 13  1  0
 13 14  1  0
 14 15  1  0
 13 16  2  0
 16 17  1  0
 17 18  2  0
 18 19  1  0
 19 20  2  0
 20 21  1  0
 21 22  2  0
 22 23  1  0
 23 24  2  0
 24 25  1  0
 25 26  2  0
 20 27  1  0
  6 28  1  0
 28 29  2  0
 29 30  1  0
 30 31  1  0
 29  3  1  0
 27  7  1  0
 16  9  1  0
 27 17  1  0
 26 21  1  0
  1 32  1  0
  1 33  1  0
  1 34  1  0
  4 35  1  0
  5 36  1  0
  7 37  1  6
  8 38  1  0
 10 39  1  0
 11 40  1  0
 12 41  1  0
 15 42  1  0
 15 43  1  0
 15 44  1  0
 22 45  1  0
 23 46  1  0
 25 47  1  0
 26 48  1  0
 28 49  1  0
 31 50  1  0
 31 51  1  0
 31 52  1  0
M  END
>  <UniqueID>  (9) 
9

>  <SMILES>  (9) 
COc1ccc([C@H]2Nc3cccc(OC)c3-c3nnc(-c4ccncc4)n32)cc1OC

>  <Energy>  (9) 
98.94554121283093

>  <Genealogy>  (9) 
COc1ccc([C@H]2Nc3cccc(OC)c3-c3nnc(-c4ccncc4)n32)cc1OC (chirality)
COc1ccc([C@H]2Nc3cccc(OC)c3-c3nnc(-c4ccncc4)n32)cc1OC (3D coordinates assigned)
COc1ccc([C@H]2Nc3cccc(OC)c3-c3nnc(-c4ccncc4)n32)cc1OC (nonaromatic ring conformer: 98.94554121283093 kcal/mol)

>  <smiles>  (9) 
COc1ccc(C2Nc3cccc(OC)c3-c3nnc(-c4ccncc4)n32)cc1OC

>  <score_type>  (9) 
oracle

>  <origin>  (9) 
adg

>  <m_score__min__energy>  (9) 
-7.9199999999999999

>  <m_primary>  (9) 
energy

$$$$
9:0
     RDKit          3D

 32 33  0  0  0  0  0  0  0  0999 V2000
   58.9190   26.0460   46.4420 C   0  0  0  0  0  0  0  0  0  0  0  0
   57.4730   25.8850   46.6240 N   0  0  0  0  0  0  0  0  0  0  0  0
   56.9560   24.8270   47.4990 C   0  0  0  0  0  0  0  0  0  0  0  0
   56.5380   26.7530   45.9480 C   0  0  0  0  0  0  0  0  0  0  0  0
   55.3020   26.5030   45.9990 O   0  0  0  0  0  0  0  0  0  0  0  0
   56.9890   27.9810   45.1970 C   0  0  0  0  0  0  0  0  0  0  0  0
   55.9170   28.8730   44.9460 O   0  0  0  0  0  0  0  0  0  0  0  0
   56.2260   29.7840   43.9040 C   0  0  0  0  0  0  0  0  0  0  0  0
   57.0190   30.9310   44.4470 C   0  0  0  0  0  0  0  0  0  0  0  0
   57.4460   32.0360   43.7160 C   0  0  0  0  0  0  0  0  0  0  0  0
   58.0900   32.8230   44.6420 C   0  0  0  0  0  0  0  0  0  0  0  0
   58.7080   34.0640   44.5130 C   0  0  0  0  0  0  0  0  0  0  0  0
   59.2770   34.6360   45.6670 C   0  0  0  0  0  0  0  0  0  0  0  0
   59.2120   33.9590   46.9060 C   0  0  0  0  0  0  0  0  0  0  0  0
   58.5780   32.7060   47.0030 C   0  0  0  0  0  0  0  0  0  0  0  0
   58.0240   32.1670   45.8430 C   0  0  0  0  0  0  0  0  0  0  0  0
   57.3840   31.0330   45.7130 O   0  0  0  0  0  0  0  0  0  0  0  0
   59.4085   26.1005   47.4256 H   0  0  0  0  0  0  0  0  0  0  0  0
   59.3160   25.1865   45.8820 H   0  0  0  0  0  0  0  0  0  0  0  0
   59.1172   26.9718   45.8820 H   0  0  0  0  0  0  0  0  0  0  0  0
   57.0984   25.1183   48.5501 H   0  0  0  0  0  0  0  0  0  0  0  0
   55.8840   24.6790   47.3015 H   0  0  0  0  0  0  0  0  0  0  0  0
   57.4980   23.8904   47.3015 H   0  0  0  0  0  0  0  0  0  0  0  0
   57.7522   28.5019   45.7938 H   0  0  0  0  0  0  0  0  0  0  0  0
   57.3952   27.6565   44.2276 H   0  0  0  0  0  0  0  0  0  0  0  0
   56.8142   29.2678   43.1310 H   0  0  0  0  0  0  0  0  0  0  0  0
   55.2909   30.1652   43.4679 H   0  0  0  0  0  0  0  0  0  0  0  0
   57.3015   32.2343   42.6437 H   0  0  0  0  0  0  0  0  0  0  0  0
   58.7503   34.5801   43.5425 H   0  0  0  0  0  0  0  0  0  0  0  0
   59.7747   35.6149   45.6039 H   0  0  0  0  0  0  0  0  0  0  0  0
   59.6602   34.4147   47.8012 H   0  0  0  0  0  0  0  0  0  0  0  0
   58.5216   32.1702   47.9620 H   0  0  0  0  0  0  0  0  0  0  0  0
  1  2  1  0
  2  3  1  0
  2  4  1  0
  4  5  2  0
  4  6  1  0
  6  7  1  0
  7  8  1  0
  8  9  1  0
  9 10  2  0
 10 11  1  0
 11 12  2  0
 12 13  1  0
 13 14  2  0
 14 15  1  0
 15 16  2  0
 16 17  1  0
 17  9  1  0
 16 11  1  0
  1 18  1  0
  1 19  1  0
  1 20  1  0
  3 21  1  0
  3 22  1  0
  3 23  1  0
  6 24  1  0
  6 25  1  0
  8 26  1  0
  8 27  1  0
 10 28  1  0
 12 29  1  0
 13 30  1  0
 14 31  1  0
 15 32  1  0
M  END
>  <UniqueID>  (10) 
10

>  <SMILES>  (10) 
CN(C)C(=O)COCc1cc2ccccc2o1

>  <Energy>  (10) 
62.84819372815278

>  <Genealogy>  (10) 
CN(C)C(=O)COCc1cc2ccccc2o1 (3D coordinates assigned)
CN(C)C(=O)COCc1cc2ccccc2o1 (optimized conformer: 62.84819372815278 kcal/mol)

>  <smiles>  (10) 
CN(C)C(=O)COCc1cc2ccccc2o1

>  <score_type>  (10) 
oracle

>  <origin>  (10) 
adg

>  <m_score__min__energy>  (10) 
-7.1900000000000004

>  <m_primary>  (10) 
energy

$$$$
10:0
     RDKit          3D

 45 47  0  0  0  0  0  0  0  0999 V2000
   56.5330   21.3220   47.9980 C   0  0  0  0  0  0  0  0  0  0  0  0
   57.3960   22.0290   47.1140 O   0  0  0  0  0  0  0  0  0  0  0  0
   57.1640   22.2060   45.7390 C   0  0  0  0  0  0  0  0  0  0  0  0
   57.6630   21.3030   44.7800 C   0  0  0  0  0  0  0  0  0  0  0  0
   57.3960   21.4960   43.4220 C   0  0  0  0  0  0  0  0  0  0  0  0
   56.6280   22.5850   43.0070 C   0  0  0  0  0  0  0  0  0  0  0  0
   56.1310   23.4900   43.9460 C   0  0  0  0  0  0  0  0  0  0  0  0
   56.4050   23.3170   45.3130 C   0  0  0  0  0  0  0  0  0  0  0  0
   55.8380   24.2930   46.3170 C   0  0  0  0  0  0  0  0  0  0  0  0
   54.8770   25.3040   45.6740 C   0  0  0  0  0  0  0  0  0  0  0  0
   55.2500   26.6830   45.9910 N   0  0  0  0  0  0  0  0  0  0  0  0
   56.5110   27.2990   45.7040 C   0  0  0  0  0  0  0  0  0  0  0  0
   57.5600   26.6160   45.8370 O   0  0  0  0  0  0  0  0  0  0  0  0
   56.6240   28.6830   45.2140 C   0  0  0  0  0  0  0  0  0  0  0  0
   57.7710   29.4470   45.1570 C   0  0  0  0  0  0  0  0  0  0  0  0
   57.3160   30.6860   44.7580 C   0  0  0  0  0  0  0  0  0  0  0  0
   58.1490   31.9120   44.5370 C   0  0  0  0  0  0  0  0  0  0  0  0
   57.7950   32.9440   45.4590 O   0  0  0  0  0  0  0  0  0  0  0  0
   58.4390   33.1960   46.6830 C   0  0  0  0  0  0  0  0  0  0  0  0
   58.2440   32.3820   47.8180 C   0  0  0  0  0  0  0  0  0  0  0  0
   58.9090   32.6680   49.0130 C   0  0  0  0  0  0  0  0  0  0  0  0
   59.7710   33.7640   49.0920 C   0  0  0  0  0  0  0  0  0  0  0  0
   60.4180   34.0350   50.2520 F   0  0  0  0  0  0  0  0  0  0  0  0
   59.9730   34.5750   47.9730 C   0  0  0  0  0  0  0  0  0  0  0  0
   59.3100   34.2950   46.7730 C   0  0  0  0  0  0  0  0  0  0  0  0
   59.5960   35.3200   45.3750 Cl  0  0  0  0  0  0  0  0  0  0  0  0
   56.0170   30.6280   44.5910 O   0  0  0  0  0  0  0  0  0  0  0  0
   55.5630   29.4400   44.8690 N   0  0  0  0  0  0  0  0  0  0  0  0
   56.8089   21.5481   49.0386 H   0  0  0  0  0  0  0  0  0  0  0  0
   55.4924   21.6306   47.8193 H   0  0  0  0  0  0  0  0  0  0  0  0
   56.6308   20.2410   47.8193 H   0  0  0  0  0  0  0  0  0  0  0  0
   58.2661   20.4412   45.1018 H   0  0  0  0  0  0  0  0  0  0  0  0
   57.7919   20.7883   42.6787 H   0  0  0  0  0  0  0  0  0  0  0  0
   56.4140   22.7302   41.9378 H   0  0  0  0  0  0  0  0  0  0  0  0
   55.5215   24.3434   43.6140 H   0  0  0  0  0  0  0  0  0  0  0  0
   55.2930   23.7293   47.0885 H   0  0  0  0  0  0  0  0  0  0  0  0
   56.6786   24.8570   46.7475 H   0  0  0  0  0  0  0  0  0  0  0  0
   54.8980   25.1711   44.5823 H   0  0  0  0  0  0  0  0  0  0  0  0
   53.8689   25.1210   46.0743 H   0  0  0  0  0  0  0  0  0  0  0  0
   58.8041   29.1404   45.3776 H   0  0  0  0  0  0  0  0  0  0  0  0
   59.2099   31.6556   44.6739 H   0  0  0  0  0  0  0  0  0  0  0  0
   57.9699   32.2781   43.5153 H   0  0  0  0  0  0  0  0  0  0  0  0
   57.5653   31.5181   47.7622 H   0  0  0  0  0  0  0  0  0  0  0  0
   58.7532   32.0281   49.8941 H   0  0  0  0  0  0  0  0  0  0  0  0
   60.6549   35.4359   48.0352 H   0  0  0  0  0  0  0  0  0  0  0  0
  1  2  1  0
  2  3  1  0
  3  4  2  0
  4  5  1  0
  5  6  2  0
  6  7  1  0
  7  8  2  0
  8  9  1  0
  9 10  1  0
 10 11  1  0
 11 12  1  0
 12 13  2  0
 12 14  1  0
 14 15  1  0
 15 16  2  0
 16 17  1  0
 17 18  1  0
 18 19  1  0
 19 20  2  0
 20 21  1  0
 21 22  2  0
 22 23  1  0
 22 24  1  0
 24 25  2  0
 25 26  1  0
 16 27  1  0
 27 28  1  0
  8  3  1  0
 28 14  2  0
 25 19  1  0
  1 29  1  0
  1 30  1  0
  1 31  1  0
  4 32  1  0
  5 33  1  0
  6 34  1  0
  7 35  1  0
  9 36  1  0
  9 37  1  0
 10 38  1  0
 10 39  1  0
 15 40  1  0
 17 41  1  0
 17 42  1  0
 20 43  1  0
 21 44  1  0
 24 45  1  0
M  CHG  1  11  -1
M  END
>  <UniqueID>  (11) 
11

>  <SMILES>  (11) 
COc1ccccc1CC[N-]C(=O)c1cc(COc2ccc(F)cc2Cl)on1

>  <Energy>  (11) 
77.49959558608465

>  <Genealogy>  (11) 
COc1ccccc1CC[N-]C(=O)c1cc(COc2ccc(F)cc2Cl)on1 (protonated)
COc1ccccc1CC[N-]C(=O)c1cc(COc2ccc(F)cc2Cl)on1 (3D coordinates assigned)
COc1ccccc1CC[N-]C(=O)c1cc(COc2ccc(F)cc2Cl)on1 (optimized conformer: 77.49959558608465 kcal/mol)

>  <smiles>  (11) 
COc1ccccc1CCNC(=O)c1cc(COc2ccc(F)cc2Cl)on1

>  <score_type>  (11) 
oracle

>  <origin>  (11) 
adg

>  <m_score__min__energy>  (11) 
-10.720000000000001

>  <m_primary>  (11) 
energy

$$$$
11:0
     RDKit          3D

 43 45  0  0  0  0  0  0  0  0999 V2000
   63.2680   33.8160   50.1860 C   0  0  0  0  0  0  0  0  0  0  0  0
   62.0010   34.3980   49.8920 O   0  0  0  0  0  0  0  0  0  0  0  0
   61.2740   34.1580   48.7160 C   0  0  0  0  0  0  0  0  0  0  0  0
   61.8730   33.6440   47.5500 C   0  0  0  0  0  0  0  0  0  0  0  0
   61.1050   33.4250   46.4020 C   0  0  0  0  0  0  0  0  0  0  0  0
   59.7280   33.7070   46.4010 C   0  0  0  0  0  0  0  0  0  0  0  0
   58.9470   33.5240   45.2030 N   0  0  0  0  0  0  0  0  0  0  0  0
   58.3490   32.2120   45.2210 C   0  0  0  0  0  0  0  0  0  0  0  0
   58.5200   31.3680   46.3290 C   0  0  0  0  0  0  0  0  0  0  0  0
   58.0080   30.0710   46.3140 C   0  0  0  0  0  0  0  0  0  0  0  0
   57.3340   29.5810   45.1880 C   0  0  0  0  0  0  0  0  0  0  0  0
   56.8890   28.2160   45.1980 N   0  0  0  0  0  0  0  0  0  0  0  0
   57.6920   27.1110   45.6370 C   0  0  0  0  0  0  0  0  0  0  0  0
   59.3560   27.0940   45.6340 S   0  0  0  0  0  0  0  0  0  0  0  0
   59.6370   25.6240   46.3540 N   0  0  0  0  0  0  0  0  0  0  0  0
   58.4050   25.1110   46.6060 C   0  0  0  0  0  0  0  0  0  0  0  0
   58.2770   23.9790   47.1430 O   0  0  0  0  0  0  0  0  0  0  0  0
   57.2910   25.9010   46.2160 C   0  0  0  0  0  0  0  0  0  0  0  0
   55.8920   25.4430   46.3460 C   0  0  0  0  0  0  0  0  0  0  0  0
   54.8170   26.3030   45.9770 N   0  0  0  0  0  0  0  0  0  0  0  0
   55.6360   24.3000   46.8100 O   0  0  0  0  0  0  0  0  0  0  0  0
   57.0960   30.4440   44.0890 C   0  0  0  0  0  0  0  0  0  0  0  0
   56.2900   30.0120   42.8950 C   0  0  0  0  0  0  0  0  0  0  0  0
   57.6340   31.7420   44.1070 C   0  0  0  0  0  0  0  0  0  0  0  0
   59.1370   34.2260   47.5650 C   0  0  0  0  0  0  0  0  0  0  0  0
   59.9050   34.4460   48.7110 C   0  0  0  0  0  0  0  0  0  0  0  0
   63.3996   33.7556   51.2764 H   0  0  0  0  0  0  0  0  0  0  0  0
   63.3164   32.8054   49.7543 H   0  0  0  0  0  0  0  0  0  0  0  0
   64.0662   34.4377   49.7543 H   0  0  0  0  0  0  0  0  0  0  0  0
   62.9486   33.4139   47.5420 H   0  0  0  0  0  0  0  0  0  0  0  0
   61.5820   33.0292   45.4932 H   0  0  0  0  0  0  0  0  0  0  0  0
   58.2040   34.2590   45.1410 H   0  0  0  0  0  0  0  0  0  0  0  0
   59.5520   33.6320   44.3560 H   0  0  0  0  0  0  0  0  0  0  0  0
   59.0613   31.7318   47.2148 H   0  0  0  0  0  0  0  0  0  0  0  0
   58.1347   29.4258   47.1958 H   0  0  0  0  0  0  0  0  0  0  0  0
   55.9210   28.0120   44.8660 H   0  0  0  0  0  0  0  0  0  0  0  0
   54.7700   26.7230   45.0220 H   0  0  0  0  0  0  0  0  0  0  0  0
   55.3678   29.5177   43.2345 H   0  0  0  0  0  0  0  0  0  0  0  0
   56.0321   30.8928   42.2886 H   0  0  0  0  0  0  0  0  0  0  0  0
   56.8806   29.3095   42.2886 H   0  0  0  0  0  0  0  0  0  0  0  0
   57.4932   32.3994   43.2363 H   0  0  0  0  0  0  0  0  0  0  0  0
   58.0624   34.4607   47.5741 H   0  0  0  0  0  0  0  0  0  0  0  0
   59.4292   34.8491   49.6172 H   0  0  0  0  0  0  0  0  0  0  0  0
  1  2  1  0
  2  3  1  0
  3  4  2  0
  4  5  1  0
  5  6  2  0
  6  7  1  0
  7  8  1  0
  8  9  2  0
  9 10  1  0
 10 11  2  0
 11 12  1  0
 12 13  1  0
 13 14  1  0
 14 15  1  0
 15 16  1  0
 16 17  2  0
 16 18  1  0
 18 19  1  0
 19 20  1  0
 19 21  2  0
 11 22  1  0
 22 23  1  0
 22 24  2  0
  6 25  1  0
 25 26  2  0
 26  3  1  0
 24  8  1  0
 18 13  2  0
  1 27  1  0
  1 28  1  0
  1 29  1  0
  4 30  1  0
  5 31  1  0
  7 32  1  0
  7 33  1  0
  9 34  1  0
 10 35  1  0
 12 36  1  0
 20 37  1  0
 23 38  1  0
 23 39  1  0
 23 40  1  0
 24 41  1  0
 25 42  1  0
 26 43  1  0
M  CHG  3   7   1  15  -1  20  -1
M  END
>  <UniqueID>  (12) 
12

>  <SMILES>  (12) 
COc1ccc([NH2+]c2ccc(Nc3s[n-]c(=O)c3C([NH-])=O)c(C)c2)cc1

>  <Energy>  (12) 
89.53833598691645

>  <Genealogy>  (12) 
COc1ccc([NH2+]c2ccc(Nc3s[n-]c(=O)c3C([NH-])=O)c(C)c2)cc1 (protonated)
COc1ccc([NH2+]c2ccc(Nc3s[n-]c(=O)c3C([NH-])=O)c(C)c2)cc1 (3D coordinates assigned)
COc1ccc([NH2+]c2ccc(Nc3s[n-]c(=O)c3C([NH-])=O)c(C)c2)cc1 (optimized conformer: 89.53833598691645 kcal/mol)

>  <smiles>  (12) 
COc1ccc(Nc2ccc(Nc3s[nH]c(=O)c3C(N)=O)c(C)c2)cc1

>  <score_type>  (12) 
oracle

>  <origin>  (12) 
adg

>  <m_score__min__energy>  (12) 
-10.970000000000001

>  <m_primary>  (12) 
energy

$$$$
12:0
     RDKit          3D

 47 49  0  0  0  0  0  0  0  0999 V2000
   57.4010   31.5460   42.6280 C   0  0  0  0  0  0  0  0  0  0  0  0
   56.6220   30.5170   43.4410 C   0  0  0  0  0  0  0  0  0  0  0  0
   56.6560   30.8390   44.8310 O   0  0  0  0  0  0  0  0  0  0  0  0
   57.7760   31.3170   45.5340 C   0  0  0  0  0  0  0  0  0  0  0  0
   57.7490   32.6350   45.9980 C   0  0  0  0  0  0  0  0  0  0  0  0
   58.8350   33.1660   46.6990 C   0  0  0  0  0  0  0  0  0  0  0  0
   59.9900   32.3920   46.9330 C   0  0  0  0  0  0  0  0  0  0  0  0
   61.1260   32.9190   47.6790 N   0  0  2  0  0  0  0  0  0  0  0  0
   61.8430   33.9590   46.8840 C   0  0  0  0  0  0  0  0  0  0  0  0
   63.2150   33.4880   46.3740 C   0  0  0  0  0  0  0  0  0  0  0  0
   64.0970   33.0600   47.4760 N   0  0  0  0  0  0  0  0  0  0  0  0
   63.3880   32.4240   48.6020 C   0  0  0  0  0  0  0  0  0  0  0  0
   62.0240   31.8360   48.1800 C   0  0  1  0  0  0  0  0  0  0  0  0
   61.3770   30.9840   49.3090 C   0  0  0  0  0  0  0  0  0  0  0  0
   60.3270   31.7050   50.1240 C   0  0  0  0  0  0  0  0  0  0  0  0
   60.6660   32.8430   50.8760 C   0  0  0  0  0  0  0  0  0  0  0  0
   59.6950   33.5080   51.6300 C   0  0  0  0  0  0  0  0  0  0  0  0
   58.3750   33.0510   51.6320 C   0  0  0  0  0  0  0  0  0  0  0  0
   57.4340   33.6980   52.3630 F   0  0  0  0  0  0  0  0  0  0  0  0
   58.0220   31.9340   50.8710 C   0  0  0  0  0  0  0  0  0  0  0  0
   58.9910   31.2660   50.1140 C   0  0  0  0  0  0  0  0  0  0  0  0
   60.0000   31.0560   46.4850 C   0  0  0  0  0  0  0  0  0  0  0  0
   58.9130   30.5270   45.7840 C   0  0  0  0  0  0  0  0  0  0  0  0
   57.9219   32.2341   43.3101 H   0  0  0  0  0  0  0  0  0  0  0  0
   58.1375   31.0309   41.9938 H   0  0  0  0  0  0  0  0  0  0  0  0
   56.7054   32.1151   41.9938 H   0  0  0  0  0  0  0  0  0  0  0  0
   55.5765   30.5037   43.0993 H   0  0  0  0  0  0  0  0  0  0  0  0
   57.0844   29.5295   43.2962 H   0  0  0  0  0  0  0  0  0  0  0  0
   56.8641   33.2606   45.8095 H   0  0  0  0  0  0  0  0  0  0  0  0
   58.7882   34.1996   47.0725 H   0  0  0  0  0  0  0  0  0  0  0  0
   60.7600   33.4190   48.5230 H   0  0  0  0  0  0  0  0  0  0  0  0
   61.2209   34.2282   46.0177 H   0  0  0  0  0  0  0  0  0  0  0  0
   62.0171   34.8181   47.5485 H   0  0  0  0  0  0  0  0  0  0  0  0
   63.0672   32.6409   45.6880 H   0  0  0  0  0  0  0  0  0  0  0  0
   63.6964   34.3347   45.8628 H   0  0  0  0  0  0  0  0  0  0  0  0
   64.7890   32.3780   47.0860 H   0  0  0  0  0  0  0  0  0  0  0  0
   64.0144   31.6127   49.0013 H   0  0  0  0  0  0  0  0  0  0  0  0
   63.2001   33.1978   49.3609 H   0  0  0  0  0  0  0  0  0  0  0  0
   62.1919   31.1363   47.3480 H   0  0  0  0  0  0  0  0  0  0  0  0
   60.9066   30.1036   48.8467 H   0  0  0  0  0  0  0  0  0  0  0  0
   62.1878   30.7264   50.0063 H   0  0  0  0  0  0  0  0  0  0  0  0
   61.7020   33.2126   50.8711 H   0  0  0  0  0  0  0  0  0  0  0  0
   59.9707   34.3926   52.2228 H   0  0  0  0  0  0  0  0  0  0  0  0
   56.9809   31.5790   50.8668 H   0  0  0  0  0  0  0  0  0  0  0  0
   58.7063   30.3932   49.5081 H   0  0  0  0  0  0  0  0  0  0  0  0
   60.8748   30.4213   46.6897 H   0  0  0  0  0  0  0  0  0  0  0  0
   58.9465   29.4875   45.4258 H   0  0  0  0  0  0  0  0  0  0  0  0
  1  2  1  0
  2  3  1  0
  3  4  1  0
  4  5  2  0
  5  6  1  0
  6  7  2  0
  7  8  1  0
  8  9  1  0
  9 10  1  0
 10 11  1  0
 11 12  1  0
 12 13  1  0
 13 14  1  0
 14 15  1  0
 15 16  2  0
 16 17  1  0
 17 18  2  0
 18 19  1  0
 18 20  1  0
 20 21  2  0
  7 22  1  0
 22 23  2  0
 23  4  1  0
 13  8  1  0
 21 15  1  0
  1 24  1  0
  1 25  1  0
  1 26  1  0
  2 27  1  0
  2 28  1  0
  5 29  1  0
  6 30  1  0
  8 31  1  1
  9 32  1  0
  9 33  1  0
 10 34  1  0
 10 35  1  0
 11 36  1  0
 12 37  1  0
 12 38  1  0
 13 39  1  6
 14 40  1  0
 14 41  1  0
 16 42  1  0
 17 43  1  0
 20 44  1  0
 21 45  1  0
 22 46  1  0
 23 47  1  0
M  CHG  1   8   1
M  END
>  <UniqueID>  (13) 
13

>  <SMILES>  (13) 
CCOc1ccc([N@@H+]2CCNC[C@H]2Cc2ccc(F)cc2)cc1

>  <Energy>  (13) 
61.47279402084049

>  <Genealogy>  (13) 
CCOc1ccc([NH+]2CCNCC2Cc2ccc(F)cc2)cc1 (protonated)
CCOc1ccc([N@@H+]2CCNC[C@H]2Cc2ccc(F)cc2)cc1 (chirality)
CCOc1ccc([N@@H+]2CCNC[C@H]2Cc2ccc(F)cc2)cc1 (3D coordinates assigned)
CCOc1ccc([N@@H+]2CCNC[C@H]2Cc2ccc(F)cc2)cc1 (nonaromatic ring conformer: 61.47279402084049 kcal/mol)

>  <smiles>  (13) 
CCOc1ccc(N2CCNCC2Cc2ccc(F)cc2)cc1

>  <score_type>  (13) 
oracle

>  <origin>  (13) 
adg

>  <m_score__min__energy>  (13) 
-5.71

>  <m_primary>  (13) 
energy

$$$$
13:0
     RDKit          3D

 36 39  0  0  0  0  0  0  0  0999 V2000
   58.2689   25.0066   45.8211 H   0  0  0  0  0  0  0  0  0  0  0  0
   57.8450   26.0080   45.6550 C   0  0  0  0  0  0  0  0  0  0  0  0
   58.6440   27.0340   45.2620 N   0  0  0  0  0  0  0  0  0  0  0  0
   58.1410   28.2780   45.0490 C   0  0  0  0  0  0  0  0  0  0  0  0
   58.8048   29.0979   44.7372 H   0  0  0  0  0  0  0  0  0  0  0  0
   56.7730   28.5090   45.2290 C   0  0  0  0  0  0  0  0  0  0  0  0
   56.2940   29.7060   45.0480 N   0  0  0  0  0  0  0  0  0  0  0  0
   56.7960   30.7100   44.1460 C   0  0  0  0  0  0  0  0  0  0  0  0
   56.5690   30.6190   42.7620 C   0  0  0  0  0  0  0  0  0  0  0  0
   55.9757   29.7870   42.3549 H   0  0  0  0  0  0  0  0  0  0  0  0
   57.0970   31.5850   41.9050 C   0  0  0  0  0  0  0  0  0  0  0  0
   56.9041   31.5224   40.8239 H   0  0  0  0  0  0  0  0  0  0  0  0
   57.8480   32.6020   42.4000 N   0  0  0  0  0  0  0  0  0  0  0  0
   58.1140   32.7140   43.7280 C   0  0  0  0  0  0  0  0  0  0  0  0
   58.9020   33.7700   44.1900 C   0  0  0  0  0  0  0  0  0  0  0  0
   59.2994   34.5086   43.4782 H   0  0  0  0  0  0  0  0  0  0  0  0
   59.1880   33.8930   45.5510 C   0  0  0  0  0  0  0  0  0  0  0  0
   59.8101   34.7288   45.9038 H   0  0  0  0  0  0  0  0  0  0  0  0
   58.6880   32.9580   46.4750 C   0  0  0  0  0  0  0  0  0  0  0  0
   58.9910   33.0940   47.9220 C   0  0  0  0  0  0  0  0  0  0  0  0
   59.7790   34.1640   48.3900 C   0  0  0  0  0  0  0  0  0  0  0  0
   60.1717   34.9056   47.6788 H   0  0  0  0  0  0  0  0  0  0  0  0
   60.0650   34.2890   49.7530 C   0  0  0  0  0  0  0  0  0  0  0  0
   60.6833   35.1260   50.1096 H   0  0  0  0  0  0  0  0  0  0  0  0
   59.5670   33.3530   50.6630 C   0  0  0  0  0  0  0  0  0  0  0  0
   59.8450   33.4780   51.9850 F   0  0  0  0  0  0  0  0  0  0  0  0
   58.7840   32.2880   50.2110 C   0  0  0  0  0  0  0  0  0  0  0  0
   58.3932   31.5510   50.9280 H   0  0  0  0  0  0  0  0  0  0  0  0
   58.4960   32.1570   48.8490 C   0  0  0  0  0  0  0  0  0  0  0  0
   57.8786   31.3164   48.4995 H   0  0  0  0  0  0  0  0  0  0  0  0
   57.8940   31.8940   46.0090 C   0  0  0  0  0  0  0  0  0  0  0  0
   57.4984   31.1574   46.7238 H   0  0  0  0  0  0  0  0  0  0  0  0
   57.6000   31.7610   44.6390 C   0  0  0  0  0  0  0  0  0  0  0  0
   55.9780   27.4790   45.6340 N   0  0  0  0  0  0  0  0  0  0  0  0
   56.4820   26.2360   45.8460 C   0  0  0  0  0  0  0  0  0  0  0  0
   55.8216   25.4164   46.1654 H   0  0  0  0  0  0  0  0  0  0  0  0
  1  2  1  0
  2  3  1  0
  3  4  2  0
  4  5  1  0
  4  6  1  0
  6  7  2  0
  7  8  1  0
  8  9  2  0
  9 10  1  0
  9 11  1  0
 11 12  1  0
 11 13  2  0
 13 14  1  0
 14 15  2  0
 15 16  1  0
 15 17  1  0
 17 18  1  0
 17 19  2  0
 19 20  1  0
 20 21  2  0
 21 22  1  0
 21 23  1  0
 23 24  1  0
 23 25  2  0
 25 26  1  0
 25 27  1  0
 27 28  1  0
 27 29  2  0
 29 30  1  0
 19 31  1  0
 31 32  1  0
 31 33  2  0
  6 34  1  0
 34 35  1  0
 35 36  1  0
 35  2  2  0
 33  8  1  0
 33 14  1  0
 29 20  1  0
M  CHG  1  34  -1
M  END
>  <UniqueID>  (14) 
14

>  <SMILES>  (14) 
Fc1ccc(-c2ccc3nccc(/N=c4/cncc[n-]4)c3c2)cc1

>  <Energy>  (14) 
59.27649867433194

>  <Genealogy>  (14) 
Fc1ccc(-c2ccc3nccc(N=c4cncc[n-]4)c3c2)cc1 (protonated)
Fc1ccc(-c2ccc3nccc(/N=c4/cncc[n-]4)c3c2)cc1 (cis-trans isomerization)
Fc1ccc(-c2ccc3nccc(/N=c4/cncc[n-]4)c3c2)cc1 (3D coordinates assigned)
Fc1ccc(-c2ccc3nccc(/N=c4/cncc[n-]4)c3c2)cc1 (optimized conformer: 59.27649867433194 kcal/mol)

>  <smiles>  (14) 
Fc1ccc(-c2ccc3nccc(N=c4cncc[nH]4)c3c2)cc1

>  <score_type>  (14) 
oracle

>  <origin>  (14) 
adg

>  <m_score__min__energy>  (14) 
-9.8699999999999992

>  <m_primary>  (14) 
energy

$$$$
14:0
     RDKit          3D

 47 49  0  0  0  0  0  0  0  0999 V2000
   58.6320   29.9040   46.4540 C   0  0  0  0  0  0  0  0  0  0  0  0
   58.2450   30.2610   45.0190 C   0  0  0  0  0  0  0  0  0  0  0  0
   57.0260   30.9640   44.8990 N   0  0  0  0  0  0  0  0  0  0  0  0
   55.9850   30.3650   44.1390 C   0  0  0  0  0  0  0  0  0  0  0  0
   56.4290   29.7070   42.8750 C   0  0  0  0  0  0  0  0  0  0  0  0
   57.0350   32.3710   44.9240 C   0  0  0  0  0  0  0  0  0  0  0  0
   58.2040   33.1410   44.4690 C   0  0  0  0  0  0  0  0  0  0  0  0
   58.6830   34.2780   45.2790 C   0  0  0  0  0  0  0  0  0  0  0  0
   59.7870   33.8300   46.1530 N   0  0  0  0  0  0  0  0  0  0  0  0
   61.0870   33.9180   45.8320 N   0  0  0  0  0  0  0  0  0  0  0  0
   61.8450   33.4300   46.7830 N   0  0  0  0  0  0  0  0  0  0  0  0
   63.2990   33.3490   46.7860 C   0  0  0  0  0  0  0  0  0  0  0  0
   61.0340   33.0100   47.7560 C   0  0  0  0  0  0  0  0  0  0  0  0
   59.7150   33.2650   47.3600 C   0  0  0  0  0  0  0  0  0  0  0  0
   58.5850   32.9200   48.2040 C   0  0  0  0  0  0  0  0  0  0  0  0
   57.4120   33.1590   47.8250 O   0  0  0  0  0  0  0  0  0  0  0  0
   58.8790   32.2920   49.4920 C   0  0  0  0  0  0  0  0  0  0  0  0
   57.8260   31.9610   50.2870 C   0  0  0  0  0  0  0  0  0  0  0  0
   58.0270   31.3700   51.4970 C   0  0  0  0  0  0  0  0  0  0  0  0
   59.3130   31.1000   51.9280 C   0  0  0  0  0  0  0  0  0  0  0  0
   60.3940   31.4280   51.1380 C   0  0  0  0  0  0  0  0  0  0  0  0
   60.1510   32.0240   49.9190 C   0  0  0  0  0  0  0  0  0  0  0  0
   61.2630   32.3870   49.0400 C   0  0  0  0  0  0  0  0  0  0  0  0
   62.4230   32.1410   49.4340 O   0  0  0  0  0  0  0  0  0  0  0  0
   58.0092   30.4785   47.1555 H   0  0  0  0  0  0  0  0  0  0  0  0
   58.4737   28.8281   46.6196 H   0  0  0  0  0  0  0  0  0  0  0  0
   59.6916   30.1484   46.6196 H   0  0  0  0  0  0  0  0  0  0  0  0
   59.0446   30.8844   44.5924 H   0  0  0  0  0  0  0  0  0  0  0  0
   58.1110   29.3087   44.4849 H   0  0  0  0  0  0  0  0  0  0  0  0
   55.4973   29.6049   44.7670 H   0  0  0  0  0  0  0  0  0  0  0  0
   55.3108   31.1817   43.8416 H   0  0  0  0  0  0  0  0  0  0  0  0
   57.0293   28.8173   43.1160 H   0  0  0  0  0  0  0  0  0  0  0  0
   55.5479   29.4070   42.2887 H   0  0  0  0  0  0  0  0  0  0  0  0
   57.0370   30.4117   42.2887 H   0  0  0  0  0  0  0  0  0  0  0  0
   56.1876   32.6978   44.3035 H   0  0  0  0  0  0  0  0  0  0  0  0
   57.0139   32.5883   46.0021 H   0  0  0  0  0  0  0  0  0  0  0  0
   59.0412   32.4325   44.3847 H   0  0  0  0  0  0  0  0  0  0  0  0
   57.8569   33.6137   43.5384 H   0  0  0  0  0  0  0  0  0  0  0  0
   59.0432   35.0763   44.6134 H   0  0  0  0  0  0  0  0  0  0  0  0
   57.8579   34.6606   45.8977 H   0  0  0  0  0  0  0  0  0  0  0  0
   63.6630   33.3287   47.8238 H   0  0  0  0  0  0  0  0  0  0  0  0
   63.6162   32.4318   46.2682 H   0  0  0  0  0  0  0  0  0  0  0  0
   63.7161   34.2253   46.2682 H   0  0  0  0  0  0  0  0  0  0  0  0
   56.8010   32.1731   49.9487 H   0  0  0  0  0  0  0  0  0  0  0  0
   57.1673   31.1076   52.1311 H   0  0  0  0  0  0  0  0  0  0  0  0
   59.4740   30.6215   52.9053 H   0  0  0  0  0  0  0  0  0  0  0  0
   61.4216   31.2200   51.4710 H   0  0  0  0  0  0  0  0  0  0  0  0
  1  2  1  0
  2  3  1  0
  3  4  1  0
  4  5  1  0
  3  6  1  0
  6  7  1  0
  7  8  1  0
  8  9  1  0
  9 10  1  0
 10 11  2  0
 11 12  1  0
 11 13  1  0
 13 14  2  0
 14 15  1  0
 15 16  2  0
 15 17  1  0
 17 18  2  0
 18 19  1  0
 19 20  2  0
 20 21  1  0
 21 22  2  0
 22 23  1  0
 23 24  2  0
 14  9  1  0
 22 17  1  0
 23 13  1  0
  1 25  1  0
  1 26  1  0
  1 27  1  0
  2 28  1  0
  2 29  1  0
  4 30  1  0
  4 31  1  0
  5 32  1  0
  5 33  1  0
  5 34  1  0
  6 35  1  0
  6 36  1  0
  7 37  1  0
  7 38  1  0
  8 39  1  0
  8 40  1  0
 12 41  1  0
 12 42  1  0
 12 43  1  0
 18 44  1  0
 19 45  1  0
 20 46  1  0
 21 47  1  0
M  CHG  1  11   1
M  END
>  <smiles>  (15) 
CCN(CC)CCCn1n[n+](C)c2c1C(=O)c1ccccc1C2=O

>  <score_type>  (15) 
oracle

>  <origin>  (15) 
adg

>  <m_score__min__energy>  (15) 
-5.9000000000000004

>  <m_primary>  (15) 
energy

$$$$
15:0
     RDKit          3D

 69 74  0  0  0  0  0  0  0  0999 V2000
   57.2930   25.3660   44.2110 C   0  0  0  0  0  0  0  0  0  0  0  0
   57.5070   25.4150   45.7410 C   0  0  2  0  0  0  0  0  0  0  0  0
   56.2170   25.6820   46.4740 C   0  0  0  0  0  0  0  0  0  0  0  0
   55.8930   25.0100   47.4910 O   0  0  0  0  0  0  0  0  0  0  0  0
   55.3450   26.6520   45.9960 O   0  0  0  0  0  0  0  0  0  0  0  0
   58.6640   26.3160   46.2920 C   0  0  1  0  0  0  0  0  0  0  0  0
   60.0650   25.6790   46.2090 C   0  0  0  0  0  0  0  0  0  0  0  0
   61.0660   26.8100   45.9890 C   0  0  0  0  0  0  0  0  0  0  0  0
   60.3030   28.1300   46.1420 C   0  0  2  0  0  0  0  0  0  0  0  0
   60.5480   28.8610   47.5030 C   0  0  2  0  0  0  0  0  0  0  0  0
   60.3960   27.9860   48.7780 C   0  0  0  0  0  0  0  0  0  0  0  0
   60.8390   28.7350   50.0550 C   0  0  0  0  0  0  0  0  0  0  0  0
   60.7180   30.2360   49.8950 C   0  0  0  0  0  0  0  0  0  0  0  0
   61.7790   31.0050   50.2170 C   0  0  0  0  0  0  0  0  0  0  0  0
   61.8170   32.4030   49.7890 C   0  0  0  0  0  0  0  0  0  0  0  0
   60.7770   32.9770   49.1250 C   0  0  0  0  0  0  0  0  0  0  0  0
   61.1890   34.2550   48.8100 C   0  0  0  0  0  0  0  0  0  0  0  0
   62.4590   34.4000   49.2460 N   0  0  0  0  0  0  0  0  0  0  0  0
   62.8430   33.2800   49.8460 N   0  0  0  0  0  0  0  0  0  0  0  0
   64.1360   33.0920   50.4410 C   0  0  0  0  0  0  0  0  0  0  0  0
   64.4830   33.7520   51.6320 C   0  0  0  0  0  0  0  0  0  0  0  0
   65.7530   33.5750   52.1920 C   0  0  0  0  0  0  0  0  0  0  0  0
   66.6870   32.7480   51.5630 C   0  0  0  0  0  0  0  0  0  0  0  0
   66.3550   32.1010   50.3690 C   0  0  0  0  0  0  0  0  0  0  0  0
   65.0880   32.2750   49.8070 C   0  0  0  0  0  0  0  0  0  0  0  0
   59.4380   32.3370   49.0170 C   0  0  0  0  0  0  0  0  0  0  0  0
   59.5290   30.7630   49.0580 C   0  0  2  0  0  0  0  0  0  0  0  0
   58.2170   30.2750   49.7400 C   0  0  0  0  0  0  0  0  0  0  0  0
   59.7230   30.2010   47.5880 C   0  0  2  0  0  0  0  0  0  0  0  0
   58.4280   30.1750   46.7250 C   0  0  0  0  0  0  0  0  0  0  0  0
   57.8410   28.7630   46.5850 C   0  0  0  0  0  0  0  0  0  0  0  0
   58.8130   27.8030   45.8270 C   0  0  2  0  0  0  0  0  0  0  0  0
   58.5960   27.9690   44.3020 C   0  0  0  0  0  0  0  0  0  0  0  0
   56.2416   25.1252   43.9954 H   0  0  0  0  0  0  0  0  0  0  0  0
   57.5421   26.3444   43.7744 H   0  0  0  0  0  0  0  0  0  0  0  0
   57.9430   24.5935   43.7744 H   0  0  0  0  0  0  0  0  0  0  0  0
   57.8677   24.3982   45.9554 H   0  0  0  0  0  0  0  0  0  0  0  0
   58.2755   26.3721   47.3196 H   0  0  0  0  0  0  0  0  0  0  0  0
   60.2942   25.1505   47.1461 H   0  0  0  0  0  0  0  0  0  0  0  0
   60.1134   24.9508   45.3860 H   0  0  0  0  0  0  0  0  0  0  0  0
   61.8705   26.7514   46.7369 H   0  0  0  0  0  0  0  0  0  0  0  0
   61.5224   26.7374   44.9908 H   0  0  0  0  0  0  0  0  0  0  0  0
   60.6795   28.8830   45.4339 H   0  0  0  0  0  0  0  0  0  0  0  0
   61.6196   29.1092   47.4969 H   0  0  0  0  0  0  0  0  0  0  0  0
   59.3403   27.6963   48.8853 H   0  0  0  0  0  0  0  0  0  0  0  0
   61.0429   27.1039   48.6618 H   0  0  0  0  0  0  0  0  0  0  0  0
   60.2050   28.4138   50.8946 H   0  0  0  0  0  0  0  0  0  0  0  0
   61.8956   28.4946   50.2441 H   0  0  0  0  0  0  0  0  0  0  0  0
   62.6115   30.5824   50.7987 H   0  0  0  0  0  0  0  0  0  0  0  0
   60.5896   35.0203   48.2951 H   0  0  0  0  0  0  0  0  0  0  0  0
   63.0390   35.2640   49.1590 H   0  0  0  0  0  0  0  0  0  0  0  0
   63.7533   34.4104   52.1261 H   0  0  0  0  0  0  0  0  0  0  0  0
   66.0164   34.0877   53.1289 H   0  0  0  0  0  0  0  0  0  0  0  0
   67.6833   32.6060   52.0071 H   0  0  0  0  0  0  0  0  0  0  0  0
   67.0925   31.4540   49.8714 H   0  0  0  0  0  0  0  0  0  0  0  0
   64.8340   31.7700   48.8634 H   0  0  0  0  0  0  0  0  0  0  0  0
   58.8129   32.6783   49.8553 H   0  0  0  0  0  0  0  0  0  0  0  0
   59.0007   32.6264   48.0501 H   0  0  0  0  0  0  0  0  0  0  0  0
   58.3338   30.3184   50.8329 H   0  0  0  0  0  0  0  0  0  0  0  0
   57.3821   30.9227   49.4344 H   0  0  0  0  0  0  0  0  0  0  0  0
   58.0083   29.2391   49.4344 H   0  0  0  0  0  0  0  0  0  0  0  0
   60.3621   30.9614   47.1154 H   0  0  0  0  0  0  0  0  0  0  0  0
   57.6762   30.8240   47.1979 H   0  0  0  0  0  0  0  0  0  0  0  0
   58.6917   30.5280   45.7171 H   0  0  0  0  0  0  0  0  0  0  0  0
   57.6494   28.3559   47.5888 H   0  0  0  0  0  0  0  0  0  0  0  0
   56.9101   28.8359   46.0036 H   0  0  0  0  0  0  0  0  0  0  0  0
   57.7338   28.6285   44.1240 H   0  0  0  0  0  0  0  0  0  0  0  0
   59.4957   28.4115   43.8496 H   0  0  0  0  0  0  0  0  0  0  0  0
   58.4043   26.9848   43.8496 H   0  0  0  0  0  0  0  0  0  0  0  0
  1  2  1  0
  2  3  1  0
  3  4  2  0
  3  5  1  0
  2  6  1  0
  6  7  1  0
  7  8  1  0
  8  9  1  0
  9 10  1  0
 10 11  1  0
 11 12  1  0
 12 13  1  0
 13 14  2  0
 14 15  1  0
 15 16  2  0
 16 17  1  0
 17 18  2  0
 18 19  1  0
 19 20  1  0
 20 21  2  0
 21 22  1  0
 22 23  2  0
 23 24  1  0
 24 25  2  0
 16 26  1  0
 26 27  1  0
 27 28  1  1
 27 29  1  0
 29 30  1  0
 30 31  1  0
 31 32  1  0
 32 33  1  6
 32  6  1  0
 32  9  1  0
 29 10  1  0
 27 13  1  0
 19 15  1  0
 25 20  1  0
  1 34  1  0
  1 35  1  0
  1 36  1  0
  2 37  1  1
  6 38  1  1
  7 39  1  0
  7 40  1  0
  8 41  1  0
  8 42  1  0
  9 43  1  6
 10 44  1  6
 11 45  1  0
 11 46  1  0
 12 47  1  0
 12 48  1  0
 14 49  1  0
 17 50  1  0
 18 51  1  0
 21 52  1  0
 22 53  1  0
 23 54  1  0
 24 55  1  0
 25 56  1  0
 26 57  1  0
 26 58  1  0
 28 59  1  0
 28 60  1  0
 28 61  1  0
 29 62  1  6
 30 63  1  0
 30 64  1  0
 31 65  1  0
 31 66  1  0
 33 67  1  0
 33 68  1  0
 33 69  1  0
M  CHG  2   5  -1  18   1
M  END
>  <UniqueID>  (16) 
15

>  <SMILES>  (16) 
C[C@H](C(=O)[O-])[C@H]1CCC2C3CCC4=Cc5c(c[nH+]n5-c5ccccc5)CC4(C)C3CCC21C

>  <Energy>  (16) 
154.4920270973991

>  <Genealogy>  (16) 
CC(C(=O)[O-])C1CCC2C3CCC4=Cc5c(c[nH+]n5-c5ccccc5)CC4(C)C3CCC12C (protonated)
C[C@H](C(=O)[O-])[C@H]1CCC2C3CCC4=Cc5c(c[nH+]n5-c5ccccc5)CC4(C)C3CCC21C (chirality)
C[C@H](C(=O)[O-])[C@H]1CCC2C3CCC4=Cc5c(c[nH+]n5-c5ccccc5)CC4(C)C3CCC21C (3D coordinates assigned)
C[C@H](C(=O)[O-])[C@H]1CCC2C3CCC4=Cc5c(c[nH+]n5-c5ccccc5)CC4(C)C3CCC21C (nonaromatic ring conformer: 154.4920270973991 kcal/mol)

>  <smiles>  (16) 
CC(C(=O)O)C1CCC2C3CCC4=Cc5c(cnn5-c5ccccc5)CC4(C)C3CCC12C

>  <score_type>  (16) 
oracle

>  <origin>  (16) 
adg

>  <m_score__min__energy>  (16) 
-12

>  <m_primary>  (16) 
energy

$$$$
16:0
     RDKit          3D

 30 32  0  0  0  0  0  0  0  0999 V2000
   58.8089   33.9947   50.6467 H   0  0  0  0  0  0  0  0  0  0  0  0
   59.2370   33.0770   50.2170 C   0  0  0  0  0  0  0  0  0  0  0  0
   58.4390   31.9410   50.0620 C   0  0  0  0  0  0  0  0  0  0  0  0
   57.3808   31.9676   50.3613 H   0  0  0  0  0  0  0  0  0  0  0  0
   58.9840   30.7710   49.5270 C   0  0  0  0  0  0  0  0  0  0  0  0
   58.3493   29.8825   49.3939 H   0  0  0  0  0  0  0  0  0  0  0  0
   60.3360   30.7240   49.1590 C   0  0  0  0  0  0  0  0  0  0  0  0
   60.8600   29.5080   48.6170 N   0  0  0  0  0  0  0  0  0  0  0  0
   60.0470   28.4010   48.2210 C   0  0  0  0  0  0  0  0  0  0  0  0
   59.8870   27.4430   49.0240 O   0  0  0  0  0  0  0  0  0  0  0  0
   59.3990   28.4020   46.9370 N   0  0  0  0  0  0  0  0  0  0  0  0
   58.1480   28.5620   46.7270 N   0  0  0  0  0  0  0  0  0  0  0  0
   57.5730   29.5530   45.8650 C   0  0  0  0  0  0  0  0  0  0  0  0
   56.3380   29.4730   45.2460 C   0  0  0  0  0  0  0  0  0  0  0  0
   55.5190   28.3520   45.2530 O   0  0  0  0  0  0  0  0  0  0  0  0
   56.0070   30.6300   44.6260 N   0  0  0  0  0  0  0  0  0  0  0  0
   57.0420   31.4540   44.8930 C   0  0  0  0  0  0  0  0  0  0  0  0
   57.1580   32.7890   44.5110 C   0  0  0  0  0  0  0  0  0  0  0  0
   56.3879   33.2686   43.8890 H   0  0  0  0  0  0  0  0  0  0  0  0
   58.2890   33.5060   44.9440 C   0  0  0  0  0  0  0  0  0  0  0  0
   58.4142   34.5585   44.6499 H   0  0  0  0  0  0  0  0  0  0  0  0
   59.2660   32.8820   45.7550 C   0  0  0  0  0  0  0  0  0  0  0  0
   60.7820   33.8770   46.3520 Br  0  0  0  0  0  0  0  0  0  0  0  0
   59.1220   31.5340   46.1320 C   0  0  0  0  0  0  0  0  0  0  0  0
   59.8651   31.0415   46.7764 H   0  0  0  0  0  0  0  0  0  0  0  0
   58.0050   30.8430   45.6610 C   0  0  0  0  0  0  0  0  0  0  0  0
   61.1330   31.8800   49.2910 C   0  0  0  0  0  0  0  0  0  0  0  0
   62.9470   31.9360   48.6720 Br  0  0  0  0  0  0  0  0  0  0  0  0
   60.5780   33.0490   49.8270 C   0  0  0  0  0  0  0  0  0  0  0  0
   61.2006   33.9486   49.9413 H   0  0  0  0  0  0  0  0  0  0  0  0
  1  2  1  0
  2  3  2  0
  3  4  1  0
  3  5  1  0
  5  6  1  0
  5  7  2  0
  7  8  1  0
  8  9  1  0
  9 10  2  0
  9 11  1  0
 11 12  2  0
 12 13  1  0
 13 14  2  0
 14 15  1  0
 14 16  1  0
 16 17  1  0
 17 18  2  0
 18 19  1  0
 18 20  1  0
 20 21  1  0
 20 22  2  0
 22 23  1  0
 22 24  1  0
 24 25  1  0
 24 26  2  0
  7 27  1  0
 27 28  1  0
 27 29  2  0
 29 30  1  0
 29  2  1  0
 26 13  1  0
 26 17  1  0
M  CHG  3   8  -1  15  -1  16  -1
M  END
>  <UniqueID>  (17) 
16

>  <SMILES>  (17) 
O=C(/N=N\c1c([O-])[n-]c2ccc(Br)cc12)[N-]c1ccccc1Br

>  <Energy>  (17) 
85.08688384665975

>  <Genealogy>  (17) 
O=C(N=Nc1c([O-])[n-]c2ccc(Br)cc12)[N-]c1ccccc1Br (protonated)
O=C(/N=N\c1c([O-])[n-]c2ccc(Br)cc12)[N-]c1ccccc1Br (cis-trans isomerization)
O=C(/N=N\c1c([O-])[n-]c2ccc(Br)cc12)[N-]c1ccccc1Br (3D coordinates assigned)
O=C(/N=N\c1c([O-])[n-]c2ccc(Br)cc12)[N-]c1ccccc1Br (optimized conformer: 85.08688384665975 kcal/mol)

>  <smiles>  (17) 
O=C(N=Nc1c(O)[nH]c2ccc(Br)cc12)Nc1ccccc1Br

>  <score_type>  (17) 
oracle

>  <origin>  (17) 
adg

>  <m_score__min__energy>  (17) 
-14.800000000000001

>  <m_primary>  (17) 
energy

$$$$
17:0
     RDKit          3D

 32 34  0  0  0  0  0  0  0  0999 V2000
   62.9620   31.7110   49.1340 C   0  0  0  0  0  0  0  0  0  0  0  0
   61.8000   30.9850   48.5440 C   0  0  0  0  0  0  0  0  0  0  0  0
   61.2740   29.8530   49.0750 N   0  0  0  0  0  0  0  0  0  0  0  0
   60.2700   29.3590   48.3060 C   0  0  0  0  0  0  0  0  0  0  0  0
   59.5360   28.2070   48.5950 C   0  0  0  0  0  0  0  0  0  0  0  0
   58.5280   27.8070   47.7010 C   0  0  0  0  0  0  0  0  0  0  0  0
   58.2640   28.5540   46.5320 C   0  0  0  0  0  0  0  0  0  0  0  0
   57.0150   28.0160   45.4150 S   0  0  0  0  0  0  0  0  0  0  0  0
   56.0630   27.0720   46.0960 O   0  0  0  0  0  0  0  0  0  0  0  0
   57.6670   27.3070   44.2620 O   0  0  0  0  0  0  0  0  0  0  0  0
   56.1280   29.3800   44.8160 N   0  0  0  0  0  0  0  0  0  0  0  0
   56.7080   30.5190   44.1650 C   0  0  0  0  0  0  0  0  0  0  0  0
   56.8020   30.5150   42.7670 C   0  0  0  0  0  0  0  0  0  0  0  0
   57.3710   31.6000   42.0930 C   0  0  0  0  0  0  0  0  0  0  0  0
   57.8490   32.6980   42.8120 C   0  0  0  0  0  0  0  0  0  0  0  0
   57.7560   32.7140   44.2060 C   0  0  0  0  0  0  0  0  0  0  0  0
   58.4100   34.2150   45.1900 Br  0  0  0  0  0  0  0  0  0  0  0  0
   57.1850   31.6310   44.8830 C   0  0  0  0  0  0  0  0  0  0  0  0
   59.0100   29.7150   46.2570 C   0  0  0  0  0  0  0  0  0  0  0  0
   60.0020   30.0900   47.1590 C   0  0  0  0  0  0  0  0  0  0  0  0
   61.0510   31.4010   47.0820 S   0  0  0  0  0  0  0  0  0  0  0  0
   62.8998   31.6721   50.2315 H   0  0  0  0  0  0  0  0  0  0  0  0
   63.8974   31.2364   48.8027 H   0  0  0  0  0  0  0  0  0  0  0  0
   62.9456   32.7598   48.8027 H   0  0  0  0  0  0  0  0  0  0  0  0
   61.6070   29.4120   49.9600 H   0  0  0  0  0  0  0  0  0  0  0  0
   59.7426   27.6239   49.5046 H   0  0  0  0  0  0  0  0  0  0  0  0
   57.9387   26.9029   47.9140 H   0  0  0  0  0  0  0  0  0  0  0  0
   56.4259   29.6531   42.1963 H   0  0  0  0  0  0  0  0  0  0  0  0
   57.4423   31.5888   40.9954 H   0  0  0  0  0  0  0  0  0  0  0  0
   58.2986   33.5499   42.2808 H   0  0  0  0  0  0  0  0  0  0  0  0
   57.1087   31.6489   45.9802 H   0  0  0  0  0  0  0  0  0  0  0  0
   58.8145   30.3106   45.3531 H   0  0  0  0  0  0  0  0  0  0  0  0
  1  2  1  0
  2  3  2  0
  3  4  1  0
  4  5  2  0
  5  6  1  0
  6  7  2  0
  7  8  1  0
  8  9  2  0
  8 10  2  0
  8 11  1  0
 11 12  1  0
 12 13  2  0
 13 14  1  0
 14 15  2  0
 15 16  1  0
 16 17  1  0
 16 18  2  0
  7 19  1  0
 19 20  2  0
 20 21  1  0
 21  2  1  0
 20  4  1  0
 18 12  1  0
  1 22  1  0
  1 23  1  0
  1 24  1  0
  3 25  1  0
  5 26  1  0
  6 27  1  0
 13 28  1  0
 14 29  1  0
 15 30  1  0
 18 31  1  0
 19 32  1  0
M  CHG  2   3   1  11  -1
M  END
>  <UniqueID>  (18) 
17

>  <SMILES>  (18) 
Cc1[nH+]c2ccc(S(=O)(=O)[N-]c3cccc(Br)c3)cc2s1

>  <Energy>  (18) 
69.56606821214592

>  <Genealogy>  (18) 
Cc1[nH+]c2ccc(S(=O)(=O)[N-]c3cccc(Br)c3)cc2s1 (protonated)
Cc1[nH+]c2ccc(S(=O)(=O)[N-]c3cccc(Br)c3)cc2s1 (3D coordinates assigned)
Cc1[nH+]c2ccc(S(=O)(=O)[N-]c3cccc(Br)c3)cc2s1 (optimized conformer: 69.56606821214592 kcal/mol)

>  <smiles>  (18) 
Cc1nc2ccc(S(=O)(=O)Nc3cccc(Br)c3)cc2s1

>  <score_type>  (18) 
oracle

>  <origin>  (18) 
adg

>  <m_score__min__energy>  (18) 
-8.1300000000000008

>  <m_primary>  (18) 
energy

$$$$
18:0
     RDKit          3D

 36 38  0  0  0  0  0  0  0  0999 V2000
   58.4670   22.8780   45.6210 C   0  0  0  0  0  0  0  0  0  0  0  0
   58.1290   24.3270   45.7230 C   0  0  0  0  0  0  0  0  0  0  0  0
   59.1230   25.2540   45.7490 N   0  0  0  0  0  0  0  0  0  0  0  0
   58.8380   26.5790   45.8240 C   0  0  0  0  0  0  0  0  0  0  0  0
   57.4960   26.9900   45.8920 C   0  0  0  0  0  0  0  0  0  0  0  0
   56.5090   25.9910   45.8370 C   0  0  0  0  0  0  0  0  0  0  0  0
   55.2860   26.2910   45.8590 O   0  0  0  0  0  0  0  0  0  0  0  0
   56.8590   24.7120   45.7590 O   0  0  0  0  0  0  0  0  0  0  0  0
   57.1570   28.4580   45.9390 C   0  0  0  0  0  0  0  0  0  0  0  0
   57.6240   29.2010   44.6730 C   0  0  0  0  0  0  0  0  0  0  0  0
   59.0300   29.6880   44.7290 N   0  0  1  0  0  0  0  0  0  0  0  0
   59.2420   30.5570   45.9170 C   0  0  0  0  0  0  0  0  0  0  0  0
   58.6960   31.9590   45.7670 C   0  0  0  0  0  0  0  0  0  0  0  0
   58.7360   32.9140   46.7960 C   0  0  0  0  0  0  0  0  0  0  0  0
   58.1700   34.1320   46.4480 C   0  0  0  0  0  0  0  0  0  0  0  0
   57.6110   34.0140   44.8680 S   0  0  0  0  0  0  0  0  0  0  0  0
   58.0810   32.4220   44.6070 C   0  0  0  0  0  0  0  0  0  0  0  0
   60.0300   28.5870   44.6700 C   0  0  0  0  0  0  0  0  0  0  0  0
   59.9710   27.5760   45.8560 C   0  0  0  0  0  0  0  0  0  0  0  0
   58.5662   22.4527   46.6306 H   0  0  0  0  0  0  0  0  0  0  0  0
   57.6674   22.3523   45.0786 H   0  0  0  0  0  0  0  0  0  0  0  0
   59.4167   22.7603   45.0786 H   0  0  0  0  0  0  0  0  0  0  0  0
   56.0665   28.5674   46.0326 H   0  0  0  0  0  0  0  0  0  0  0  0
   57.6777   28.8986   46.8020 H   0  0  0  0  0  0  0  0  0  0  0  0
   57.5312   28.5154   43.8178 H   0  0  0  0  0  0  0  0  0  0  0  0
   56.9865   30.0925   44.5791 H   0  0  0  0  0  0  0  0  0  0  0  0
   59.1890   30.3290   43.9160 H   0  0  0  0  0  0  0  0  0  0  0  0
   58.7498   30.0861   46.7807 H   0  0  0  0  0  0  0  0  0  0  0  0
   60.3300   30.6545   46.0462 H   0  0  0  0  0  0  0  0  0  0  0  0
   59.1748   32.7150   47.7849 H   0  0  0  0  0  0  0  0  0  0  0  0
   58.0996   35.0198   47.0937 H   0  0  0  0  0  0  0  0  0  0  0  0
   57.9294   31.8466   43.6819 H   0  0  0  0  0  0  0  0  0  0  0  0
   59.8666   28.0278   43.7370 H   0  0  0  0  0  0  0  0  0  0  0  0
   61.0181   29.0671   44.7254 H   0  0  0  0  0  0  0  0  0  0  0  0
   60.9151   27.0115   45.8635 H   0  0  0  0  0  0  0  0  0  0  0  0
   59.8020   28.1860   46.7556 H   0  0  0  0  0  0  0  0  0  0  0  0
  1  2  1  0
  2  3  2  0
  3  4  1  0
  4  5  2  0
  5  6  1  0
  6  7  2  0
  6  8  1  0
  5  9  1  0
  9 10  1  0
 10 11  1  0
 11 12  1  0
 12 13  1  0
 13 14  1  0
 14 15  2  0
 15 16  1  0
 16 17  1  0
 11 18  1  0
 18 19  1  0
  8  2  1  0
 17 13  2  0
 19  4  1  0
  1 20  1  0
  1 21  1  0
  1 22  1  0
  9 23  1  0
  9 24  1  0
 10 25  1  0
 10 26  1  0
 11 27  1  6
 12 28  1  0
 12 29  1  0
 14 30  1  0
 15 31  1  0
 17 32  1  0
 18 33  1  0
 18 34  1  0
 19 35  1  0
 19 36  1  0
M  CHG  1  11   1
M  END
>  <UniqueID>  (19) 
18

>  <SMILES>  (19) 
Cc1nc2c(c(=O)o1)CC[N@@H+](Cc1ccsc1)CC2

>  <Energy>  (19) 
78.74504034893815

>  <Genealogy>  (19) 
Cc1nc2c(c(=O)o1)CC[NH+](Cc1ccsc1)CC2 (protonated)
Cc1nc2c(c(=O)o1)CC[N@@H+](Cc1ccsc1)CC2 (chirality)
Cc1nc2c(c(=O)o1)CC[N@@H+](Cc1ccsc1)CC2 (3D coordinates assigned)
Cc1nc2c(c(=O)o1)CC[N@@H+](Cc1ccsc1)CC2 (nonaromatic ring conformer: 78.74504034893815 kcal/mol)

>  <smiles>  (19) 
Cc1nc2c(c(=O)o1)CCN(Cc1ccsc1)CC2

>  <score_type>  (19) 
oracle

>  <origin>  (19) 
adg

>  <m_score__min__energy>  (19) 
-3.6499999999999999

>  <m_primary>  (19) 
energy

$$$$
19:0
     RDKit          3D

 28 30  0  0  0  0  0  0  0  0999 V2000
   55.3040   29.7280   43.7440 C   0  0  0  0  0  0  0  0  0  0  0  0
   55.5290   28.8830   44.8670 O   0  0  0  0  0  0  0  0  0  0  0  0
   56.8000   28.5370   45.3470 C   0  0  0  0  0  0  0  0  0  0  0  0
   57.2260   27.1970   45.5190 C   0  0  0  0  0  0  0  0  0  0  0  0
   58.5230   26.9150   46.0080 C   0  0  0  0  0  0  0  0  0  0  0  0
   59.4080   27.9600   46.3290 C   0  0  0  0  0  0  0  0  0  0  0  0
   58.9570   29.2620   46.1470 C   0  0  0  0  0  0  0  0  0  0  0  0
   59.5830   30.3850   46.3720 O   0  0  0  0  0  0  0  0  0  0  0  0
   58.7320   31.3460   46.0430 C   0  0  0  0  0  0  0  0  0  0  0  0
   59.0510   32.7830   46.1490 C   0  0  0  0  0  0  0  0  0  0  0  0
   58.8640   33.6320   45.0440 C   0  0  0  0  0  0  0  0  0  0  0  0
   59.1660   34.9940   45.1410 C   0  0  0  0  0  0  0  0  0  0  0  0
   59.6550   35.5200   46.3400 C   0  0  0  0  0  0  0  0  0  0  0  0
   59.8440   34.6850   47.4440 C   0  0  0  0  0  0  0  0  0  0  0  0
   59.5440   33.3220   47.3520 C   0  0  0  0  0  0  0  0  0  0  0  0
   57.5360   30.8720   45.5990 N   0  0  0  0  0  0  0  0  0  0  0  0
   57.7090   29.5420   45.6780 C   0  0  0  0  0  0  0  0  0  0  0  0
   55.0355   30.7364   44.0919 H   0  0  0  0  0  0  0  0  0  0  0  0
   56.2192   29.7814   43.1361 H   0  0  0  0  0  0  0  0  0  0  0  0
   54.4834   29.3192   43.1361 H   0  0  0  0  0  0  0  0  0  0  0  0
   56.5439   26.3705   45.2707 H   0  0  0  0  0  0  0  0  0  0  0  0
   58.8419   25.8703   46.1382 H   0  0  0  0  0  0  0  0  0  0  0  0
   60.4193   27.7545   46.7099 H   0  0  0  0  0  0  0  0  0  0  0  0
   58.4783   33.2229   44.0986 H   0  0  0  0  0  0  0  0  0  0  0  0
   59.0185   35.6524   44.2722 H   0  0  0  0  0  0  0  0  0  0  0  0
   59.8911   36.5918   46.4144 H   0  0  0  0  0  0  0  0  0  0  0  0
   60.2293   35.1001   48.3870 H   0  0  0  0  0  0  0  0  0  0  0  0
   59.6941   32.6683   48.2239 H   0  0  0  0  0  0  0  0  0  0  0  0
  1  2  1  0
  2  3  1  0
  3  4  2  0
  4  5  1  0
  5  6  2  0
  6  7  1  0
  7  8  1  0
  8  9  1  0
  9 10  1  0
 10 11  2  0
 11 12  1  0
 12 13  2  0
 13 14  1  0
 14 15  2  0
  9 16  2  0
 16 17  1  0
 17  3  1  0
 17  7  2  0
 15 10  1  0
  1 18  1  0
  1 19  1  0
  1 20  1  0
  4 21  1  0
  5 22  1  0
  6 23  1  0
 11 24  1  0
 12 25  1  0
 13 26  1  0
 14 27  1  0
 15 28  1  0
M  END
>  <UniqueID>  (20) 
19

>  <SMILES>  (20) 
COc1cccc2oc(-c3ccccc3)nc12

>  <Energy>  (20) 
67.2620903489042

>  <Genealogy>  (20) 
COc1cccc2oc(-c3ccccc3)nc12 (3D coordinates assigned)
COc1cccc2oc(-c3ccccc3)nc12 (optimized conformer: 67.2620903489042 kcal/mol)

>  <smiles>  (20) 
COc1cccc2oc(-c3ccccc3)nc12

>  <score_type>  (20) 
oracle

>  <origin>  (20) 
adg

>  <m_score__min__energy>  (20) 
-6.54

>  <m_primary>  (20) 
energy

$$$$
20:0
     RDKit          3D

 28 29  0  0  0  0  0  0  0  0999 V2000
   57.0280   27.5010   45.6270 C   0  0  0  0  0  0  0  0  0  0  0  0
   55.9320   28.3210   45.2420 O   0  0  0  0  0  0  0  0  0  0  0  0
   56.1030   29.5380   44.5770 C   0  0  0  0  0  0  0  0  0  0  0  0
   55.1540   30.3650   44.4920 O   0  0  0  0  0  0  0  0  0  0  0  0
   57.4140   29.8410   43.9200 C   0  0  0  0  0  0  0  0  0  0  0  0
   57.6990   31.3460   43.9070 C   0  0  0  0  0  0  0  0  0  0  0  0
   58.2020   31.7980   45.2060 N   0  0  0  0  0  0  0  0  0  0  0  0
   58.2110   31.0650   46.3460 C   0  0  0  0  0  0  0  0  0  0  0  0
   58.6900   31.8200   47.4110 C   0  0  0  0  0  0  0  0  0  0  0  0
   58.9690   33.0610   46.8800 C   0  0  0  0  0  0  0  0  0  0  0  0
   59.4540   34.2140   47.4940 C   0  0  0  0  0  0  0  0  0  0  0  0
   59.6250   35.3600   46.6960 C   0  0  0  0  0  0  0  0  0  0  0  0
   59.3090   35.3260   45.3210 C   0  0  0  0  0  0  0  0  0  0  0  0
   58.8220   34.1470   44.7290 C   0  0  0  0  0  0  0  0  0  0  0  0
   58.6620   33.0210   45.5440 C   0  0  0  0  0  0  0  0  0  0  0  0
   57.0858   27.4578   46.7246 H   0  0  0  0  0  0  0  0  0  0  0  0
   56.8850   26.4863   45.2271 H   0  0  0  0  0  0  0  0  0  0  0  0
   57.9611   27.9246   45.2271 H   0  0  0  0  0  0  0  0  0  0  0  0
   58.2170   29.3296   44.4711 H   0  0  0  0  0  0  0  0  0  0  0  0
   57.3687   29.4886   42.8790 H   0  0  0  0  0  0  0  0  0  0  0  0
   58.4520   31.5625   43.1349 H   0  0  0  0  0  0  0  0  0  0  0  0
   56.7605   31.8777   43.6912 H   0  0  0  0  0  0  0  0  0  0  0  0
   57.8844   30.0171   46.4187 H   0  0  0  0  0  0  0  0  0  0  0  0
   58.8187   31.4961   48.4543 H   0  0  0  0  0  0  0  0  0  0  0  0
   59.6952   34.2277   48.5671 H   0  0  0  0  0  0  0  0  0  0  0  0
   60.0072   36.2879   47.1464 H   0  0  0  0  0  0  0  0  0  0  0  0
   59.4447   36.2289   44.7075 H   0  0  0  0  0  0  0  0  0  0  0  0
   58.5744   34.1111   43.6578 H   0  0  0  0  0  0  0  0  0  0  0  0
  1  2  1  0
  2  3  1  0
  3  4  2  0
  3  5  1  0
  5  6  1  0
  6  7  1  0
  7  8  1  0
  8  9  2  0
  9 10  1  0
 10 11  2  0
 11 12  1  0
 12 13  2  0
 13 14  1  0
 14 15  2  0
 15  7  1  0
 15 10  1  0
  1 16  1  0
  1 17  1  0
  1 18  1  0
  5 19  1  0
  5 20  1  0
  6 21  1  0
  6 22  1  0
  8 23  1  0
  9 24  1  0
 11 25  1  0
 12 26  1  0
 13 27  1  0
 14 28  1  0
M  END
>  <UniqueID>  (21) 
20

>  <SMILES>  (21) 
COC(=O)CCn1ccc2ccccc21

>  <Energy>  (21) 
54.46135361180818

>  <Genealogy>  (21) 
COC(=O)CCn1ccc2ccccc21 (3D coordinates assigned)
COC(=O)CCn1ccc2ccccc21 (optimized conformer: 54.46135361180818 kcal/mol)

>  <smiles>  (21) 
COC(=O)CCn1ccc2ccccc21

>  <score_type>  (21) 
oracle

>  <origin>  (21) 
adg

>  <m_score__min__energy>  (21) 
-6.0199999999999996

>  <m_primary>  (21) 
energy

$$$$
21:0
     RDKit          3D

 33 34  0  0  0  0  0  0  0  0999 V2000
   58.9210   29.6760   48.3650 C   0  0  0  0  0  0  0  0  0  0  0  0
   58.5250   30.6250   47.4160 O   0  0  0  0  0  0  0  0  0  0  0  0
   59.0710   31.9140   47.3600 C   0  0  0  0  0  0  0  0  0  0  0  0
   59.9650   32.3570   48.3050 C   0  0  0  0  0  0  0  0  0  0  0  0
   60.4440   33.6400   48.1600 C   0  0  0  0  0  0  0  0  0  0  0  0
   61.5810   34.2200   49.3550 Cl  0  0  0  0  0  0  0  0  0  0  0  0
   60.0890   34.4850   47.1470 C   0  0  0  0  0  0  0  0  0  0  0  0
   59.1940   34.0220   46.2110 C   0  0  0  0  0  0  0  0  0  0  0  0
   58.6590   32.7240   46.2890 C   0  0  0  0  0  0  0  0  0  0  0  0
   57.8170   32.2930   45.4070 O   0  0  0  0  0  0  0  0  0  0  0  0
   56.9760   31.8630   44.5260 C   0  0  0  0  0  0  0  0  0  0  0  0
   57.5340   30.6620   43.7360 C   0  0  0  0  0  0  0  0  0  0  0  0
   57.4760   29.4370   44.4990 N   0  0  0  0  0  0  0  0  0  0  0  0
   58.6510   28.8640   44.8730 C   0  0  0  0  0  0  0  0  0  0  0  0
   58.7070   27.7120   45.6030 C   0  0  0  0  0  0  0  0  0  0  0  0
   57.5400   27.0780   45.9910 C   0  0  0  0  0  0  0  0  0  0  0  0
   56.3540   27.6640   45.6080 C   0  0  0  0  0  0  0  0  0  0  0  0
   55.1700   27.0370   45.9920 O   0  0  0  0  0  0  0  0  0  0  0  0
   56.3410   28.8280   44.8710 C   0  0  0  0  0  0  0  0  0  0  0  0
   55.2460   29.3120   44.5520 O   0  0  0  0  0  0  0  0  0  0  0  0
   58.7539   30.0764   49.3758 H   0  0  0  0  0  0  0  0  0  0  0  0
   58.3313   28.7569   48.2326 H   0  0  0  0  0  0  0  0  0  0  0  0
   59.9891   29.4486   48.2326 H   0  0  0  0  0  0  0  0  0  0  0  0
   60.2837   31.7155   49.1398 H   0  0  0  0  0  0  0  0  0  0  0  0
   60.5049   35.5013   47.0821 H   0  0  0  0  0  0  0  0  0  0  0  0
   58.8904   34.6808   45.3841 H   0  0  0  0  0  0  0  0  0  0  0  0
   56.0523   31.5541   45.0372 H   0  0  0  0  0  0  0  0  0  0  0  0
   56.7816   32.6786   43.8139 H   0  0  0  0  0  0  0  0  0  0  0  0
   56.9427   30.5361   42.8170 H   0  0  0  0  0  0  0  0  0  0  0  0
   58.5896   30.8685   43.5055 H   0  0  0  0  0  0  0  0  0  0  0  0
   59.5932   29.3477   44.5757 H   0  0  0  0  0  0  0  0  0  0  0  0
   59.6820   27.2868   45.8834 H   0  0  0  0  0  0  0  0  0  0  0  0
   57.5586   26.1483   46.5786 H   0  0  0  0  0  0  0  0  0  0  0  0
  1  2  1  0
  2  3  1  0
  3  4  2  0
  4  5  1  0
  5  6  1  0
  5  7  2  0
  7  8  1  0
  8  9  2  0
  9 10  1  0
 10 11  1  0
 11 12  1  0
 12 13  1  0
 13 14  1  0
 14 15  2  0
 15 16  1  0
 16 17  2  0
 17 18  1  0
 17 19  1  0
 19 20  2  0
  9  3  1  0
 19 13  1  0
  1 21  1  0
  1 22  1  0
  1 23  1  0
  4 24  1  0
  7 25  1  0
  8 26  1  0
 11 27  1  0
 11 28  1  0
 12 29  1  0
 12 30  1  0
 14 31  1  0
 15 32  1  0
 16 33  1  0
M  CHG  1  18  -1
M  END
>  <UniqueID>  (22) 
21

>  <SMILES>  (22) 
COc1cc(Cl)ccc1OCCn1cccc([O-])c1=O

>  <Energy>  (22) 
117.89463426952422

>  <Genealogy>  (22) 
COc1cc(Cl)ccc1OCCn1cccc([O-])c1=O (protonated)
COc1cc(Cl)ccc1OCCn1cccc([O-])c1=O (3D coordinates assigned)
COc1cc(Cl)ccc1OCCn1cccc([O-])c1=O (optimized conformer: 117.89463426952422 kcal/mol)

>  <smiles>  (22) 
COc1cc(Cl)ccc1OCCn1cccc(O)c1=O

>  <score_type>  (22) 
oracle

>  <origin>  (22) 
adg

>  <m_score__min__energy>  (22) 
-9.9100000000000001

>  <m_primary>  (22) 
energy

$$$$
22:0
     RDKit          3D

 47 50  0  0  0  0  0  0  0  0999 V2000
   55.7911   27.6857   45.1482 H   0  0  0  0  0  0  0  0  0  0  0  0
   56.6450   28.3720   45.2480 C   0  0  0  0  0  0  0  0  0  0  0  0
   57.5070   28.2350   46.2890 N   0  0  0  0  0  0  0  0  0  0  0  0
   58.5740   29.0670   46.4570 C   0  0  0  0  0  0  0  0  0  0  0  0
   59.4040   28.9090   47.4480 N   0  0  0  0  0  0  0  0  0  0  0  0
   60.2460   29.9150   48.0360 C   0  0  0  0  0  0  0  0  0  0  0  0
   60.2160   30.0840   49.4250 C   0  0  0  0  0  0  0  0  0  0  0  0
   59.5381   29.4679   50.0340 H   0  0  0  0  0  0  0  0  0  0  0  0
   61.0390   31.0280   50.0460 C   0  0  0  0  0  0  0  0  0  0  0  0
   60.9937   31.1616   51.1369 H   0  0  0  0  0  0  0  0  0  0  0  0
   61.9220   31.8050   49.2830 C   0  0  0  0  0  0  0  0  0  0  0  0
   62.7520   32.7560   49.8960 C   0  0  0  0  0  0  0  0  0  0  0  0
   62.7064   32.9046   50.9850 H   0  0  0  0  0  0  0  0  0  0  0  0
   63.6370   33.5150   49.1240 C   0  0  0  0  0  0  0  0  0  0  0  0
   64.2853   34.2605   49.6077 H   0  0  0  0  0  0  0  0  0  0  0  0
   63.7010   33.3300   47.7400 C   0  0  0  0  0  0  0  0  0  0  0  0
   64.4004   33.9292   47.1385 H   0  0  0  0  0  0  0  0  0  0  0  0
   62.8790   32.3860   47.1180 C   0  0  0  0  0  0  0  0  0  0  0  0
   62.9349   32.2427   46.0288 H   0  0  0  0  0  0  0  0  0  0  0  0
   61.9820   31.6200   47.8800 C   0  0  0  0  0  0  0  0  0  0  0  0
   61.1520   30.6690   47.2670 C   0  0  0  0  0  0  0  0  0  0  0  0
   61.2098   30.5120   46.1798 H   0  0  0  0  0  0  0  0  0  0  0  0
   58.8070   30.0840   45.5230 C   0  0  0  0  0  0  0  0  0  0  0  0
   59.6737   30.7510   45.6417 H   0  0  0  0  0  0  0  0  0  0  0  0
   57.9370   30.2530   44.4370 C   0  0  0  0  0  0  0  0  0  0  0  0
   58.1870   31.3080   43.4890 N   0  0  0  0  0  0  0  0  0  0  0  0
   58.7120   31.0710   42.6160 H   0  0  0  0  0  0  0  0  0  0  0  0
   57.7440   32.6900   43.6910 C   0  0  0  0  0  0  0  0  0  0  0  0
   56.6448   32.7163   43.7230 H   0  0  0  0  0  0  0  0  0  0  0  0
   58.1152   33.3066   42.8592 H   0  0  0  0  0  0  0  0  0  0  0  0
   58.2900   33.2380   44.9830 C   0  0  0  0  0  0  0  0  0  0  0  0
   59.4240   34.0650   44.9770 C   0  0  0  0  0  0  0  0  0  0  0  0
   59.9325   34.2899   44.0279 H   0  0  0  0  0  0  0  0  0  0  0  0
   59.9100   34.6040   46.1710 C   0  0  0  0  0  0  0  0  0  0  0  0
   60.8053   35.2430   46.1588 H   0  0  0  0  0  0  0  0  0  0  0  0
   59.2590   34.3330   47.3900 C   0  0  0  0  0  0  0  0  0  0  0  0
   59.7080   34.8510   48.6150 O   0  0  0  0  0  0  0  0  0  0  0  0
   59.6740   34.1410   49.8490 C   0  0  0  0  0  0  0  0  0  0  0  0
   59.7082   34.8558   50.6844 H   0  0  0  0  0  0  0  0  0  0  0  0
   58.7466   33.5523   49.9079 H   0  0  0  0  0  0  0  0  0  0  0  0
   60.5409   33.4664   49.9079 H   0  0  0  0  0  0  0  0  0  0  0  0
   58.1190   33.5220   47.3890 C   0  0  0  0  0  0  0  0  0  0  0  0
   57.6008   33.3083   48.3355 H   0  0  0  0  0  0  0  0  0  0  0  0
   57.6330   32.9810   46.1950 C   0  0  0  0  0  0  0  0  0  0  0  0
   56.7313   32.3510   46.2063 H   0  0  0  0  0  0  0  0  0  0  0  0
   56.8410   29.3820   44.3050 C   0  0  0  0  0  0  0  0  0  0  0  0
   56.1421   29.4961   43.4633 H   0  0  0  0  0  0  0  0  0  0  0  0
  1  2  1  0
  2  3  1  0
  3  4  1  0
  4  5  2  0
  5  6  1  0
  6  7  2  0
  7  8  1  0
  7  9  1  0
  9 10  1  0
  9 11  2  0
 11 12  1  0
 12 13  1  0
 12 14  2  0
 14 15  1  0
 14 16  1  0
 16 17  1  0
 16 18  2  0
 18 19  1  0
 18 20  1  0
 20 21  2  0
 21 22  1  0
  4 23  1  0
 23 24  1  0
 23 25  2  0
 25 26  1  0
 26 27  1  0
 26 28  1  0
 28 29  1  0
 28 30  1  0
 28 31  1  0
 31 32  2  0
 32 33  1  0
 32 34  1  0
 34 35  1  0
 34 36  2  0
 36 37  1  0
 37 38  1  0
 38 39  1  0
 38 40  1  0
 38 41  1  0
 36 42  1  0
 42 43  1  0
 42 44  2  0
 44 45  1  0
 25 46  1  0
 46 47  1  0
 46  2  2  0
 21  6  1  0
 44 31  1  0
 20 11  1  0
M  CHG  1   3  -1
M  END
>  <UniqueID>  (23) 
22

>  <SMILES>  (23) 
COc1ccc(CNc2cc[n-]/c(=N\c3ccc4ccccc4c3)c2)cc1

>  <Energy>  (23) 
60.60330114519075

>  <Genealogy>  (23) 
COc1ccc(CNc2cc[n-]c(=Nc3ccc4ccccc4c3)c2)cc1 (protonated)
COc1ccc(CNc2cc[n-]/c(=N\c3ccc4ccccc4c3)c2)cc1 (cis-trans isomerization)
COc1ccc(CNc2cc[n-]/c(=N\c3ccc4ccccc4c3)c2)cc1 (3D coordinates assigned)
COc1ccc(CNc2cc[n-]/c(=N\c3ccc4ccccc4c3)c2)cc1 (optimized conformer: 60.60330114519075 kcal/mol)

>  <smiles>  (23) 
COc1ccc(CNc2cc[nH]c(=Nc3ccc4ccccc4c3)c2)cc1

>  <score_type>  (23) 
oracle

>  <origin>  (23) 
adg

>  <m_score__min__energy>  (23) 
-9.6300000000000008

>  <m_primary>  (23) 
energy

$$$$
23:0
     RDKit          3D

 40 42  0  0  0  0  0  0  0  0999 V2000
   56.4013   29.5428   42.7091 H   0  0  0  0  0  0  0  0  0  0  0  0
   57.1380   29.9640   43.4090 C   0  0  0  0  0  0  0  0  0  0  0  0
   57.3800   31.2920   43.3270 C   0  0  0  0  0  0  0  0  0  0  0  0
   57.4960   32.1700   44.5320 C   0  0  0  0  0  0  0  0  0  0  0  0
   57.3610   31.6910   45.6910 O   0  0  0  0  0  0  0  0  0  0  0  0
   57.7730   33.6130   44.4230 C   0  0  0  0  0  0  0  0  0  0  0  0
   57.7132   34.0709   43.4246 H   0  0  0  0  0  0  0  0  0  0  0  0
   58.0930   34.4080   45.4550 C   0  0  0  0  0  0  0  0  0  0  0  0
   57.4945   35.3201   45.5963 H   0  0  0  0  0  0  0  0  0  0  0  0
   59.1880   34.1550   46.4190 C   0  0  0  0  0  0  0  0  0  0  0  0
   58.9000   34.1840   47.7920 C   0  0  0  0  0  0  0  0  0  0  0  0
   57.8739   34.3918   48.1295 H   0  0  0  0  0  0  0  0  0  0  0  0
   59.9060   33.9510   48.7350 C   0  0  0  0  0  0  0  0  0  0  0  0
   59.6652   33.9593   49.8083 H   0  0  0  0  0  0  0  0  0  0  0  0
   61.2200   33.7070   48.3150 C   0  0  0  0  0  0  0  0  0  0  0  0
   61.5220   33.7060   46.9380 C   0  0  0  0  0  0  0  0  0  0  0  0
   62.8000   33.4800   46.5350 N   0  0  0  0  0  0  0  0  0  0  0  0
   63.7900   33.2510   47.4380 C   0  0  0  0  0  0  0  0  0  0  0  0
   64.8194   33.0690   47.0957 H   0  0  0  0  0  0  0  0  0  0  0  0
   63.4930   33.2480   48.8030 C   0  0  0  0  0  0  0  0  0  0  0  0
   64.2875   33.0621   49.5407 H   0  0  0  0  0  0  0  0  0  0  0  0
   62.2170   33.4760   49.2160 N   0  0  0  0  0  0  0  0  0  0  0  0
   62.0130   33.4730   50.2420 H   0  0  0  0  0  0  0  0  0  0  0  0
   60.5130   33.9390   45.9970 C   0  0  0  0  0  0  0  0  0  0  0  0
   60.7562   33.9534   44.9243 H   0  0  0  0  0  0  0  0  0  0  0  0
   57.4010   31.9120   41.9520 C   0  0  0  0  0  0  0  0  0  0  0  0
   57.4381   33.0075   42.0443 H   0  0  0  0  0  0  0  0  0  0  0  0
   58.2877   31.5599   41.4045 H   0  0  0  0  0  0  0  0  0  0  0  0
   56.4925   31.6207   41.4045 H   0  0  0  0  0  0  0  0  0  0  0  0
   57.7790   29.0300   44.3590 C   0  0  0  0  0  0  0  0  0  0  0  0
   57.0090   28.2020   45.1950 C   0  0  0  0  0  0  0  0  0  0  0  0
   55.9116   28.2154   45.1200 H   0  0  0  0  0  0  0  0  0  0  0  0
   57.6340   27.3620   46.1210 C   0  0  0  0  0  0  0  0  0  0  0  0
   57.0289   26.7026   46.7606 H   0  0  0  0  0  0  0  0  0  0  0  0
   59.0270   27.3590   46.2350 C   0  0  0  0  0  0  0  0  0  0  0  0
   59.5179   26.6914   46.9585 H   0  0  0  0  0  0  0  0  0  0  0  0
   59.7970   28.2040   45.4300 C   0  0  0  0  0  0  0  0  0  0  0  0
   60.8927   28.2077   45.5270 H   0  0  0  0  0  0  0  0  0  0  0  0
   59.1750   29.0440   44.5020 C   0  0  0  0  0  0  0  0  0  0  0  0
   59.7823   29.7190   43.8811 H   0  0  0  0  0  0  0  0  0  0  0  0
  1  2  1  0
  2  3  2  3
  3  4  1  0
  4  5  2  0
  4  6  1  0
  6  7  1  0
  6  8  2  0
  8  9  1  0
  8 10  1  0
 10 11  2  0
 11 12  1  0
 11 13  1  0
 13 14  1  0
 13 15  2  0
 15 16  1  0
 16 17  1  0
 17 18  2  0
 18 19  1  0
 18 20  1  0
 20 21  1  0
 20 22  2  0
 22 23  1  0
 16 24  2  0
 24 25  1  0
  3 26  1  0
 26 27  1  0
 26 28  1  0
 26 29  1  0
  2 30  1  0
 30 31  2  0
 31 32  1  0
 31 33  1  0
 33 34  1  0
 33 35  2  0
 35 36  1  0
 35 37  1  0
 37 38  1  0
 37 39  2  0
 39 40  1  0
 24 10  1  0
 39 30  1  0
 22 15  1  0
M  CHG  1  22   1
M  END
>  <UniqueID>  (24) 
23

>  <SMILES>  (24) 
CC(=Cc1ccccc1)C(=O)/C=C\c1ccc2[nH+]ccnc2c1

>  <Energy>  (24) 
66.97046015153661

>  <Genealogy>  (24) 
CC(=Cc1ccccc1)C(=O)C=Cc1ccc2[nH+]ccnc2c1 (protonated)
CC(=Cc1ccccc1)C(=O)/C=C\c1ccc2[nH+]ccnc2c1 (cis-trans isomerization)
CC(=Cc1ccccc1)C(=O)/C=C\c1ccc2[nH+]ccnc2c1 (3D coordinates assigned)
CC(=Cc1ccccc1)C(=O)/C=C\c1ccc2[nH+]ccnc2c1 (optimized conformer: 66.97046015153661 kcal/mol)

>  <smiles>  (24) 
CC(=Cc1ccccc1)C(=O)C=Cc1ccc2nccnc2c1

>  <score_type>  (24) 
oracle

>  <origin>  (24) 
adg

>  <m_score__min__energy>  (24) 
-7.1200000000000001

>  <m_primary>  (24) 
energy

$$$$
24:0
     RDKit          3D

 43 45  0  0  0  0  0  0  0  0999 V2000
   65.5080   32.6980   49.9230 C   0  0  0  0  0  0  0  0  0  0  0  0
   64.1960   33.4420   49.6110 C   0  0  0  0  0  0  0  0  0  0  0  0
   63.2570   32.7330   48.6930 N   0  0  0  0  0  0  0  0  0  0  0  0
   63.7560   32.6650   47.2910 C   0  0  0  0  0  0  0  0  0  0  0  0
   63.3650   33.8480   46.3980 C   0  0  0  0  0  0  0  0  0  0  0  0
   62.7650   31.4360   49.2350 C   0  0  0  0  0  0  0  0  0  0  0  0
   61.2410   31.3880   49.4820 C   0  0  0  0  0  0  0  0  0  0  0  0
   60.4780   31.5980   48.2390 N   0  0  0  0  0  0  0  0  0  0  0  0
   59.9140   30.4720   47.5380 C   0  0  0  0  0  0  0  0  0  0  0  0
   60.1520   29.2970   47.9330 O   0  0  0  0  0  0  0  0  0  0  0  0
   59.0590   30.6900   46.3490 C   0  0  0  0  0  0  0  0  0  0  0  0
   58.4750   29.6000   45.6790 C   0  0  0  0  0  0  0  0  0  0  0  0
   57.6670   29.8060   44.5610 C   0  0  0  0  0  0  0  0  0  0  0  0
   57.4280   31.0970   44.0920 C   0  0  0  0  0  0  0  0  0  0  0  0
   57.9980   32.2000   44.7420 C   0  0  0  0  0  0  0  0  0  0  0  0
   57.7610   33.4980   44.2700 C   0  0  0  0  0  0  0  0  0  0  0  0
   58.3300   34.5950   44.9150 C   0  0  0  0  0  0  0  0  0  0  0  0
   59.1410   34.4110   46.0360 C   0  0  0  0  0  0  0  0  0  0  0  0
   59.3950   33.1190   46.5290 C   0  0  0  0  0  0  0  0  0  0  0  0
   58.8220   32.0020   45.8820 C   0  0  0  0  0  0  0  0  0  0  0  0
   60.2540   32.9240   47.7190 C   0  0  0  0  0  0  0  0  0  0  0  0
   60.7880   33.9220   48.2760 O   0  0  0  0  0  0  0  0  0  0  0  0
   65.6376   32.6245   51.0129 H   0  0  0  0  0  0  0  0  0  0  0  0
   65.4687   31.6878   49.4895 H   0  0  0  0  0  0  0  0  0  0  0  0
   66.3548   33.2503   49.4895 H   0  0  0  0  0  0  0  0  0  0  0  0
   63.6719   33.6178   50.5620 H   0  0  0  0  0  0  0  0  0  0  0  0
   64.4893   34.3646   49.0887 H   0  0  0  0  0  0  0  0  0  0  0  0
   62.4220   33.3650   48.6440 H   0  0  0  0  0  0  0  0  0  0  0  0
   64.8543   32.6122   47.3234 H   0  0  0  0  0  0  0  0  0  0  0  0
   63.2849   31.7775   46.8434 H   0  0  0  0  0  0  0  0  0  0  0  0
   63.0819   34.7046   47.0273 H   0  0  0  0  0  0  0  0  0  0  0  0
   64.2190   34.1260   45.7629 H   0  0  0  0  0  0  0  0  0  0  0  0
   62.5135   33.5623   45.7629 H   0  0  0  0  0  0  0  0  0  0  0  0
   63.0230   30.6428   48.5179 H   0  0  0  0  0  0  0  0  0  0  0  0
   63.2475   31.3002   50.2142 H   0  0  0  0  0  0  0  0  0  0  0  0
   60.9787   30.4044   49.8988 H   0  0  0  0  0  0  0  0  0  0  0  0
   60.9826   32.1960   50.1823 H   0  0  0  0  0  0  0  0  0  0  0  0
   58.6570   28.5768   46.0396 H   0  0  0  0  0  0  0  0  0  0  0  0
   57.2157   28.9449   44.0463 H   0  0  0  0  0  0  0  0  0  0  0  0
   56.7901   31.2503   43.2091 H   0  0  0  0  0  0  0  0  0  0  0  0
   57.1234   33.6519   43.3870 H   0  0  0  0  0  0  0  0  0  0  0  0
   58.1389   35.6108   44.5386 H   0  0  0  0  0  0  0  0  0  0  0  0
   59.5849   35.2836   46.5376 H   0  0  0  0  0  0  0  0  0  0  0  0
  1  2  1  0
  2  3  1  0
  3  4  1  0
  4  5  1  0
  3  6  1  0
  6  7  1  0
  7  8  1  0
  8  9  1  0
  9 10  2  0
  9 11  1  0
 11 12  1  0
 12 13  2  0
 13 14  1  0
 14 15  2  0
 15 16  1  0
 16 17  2  0
 17 18  1  0
 18 19  2  0
 19 20  1  0
 19 21  1  0
 21 22  2  0
 21  8  1  0
 20 11  2  0
 20 15  1  0
  1 23  1  0
  1 24  1  0
  1 25  1  0
  2 26  1  0
  2 27  1  0
  3 28  1  0
  4 29  1  0
  4 30  1  0
  5 31  1  0
  5 32  1  0
  5 33  1  0
  6 34  1  0
  6 35  1  0
  7 36  1  0
  7 37  1  0
 12 38  1  0
 13 39  1  0
 14 40  1  0
 16 41  1  0
 17 42  1  0
 18 43  1  0
M  CHG  1   3   1
M  END
>  <UniqueID>  (25) 
24

>  <SMILES>  (25) 
CC[NH+](CC)CCN1C(=O)c2cccc3cccc(c23)C1=O

>  <Energy>  (25) 
58.43331059464722

>  <Genealogy>  (25) 
CC[NH+](CC)CCN1C(=O)c2cccc3cccc(c23)C1=O (protonated)
CC[NH+](CC)CCN1C(=O)c2cccc3cccc(c23)C1=O (3D coordinates assigned)
CC[NH+](CC)CCN1C(=O)c2cccc3cccc(c23)C1=O (nonaromatic ring conformer: 58.43331059464722 kcal/mol)

>  <smiles>  (25) 
CCN(CC)CCN1C(=O)c2cccc3cccc(c23)C1=O

>  <score_type>  (25) 
oracle

>  <origin>  (25) 
adg

>  <m_score__min__energy>  (25) 
-5.2699999999999996

>  <m_primary>  (25) 
energy

$$$$
25:0
     RDKit          3D

 27 27  0  0  0  0  0  0  0  0999 V2000
   59.1410   31.9610   45.9900 C   0  0  0  0  0  0  0  0  0  0  0  0
   58.8380   33.3760   46.3130 N   0  0  0  0  0  0  0  0  0  0  0  0
   58.9920   34.2040   45.0940 C   0  0  0  0  0  0  0  0  0  0  0  0
   57.4270   33.4610   46.7610 C   0  0  0  0  0  0  0  0  0  0  0  0
   59.7100   33.8760   47.4190 C   0  0  0  0  0  0  0  0  0  0  0  0
   61.1590   33.4330   47.3250 C   0  0  0  0  0  0  0  0  0  0  0  0
   61.6450   32.4040   48.1460 C   0  0  0  0  0  0  0  0  0  0  0  0
   62.9840   32.0180   48.0500 C   0  0  0  0  0  0  0  0  0  0  0  0
   63.8150   32.6400   47.1700 N   0  0  0  0  0  0  0  0  0  0  0  0
   63.3730   33.6490   46.3710 C   0  0  0  0  0  0  0  0  0  0  0  0
   62.0420   34.0660   46.4380 C   0  0  0  0  0  0  0  0  0  0  0  0
   59.2632   31.3902   46.9223 H   0  0  0  0  0  0  0  0  0  0  0  0
   58.3140   31.5335   45.4040 H   0  0  0  0  0  0  0  0  0  0  0  0
   60.0705   31.9096   45.4040 H   0  0  0  0  0  0  0  0  0  0  0  0
   59.1861   35.2478   45.3818 H   0  0  0  0  0  0  0  0  0  0  0  0
   59.8351   33.8252   44.4976 H   0  0  0  0  0  0  0  0  0  0  0  0
   58.0691   34.1537   44.4976 H   0  0  0  0  0  0  0  0  0  0  0  0
   57.3909   33.4632   47.8604 H   0  0  0  0  0  0  0  0  0  0  0  0
   56.9757   34.3880   46.3775 H   0  0  0  0  0  0  0  0  0  0  0  0
   56.8677   32.5949   46.3775 H   0  0  0  0  0  0  0  0  0  0  0  0
   59.6850   34.9756   47.4063 H   0  0  0  0  0  0  0  0  0  0  0  0
   59.3111   33.4484   48.3507 H   0  0  0  0  0  0  0  0  0  0  0  0
   60.9752   31.9041   48.8612 H   0  0  0  0  0  0  0  0  0  0  0  0
   63.3681   31.2084   48.6880 H   0  0  0  0  0  0  0  0  0  0  0  0
   64.8140   32.3390   47.1100 H   0  0  0  0  0  0  0  0  0  0  0  0
   64.0662   34.1375   45.6704 H   0  0  0  0  0  0  0  0  0  0  0  0
   61.6876   34.8874   45.7979 H   0  0  0  0  0  0  0  0  0  0  0  0
  1  2  1  0
  2  3  1  0
  2  4  1  0
  2  5  1  0
  5  6  1  0
  6  7  2  0
  7  8  1  0
  8  9  2  0
  9 10  1  0
 10 11  2  0
 11  6  1  0
  1 12  1  0
  1 13  1  0
  1 14  1  0
  3 15  1  0
  3 16  1  0
  3 17  1  0
  4 18  1  0
  4 19  1  0
  4 20  1  0
  5 21  1  0
  5 22  1  0
  7 23  1  0
  8 24  1  0
  9 25  1  0
 10 26  1  0
 11 27  1  0
M  CHG  2   2   1   9   1
M  END
>  <UniqueID>  (26) 
25

>  <SMILES>  (26) 
C[N+](C)(C)Cc1cc[nH+]cc1

>  <Energy>  (26) 
30.207253191732033

>  <Genealogy>  (26) 
C[N+](C)(C)Cc1cc[nH+]cc1 (protonated)
C[N+](C)(C)Cc1cc[nH+]cc1 (3D coordinates assigned)
C[N+](C)(C)Cc1cc[nH+]cc1 (optimized conformer: 30.207253191732033 kcal/mol)

>  <smiles>  (26) 
C[N+](C)(C)Cc1ccncc1

>  <score_type>  (26) 
oracle

>  <origin>  (26) 
adg

>  <m_score__min__energy>  (26) 
-1.49

>  <m_primary>  (26) 
energy

$$$$
26:0
     RDKit          3D

 41 42  0  0  0  0  0  0  0  0999 V2000
   57.9160   32.3490   41.7570 C   0  0  0  0  0  0  0  0  0  0  0  0
   57.6860   31.5670   43.0570 C   0  0  0  0  0  0  0  0  0  0  0  0
   56.6480   30.4620   42.8380 C   0  0  0  0  0  0  0  0  0  0  0  0
   57.3460   32.4900   44.2570 C   0  0  0  0  0  0  0  0  0  0  0  0
   58.1720   32.2220   45.4600 N   0  0  0  0  0  0  0  0  0  0  0  0
   58.1310   30.9780   46.0630 C   0  0  0  0  0  0  0  0  0  0  0  0
   57.3440   30.0940   45.6190 O   0  0  0  0  0  0  0  0  0  0  0  0
   58.9290   30.6860   47.1530 N   0  0  0  0  0  0  0  0  0  0  0  0
   58.8540   29.3500   47.7820 C   0  0  0  0  0  0  0  0  0  0  0  0
   59.7410   28.3380   47.0480 C   0  0  0  0  0  0  0  0  0  0  0  0
   59.5210   28.4330   45.5850 N   0  0  0  0  0  0  0  0  0  0  0  0
   60.7880   28.6470   44.8650 C   0  0  0  0  0  0  0  0  0  0  0  0
   58.8470   27.2330   45.0650 C   0  0  0  0  0  0  0  0  0  0  0  0
   59.7530   31.6470   47.6800 C   0  0  0  0  0  0  0  0  0  0  0  0
   60.4800   31.4110   48.6840 O   0  0  0  0  0  0  0  0  0  0  0  0
   59.7660   32.9020   47.1040 C   0  0  0  0  0  0  0  0  0  0  0  0
   60.6340   34.2610   47.5710 S   0  0  0  0  0  0  0  0  0  0  0  0
   60.0020   35.2600   46.3690 C   0  0  0  0  0  0  0  0  0  0  0  0
   59.1000   34.5310   45.5970 C   0  0  0  0  0  0  0  0  0  0  0  0
   58.9760   33.1890   46.0120 C   0  0  0  0  0  0  0  0  0  0  0  0
   58.2189   33.3788   41.9973 H   0  0  0  0  0  0  0  0  0  0  0  0
   58.7086   31.8610   41.1709 H   0  0  0  0  0  0  0  0  0  0  0  0
   56.9853   32.3678   41.1709 H   0  0  0  0  0  0  0  0  0  0  0  0
   58.6336   31.0809   43.3321 H   0  0  0  0  0  0  0  0  0  0  0  0
   56.2980   30.0894   43.8120 H   0  0  0  0  0  0  0  0  0  0  0  0
   55.7957   30.8665   42.2724 H   0  0  0  0  0  0  0  0  0  0  0  0
   57.1049   29.6366   42.2724 H   0  0  0  0  0  0  0  0  0  0  0  0
   57.5060   33.5341   43.9499 H   0  0  0  0  0  0  0  0  0  0  0  0
   56.2993   32.2927   44.5317 H   0  0  0  0  0  0  0  0  0  0  0  0
   59.1876   29.4269   48.8274 H   0  0  0  0  0  0  0  0  0  0  0  0
   57.8124   29.0001   47.7306 H   0  0  0  0  0  0  0  0  0  0  0  0
   60.7969   28.5506   47.2715 H   0  0  0  0  0  0  0  0  0  0  0  0
   59.4835   27.3231   47.3852 H   0  0  0  0  0  0  0  0  0  0  0  0
   61.6033   28.7847   45.5905 H   0  0  0  0  0  0  0  0  0  0  0  0
   61.0030   27.7725   44.2334 H   0  0  0  0  0  0  0  0  0  0  0  0
   60.7039   29.5437   44.2334 H   0  0  0  0  0  0  0  0  0  0  0  0
   58.4995   26.6144   45.9056 H   0  0  0  0  0  0  0  0  0  0  0  0
   57.9857   27.5336   44.4503 H   0  0  0  0  0  0  0  0  0  0  0  0
   59.5519   26.6539   44.4503 H   0  0  0  0  0  0  0  0  0  0  0  0
   60.2606   36.3185   46.2183 H   0  0  0  0  0  0  0  0  0  0  0  0
   58.5420   34.9583   44.7508 H   0  0  0  0  0  0  0  0  0  0  0  0
  1  2  1  0
  2  3  1  0
  2  4  1  0
  4  5  1  0
  5  6  1  0
  6  7  2  0
  6  8  1  0
  8  9  1  0
  9 10  1  0
 10 11  1  0
 11 12  1  0
 11 13  1  0
  8 14  1  0
 14 15  2  0
 14 16  1  0
 16 17  1  0
 17 18  1  0
 18 19  2  0
 19 20  1  0
 20  5  1  0
 20 16  2  0
  1 21  1  0
  1 22  1  0
  1 23  1  0
  2 24  1  0
  3 25  1  0
  3 26  1  0
  3 27  1  0
  4 28  1  0
  4 29  1  0
  9 30  1  0
  9 31  1  0
 10 32  1  0
 10 33  1  0
 12 34  1  0
 12 35  1  0
 12 36  1  0
 13 37  1  0
 13 38  1  0
 13 39  1  0
 18 40  1  0
 19 41  1  0
M  END
>  <UniqueID>  (27) 
26

>  <SMILES>  (27) 
CC(C)Cn1c(=O)n(CCN(C)C)c(=O)c2sccc21

>  <Energy>  (27) 
75.94393165936094

>  <Genealogy>  (27) 
CC(C)Cn1c(=O)n(CCN(C)C)c(=O)c2sccc21 (3D coordinates assigned)
CC(C)Cn1c(=O)n(CCN(C)C)c(=O)c2sccc21 (optimized conformer: 75.94393165936094 kcal/mol)

>  <smiles>  (27) 
CC(C)Cn1c(=O)n(CCN(C)C)c(=O)c2sccc21

>  <score_type>  (27) 
oracle

>  <origin>  (27) 
adg

>  <m_score__min__energy>  (27) 
-6.0800000000000001

>  <m_primary>  (27) 
energy

$$$$
27:0
     RDKit          3D

 27 28  0  0  0  0  0  0  0  0999 V2000
   58.2620   28.3790   45.3100 C   0  0  0  0  0  0  0  0  0  0  0  0
   57.7920   29.7620   45.0130 C   0  0  0  0  0  0  0  0  0  0  0  0
   56.4950   30.1030   44.8710 N   0  0  0  0  0  0  0  0  0  0  0  0
   56.5100   31.3680   44.5640 O   0  0  0  0  0  0  0  0  0  0  0  0
   57.7480   31.7970   44.5040 C   0  0  0  0  0  0  0  0  0  0  0  0
   58.1420   33.2050   44.1890 C   0  0  0  0  0  0  0  0  0  0  0  0
   57.9500   34.0610   45.3780 N   0  0  0  0  0  0  0  0  0  0  0  0
   59.1350   34.8880   45.6820 C   0  0  0  0  0  0  0  0  0  0  0  0
   60.3790   34.0510   46.0360 C   0  0  0  0  0  0  0  0  0  0  0  0
   60.0250   32.5330   47.0040 S   0  0  0  0  0  0  0  0  0  0  0  0
   58.4300   33.0900   47.6780 C   0  0  0  0  0  0  0  0  0  0  0  0
   57.4110   33.3270   46.5520 C   0  0  0  0  0  0  0  0  0  0  0  0
   58.6110   30.8040   44.7790 N   0  0  0  0  0  0  0  0  0  0  0  0
   58.3111   28.2345   46.3994 H   0  0  0  0  0  0  0  0  0  0  0  0
   57.5605   27.6520   44.8749 H   0  0  0  0  0  0  0  0  0  0  0  0
   59.2612   28.2300   44.8749 H   0  0  0  0  0  0  0  0  0  0  0  0
   59.2003   33.2290   43.8898 H   0  0  0  0  0  0  0  0  0  0  0  0
   57.5138   33.5809   43.3680 H   0  0  0  0  0  0  0  0  0  0  0  0
   59.3668   35.5052   44.8015 H   0  0  0  0  0  0  0  0  0  0  0  0
   58.8907   35.5020   46.5614 H   0  0  0  0  0  0  0  0  0  0  0  0
   60.8711   33.7535   45.0983 H   0  0  0  0  0  0  0  0  0  0  0  0
   61.0129   34.6865   46.6718 H   0  0  0  0  0  0  0  0  0  0  0  0
   58.0395   32.3212   48.3610 H   0  0  0  0  0  0  0  0  0  0  0  0
   58.5870   34.0372   48.2148 H   0  0  0  0  0  0  0  0  0  0  0  0
   57.0459   32.3483   46.2073 H   0  0  0  0  0  0  0  0  0  0  0  0
   56.6159   33.9572   46.9770 H   0  0  0  0  0  0  0  0  0  0  0  0
   59.6540   30.8330   44.8020 H   0  0  0  0  0  0  0  0  0  0  0  0
  1  2  1  0
  2  3  2  0
  3  4  1  0
  4  5  1  0
  5  6  1  0
  6  7  1  0
  7  8  1  0
  8  9  1  0
  9 10  1  0
 10 11  1  0
 11 12  1  0
  5 13  2  0
 13  2  1  0
 12  7  1  0
  1 14  1  0
  1 15  1  0
  1 16  1  0
  6 17  1  0
  6 18  1  0
  8 19  1  0
  8 20  1  0
  9 21  1  0
  9 22  1  0
 11 23  1  0
 11 24  1  0
 12 25  1  0
 12 26  1  0
 13 27  1  0
M  CHG  1  13   1
M  END
>  <UniqueID>  (28) 
27

>  <SMILES>  (28) 
Cc1noc(CN2CCSCC2)[nH+]1

>  <Energy>  (28) 
66.78281546220833

>  <Genealogy>  (28) 
Cc1noc(CN2CCSCC2)[nH+]1 (protonated)
Cc1noc(CN2CCSCC2)[nH+]1 (3D coordinates assigned)
Cc1noc(CN2CCSCC2)[nH+]1 (nonaromatic ring conformer: 66.78281546220833 kcal/mol)

>  <smiles>  (28) 
Cc1noc(CN2CCSCC2)n1

>  <score_type>  (28) 
oracle

>  <origin>  (28) 
adg

>  <m_score__min__energy>  (28) 
-4.4500000000000002

>  <m_primary>  (28) 
energy

$$$$
28:0
     RDKit          3D

 52 53  0  0  0  0  0  0  0  0999 V2000
   59.8510   28.6140   48.7120 C   0  0  0  0  0  0  0  0  0  0  0  0
   58.5390   28.4310   47.9480 C   0  0  0  0  0  0  0  0  0  0  0  0
   58.4960   27.1810   47.1490 N   0  0  0  0  0  0  0  0  0  0  0  0
   59.5230   27.2280   46.0840 C   0  0  0  0  0  0  0  0  0  0  0  0
   60.7260   26.3350   46.3930 C   0  0  0  0  0  0  0  0  0  0  0  0
   57.1380   26.7920   46.6710 C   0  0  0  0  0  0  0  0  0  0  0  0
   56.7930   27.2270   45.2340 C   0  0  0  0  0  0  0  0  0  0  0  0
   55.9600   28.4240   45.2420 N   0  0  0  0  0  0  0  0  0  0  0  0
   56.1250   29.5530   44.3760 C   0  0  0  0  0  0  0  0  0  0  0  0
   55.1050   30.0550   43.8340 O   0  0  0  0  0  0  0  0  0  0  0  0
   57.4830   30.1140   44.0390 C   0  0  0  0  0  0  0  0  0  0  0  0
   57.8080   31.2710   44.8990 N   0  0  0  0  0  0  0  0  0  0  0  0
   57.0270   32.3920   44.8120 C   0  0  0  0  0  0  0  0  0  0  0  0
   57.3170   33.5280   45.5670 C   0  0  0  0  0  0  0  0  0  0  0  0
   58.4140   33.5210   46.4220 C   0  0  0  0  0  0  0  0  0  0  0  0
   59.2070   32.3730   46.5320 C   0  0  0  0  0  0  0  0  0  0  0  0
   60.3530   32.3470   47.3980 N   0  0  0  0  0  0  0  0  0  0  0  0
   60.9040   33.5300   48.0080 C   0  0  0  0  0  0  0  0  0  0  0  0
   60.3030   34.6330   47.9000 O   0  0  0  0  0  0  0  0  0  0  0  0
   62.1820   33.4810   48.7550 C   0  0  0  0  0  0  0  0  0  0  0  0
   62.2910   34.1280   50.0000 C   0  0  0  0  0  0  0  0  0  0  0  0
   63.4930   34.0980   50.7120 C   0  0  0  0  0  0  0  0  0  0  0  0
   64.6030   33.4310   50.1860 C   0  0  0  0  0  0  0  0  0  0  0  0
   64.5110   32.7970   48.9450 C   0  0  0  0  0  0  0  0  0  0  0  0
   63.3110   32.8240   48.2290 C   0  0  0  0  0  0  0  0  0  0  0  0
   58.8590   31.2310   45.7870 C   0  0  0  0  0  0  0  0  0  0  0  0
   59.5400   30.1780   45.9270 O   0  0  0  0  0  0  0  0  0  0  0  0
   59.6524   28.5863   49.7936 H   0  0  0  0  0  0  0  0  0  0  0  0
   60.5462   27.8041   48.4460 H   0  0  0  0  0  0  0  0  0  0  0  0
   60.2981   29.5832   48.4460 H   0  0  0  0  0  0  0  0  0  0  0  0
   57.7122   28.4107   48.6733 H   0  0  0  0  0  0  0  0  0  0  0  0
   58.4512   29.2716   47.2440 H   0  0  0  0  0  0  0  0  0  0  0  0
   59.0682   26.8936   45.1399 H   0  0  0  0  0  0  0  0  0  0  0  0
   59.8846   28.2644   46.0128 H   0  0  0  0  0  0  0  0  0  0  0  0
   60.8461   26.2458   47.4828 H   0  0  0  0  0  0  0  0  0  0  0  0
   60.5631   25.3374   45.9592 H   0  0  0  0  0  0  0  0  0  0  0  0
   61.6338   26.7797   45.9592 H   0  0  0  0  0  0  0  0  0  0  0  0
   57.0618   25.6958   46.7212 H   0  0  0  0  0  0  0  0  0  0  0  0
   56.4252   27.3154   47.3252 H   0  0  0  0  0  0  0  0  0  0  0  0
   57.7240   27.4390   44.6879 H   0  0  0  0  0  0  0  0  0  0  0  0
   56.2381   26.4141   44.7428 H   0  0  0  0  0  0  0  0  0  0  0  0
   58.2419   29.3316   44.1871 H   0  0  0  0  0  0  0  0  0  0  0  0
   57.4730   30.4488   42.9913 H   0  0  0  0  0  0  0  0  0  0  0  0
   56.1585   32.3967   44.1370 H   0  0  0  0  0  0  0  0  0  0  0  0
   56.6827   34.4232   45.4869 H   0  0  0  0  0  0  0  0  0  0  0  0
   58.6582   34.4171   47.0114 H   0  0  0  0  0  0  0  0  0  0  0  0
   60.8590   31.4390   47.5000 H   0  0  0  0  0  0  0  0  0  0  0  0
   61.4234   34.6614   50.4158 H   0  0  0  0  0  0  0  0  0  0  0  0
   63.5658   34.6001   51.6880 H   0  0  0  0  0  0  0  0  0  0  0  0
   65.5478   33.4055   50.7488 H   0  0  0  0  0  0  0  0  0  0  0  0
   65.3856   32.2748   48.5298 H   0  0  0  0  0  0  0  0  0  0  0  0
   63.2481   32.3290   47.2487 H   0  0  0  0  0  0  0  0  0  0  0  0
  1  2  1  0
  2  3  1  0
  3  4  1  0
  4  5  1  0
  3  6  1  0
  6  7  1  0
  7  8  1  0
  8  9  1  0
  9 10  2  0
  9 11  1  0
 11 12  1  0
 12 13  1  0
 13 14  2  0
 14 15  1  0
 15 16  2  0
 16 17  1  0
 17 18  1  0
 18 19  2  0
 18 20  1  0
 20 21  2  0
 21 22  1  0
 22 23  2  0
 23 24  1  0
 24 25  2  0
 16 26  1  0
 26 27  2  0
 26 12  1  0
 25 20  1  0
  1 28  1  0
  1 29  1  0
  1 30  1  0
  2 31  1  0
  2 32  1  0
  4 33  1  0
  4 34  1  0
  5 35  1  0
  5 36  1  0
  5 37  1  0
  6 38  1  0
  6 39  1  0
  7 40  1  0
  7 41  1  0
 11 42  1  0
 11 43  1  0
 13 44  1  0
 14 45  1  0
 15 46  1  0
 17 47  1  0
 21 48  1  0
 22 49  1  0
 23 50  1  0
 24 51  1  0
 25 52  1  0
M  CHG  1   8  -1
M  END
>  <UniqueID>  (29) 
28

>  <SMILES>  (29) 
CCN(CC)CC[N-]C(=O)Cn1cccc(NC(=O)c2ccccc2)c1=O

>  <Energy>  (29) 
60.91146953965981

>  <Genealogy>  (29) 
CCN(CC)CC[N-]C(=O)Cn1cccc(NC(=O)c2ccccc2)c1=O (protonated)
CCN(CC)CC[N-]C(=O)Cn1cccc(NC(=O)c2ccccc2)c1=O (3D coordinates assigned)
CCN(CC)CC[N-]C(=O)Cn1cccc(NC(=O)c2ccccc2)c1=O (optimized conformer: 60.91146953965981 kcal/mol)

>  <smiles>  (29) 
CCN(CC)CCNC(=O)Cn1cccc(NC(=O)c2ccccc2)c1=O

>  <score_type>  (29) 
oracle

>  <origin>  (29) 
adg

>  <m_score__min__energy>  (29) 
-9.3000000000000007

>  <m_primary>  (29) 
energy

$$$$
29:0
     RDKit          3D

 48 50  0  0  0  0  0  0  0  0999 V2000
   56.2370   29.4120   43.4780 C   0  0  0  0  0  0  0  0  0  0  0  0
   57.4740   28.8970   44.1630 C   0  0  0  0  0  0  0  0  0  0  0  0
   57.7760   27.5280   44.1070 C   0  0  0  0  0  0  0  0  0  0  0  0
   58.9090   27.0290   44.7470 C   0  0  0  0  0  0  0  0  0  0  0  0
   59.7450   27.8840   45.4650 C   0  0  0  0  0  0  0  0  0  0  0  0
   59.4480   29.2520   45.5650 C   0  0  0  0  0  0  0  0  0  0  0  0
   60.3810   30.1470   46.3350 C   0  0  0  0  0  0  0  0  0  0  0  0
   58.3120   29.7670   44.8970 C   0  0  0  0  0  0  0  0  0  0  0  0
   57.9990   31.1680   44.9650 N   0  0  0  0  0  0  0  0  0  0  0  0
   57.8500   31.9420   43.7270 C   0  0  0  0  0  0  0  0  0  0  0  0
   58.5310   33.3250   43.8330 C   0  0  0  0  0  0  0  0  0  0  0  0
   58.8950   33.6850   45.2210 N   0  0  0  0  0  0  0  0  0  0  0  0
   59.2670   35.1140   45.3380 C   0  0  0  0  0  0  0  0  0  0  0  0
   59.8170   35.4080   46.7390 C   0  0  0  0  0  0  0  0  0  0  0  0
   60.6510   34.2700   47.2680 C   0  0  0  0  0  0  0  0  0  0  0  0
   60.2980   33.6270   48.4660 C   0  0  0  0  0  0  0  0  0  0  0  0
   61.1040   32.6080   48.9830 C   0  0  0  0  0  0  0  0  0  0  0  0
   62.2660   32.2240   48.3090 C   0  0  0  0  0  0  0  0  0  0  0  0
   63.0470   31.2380   48.8120 F   0  0  0  0  0  0  0  0  0  0  0  0
   62.6250   32.8610   47.1160 C   0  0  0  0  0  0  0  0  0  0  0  0
   61.8230   33.8820   46.5980 C   0  0  0  0  0  0  0  0  0  0  0  0
   57.8160   33.3160   46.1550 C   0  0  0  0  0  0  0  0  0  0  0  0
   57.7730   31.7930   46.2730 C   0  0  0  0  0  0  0  0  0  0  0  0
   55.4998   29.7189   44.2345 H   0  0  0  0  0  0  0  0  0  0  0  0
   56.4987   30.2759   42.8494 H   0  0  0  0  0  0  0  0  0  0  0  0
   55.8083   28.6176   42.8494 H   0  0  0  0  0  0  0  0  0  0  0  0
   57.1145   26.8444   43.5546 H   0  0  0  0  0  0  0  0  0  0  0  0
   59.1449   25.9564   44.6856 H   0  0  0  0  0  0  0  0  0  0  0  0
   60.6437   27.4831   45.9565 H   0  0  0  0  0  0  0  0  0  0  0  0
   60.2254   29.9977   47.4137 H   0  0  0  0  0  0  0  0  0  0  0  0
   61.4216   29.9006   46.0771 H   0  0  0  0  0  0  0  0  0  0  0  0
   60.1781   31.1969   46.0771 H   0  0  0  0  0  0  0  0  0  0  0  0
   58.3080   31.3815   42.8987 H   0  0  0  0  0  0  0  0  0  0  0  0
   56.7762   32.1009   43.5487 H   0  0  0  0  0  0  0  0  0  0  0  0
   59.4460   33.3129   43.2225 H   0  0  0  0  0  0  0  0  0  0  0  0
   57.8097   34.0752   43.4768 H   0  0  0  0  0  0  0  0  0  0  0  0
   60.0368   35.3510   44.5889 H   0  0  0  0  0  0  0  0  0  0  0  0
   58.3727   35.7315   45.1679 H   0  0  0  0  0  0  0  0  0  0  0  0
   60.4399   36.3135   46.6932 H   0  0  0  0  0  0  0  0  0  0  0  0
   58.9623   35.5470   47.4174 H   0  0  0  0  0  0  0  0  0  0  0  0
   59.3838   33.9263   48.9996 H   0  0  0  0  0  0  0  0  0  0  0  0
   60.8228   32.1081   49.9216 H   0  0  0  0  0  0  0  0  0  0  0  0
   63.5395   32.5579   46.5851 H   0  0  0  0  0  0  0  0  0  0  0  0
   62.1108   34.3835   45.6622 H   0  0  0  0  0  0  0  0  0  0  0  0
   58.0131   33.7588   47.1425 H   0  0  0  0  0  0  0  0  0  0  0  0
   56.8516   33.6914   45.7823 H   0  0  0  0  0  0  0  0  0  0  0  0
   58.5553   31.4622   46.9719 H   0  0  0  0  0  0  0  0  0  0  0  0
   56.7813   31.4935   46.6430 H   0  0  0  0  0  0  0  0  0  0  0  0
  1  2  1  0
  2  3  2  0
  3  4  1  0
  4  5  2  0
  5  6  1  0
  6  7  1  0
  6  8  2  0
  8  9  1  0
  9 10  1  0
 10 11  1  0
 11 12  1  0
 12 13  1  0
 13 14  1  0
 14 15  1  0
 15 16  2  0
 16 17  1  0
 17 18  2  0
 18 19  1  0
 18 20  1  0
 20 21  2  0
 12 22  1  0
 22 23  1  0
  8  2  1  0
 23  9  1  0
 21 15  1  0
  1 24  1  0
  1 25  1  0
  1 26  1  0
  3 27  1  0
  4 28  1  0
  5 29  1  0
  7 30  1  0
  7 31  1  0
  7 32  1  0
 10 33  1  0
 10 34  1  0
 11 35  1  0
 11 36  1  0
 13 37  1  0
 13 38  1  0
 14 39  1  0
 14 40  1  0
 16 41  1  0
 17 42  1  0
 20 43  1  0
 21 44  1  0
 22 45  1  0
 22 46  1  0
 23 47  1  0
 23 48  1  0
M  END
>  <UniqueID>  (30) 
29

>  <SMILES>  (30) 
Cc1cccc(C)c1N1CCN(CCc2ccc(F)cc2)CC1

>  <Energy>  (30) 
57.21334345773071

>  <Genealogy>  (30) 
Cc1cccc(C)c1N1CCN(CCc2ccc(F)cc2)CC1 (3D coordinates assigned)
Cc1cccc(C)c1N1CCN(CCc2ccc(F)cc2)CC1 (nonaromatic ring conformer: 57.21334345773071 kcal/mol)

>  <smiles>  (30) 
Cc1cccc(C)c1N1CCN(CCc2ccc(F)cc2)CC1

>  <score_type>  (30) 
oracle

>  <origin>  (30) 
adg

>  <m_score__min__energy>  (30) 
-7.5599999999999996

>  <m_primary>  (30) 
energy

$$$$
30:0
     RDKit          3D

 69 72  0  0  0  0  0  0  0  0999 V2000
   58.0600   27.1300   42.9570 C   0  0  0  0  0  0  0  0  0  0  0  0
   58.0380   26.4080   44.2760 C   0  0  0  0  0  0  0  0  0  0  0  0
   57.6050   25.0710   44.2570 C   0  0  0  0  0  0  0  0  0  0  0  0
   57.9070   24.2090   45.3110 C   0  0  0  0  0  0  0  0  0  0  0  0
   58.7000   24.6510   46.3670 C   0  0  0  0  0  0  0  0  0  0  0  0
   59.1130   25.9890   46.4240 C   0  0  0  0  0  0  0  0  0  0  0  0
   60.0140   26.4080   47.4220 C   0  0  0  0  0  0  0  0  0  0  0  0
   60.4520   27.7340   47.4620 C   0  0  0  0  0  0  0  0  0  0  0  0
   59.8870   28.6340   46.5610 C   0  0  0  0  0  0  0  0  0  0  0  0
   59.9720   30.0040   46.5610 C   0  0  0  0  0  0  0  0  0  0  0  0
   60.8110   30.8070   47.4000 N   0  0  0  0  0  0  0  0  0  0  0  0
   60.4140   31.1280   48.7700 C   0  0  0  0  0  0  0  0  0  0  0  0
   61.3200   32.2170   49.3610 C   0  0  0  0  0  0  0  0  0  0  0  0
   61.7450   33.2440   48.3030 C   0  0  0  0  0  0  0  0  0  0  0  0
   62.9850   32.8130   47.6180 N   0  0  0  0  0  0  0  0  0  0  0  0
   64.1000   32.7300   48.5750 C   0  0  0  0  0  0  0  0  0  0  0  0
   63.3400   33.7510   46.5370 C   0  0  0  0  0  0  0  0  0  0  0  0
   59.0340   30.5060   45.7380 N   0  0  0  0  0  0  0  0  0  0  0  0
   58.4180   29.4230   45.2080 C   0  0  0  0  0  0  0  0  0  0  0  0
   57.0460   29.5770   44.5990 C   0  0  0  0  0  0  0  0  0  0  0  0
   56.6700   30.9930   44.4760 N   0  0  0  0  0  0  0  0  0  0  0  0
   57.0170   31.5430   43.1580 C   0  0  0  0  0  0  0  0  0  0  0  0
   58.1520   32.5830   43.2560 C   0  0  0  0  0  0  0  0  0  0  0  0
   58.3640   33.1830   44.5980 N   0  0  0  0  0  0  0  0  0  0  0  0
   57.1340   33.6860   45.2380 C   0  0  0  0  0  0  0  0  0  0  0  0
   57.3470   33.8310   46.7560 C   0  0  0  0  0  0  0  0  0  0  0  0
   58.8330   33.9730   47.1380 C   0  0  0  0  0  0  0  0  0  0  0  0
   59.6010   34.7790   46.0870 C   0  0  0  0  0  0  0  0  0  0  0  0
   59.4770   34.1550   44.6790 C   0  0  0  0  0  0  0  0  0  0  0  0
   58.9670   28.2500   45.6510 N   0  0  0  0  0  0  0  0  0  0  0  0
   58.6580   26.9220   45.4500 C   0  0  0  0  0  0  0  0  0  0  0  0
   58.0931   28.2152   43.1335 H   0  0  0  0  0  0  0  0  0  0  0  0
   58.9492   26.8241   42.3863 H   0  0  0  0  0  0  0  0  0  0  0  0
   57.1538   26.8788   42.3863 H   0  0  0  0  0  0  0  0  0  0  0  0
   57.0215   24.7004   43.4014 H   0  0  0  0  0  0  0  0  0  0  0  0
   57.5187   23.1798   45.3082 H   0  0  0  0  0  0  0  0  0  0  0  0
   59.0027   23.9488   47.1577 H   0  0  0  0  0  0  0  0  0  0  0  0
   60.3740   25.6889   48.1725 H   0  0  0  0  0  0  0  0  0  0  0  0
   61.2184   28.0571   48.1818 H   0  0  0  0  0  0  0  0  0  0  0  0
   61.7100   31.1750   47.0190 H   0  0  0  0  0  0  0  0  0  0  0  0
   59.3739   31.4859   48.7692 H   0  0  0  0  0  0  0  0  0  0  0  0
   60.5072   30.2208   49.3850 H   0  0  0  0  0  0  0  0  0  0  0  0
   60.7747   32.7369   50.1625 H   0  0  0  0  0  0  0  0  0  0  0  0
   62.2277   31.7318   49.7491 H   0  0  0  0  0  0  0  0  0  0  0  0
   60.9409   33.3496   47.5599 H   0  0  0  0  0  0  0  0  0  0  0  0
   61.9348   34.2056   48.8022 H   0  0  0  0  0  0  0  0  0  0  0  0
   63.7053   32.7594   49.6013 H   0  0  0  0  0  0  0  0  0  0  0  0
   64.6474   31.7886   48.4195 H   0  0  0  0  0  0  0  0  0  0  0  0
   64.7807   33.5800   48.4195 H   0  0  0  0  0  0  0  0  0  0  0  0
   63.6974   34.6953   46.9736 H   0  0  0  0  0  0  0  0  0  0  0  0
   64.1337   33.3108   45.9155 H   0  0  0  0  0  0  0  0  0  0  0  0
   62.4537   33.9466   45.9155 H   0  0  0  0  0  0  0  0  0  0  0  0
   57.0445   29.1181   43.5993 H   0  0  0  0  0  0  0  0  0  0  0  0
   56.3173   29.0810   45.2570 H   0  0  0  0  0  0  0  0  0  0  0  0
   57.2200   31.5310   45.1900 H   0  0  0  0  0  0  0  0  0  0  0  0
   57.3417   30.7212   42.5028 H   0  0  0  0  0  0  0  0  0  0  0  0
   56.1268   32.0437   42.7496 H   0  0  0  0  0  0  0  0  0  0  0  0
   59.0882   32.0904   42.9547 H   0  0  0  0  0  0  0  0  0  0  0  0
   57.8532   33.4143   42.6006 H   0  0  0  0  0  0  0  0  0  0  0  0
   56.8773   34.6669   44.8115 H   0  0  0  0  0  0  0  0  0  0  0  0
   56.3167   32.9726   45.0562 H   0  0  0  0  0  0  0  0  0  0  0  0
   56.8076   34.7247   47.1031 H   0  0  0  0  0  0  0  0  0  0  0  0
   56.9677   32.9154   47.2333 H   0  0  0  0  0  0  0  0  0  0  0  0
   58.9065   34.4865   48.1080 H   0  0  0  0  0  0  0  0  0  0  0  0
   59.2749   32.9674   47.1967 H   0  0  0  0  0  0  0  0  0  0  0  0
   59.1983   35.8022   46.0593 H   0  0  0  0  0  0  0  0  0  0  0  0
   60.6646   34.7791   46.3675 H   0  0  0  0  0  0  0  0  0  0  0  0
   59.3002   34.9586   43.9490 H   0  0  0  0  0  0  0  0  0  0  0  0
   60.4124   33.6183   44.4623 H   0  0  0  0  0  0  0  0  0  0  0  0
  1  2  1  0
  2  3  2  0
  3  4  1  0
  4  5  2  0
  5  6  1  0
  6  7  1  0
  7  8  2  0
  8  9  1  0
  9 10  2  0
 10 11  1  0
 11 12  1  0
 12 13  1  0
 13 14  1  0
 14 15  1  0
 15 16  1  0
 15 17  1  0
 10 18  1  0
 18 19  2  0
 19 20  1  0
 20 21  1  0
 21 22  1  0
 22 23  1  0
 23 24  1  0
 24 25  1  0
 25 26  1  0
 26 27  1  0
 27 28  1  0
 28 29  1  0
 19 30  1  0
 30 31  1  0
 31  2  1  0
 31  6  2  0
 30  9  1  0
 29 24  1  0
  1 32  1  0
  1 33  1  0
  1 34  1  0
  3 35  1  0
  4 36  1  0
  5 37  1  0
  7 38  1  0
  8 39  1  0
 11 40  1  0
 12 41  1  0
 12 42  1  0
 13 43  1  0
 13 44  1  0
 14 45  1  0
 14 46  1  0
 16 47  1  0
 16 48  1  0
 16 49  1  0
 17 50  1  0
 17 51  1  0
 17 52  1  0
 20 53  1  0
 20 54  1  0
 21 55  1  0
 22 56  1  0
 22 57  1  0
 23 58  1  0
 23 59  1  0
 25 60  1  0
 25 61  1  0
 26 62  1  0
 26 63  1  0
 27 64  1  0
 27 65  1  0
 28 66  1  0
 28 67  1  0
 29 68  1  0
 29 69  1  0
M  END
>  <UniqueID>  (31) 
30

>  <SMILES>  (31) 
Cc1cccc2ccc3c(NCCCN(C)C)nc(CNCCN4CCCCC4)n3c12

>  <Energy>  (31) 
132.59303004930567

>  <Genealogy>  (31) 
Cc1cccc2ccc3c(NCCCN(C)C)nc(CNCCN4CCCCC4)n3c12 (3D coordinates assigned)
Cc1cccc2ccc3c(NCCCN(C)C)nc(CNCCN4CCCCC4)n3c12 (nonaromatic ring conformer: 132.59303004930567 kcal/mol)

>  <smiles>  (31) 
Cc1cccc2ccc3c(NCCCN(C)C)nc(CNCCN4CCCCC4)n3c12

>  <score_type>  (31) 
oracle

>  <origin>  (31) 
adg

>  <m_score__min__energy>  (31) 
-8.3100000000000005

>  <m_primary>  (31) 
energy

$$$$
31:0
     RDKit          3D

 56 58  0  0  0  0  0  0  0  0999 V2000
   63.1930   32.3130   47.4250 C   0  0  0  0  0  0  0  0  0  0  0  0
   61.9920   33.2000   47.1030 C   0  0  0  0  0  0  0  0  0  0  0  0
   60.7240   32.4780   47.2710 N   0  0  0  0  0  0  0  0  0  0  0  0
   60.4730   31.6770   48.4720 C   0  0  0  0  0  0  0  0  0  0  0  0
   59.6040   32.8320   46.4420 C   0  0  0  0  0  0  0  0  0  0  0  0
   59.1880   34.1730   46.3930 C   0  0  0  0  0  0  0  0  0  0  0  0
   58.0980   34.5470   45.6060 C   0  0  0  0  0  0  0  0  0  0  0  0
   57.4140   33.5890   44.8580 C   0  0  0  0  0  0  0  0  0  0  0  0
   57.8200   32.2520   44.8940 C   0  0  0  0  0  0  0  0  0  0  0  0
   58.9170   31.8600   45.6790 C   0  0  0  0  0  0  0  0  0  0  0  0
   59.3270   30.4050   45.7030 C   0  0  0  0  0  0  0  0  0  0  0  0
   58.3890   29.5680   44.9250 N   0  0  0  0  0  0  0  0  0  0  0  0
   59.1090   28.5350   44.1410 C   0  0  0  0  0  0  0  0  0  0  0  0
   58.1710   27.3910   43.7360 C   0  0  0  0  0  0  0  0  0  0  0  0
   57.6020   26.6800   44.9180 N   0  0  0  0  0  0  0  0  0  0  0  0
   58.3370   25.4240   45.2150 C   0  0  0  0  0  0  0  0  0  0  0  0
   57.4980   24.1890   44.9350 C   0  0  0  0  0  0  0  0  0  0  0  0
   58.0560   23.1720   44.1390 C   0  0  0  0  0  0  0  0  0  0  0  0
   57.3690   21.9770   43.9200 C   0  0  0  0  0  0  0  0  0  0  0  0
   56.1160   21.7760   44.4960 C   0  0  0  0  0  0  0  0  0  0  0  0
   55.5390   22.7770   45.2780 C   0  0  0  0  0  0  0  0  0  0  0  0
   56.2050   23.9940   45.4920 C   0  0  0  0  0  0  0  0  0  0  0  0
   55.5540   25.0080   46.2690 N   0  0  0  0  0  0  0  0  0  0  0  0
   55.9240   25.2270   47.4410 O   0  0  0  0  0  0  0  0  0  0  0  0
   54.7510   25.9330   45.6420 O   0  0  0  0  0  0  0  0  0  0  0  0
   57.5600   27.5330   46.1350 C   0  0  0  0  0  0  0  0  0  0  0  0
   57.3150   29.0090   45.7860 C   0  0  0  0  0  0  0  0  0  0  0  0
   63.3054   32.2300   48.5161 H   0  0  0  0  0  0  0  0  0  0  0  0
   63.0357   31.3126   46.9954 H   0  0  0  0  0  0  0  0  0  0  0  0
   64.1028   32.7576   46.9954 H   0  0  0  0  0  0  0  0  0  0  0  0
   61.9996   34.0691   47.7772 H   0  0  0  0  0  0  0  0  0  0  0  0
   62.0705   33.5160   46.0523 H   0  0  0  0  0  0  0  0  0  0  0  0
   60.6644   32.2877   49.3667 H   0  0  0  0  0  0  0  0  0  0  0  0
   59.4260   31.3395   48.4755 H   0  0  0  0  0  0  0  0  0  0  0  0
   61.1402   30.8024   48.4755 H   0  0  0  0  0  0  0  0  0  0  0  0
   59.7251   34.9333   46.9790 H   0  0  0  0  0  0  0  0  0  0  0  0
   57.7778   35.5989   45.5755 H   0  0  0  0  0  0  0  0  0  0  0  0
   56.5543   33.8858   44.2392 H   0  0  0  0  0  0  0  0  0  0  0  0
   57.2760   31.5006   44.3028 H   0  0  0  0  0  0  0  0  0  0  0  0
   60.3343   30.3097   45.2714 H   0  0  0  0  0  0  0  0  0  0  0  0
   59.3158   30.0590   46.7471 H   0  0  0  0  0  0  0  0  0  0  0  0
   59.5231   28.9977   43.2331 H   0  0  0  0  0  0  0  0  0  0  0  0
   59.9131   28.1207   44.7670 H   0  0  0  0  0  0  0  0  0  0  0  0
   57.3441   27.8055   43.1407 H   0  0  0  0  0  0  0  0  0  0  0  0
   58.7581   26.6636   43.1562 H   0  0  0  0  0  0  0  0  0  0  0  0
   56.6090   26.4350   44.6900 H   0  0  0  0  0  0  0  0  0  0  0  0
   59.2418   25.3868   44.5905 H   0  0  0  0  0  0  0  0  0  0  0  0
   58.5896   25.4253   46.2856 H   0  0  0  0  0  0  0  0  0  0  0  0
   59.0462   23.3205   43.6835 H   0  0  0  0  0  0  0  0  0  0  0  0
   57.8171   21.1929   43.2920 H   0  0  0  0  0  0  0  0  0  0  0  0
   55.5819   20.8281   44.3341 H   0  0  0  0  0  0  0  0  0  0  0  0
   54.5510   22.6107   45.7320 H   0  0  0  0  0  0  0  0  0  0  0  0
   56.7481   27.1817   46.7887 H   0  0  0  0  0  0  0  0  0  0  0  0
   58.5339   27.4572   46.6407 H   0  0  0  0  0  0  0  0  0  0  0  0
   56.3555   29.0928   45.2547 H   0  0  0  0  0  0  0  0  0  0  0  0
   57.3037   29.5807   46.7257 H   0  0  0  0  0  0  0  0  0  0  0  0
  1  2  1  0
  2  3  1  0
  3  4  1  0
  3  5  1  0
  5  6  2  0
  6  7  1  0
  7  8  2  0
  8  9  1  0
  9 10  2  0
 10 11  1  0
 11 12  1  0
 12 13  1  0
 13 14  1  0
 14 15  1  0
 15 16  1  0
 16 17  1  0
 17 18  2  0
 18 19  1  0
 19 20  2  0
 20 21  1  0
 21 22  2  0
 22 23  1  0
 23 24  2  0
 23 25  1  0
 15 26  1  0
 26 27  1  0
 10  5  1  0
 27 12  1  0
 22 17  1  0
  1 28  1  0
  1 29  1  0
  1 30  1  0
  2 31  1  0
  2 32  1  0
  4 33  1  0
  4 34  1  0
  4 35  1  0
  6 36  1  0
  7 37  1  0
  8 38  1  0
  9 39  1  0
 11 40  1  0
 11 41  1  0
 13 42  1  0
 13 43  1  0
 14 44  1  0
 14 45  1  0
 15 46  1  0
 16 47  1  0
 16 48  1  0
 18 49  1  0
 19 50  1  0
 20 51  1  0
 21 52  1  0
 26 53  1  0
 26 54  1  0
 27 55  1  0
 27 56  1  0
M  CHG  3  15   1  23   1  25  -1
M  END
>  <UniqueID>  (32) 
31

>  <SMILES>  (32) 
CCN(C)c1ccccc1CN1CC[NH+](Cc2ccccc2[N+](=O)[O-])CC1

>  <Energy>  (32) 
79.82688890214368

>  <Genealogy>  (32) 
CCN(C)c1ccccc1CN1CC[NH+](Cc2ccccc2[N+](=O)[O-])CC1 (protonated)
CCN(C)c1ccccc1CN1CC[NH+](Cc2ccccc2[N+](=O)[O-])CC1 (3D coordinates assigned)
CCN(C)c1ccccc1CN1CC[NH+](Cc2ccccc2[N+](=O)[O-])CC1 (nonaromatic ring conformer: 79.82688890214368 kcal/mol)

>  <smiles>  (32) 
CCN(C)c1ccccc1CN1CCN(Cc2ccccc2[N+](=O)[O-])CC1

>  <score_type>  (32) 
oracle

>  <origin>  (32) 
adg

>  <m_score__min__energy>  (32) 
-7.0599999999999996

>  <m_primary>  (32) 
energy

$$$$
32:0
     RDKit          3D

 57 60  0  0  0  0  0  0  0  0999 V2000
   58.0150   32.8398   49.8799 H   0  0  0  0  0  0  0  0  0  0  0  0
   58.7290   32.4490   49.1400 C   0  0  0  0  0  0  0  0  0  0  0  0
   59.4310   31.3460   49.4840 C   0  0  0  0  0  0  0  0  0  0  0  0
   59.2580   30.0330   48.8240 C   0  0  0  0  0  0  0  0  0  0  0  0
   58.2410   29.7870   48.1190 O   0  0  0  0  0  0  0  0  0  0  0  0
   60.2730   28.9880   49.0380 C   0  0  0  0  0  0  0  0  0  0  0  0
   60.3900   27.9820   48.1460 C   0  0  0  0  0  0  0  0  0  0  0  0
   60.9248   27.0771   48.4703 H   0  0  0  0  0  0  0  0  0  0  0  0
   59.8560   28.0000   46.7670 C   0  0  0  0  0  0  0  0  0  0  0  0
   58.9390   27.0120   46.3750 C   0  0  0  0  0  0  0  0  0  0  0  0
   58.6110   26.2515   47.0989 H   0  0  0  0  0  0  0  0  0  0  0  0
   58.4410   26.9900   45.0700 C   0  0  0  0  0  0  0  0  0  0  0  0
   57.7074   26.2251   44.7752 H   0  0  0  0  0  0  0  0  0  0  0  0
   58.8730   27.9380   44.1380 C   0  0  0  0  0  0  0  0  0  0  0  0
   58.4736   27.9245   43.1131 H   0  0  0  0  0  0  0  0  0  0  0  0
   59.8130   28.9030   44.5100 C   0  0  0  0  0  0  0  0  0  0  0  0
   60.1608   29.6432   43.7743 H   0  0  0  0  0  0  0  0  0  0  0  0
   60.3120   28.9290   45.8160 C   0  0  0  0  0  0  0  0  0  0  0  0
   61.0644   29.6795   46.1002 H   0  0  0  0  0  0  0  0  0  0  0  0
   61.0650   29.0500   50.3220 C   0  0  0  0  0  0  0  0  0  0  0  0
   61.9929   28.4754   50.1847 H   0  0  0  0  0  0  0  0  0  0  0  0
   60.4238   28.6340   51.1130 H   0  0  0  0  0  0  0  0  0  0  0  0
   61.4250   30.4240   50.7390 N   0  0  1  0  0  0  0  0  0  0  0  0
   61.5820   30.3060   51.7710 H   0  0  0  0  0  0  0  0  0  0  0  0
   62.7230   30.9070   50.2510 C   0  0  0  0  0  0  0  0  0  0  0  0
   63.7320   30.5080   50.8210 O   0  0  0  0  0  0  0  0  0  0  0  0
   62.9590   31.8470   49.0650 C   0  0  0  0  0  0  0  0  0  0  0  0
   64.0369   31.7303   48.8791 H   0  0  0  0  0  0  0  0  0  0  0  0
   62.7960   33.3480   49.3390 C   0  0  0  0  0  0  0  0  0  0  0  0
   61.7263   33.5785   49.4513 H   0  0  0  0  0  0  0  0  0  0  0  0
   63.3440   33.5964   50.2598 H   0  0  0  0  0  0  0  0  0  0  0  0
   63.3740   34.1900   48.1830 C   0  0  0  0  0  0  0  0  0  0  0  0
   62.8597   35.1623   48.1686 H   0  0  0  0  0  0  0  0  0  0  0  0
   64.4539   34.2939   48.3649 H   0  0  0  0  0  0  0  0  0  0  0  0
   63.2060   33.5260   46.7970 C   0  0  0  0  0  0  0  0  0  0  0  0
   63.0373   34.3112   46.0454 H   0  0  0  0  0  0  0  0  0  0  0  0
   64.1221   32.9570   46.5802 H   0  0  0  0  0  0  0  0  0  0  0  0
   62.0250   32.5500   46.7660 C   0  0  0  0  0  0  0  0  0  0  0  0
   61.1017   33.1009   46.9982 H   0  0  0  0  0  0  0  0  0  0  0  0
   61.9771   32.1032   45.7620 H   0  0  0  0  0  0  0  0  0  0  0  0
   62.1970   31.4090   47.7910 C   0  0  0  0  0  0  0  0  0  0  0  0
   61.1999   31.0498   48.0856 H   0  0  0  0  0  0  0  0  0  0  0  0
   62.7925   30.6207   47.3074 H   0  0  0  0  0  0  0  0  0  0  0  0
   60.3330   31.4300   50.6950 C   0  0  0  0  0  0  0  0  0  0  0  0
   60.7905   32.4302   50.7103 H   0  0  0  0  0  0  0  0  0  0  0  0
   59.6942   31.2267   51.5671 H   0  0  0  0  0  0  0  0  0  0  0  0
   58.8360   33.1760   47.8580 C   0  0  0  0  0  0  0  0  0  0  0  0
   59.5130   34.4070   47.7670 C   0  0  0  0  0  0  0  0  0  0  0  0
   60.0118   34.8246   48.6540 H   0  0  0  0  0  0  0  0  0  0  0  0
   59.5540   35.1010   46.5540 C   0  0  0  0  0  0  0  0  0  0  0  0
   60.0985   36.0542   46.4845 H   0  0  0  0  0  0  0  0  0  0  0  0
   58.9040   34.5850   45.4300 C   0  0  0  0  0  0  0  0  0  0  0  0
   58.9424   35.1289   44.4747 H   0  0  0  0  0  0  0  0  0  0  0  0
   58.2050   33.3780   45.5190 C   0  0  0  0  0  0  0  0  0  0  0  0
   57.6888   32.9756   44.6349 H   0  0  0  0  0  0  0  0  0  0  0  0
   58.1610   32.6810   46.7310 C   0  0  0  0  0  0  0  0  0  0  0  0
   57.5948   31.7405   46.8013 H   0  0  0  0  0  0  0  0  0  0  0  0
  1  2  1  0
  2  3  2  3
  3  4  1  0
  4  5  2  0
  4  6  1  0
  6  7  2  0
  7  8  1  0
  7  9  1  0
  9 10  2  0
 10 11  1  0
 10 12  1  0
 12 13  1  0
 12 14  2  0
 14 15  1  0
 14 16  1  0
 16 17  1  0
 16 18  2  0
 18 19  1  0
  6 20  1  0
 20 21  1  0
 20 22  1  0
 20 23  1  0
 23 24  1  1
 23 25  1  0
 25 26  2  0
 25 27  1  0
 27 28  1  0
 27 29  1  0
 29 30  1  0
 29 31  1  0
 29 32  1  0
 32 33  1  0
 32 34  1  0
 32 35  1  0
 35 36  1  0
 35 37  1  0
 35 38  1  0
 38 39  1  0
 38 40  1  0
 38 41  1  0
 41 42  1  0
 41 43  1  0
 23 44  1  0
 44 45  1  0
 44 46  1  0
  2 47  1  0
 47 48  2  0
 48 49  1  0
 48 50  1  0
 50 51  1  0
 50 52  2  0
 52 53  1  0
 52 54  1  0
 54 55  1  0
 54 56  2  0
 56 57  1  0
 44  3  1  0
 56 47  1  0
 18  9  1  0
 41 27  1  0
M  CHG  1  23   1
M  END
>  <UniqueID>  (33) 
32

>  <SMILES>  (33) 
O=C1C(=Cc2ccccc2)C[NH+](C(=O)C2CCCCC2)C/C1=C\c1ccccc1

>  <Energy>  (33) 
96.62483009789945

>  <Genealogy>  (33) 
O=C1C(=Cc2ccccc2)C[NH+](C(=O)C2CCCCC2)CC1=Cc1ccccc1 (protonated)
O=C1C(=Cc2ccccc2)C[NH+](C(=O)C2CCCCC2)C/C1=C\c1ccccc1 (cis-trans isomerization)
O=C1C(=Cc2ccccc2)C[NH+](C(=O)C2CCCCC2)C/C1=C\c1ccccc1 (3D coordinates assigned)
O=C1C(=Cc2ccccc2)C[NH+](C(=O)C2CCCCC2)C/C1=C\c1ccccc1 (nonaromatic ring conformer: 96.62483009789945 kcal/mol)

>  <smiles>  (33) 
O=C1C(=Cc2ccccc2)CN(C(=O)C2CCCCC2)CC1=Cc1ccccc1

>  <score_type>  (33) 
oracle

>  <origin>  (33) 
adg

>  <m_score__min__energy>  (33) 
-8.4900000000000002

>  <m_primary>  (33) 
energy

$$$$
33:0
     RDKit          3D

 38 40  0  0  0  0  0  0  0  0999 V2000
   59.8502   34.7315   49.1249 H   0  0  0  0  0  0  0  0  0  0  0  0
   59.5580   34.4590   48.1000 C   0  0  0  0  0  0  0  0  0  0  0  0
   59.8740   35.3120   47.0390 C   0  0  0  0  0  0  0  0  0  0  0  0
   60.4104   36.2524   47.2337 H   0  0  0  0  0  0  0  0  0  0  0  0
   59.5120   34.9760   45.7330 C   0  0  0  0  0  0  0  0  0  0  0  0
   59.7643   35.6506   44.9016 H   0  0  0  0  0  0  0  0  0  0  0  0
   58.8270   33.7790   45.4810 C   0  0  0  0  0  0  0  0  0  0  0  0
   58.4520   33.4210   44.1810 C   0  0  0  0  0  0  0  0  0  0  0  0
   58.6954   34.0834   43.3372 H   0  0  0  0  0  0  0  0  0  0  0  0
   57.7680   32.2220   43.9530 C   0  0  0  0  0  0  0  0  0  0  0  0
   57.3840   31.8700   42.6060 C   0  0  0  0  0  0  0  0  0  0  0  0
   57.0760   31.5860   41.5270 N   0  0  0  0  0  0  0  0  0  0  0  0
   57.4650   31.3840   45.0420 C   0  0  0  0  0  0  0  0  0  0  0  0
   56.8290   30.2650   44.8470 N   0  0  0  0  0  0  0  0  0  0  0  0
   57.4320   29.0260   44.3450 C   0  0  0  0  0  0  0  0  0  0  0  0
   56.9959   28.7813   43.3652 H   0  0  0  0  0  0  0  0  0  0  0  0
   57.1300   27.8830   45.3260 C   0  0  0  0  0  0  0  0  0  0  0  0
   56.0397   27.7970   45.4439 H   0  0  0  0  0  0  0  0  0  0  0  0
   57.5636   26.9609   44.9116 H   0  0  0  0  0  0  0  0  0  0  0  0
   57.7620   28.1190   46.7140 C   0  0  0  0  0  0  0  0  0  0  0  0
   57.0439   28.6763   47.3335 H   0  0  0  0  0  0  0  0  0  0  0  0
   57.9968   27.1303   47.1352 H   0  0  0  0  0  0  0  0  0  0  0  0
   59.0820   28.9150   46.6610 C   0  0  0  0  0  0  0  0  0  0  0  0
   58.8585   29.9847   46.7869 H   0  0  0  0  0  0  0  0  0  0  0  0
   59.7345   28.5508   47.4682 H   0  0  0  0  0  0  0  0  0  0  0  0
   59.8120   28.7140   45.3300 C   0  0  0  0  0  0  0  0  0  0  0  0
   60.7542   29.2814   45.3504 H   0  0  0  0  0  0  0  0  0  0  0  0
   60.0036   27.6384   45.2019 H   0  0  0  0  0  0  0  0  0  0  0  0
   58.9620   29.1980   44.1370 C   0  0  0  0  0  0  0  0  0  0  0  0
   59.1716   30.2652   43.9724 H   0  0  0  0  0  0  0  0  0  0  0  0
   59.2393   28.5758   43.2733 H   0  0  0  0  0  0  0  0  0  0  0  0
   57.8430   31.7530   46.2980 N   0  0  0  0  0  0  0  0  0  0  0  0
   58.5060   32.9140   46.5510 C   0  0  0  0  0  0  0  0  0  0  0  0
   58.8700   33.2560   47.8680 C   0  0  0  0  0  0  0  0  0  0  0  0
   58.5350   32.3450   49.0170 C   0  0  0  0  0  0  0  0  0  0  0  0
   58.7268   32.8665   49.9664 H   0  0  0  0  0  0  0  0  0  0  0  0
   57.4737   32.0611   48.9625 H   0  0  0  0  0  0  0  0  0  0  0  0
   59.1596   31.4412   48.9625 H   0  0  0  0  0  0  0  0  0  0  0  0
  1  2  1  0
  2  3  2  0
  3  4  1  0
  3  5  1  0
  5  6  1  0
  5  7  2  0
  7  8  1  0
  8  9  1  0
  8 10  2  0
 10 11  1  0
 11 12  3  0
 10 13  1  0
 13 14  2  0
 14 15  1  0
 15 16  1  0
 15 17  1  0
 17 18  1  0
 17 19  1  0
 17 20  1  0
 20 21  1  0
 20 22  1  0
 20 23  1  0
 23 24  1  0
 23 25  1  0
 23 26  1  0
 26 27  1  0
 26 28  1  0
 26 29  1  0
 29 30  1  0
 29 31  1  0
 13 32  1  0
 32 33  1  0
 33 34  2  0
 34 35  1  0
 35 36  1  0
 35 37  1  0
 35 38  1  0
 34  2  1  0
 33  7  1  0
 29 15  1  0
M  CHG  1  32  -1
M  END
>  <UniqueID>  (34) 
33

>  <SMILES>  (34) 
Cc1cccc2cc(C#N)/c(=N/C3CCCCC3)[n-]c12

>  <Energy>  (34) 
43.81954477665467

>  <Genealogy>  (34) 
Cc1cccc2cc(C#N)c(=NC3CCCCC3)[n-]c12 (protonated)
Cc1cccc2cc(C#N)/c(=N/C3CCCCC3)[n-]c12 (cis-trans isomerization)
Cc1cccc2cc(C#N)/c(=N/C3CCCCC3)[n-]c12 (3D coordinates assigned)
Cc1cccc2cc(C#N)/c(=N/C3CCCCC3)[n-]c12 (nonaromatic ring conformer: 43.81954477665467 kcal/mol)

>  <smiles>  (34) 
Cc1cccc2cc(C#N)c(=NC3CCCCC3)[nH]c12

>  <score_type>  (34) 
oracle

>  <origin>  (34) 
adg

>  <m_score__min__energy>  (34) 
-8.9600000000000009

>  <m_primary>  (34) 
energy

$$$$
34:0
     RDKit          3D

 34 35  0  0  0  0  0  0  0  0999 V2000
   56.9050   30.3380   43.2920 C   0  0  0  0  0  0  0  0  0  0  0  0
   56.5870   30.9110   44.5560 O   0  0  0  0  0  0  0  0  0  0  0  0
   57.4010   31.8310   45.2340 C   0  0  0  0  0  0  0  0  0  0  0  0
   57.0220   33.1780   45.2360 C   0  0  0  0  0  0  0  0  0  0  0  0
   57.7870   34.1290   45.9150 C   0  0  0  0  0  0  0  0  0  0  0  0
   58.9530   33.7470   46.5950 C   0  0  0  0  0  0  0  0  0  0  0  0
   59.7350   34.7680   47.3780 C   0  0  0  0  0  0  0  0  0  0  0  0
   59.3340   34.7280   48.7900 N   0  0  0  0  0  0  0  0  0  0  0  0
   60.1040   33.7360   49.5590 C   0  0  0  0  0  0  0  0  0  0  0  0
   61.5780   34.1430   49.6050 C   0  0  0  0  0  0  0  0  0  0  0  0
   62.3840   33.3570   48.6150 C   0  0  0  0  0  0  0  0  0  0  0  0
   63.1740   33.8880   47.6040 C   0  0  0  0  0  0  0  0  0  0  0  0
   63.7460   32.9120   46.7810 C   0  0  0  0  0  0  0  0  0  0  0  0
   63.4020   31.6140   47.1340 C   0  0  0  0  0  0  0  0  0  0  0  0
   62.3810   31.6810   48.4690 S   0  0  0  0  0  0  0  0  0  0  0  0
   59.3410   32.3980   46.5890 C   0  0  0  0  0  0  0  0  0  0  0  0
   58.5720   31.4460   45.9140 C   0  0  0  0  0  0  0  0  0  0  0  0
   57.4337   29.3854   43.4438 H   0  0  0  0  0  0  0  0  0  0  0  0
   55.9782   30.1571   42.7278 H   0  0  0  0  0  0  0  0  0  0  0  0
   57.5488   31.0288   42.7278 H   0  0  0  0  0  0  0  0  0  0  0  0
   56.1145   33.4903   44.6986 H   0  0  0  0  0  0  0  0  0  0  0  0
   57.4735   35.1834   45.9166 H   0  0  0  0  0  0  0  0  0  0  0  0
   60.8092   34.5453   47.2973 H   0  0  0  0  0  0  0  0  0  0  0  0
   59.5319   35.7698   46.9717 H   0  0  0  0  0  0  0  0  0  0  0  0
   59.5080   35.6730   49.2070 H   0  0  0  0  0  0  0  0  0  0  0  0
   59.7084   33.6820   50.5840 H   0  0  0  0  0  0  0  0  0  0  0  0
   60.0147   32.7529   49.0737 H   0  0  0  0  0  0  0  0  0  0  0  0
   61.6629   35.2139   49.3685 H   0  0  0  0  0  0  0  0  0  0  0  0
   61.9664   33.9389   50.6137 H   0  0  0  0  0  0  0  0  0  0  0  0
   63.3339   34.9673   47.4643 H   0  0  0  0  0  0  0  0  0  0  0  0
   64.4061   33.1505   45.9340 H   0  0  0  0  0  0  0  0  0  0  0  0
   63.7396   30.6980   46.6270 H   0  0  0  0  0  0  0  0  0  0  0  0
   60.2545   32.0887   47.1180 H   0  0  0  0  0  0  0  0  0  0  0  0
   58.8832   30.3909   45.9141 H   0  0  0  0  0  0  0  0  0  0  0  0
  1  2  1  0
  2  3  1  0
  3  4  2  0
  4  5  1  0
  5  6  2  0
  6  7  1  0
  7  8  1  0
  8  9  1  0
  9 10  1  0
 10 11  1  0
 11 12  2  0
 12 13  1  0
 13 14  2  0
 14 15  1  0
  6 16  1  0
 16 17  2  0
 17  3  1  0
 15 11  1  0
  1 18  1  0
  1 19  1  0
  1 20  1  0
  4 21  1  0
  5 22  1  0
  7 23  1  0
  7 24  1  0
  8 25  1  0
  9 26  1  0
  9 27  1  0
 10 28  1  0
 10 29  1  0
 12 30  1  0
 13 31  1  0
 14 32  1  0
 16 33  1  0
 17 34  1  0
M  END
>  <UniqueID>  (35) 
34

>  <SMILES>  (35) 
COc1ccc(CNCCc2cccs2)cc1

>  <Energy>  (35) 
51.80136392792492

>  <Genealogy>  (35) 
COc1ccc(CNCCc2cccs2)cc1 (3D coordinates assigned)
COc1ccc(CNCCc2cccs2)cc1 (optimized conformer: 51.80136392792492 kcal/mol)

>  <smiles>  (35) 
COc1ccc(CNCCc2cccs2)cc1

>  <score_type>  (35) 
oracle

>  <origin>  (35) 
adg

>  <m_score__min__energy>  (35) 
-6.1399999999999997

>  <m_primary>  (35) 
energy

$$$$
35:0
     RDKit          3D

 39 41  0  0  0  0  0  0  0  0999 V2000
   57.5020   31.6120   43.4970 C   0  0  0  0  0  0  0  0  0  0  0  0
   57.0690   30.1830   43.2120 C   0  0  0  0  0  0  0  0  0  0  0  0
   55.8850   29.6260   44.4820 S   0  0  0  0  0  0  0  0  0  0  0  0
   57.1730   29.2470   45.6770 C   0  0  0  0  0  0  0  0  0  0  0  0
   57.7820   30.2690   46.3210 N   0  0  0  0  0  0  0  0  0  0  0  0
   58.7660   30.0540   47.2250 C   0  0  0  0  0  0  0  0  0  0  0  0
   59.3610   31.1530   47.8520 C   0  0  0  0  0  0  0  0  0  0  0  0
   60.3690   30.9630   48.7910 C   0  0  0  0  0  0  0  0  0  0  0  0
   60.7930   29.6760   49.1130 C   0  0  0  0  0  0  0  0  0  0  0  0
   60.2160   28.5480   48.4990 C   0  0  0  0  0  0  0  0  0  0  0  0
   60.7400   27.1890   48.8940 C   0  0  0  0  0  0  0  0  0  0  0  0
   59.1760   28.7350   47.5350 C   0  0  0  0  0  0  0  0  0  0  0  0
   58.5090   27.6800   46.8590 C   0  0  0  0  0  0  0  0  0  0  0  0
   58.7710   26.4770   47.1290 O   0  0  0  0  0  0  0  0  0  0  0  0
   57.5480   27.9590   45.9220 N   0  0  0  0  0  0  0  0  0  0  0  0
   56.8850   26.9210   45.2390 N   0  0  0  0  0  0  0  0  0  0  0  0
   55.9770   26.0110   45.8740 C   0  0  0  0  0  0  0  0  0  0  0  0
   54.7650   26.3310   46.0100 O   0  0  0  0  0  0  0  0  0  0  0  0
   56.4670   24.7170   46.4030 C   0  0  0  0  0  0  0  0  0  0  0  0
   56.2790   24.3790   47.7540 C   0  0  0  0  0  0  0  0  0  0  0  0
   56.7480   23.1520   48.2320 C   0  0  0  0  0  0  0  0  0  0  0  0
   57.3840   22.2910   47.3950 N   0  0  0  0  0  0  0  0  0  0  0  0
   57.5810   22.5890   46.0840 C   0  0  0  0  0  0  0  0  0  0  0  0
   57.1290   23.8040   45.5640 C   0  0  0  0  0  0  0  0  0  0  0  0
   57.5501   31.7706   44.5844 H   0  0  0  0  0  0  0  0  0  0  0  0
   58.4942   31.7893   43.0564 H   0  0  0  0  0  0  0  0  0  0  0  0
   56.7751   32.3102   43.0564 H   0  0  0  0  0  0  0  0  0  0  0  0
   56.5903   30.1377   42.2227 H   0  0  0  0  0  0  0  0  0  0  0  0
   57.9522   29.5275   43.2291 H   0  0  0  0  0  0  0  0  0  0  0  0
   59.0305   32.1718   47.6016 H   0  0  0  0  0  0  0  0  0  0  0  0
   60.8329   31.8318   49.2809 H   0  0  0  0  0  0  0  0  0  0  0  0
   61.5905   29.5388   49.8581 H   0  0  0  0  0  0  0  0  0  0  0  0
   60.7697   27.1121   49.9909 H   0  0  0  0  0  0  0  0  0  0  0  0
   60.0781   26.4091   48.4895 H   0  0  0  0  0  0  0  0  0  0  0  0
   61.7542   27.0553   48.4895 H   0  0  0  0  0  0  0  0  0  0  0  0
   55.7653   25.0765   48.4320 H   0  0  0  0  0  0  0  0  0  0  0  0
   56.6018   22.8827   49.2885 H   0  0  0  0  0  0  0  0  0  0  0  0
   58.0980   21.8712   45.4302 H   0  0  0  0  0  0  0  0  0  0  0  0
   57.2903   24.0452   44.5030 H   0  0  0  0  0  0  0  0  0  0  0  0
  1  2  1  0
  2  3  1  0
  3  4  1  0
  4  5  2  0
  5  6  1  0
  6  7  2  0
  7  8  1  0
  8  9  2  0
  9 10  1  0
 10 11  1  0
 10 12  2  0
 12 13  1  0
 13 14  2  0
 13 15  1  0
 15 16  1  0
 16 17  1  0
 17 18  2  0
 17 19  1  0
 19 20  2  0
 20 21  1  0
 21 22  2  0
 22 23  1  0
 23 24  2  0
 15  4  1  0
 24 19  1  0
 12  6  1  0
  1 25  1  0
  1 26  1  0
  1 27  1  0
  2 28  1  0
  2 29  1  0
  7 30  1  0
  8 31  1  0
  9 32  1  0
 11 33  1  0
 11 34  1  0
 11 35  1  0
 20 36  1  0
 21 37  1  0
 23 38  1  0
 24 39  1  0
M  CHG  1  16  -1
M  END
>  <UniqueID>  (36) 
35

>  <SMILES>  (36) 
CCSc1nc2cccc(C)c2c(=O)n1[N-]C(=O)c1ccncc1

>  <Energy>  (36) 
51.325312811106535

>  <Genealogy>  (36) 
CCSc1nc2cccc(C)c2c(=O)n1[N-]C(=O)c1ccncc1 (protonated)
CCSc1nc2cccc(C)c2c(=O)n1[N-]C(=O)c1ccncc1 (3D coordinates assigned)
CCSc1nc2cccc(C)c2c(=O)n1[N-]C(=O)c1ccncc1 (optimized conformer: 51.325312811106535 kcal/mol)

>  <smiles>  (36) 
CCSc1nc2cccc(C)c2c(=O)n1NC(=O)c1ccncc1

>  <score_type>  (36) 
oracle

>  <origin>  (36) 
adg

>  <m_score__min__energy>  (36) 
-9.3499999999999996

>  <m_primary>  (36) 
energy

$$$$
36:0
     RDKit          3D

 31 32  0  0  0  0  0  0  0  0999 V2000
   57.4040   32.7190   40.5490 C   0  0  0  0  0  0  0  0  0  0  0  0
   57.3590   31.8200   41.7800 C   0  0  0  0  0  0  0  0  0  0  0  0
   58.3220   32.2380   42.7460 O   0  0  0  0  0  0  0  0  0  0  0  0
   58.0540   32.5610   44.0890 C   0  0  0  0  0  0  0  0  0  0  0  0
   57.8500   33.8850   44.5200 C   0  0  0  0  0  0  0  0  0  0  0  0
   57.6160   34.1550   45.8680 C   0  0  0  0  0  0  0  0  0  0  0  0
   57.5880   33.1030   46.7820 C   0  0  0  0  0  0  0  0  0  0  0  0
   57.7810   31.8290   46.3560 N   0  0  0  0  0  0  0  0  0  0  0  0
   58.0110   31.5270   45.0470 C   0  0  0  0  0  0  0  0  0  0  0  0
   58.1930   30.1090   44.6570 C   0  0  0  0  0  0  0  0  0  0  0  0
   59.4310   29.4870   44.8810 C   0  0  0  0  0  0  0  0  0  0  0  0
   59.6360   28.1660   44.4920 C   0  0  0  0  0  0  0  0  0  0  0  0
   58.6030   27.4700   43.8700 C   0  0  0  0  0  0  0  0  0  0  0  0
   57.4040   28.0730   43.6510 N   0  0  0  0  0  0  0  0  0  0  0  0
   57.1630   29.3630   44.0330 C   0  0  0  0  0  0  0  0  0  0  0  0
   55.8080   29.9650   43.7690 C   0  0  0  0  0  0  0  0  0  0  0  0
   57.4567   33.7713   40.8652 H   0  0  0  0  0  0  0  0  0  0  0  0
   58.2909   32.4722   39.9469 H   0  0  0  0  0  0  0  0  0  0  0  0
   56.4969   32.5620   39.9469 H   0  0  0  0  0  0  0  0  0  0  0  0
   56.3549   31.8694   42.2265 H   0  0  0  0  0  0  0  0  0  0  0  0
   57.5905   30.7893   41.4734 H   0  0  0  0  0  0  0  0  0  0  0  0
   57.8752   34.7090   43.7918 H   0  0  0  0  0  0  0  0  0  0  0  0
   57.4550   35.1890   46.2070 H   0  0  0  0  0  0  0  0  0  0  0  0
   57.4095   33.3054   47.8484 H   0  0  0  0  0  0  0  0  0  0  0  0
   60.2441   30.0464   45.3667 H   0  0  0  0  0  0  0  0  0  0  0  0
   60.6044   27.6771   44.6743 H   0  0  0  0  0  0  0  0  0  0  0  0
   58.7574   26.4277   43.5543 H   0  0  0  0  0  0  0  0  0  0  0  0
   56.6540   27.5190   43.1780 H   0  0  0  0  0  0  0  0  0  0  0  0
   55.3120   30.1854   44.7258 H   0  0  0  0  0  0  0  0  0  0  0  0
   55.9258   30.8954   43.1942 H   0  0  0  0  0  0  0  0  0  0  0  0
   55.1965   29.2539   43.1942 H   0  0  0  0  0  0  0  0  0  0  0  0
  1  2  1  0
  2  3  1  0
  3  4  1  0
  4  5  2  0
  5  6  1  0
  6  7  2  0
  7  8  1  0
  8  9  2  0
  9 10  1  0
 10 11  2  0
 11 12  1  0
 12 13  2  0
 13 14  1  0
 14 15  2  0
 15 16  1  0
  9  4  1  0
 15 10  1  0
  1 17  1  0
  1 18  1  0
  1 19  1  0
  2 20  1  0
  2 21  1  0
  5 22  1  0
  6 23  1  0
  7 24  1  0
 11 25  1  0
 12 26  1  0
 13 27  1  0
 14 28  1  0
 16 29  1  0
 16 30  1  0
 16 31  1  0
M  CHG  1  14   1
M  END
>  <UniqueID>  (37) 
36

>  <SMILES>  (37) 
CCOc1cccnc1-c1ccc[nH+]c1C

>  <Energy>  (37) 
36.599227274176336

>  <Genealogy>  (37) 
CCOc1cccnc1-c1ccc[nH+]c1C (protonated)
CCOc1cccnc1-c1ccc[nH+]c1C (3D coordinates assigned)
CCOc1cccnc1-c1ccc[nH+]c1C (optimized conformer: 36.599227274176336 kcal/mol)

>  <smiles>  (37) 
CCOc1cccnc1-c1cccnc1C

>  <score_type>  (37) 
oracle

>  <origin>  (37) 
adg

>  <m_score__min__energy>  (37) 
-4.8499999999999996

>  <m_primary>  (37) 
energy

$$$$
37:0
     RDKit          3D

 63 65  0  0  0  0  0  0  0  0999 V2000
   62.5570   32.6400   48.4330 C   0  0  0  0  0  0  0  0  0  0  0  0
   61.4540   32.1580   49.1690 O   0  0  0  0  0  0  0  0  0  0  0  0
   60.6490   33.2260   49.6450 C   0  0  2  0  0  0  0  0  0  0  0  0
   59.2080   32.7340   49.8740 C   0  0  0  0  0  0  0  0  0  0  0  0
   58.5020   32.3050   48.5720 C   0  0  0  0  0  0  0  0  0  0  0  0
   58.7950   33.2170   47.3250 C   0  0  0  0  0  0  0  0  0  0  0  0
   59.8090   32.5090   46.3570 C   0  0  0  0  0  0  0  0  0  0  0  0
   59.1090   31.6650   45.2880 C   0  0  0  0  0  0  0  0  0  0  0  0
   58.2570   32.5530   44.3480 C   0  0  1  0  0  0  0  0  0  0  0  0
   57.2100   31.7060   43.5980 C   0  0  0  0  0  0  0  0  0  0  0  0
   56.2820   31.0710   44.5320 N   0  0  0  0  0  0  0  0  0  0  0  0
   56.2170   29.6560   44.7650 C   0  0  0  0  0  0  0  0  0  0  0  0
   55.1780   29.0010   44.4670 O   0  0  0  0  0  0  0  0  0  0  0  0
   57.4090   28.9440   45.3520 C   0  0  0  0  0  0  0  0  0  0  0  0
   57.5080   27.5160   44.9530 N   0  0  0  0  0  0  0  0  0  0  0  0
   58.7430   27.2610   44.1590 C   0  0  0  0  0  0  0  0  0  0  0  0
   59.8670   28.2650   44.4830 C   0  0  0  0  0  0  0  0  0  0  0  0
   60.3720   28.2090   45.9350 C   0  0  0  0  0  0  0  0  0  0  0  0
   59.2900   28.0890   47.0230 C   0  0  0  0  0  0  0  0  0  0  0  0
   58.6050   26.7130   47.0820 C   0  0  0  0  0  0  0  0  0  0  0  0
   57.3900   26.6310   46.1380 C   0  0  0  0  0  0  0  0  0  0  0  0
   57.6290   33.7720   45.0800 C   0  0  0  0  0  0  0  0  0  0  0  0
   57.4450   33.5100   46.5820 C   0  0  0  0  0  0  0  0  0  0  0  0
   59.4040   34.5690   47.7990 C   0  0  0  0  0  0  0  0  0  0  0  0
   60.6960   34.3920   48.6260 C   0  0  0  0  0  0  0  0  0  0  0  0
   63.3394   32.9819   49.1265 H   0  0  0  0  0  0  0  0  0  0  0  0
   62.9554   31.8340   47.7993 H   0  0  0  0  0  0  0  0  0  0  0  0
   62.2361   33.4799   47.7993 H   0  0  0  0  0  0  0  0  0  0  0  0
   61.0352   33.5903   50.6084 H   0  0  0  0  0  0  0  0  0  0  0  0
   59.2365   31.8724   50.5572 H   0  0  0  0  0  0  0  0  0  0  0  0
   58.6371   33.5746   50.2954 H   0  0  0  0  0  0  0  0  0  0  0  0
   58.8253   31.2818   48.3298 H   0  0  0  0  0  0  0  0  0  0  0  0
   57.4225   32.3878   48.7663 H   0  0  0  0  0  0  0  0  0  0  0  0
   60.4154   33.2787   45.8572 H   0  0  0  0  0  0  0  0  0  0  0  0
   60.4311   31.8328   46.9617 H   0  0  0  0  0  0  0  0  0  0  0  0
   59.8684   31.1367   44.6928 H   0  0  0  0  0  0  0  0  0  0  0  0
   58.4434   30.9470   45.7895 H   0  0  0  0  0  0  0  0  0  0  0  0
   58.9347   32.9836   43.5961 H   0  0  0  0  0  0  0  0  0  0  0  0
   56.6439   32.3563   42.9149 H   0  0  0  0  0  0  0  0  0  0  0  0
   57.7340   30.9190   43.0358 H   0  0  0  0  0  0  0  0  0  0  0  0
   58.3210   29.4615   45.0196 H   0  0  0  0  0  0  0  0  0  0  0  0
   57.2895   28.9647   46.4453 H   0  0  0  0  0  0  0  0  0  0  0  0
   56.6720   27.3430   44.3450 H   0  0  0  0  0  0  0  0  0  0  0  0
   59.1020   26.2451   44.3805 H   0  0  0  0  0  0  0  0  0  0  0  0
   58.4876   27.3750   43.0952 H   0  0  0  0  0  0  0  0  0  0  0  0
   60.7163   28.0575   43.8154 H   0  0  0  0  0  0  0  0  0  0  0  0
   59.4417   29.2690   44.3377 H   0  0  0  0  0  0  0  0  0  0  0  0
   61.0383   27.3385   46.0259 H   0  0  0  0  0  0  0  0  0  0  0  0
   60.8658   29.1755   46.1141 H   0  0  0  0  0  0  0  0  0  0  0  0
   59.7591   28.2830   47.9989 H   0  0  0  0  0  0  0  0  0  0  0  0
   58.5079   28.8210   46.7731 H   0  0  0  0  0  0  0  0  0  0  0  0
   59.3330   25.9413   46.7914 H   0  0  0  0  0  0  0  0  0  0  0  0
   58.2471   26.5559   48.1102 H   0  0  0  0  0  0  0  0  0  0  0  0
   57.2877   25.5926   45.7897 H   0  0  0  0  0  0  0  0  0  0  0  0
   56.5106   26.9649   46.7083 H   0  0  0  0  0  0  0  0  0  0  0  0
   58.2885   34.6426   44.9497 H   0  0  0  0  0  0  0  0  0  0  0  0
   56.6362   33.9555   44.6434 H   0  0  0  0  0  0  0  0  0  0  0  0
   56.9798   34.3965   47.0377 H   0  0  0  0  0  0  0  0  0  0  0  0
   56.8133   32.6153   46.6841 H   0  0  0  0  0  0  0  0  0  0  0  0
   59.6356   35.1788   46.9133 H   0  0  0  0  0  0  0  0  0  0  0  0
   58.6612   35.0545   48.4491 H   0  0  0  0  0  0  0  0  0  0  0  0
   61.5274   34.2072   47.9299 H   0  0  0  0  0  0  0  0  0  0  0  0
   60.8233   35.3150   49.2108 H   0  0  0  0  0  0  0  0  0  0  0  0
  1  2  1  0
  2  3  1  0
  3  4  1  0
  4  5  1  0
  5  6  1  0
  6  7  1  0
  7  8  1  0
  8  9  1  0
  9 10  1  0
 10 11  1  0
 11 12  1  0
 12 13  2  0
 12 14  1  0
 14 15  1  0
 15 16  1  0
 16 17  1  0
 17 18  1  0
 18 19  1  0
 19 20  1  0
 20 21  1  0
  9 22  1  0
 22 23  1  0
  6 24  1  0
 24 25  1  0
 25  3  1  0
 23  6  1  0
 21 15  1  0
  1 26  1  0
  1 27  1  0
  1 28  1  0
  3 29  1  1
  4 30  1  0
  4 31  1  0
  5 32  1  0
  5 33  1  0
  7 34  1  0
  7 35  1  0
  8 36  1  0
  8 37  1  0
  9 38  1  6
 10 39  1  0
 10 40  1  0
 14 41  1  0
 14 42  1  0
 15 43  1  0
 16 44  1  0
 16 45  1  0
 17 46  1  0
 17 47  1  0
 18 48  1  0
 18 49  1  0
 19 50  1  0
 19 51  1  0
 20 52  1  0
 20 53  1  0
 21 54  1  0
 21 55  1  0
 22 56  1  0
 22 57  1  0
 23 58  1  0
 23 59  1  0
 24 60  1  0
 24 61  1  0
 25 62  1  0
 25 63  1  0
M  CHG  2  11  -1  15   1
M  END
>  <UniqueID>  (38) 
37

>  <SMILES>  (38) 
COC1CCC2(CCC(C[N-]C(=O)C[NH+]3CCCCCC3)CC2)CC1

>  <Energy>  (38) 
78.99855833005803

>  <Genealogy>  (38) 
COC1CCC2(CCC(C[N-]C(=O)C[NH+]3CCCCCC3)CC2)CC1 (protonated)
COC1CCC2(CCC(C[N-]C(=O)C[NH+]3CCCCCC3)CC2)CC1 (3D coordinates assigned)
COC1CCC2(CCC(C[N-]C(=O)C[NH+]3CCCCCC3)CC2)CC1 (nonaromatic ring conformer: 78.99855833005803 kcal/mol)

>  <smiles>  (38) 
COC1CCC2(CCC(CNC(=O)CN3CCCCCC3)CC2)CC1

>  <score_type>  (38) 
oracle

>  <origin>  (38) 
adg

>  <m_score__min__energy>  (38) 
-6.6200000000000001

>  <m_primary>  (38) 
energy

$$$$
38:0
     RDKit          3D

 39 41  0  0  0  0  0  0  0  0999 V2000
   61.9040   33.8280   51.4950 C   0  0  0  0  0  0  0  0  0  0  0  0
   62.4690   33.4960   50.1450 C   0  0  0  0  0  0  0  0  0  0  0  0
   63.8490   33.3090   49.9900 C   0  0  0  0  0  0  0  0  0  0  0  0
   64.3650   33.0320   48.7240 C   0  0  0  0  0  0  0  0  0  0  0  0
   63.5090   32.9560   47.6260 C   0  0  0  0  0  0  0  0  0  0  0  0
   62.1340   33.1690   47.8060 C   0  0  0  0  0  0  0  0  0  0  0  0
   61.1900   33.0810   46.6370 C   0  0  0  0  0  0  0  0  0  0  0  0
   59.9190   33.7800   46.9310 N   0  0  0  0  0  0  0  0  0  0  0  0
   59.0290   33.0370   47.8520 C   0  0  0  0  0  0  0  0  0  0  0  0
   58.5170   31.7170   47.2500 C   0  0  0  0  0  0  0  0  0  0  0  0
   58.1260   31.8590   45.8070 C   0  0  0  0  0  0  0  0  0  0  0  0
   57.4580   30.8430   45.2000 N   0  0  0  0  0  0  0  0  0  0  0  0
   57.1190   30.8800   43.9080 N   0  0  0  0  0  0  0  0  0  0  0  0
   56.3950   29.7450   43.3380 C   0  0  0  0  0  0  0  0  0  0  0  0
   57.4470   31.9610   43.1370 C   0  0  0  0  0  0  0  0  0  0  0  0
   57.1250   32.0060   41.9170 O   0  0  0  0  0  0  0  0  0  0  0  0
   58.1430   33.0290   43.7030 C   0  0  0  0  0  0  0  0  0  0  0  0
   58.5070   32.9760   45.0510 C   0  0  0  0  0  0  0  0  0  0  0  0
   59.1980   34.1530   45.6970 C   0  0  0  0  0  0  0  0  0  0  0  0
   61.6490   33.4360   49.0550 N   0  0  0  0  0  0  0  0  0  0  0  0
   62.5703   33.4365   52.2777 H   0  0  0  0  0  0  0  0  0  0  0  0
   61.8188   34.9198   51.5984 H   0  0  0  0  0  0  0  0  0  0  0  0
   60.9087   33.3711   51.5984 H   0  0  0  0  0  0  0  0  0  0  0  0
   64.5196   33.3800   50.8591 H   0  0  0  0  0  0  0  0  0  0  0  0
   65.4455   32.8738   48.5921 H   0  0  0  0  0  0  0  0  0  0  0  0
   63.9087   32.7308   46.6262 H   0  0  0  0  0  0  0  0  0  0  0  0
   61.6611   33.5448   45.7579 H   0  0  0  0  0  0  0  0  0  0  0  0
   60.9710   32.0210   46.4410 H   0  0  0  0  0  0  0  0  0  0  0  0
   59.5862   32.8106   48.7730 H   0  0  0  0  0  0  0  0  0  0  0  0
   58.1533   33.6722   48.0510 H   0  0  0  0  0  0  0  0  0  0  0  0
   59.3126   30.9614   47.3276 H   0  0  0  0  0  0  0  0  0  0  0  0
   57.6203   31.4177   47.8124 H   0  0  0  0  0  0  0  0  0  0  0  0
   55.9960   29.1194   44.1501 H   0  0  0  0  0  0  0  0  0  0  0  0
   55.5649   30.1138   42.7175 H   0  0  0  0  0  0  0  0  0  0  0  0
   57.0794   29.1478   42.7175 H   0  0  0  0  0  0  0  0  0  0  0  0
   58.4034   33.9064   43.0928 H   0  0  0  0  0  0  0  0  0  0  0  0
   59.9190   34.5747   44.9813 H   0  0  0  0  0  0  0  0  0  0  0  0
   58.4239   34.8849   45.9712 H   0  0  0  0  0  0  0  0  0  0  0  0
   60.6230   33.5960   49.1760 H   0  0  0  0  0  0  0  0  0  0  0  0
  1  2  1  0
  2  3  2  0
  3  4  1  0
  4  5  2  0
  5  6  1  0
  6  7  1  0
  7  8  1  0
  8  9  1  0
  9 10  1  0
 10 11  1  0
 11 12  2  0
 12 13  1  0
 13 14  1  0
 13 15  1  0
 15 16  2  0
 15 17  1  0
 17 18  2  0
 18 19  1  0
  6 20  2  0
 20  2  1  0
 19  8  1  0
 18 11  1  0
  1 21  1  0
  1 22  1  0
  1 23  1  0
  3 24  1  0
  4 25  1  0
  5 26  1  0
  7 27  1  0
  7 28  1  0
  9 29  1  0
  9 30  1  0
 10 31  1  0
 10 32  1  0
 14 33  1  0
 14 34  1  0
 14 35  1  0
 17 36  1  0
 19 37  1  0
 19 38  1  0
 20 39  1  0
M  CHG  1  20   1
M  END
>  <UniqueID>  (39) 
38

>  <SMILES>  (39) 
Cc1cccc(CN2CCc3nn(C)c(=O)cc3C2)[nH+]1

>  <Energy>  (39) 
46.06525198770814

>  <Genealogy>  (39) 
Cc1cccc(CN2CCc3nn(C)c(=O)cc3C2)[nH+]1 (protonated)
Cc1cccc(CN2CCc3nn(C)c(=O)cc3C2)[nH+]1 (3D coordinates assigned)
Cc1cccc(CN2CCc3nn(C)c(=O)cc3C2)[nH+]1 (nonaromatic ring conformer: 46.06525198770814 kcal/mol)

>  <smiles>  (39) 
Cc1cccc(CN2CCc3nn(C)c(=O)cc3C2)n1

>  <score_type>  (39) 
oracle

>  <origin>  (39) 
adg

>  <m_score__min__energy>  (39) 
-5.7800000000000002

>  <m_primary>  (39) 
energy

$$$$
39:0
     RDKit          3D

 24 26  0  0  0  0  0  0  0  0999 V2000
   57.7700   30.5560   46.4110 O   0  0  0  0  0  0  0  0  0  0  0  0
   58.0330   31.4470   45.5550 C   0  0  0  0  0  0  0  0  0  0  0  0
   58.5320   32.6940   45.9730 C   0  0  0  0  0  0  0  0  0  0  0  0
   58.7890   32.9900   47.3250 C   0  0  0  0  0  0  0  0  0  0  0  0
   59.2860   34.2470   47.6840 C   0  0  0  0  0  0  0  0  0  0  0  0
   59.5270   35.2150   46.7050 C   0  0  0  0  0  0  0  0  0  0  0  0
   59.2710   34.9310   45.3600 C   0  0  0  0  0  0  0  0  0  0  0  0
   58.7750   33.6750   44.9910 C   0  0  0  0  0  0  0  0  0  0  0  0
   58.5160   33.4040   43.6890 N   0  0  0  0  0  0  0  0  0  0  0  0
   58.0380   32.1940   43.3040 C   0  0  0  0  0  0  0  0  0  0  0  0
   57.8260   31.2030   44.2210 N   0  0  0  0  0  0  0  0  0  0  0  0
   57.2630   29.9200   43.7730 C   0  0  0  0  0  0  0  0  0  0  0  0
   55.7680   29.7570   44.0250 C   0  0  0  0  0  0  0  0  0  0  0  0
   56.2710   30.0390   42.6220 C   0  0  0  0  0  0  0  0  0  0  0  0
   58.5988   32.2323   48.0994 H   0  0  0  0  0  0  0  0  0  0  0  0
   59.4880   34.4747   48.7410 H   0  0  0  0  0  0  0  0  0  0  0  0
   59.9187   36.2017   46.9930 H   0  0  0  0  0  0  0  0  0  0  0  0
   59.4595   35.6950   44.5914 H   0  0  0  0  0  0  0  0  0  0  0  0
   57.8187   32.0086   42.2422 H   0  0  0  0  0  0  0  0  0  0  0  0
   58.1586   29.3150   43.9777 H   0  0  0  0  0  0  0  0  0  0  0  0
   55.3571   28.7672   44.2730 H   0  0  0  0  0  0  0  0  0  0  0  0
   55.0375   30.2295   44.6981 H   0  0  0  0  0  0  0  0  0  0  0  0
   56.2244   29.2535   41.8533 H   0  0  0  0  0  0  0  0  0  0  0  0
   56.0554   30.8005   41.8580 H   0  0  0  0  0  0  0  0  0  0  0  0
  1  2  2  0
  2  3  1  0
  3  4  2  0
  4  5  1  0
  5  6  2  0
  6  7  1  0
  7  8  2  0
  8  9  1  0
  9 10  2  0
 10 11  1  0
 11 12  1  0
 12 13  1  0
 13 14  1  0
 11  2  1  0
 14 12  1  0
  8  3  1  0
  4 15  1  0
  5 16  1  0
  6 17  1  0
  7 18  1  0
 10 19  1  0
 12 20  1  0
 13 21  1  0
 13 22  1  0
 14 23  1  0
 14 24  1  0
M  END
>  <UniqueID>  (40) 
39

>  <SMILES>  (40) 
O=c1c2ccccc2ncn1C1CC1

>  <Energy>  (40) 
297.1216100616479

>  <Genealogy>  (40) 
O=c1c2ccccc2ncn1C1CC1 (3D coordinates assigned)
O=c1c2ccccc2ncn1C1CC1 (nonaromatic ring conformer: 297.1216100616479 kcal/mol)

>  <smiles>  (40) 
O=c1c2ccccc2ncn1C1CC1

>  <score_type>  (40) 
oracle

>  <origin>  (40) 
adg

>  <m_score__min__energy>  (40) 
-5.8399999999999999

>  <m_primary>  (40) 
energy

$$$$
40:0
     RDKit          3D

 42 44  0  0  0  0  0  0  0  0999 V2000
   66.3070   32.7210   50.1120 C   0  0  0  0  0  0  0  0  0  0  0  0
   65.0770   32.2660   49.5900 O   0  0  0  0  0  0  0  0  0  0  0  0
   64.1090   33.2950   49.6540 C   0  0  0  0  0  0  0  0  0  0  0  0
   63.2570   33.2840   48.4240 C   0  0  0  0  0  0  0  0  0  0  0  0
   62.0860   32.6270   48.3240 N   0  0  0  0  0  0  0  0  0  0  0  0
   61.7170   32.9460   47.0660 C   0  0  0  0  0  0  0  0  0  0  0  0
   60.4450   32.4730   46.4350 C   0  0  0  0  0  0  0  0  0  0  0  0
   59.3180   33.3520   46.8410 N   0  0  0  0  0  0  0  0  0  0  0  0
   59.8380   34.6170   47.3960 C   0  0  0  0  0  0  0  0  0  0  0  0
   59.9240   35.6330   46.2540 C   0  0  0  0  0  0  0  0  0  0  0  0
   59.2320   34.9730   45.0730 C   0  0  0  0  0  0  0  0  0  0  0  0
   58.4860   33.8020   45.7060 C   0  0  1  0  0  0  0  0  0  0  0  0
   58.0290   32.6840   44.7740 C   0  0  0  0  0  0  0  0  0  0  0  0
   58.1290   32.7720   43.3730 C   0  0  0  0  0  0  0  0  0  0  0  0
   57.6540   31.7250   42.5790 C   0  0  0  0  0  0  0  0  0  0  0  0
   57.0790   30.6380   43.1520 N   0  0  0  0  0  0  0  0  0  0  0  0
   56.9390   30.5310   44.5030 C   0  0  0  0  0  0  0  0  0  0  0  0
   56.3360   29.4060   45.0740 O   0  0  0  0  0  0  0  0  0  0  0  0
   57.0240   28.1720   45.2530 C   0  0  0  0  0  0  0  0  0  0  0  0
   57.4000   31.5570   45.3320 C   0  0  0  0  0  0  0  0  0  0  0  0
   62.6070   33.7460   46.4480 N   0  0  0  0  0  0  0  0  0  0  0  0
   63.5460   33.9330   47.3240 O   0  0  0  0  0  0  0  0  0  0  0  0
   66.2668   32.7061   51.2112 H   0  0  0  0  0  0  0  0  0  0  0  0
   67.1180   32.0634   49.7658 H   0  0  0  0  0  0  0  0  0  0  0  0
   66.4948   33.7481   49.7658 H   0  0  0  0  0  0  0  0  0  0  0  0
   63.4725   33.1399   50.5377 H   0  0  0  0  0  0  0  0  0  0  0  0
   64.6224   34.2652   49.7248 H   0  0  0  0  0  0  0  0  0  0  0  0
   60.5503   32.4981   45.3403 H   0  0  0  0  0  0  0  0  0  0  0  0
   60.2382   31.4448   46.7668 H   0  0  0  0  0  0  0  0  0  0  0  0
   59.1588   34.9894   48.1770 H   0  0  0  0  0  0  0  0  0  0  0  0
   60.8304   34.4593   47.8435 H   0  0  0  0  0  0  0  0  0  0  0  0
   59.4097   36.5656   46.5292 H   0  0  0  0  0  0  0  0  0  0  0  0
   60.9656   35.8991   46.0211 H   0  0  0  0  0  0  0  0  0  0  0  0
   58.5319   35.6693   44.5882 H   0  0  0  0  0  0  0  0  0  0  0  0
   59.9336   34.6589   44.2862 H   0  0  0  0  0  0  0  0  0  0  0  0
   57.5005   34.1556   46.0433 H   0  0  0  0  0  0  0  0  0  0  0  0
   58.5787   33.6604   42.9055 H   0  0  0  0  0  0  0  0  0  0  0  0
   57.7467   31.7823   41.4844 H   0  0  0  0  0  0  0  0  0  0  0  0
   57.1377   27.9681   46.3280 H   0  0  0  0  0  0  0  0  0  0  0  0
   56.4484   27.3600   44.7847 H   0  0  0  0  0  0  0  0  0  0  0  0
   58.0173   28.2347   44.7847 H   0  0  0  0  0  0  0  0  0  0  0  0
   57.2708   31.4830   46.4219 H   0  0  0  0  0  0  0  0  0  0  0  0
  1  2  1  0
  2  3  1  0
  3  4  1  0
  4  5  2  0
  5  6  1  0
  6  7  1  0
  7  8  1  0
  8  9  1  0
  9 10  1  0
 10 11  1  0
 11 12  1  0
 12 13  1  0
 13 14  2  0
 14 15  1  0
 15 16  2  0
 16 17  1  0
 17 18  1  0
 18 19  1  0
 17 20  2  0
  6 21  2  0
 21 22  1  0
 22  4  1  0
 12  8  1  0
 20 13  1  0
  1 23  1  0
  1 24  1  0
  1 25  1  0
  3 26  1  0
  3 27  1  0
  7 28  1  0
  7 29  1  0
  9 30  1  0
  9 31  1  0
 10 32  1  0
 10 33  1  0
 11 34  1  0
 11 35  1  0
 12 36  1  1
 14 37  1  0
 15 38  1  0
 19 39  1  0
 19 40  1  0
 19 41  1  0
 20 42  1  0
M  END
>  <UniqueID>  (41) 
40

>  <SMILES>  (41) 
COCc1nc(CN2CCC[C@H]2c2ccnc(OC)c2)no1

>  <Energy>  (41) 
85.42913436116062

>  <Genealogy>  (41) 
COCc1nc(CN2CCC[C@H]2c2ccnc(OC)c2)no1 (chirality)
COCc1nc(CN2CCC[C@H]2c2ccnc(OC)c2)no1 (3D coordinates assigned)
COCc1nc(CN2CCC[C@H]2c2ccnc(OC)c2)no1 (nonaromatic ring conformer: 85.42913436116062 kcal/mol)

>  <smiles>  (41) 
COCc1nc(CN2CCCC2c2ccnc(OC)c2)no1

>  <score_type>  (41) 
oracle

>  <origin>  (41) 
adg

>  <m_score__min__energy>  (41) 
-7.1200000000000001

>  <m_primary>  (41) 
energy

$$$$
41:0
     RDKit          3D

 39 41  0  0  0  0  0  0  0  0999 V2000
   61.4730   33.9940   48.5240 C   0  0  0  0  0  0  0  0  0  0  0  0
   60.0890   34.5810   48.2660 C   0  0  0  0  0  0  0  0  0  0  0  0
   59.7340   34.4480   46.8890 O   0  0  0  0  0  0  0  0  0  0  0  0
   59.0150   33.3770   46.3310 C   0  0  0  0  0  0  0  0  0  0  0  0
   59.3480   32.0780   46.7320 C   0  0  0  0  0  0  0  0  0  0  0  0
   58.6670   30.9760   46.2090 C   0  0  0  0  0  0  0  0  0  0  0  0
   57.6390   31.1600   45.2770 C   0  0  0  0  0  0  0  0  0  0  0  0
   56.7990   29.7630   44.6120 S   0  0  0  0  0  0  0  0  0  0  0  0
   55.3370   30.0860   44.4940 O   0  0  0  0  0  0  0  0  0  0  0  0
   57.3350   29.4160   43.2510 O   0  0  0  0  0  0  0  0  0  0  0  0
   56.9980   28.3990   45.6640 N   0  0  0  0  0  0  0  0  0  0  0  0
   56.9840   27.0270   45.2480 C   0  0  0  0  0  0  0  0  0  0  0  0
   56.1420   26.1320   45.9150 C   0  0  0  0  0  0  0  0  0  0  0  0
   56.0970   24.7850   45.5450 C   0  0  0  0  0  0  0  0  0  0  0  0
   56.9010   24.3060   44.4930 C   0  0  0  0  0  0  0  0  0  0  0  0
   56.8660   22.9210   44.0940 N   0  0  0  0  0  0  0  0  0  0  0  0
   57.4960   21.8640   44.6470 C   0  0  0  0  0  0  0  0  0  0  0  0
   57.1770   20.7570   43.9590 N   0  0  0  0  0  0  0  0  0  0  0  0
   56.3570   21.1370   42.9910 N   0  0  0  0  0  0  0  0  0  0  0  0
   56.1690   22.4460   43.0720 N   0  0  0  0  0  0  0  0  0  0  0  0
   57.7470   25.2080   43.8250 C   0  0  0  0  0  0  0  0  0  0  0  0
   57.7880   26.5560   44.1950 C   0  0  0  0  0  0  0  0  0  0  0  0
   57.2920   32.4570   44.8780 C   0  0  0  0  0  0  0  0  0  0  0  0
   57.9740   33.5610   45.3980 C   0  0  0  0  0  0  0  0  0  0  0  0
   61.6442   33.9214   49.6082 H   0  0  0  0  0  0  0  0  0  0  0  0
   61.5357   32.9918   48.0749 H   0  0  0  0  0  0  0  0  0  0  0  0
   62.2371   34.6455   48.0749 H   0  0  0  0  0  0  0  0  0  0  0  0
   59.3500   34.0485   48.8827 H   0  0  0  0  0  0  0  0  0  0  0  0
   60.1035   35.6497   48.5263 H   0  0  0  0  0  0  0  0  0  0  0  0
   60.1531   31.9234   47.4655 H   0  0  0  0  0  0  0  0  0  0  0  0
   58.9396   29.9601   46.5308 H   0  0  0  0  0  0  0  0  0  0  0  0
   55.5086   26.4917   46.7393 H   0  0  0  0  0  0  0  0  0  0  0  0
   55.4286   24.0940   46.0795 H   0  0  0  0  0  0  0  0  0  0  0  0
   58.1633   21.9033   45.5206 H   0  0  0  0  0  0  0  0  0  0  0  0
   57.4970   19.7790   44.1340 H   0  0  0  0  0  0  0  0  0  0  0  0
   58.3836   24.8498   43.0025 H   0  0  0  0  0  0  0  0  0  0  0  0
   58.4521   27.2508   43.6600 H   0  0  0  0  0  0  0  0  0  0  0  0
   56.4792   32.6076   44.1522 H   0  0  0  0  0  0  0  0  0  0  0  0
   57.6976   34.5766   45.0782 H   0  0  0  0  0  0  0  0  0  0  0  0
  1  2  1  0
  2  3  1  0
  3  4  1  0
  4  5  2  0
  5  6  1  0
  6  7  2  0
  7  8  1  0
  8  9  2  0
  8 10  2  0
  8 11  1  0
 11 12  1  0
 12 13  2  0
 13 14  1  0
 14 15  2  0
 15 16  1  0
 16 17  1  0
 17 18  2  0
 18 19  1  0
 19 20  2  0
 15 21  1  0
 21 22  2  0
  7 23  1  0
 23 24  2  0
 24  4  1  0
 22 12  1  0
 20 16  1  0
  1 25  1  0
  1 26  1  0
  1 27  1  0
  2 28  1  0
  2 29  1  0
  5 30  1  0
  6 31  1  0
 13 32  1  0
 14 33  1  0
 17 34  1  0
 18 35  1  0
 21 36  1  0
 22 37  1  0
 23 38  1  0
 24 39  1  0
M  CHG  2  11  -1  18   1
M  END
>  <UniqueID>  (42) 
41

>  <SMILES>  (42) 
CCOc1ccc(S(=O)(=O)[N-]c2ccc(-n3c[nH+]nn3)cc2)cc1

>  <Energy>  (42) 
85.11487307743843

>  <Genealogy>  (42) 
CCOc1ccc(S(=O)(=O)[N-]c2ccc(-n3c[nH+]nn3)cc2)cc1 (protonated)
CCOc1ccc(S(=O)(=O)[N-]c2ccc(-n3c[nH+]nn3)cc2)cc1 (3D coordinates assigned)
CCOc1ccc(S(=O)(=O)[N-]c2ccc(-n3c[nH+]nn3)cc2)cc1 (optimized conformer: 85.11487307743843 kcal/mol)

>  <smiles>  (42) 
CCOc1ccc(S(=O)(=O)Nc2ccc(-n3cnnn3)cc2)cc1

>  <score_type>  (42) 
oracle

>  <origin>  (42) 
adg

>  <m_score__min__energy>  (42) 
-9.0600000000000005

>  <m_primary>  (42) 
energy

$$$$
42:0
     RDKit          3D

 38 40  0  0  0  0  0  0  0  0999 V2000
   60.6900   27.1430   47.8630 C   0  0  0  0  0  0  0  0  0  0  0  0
   59.4070   27.0360   47.0800 C   0  0  0  0  0  0  0  0  0  0  0  0
   58.4450   26.0970   47.4820 C   0  0  0  0  0  0  0  0  0  0  0  0
   57.2510   25.9610   46.7820 C   0  0  0  0  0  0  0  0  0  0  0  0
   56.9960   26.7560   45.6670 C   0  0  0  0  0  0  0  0  0  0  0  0
   57.9370   27.7100   45.2410 C   0  0  0  0  0  0  0  0  0  0  0  0
   57.6980   28.5130   44.0720 N   0  0  0  0  0  0  0  0  0  0  0  0
   56.6320   29.8780   43.9850 S   0  0  0  0  0  0  0  0  0  0  0  0
   55.4400   29.6260   44.8640 O   0  0  0  0  0  0  0  0  0  0  0  0
   56.1690   30.0490   42.5650 O   0  0  0  0  0  0  0  0  0  0  0  0
   57.4580   31.3280   44.5480 C   0  0  0  0  0  0  0  0  0  0  0  0
   57.7810   32.3500   43.6470 C   0  0  0  0  0  0  0  0  0  0  0  0
   58.4510   33.4950   44.0870 C   0  0  0  0  0  0  0  0  0  0  0  0
   58.8020   33.6300   45.4380 C   0  0  0  0  0  0  0  0  0  0  0  0
   59.4780   34.7740   45.8920 C   0  0  0  0  0  0  0  0  0  0  0  0
   59.8230   34.8950   47.2420 C   0  0  0  0  0  0  0  0  0  0  0  0
   59.4980   33.8790   48.1450 C   0  0  0  0  0  0  0  0  0  0  0  0
   58.8250   32.7360   47.7060 C   0  0  0  0  0  0  0  0  0  0  0  0
   58.4720   32.6010   46.3540 C   0  0  0  0  0  0  0  0  0  0  0  0
   57.7980   31.4580   45.9010 C   0  0  0  0  0  0  0  0  0  0  0  0
   59.1390   27.8790   45.9690 C   0  0  0  0  0  0  0  0  0  0  0  0
   60.1630   28.8960   45.5160 C   0  0  0  0  0  0  0  0  0  0  0  0
   60.4652   27.1242   48.9396 H   0  0  0  0  0  0  0  0  0  0  0  0
   61.3454   26.2964   47.6105 H   0  0  0  0  0  0  0  0  0  0  0  0
   61.1961   28.0865   47.6105 H   0  0  0  0  0  0  0  0  0  0  0  0
   58.6371   25.4621   48.3595 H   0  0  0  0  0  0  0  0  0  0  0  0
   56.5048   25.2225   47.1103 H   0  0  0  0  0  0  0  0  0  0  0  0
   56.0516   26.6366   45.1157 H   0  0  0  0  0  0  0  0  0  0  0  0
   57.5058   32.2512   42.5866 H   0  0  0  0  0  0  0  0  0  0  0  0
   58.7035   34.2919   43.3721 H   0  0  0  0  0  0  0  0  0  0  0  0
   59.7365   35.5760   45.1850 H   0  0  0  0  0  0  0  0  0  0  0  0
   60.3519   35.7929   47.5942 H   0  0  0  0  0  0  0  0  0  0  0  0
   59.7731   33.9796   49.2053 H   0  0  0  0  0  0  0  0  0  0  0  0
   58.5711   31.9400   48.4215 H   0  0  0  0  0  0  0  0  0  0  0  0
   57.5350   30.6599   46.6109 H   0  0  0  0  0  0  0  0  0  0  0  0
   60.6316   29.3614   46.3957 H   0  0  0  0  0  0  0  0  0  0  0  0
   60.9339   28.3958   44.9114 H   0  0  0  0  0  0  0  0  0  0  0  0
   59.6681   29.6704   44.9114 H   0  0  0  0  0  0  0  0  0  0  0  0
  1  2  1  0
  2  3  2  0
  3  4  1  0
  4  5  2  0
  5  6  1  0
  6  7  1  0
  7  8  1  0
  8  9  2  0
  8 10  2  0
  8 11  1  0
 11 12  2  0
 12 13  1  0
 13 14  2  0
 14 15  1  0
 15 16  2  0
 16 17  1  0
 17 18  2  0
 18 19  1  0
 19 20  2  0
  6 21  2  0
 21 22  1  0
 21  2  1  0
 20 11  1  0
 19 14  1  0
  1 23  1  0
  1 24  1  0
  1 25  1  0
  3 26  1  0
  4 27  1  0
  5 28  1  0
 12 29  1  0
 13 30  1  0
 15 31  1  0
 16 32  1  0
 17 33  1  0
 18 34  1  0
 20 35  1  0
 22 36  1  0
 22 37  1  0
 22 38  1  0
M  CHG  1   7  -1
M  END
>  <UniqueID>  (43) 
42

>  <SMILES>  (43) 
Cc1cccc([N-]S(=O)(=O)c2ccc3ccccc3c2)c1C

>  <Energy>  (43) 
48.15883014295577

>  <Genealogy>  (43) 
Cc1cccc([N-]S(=O)(=O)c2ccc3ccccc3c2)c1C (protonated)
Cc1cccc([N-]S(=O)(=O)c2ccc3ccccc3c2)c1C (3D coordinates assigned)
Cc1cccc([N-]S(=O)(=O)c2ccc3ccccc3c2)c1C (optimized conformer: 48.15883014295577 kcal/mol)

>  <smiles>  (43) 
Cc1cccc(NS(=O)(=O)c2ccc3ccccc3c2)c1C

>  <score_type>  (43) 
oracle

>  <origin>  (43) 
adg

>  <m_score__min__energy>  (43) 
-10.109999999999999

>  <m_primary>  (43) 
energy

$$$$
43:0
     RDKit          3D

 36 39  0  0  0  0  0  0  0  0999 V2000
   57.7690   22.8430   44.1250 C   0  0  0  0  0  0  0  0  0  0  0  0
   56.7670   23.7170   44.7810 C   0  0  0  0  0  0  0  0  0  0  0  0
   55.4160   23.3870   44.7530 C   0  0  0  0  0  0  0  0  0  0  0  0
   54.4490   24.1640   45.3450 C   0  0  0  0  0  0  0  0  0  0  0  0
   54.8230   25.3050   45.9880 N   0  0  0  0  0  0  0  0  0  0  0  0
   56.1240   25.6440   46.0270 C   0  0  0  0  0  0  0  0  0  0  0  0
   56.7330   26.7000   46.5880 N   0  0  0  0  0  0  0  0  0  0  0  0
   58.0670   26.6080   46.3630 C   0  0  0  0  0  0  0  0  0  0  0  0
   59.2940   27.7580   46.9030 S   0  0  0  0  0  0  0  0  0  0  0  0
   59.7610   28.9490   45.5870 C   0  0  0  0  0  0  0  0  0  0  0  0
   58.5430   29.7010   45.2790 C   0  0  0  0  0  0  0  0  0  0  0  0
   57.3950   29.1160   44.7630 C   0  0  0  0  0  0  0  0  0  0  0  0
   56.2880   29.9180   44.5030 C   0  0  0  0  0  0  0  0  0  0  0  0
   55.2250   29.4240   44.0350 O   0  0  0  0  0  0  0  0  0  0  0  0
   56.2900   31.2110   44.7300 O   0  0  0  0  0  0  0  0  0  0  0  0
   57.3720   31.7800   45.2180 C   0  0  0  0  0  0  0  0  0  0  0  0
   57.4020   33.1390   45.4650 C   0  0  0  0  0  0  0  0  0  0  0  0
   58.5070   33.7890   45.9760 C   0  0  0  0  0  0  0  0  0  0  0  0
   59.6440   33.0270   46.2530 C   0  0  0  0  0  0  0  0  0  0  0  0
   61.1020   33.7470   46.9040 Cl  0  0  0  0  0  0  0  0  0  0  0  0
   59.6430   31.6650   46.0170 C   0  0  0  0  0  0  0  0  0  0  0  0
   58.5180   31.0710   45.5080 C   0  0  0  0  0  0  0  0  0  0  0  0
   58.3190   25.4750   45.6470 N   0  0  0  0  0  0  0  0  0  0  0  0
   57.1240   24.8920   45.4460 C   0  0  0  0  0  0  0  0  0  0  0  0
   58.3626   22.3252   44.8928 H   0  0  0  0  0  0  0  0  0  0  0  0
   57.2535   22.1008   43.4977 H   0  0  0  0  0  0  0  0  0  0  0  0
   58.4343   23.4545   43.4977 H   0  0  0  0  0  0  0  0  0  0  0  0
   55.1088   22.4661   44.2357 H   0  0  0  0  0  0  0  0  0  0  0  0
   53.3902   23.8691   45.3002 H   0  0  0  0  0  0  0  0  0  0  0  0
   56.2530   27.4750   47.1180 H   0  0  0  0  0  0  0  0  0  0  0  0
   60.5493   29.6270   45.9461 H   0  0  0  0  0  0  0  0  0  0  0  0
   60.1556   28.4356   44.6978 H   0  0  0  0  0  0  0  0  0  0  0  0
   57.3608   28.0349   44.5627 H   0  0  0  0  0  0  0  0  0  0  0  0
   56.5019   33.7314   45.2437 H   0  0  0  0  0  0  0  0  0  0  0  0
   58.4926   34.8735   46.1594 H   0  0  0  0  0  0  0  0  0  0  0  0
   60.5375   31.0633   46.2359 H   0  0  0  0  0  0  0  0  0  0  0  0
  1  2  1  0
  2  3  2  0
  3  4  1  0
  4  5  2  0
  5  6  1  0
  6  7  1  0
  7  8  1  0
  8  9  1  0
  9 10  1  0
 10 11  1  0
 11 12  2  0
 12 13  1  0
 13 14  2  0
 13 15  1  0
 15 16  1  0
 16 17  2  0
 17 18  1  0
 18 19  2  0
 19 20  1  0
 19 21  1  0
 21 22  2  0
  8 23  2  0
 23 24  1  0
 24  2  1  0
 24  6  2  0
 22 11  1  0
 22 16  1  0
  1 25  1  0
  1 26  1  0
  1 27  1  0
  3 28  1  0
  4 29  1  0
  7 30  1  0
 10 31  1  0
 10 32  1  0
 12 33  1  0
 17 34  1  0
 18 35  1  0
 21 36  1  0
M  END
>  <smiles>  (44) 
Cc1ccnc2[nH]c(SCc3cc(=O)oc4ccc(Cl)cc34)nc12

>  <score_type>  (44) 
oracle

>  <origin>  (44) 
adg

>  <m_score__min__energy>  (44) 
-8.9800000000000004

>  <m_primary>  (44) 
energy

$$$$
44:0
     RDKit          3D

 58 61  0  0  0  0  0  0  0  0999 V2000
   55.7940   30.1350   44.1260 C   0  0  0  0  0  0  0  0  0  0  0  0
   56.9160   30.1730   45.0040 O   0  0  0  0  0  0  0  0  0  0  0  0
   57.8220   29.1140   45.1950 C   0  0  0  0  0  0  0  0  0  0  0  0
   57.4110   27.7730   45.0690 C   0  0  0  0  0  0  0  0  0  0  0  0
   58.2910   26.7310   45.3600 C   0  0  0  0  0  0  0  0  0  0  0  0
   59.5750   27.0140   45.8150 C   0  0  0  0  0  0  0  0  0  0  0  0
   60.0000   28.3370   45.9370 C   0  0  0  0  0  0  0  0  0  0  0  0
   59.1690   29.4050   45.5420 C   0  0  0  0  0  0  0  0  0  0  0  0
   59.6480   30.8530   45.6680 C   0  0  0  0  0  0  0  0  0  0  0  0
   58.7310   31.8350   46.3410 N   0  0  1  0  0  0  0  0  0  0  0  0
   58.7580   31.6960   47.8290 C   0  0  0  0  0  0  0  0  0  0  0  0
   58.6260   33.0300   48.5870 C   0  0  0  0  0  0  0  0  0  0  0  0
   59.6010   34.0520   48.1300 N   0  0  0  0  0  0  0  0  0  0  0  0
   60.8850   33.9980   48.8590 C   0  0  0  0  0  0  0  0  0  0  0  0
   61.9250   33.2380   48.0740 C   0  0  0  0  0  0  0  0  0  0  0  0
   62.8320   33.8560   47.2320 C   0  0  0  0  0  0  0  0  0  0  0  0
   63.6870   32.8730   46.7820 C   0  0  0  0  0  0  0  0  0  0  0  0
   63.2790   31.6950   47.3720 C   0  0  0  0  0  0  0  0  0  0  0  0
   62.2050   31.9110   48.1600 N   0  0  0  0  0  0  0  0  0  0  0  0
   61.5500   30.8910   48.9380 C   0  0  0  0  0  0  0  0  0  0  0  0
   61.1200   29.7130   48.4360 N   0  0  0  0  0  0  0  0  0  0  0  0
   60.5470   28.9300   49.3880 C   0  0  0  0  0  0  0  0  0  0  0  0
   60.5240   29.4770   50.6660 C   0  0  0  0  0  0  0  0  0  0  0  0
   61.2480   30.9940   50.5920 S   0  0  0  0  0  0  0  0  0  0  0  0
   59.8090   34.0800   46.6600 C   0  0  0  0  0  0  0  0  0  0  0  0
   58.7480   33.2640   45.8940 C   0  0  1  0  0  0  0  0  0  0  0  0
   58.8260   33.5000   44.3680 C   0  0  0  0  0  0  0  0  0  0  0  0
   57.8420   32.6340   43.5680 C   0  0  0  0  0  0  0  0  0  0  0  0
   58.5120   31.5430   42.9990 O   0  0  0  0  0  0  0  0  0  0  0  0
   54.8668   30.1036   44.7170 H   0  0  0  0  0  0  0  0  0  0  0  0
   55.7942   31.0337   43.4917 H   0  0  0  0  0  0  0  0  0  0  0  0
   55.8550   29.2384   43.4917 H   0  0  0  0  0  0  0  0  0  0  0  0
   56.3869   27.5454   44.7382 H   0  0  0  0  0  0  0  0  0  0  0  0
   57.9704   25.6868   45.2300 H   0  0  0  0  0  0  0  0  0  0  0  0
   60.2568   26.1923   46.0792 H   0  0  0  0  0  0  0  0  0  0  0  0
   60.9981   28.5500   46.3474 H   0  0  0  0  0  0  0  0  0  0  0  0
   60.5895   30.8395   46.2366 H   0  0  0  0  0  0  0  0  0  0  0  0
   59.7271   31.2114   44.6310 H   0  0  0  0  0  0  0  0  0  0  0  0
   57.7730   31.5010   46.0730 H   0  0  0  0  0  0  0  0  0  0  0  0
   57.9252   31.0435   48.1303 H   0  0  0  0  0  0  0  0  0  0  0  0
   59.7411   31.2779   48.0910 H   0  0  0  0  0  0  0  0  0  0  0  0
   57.6094   33.4215   48.4344 H   0  0  0  0  0  0  0  0  0  0  0  0
   58.8315   32.8286   49.6487 H   0  0  0  0  0  0  0  0  0  0  0  0
   61.2436   35.0236   49.0311 H   0  0  0  0  0  0  0  0  0  0  0  0
   60.7217   33.4793   49.8152 H   0  0  0  0  0  0  0  0  0  0  0  0
   62.8646   34.9244   46.9721 H   0  0  0  0  0  0  0  0  0  0  0  0
   64.5303   33.0027   46.0877 H   0  0  0  0  0  0  0  0  0  0  0  0
   63.7609   30.7177   47.2215 H   0  0  0  0  0  0  0  0  0  0  0  0
   60.1319   27.9363   49.1637 H   0  0  0  0  0  0  0  0  0  0  0  0
   60.1064   29.0021   51.5661 H   0  0  0  0  0  0  0  0  0  0  0  0
   59.7644   35.1245   46.3179 H   0  0  0  0  0  0  0  0  0  0  0  0
   60.7898   33.6266   46.4542 H   0  0  0  0  0  0  0  0  0  0  0  0
   57.7480   33.6389   46.1577 H   0  0  0  0  0  0  0  0  0  0  0  0
   58.6032   34.5582   44.1666 H   0  0  0  0  0  0  0  0  0  0  0  0
   59.8405   33.2214   44.0468 H   0  0  0  0  0  0  0  0  0  0  0  0
   57.0525   32.2658   44.2396 H   0  0  0  0  0  0  0  0  0  0  0  0
   57.3982   33.2417   42.7657 H   0  0  0  0  0  0  0  0  0  0  0  0
   57.9620   30.7380   43.1910 H   0  0  0  0  0  0  0  0  0  0  0  0
  1  2  1  0
  2  3  1  0
  3  4  2  0
  4  5  1  0
  5  6  2  0
  6  7  1  0
  7  8  2  0
  8  9  1  0
  9 10  1  0
 10 11  1  0
 11 12  1  0
 12 13  1  0
 13 14  1  0
 14 15  1  0
 15 16  2  0
 16 17  1  0
 17 18  2  0
 18 19  1  0
 19 20  1  0
 20 21  2  0
 21 22  1  0
 22 23  2  0
 23 24  1  0
 13 25  1  0
 25 26  1  0
 26 27  1  0
 27 28  1  0
 28 29  1  0
  8  3  1  0
 26 10  1  0
 19 15  1  0
 24 20  1  0
  1 30  1  0
  1 31  1  0
  1 32  1  0
  4 33  1  0
  5 34  1  0
  6 35  1  0
  7 36  1  0
  9 37  1  0
  9 38  1  0
 10 39  1  6
 11 40  1  0
 11 41  1  0
 12 42  1  0
 12 43  1  0
 14 44  1  0
 14 45  1  0
 16 46  1  0
 17 47  1  0
 18 48  1  0
 22 49  1  0
 23 50  1  0
 25 51  1  0
 25 52  1  0
 26 53  1  1
 27 54  1  0
 27 55  1  0
 28 56  1  0
 28 57  1  0
 29 58  1  0
M  CHG  1  10   1
M  END
>  <UniqueID>  (45) 
43

>  <SMILES>  (45) 
COc1ccccc1C[N@H+]1CCN(Cc2cccn2-c2nccs2)C[C@H]1CCO

>  <Energy>  (45) 
147.47068148095866

>  <Genealogy>  (45) 
COc1ccccc1C[NH+]1CCN(Cc2cccn2-c2nccs2)CC1CCO (protonated)
COc1ccccc1C[N@H+]1CCN(Cc2cccn2-c2nccs2)C[C@H]1CCO (chirality)
COc1ccccc1C[N@H+]1CCN(Cc2cccn2-c2nccs2)C[C@H]1CCO (3D coordinates assigned)
COc1ccccc1C[N@H+]1CCN(Cc2cccn2-c2nccs2)C[C@H]1CCO (nonaromatic ring conformer: 147.47068148095866 kcal/mol)

>  <smiles>  (45) 
COc1ccccc1CN1CCN(Cc2cccn2-c2nccs2)CC1CCO

>  <score_type>  (45) 
oracle

>  <origin>  (45) 
adg

>  <m_score__min__energy>  (45) 
-6.1799999999999997

>  <m_primary>  (45) 
energy

$$$$
