0:0
     RDKit          3D

 51 55  0  0  0  0  0  0  0  0999 V2000
   62.5320   33.7940   46.6280 C   0  0  0  0  0  0  0  0  0  0  0  0
   61.9550   32.7750   47.4890 N   0  0  0  0  0  0  0  0  0  0  0  0
   62.2820   31.4930   47.4320 N   0  0  0  0  0  0  0  0  0  0  0  0
   61.5000   30.8680   48.3290 C   0  0  0  0  0  0  0  0  0  0  0  0
   60.6870   31.8210   48.9110 C   0  0  0  0  0  0  0  0  0  0  0  0
   59.6640   31.5890   49.9510 C   0  0  0  0  0  0  0  0  0  0  0  0
   59.6610   32.3800   51.0600 N   0  0  0  0  0  0  0  0  0  0  0  0
   58.7430   32.2250   52.0460 C   0  0  0  0  0  0  0  0  0  0  0  0
   57.7750   31.2300   51.9290 C   0  0  0  0  0  0  0  0  0  0  0  0
   57.7680   30.4320   50.8300 N   0  0  0  0  0  0  0  0  0  0  0  0
   58.6820   30.5840   49.8320 C   0  0  0  0  0  0  0  0  0  0  0  0
   58.6600   29.7460   48.7100 O   0  0  0  0  0  0  0  0  0  0  0  0
   59.4430   28.5630   48.5600 C   0  0  0  0  0  0  0  0  0  0  0  0
   59.5640   28.1870   47.0710 C   0  0  1  0  0  0  0  0  0  0  0  0
   58.3870   27.3160   46.5800 C   0  0  0  0  0  0  0  0  0  0  0  0
   57.8670   28.1410   45.3970 C   0  0  2  0  0  0  0  0  0  0  0  0
   58.8810   28.0580   44.2420 C   0  0  0  0  0  0  0  0  0  0  0  0
   59.9950   28.9860   44.7440 C   0  0  0  0  0  0  0  0  0  0  0  0
   59.4480   29.4020   46.1200 C   0  0  1  0  0  0  0  0  0  0  0  0
   58.0200   29.4990   45.8780 N   0  0  0  0  0  0  0  0  0  0  0  0
   57.3940   30.6420   45.2700 C   0  0  0  0  0  0  0  0  0  0  0  0
   56.3490   30.4890   44.5800 O   0  0  0  0  0  0  0  0  0  0  0  0
   57.9470   31.9980   45.4660 C   0  0  0  0  0  0  0  0  0  0  0  0
   57.9860   32.5620   46.7530 C   0  0  0  0  0  0  0  0  0  0  0  0
   58.4690   33.8580   46.9440 C   0  0  0  0  0  0  0  0  0  0  0  0
   58.9320   34.6010   45.8560 C   0  0  0  0  0  0  0  0  0  0  0  0
   58.9010   34.0510   44.5720 C   0  0  0  0  0  0  0  0  0  0  0  0
   58.4050   32.7590   44.3710 C   0  0  0  0  0  0  0  0  0  0  0  0
   58.3940   32.2450   43.1150 F   0  0  0  0  0  0  0  0  0  0  0  0
   60.9860   33.0130   48.3600 N   0  0  0  0  0  0  0  0  0  0  0  0
   62.9803   34.5856   47.2463 H   0  0  0  0  0  0  0  0  0  0  0  0
   63.3078   33.3412   45.9930 H   0  0  0  0  0  0  0  0  0  0  0  0
   61.7447   34.2263   45.9930 H   0  0  0  0  0  0  0  0  0  0  0  0
   61.5063   29.7921   48.5581 H   0  0  0  0  0  0  0  0  0  0  0  0
   58.7625   32.8790   52.9302 H   0  0  0  0  0  0  0  0  0  0  0  0
   57.0229   31.0919   52.7198 H   0  0  0  0  0  0  0  0  0  0  0  0
   60.4475   28.7379   48.9729 H   0  0  0  0  0  0  0  0  0  0  0  0
   58.9525   27.7387   49.0984 H   0  0  0  0  0  0  0  0  0  0  0  0
   60.5441   27.6889   47.0346 H   0  0  0  0  0  0  0  0  0  0  0  0
   58.7304   26.3223   46.2565 H   0  0  0  0  0  0  0  0  0  0  0  0
   57.6293   27.1112   47.3507 H   0  0  0  0  0  0  0  0  0  0  0  0
   56.8630   27.8268   45.0756 H   0  0  0  0  0  0  0  0  0  0  0  0
   59.2471   27.0302   44.1021 H   0  0  0  0  0  0  0  0  0  0  0  0
   58.4687   28.3421   43.2626 H   0  0  0  0  0  0  0  0  0  0  0  0
   60.9522   28.4519   44.8365 H   0  0  0  0  0  0  0  0  0  0  0  0
   60.2128   29.8302   44.0732 H   0  0  0  0  0  0  0  0  0  0  0  0
   59.9476   30.2951   46.5235 H   0  0  0  0  0  0  0  0  0  0  0  0
   57.6334   31.9780   47.6159 H   0  0  0  0  0  0  0  0  0  0  0  0
   58.4849   34.2947   47.9535 H   0  0  0  0  0  0  0  0  0  0  0  0
   59.3208   35.6185   46.0098 H   0  0  0  0  0  0  0  0  0  0  0  0
   59.2681   34.6364   43.7161 H   0  0  0  0  0  0  0  0  0  0  0  0
  1  2  1  0
  2  3  1  0
  3  4  2  0
  4  5  1  0
  5  6  1  0
  6  7  2  0
  7  8  1  0
  8  9  2  0
  9 10  1  0
 10 11  2  0
 11 12  1  0
 12 13  1  0
 13 14  1  0
 14 15  1  0
 15 16  1  0
 16 17  1  0
 17 18  1  0
 18 19  1  0
 19 20  1  0
 20 21  1  0
 21 22  2  0
 21 23  1  0
 23 24  2  0
 24 25  1  0
 25 26  2  0
 26 27  1  0
 27 28  2  0
 28 29  1  0
  5 30  2  0
 30  2  1  0
 11  6  1  0
 19 14  1  0
 28 23  1  0
 20 16  1  0
  1 31  1  0
  1 32  1  0
  1 33  1  0
  4 34  1  0
  8 35  1  0
  9 36  1  0
 13 37  1  0
 13 38  1  0
 14 39  1  1
 15 40  1  0
 15 41  1  0
 16 42  1  6
 17 43  1  0
 17 44  1  0
 18 45  1  0
 18 46  1  0
 19 47  1  1
 24 48  1  0
 25 49  1  0
 26 50  1  0
 27 51  1  0
M  END
>  <UniqueID>  (1) 
1

>  <SMILES>  (1) 
Cn1ncc(-c2nccnc2OC[C@H]2C[C@@H]3CCC2N3C(=O)c2ccccc2F)n1

>  <Energy>  (1) 
129.16591316794836

>  <Genealogy>  (1) 
Cn1ncc(-c2nccnc2OC[C@H]2C[C@@H]3CCC2N3C(=O)c2ccccc2F)n1 (chirality)
Cn1ncc(-c2nccnc2OC[C@H]2C[C@@H]3CCC2N3C(=O)c2ccccc2F)n1 (3D coordinates assigned)
Cn1ncc(-c2nccnc2OC[C@H]2C[C@@H]3CCC2N3C(=O)c2ccccc2F)n1 (nonaromatic ring conformer: 129.16591316794836 kcal/mol)

>  <smiles>  (1) 
Cn1ncc(-c2nccnc2OCC2CC3CCC2N3C(=O)c2ccccc2F)n1

>  <score_type>  (1) 
oracle

>  <origin>  (1) 
adg

>  <m_score__min__energy>  (1) 
-8.7100000000000009

>  <m_primary>  (1) 
energy

$$$$
1:0
     RDKit          3D

 53 56  0  0  0  0  0  0  0  0999 V2000
   58.8490   34.7640   44.9240 C   0  0  0  0  0  0  0  0  0  0  0  0
   57.4240   34.2210   44.9940 C   0  0  0  0  0  0  0  0  0  0  0  0
   57.3050   33.0300   45.9510 C   0  0  0  0  0  0  0  0  0  0  0  0
   57.6780   31.7710   45.2900 N   0  0  0  0  0  0  0  0  0  0  0  0
   57.3290   31.5450   43.8790 C   0  0  0  0  0  0  0  0  0  0  0  0
   56.3550   30.3770   43.7020 C   0  0  0  0  0  0  0  0  0  0  0  0
   55.5920   30.2000   44.8620 O   0  0  0  0  0  0  0  0  0  0  0  0
   58.5530   30.8540   45.9660 C   0  0  0  0  0  0  0  0  0  0  0  0
   58.2660   29.5270   45.9660 N   0  0  0  0  0  0  0  0  0  0  0  0
   59.0660   28.6250   46.5910 C   0  0  0  0  0  0  0  0  0  0  0  0
   58.7330   27.1810   46.5550 C   0  0  0  0  0  0  0  0  0  0  0  0
   57.4050   26.7440   46.7160 C   0  0  0  0  0  0  0  0  0  0  0  0
   57.1050   25.3810   46.6790 C   0  0  0  0  0  0  0  0  0  0  0  0
   58.1330   24.4600   46.4820 C   0  0  0  0  0  0  0  0  0  0  0  0
   59.4120   24.8900   46.3280 N   0  0  0  0  0  0  0  0  0  0  0  0
   59.7320   26.2120   46.3590 C   0  0  0  0  0  0  0  0  0  0  0  0
   60.1620   29.0640   47.2670 N   0  0  0  0  0  0  0  0  0  0  0  0
   60.4880   30.3810   47.3210 C   0  0  0  0  0  0  0  0  0  0  0  0
   59.7090   31.3160   46.6120 C   0  0  0  0  0  0  0  0  0  0  0  0
   60.0570   32.6650   46.4920 O   0  0  0  0  0  0  0  0  0  0  0  0
   61.3510   33.1890   46.7760 C   0  0  0  0  0  0  0  0  0  0  0  0
   61.6110   33.2590   48.2850 C   0  0  1  0  0  0  0  0  0  0  0  0
   60.5690   34.1170   49.0220 C   0  0  0  0  0  0  0  0  0  0  0  0
   60.2250   33.3660   50.2990 C   0  0  0  0  0  0  0  0  0  0  0  0
   60.4540   31.9010   49.9800 C   0  0  0  0  0  0  0  0  0  0  0  0
   61.6170   31.8900   48.9880 C   0  0  1  0  0  0  0  0  0  0  0  0
   61.5830   30.7590   48.1080 O   0  0  0  0  0  0  0  0  0  0  0  0
   59.2357   34.9114   45.9432 H   0  0  0  0  0  0  0  0  0  0  0  0
   59.4889   34.0467   44.3892 H   0  0  0  0  0  0  0  0  0  0  0  0
   58.8492   35.7252   44.3892 H   0  0  0  0  0  0  0  0  0  0  0  0
   56.7560   35.0229   45.3415 H   0  0  0  0  0  0  0  0  0  0  0  0
   57.1445   33.8752   43.9879 H   0  0  0  0  0  0  0  0  0  0  0  0
   57.9713   33.1938   46.8108 H   0  0  0  0  0  0  0  0  0  0  0  0
   56.2576   32.9521   46.2779 H   0  0  0  0  0  0  0  0  0  0  0  0
   56.8633   32.4578   43.4791 H   0  0  0  0  0  0  0  0  0  0  0  0
   58.2544   31.2967   43.3387 H   0  0  0  0  0  0  0  0  0  0  0  0
   55.6848   30.5886   42.8558 H   0  0  0  0  0  0  0  0  0  0  0  0
   56.9291   29.4589   43.5081 H   0  0  0  0  0  0  0  0  0  0  0  0
   56.2420   30.1120   45.6080 H   0  0  0  0  0  0  0  0  0  0  0  0
   56.6010   27.4785   46.8714 H   0  0  0  0  0  0  0  0  0  0  0  0
   56.0677   25.0371   46.8041 H   0  0  0  0  0  0  0  0  0  0  0  0
   57.9079   23.3837   46.4513 H   0  0  0  0  0  0  0  0  0  0  0  0
   60.7788   26.5243   46.2299 H   0  0  0  0  0  0  0  0  0  0  0  0
   62.1088   32.5401   46.3126 H   0  0  0  0  0  0  0  0  0  0  0  0
   61.4067   34.2094   46.3689 H   0  0  0  0  0  0  0  0  0  0  0  0
   62.6137   33.7076   48.3426 H   0  0  0  0  0  0  0  0  0  0  0  0
   60.9898   35.1045   49.2623 H   0  0  0  0  0  0  0  0  0  0  0  0
   59.6756   34.2819   48.4018 H   0  0  0  0  0  0  0  0  0  0  0  0
   60.8797   33.6873   51.1225 H   0  0  0  0  0  0  0  0  0  0  0  0
   59.1904   33.5576   50.6197 H   0  0  0  0  0  0  0  0  0  0  0  0
   60.7174   31.3434   50.8909 H   0  0  0  0  0  0  0  0  0  0  0  0
   59.5539   31.4221   49.5672 H   0  0  0  0  0  0  0  0  0  0  0  0
   62.5800   31.7584   49.5031 H   0  0  0  0  0  0  0  0  0  0  0  0
  1  2  1  0
  2  3  1  0
  3  4  1  0
  4  5  1  0
  5  6  1  0
  6  7  1  0
  4  8  1  0
  8  9  2  0
  9 10  1  0
 10 11  1  0
 11 12  2  0
 12 13  1  0
 13 14  2  0
 14 15  1  0
 15 16  2  0
 10 17  2  0
 17 18  1  0
 18 19  2  0
 19 20  1  0
 20 21  1  0
 21 22  1  0
 22 23  1  0
 23 24  1  0
 24 25  1  0
 25 26  1  0
 26 27  1  0
 19  8  1  0
 26 22  1  0
 16 11  1  0
 27 18  1  0
  1 28  1  0
  1 29  1  0
  1 30  1  0
  2 31  1  0
  2 32  1  0
  3 33  1  0
  3 34  1  0
  5 35  1  0
  5 36  1  0
  6 37  1  0
  6 38  1  0
  7 39  1  0
 12 40  1  0
 13 41  1  0
 14 42  1  0
 16 43  1  0
 21 44  1  0
 21 45  1  0
 22 46  1  6
 23 47  1  0
 23 48  1  0
 24 49  1  0
 24 50  1  0
 25 51  1  0
 25 52  1  0
 26 53  1  1
M  END
>  <UniqueID>  (2) 
2

>  <SMILES>  (2) 
CCCN(CCO)c1nc(-c2cccnc2)nc2c1OC[C@H]1CCC[C@H]1O2

>  <Energy>  (2) 
64.27441163171697

>  <Genealogy>  (2) 
CCCN(CCO)c1nc(-c2cccnc2)nc2c1OC[C@H]1CCC[C@H]1O2 (chirality)
CCCN(CCO)c1nc(-c2cccnc2)nc2c1OC[C@H]1CCC[C@H]1O2 (3D coordinates assigned)
CCCN(CCO)c1nc(-c2cccnc2)nc2c1OC[C@H]1CCC[C@H]1O2 (nonaromatic ring conformer: 64.27441163171697 kcal/mol)

>  <smiles>  (2) 
CCCN(CCO)c1nc(-c2cccnc2)nc2c1OCC1CCCC1O2

>  <score_type>  (2) 
oracle

>  <origin>  (2) 
adg

>  <m_score__min__energy>  (2) 
-6.1799999999999997

>  <m_primary>  (2) 
energy

$$$$
2:0
     RDKit          3D

 34 35  0  0  1  0  0  0  0  0999 V2000
   57.6800   33.7540   45.6100 C   0  0  0  0  0  0  0  0  0  0  0  0
   58.0890   33.1220   46.9120 C   0  0  0  0  0  0  0  0  0  0  0  0
   59.3830   32.3260   46.7880 C   0  0  0  0  0  0  0  0  0  0  0  0
   58.9940   30.9270   47.0000 N   0  0  0  0  0  0  0  0  0  0  0  0
   59.4380   30.1510   48.0110 C   0  0  0  0  0  0  0  0  0  0  0  0
   58.8860   28.9260   47.9090 N   0  0  0  0  0  0  0  0  0  0  0  0
   58.0890   28.9550   46.8150 C   0  0  0  0  0  0  0  0  0  0  0  0
   57.2800   27.9810   46.2370 C   0  0  0  0  0  0  0  0  0  0  0  0
   57.2500   26.8410   46.7980 N   0  0  0  0  0  0  0  0  0  0  0  0
   57.2590   25.6370   45.9920 C   0  0  0  0  0  0  0  0  0  0  0  0
   55.8730   25.2410   45.5100 C   0  0  0  0  0  0  0  0  0  0  0  0
   54.9320   26.1810   45.9890 O   0  0  0  0  0  0  0  0  0  0  0  0
   56.5840   28.2970   45.1290 N   0  0  0  0  0  0  0  0  0  0  0  0
   56.6460   29.5210   44.5660 C   0  0  0  0  0  0  0  0  0  0  0  0
   55.8400   29.7970   43.3310 C   0  0  0  0  0  0  0  0  0  0  0  0
   57.4300   30.4880   45.1170 N   0  0  0  0  0  0  0  0  0  0  0  0
   58.1390   30.2040   46.2260 C   0  0  0  0  0  0  0  0  0  0  0  0
   57.0925   34.6618   45.8117 H   0  0  0  0  0  0  0  0  0  0  0  0
   58.5782   34.0192   45.0330 H   0  0  0  0  0  0  0  0  0  0  0  0
   57.0702   33.0432   45.0330 H   0  0  0  0  0  0  0  0  0  0  0  0
   58.2321   33.9152   47.6606 H   0  0  0  0  0  0  0  0  0  0  0  0
   57.2928   32.4249   47.2121 H   0  0  0  0  0  0  0  0  0  0  0  0
   59.8226   32.4572   45.7882 H   0  0  0  0  0  0  0  0  0  0  0  0
   60.1412   32.6570   47.5130 H   0  0  0  0  0  0  0  0  0  0  0  0
   60.1405   30.4688   48.7955 H   0  0  0  0  0  0  0  0  0  0  0  0
   57.9012   25.8058   45.1151 H   0  0  0  0  0  0  0  0  0  0  0  0
   57.6368   24.8188   46.6228 H   0  0  0  0  0  0  0  0  0  0  0  0
   55.8547   25.2288   44.4102 H   0  0  0  0  0  0  0  0  0  0  0  0
   55.6213   24.2387   45.8869 H   0  0  0  0  0  0  0  0  0  0  0  0
   55.1340   26.3310   46.9480 H   0  0  0  0  0  0  0  0  0  0  0  0
   55.9800   27.5700   44.6960 H   0  0  0  0  0  0  0  0  0  0  0  0
   54.8354   30.1410   43.6181 H   0  0  0  0  0  0  0  0  0  0  0  0
   56.3378   30.5759   42.7347 H   0  0  0  0  0  0  0  0  0  0  0  0
   55.7559   28.8765   42.7347 H   0  0  0  0  0  0  0  0  0  0  0  0
  1  2  1  0
  2  3  1  0
  3  4  1  0
  4  5  1  0
  5  6  2  0
  6  7  1  0
  7  8  1  0
  8  9  2  0
  9 10  1  0
 10 11  1  0
 11 12  1  0
  8 13  1  0
 13 14  1  0
 14 15  1  0
 14 16  2  0
 16 17  1  0
 17  4  1  0
 17  7  2  0
  1 18  1  0
  1 19  1  0
  1 20  1  0
  2 21  1  0
  2 22  1  0
  3 23  1  0
  3 24  1  0
  5 25  1  0
 10 26  1  0
 10 27  1  0
 11 28  1  0
 11 29  1  0
 12 30  1  0
 13 31  1  0
 15 32  1  0
 15 33  1  0
 15 34  1  0
M  END
>  <smiles>  (3) 
CCCn1cnc2c(=NCCO)[nH]c(C)nc21

>  <score_type>  (3) 
oracle

>  <origin>  (3) 
adg

>  <m_score__min__energy>  (3) 
-6.3799999999999999

>  <m_primary>  (3) 
energy

$$$$
3:0
     RDKit          3D

 60 59  0  0  0  0  0  0  0  0999 V2000
   63.7820   32.6090   48.6410 C   0  0  0  0  0  0  0  0  0  0  0  0
   62.9740   32.4330   47.3550 C   0  0  0  0  0  0  0  0  0  0  0  0
   62.4740   33.7670   46.7770 C   0  0  0  0  0  0  0  0  0  0  0  0
   61.0390   33.6760   46.2370 C   0  0  0  0  0  0  0  0  0  0  0  0
   60.0450   34.5480   47.0260 C   0  0  0  0  0  0  0  0  0  0  0  0
   59.9730   34.2560   48.5340 C   0  0  0  0  0  0  0  0  0  0  0  0
   59.0050   33.1120   48.8850 C   0  0  0  0  0  0  0  0  0  0  0  0
   59.7340   31.9440   49.5690 C   0  0  0  0  0  0  0  0  0  0  0  0
   60.0170   30.7730   48.6050 C   0  0  0  0  0  0  0  0  0  0  0  0
   58.7560   30.3550   47.8400 C   0  0  0  0  0  0  0  0  0  0  0  0
   59.0900   29.7490   46.4580 C   0  0  0  0  0  0  0  0  0  0  0  0
   58.6940   30.6480   45.2620 C   0  0  2  0  0  0  0  0  0  0  0  0
   57.9930   31.9520   45.7370 C   0  0  0  0  0  0  0  0  0  0  0  0
   57.8420   33.0430   44.6580 C   0  0  0  0  0  0  0  0  0  0  0  0
   57.0400   34.2490   45.1370 C   0  0  0  0  0  0  0  0  0  0  0  0
   57.8650   29.8410   44.2230 C   0  0  0  0  0  0  0  0  0  0  0  0
   56.4610   29.5140   44.6810 C   0  0  0  0  0  0  0  0  0  0  0  0
   55.5500   30.3650   44.5140 O   0  0  0  0  0  0  0  0  0  0  0  0
   56.1180   28.2630   45.2880 N   0  0  0  0  0  0  0  0  0  0  0  0
   57.0320   27.1500   45.5100 C   0  0  0  0  0  0  0  0  0  0  0  0
   56.2820   25.9710   46.1230 C   0  0  0  0  0  0  0  0  0  0  0  0
   54.8980   26.1560   46.0030 O   0  0  0  0  0  0  0  0  0  0  0  0
   63.1235   32.4656   49.5103 H   0  0  0  0  0  0  0  0  0  0  0  0
   64.5931   31.8665   48.6689 H   0  0  0  0  0  0  0  0  0  0  0  0
   64.2108   33.6216   48.6689 H   0  0  0  0  0  0  0  0  0  0  0  0
   63.6108   31.9417   46.6046 H   0  0  0  0  0  0  0  0  0  0  0  0
   62.0896   31.8267   47.6005 H   0  0  0  0  0  0  0  0  0  0  0  0
   62.5042   34.5281   47.5706 H   0  0  0  0  0  0  0  0  0  0  0  0
   63.1305   34.0322   45.9352 H   0  0  0  0  0  0  0  0  0  0  0  0
   61.0376   34.0046   45.1872 H   0  0  0  0  0  0  0  0  0  0  0  0
   60.7137   32.6302   46.3392 H   0  0  0  0  0  0  0  0  0  0  0  0
   60.3380   35.6003   46.8966 H   0  0  0  0  0  0  0  0  0  0  0  0
   59.0483   34.3171   46.6220 H   0  0  0  0  0  0  0  0  0  0  0  0
   60.9789   33.9830   48.8856 H   0  0  0  0  0  0  0  0  0  0  0  0
   59.5960   35.1652   49.0252 H   0  0  0  0  0  0  0  0  0  0  0  0
   58.2298   33.4960   49.5644 H   0  0  0  0  0  0  0  0  0  0  0  0
   58.5591   32.7397   47.9509 H   0  0  0  0  0  0  0  0  0  0  0  0
   60.6913   32.3114   49.9672 H   0  0  0  0  0  0  0  0  0  0  0  0
   59.0795   31.5660   50.3682 H   0  0  0  0  0  0  0  0  0  0  0  0
   60.7865   31.0831   47.8827 H   0  0  0  0  0  0  0  0  0  0  0  0
   60.3600   29.9132   49.1992 H   0  0  0  0  0  0  0  0  0  0  0  0
   58.2125   29.6056   48.4342 H   0  0  0  0  0  0  0  0  0  0  0  0
   58.1442   31.2545   47.6771 H   0  0  0  0  0  0  0  0  0  0  0  0
   60.1744   29.5705   46.4119 H   0  0  0  0  0  0  0  0  0  0  0  0
   58.5031   28.8231   46.3672 H   0  0  0  0  0  0  0  0  0  0  0  0
   59.6088   30.9761   44.7468 H   0  0  0  0  0  0  0  0  0  0  0  0
   56.9879   31.6870   46.0969 H   0  0  0  0  0  0  0  0  0  0  0  0
   58.6387   32.3803   46.5178 H   0  0  0  0  0  0  0  0  0  0  0  0
   58.8449   33.3843   44.3620 H   0  0  0  0  0  0  0  0  0  0  0  0
   57.2939   32.5977   43.8146 H   0  0  0  0  0  0  0  0  0  0  0  0
   57.0276   34.2677   46.2368 H   0  0  0  0  0  0  0  0  0  0  0  0
   57.5049   35.1718   44.7598 H   0  0  0  0  0  0  0  0  0  0  0  0
   56.0092   34.1771   44.7598 H   0  0  0  0  0  0  0  0  0  0  0  0
   57.7987   30.4325   43.2979 H   0  0  0  0  0  0  0  0  0  0  0  0
   58.3842   28.8826   44.0748 H   0  0  0  0  0  0  0  0  0  0  0  0
   57.4710   26.8424   44.5495 H   0  0  0  0  0  0  0  0  0  0  0  0
   57.8275   27.4689   46.1996 H   0  0  0  0  0  0  0  0  0  0  0  0
   56.5707   25.0469   45.6008 H   0  0  0  0  0  0  0  0  0  0  0  0
   56.5410   25.8994   47.1897 H   0  0  0  0  0  0  0  0  0  0  0  0
   54.7410   27.1330   45.9640 H   0  0  0  0  0  0  0  0  0  0  0  0
  1  2  1  0
  2  3  1  0
  3  4  1  0
  4  5  1  0
  5  6  1  0
  6  7  1  0
  7  8  1  0
  8  9  1  0
  9 10  1  0
 10 11  1  0
 11 12  1  0
 12 13  1  0
 13 14  1  0
 14 15  1  0
 12 16  1  0
 16 17  1  0
 17 18  2  0
 17 19  1  0
 19 20  1  0
 20 21  1  0
 21 22  1  0
  1 23  1  0
  1 24  1  0
  1 25  1  0
  2 26  1  0
  2 27  1  0
  3 28  1  0
  3 29  1  0
  4 30  1  0
  4 31  1  0
  5 32  1  0
  5 33  1  0
  6 34  1  0
  6 35  1  0
  7 36  1  0
  7 37  1  0
  8 38  1  0
  8 39  1  0
  9 40  1  0
  9 41  1  0
 10 42  1  0
 10 43  1  0
 11 44  1  0
 11 45  1  0
 12 46  1  6
 13 47  1  0
 13 48  1  0
 14 49  1  0
 14 50  1  0
 15 51  1  0
 15 52  1  0
 15 53  1  0
 16 54  1  0
 16 55  1  0
 20 56  1  0
 20 57  1  0
 21 58  1  0
 21 59  1  0
 22 60  1  0
M  CHG  1  19  -1
M  END
>  <UniqueID>  (4) 
3

>  <SMILES>  (4) 
CCCCCCCCCCC[C@H](CCC)CC(=O)[N-]CCO

>  <Energy>  (4) 
34.031906567023526

>  <Genealogy>  (4) 
CCCCCCCCCCCC(CCC)CC(=O)[N-]CCO (protonated)
CCCCCCCCCCC[C@H](CCC)CC(=O)[N-]CCO (chirality)
CCCCCCCCCCC[C@H](CCC)CC(=O)[N-]CCO (3D coordinates assigned)
CCCCCCCCCCC[C@H](CCC)CC(=O)[N-]CCO (optimized conformer: 34.031906567023526 kcal/mol)

>  <smiles>  (4) 
CCCCCCCCCCCC(CCC)CC(=O)NCCO

>  <score_type>  (4) 
oracle

>  <origin>  (4) 
adg

>  <m_score__min__energy>  (4) 
-9.3200000000000003

>  <m_primary>  (4) 
energy

$$$$
4:0
     RDKit          3D

 54 55  0  0  0  0  0  0  0  0999 V2000
   56.6430   30.4780   42.5110 C   0  0  0  0  0  0  0  0  0  0  0  0
   57.2370   31.3590   43.5970 C   0  0  0  0  0  0  0  0  0  0  0  0
   56.9020   30.8300   44.8750 O   0  0  0  0  0  0  0  0  0  0  0  0
   56.7020   29.4630   45.1000 C   0  0  0  0  0  0  0  0  0  0  0  0
   55.5370   28.9810   45.0350 O   0  0  0  0  0  0  0  0  0  0  0  0
   57.8890   28.5960   45.5020 C   0  0  2  0  0  0  0  0  0  0  0  0
   57.5320   27.0930   45.2560 C   0  0  0  0  0  0  0  0  0  0  0  0
   56.7260   26.3880   46.3700 C   0  0  0  0  0  0  0  0  0  0  0  0
   55.3600   26.2590   46.0210 O   0  0  0  0  0  0  0  0  0  0  0  0
   55.0750   24.9440   45.5960 C   0  0  0  0  0  0  0  0  0  0  0  0
   58.1440   28.7860   47.0350 C   0  0  0  0  0  0  0  0  0  0  0  0
   59.1490   29.9140   47.2990 C   0  0  0  0  0  0  0  0  0  0  0  0
   60.4970   29.5570   46.7840 N   0  0  2  0  0  0  0  0  0  0  0  0
   61.4210   30.7230   46.7360 C   0  0  0  0  0  0  0  0  0  0  0  0
   60.8270   32.0300   47.2450 C   0  0  0  0  0  0  0  0  0  0  0  0
   59.9450   32.7530   46.4210 C   0  0  0  0  0  0  0  0  0  0  0  0
   59.3500   33.9470   46.8680 C   0  0  0  0  0  0  0  0  0  0  0  0
   58.4390   34.6740   46.0870 O   0  0  0  0  0  0  0  0  0  0  0  0
   57.8670   34.2030   44.8710 C   0  0  0  0  0  0  0  0  0  0  0  0
   59.6720   34.4350   48.1360 C   0  0  0  0  0  0  0  0  0  0  0  0
   60.5790   33.7560   48.9470 C   0  0  0  0  0  0  0  0  0  0  0  0
   61.1680   32.5640   48.5120 C   0  0  0  0  0  0  0  0  0  0  0  0
   62.4450   31.7370   49.6850 Br  0  0  0  0  0  0  0  0  0  0  0  0
   60.4650   28.7660   45.5180 C   0  0  0  0  0  0  0  0  0  0  0  0
   59.1810   29.0000   44.7030 C   0  0  0  0  0  0  0  0  0  0  0  0
   56.0852   29.6507   42.9742 H   0  0  0  0  0  0  0  0  0  0  0  0
   55.9622   31.0748   41.8863 H   0  0  0  0  0  0  0  0  0  0  0  0
   57.4515   30.0706   41.8863 H   0  0  0  0  0  0  0  0  0  0  0  0
   58.3312   31.3878   43.4877 H   0  0  0  0  0  0  0  0  0  0  0  0
   56.8316   32.3774   43.5047 H   0  0  0  0  0  0  0  0  0  0  0  0
   56.9424   27.0363   44.3291 H   0  0  0  0  0  0  0  0  0  0  0  0
   58.4967   26.5661   45.2147 H   0  0  0  0  0  0  0  0  0  0  0  0
   57.1482   25.3861   46.5370 H   0  0  0  0  0  0  0  0  0  0  0  0
   56.7924   26.9985   47.2826 H   0  0  0  0  0  0  0  0  0  0  0  0
   54.9348   24.2970   46.4745 H   0  0  0  0  0  0  0  0  0  0  0  0
   54.1563   24.9452   44.9911 H   0  0  0  0  0  0  0  0  0  0  0  0
   55.9118   24.5647   44.9911 H   0  0  0  0  0  0  0  0  0  0  0  0
   58.5411   27.8482   47.4508 H   0  0  0  0  0  0  0  0  0  0  0  0
   57.1905   29.0524   47.5144 H   0  0  0  0  0  0  0  0  0  0  0  0
   59.2134   30.0923   48.3825 H   0  0  0  0  0  0  0  0  0  0  0  0
   58.8037   30.8200   46.7795 H   0  0  0  0  0  0  0  0  0  0  0  0
   60.9130   28.9180   47.5040 H   0  0  0  0  0  0  0  0  0  0  0  0
   62.3030   30.4862   47.3492 H   0  0  0  0  0  0  0  0  0  0  0  0
   61.6610   30.8845   45.6747 H   0  0  0  0  0  0  0  0  0  0  0  0
   59.7172   32.3790   45.4119 H   0  0  0  0  0  0  0  0  0  0  0  0
   57.0360   33.5188   45.0975 H   0  0  0  0  0  0  0  0  0  0  0  0
   57.4906   35.0565   44.2881 H   0  0  0  0  0  0  0  0  0  0  0  0
   58.6325   33.6699   44.2881 H   0  0  0  0  0  0  0  0  0  0  0  0
   59.2057   35.3633   48.4977 H   0  0  0  0  0  0  0  0  0  0  0  0
   60.8340   34.1606   49.9376 H   0  0  0  0  0  0  0  0  0  0  0  0
   60.5323   27.6972   45.7692 H   0  0  0  0  0  0  0  0  0  0  0  0
   61.3144   29.0934   44.9005 H   0  0  0  0  0  0  0  0  0  0  0  0
   59.2309   28.3992   43.7829 H   0  0  0  0  0  0  0  0  0  0  0  0
   59.1159   30.0744   44.4763 H   0  0  0  0  0  0  0  0  0  0  0  0
  1  2  1  0
  2  3  1  0
  3  4  1  0
  4  5  2  0
  4  6  1  0
  6  7  1  1
  7  8  1  0
  8  9  1  0
  9 10  1  0
  6 11  1  0
 11 12  1  0
 12 13  1  0
 13 14  1  0
 14 15  1  0
 15 16  2  0
 16 17  1  0
 17 18  1  0
 18 19  1  0
 17 20  2  0
 20 21  1  0
 21 22  2  0
 22 23  1  0
 13 24  1  0
 24 25  1  0
 25  6  1  0
 22 15  1  0
  1 26  1  0
  1 27  1  0
  1 28  1  0
  2 29  1  0
  2 30  1  0
  7 31  1  0
  7 32  1  0
  8 33  1  0
  8 34  1  0
 10 35  1  0
 10 36  1  0
 10 37  1  0
 11 38  1  0
 11 39  1  0
 12 40  1  0
 12 41  1  0
 13 42  1  1
 14 43  1  0
 14 44  1  0
 16 45  1  0
 19 46  1  0
 19 47  1  0
 19 48  1  0
 20 49  1  0
 21 50  1  0
 24 51  1  0
 24 52  1  0
 25 53  1  0
 25 54  1  0
M  CHG  1  13   1
M  END
>  <UniqueID>  (5) 
4

>  <SMILES>  (5) 
CCOC(=O)C1(CCOC)CC[NH+](Cc2cc(OC)ccc2Br)CC1

>  <Energy>  (5) 
66.59250559343755

>  <Genealogy>  (5) 
CCOC(=O)C1(CCOC)CC[NH+](Cc2cc(OC)ccc2Br)CC1 (protonated)
CCOC(=O)C1(CCOC)CC[NH+](Cc2cc(OC)ccc2Br)CC1 (3D coordinates assigned)
CCOC(=O)C1(CCOC)CC[NH+](Cc2cc(OC)ccc2Br)CC1 (nonaromatic ring conformer: 66.59250559343755 kcal/mol)

>  <smiles>  (5) 
CCOC(=O)C1(CCOC)CCN(Cc2cc(OC)ccc2Br)CC1

>  <score_type>  (5) 
oracle

>  <origin>  (5) 
adg

>  <m_score__min__energy>  (5) 
-6.6699999999999999

>  <m_primary>  (5) 
energy

$$$$
5:0
     RDKit          3D

 35 36  0  0  0  0  0  0  0  0999 V2000
   59.0270   34.4560   44.5120 C   0  0  0  0  0  0  0  0  0  0  0  0
   59.4650   34.9600   45.8860 C   0  0  0  0  0  0  0  0  0  0  0  0
   60.7810   34.3220   46.3800 C   0  0  0  0  0  0  0  0  0  0  0  0
   60.7300   33.8530   47.7900 N   0  0  1  0  0  0  0  0  0  0  0  0
   59.5740   32.9840   48.1120 C   0  0  0  0  0  0  0  0  0  0  0  0
   59.3670   31.8360   47.1430 C   0  0  0  0  0  0  0  0  0  0  0  0
   58.1530   31.7360   46.4390 C   0  0  0  0  0  0  0  0  0  0  0  0
   57.8900   30.6250   45.6150 C   0  0  0  0  0  0  0  0  0  0  0  0
   56.6960   30.4920   44.8890 O   0  0  0  0  0  0  0  0  0  0  0  0
   56.6060   29.9320   43.5830 C   0  0  0  0  0  0  0  0  0  0  0  0
   58.8420   29.6080   45.5150 C   0  0  0  0  0  0  0  0  0  0  0  0
   60.0480   29.6970   46.2110 C   0  0  0  0  0  0  0  0  0  0  0  0
   60.3280   30.8140   47.0060 C   0  0  0  0  0  0  0  0  0  0  0  0
   61.5660   30.8780   47.6500 O   0  0  0  0  0  0  0  0  0  0  0  0
   62.4660   31.9650   47.4710 C   0  0  0  0  0  0  0  0  0  0  0  0
   61.9730   33.2050   48.1660 C   0  0  0  0  0  0  0  0  0  0  0  0
   62.6420   33.6660   49.0830 O   0  0  0  0  0  0  0  0  0  0  0  0
   58.3100   33.6310   44.6355 H   0  0  0  0  0  0  0  0  0  0  0  0
   58.5499   35.2762   43.9556 H   0  0  0  0  0  0  0  0  0  0  0  0
   59.9057   34.0979   43.9556 H   0  0  0  0  0  0  0  0  0  0  0  0
   59.6049   36.0496   45.8298 H   0  0  0  0  0  0  0  0  0  0  0  0
   58.6783   34.6792   46.6017 H   0  0  0  0  0  0  0  0  0  0  0  0
   61.0113   33.4603   45.7363 H   0  0  0  0  0  0  0  0  0  0  0  0
   61.5534   35.1036   46.3308 H   0  0  0  0  0  0  0  0  0  0  0  0
   60.6430   34.7010   48.3980 H   0  0  0  0  0  0  0  0  0  0  0  0
   59.7286   32.5633   49.1165 H   0  0  0  0  0  0  0  0  0  0  0  0
   58.6766   33.6168   48.0469 H   0  0  0  0  0  0  0  0  0  0  0  0
   57.4017   32.5339   46.5333 H   0  0  0  0  0  0  0  0  0  0  0  0
   56.4319   28.8486   43.6598 H   0  0  0  0  0  0  0  0  0  0  0  0
   55.7715   30.3999   43.0401 H   0  0  0  0  0  0  0  0  0  0  0  0
   57.5451   30.1149   43.0401 H   0  0  0  0  0  0  0  0  0  0  0  0
   58.6396   28.7307   44.8831 H   0  0  0  0  0  0  0  0  0  0  0  0
   60.7841   28.8832   46.1342 H   0  0  0  0  0  0  0  0  0  0  0  0
   63.4474   31.6891   47.8843 H   0  0  0  0  0  0  0  0  0  0  0  0
   62.5422   32.1782   46.3945 H   0  0  0  0  0  0  0  0  0  0  0  0
  1  2  1  0
  2  3  1  0
  3  4  1  0
  4  5  1  0
  5  6  1  0
  6  7  2  0
  7  8  1  0
  8  9  1  0
  9 10  1  0
  8 11  2  0
 11 12  1  0
 12 13  2  0
 13 14  1  0
 14 15  1  0
 15 16  1  0
 16 17  2  0
 16  4  1  0
 13  6  1  0
  1 18  1  0
  1 19  1  0
  1 20  1  0
  2 21  1  0
  2 22  1  0
  3 23  1  0
  3 24  1  0
  4 25  1  1
  5 26  1  0
  5 27  1  0
  7 28  1  0
 10 29  1  0
 10 30  1  0
 10 31  1  0
 11 32  1  0
 12 33  1  0
 15 34  1  0
 15 35  1  0
M  CHG  1   4   1
M  END
>  <UniqueID>  (6) 
5

>  <SMILES>  (6) 
CCC[N@H+]1Cc2cc(OC)ccc2OCC1=O

>  <Energy>  (6) 
44.886579315629994

>  <Genealogy>  (6) 
CCC[NH+]1Cc2cc(OC)ccc2OCC1=O (protonated)
CCC[N@H+]1Cc2cc(OC)ccc2OCC1=O (chirality)
CCC[N@H+]1Cc2cc(OC)ccc2OCC1=O (3D coordinates assigned)
CCC[N@H+]1Cc2cc(OC)ccc2OCC1=O (nonaromatic ring conformer: 44.886579315629994 kcal/mol)

>  <smiles>  (6) 
CCCN1Cc2cc(OC)ccc2OCC1=O

>  <score_type>  (6) 
oracle

>  <origin>  (6) 
adg

>  <m_score__min__energy>  (6) 
-2.2400000000000002

>  <m_primary>  (6) 
energy

$$$$
6:0
     RDKit          3D

 45 46  0  0  0  0  0  0  0  0999 V2000
   63.2890   33.8220   46.6550 C   0  0  0  0  0  0  0  0  0  0  0  0
   62.9520   32.8600   47.7920 C   0  0  0  0  0  0  0  0  0  0  0  0
   61.5010   32.8810   48.0850 N   0  0  0  0  0  0  0  0  0  0  0  0
   61.2270   32.4250   49.4680 C   0  0  0  0  0  0  0  0  0  0  0  0
   60.8030   30.9460   49.4840 C   0  0  0  0  0  0  0  0  0  0  0  0
   61.0910   30.2580   48.2050 N   0  0  0  0  0  0  0  0  0  0  0  0
   60.2100   29.1000   47.9560 C   0  0  0  0  0  0  0  0  0  0  0  0
   59.2520   29.3540   46.8160 C   0  0  0  0  0  0  0  0  0  0  0  0
   58.2000   28.4560   46.5670 C   0  0  0  0  0  0  0  0  0  0  0  0
   57.3170   28.6800   45.5060 C   0  0  0  0  0  0  0  0  0  0  0  0
   57.4780   29.8010   44.6850 C   0  0  0  0  0  0  0  0  0  0  0  0
   56.2720   30.1030   43.2350 Br  0  0  0  0  0  0  0  0  0  0  0  0
   58.5230   30.6970   44.9250 C   0  0  0  0  0  0  0  0  0  0  0  0
   59.4070   30.4770   45.9860 C   0  0  0  0  0  0  0  0  0  0  0  0
   60.9180   34.2190   47.8400 C   0  0  0  0  0  0  0  0  0  0  0  0
   59.6970   34.0890   46.9690 C   0  0  0  0  0  0  0  0  0  0  0  0
   59.6750   34.6350   45.6750 C   0  0  0  0  0  0  0  0  0  0  0  0
   58.5190   34.5450   44.8930 C   0  0  0  0  0  0  0  0  0  0  0  0
   57.3790   33.9110   45.3960 C   0  0  0  0  0  0  0  0  0  0  0  0
   57.3930   33.3660   46.6840 C   0  0  0  0  0  0  0  0  0  0  0  0
   58.5470   33.4530   47.4680 C   0  0  0  0  0  0  0  0  0  0  0  0
   63.6252   34.7818   47.0743 H   0  0  0  0  0  0  0  0  0  0  0  0
   64.0899   33.3917   46.0358 H   0  0  0  0  0  0  0  0  0  0  0  0
   62.3946   33.9855   46.0358 H   0  0  0  0  0  0  0  0  0  0  0  0
   63.2466   31.8408   47.5015 H   0  0  0  0  0  0  0  0  0  0  0  0
   63.4986   33.1740   48.6935 H   0  0  0  0  0  0  0  0  0  0  0  0
   62.1371   32.5454   50.0740 H   0  0  0  0  0  0  0  0  0  0  0  0
   60.4072   33.0304   49.8820 H   0  0  0  0  0  0  0  0  0  0  0  0
   61.3464   30.4323   50.2907 H   0  0  0  0  0  0  0  0  0  0  0  0
   59.7151   30.9127   49.6430 H   0  0  0  0  0  0  0  0  0  0  0  0
   62.0840   29.9300   48.1820 H   0  0  0  0  0  0  0  0  0  0  0  0
   60.9870   30.9420   47.4190 H   0  0  0  0  0  0  0  0  0  0  0  0
   60.8320   28.2268   47.7096 H   0  0  0  0  0  0  0  0  0  0  0  0
   59.6172   28.9217   48.8653 H   0  0  0  0  0  0  0  0  0  0  0  0
   58.0706   27.5727   47.2097 H   0  0  0  0  0  0  0  0  0  0  0  0
   56.4950   27.9739   45.3169 H   0  0  0  0  0  0  0  0  0  0  0  0
   58.6506   31.5774   44.2779 H   0  0  0  0  0  0  0  0  0  0  0  0
   60.2272   31.1861   46.1715 H   0  0  0  0  0  0  0  0  0  0  0  0
   60.6354   34.6760   48.7998 H   0  0  0  0  0  0  0  0  0  0  0  0
   61.6609   34.8527   47.3335 H   0  0  0  0  0  0  0  0  0  0  0  0
   60.5697   35.1349   45.2755 H   0  0  0  0  0  0  0  0  0  0  0  0
   58.5067   34.9739   43.8801 H   0  0  0  0  0  0  0  0  0  0  0  0
   56.4711   33.8408   44.7788 H   0  0  0  0  0  0  0  0  0  0  0  0
   56.4954   32.8686   47.0802 H   0  0  0  0  0  0  0  0  0  0  0  0
   58.5553   33.0218   48.4799 H   0  0  0  0  0  0  0  0  0  0  0  0
  1  2  1  0
  2  3  1  0
  3  4  1  0
  4  5  1  0
  5  6  1  0
  6  7  1  0
  7  8  1  0
  8  9  2  0
  9 10  1  0
 10 11  2  0
 11 12  1  0
 11 13  1  0
 13 14  2  0
  3 15  1  0
 15 16  1  0
 16 17  2  0
 17 18  1  0
 18 19  2  0
 19 20  1  0
 20 21  2  0
 14  8  1  0
 21 16  1  0
  1 22  1  0
  1 23  1  0
  1 24  1  0
  2 25  1  0
  2 26  1  0
  4 27  1  0
  4 28  1  0
  5 29  1  0
  5 30  1  0
  6 31  1  0
  6 32  1  0
  7 33  1  0
  7 34  1  0
  9 35  1  0
 10 36  1  0
 13 37  1  0
 14 38  1  0
 15 39  1  0
 15 40  1  0
 17 41  1  0
 18 42  1  0
 19 43  1  0
 20 44  1  0
 21 45  1  0
M  CHG  1   6   1
M  END
>  <UniqueID>  (7) 
6

>  <SMILES>  (7) 
CCN(CC[NH2+]Cc1ccc(Br)cc1)Cc1ccccc1

>  <Energy>  (7) 
43.31955235329573

>  <Genealogy>  (7) 
CCN(CC[NH2+]Cc1ccc(Br)cc1)Cc1ccccc1 (protonated)
CCN(CC[NH2+]Cc1ccc(Br)cc1)Cc1ccccc1 (3D coordinates assigned)
CCN(CC[NH2+]Cc1ccc(Br)cc1)Cc1ccccc1 (optimized conformer: 43.31955235329573 kcal/mol)

>  <smiles>  (7) 
CCN(CCNCc1ccc(Br)cc1)Cc1ccccc1

>  <score_type>  (7) 
oracle

>  <origin>  (7) 
adg

>  <m_score__min__energy>  (7) 
-5.8099999999999996

>  <m_primary>  (7) 
energy

$$$$
7:0
     RDKit          3D

 56 60  0  0  0  0  0  0  0  0999 V2000
   56.7180   30.6600   43.0150 C   0  0  0  0  0  0  0  0  0  0  0  0
   57.4950   31.3770   44.0850 C   0  0  0  0  0  0  0  0  0  0  0  0
   57.7750   32.7440   43.9190 C   0  0  0  0  0  0  0  0  0  0  0  0
   58.5250   33.4370   44.8710 C   0  0  0  0  0  0  0  0  0  0  0  0
   59.0110   32.7750   46.0030 C   0  0  0  0  0  0  0  0  0  0  0  0
   59.9390   33.6650   47.2080 S   0  0  0  0  0  0  0  0  0  0  0  0
   60.7240   34.7590   46.5370 O   0  0  0  0  0  0  0  0  0  0  0  0
   58.9760   34.3010   48.1730 O   0  0  0  0  0  0  0  0  0  0  0  0
   61.0060   32.5880   48.0860 N   0  0  0  0  0  0  0  0  0  0  0  0
   62.0540   32.0200   47.2180 C   0  0  0  0  0  0  0  0  0  0  0  0
   63.1450   33.0570   46.8610 C   0  0  0  0  0  0  0  0  0  0  0  0
   63.1670   34.1780   47.7270 O   0  0  0  0  0  0  0  0  0  0  0  0
   63.0010   33.7650   49.0650 C   0  0  0  0  0  0  0  0  0  0  0  0
   61.5700   33.2380   49.2890 C   0  0  0  0  0  0  0  0  0  0  0  0
   58.7170   31.4190   46.1910 C   0  0  0  0  0  0  0  0  0  0  0  0
   57.9400   30.7190   45.2580 C   0  0  0  0  0  0  0  0  0  0  0  0
   57.6440   29.3370   45.5080 N   0  0  0  0  0  0  0  0  0  0  0  0
   58.2470   28.2730   44.7570 C   0  0  0  0  0  0  0  0  0  0  0  0
   58.9300   28.5370   43.7310 O   0  0  0  0  0  0  0  0  0  0  0  0
   57.9990   26.8610   45.1060 C   0  0  0  0  0  0  0  0  0  0  0  0
   57.7060   25.6720   43.9460 S   0  0  0  0  0  0  0  0  0  0  0  0
   57.4520   24.4210   45.0370 C   0  0  0  0  0  0  0  0  0  0  0  0
   57.5980   24.9030   46.3340 C   0  0  0  0  0  0  0  0  0  0  0  0
   57.9400   26.2780   46.3870 C   0  0  0  0  0  0  0  0  0  0  0  0
   58.2560   27.0130   47.6620 C   0  0  0  0  0  0  0  0  0  0  0  0
   57.3940   24.0150   47.4080 C   0  0  0  0  0  0  0  0  0  0  0  0
   57.4770   24.3990   48.6040 O   0  0  0  0  0  0  0  0  0  0  0  0
   57.0820   22.7130   47.1490 N   0  0  0  0  0  0  0  0  0  0  0  0
   56.9520   22.2290   45.8810 C   0  0  0  0  0  0  0  0  0  0  0  0
   56.6320   20.8820   45.6740 C   0  0  0  0  0  0  0  0  0  0  0  0
   56.4920   20.3870   44.3730 C   0  0  0  0  0  0  0  0  0  0  0  0
   56.6680   21.2340   43.2750 C   0  0  0  0  0  0  0  0  0  0  0  0
   56.9880   22.5820   43.4680 C   0  0  0  0  0  0  0  0  0  0  0  0
   57.1320   23.0870   44.7700 C   0  0  0  0  0  0  0  0  0  0  0  0
   55.9865   29.9849   43.4831 H   0  0  0  0  0  0  0  0  0  0  0  0
   56.1906   31.3954   42.3897 H   0  0  0  0  0  0  0  0  0  0  0  0
   57.4088   30.0753   42.3897 H   0  0  0  0  0  0  0  0  0  0  0  0
   57.3997   33.2730   43.0306 H   0  0  0  0  0  0  0  0  0  0  0  0
   58.7344   34.5077   44.7302 H   0  0  0  0  0  0  0  0  0  0  0  0
   62.5263   31.1748   47.7401 H   0  0  0  0  0  0  0  0  0  0  0  0
   61.5769   31.6968   46.2810 H   0  0  0  0  0  0  0  0  0  0  0  0
   64.1256   32.5608   46.9094 H   0  0  0  0  0  0  0  0  0  0  0  0
   62.9155   33.4326   45.8529 H   0  0  0  0  0  0  0  0  0  0  0  0
   63.7216   32.9649   49.2898 H   0  0  0  0  0  0  0  0  0  0  0  0
   63.1734   34.6251   49.7288 H   0  0  0  0  0  0  0  0  0  0  0  0
   61.5894   32.5047   50.1087 H   0  0  0  0  0  0  0  0  0  0  0  0
   60.9321   34.1011   49.5301 H   0  0  0  0  0  0  0  0  0  0  0  0
   59.1000   30.8975   47.0806 H   0  0  0  0  0  0  0  0  0  0  0  0
   56.7910   29.1170   46.0700 H   0  0  0  0  0  0  0  0  0  0  0  0
   57.9860   26.3850   48.5238 H   0  0  0  0  0  0  0  0  0  0  0  0
   59.3316   27.2408   47.6970 H   0  0  0  0  0  0  0  0  0  0  0  0
   57.6813   27.9503   47.6970 H   0  0  0  0  0  0  0  0  0  0  0  0
   56.4905   20.2122   46.5350 H   0  0  0  0  0  0  0  0  0  0  0  0
   56.2426   19.3276   44.2135 H   0  0  0  0  0  0  0  0  0  0  0  0
   56.5544   20.8388   42.2548 H   0  0  0  0  0  0  0  0  0  0  0  0
   57.1265   23.2451   42.6013 H   0  0  0  0  0  0  0  0  0  0  0  0
  1  2  1  0
  2  3  2  0
  3  4  1  0
  4  5  2  0
  5  6  1  0
  6  7  2  0
  6  8  2  0
  6  9  1  0
  9 10  1  0
 10 11  1  0
 11 12  1  0
 12 13  1  0
 13 14  1  0
  5 15  1  0
 15 16  2  0
 16 17  1  0
 17 18  1  0
 18 19  2  0
 18 20  1  0
 20 21  1  0
 21 22  1  0
 22 23  2  0
 23 24  1  0
 24 25  1  0
 23 26  1  0
 26 27  2  0
 26 28  1  0
 28 29  1  0
 29 30  2  0
 30 31  1  0
 31 32  2  0
 32 33  1  0
 33 34  2  0
 16  2  1  0
 24 20  2  0
 34 29  1  0
 14  9  1  0
 34 22  1  0
  1 35  1  0
  1 36  1  0
  1 37  1  0
  3 38  1  0
  4 39  1  0
 10 40  1  0
 10 41  1  0
 11 42  1  0
 11 43  1  0
 13 44  1  0
 13 45  1  0
 14 46  1  0
 14 47  1  0
 15 48  1  0
 17 49  1  0
 25 50  1  0
 25 51  1  0
 25 52  1  0
 30 53  1  0
 31 54  1  0
 32 55  1  0
 33 56  1  0
M  CHG  1  28  -1
M  END
>  <UniqueID>  (8) 
7

>  <SMILES>  (8) 
Cc1ccc(S(=O)(=O)N2CCOCC2)cc1NC(=O)c1sc2c(c1C)c(=O)[n-]c1ccccc12

>  <Energy>  (8) 
117.41936232650512

>  <Genealogy>  (8) 
Cc1ccc(S(=O)(=O)N2CCOCC2)cc1NC(=O)c1sc2c(c1C)c(=O)[n-]c1ccccc12 (protonated)
Cc1ccc(S(=O)(=O)N2CCOCC2)cc1NC(=O)c1sc2c(c1C)c(=O)[n-]c1ccccc12 (3D coordinates assigned)
Cc1ccc(S(=O)(=O)N2CCOCC2)cc1NC(=O)c1sc2c(c1C)c(=O)[n-]c1ccccc12 (nonaromatic ring conformer: 117.41936232650512 kcal/mol)

>  <smiles>  (8) 
Cc1ccc(S(=O)(=O)N2CCOCC2)cc1NC(=O)c1sc2c(c1C)c(=O)[nH]c1ccccc12

>  <score_type>  (8) 
oracle

>  <origin>  (8) 
adg

>  <m_score__min__energy>  (8) 
-11.17

>  <m_primary>  (8) 
energy

$$$$
8:0
     RDKit          3D

 40 41  0  0  0  0  0  0  0  0999 V2000
   55.2420   24.8700   45.5810 C   0  0  0  0  0  0  0  0  0  0  0  0
   55.3490   26.2370   45.9660 O   0  0  0  0  0  0  0  0  0  0  0  0
   56.5600   26.9340   46.0950 C   0  0  0  0  0  0  0  0  0  0  0  0
   57.6770   26.3780   46.7480 C   0  0  0  0  0  0  0  0  0  0  0  0
   58.8650   27.1030   46.8580 C   0  0  0  0  0  0  0  0  0  0  0  0
   58.9560   28.3960   46.3300 C   0  0  0  0  0  0  0  0  0  0  0  0
   60.2510   29.1630   46.4130 C   0  0  0  0  0  0  0  0  0  0  0  0
   60.0710   30.3890   47.2070 N   0  0  0  0  0  0  0  0  0  0  0  0
   60.3250   31.6030   46.4140 C   0  0  0  0  0  0  0  0  0  0  0  0
   59.0750   32.4260   46.2210 C   0  0  0  0  0  0  0  0  0  0  0  0
   58.5630   33.3060   47.1570 C   0  0  0  0  0  0  0  0  0  0  0  0
   57.3870   33.8000   46.6280 C   0  0  0  0  0  0  0  0  0  0  0  0
   57.2250   33.2020   45.3940 C   0  0  0  0  0  0  0  0  0  0  0  0
   58.2590   32.3750   45.1440 N   0  0  0  0  0  0  0  0  0  0  0  0
   58.3820   31.5140   43.9700 C   0  0  0  0  0  0  0  0  0  0  0  0
   57.8510   28.9490   45.6650 C   0  0  0  0  0  0  0  0  0  0  0  0
   56.6490   28.2250   45.5490 C   0  0  0  0  0  0  0  0  0  0  0  0
   55.5230   28.7500   44.8960 O   0  0  0  0  0  0  0  0  0  0  0  0
   55.5720   29.7360   43.8700 C   0  0  0  0  0  0  0  0  0  0  0  0
   55.1926   24.2386   46.4804 H   0  0  0  0  0  0  0  0  0  0  0  0
   54.3300   24.7279   44.9826 H   0  0  0  0  0  0  0  0  0  0  0  0
   56.1208   24.5877   44.9826 H   0  0  0  0  0  0  0  0  0  0  0  0
   57.6130   25.3659   47.1741 H   0  0  0  0  0  0  0  0  0  0  0  0
   59.7342   26.6556   47.3624 H   0  0  0  0  0  0  0  0  0  0  0  0
   61.0161   28.5320   46.8889 H   0  0  0  0  0  0  0  0  0  0  0  0
   60.5678   29.4394   45.3965 H   0  0  0  0  0  0  0  0  0  0  0  0
   60.7020   30.3690   48.0410 H   0  0  0  0  0  0  0  0  0  0  0  0
   59.0820   30.4280   47.5480 H   0  0  0  0  0  0  0  0  0  0  0  0
   61.0764   32.2156   46.9338 H   0  0  0  0  0  0  0  0  0  0  0  0
   60.6821   31.2910   45.4215 H   0  0  0  0  0  0  0  0  0  0  0  0
   59.0054   33.5620   48.1310 H   0  0  0  0  0  0  0  0  0  0  0  0
   56.7104   34.5286   47.0985 H   0  0  0  0  0  0  0  0  0  0  0  0
   56.3769   33.3752   44.7152 H   0  0  0  0  0  0  0  0  0  0  0  0
   58.5307   30.4730   44.2927 H   0  0  0  0  0  0  0  0  0  0  0  0
   57.4648   31.5834   43.3667 H   0  0  0  0  0  0  0  0  0  0  0  0
   59.2431   31.8374   43.3667 H   0  0  0  0  0  0  0  0  0  0  0  0
   57.9245   29.9569   45.2306 H   0  0  0  0  0  0  0  0  0  0  0  0
   55.6217   30.7363   44.3249 H   0  0  0  0  0  0  0  0  0  0  0  0
   56.4631   29.5721   43.2462 H   0  0  0  0  0  0  0  0  0  0  0  0
   54.6690   29.6613   43.2462 H   0  0  0  0  0  0  0  0  0  0  0  0
  1  2  1  0
  2  3  1  0
  3  4  2  0
  4  5  1  0
  5  6  2  0
  6  7  1  0
  7  8  1  0
  8  9  1  0
  9 10  1  0
 10 11  2  0
 11 12  1  0
 12 13  2  0
 13 14  1  0
 14 15  1  0
  6 16  1  0
 16 17  2  0
 17 18  1  0
 18 19  1  0
 17  3  1  0
 14 10  1  0
  1 20  1  0
  1 21  1  0
  1 22  1  0
  4 23  1  0
  5 24  1  0
  7 25  1  0
  7 26  1  0
  8 27  1  0
  8 28  1  0
  9 29  1  0
  9 30  1  0
 11 31  1  0
 12 32  1  0
 13 33  1  0
 15 34  1  0
 15 35  1  0
 15 36  1  0
 16 37  1  0
 19 38  1  0
 19 39  1  0
 19 40  1  0
M  CHG  1   8   1
M  END
>  <UniqueID>  (9) 
8

>  <SMILES>  (9) 
COc1ccc(C[NH2+]Cc2cccn2C)cc1OC

>  <Energy>  (9) 
62.119700467573956

>  <Genealogy>  (9) 
COc1ccc(C[NH2+]Cc2cccn2C)cc1OC (protonated)
COc1ccc(C[NH2+]Cc2cccn2C)cc1OC (3D coordinates assigned)
COc1ccc(C[NH2+]Cc2cccn2C)cc1OC (optimized conformer: 62.119700467573956 kcal/mol)

>  <smiles>  (9) 
COc1ccc(CNCc2cccn2C)cc1OC

>  <score_type>  (9) 
oracle

>  <origin>  (9) 
adg

>  <m_score__min__energy>  (9) 
-5.04

>  <m_primary>  (9) 
energy

$$$$
9:0
     RDKit          3D

 43 44  0  0  0  0  0  0  0  0999 V2000
   60.5510   31.6500   47.0350 C   0  0  0  0  0  0  0  0  0  0  0  0
   60.8220   33.1500   46.9780 C   0  0  0  0  0  0  0  0  0  0  0  0
   59.6160   33.9010   47.3950 N   0  0  0  0  0  0  0  0  0  0  0  0
   59.6400   34.1630   48.8450 C   0  0  0  0  0  0  0  0  0  0  0  0
   59.4750   35.1730   46.6510 C   0  0  0  0  0  0  0  0  0  0  0  0
   59.2450   34.9190   45.1530 C   0  0  0  0  0  0  0  0  0  0  0  0
   58.3510   33.7400   44.9090 C   0  0  0  0  0  0  0  0  0  0  0  0
   58.1960   33.0360   43.7310 C   0  0  0  0  0  0  0  0  0  0  0  0
   57.3730   32.0070   44.0130 N   0  0  0  0  0  0  0  0  0  0  0  0
   56.9760   30.9360   43.1060 C   0  0  0  0  0  0  0  0  0  0  0  0
   55.9160   29.7220   43.9660 S   0  0  0  0  0  0  0  0  0  0  0  0
   57.2760   28.8360   44.7310 C   0  0  0  0  0  0  0  0  0  0  0  0
   57.0170   27.7490   45.5760 C   0  0  0  0  0  0  0  0  0  0  0  0
   58.0730   27.0770   46.1970 C   0  0  0  0  0  0  0  0  0  0  0  0
   59.4000   27.4700   45.9580 C   0  0  0  0  0  0  0  0  0  0  0  0
   60.5340   26.7800   46.6580 C   0  0  0  0  0  0  0  0  0  0  0  0
   59.6530   28.5590   45.1110 C   0  0  0  0  0  0  0  0  0  0  0  0
   58.5960   29.2330   44.4930 C   0  0  0  0  0  0  0  0  0  0  0  0
   57.0500   32.0610   45.2970 N   0  0  0  0  0  0  0  0  0  0  0  0
   57.6320   33.1080   45.8580 N   0  0  0  0  0  0  0  0  0  0  0  0
   60.4927   31.3276   48.0851 H   0  0  0  0  0  0  0  0  0  0  0  0
   59.5986   31.4300   46.5305 H   0  0  0  0  0  0  0  0  0  0  0  0
   61.3662   31.1107   46.5305 H   0  0  0  0  0  0  0  0  0  0  0  0
   61.6549   33.3952   47.6534 H   0  0  0  0  0  0  0  0  0  0  0  0
   61.0818   33.4300   45.9465 H   0  0  0  0  0  0  0  0  0  0  0  0
   59.5529   33.2120   49.3909 H   0  0  0  0  0  0  0  0  0  0  0  0
   60.5869   34.6543   49.1132 H   0  0  0  0  0  0  0  0  0  0  0  0
   58.7981   34.8182   49.1132 H   0  0  0  0  0  0  0  0  0  0  0  0
   58.6185   35.7321   47.0556 H   0  0  0  0  0  0  0  0  0  0  0  0
   60.4048   35.7492   46.7675 H   0  0  0  0  0  0  0  0  0  0  0  0
   58.7818   35.8126   44.7092 H   0  0  0  0  0  0  0  0  0  0  0  0
   60.2209   34.7036   44.6933 H   0  0  0  0  0  0  0  0  0  0  0  0
   58.6528   33.2686   42.7577 H   0  0  0  0  0  0  0  0  0  0  0  0
   56.4194   31.3665   42.2605 H   0  0  0  0  0  0  0  0  0  0  0  0
   57.8804   30.4237   42.7460 H   0  0  0  0  0  0  0  0  0  0  0  0
   55.9807   27.4241   45.7509 H   0  0  0  0  0  0  0  0  0  0  0  0
   57.8642   26.2369   46.8757 H   0  0  0  0  0  0  0  0  0  0  0  0
   60.3978   26.8629   47.7464 H   0  0  0  0  0  0  0  0  0  0  0  0
   60.5508   25.7184   46.3704 H   0  0  0  0  0  0  0  0  0  0  0  0
   61.4846   27.2530   46.3704 H   0  0  0  0  0  0  0  0  0  0  0  0
   60.6885   28.8842   44.9322 H   0  0  0  0  0  0  0  0  0  0  0  0
   58.8025   30.0770   43.8184 H   0  0  0  0  0  0  0  0  0  0  0  0
   57.5530   33.3650   46.8660 H   0  0  0  0  0  0  0  0  0  0  0  0
  1  2  1  0
  2  3  1  0
  3  4  1  0
  3  5  1  0
  5  6  1  0
  6  7  1  0
  7  8  2  0
  8  9  1  0
  9 10  1  0
 10 11  1  0
 11 12  1  0
 12 13  2  0
 13 14  1  0
 14 15  2  0
 15 16  1  0
 15 17  1  0
 17 18  2  0
  9 19  1  0
 19 20  2  0
 20  7  1  0
 18 12  1  0
  1 21  1  0
  1 22  1  0
  1 23  1  0
  2 24  1  0
  2 25  1  0
  4 26  1  0
  4 27  1  0
  4 28  1  0
  5 29  1  0
  5 30  1  0
  6 31  1  0
  6 32  1  0
  8 33  1  0
 10 34  1  0
 10 35  1  0
 13 36  1  0
 14 37  1  0
 16 38  1  0
 16 39  1  0
 16 40  1  0
 17 41  1  0
 18 42  1  0
 20 43  1  0
M  CHG  1  20   1
M  END
>  <UniqueID>  (10) 
9

>  <SMILES>  (10) 
CCN(C)CCc1cn(CSc2ccc(C)cc2)n[nH+]1

>  <Energy>  (10) 
68.32806591314028

>  <Genealogy>  (10) 
CCN(C)CCc1cn(CSc2ccc(C)cc2)n[nH+]1 (protonated)
CCN(C)CCc1cn(CSc2ccc(C)cc2)n[nH+]1 (3D coordinates assigned)
CCN(C)CCc1cn(CSc2ccc(C)cc2)n[nH+]1 (optimized conformer: 68.32806591314028 kcal/mol)

>  <smiles>  (10) 
CCN(C)CCc1cn(CSc2ccc(C)cc2)nn1

>  <score_type>  (10) 
oracle

>  <origin>  (10) 
adg

>  <m_score__min__energy>  (10) 
-5.79

>  <m_primary>  (10) 
energy

$$$$
10:0
     RDKit          3D

 37 40  0  0  0  0  0  0  0  0999 V2000
   57.6400   21.8110   46.0600 C   0  0  0  0  0  0  0  0  0  0  0  0
   57.3740   23.2800   45.9440 C   0  0  0  0  0  0  0  0  0  0  0  0
   56.1200   23.7460   45.9390 N   0  0  0  0  0  0  0  0  0  0  0  0
   55.8140   25.0650   45.8360 C   0  0  0  0  0  0  0  0  0  0  0  0
   54.5790   25.3910   45.8420 N   0  0  0  0  0  0  0  0  0  0  0  0
   56.8670   25.9440   45.7340 C   0  0  0  0  0  0  0  0  0  0  0  0
   56.6130   27.2900   45.6270 C   0  0  0  0  0  0  0  0  0  0  0  0
   57.6600   28.1790   45.5240 C   0  0  0  0  0  0  0  0  0  0  0  0
   57.4610   29.6280   45.4070 C   0  0  0  0  0  0  0  0  0  0  0  0
   58.3860   30.5710   45.8690 C   0  0  0  0  0  0  0  0  0  0  0  0
   57.8060   31.7920   45.5590 C   0  0  0  0  0  0  0  0  0  0  0  0
   58.4350   33.0720   45.8670 C   0  0  0  0  0  0  0  0  0  0  0  0
   58.6650   34.0390   44.9040 C   0  0  0  0  0  0  0  0  0  0  0  0
   59.2700   35.2500   45.2440 C   0  0  0  0  0  0  0  0  0  0  0  0
   59.6330   35.4620   46.5590 C   0  0  0  0  0  0  0  0  0  0  0  0
   59.4160   34.5230   47.5240 C   0  0  0  0  0  0  0  0  0  0  0  0
   58.8170   33.3250   47.1840 C   0  0  0  0  0  0  0  0  0  0  0  0
   56.6640   31.5840   44.9770 O   0  0  0  0  0  0  0  0  0  0  0  0
   56.4260   30.2980   44.8690 N   0  0  0  0  0  0  0  0  0  0  0  0
   58.9700   27.7100   45.5280 C   0  0  0  0  0  0  0  0  0  0  0  0
   59.2400   26.3560   45.6340 C   0  0  0  0  0  0  0  0  0  0  0  0
   58.1660   25.4750   45.7380 C   0  0  0  0  0  0  0  0  0  0  0  0
   58.3760   24.1450   45.8440 N   0  0  0  0  0  0  0  0  0  0  0  0
   57.6908   21.5303   47.1224 H   0  0  0  0  0  0  0  0  0  0  0  0
   56.8285   21.2517   45.5714 H   0  0  0  0  0  0  0  0  0  0  0  0
   58.5961   21.5718   45.5714 H   0  0  0  0  0  0  0  0  0  0  0  0
   53.8820   25.1980   45.1320 H   0  0  0  0  0  0  0  0  0  0  0  0
   55.5760   27.6568   45.6236 H   0  0  0  0  0  0  0  0  0  0  0  0
   59.3508   30.3863   46.3640 H   0  0  0  0  0  0  0  0  0  0  0  0
   58.3684   33.8516   43.8615 H   0  0  0  0  0  0  0  0  0  0  0  0
   59.4538   36.0197   44.4799 H   0  0  0  0  0  0  0  0  0  0  0  0
   60.1100   36.4137   46.8359 H   0  0  0  0  0  0  0  0  0  0  0  0
   59.7153   34.7177   48.5644 H   0  0  0  0  0  0  0  0  0  0  0  0
   58.6400   32.5645   47.9588 H   0  0  0  0  0  0  0  0  0  0  0  0
   59.8024   28.4244   45.4459 H   0  0  0  0  0  0  0  0  0  0  0  0
   60.2758   25.9857   45.6360 H   0  0  0  0  0  0  0  0  0  0  0  0
   59.3540   23.7660   45.8490 H   0  0  0  0  0  0  0  0  0  0  0  0
  1  2  1  0
  2  3  2  0
  3  4  1  0
  4  5  2  3
  4  6  1  0
  6  7  2  0
  7  8  1  0
  8  9  1  0
  9 10  1  0
 10 11  2  0
 11 12  1  0
 12 13  2  0
 13 14  1  0
 14 15  2  0
 15 16  1  0
 16 17  2  0
 11 18  1  0
 18 19  1  0
  8 20  2  0
 20 21  1  0
 21 22  2  0
 22 23  1  0
 23  2  1  0
 22  6  1  0
 19  9  2  0
 17 12  1  0
  1 24  1  0
  1 25  1  0
  1 26  1  0
  5 27  1  0
  7 28  1  0
 10 29  1  0
 13 30  1  0
 14 31  1  0
 15 32  1  0
 16 33  1  0
 17 34  1  0
 20 35  1  0
 21 36  1  0
 23 37  1  0
M  END
>  <smiles>  (11) 
Cc1nc(=N)c2cc(-c3cc(-c4ccccc4)on3)ccc2[nH]1

>  <score_type>  (11) 
oracle

>  <origin>  (11) 
adg

>  <m_score__min__energy>  (11) 
-9.1600000000000001

>  <m_primary>  (11) 
energy

$$$$
11:0
     RDKit          3D

 43 44  0  0  0  0  0  0  0  0999 V2000
   56.3200   19.6470   45.2260 C   0  0  0  0  0  0  0  0  0  0  0  0
   56.3230   21.0880   44.8100 C   0  0  0  0  0  0  0  0  0  0  0  0
   56.6560   21.4440   43.4950 C   0  0  0  0  0  0  0  0  0  0  0  0
   56.6350   22.7850   43.1040 C   0  0  0  0  0  0  0  0  0  0  0  0
   56.2590   23.7770   44.0130 C   0  0  0  0  0  0  0  0  0  0  0  0
   55.8820   23.4290   45.3230 C   0  0  0  0  0  0  0  0  0  0  0  0
   55.5100   24.4200   46.2910 N   0  0  0  0  0  0  0  0  0  0  0  0
   55.9400   25.7860   46.3070 C   0  0  0  0  0  0  0  0  0  0  0  0
   55.1470   26.7100   45.9870 O   0  0  0  0  0  0  0  0  0  0  0  0
   57.2670   26.1210   46.7230 N   0  0  0  0  0  0  0  0  0  0  0  0
   58.4690   25.7250   46.0000 C   0  0  0  0  0  0  0  0  0  0  0  0
   58.8920   26.7880   44.9750 C   0  0  0  0  0  0  0  0  0  0  0  0
   57.7390   27.5020   44.3860 N   0  0  0  0  0  0  0  0  0  0  0  0
   57.6530   28.9670   44.6040 C   0  0  0  0  0  0  0  0  0  0  0  0
   59.0280   29.6700   44.7670 C   0  0  0  0  0  0  0  0  0  0  0  0
   58.8770   31.0830   45.3390 C   0  0  0  0  0  0  0  0  0  0  0  0
   57.7430   32.0400   44.3480 S   0  0  0  0  0  0  0  0  0  0  0  0
   56.5930   32.5070   45.1960 O   0  0  0  0  0  0  0  0  0  0  0  0
   58.4500   33.2300   43.7630 O   0  0  0  0  0  0  0  0  0  0  0  0
   57.1370   30.9970   43.0370 C   0  0  0  0  0  0  0  0  0  0  0  0
   56.6860   29.6330   43.5800 C   0  0  0  0  0  0  0  0  0  0  0  0
   55.9290   22.0860   45.7170 C   0  0  0  0  0  0  0  0  0  0  0  0
   56.3199   19.5824   46.3241 H   0  0  0  0  0  0  0  0  0  0  0  0
   55.4208   19.1528   44.8295 H   0  0  0  0  0  0  0  0  0  0  0  0
   57.2171   19.1490   44.8295 H   0  0  0  0  0  0  0  0  0  0  0  0
   56.9344   20.6653   42.7696 H   0  0  0  0  0  0  0  0  0  0  0  0
   56.9155   23.0608   42.0768 H   0  0  0  0  0  0  0  0  0  0  0  0
   56.2577   24.8326   43.7038 H   0  0  0  0  0  0  0  0  0  0  0  0
   59.2870   25.5797   46.7210 H   0  0  0  0  0  0  0  0  0  0  0  0
   58.2513   24.7932   45.4575 H   0  0  0  0  0  0  0  0  0  0  0  0
   59.5417   27.5210   45.4756 H   0  0  0  0  0  0  0  0  0  0  0  0
   59.4165   26.2717   44.1575 H   0  0  0  0  0  0  0  0  0  0  0  0
   56.8740   27.0710   44.7900 H   0  0  0  0  0  0  0  0  0  0  0  0
   57.1964   29.1187   45.5932 H   0  0  0  0  0  0  0  0  0  0  0  0
   59.6543   29.0748   45.4477 H   0  0  0  0  0  0  0  0  0  0  0  0
   59.4925   29.7500   43.7731 H   0  0  0  0  0  0  0  0  0  0  0  0
   58.4929   31.0180   46.3677 H   0  0  0  0  0  0  0  0  0  0  0  0
   59.8599   31.5768   45.3319 H   0  0  0  0  0  0  0  0  0  0  0  0
   56.2826   31.4906   42.5509 H   0  0  0  0  0  0  0  0  0  0  0  0
   57.9510   30.8342   42.3152 H   0  0  0  0  0  0  0  0  0  0  0  0
   55.7119   29.7693   44.0726 H   0  0  0  0  0  0  0  0  0  0  0  0
   56.6527   28.9579   42.7122 H   0  0  0  0  0  0  0  0  0  0  0  0
   55.6550   21.8100   46.7459 H   0  0  0  0  0  0  0  0  0  0  0  0
  1  2  1  0
  2  3  2  0
  3  4  1  0
  4  5  2  0
  5  6  1  0
  6  7  1  0
  7  8  1  0
  8  9  2  0
  8 10  1  0
 10 11  1  0
 11 12  1  0
 12 13  1  0
 13 14  1  0
 14 15  1  0
 15 16  1  0
 16 17  1  0
 17 18  2  0
 17 19  2  0
 17 20  1  0
 20 21  1  0
  6 22  2  0
 22  2  1  0
 21 14  1  0
  1 23  1  0
  1 24  1  0
  1 25  1  0
  3 26  1  0
  4 27  1  0
  5 28  1  0
 11 29  1  0
 11 30  1  0
 12 31  1  0
 12 32  1  0
 13 33  1  0
 14 34  1  0
 15 35  1  0
 15 36  1  0
 16 37  1  0
 16 38  1  0
 20 39  1  0
 20 40  1  0
 21 41  1  0
 21 42  1  0
 22 43  1  0
M  CHG  2   7  -1  10  -1
M  END
>  <UniqueID>  (12) 
10

>  <SMILES>  (12) 
Cc1cccc([N-]C(=O)[N-]CCNC2CCS(=O)(=O)CC2)c1

>  <Energy>  (12) 
45.575120392980345

>  <Genealogy>  (12) 
Cc1cccc([N-]C(=O)[N-]CCNC2CCS(=O)(=O)CC2)c1 (protonated)
Cc1cccc([N-]C(=O)[N-]CCNC2CCS(=O)(=O)CC2)c1 (3D coordinates assigned)
Cc1cccc([N-]C(=O)[N-]CCNC2CCS(=O)(=O)CC2)c1 (nonaromatic ring conformer: 45.575120392980345 kcal/mol)

>  <smiles>  (12) 
Cc1cccc(NC(=O)NCCNC2CCS(=O)(=O)CC2)c1

>  <score_type>  (12) 
oracle

>  <origin>  (12) 
adg

>  <m_score__min__energy>  (12) 
-11.699999999999999

>  <m_primary>  (12) 
energy

$$$$
12:0
     RDKit          3D

 49 52  0  0  0  0  0  0  0  0999 V2000
   53.3970   24.2010   45.5630 C   0  0  0  0  0  0  0  0  0  0  0  0
   54.7280   24.8710   45.6260 C   0  0  0  0  0  0  0  0  0  0  0  0
   55.9470   24.2310   45.7270 C   0  0  0  0  0  0  0  0  0  0  0  0
   56.8920   25.2340   45.7740 C   0  0  0  0  0  0  0  0  0  0  0  0
   56.1840   26.4190   45.7060 C   0  0  0  0  0  0  0  0  0  0  0  0
   56.7770   27.7910   45.6990 C   0  0  0  0  0  0  0  0  0  0  0  0
   55.8560   28.7320   45.0750 N   0  0  0  0  0  0  0  0  0  0  0  0
   56.2170   29.5930   43.9880 C   0  0  0  0  0  0  0  0  0  0  0  0
   55.8070   29.3330   42.8220 O   0  0  0  0  0  0  0  0  0  0  0  0
   57.0670   30.7820   44.2280 C   0  0  0  0  0  0  0  0  0  0  0  0
   57.3520   31.6780   43.1830 C   0  0  0  0  0  0  0  0  0  0  0  0
   58.1600   32.7960   43.4080 C   0  0  0  0  0  0  0  0  0  0  0  0
   58.6990   33.0420   44.6760 C   0  0  0  0  0  0  0  0  0  0  0  0
   59.5240   34.1990   44.8590 N   0  0  0  0  0  0  0  0  0  0  0  0
   59.8010   35.0020   46.3710 S   0  0  0  0  0  0  0  0  0  0  0  0
   58.6120   34.8140   47.2720 O   0  0  0  0  0  0  0  0  0  0  0  0
   60.0300   36.4650   46.1160 O   0  0  0  0  0  0  0  0  0  0  0  0
   61.2230   34.3190   47.1490 C   0  0  0  0  0  0  0  0  0  0  0  0
   62.2950   33.8300   46.3740 C   0  0  0  0  0  0  0  0  0  0  0  0
   63.4280   33.2820   46.9960 C   0  0  0  0  0  0  0  0  0  0  0  0
   63.4680   33.2270   48.3910 C   0  0  0  0  0  0  0  0  0  0  0  0
   62.4240   33.6920   49.1480 C   0  0  0  0  0  0  0  0  0  0  0  0
   61.2870   34.2420   48.5520 C   0  0  0  0  0  0  0  0  0  0  0  0
   62.6720   33.5300   50.5990 C   0  0  0  0  0  0  0  0  0  0  0  0
   64.0680   32.8800   50.6700 C   0  0  0  0  0  0  0  0  0  0  0  0
   64.5670   32.6890   49.2230 C   0  0  0  0  0  0  0  0  0  0  0  0
   58.4160   32.1490   45.7240 C   0  0  0  0  0  0  0  0  0  0  0  0
   57.6080   31.0310   45.5030 C   0  0  0  0  0  0  0  0  0  0  0  0
   54.8970   26.1730   45.6190 O   0  0  0  0  0  0  0  0  0  0  0  0
   53.0307   24.0166   46.5837 H   0  0  0  0  0  0  0  0  0  0  0  0
   52.6855   24.8484   45.0294 H   0  0  0  0  0  0  0  0  0  0  0  0
   53.4932   23.2439   45.0294 H   0  0  0  0  0  0  0  0  0  0  0  0
   56.1270   23.1464   45.7626 H   0  0  0  0  0  0  0  0  0  0  0  0
   57.9830   25.1156   45.8499 H   0  0  0  0  0  0  0  0  0  0  0  0
   56.9743   28.1072   46.7339 H   0  0  0  0  0  0  0  0  0  0  0  0
   57.7164   27.7740   45.1269 H   0  0  0  0  0  0  0  0  0  0  0  0
   56.9360   31.4979   42.1807 H   0  0  0  0  0  0  0  0  0  0  0  0
   58.3743   33.4889   42.5810 H   0  0  0  0  0  0  0  0  0  0  0  0
   62.2431   33.8782   45.2763 H   0  0  0  0  0  0  0  0  0  0  0  0
   64.2684   32.9031   46.3960 H   0  0  0  0  0  0  0  0  0  0  0  0
   60.4545   34.6092   49.1701 H   0  0  0  0  0  0  0  0  0  0  0  0
   62.6689   34.5055   51.1073 H   0  0  0  0  0  0  0  0  0  0  0  0
   61.8985   32.9255   51.0952 H   0  0  0  0  0  0  0  0  0  0  0  0
   64.7589   33.5343   51.2218 H   0  0  0  0  0  0  0  0  0  0  0  0
   64.0182   31.9133   51.1925 H   0  0  0  0  0  0  0  0  0  0  0  0
   65.4972   33.2509   49.0529 H   0  0  0  0  0  0  0  0  0  0  0  0
   64.7990   31.6392   48.9904 H   0  0  0  0  0  0  0  0  0  0  0  0
   58.8337   32.3318   46.7251 H   0  0  0  0  0  0  0  0  0  0  0  0
   57.3931   30.3403   46.3317 H   0  0  0  0  0  0  0  0  0  0  0  0
  1  2  1  0
  2  3  2  0
  3  4  1  0
  4  5  2  0
  5  6  1  0
  6  7  1  0
  7  8  1  0
  8  9  2  0
  8 10  1  0
 10 11  2  0
 11 12  1  0
 12 13  2  0
 13 14  1  0
 14 15  1  0
 15 16  2  0
 15 17  2  0
 15 18  1  0
 18 19  2  0
 19 20  1  0
 20 21  2  0
 21 22  1  0
 22 23  2  0
 22 24  1  0
 24 25  1  0
 25 26  1  0
 13 27  1  0
 27 28  2  0
  5 29  1  0
 29  2  1  0
 28 10  1  0
 23 18  1  0
 26 21  1  0
  1 30  1  0
  1 31  1  0
  1 32  1  0
  3 33  1  0
  4 34  1  0
  6 35  1  0
  6 36  1  0
 11 37  1  0
 12 38  1  0
 19 39  1  0
 20 40  1  0
 23 41  1  0
 24 42  1  0
 24 43  1  0
 25 44  1  0
 25 45  1  0
 26 46  1  0
 26 47  1  0
 27 48  1  0
 28 49  1  0
M  CHG  2   7  -1  14  -1
M  END
>  <UniqueID>  (13) 
11

>  <SMILES>  (13) 
Cc1ccc(C[N-]C(=O)c2ccc([N-]S(=O)(=O)c3ccc4c(c3)CCC4)cc2)o1

>  <Energy>  (13) 
85.98495613394199

>  <Genealogy>  (13) 
Cc1ccc(C[N-]C(=O)c2ccc([N-]S(=O)(=O)c3ccc4c(c3)CCC4)cc2)o1 (protonated)
Cc1ccc(C[N-]C(=O)c2ccc([N-]S(=O)(=O)c3ccc4c(c3)CCC4)cc2)o1 (3D coordinates assigned)
Cc1ccc(C[N-]C(=O)c2ccc([N-]S(=O)(=O)c3ccc4c(c3)CCC4)cc2)o1 (nonaromatic ring conformer: 85.98495613394199 kcal/mol)

>  <smiles>  (13) 
Cc1ccc(CNC(=O)c2ccc(NS(=O)(=O)c3ccc4c(c3)CCC4)cc2)o1

>  <score_type>  (13) 
oracle

>  <origin>  (13) 
adg

>  <m_score__min__energy>  (13) 
-12.630000000000001

>  <m_primary>  (13) 
energy

$$$$
13:0
     RDKit          3D

 55 57  0  0  0  0  0  0  0  0999 V2000
   56.1210   30.5160   52.4180 C   0  0  0  0  0  0  0  0  0  0  0  0
   57.0530   29.7940   51.6200 O   0  0  0  0  0  0  0  0  0  0  0  0
   58.3130   30.2790   51.2410 C   0  0  0  0  0  0  0  0  0  0  0  0
   58.9780   31.2940   51.9540 C   0  0  0  0  0  0  0  0  0  0  0  0
   60.2280   31.7520   51.5300 C   0  0  0  0  0  0  0  0  0  0  0  0
   60.8250   31.2300   50.3690 C   0  0  0  0  0  0  0  0  0  0  0  0
   62.1780   31.7310   49.8980 C   0  0  0  0  0  0  0  0  0  0  0  0
   62.1590   32.8780   48.8260 C   0  0  1  0  0  0  0  0  0  0  0  0
   63.6140   33.4390   48.7760 C   0  0  0  0  0  0  0  0  0  0  0  0
   64.1240   33.4260   47.4700 O   0  0  0  0  0  0  0  0  0  0  0  0
   61.8150   32.2880   47.4230 C   0  0  0  0  0  0  0  0  0  0  0  0
   61.3750   33.3170   46.3710 C   0  0  0  0  0  0  0  0  0  0  0  0
   60.6800   34.5670   46.9380 C   0  0  0  0  0  0  0  0  0  0  0  0
   60.1200   34.3850   48.2940 N   0  0  1  0  0  0  0  0  0  0  0  0
   58.9430   33.4820   48.3680 C   0  0  0  0  0  0  0  0  0  0  0  0
   58.3820   33.1600   47.0030 C   0  0  0  0  0  0  0  0  0  0  0  0
   57.8440   34.1800   46.2040 C   0  0  0  0  0  0  0  0  0  0  0  0
   57.3570   33.8900   44.9270 C   0  0  0  0  0  0  0  0  0  0  0  0
   57.3990   32.5820   44.4400 C   0  0  0  0  0  0  0  0  0  0  0  0
   57.9120   31.5430   45.2350 C   0  0  0  0  0  0  0  0  0  0  0  0
   58.0090   30.1390   44.6910 C   0  0  0  0  0  0  0  0  0  0  0  0
   57.4250   30.0560   43.4380 F   0  0  0  0  0  0  0  0  0  0  0  0
   59.3410   29.7810   44.5920 F   0  0  0  0  0  0  0  0  0  0  0  0
   57.3640   29.2470   45.5290 F   0  0  0  0  0  0  0  0  0  0  0  0
   58.4240   31.8450   46.5090 C   0  0  0  0  0  0  0  0  0  0  0  0
   61.1810   34.0350   49.2690 C   0  0  0  0  0  0  0  0  0  0  0  0
   60.1790   30.1820   49.6900 C   0  0  0  0  0  0  0  0  0  0  0  0
   58.9290   29.7240   50.1150 C   0  0  0  0  0  0  0  0  0  0  0  0
   56.3405   30.3459   53.4824 H   0  0  0  0  0  0  0  0  0  0  0  0
   56.2012   31.5900   52.1941 H   0  0  0  0  0  0  0  0  0  0  0  0
   55.1011   30.1699   52.1941 H   0  0  0  0  0  0  0  0  0  0  0  0
   58.5111   31.7291   52.8499 H   0  0  0  0  0  0  0  0  0  0  0  0
   60.7497   32.5278   52.1096 H   0  0  0  0  0  0  0  0  0  0  0  0
   62.7227   32.1035   50.7781 H   0  0  0  0  0  0  0  0  0  0  0  0
   62.6527   30.8721   49.4010 H   0  0  0  0  0  0  0  0  0  0  0  0
   63.6113   34.4740   49.1486 H   0  0  0  0  0  0  0  0  0  0  0  0
   64.2528   32.7994   49.4029 H   0  0  0  0  0  0  0  0  0  0  0  0
   64.7260   32.6390   47.4140 H   0  0  0  0  0  0  0  0  0  0  0  0
   62.7090   31.7727   47.0420 H   0  0  0  0  0  0  0  0  0  0  0  0
   60.9544   31.6200   47.5753 H   0  0  0  0  0  0  0  0  0  0  0  0
   62.2682   33.6438   45.8183 H   0  0  0  0  0  0  0  0  0  0  0  0
   60.6314   32.8115   45.7374 H   0  0  0  0  0  0  0  0  0  0  0  0
   61.4156   35.3840   46.9751 H   0  0  0  0  0  0  0  0  0  0  0  0
   59.8324   34.7874   46.2724 H   0  0  0  0  0  0  0  0  0  0  0  0
   59.7740   35.3310   48.5880 H   0  0  0  0  0  0  0  0  0  0  0  0
   59.2466   32.5441   48.8561 H   0  0  0  0  0  0  0  0  0  0  0  0
   58.1586   33.9973   48.9417 H   0  0  0  0  0  0  0  0  0  0  0  0
   57.8055   35.2115   46.5842 H   0  0  0  0  0  0  0  0  0  0  0  0
   56.9393   34.6943   44.3035 H   0  0  0  0  0  0  0  0  0  0  0  0
   57.0282   32.3635   43.4277 H   0  0  0  0  0  0  0  0  0  0  0  0
   58.8613   31.0451   47.1245 H   0  0  0  0  0  0  0  0  0  0  0  0
   61.7840   34.9367   49.4513 H   0  0  0  0  0  0  0  0  0  0  0  0
   60.6581   33.6619   50.1620 H   0  0  0  0  0  0  0  0  0  0  0  0
   60.6616   29.7186   48.8168 H   0  0  0  0  0  0  0  0  0  0  0  0
   58.4252   28.9197   49.5588 H   0  0  0  0  0  0  0  0  0  0  0  0
  1  2  1  0
  2  3  1  0
  3  4  2  0
  4  5  1  0
  5  6  2  0
  6  7  1  0
  8  7  1  1
  8  9  1  0
  9 10  1  0
  8 11  1  0
 11 12  1  0
 12 13  1  0
 13 14  1  0
 14 15  1  0
 15 16  1  0
 16 17  2  0
 17 18  1  0
 18 19  2  0
 19 20  1  0
 20 21  1  0
 21 22  1  0
 21 23  1  0
 21 24  1  0
 20 25  2  0
 14 26  1  0
  6 27  1  0
 27 28  2  0
 28  3  1  0
 26  8  1  0
 25 16  1  0
  1 29  1  0
  1 30  1  0
  1 31  1  0
  4 32  1  0
  5 33  1  0
  7 34  1  0
  7 35  1  0
  9 36  1  0
  9 37  1  0
 10 38  1  0
 11 39  1  0
 11 40  1  0
 12 41  1  0
 12 42  1  0
 13 43  1  0
 13 44  1  0
 14 45  1  1
 15 46  1  0
 15 47  1  0
 17 48  1  0
 18 49  1  0
 19 50  1  0
 25 51  1  0
 26 52  1  0
 26 53  1  0
 27 54  1  0
 28 55  1  0
M  CHG  1  14   1
M  END
>  <UniqueID>  (14) 
12

>  <SMILES>  (14) 
COc1ccc(C[C@@]2(CO)CCC[N@@H+](Cc3cccc(C(F)(F)F)c3)C2)cc1

>  <Energy>  (14) 
73.39967371219149

>  <Genealogy>  (14) 
COc1ccc(CC2(CO)CCC[NH+](Cc3cccc(C(F)(F)F)c3)C2)cc1 (protonated)
COc1ccc(C[C@@]2(CO)CCC[N@@H+](Cc3cccc(C(F)(F)F)c3)C2)cc1 (chirality)
COc1ccc(C[C@@]2(CO)CCC[N@@H+](Cc3cccc(C(F)(F)F)c3)C2)cc1 (3D coordinates assigned)
COc1ccc(C[C@@]2(CO)CCC[N@@H+](Cc3cccc(C(F)(F)F)c3)C2)cc1 (nonaromatic ring conformer: 73.39967371219149 kcal/mol)

>  <smiles>  (14) 
COc1ccc(CC2(CO)CCCN(Cc3cccc(C(F)(F)F)c3)C2)cc1

>  <score_type>  (14) 
oracle

>  <origin>  (14) 
adg

>  <m_score__min__energy>  (14) 
-5.6900000000000004

>  <m_primary>  (14) 
energy

$$$$
14:0
     RDKit          3D

 45 48  0  0  0  0  0  0  0  0999 V2000
   58.8710   26.9640   45.2690 C   0  0  0  0  0  0  0  0  0  0  0  0
   59.9930   27.3770   46.2120 C   0  0  0  0  0  0  0  0  0  0  0  0
   59.7590   28.7310   46.7200 N   0  0  0  0  0  0  0  0  0  0  0  0
   59.4270   29.7980   45.9680 C   0  0  0  0  0  0  0  0  0  0  0  0
   59.2380   30.9010   46.7810 C   0  0  0  0  0  0  0  0  0  0  0  0
   58.8900   32.2670   46.3270 C   0  0  0  0  0  0  0  0  0  0  0  0
   57.9160   32.5660   45.4770 C   0  0  0  0  0  0  0  0  0  0  0  0
   57.0100   31.6240   44.8700 C   0  0  0  0  0  0  0  0  0  0  0  0
   56.2820   30.8690   44.3800 N   0  0  0  0  0  0  0  0  0  0  0  0
   57.9370   34.0150   45.1190 C   0  0  0  0  0  0  0  0  0  0  0  0
   59.1450   34.5620   45.8930 C   0  0  0  0  0  0  0  0  0  0  0  0
   59.6580   33.4250   46.6450 N   0  0  0  0  0  0  0  0  0  0  0  0
   60.5760   33.5690   47.7430 C   0  0  0  0  0  0  0  0  0  0  0  0
   60.1570   34.1240   48.9630 C   0  0  0  0  0  0  0  0  0  0  0  0
   61.0460   34.2620   49.9810 N   0  0  0  0  0  0  0  0  0  0  0  0
   62.3410   33.8790   49.8420 C   0  0  0  0  0  0  0  0  0  0  0  0
   63.2420   34.0250   50.9020 C   0  0  0  0  0  0  0  0  0  0  0  0
   64.5750   33.6300   50.7430 C   0  0  0  0  0  0  0  0  0  0  0  0
   65.0080   33.0910   49.5280 C   0  0  0  0  0  0  0  0  0  0  0  0
   66.3010   32.7110   49.3800 F   0  0  0  0  0  0  0  0  0  0  0  0
   64.1130   32.9440   48.4630 C   0  0  0  0  0  0  0  0  0  0  0  0
   62.7740   33.3360   48.6140 C   0  0  0  0  0  0  0  0  0  0  0  0
   61.8810   33.2010   47.5920 N   0  0  0  0  0  0  0  0  0  0  0  0
   59.4560   30.4830   48.0840 C   0  0  0  0  0  0  0  0  0  0  0  0
   59.7630   29.1380   48.0090 C   0  0  0  0  0  0  0  0  0  0  0  0
   60.1010   28.2700   49.1810 C   0  0  0  0  0  0  0  0  0  0  0  0
   57.9981   26.6427   45.8562 H   0  0  0  0  0  0  0  0  0  0  0  0
   58.5919   27.8183   44.6348 H   0  0  0  0  0  0  0  0  0  0  0  0
   59.2124   26.1326   44.6348 H   0  0  0  0  0  0  0  0  0  0  0  0
   60.0333   26.6744   47.0574 H   0  0  0  0  0  0  0  0  0  0  0  0
   60.9457   27.3612   45.6624 H   0  0  0  0  0  0  0  0  0  0  0  0
   59.3220   29.7930   44.8730 H   0  0  0  0  0  0  0  0  0  0  0  0
   58.0713   34.1497   44.0356 H   0  0  0  0  0  0  0  0  0  0  0  0
   56.9989   34.5308   45.3717 H   0  0  0  0  0  0  0  0  0  0  0  0
   59.9087   34.9426   45.1988 H   0  0  0  0  0  0  0  0  0  0  0  0
   58.8695   35.4007   46.5493 H   0  0  0  0  0  0  0  0  0  0  0  0
   59.1133   34.4457   49.0939 H   0  0  0  0  0  0  0  0  0  0  0  0
   62.9034   34.4495   51.8586 H   0  0  0  0  0  0  0  0  0  0  0  0
   65.2840   33.7439   51.5763 H   0  0  0  0  0  0  0  0  0  0  0  0
   64.4585   32.5215   47.5080 H   0  0  0  0  0  0  0  0  0  0  0  0
   62.1940   32.7940   46.6810 H   0  0  0  0  0  0  0  0  0  0  0  0
   59.3966   31.0978   48.9942 H   0  0  0  0  0  0  0  0  0  0  0  0
   59.8892   28.8140   50.1133 H   0  0  0  0  0  0  0  0  0  0  0  0
   59.4942   27.3532   49.1454 H   0  0  0  0  0  0  0  0  0  0  0  0
   61.1680   28.0050   49.1454 H   0  0  0  0  0  0  0  0  0  0  0  0
  1  2  1  0
  2  3  1  0
  3  4  1  0
  4  5  2  0
  5  6  1  0
  6  7  2  0
  7  8  1  0
  8  9  3  0
  7 10  1  0
 10 11  1  0
 11 12  1  0
 12 13  1  0
 13 14  2  0
 14 15  1  0
 15 16  2  0
 16 17  1  0
 17 18  2  0
 18 19  1  0
 19 20  1  0
 19 21  2  0
 21 22  1  0
 22 23  2  0
  5 24  1  0
 24 25  2  0
 25 26  1  0
 25  3  1  0
 12  6  1  0
 23 13  1  0
 22 16  1  0
  1 27  1  0
  1 28  1  0
  1 29  1  0
  2 30  1  0
  2 31  1  0
  4 32  1  0
 10 33  1  0
 10 34  1  0
 11 35  1  0
 11 36  1  0
 14 37  1  0
 17 38  1  0
 18 39  1  0
 21 40  1  0
 23 41  1  0
 24 42  1  0
 26 43  1  0
 26 44  1  0
 26 45  1  0
M  CHG  1  23   1
M  END
>  <UniqueID>  (15) 
13

>  <SMILES>  (15) 
CCn1cc(C2=C(C#N)CCN2c2cnc3ccc(F)cc3[nH+]2)cc1C

>  <Energy>  (15) 
90.17714272248496

>  <Genealogy>  (15) 
CCn1cc(C2=C(C#N)CCN2c2cnc3ccc(F)cc3[nH+]2)cc1C (protonated)
CCn1cc(C2=C(C#N)CCN2c2cnc3ccc(F)cc3[nH+]2)cc1C (3D coordinates assigned)
CCn1cc(C2=C(C#N)CCN2c2cnc3ccc(F)cc3[nH+]2)cc1C (nonaromatic ring conformer: 90.17714272248496 kcal/mol)

>  <smiles>  (15) 
CCn1cc(C2=C(C#N)CCN2c2cnc3ccc(F)cc3n2)cc1C

>  <score_type>  (15) 
oracle

>  <origin>  (15) 
adg

>  <m_score__min__energy>  (15) 
-6.2699999999999996

>  <m_primary>  (15) 
energy

$$$$
15:0
     RDKit          3D

 23 24  0  0  0  0  0  0  0  0999 V2000
   59.0880   35.1960   47.8432 H   0  0  0  0  0  0  0  0  0  0  0  0
   58.8470   34.5790   46.9650 C   0  0  0  0  0  0  0  0  0  0  0  0
   59.3270   34.9410   45.7050 C   0  0  0  0  0  0  0  0  0  0  0  0
   59.9458   35.8434   45.5920 H   0  0  0  0  0  0  0  0  0  0  0  0
   59.0230   34.1590   44.5860 C   0  0  0  0  0  0  0  0  0  0  0  0
   59.4065   34.4480   43.5963 H   0  0  0  0  0  0  0  0  0  0  0  0
   58.2290   33.0040   44.7190 C   0  0  0  0  0  0  0  0  0  0  0  0
   57.9080   32.1680   43.5370 C   0  0  0  0  0  0  0  0  0  0  0  0
   57.7470   32.7100   42.4100 O   0  0  0  0  0  0  0  0  0  0  0  0
   57.8870   30.7390   43.6510 N   0  0  0  0  0  0  0  0  0  0  0  0
   57.0060   29.9950   44.2570 C   0  0  0  0  0  0  0  0  0  0  0  0
   55.7440   30.4020   44.4670 N   0  0  0  0  0  0  0  0  0  0  0  0
   55.1500   29.4080   45.0610 O   0  0  0  0  0  0  0  0  0  0  0  0
   55.9170   28.3700   45.2460 N   0  0  0  0  0  0  0  0  0  0  0  0
   57.1190   28.6970   44.7380 C   0  0  0  0  0  0  0  0  0  0  0  0
   58.2610   27.7340   44.6690 C   0  0  0  0  0  0  0  0  0  0  0  0
   58.5776   27.4670   45.6881 H   0  0  0  0  0  0  0  0  0  0  0  0
   57.9437   26.8267   44.1341 H   0  0  0  0  0  0  0  0  0  0  0  0
   59.1017   28.1999   44.1341 H   0  0  0  0  0  0  0  0  0  0  0  0
   57.7530   32.6480   45.9950 C   0  0  0  0  0  0  0  0  0  0  0  0
   57.1349   31.7461   46.1156 H   0  0  0  0  0  0  0  0  0  0  0  0
   58.0610   33.4340   47.1110 C   0  0  0  0  0  0  0  0  0  0  0  0
   57.6836   33.1497   48.1043 H   0  0  0  0  0  0  0  0  0  0  0  0
  1  2  1  0
  2  3  2  0
  3  4  1  0
  3  5  1  0
  5  6  1  0
  5  7  2  0
  7  8  1  0
  8  9  2  0
  8 10  1  0
 10 11  2  0
 11 12  1  0
 12 13  1  0
 13 14  1  0
 14 15  2  0
 15 16  1  0
 16 17  1  0
 16 18  1  0
 16 19  1  0
  7 20  1  0
 20 21  1  0
 20 22  2  0
 22 23  1  0
 22  2  1  0
 15 11  1  0
M  CHG  1  12  -1
M  END
>  <UniqueID>  (16) 
14

>  <SMILES>  (16) 
Cc1no[n-]/c1=N/C(=O)c1ccccc1

>  <Energy>  (16) 
68.80053451728708

>  <Genealogy>  (16) 
Cc1no[n-]c1=NC(=O)c1ccccc1 (protonated)
Cc1no[n-]/c1=N/C(=O)c1ccccc1 (cis-trans isomerization)
Cc1no[n-]/c1=N/C(=O)c1ccccc1 (3D coordinates assigned)
Cc1no[n-]/c1=N/C(=O)c1ccccc1 (optimized conformer: 68.80053451728708 kcal/mol)

>  <smiles>  (16) 
Cc1no[nH]c1=NC(=O)c1ccccc1

>  <score_type>  (16) 
oracle

>  <origin>  (16) 
adg

>  <m_score__min__energy>  (16) 
-8.9700000000000006

>  <m_primary>  (16) 
energy

$$$$
16:0
     RDKit          3D

 37 38  0  0  0  0  0  0  0  0999 V2000
   55.1790   25.1200   45.6880 C   0  0  0  0  0  0  0  0  0  0  0  0
   55.3810   26.4940   46.0050 O   0  0  0  0  0  0  0  0  0  0  0  0
   56.6250   27.1430   45.9700 C   0  0  0  0  0  0  0  0  0  0  0  0
   57.7890   26.5550   46.4940 C   0  0  0  0  0  0  0  0  0  0  0  0
   59.0080   27.2330   46.4440 C   0  0  0  0  0  0  0  0  0  0  0  0
   59.0940   28.5130   45.8720 C   0  0  0  0  0  0  0  0  0  0  0  0
   60.4020   29.2210   45.8410 C   0  0  0  0  0  0  0  0  0  0  0  0
   61.2440   28.9290   44.9480 O   0  0  0  0  0  0  0  0  0  0  0  0
   60.7710   30.2830   46.8440 C   0  0  0  0  0  0  0  0  0  0  0  0
   59.5990   31.0760   47.2210 N   0  0  0  0  0  0  0  0  0  0  0  0
   59.1430   32.2460   46.5140 C   0  0  0  0  0  0  0  0  0  0  0  0
   57.8660   32.3080   45.9240 C   0  0  0  0  0  0  0  0  0  0  0  0
   57.4580   33.4600   45.2420 C   0  0  0  0  0  0  0  0  0  0  0  0
   58.3160   34.5580   45.1460 C   0  0  0  0  0  0  0  0  0  0  0  0
   59.5820   34.5080   45.7340 C   0  0  0  0  0  0  0  0  0  0  0  0
   59.9930   33.3600   46.4160 C   0  0  0  0  0  0  0  0  0  0  0  0
   57.9300   29.0950   45.3390 C   0  0  0  0  0  0  0  0  0  0  0  0
   56.6950   28.4180   45.3900 C   0  0  0  0  0  0  0  0  0  0  0  0
   55.5150   28.9790   44.8730 O   0  0  0  0  0  0  0  0  0  0  0  0
   55.4550   29.8180   43.7230 C   0  0  0  0  0  0  0  0  0  0  0  0
   55.0934   24.5380   46.6175 H   0  0  0  0  0  0  0  0  0  0  0  0
   54.2552   25.0111   45.1009 H   0  0  0  0  0  0  0  0  0  0  0  0
   56.0324   24.7499   45.1009 H   0  0  0  0  0  0  0  0  0  0  0  0
   57.7390   25.5537   46.9466 H   0  0  0  0  0  0  0  0  0  0  0  0
   59.9111   26.7598   46.8570 H   0  0  0  0  0  0  0  0  0  0  0  0
   61.1842   29.8016   47.7426 H   0  0  0  0  0  0  0  0  0  0  0  0
   61.5163   30.9520   46.3891 H   0  0  0  0  0  0  0  0  0  0  0  0
   59.0800   30.7820   48.0800 H   0  0  0  0  0  0  0  0  0  0  0  0
   57.1858   31.4468   45.9995 H   0  0  0  0  0  0  0  0  0  0  0  0
   56.4601   33.5008   44.7809 H   0  0  0  0  0  0  0  0  0  0  0  0
   57.9948   35.4618   44.6075 H   0  0  0  0  0  0  0  0  0  0  0  0
   60.2565   35.3738   45.6600 H   0  0  0  0  0  0  0  0  0  0  0  0
   60.9899   33.3283   46.8798 H   0  0  0  0  0  0  0  0  0  0  0  0
   57.9842   30.0915   44.8763 H   0  0  0  0  0  0  0  0  0  0  0  0
   55.3799   30.8689   44.0393 H   0  0  0  0  0  0  0  0  0  0  0  0
   56.3653   29.6805   43.1209 H   0  0  0  0  0  0  0  0  0  0  0  0
   54.5736   29.5524   43.1209 H   0  0  0  0  0  0  0  0  0  0  0  0
  1  2  1  0
  2  3  1  0
  3  4  2  0
  4  5  1  0
  5  6  2  0
  6  7  1  0
  7  8  2  0
  7  9  1  0
  9 10  1  0
 10 11  1  0
 11 12  2  0
 12 13  1  0
 13 14  2  0
 14 15  1  0
 15 16  2  0
  6 17  1  0
 17 18  2  0
 18 19  1  0
 19 20  1  0
 18  3  1  0
 16 11  1  0
  1 21  1  0
  1 22  1  0
  1 23  1  0
  4 24  1  0
  5 25  1  0
  9 26  1  0
  9 27  1  0
 10 28  1  0
 12 29  1  0
 13 30  1  0
 14 31  1  0
 15 32  1  0
 16 33  1  0
 17 34  1  0
 20 35  1  0
 20 36  1  0
 20 37  1  0
M  END
>  <UniqueID>  (17) 
15

>  <SMILES>  (17) 
COc1ccc(C(=O)CNc2ccccc2)cc1OC

>  <Energy>  (17) 
36.91112265537844

>  <Genealogy>  (17) 
COc1ccc(C(=O)CNc2ccccc2)cc1OC (3D coordinates assigned)
COc1ccc(C(=O)CNc2ccccc2)cc1OC (optimized conformer: 36.91112265537844 kcal/mol)

>  <smiles>  (17) 
COc1ccc(C(=O)CNc2ccccc2)cc1OC

>  <score_type>  (17) 
oracle

>  <origin>  (17) 
adg

>  <m_score__min__energy>  (17) 
-7.1299999999999999

>  <m_primary>  (17) 
energy

$$$$
17:0
     RDKit          3D

 46 47  0  0  0  0  0  0  0  0999 V2000
   59.4550   34.9950   46.7530 C   0  0  0  0  0  0  0  0  0  0  0  0
   60.7410   34.4740   47.3940 C   0  0  0  0  0  0  0  0  0  0  0  0
   61.7350   33.8990   46.3700 C   0  0  0  0  0  0  0  0  0  0  0  0
   63.1540   33.6330   46.9200 C   0  0  0  0  0  0  0  0  0  0  0  0
   63.4490   32.2070   47.1520 N   0  0  0  0  0  0  0  0  0  0  0  0
   62.9780   31.7400   48.4400 C   0  0  0  0  0  0  0  0  0  0  0  0
   63.8280   31.8410   49.5600 C   0  0  0  0  0  0  0  0  0  0  0  0
   63.4050   31.4220   50.8210 C   0  0  0  0  0  0  0  0  0  0  0  0
   62.1280   30.8920   50.9890 C   0  0  0  0  0  0  0  0  0  0  0  0
   61.2690   30.7770   49.8950 C   0  0  0  0  0  0  0  0  0  0  0  0
   61.6740   31.1960   48.6170 C   0  0  0  0  0  0  0  0  0  0  0  0
   60.7550   31.0510   47.5190 N   0  0  0  0  0  0  0  0  0  0  0  0
   61.0610   30.1330   46.4170 C   0  0  0  0  0  0  0  0  0  0  0  0
   59.8680   29.2090   46.1520 C   0  0  0  0  0  0  0  0  0  0  0  0
   58.6080   29.9660   46.0450 N   0  0  0  0  0  0  0  0  0  0  0  0
   57.4170   29.3380   45.5200 C   0  0  0  0  0  0  0  0  0  0  0  0
   56.5020   30.0520   45.0260 O   0  0  0  0  0  0  0  0  0  0  0  0
   57.2390   27.8440   45.5280 C   0  0  0  0  0  0  0  0  0  0  0  0
   55.8950   27.5230   45.6100 F   0  0  0  0  0  0  0  0  0  0  0  0
   57.7520   27.3020   44.3640 F   0  0  0  0  0  0  0  0  0  0  0  0
   57.8870   27.2950   46.6200 F   0  0  0  0  0  0  0  0  0  0  0  0
   58.5940   31.4050   46.3510 C   0  0  0  0  0  0  0  0  0  0  0  0
   59.4320   31.6890   47.6020 C   0  0  0  0  0  0  0  0  0  0  0  0
   58.7434   35.2833   47.5407 H   0  0  0  0  0  0  0  0  0  0  0  0
   59.6853   35.8708   46.1285 H   0  0  0  0  0  0  0  0  0  0  0  0
   59.0108   34.2059   46.1285 H   0  0  0  0  0  0  0  0  0  0  0  0
   61.2280   35.3041   47.9268 H   0  0  0  0  0  0  0  0  0  0  0  0
   60.4608   33.6563   48.0744 H   0  0  0  0  0  0  0  0  0  0  0  0
   61.3291   32.9471   45.9969 H   0  0  0  0  0  0  0  0  0  0  0  0
   61.8460   34.6621   45.5855 H   0  0  0  0  0  0  0  0  0  0  0  0
   63.8845   34.0242   46.1966 H   0  0  0  0  0  0  0  0  0  0  0  0
   63.2160   34.1342   47.8972 H   0  0  0  0  0  0  0  0  0  0  0  0
   64.4750   32.0400   47.0470 H   0  0  0  0  0  0  0  0  0  0  0  0
   63.0040   31.6450   46.3950 H   0  0  0  0  0  0  0  0  0  0  0  0
   64.8392   32.2562   49.4376 H   0  0  0  0  0  0  0  0  0  0  0  0
   64.0809   31.5102   51.6843 H   0  0  0  0  0  0  0  0  0  0  0  0
   61.7961   30.5637   51.9850 H   0  0  0  0  0  0  0  0  0  0  0  0
   60.2635   30.3535   50.0352 H   0  0  0  0  0  0  0  0  0  0  0  0
   61.2788   30.7148   45.5092 H   0  0  0  0  0  0  0  0  0  0  0  0
   61.9344   29.5225   46.6901 H   0  0  0  0  0  0  0  0  0  0  0  0
   60.0392   28.6662   45.2107 H   0  0  0  0  0  0  0  0  0  0  0  0
   59.7791   28.5112   46.9977 H   0  0  0  0  0  0  0  0  0  0  0  0
   59.0125   31.9615   45.4994 H   0  0  0  0  0  0  0  0  0  0  0  0
   57.5569   31.7225   46.5344 H   0  0  0  0  0  0  0  0  0  0  0  0
   59.5649   32.7761   47.7044 H   0  0  0  0  0  0  0  0  0  0  0  0
   58.9030   31.2762   48.4737 H   0  0  0  0  0  0  0  0  0  0  0  0
  1  2  1  0
  2  3  1  0
  3  4  1  0
  4  5  1  0
  5  6  1  0
  6  7  2  0
  7  8  1  0
  8  9  2  0
  9 10  1  0
 10 11  2  0
 11 12  1  0
 12 13  1  0
 13 14  1  0
 14 15  1  0
 15 16  1  0
 16 17  2  0
 16 18  1  0
 18 19  1  0
 18 20  1  0
 18 21  1  0
 15 22  1  0
 22 23  1  0
 11  6  1  0
 23 12  1  0
  1 24  1  0
  1 25  1  0
  1 26  1  0
  2 27  1  0
  2 28  1  0
  3 29  1  0
  3 30  1  0
  4 31  1  0
  4 32  1  0
  5 33  1  0
  5 34  1  0
  7 35  1  0
  8 36  1  0
  9 37  1  0
 10 38  1  0
 13 39  1  0
 13 40  1  0
 14 41  1  0
 14 42  1  0
 22 43  1  0
 22 44  1  0
 23 45  1  0
 23 46  1  0
M  CHG  1   5   1
M  END
>  <UniqueID>  (18) 
16

>  <SMILES>  (18) 
CCCC[NH2+]c1ccccc1N1CCN(C(=O)C(F)(F)F)CC1

>  <Energy>  (18) 
48.67174713853975

>  <Genealogy>  (18) 
CCCC[NH2+]c1ccccc1N1CCN(C(=O)C(F)(F)F)CC1 (protonated)
CCCC[NH2+]c1ccccc1N1CCN(C(=O)C(F)(F)F)CC1 (3D coordinates assigned)
CCCC[NH2+]c1ccccc1N1CCN(C(=O)C(F)(F)F)CC1 (nonaromatic ring conformer: 48.67174713853975 kcal/mol)

>  <smiles>  (18) 
CCCCNc1ccccc1N1CCN(C(=O)C(F)(F)F)CC1

>  <score_type>  (18) 
oracle

>  <origin>  (18) 
adg

>  <m_score__min__energy>  (18) 
-4.4900000000000002

>  <m_primary>  (18) 
energy

$$$$
18:0
     RDKit          3D

 40 42  0  0  0  0  0  0  0  0999 V2000
   57.7480   25.3660   44.2550 C   0  0  0  0  0  0  0  0  0  0  0  0
   58.3410   26.1320   45.4080 C   0  0  0  0  0  0  0  0  0  0  0  0
   59.6310   25.8030   45.8620 C   0  0  0  0  0  0  0  0  0  0  0  0
   60.2040   26.4960   46.9300 C   0  0  0  0  0  0  0  0  0  0  0  0
   59.4950   27.5170   47.5630 C   0  0  0  0  0  0  0  0  0  0  0  0
   58.2090   27.8480   47.1320 C   0  0  0  0  0  0  0  0  0  0  0  0
   57.6210   27.1660   46.0540 C   0  0  0  0  0  0  0  0  0  0  0  0
   56.2480   27.5250   45.6430 C   0  0  0  0  0  0  0  0  0  0  0  0
   55.3570   26.6350   45.6290 O   0  0  0  0  0  0  0  0  0  0  0  0
   55.9030   28.8570   45.2500 N   0  0  0  0  0  0  0  0  0  0  0  0
   55.9590   29.3510   43.8780 C   0  0  0  0  0  0  0  0  0  0  0  0
   57.4000   29.3340   43.3700 C   0  0  0  0  0  0  0  0  0  0  0  0
   58.3210   30.0340   44.3250 C   0  0  0  0  0  0  0  0  0  0  0  0
   59.5280   29.5650   44.8380 C   0  0  0  0  0  0  0  0  0  0  0  0
   59.9980   30.4530   45.7450 N   0  0  0  0  0  0  0  0  0  0  0  0
   59.1320   31.4490   45.8320 N   0  0  0  0  0  0  0  0  0  0  0  0
   59.1830   32.5460   46.6370 C   0  0  0  0  0  0  0  0  0  0  0  0
   60.3330   32.7720   47.5740 C   0  0  0  0  0  0  0  0  0  0  0  0
   58.1090   33.4530   46.5670 C   0  0  0  0  0  0  0  0  0  0  0  0
   57.0470   33.1870   45.6800 C   0  0  0  0  0  0  0  0  0  0  0  0
   57.0580   32.0670   44.9020 N   0  0  0  0  0  0  0  0  0  0  0  0
   58.1120   31.2200   44.9940 C   0  0  0  0  0  0  0  0  0  0  0  0
   57.1175   24.5516   44.6414 H   0  0  0  0  0  0  0  0  0  0  0  0
   57.1365   26.0432   43.6407 H   0  0  0  0  0  0  0  0  0  0  0  0
   58.5569   24.9436   43.6407 H   0  0  0  0  0  0  0  0  0  0  0  0
   60.1924   24.9938   45.3720 H   0  0  0  0  0  0  0  0  0  0  0  0
   61.2164   26.2364   47.2729 H   0  0  0  0  0  0  0  0  0  0  0  0
   59.9499   28.0622   48.4031 H   0  0  0  0  0  0  0  0  0  0  0  0
   57.6521   28.6489   47.6404 H   0  0  0  0  0  0  0  0  0  0  0  0
   55.3393   28.7088   43.2349 H   0  0  0  0  0  0  0  0  0  0  0  0
   55.5813   30.3838   43.8525 H   0  0  0  0  0  0  0  0  0  0  0  0
   57.7277   28.2902   43.2557 H   0  0  0  0  0  0  0  0  0  0  0  0
   57.4348   29.8598   42.4044 H   0  0  0  0  0  0  0  0  0  0  0  0
   60.0203   28.6239   44.5519 H   0  0  0  0  0  0  0  0  0  0  0  0
   60.8800   30.3620   46.2980 H   0  0  0  0  0  0  0  0  0  0  0  0
   59.9786   32.7023   48.6130 H   0  0  0  0  0  0  0  0  0  0  0  0
   61.1049   32.0084   47.3980 H   0  0  0  0  0  0  0  0  0  0  0  0
   60.7586   33.7710   47.3980 H   0  0  0  0  0  0  0  0  0  0  0  0
   58.0989   34.3559   47.1953 H   0  0  0  0  0  0  0  0  0  0  0  0
   56.2022   33.8884   45.6145 H   0  0  0  0  0  0  0  0  0  0  0  0
  1  2  1  0
  2  3  2  0
  3  4  1  0
  4  5  2  0
  5  6  1  0
  6  7  2  0
  7  8  1  0
  8  9  2  0
  8 10  1  0
 10 11  1  0
 11 12  1  0
 12 13  1  0
 13 14  1  0
 14 15  2  0
 15 16  1  0
 16 17  1  0
 17 18  1  0
 17 19  2  0
 19 20  1  0
 20 21  2  0
 21 22  1  0
  7  2  1  0
 22 13  2  0
 22 16  1  0
  1 23  1  0
  1 24  1  0
  1 25  1  0
  3 26  1  0
  4 27  1  0
  5 28  1  0
  6 29  1  0
 11 30  1  0
 11 31  1  0
 12 32  1  0
 12 33  1  0
 14 34  1  0
 15 35  1  0
 18 36  1  0
 18 37  1  0
 18 38  1  0
 19 39  1  0
 20 40  1  0
M  CHG  2  10  -1  15   1
M  END
>  <UniqueID>  (19) 
17

>  <SMILES>  (19) 
Cc1ccccc1C(=O)[N-]CCc1c[nH+]n2c(C)ccnc12

>  <Energy>  (19) 
81.5113197202725

>  <Genealogy>  (19) 
Cc1ccccc1C(=O)[N-]CCc1c[nH+]n2c(C)ccnc12 (protonated)
Cc1ccccc1C(=O)[N-]CCc1c[nH+]n2c(C)ccnc12 (3D coordinates assigned)
Cc1ccccc1C(=O)[N-]CCc1c[nH+]n2c(C)ccnc12 (optimized conformer: 81.5113197202725 kcal/mol)

>  <smiles>  (19) 
Cc1ccccc1C(=O)NCCc1cnn2c(C)ccnc12

>  <score_type>  (19) 
oracle

>  <origin>  (19) 
adg

>  <m_score__min__energy>  (19) 
-8.1300000000000008

>  <m_primary>  (19) 
energy

$$$$
19:0
     RDKit          3D

 47 48  0  0  0  0  0  0  0  0999 V2000
   59.6570   34.2350   49.0510 C   0  0  0  0  0  0  0  0  0  0  0  0
   59.2580   34.3000   47.6070 C   0  0  0  0  0  0  0  0  0  0  0  0
   59.9100   35.1810   46.7330 C   0  0  0  0  0  0  0  0  0  0  0  0
   59.5500   35.2280   45.3830 C   0  0  0  0  0  0  0  0  0  0  0  0
   58.5430   34.3910   44.8960 C   0  0  0  0  0  0  0  0  0  0  0  0
   57.8940   33.4900   45.7540 C   0  0  0  0  0  0  0  0  0  0  0  0
   56.7660   32.6350   45.2340 C   0  0  0  0  0  0  0  0  0  0  0  0
   57.2210   31.2510   45.0560 N   0  0  0  0  0  0  0  0  0  0  0  0
   57.0320   30.7820   43.6740 C   0  0  0  0  0  0  0  0  0  0  0  0
   56.3760   29.4010   43.6920 C   0  0  0  0  0  0  0  0  0  0  0  0
   56.3790   28.8550   45.0120 O   0  0  0  0  0  0  0  0  0  0  0  0
   57.3070   27.9190   45.5020 C   0  0  0  0  0  0  0  0  0  0  0  0
   57.3960   26.6070   44.9930 C   0  0  0  0  0  0  0  0  0  0  0  0
   58.3200   25.7070   45.5220 C   0  0  0  0  0  0  0  0  0  0  0  0
   59.1670   26.1010   46.5580 C   0  0  0  0  0  0  0  0  0  0  0  0
   59.0970   27.4000   47.0640 C   0  0  0  0  0  0  0  0  0  0  0  0
   58.1670   28.3200   46.5380 C   0  0  0  0  0  0  0  0  0  0  0  0
   58.0690   29.6430   47.0040 O   0  0  0  0  0  0  0  0  0  0  0  0
   59.1620   30.4850   47.3800 C   0  0  0  0  0  0  0  0  0  0  0  0
   60.3170   30.3240   46.3870 C   0  0  0  0  0  0  0  0  0  0  0  0
   59.6160   30.0970   48.7860 C   0  0  0  0  0  0  0  0  0  0  0  0
   58.2630   33.4420   47.1090 C   0  0  0  0  0  0  0  0  0  0  0  0
   58.7689   34.3797   49.6837 H   0  0  0  0  0  0  0  0  0  0  0  0
   60.1030   33.2524   49.2643 H   0  0  0  0  0  0  0  0  0  0  0  0
   60.3918   35.0253   49.2643 H   0  0  0  0  0  0  0  0  0  0  0  0
   60.7076   35.8376   47.1107 H   0  0  0  0  0  0  0  0  0  0  0  0
   60.0607   35.9255   44.7028 H   0  0  0  0  0  0  0  0  0  0  0  0
   58.2575   34.4385   43.8348 H   0  0  0  0  0  0  0  0  0  0  0  0
   55.9338   32.6545   45.9530 H   0  0  0  0  0  0  0  0  0  0  0  0
   56.4325   33.0313   44.2636 H   0  0  0  0  0  0  0  0  0  0  0  0
   56.6520   30.6360   45.6890 H   0  0  0  0  0  0  0  0  0  0  0  0
   56.3860   31.4882   43.1318 H   0  0  0  0  0  0  0  0  0  0  0  0
   58.0080   30.7188   43.1706 H   0  0  0  0  0  0  0  0  0  0  0  0
   55.3373   29.4906   43.3412 H   0  0  0  0  0  0  0  0  0  0  0  0
   56.9467   28.7310   43.0321 H   0  0  0  0  0  0  0  0  0  0  0  0
   56.7327   26.2919   44.1740 H   0  0  0  0  0  0  0  0  0  0  0  0
   58.3813   24.6843   45.1217 H   0  0  0  0  0  0  0  0  0  0  0  0
   59.8912   25.3868   46.9769 H   0  0  0  0  0  0  0  0  0  0  0  0
   59.7708   27.7075   47.8773 H   0  0  0  0  0  0  0  0  0  0  0  0
   58.8433   31.5378   47.3698 H   0  0  0  0  0  0  0  0  0  0  0  0
   61.2594   30.1926   46.9389 H   0  0  0  0  0  0  0  0  0  0  0  0
   60.1365   29.4423   45.7545 H   0  0  0  0  0  0  0  0  0  0  0  0
   60.3845   31.2214   45.7545 H   0  0  0  0  0  0  0  0  0  0  0  0
   58.9993   30.6240   49.5289 H   0  0  0  0  0  0  0  0  0  0  0  0
   59.5043   29.0110   48.9208 H   0  0  0  0  0  0  0  0  0  0  0  0
   60.6713   30.3766   48.9208 H   0  0  0  0  0  0  0  0  0  0  0  0
   57.7695   32.7278   47.7845 H   0  0  0  0  0  0  0  0  0  0  0  0
  1  2  1  0
  2  3  2  0
  3  4  1  0
  4  5  2  0
  5  6  1  0
  6  7  1  0
  7  8  1  0
  8  9  1  0
  9 10  1  0
 10 11  1  0
 11 12  1  0
 12 13  2  0
 13 14  1  0
 14 15  2  0
 15 16  1  0
 16 17  2  0
 17 18  1  0
 18 19  1  0
 19 20  1  0
 19 21  1  0
  6 22  2  0
 22  2  1  0
 17 12  1  0
  1 23  1  0
  1 24  1  0
  1 25  1  0
  3 26  1  0
  4 27  1  0
  5 28  1  0
  7 29  1  0
  7 30  1  0
  8 31  1  0
  9 32  1  0
  9 33  1  0
 10 34  1  0
 10 35  1  0
 13 36  1  0
 14 37  1  0
 15 38  1  0
 16 39  1  0
 19 40  1  0
 20 41  1  0
 20 42  1  0
 20 43  1  0
 21 44  1  0
 21 45  1  0
 21 46  1  0
 22 47  1  0
M  END
>  <UniqueID>  (20) 
18

>  <SMILES>  (20) 
Cc1cccc(CNCCOc2ccccc2OC(C)C)c1

>  <Energy>  (20) 
38.017761815014104

>  <Genealogy>  (20) 
Cc1cccc(CNCCOc2ccccc2OC(C)C)c1 (3D coordinates assigned)
Cc1cccc(CNCCOc2ccccc2OC(C)C)c1 (optimized conformer: 38.017761815014104 kcal/mol)

>  <smiles>  (20) 
Cc1cccc(CNCCOc2ccccc2OC(C)C)c1

>  <score_type>  (20) 
oracle

>  <origin>  (20) 
adg

>  <m_score__min__energy>  (20) 
-8.0099999999999998

>  <m_primary>  (20) 
energy

$$$$
20:0
     RDKit          3D

 24 25  0  0  0  0  0  0  0  0999 V2000
   54.3900   28.9510   44.5160 H   0  0  0  0  0  0  0  0  0  0  0  0
   55.1870   29.6210   44.6050 N   0  0  0  0  0  0  0  0  0  0  0  0
   56.3150   29.4040   44.0100 C   0  0  0  0  0  0  0  0  0  0  0  0
   57.7980   29.0910   44.9710 S   0  0  0  0  0  0  0  0  0  0  0  0
   58.1890   30.8360   45.1070 C   0  0  0  0  0  0  0  0  0  0  0  0
   57.9650   31.6870   44.0200 C   0  0  0  0  0  0  0  0  0  0  0  0
   57.5485   31.2841   43.0850 H   0  0  0  0  0  0  0  0  0  0  0  0
   58.2690   33.0490   44.1180 C   0  0  0  0  0  0  0  0  0  0  0  0
   58.0910   33.7138   43.2599 H   0  0  0  0  0  0  0  0  0  0  0  0
   58.8000   33.5690   45.3070 C   0  0  0  0  0  0  0  0  0  0  0  0
   59.1060   34.9340   45.4190 C   0  0  0  0  0  0  0  0  0  0  0  0
   58.9285   35.6082   44.5682 H   0  0  0  0  0  0  0  0  0  0  0  0
   59.6360   35.4380   46.6100 C   0  0  0  0  0  0  0  0  0  0  0  0
   59.8754   36.5084   46.6933 H   0  0  0  0  0  0  0  0  0  0  0  0
   59.8630   34.5880   47.6950 C   0  0  0  0  0  0  0  0  0  0  0  0
   60.2803   34.9916   48.6293 H   0  0  0  0  0  0  0  0  0  0  0  0
   59.5620   33.2270   47.5980 C   0  0  0  0  0  0  0  0  0  0  0  0
   59.7423   32.5625   48.4558 H   0  0  0  0  0  0  0  0  0  0  0  0
   59.0300   32.7060   46.4080 C   0  0  0  0  0  0  0  0  0  0  0  0
   58.7230   31.3420   46.2980 C   0  0  0  0  0  0  0  0  0  0  0  0
   58.9021   30.6686   47.1491 H   0  0  0  0  0  0  0  0  0  0  0  0
   56.3810   29.4100   42.5860 N   0  0  0  0  0  0  0  0  0  0  0  0
   57.2880   29.2370   42.1000 H   0  0  0  0  0  0  0  0  0  0  0  0
   55.5260   29.5910   42.0150 H   0  0  0  0  0  0  0  0  0  0  0  0
  1  2  1  0
  2  3  2  0
  3  4  1  0
  4  5  1  0
  5  6  2  0
  6  7  1  0
  6  8  1  0
  8  9  1  0
  8 10  2  0
 10 11  1  0
 11 12  1  0
 11 13  2  0
 13 14  1  0
 13 15  1  0
 15 16  1  0
 15 17  2  0
 17 18  1  0
 17 19  1  0
 19 20  2  0
 20 21  1  0
  3 22  1  0
 22 23  1  0
 22 24  1  0
 20  5  1  0
 19 10  1  0
M  END
>  <UniqueID>  (21) 
19

>  <SMILES>  (21) 
[H]/N=C(/N)Sc1ccc2ccccc2c1

>  <Energy>  (21) 
20.977550373799353

>  <Genealogy>  (21) 
[H]/N=C(/N)Sc1ccc2ccccc2c1 (cis-trans isomerization)
[H]/N=C(/N)Sc1ccc2ccccc2c1 (3D coordinates assigned)
[H]/N=C(/N)Sc1ccc2ccccc2c1 (optimized conformer: 20.977550373799353 kcal/mol)

>  <smiles>  (21) 
N=C(N)Sc1ccc2ccccc2c1

>  <score_type>  (21) 
oracle

>  <origin>  (21) 
adg

>  <m_score__min__energy>  (21) 
-7.3200000000000003

>  <m_primary>  (21) 
energy

$$$$
21:0
     RDKit          3D

 28 28  0  0  0  0  0  0  0  0999 V2000
   58.1350   33.0330   43.6440 C   0  0  0  0  0  0  0  0  0  0  0  0
   57.4120   34.1610   44.8770 S   0  0  0  0  0  0  0  0  0  0  0  0
   58.6290   33.8430   46.2090 C   0  0  0  0  0  0  0  0  0  0  0  0
   58.2690   32.6010   47.0400 C   0  0  0  0  0  0  0  0  0  0  0  0
   57.7090   31.5270   46.2140 N   0  0  0  0  0  0  0  0  0  0  0  0
   58.4700   30.3680   45.8040 C   0  0  0  0  0  0  0  0  0  0  0  0
   59.7120   30.0800   46.4100 C   0  0  0  0  0  0  0  0  0  0  0  0
   60.4840   29.0010   45.9800 C   0  0  0  0  0  0  0  0  0  0  0  0
   60.0380   28.1910   44.9400 C   0  0  0  0  0  0  0  0  0  0  0  0
   58.8120   28.4490   44.3260 C   0  0  0  0  0  0  0  0  0  0  0  0
   58.3870   27.6170   43.3420 F   0  0  0  0  0  0  0  0  0  0  0  0
   58.0140   29.5300   44.7510 C   0  0  0  0  0  0  0  0  0  0  0  0
   56.7000   29.7380   44.1040 C   0  0  0  0  0  0  0  0  0  0  0  0
   56.5470   29.5590   42.6950 N   0  0  0  0  0  0  0  0  0  0  0  0
   55.6980   30.0550   44.7990 O   0  0  0  0  0  0  0  0  0  0  0  0
   58.6596   32.2146   44.1588 H   0  0  0  0  0  0  0  0  0  0  0  0
   57.3350   32.6168   43.0141 H   0  0  0  0  0  0  0  0  0  0  0  0
   58.8473   33.5861   43.0141 H   0  0  0  0  0  0  0  0  0  0  0  0
   59.6193   33.6906   45.7551 H   0  0  0  0  0  0  0  0  0  0  0  0
   58.6270   34.7124   46.8829 H   0  0  0  0  0  0  0  0  0  0  0  0
   59.1785   32.2299   47.5351 H   0  0  0  0  0  0  0  0  0  0  0  0
   57.5056   32.8955   47.7752 H   0  0  0  0  0  0  0  0  0  0  0  0
   56.7360   31.6420   45.8540 H   0  0  0  0  0  0  0  0  0  0  0  0
   60.0755   30.7146   47.2317 H   0  0  0  0  0  0  0  0  0  0  0  0
   61.4486   28.7895   46.4645 H   0  0  0  0  0  0  0  0  0  0  0  0
   60.6538   27.3449   44.6010 H   0  0  0  0  0  0  0  0  0  0  0  0
   57.3700   29.3510   42.0890 H   0  0  0  0  0  0  0  0  0  0  0  0
   55.6100   29.6750   42.2490 H   0  0  0  0  0  0  0  0  0  0  0  0
  1  2  1  0
  2  3  1  0
  3  4  1  0
  4  5  1  0
  5  6  1  0
  6  7  2  0
  7  8  1  0
  8  9  2  0
  9 10  1  0
 10 11  1  0
 10 12  2  0
 12 13  1  0
 13 14  1  0
 13 15  2  0
 12  6  1  0
  1 16  1  0
  1 17  1  0
  1 18  1  0
  3 19  1  0
  3 20  1  0
  4 21  1  0
  4 22  1  0
  5 23  1  0
  7 24  1  0
  8 25  1  0
  9 26  1  0
 14 27  1  0
 14 28  1  0
M  END
>  <UniqueID>  (22) 
20

>  <SMILES>  (22) 
CSCCNc1cccc(F)c1C(N)=O

>  <Energy>  (22) 
28.569960123542238

>  <Genealogy>  (22) 
CSCCNc1cccc(F)c1C(N)=O (3D coordinates assigned)
CSCCNc1cccc(F)c1C(N)=O (optimized conformer: 28.569960123542238 kcal/mol)

>  <smiles>  (22) 
CSCCNc1cccc(F)c1C(N)=O

>  <score_type>  (22) 
oracle

>  <origin>  (22) 
adg

>  <m_score__min__energy>  (22) 
-5.8499999999999996

>  <m_primary>  (22) 
energy

$$$$
22:0
     RDKit          3D

 41 42  0  0  0  0  0  0  0  0999 V2000
   57.7700   32.8920   43.8830 C   0  0  0  0  0  0  0  0  0  0  0  0
   58.3410   33.3610   45.1880 C   0  0  0  0  0  0  0  0  0  0  0  0
   58.0400   32.6810   46.3770 C   0  0  0  0  0  0  0  0  0  0  0  0
   58.5420   33.1390   47.5980 C   0  0  0  0  0  0  0  0  0  0  0  0
   59.3380   34.2960   47.6510 C   0  0  0  0  0  0  0  0  0  0  0  0
   59.8810   34.7520   48.9060 N   0  0  0  0  0  0  0  0  0  0  0  0
   59.6200   33.7560   49.9580 C   0  0  0  0  0  0  0  0  0  0  0  0
   60.9030   33.0290   50.3740 C   0  0  0  0  0  0  0  0  0  0  0  0
   61.8490   32.9890   49.2360 N   0  0  0  0  0  0  0  0  0  0  0  0
   63.2470   33.1390   49.6650 C   0  0  0  0  0  0  0  0  0  0  0  0
   64.1480   33.3980   48.4410 C   0  0  0  0  0  0  0  0  0  0  0  0
   63.5990   32.8440   47.1790 N   0  0  0  0  0  0  0  0  0  0  0  0
   62.8250   33.8420   46.4190 C   0  0  0  0  0  0  0  0  0  0  0  0
   62.8360   31.5980   47.3980 C   0  0  0  0  0  0  0  0  0  0  0  0
   61.6830   31.7740   48.4130 C   0  0  0  0  0  0  0  0  0  0  0  0
   59.6350   34.9780   46.4580 C   0  0  0  0  0  0  0  0  0  0  0  0
   59.1310   34.5190   45.2380 C   0  0  0  0  0  0  0  0  0  0  0  0
   56.9330   32.2045   44.0749 H   0  0  0  0  0  0  0  0  0  0  0  0
   57.4090   33.7578   43.3084 H   0  0  0  0  0  0  0  0  0  0  0  0
   58.5491   32.3697   43.3084 H   0  0  0  0  0  0  0  0  0  0  0  0
   57.4057   31.7828   46.3483 H   0  0  0  0  0  0  0  0  0  0  0  0
   58.3127   32.5905   48.5235 H   0  0  0  0  0  0  0  0  0  0  0  0
   60.9120   34.9020   48.8020 H   0  0  0  0  0  0  0  0  0  0  0  0
   59.4440   35.6680   49.1690 H   0  0  0  0  0  0  0  0  0  0  0  0
   59.1975   34.2661   50.8362 H   0  0  0  0  0  0  0  0  0  0  0  0
   58.9147   33.0112   49.5607 H   0  0  0  0  0  0  0  0  0  0  0  0
   61.3678   33.5620   51.2165 H   0  0  0  0  0  0  0  0  0  0  0  0
   60.6556   32.0008   50.6766 H   0  0  0  0  0  0  0  0  0  0  0  0
   63.3256   33.9869   50.3614 H   0  0  0  0  0  0  0  0  0  0  0  0
   63.5730   32.2150   50.1649 H   0  0  0  0  0  0  0  0  0  0  0  0
   64.2699   34.4846   48.3211 H   0  0  0  0  0  0  0  0  0  0  0  0
   65.1059   32.8911   48.6292 H   0  0  0  0  0  0  0  0  0  0  0  0
   62.3048   34.5128   47.1186 H   0  0  0  0  0  0  0  0  0  0  0  0
   63.5060   34.4294   45.7856 H   0  0  0  0  0  0  0  0  0  0  0  0
   62.0866   33.3286   45.7856 H   0  0  0  0  0  0  0  0  0  0  0  0
   62.4119   31.2717   46.4369 H   0  0  0  0  0  0  0  0  0  0  0  0
   63.5306   30.8517   47.8109 H   0  0  0  0  0  0  0  0  0  0  0  0
   60.7334   31.8454   47.8624 H   0  0  0  0  0  0  0  0  0  0  0  0
   61.6888   30.9046   49.0869 H   0  0  0  0  0  0  0  0  0  0  0  0
   60.2674   35.8776   46.4850 H   0  0  0  0  0  0  0  0  0  0  0  0
   59.3550   35.0688   44.3120 H   0  0  0  0  0  0  0  0  0  0  0  0
  1  2  1  0
  2  3  2  0
  3  4  1  0
  4  5  2  0
  5  6  1  0
  6  7  1  0
  7  8  1  0
  8  9  1  0
  9 10  1  0
 10 11  1  0
 11 12  1  0
 12 13  1  0
 12 14  1  0
 14 15  1  0
  5 16  1  0
 16 17  2  0
 17  2  1  0
 15  9  1  0
  1 18  1  0
  1 19  1  0
  1 20  1  0
  3 21  1  0
  4 22  1  0
  6 23  1  0
  6 24  1  0
  7 25  1  0
  7 26  1  0
  8 27  1  0
  8 28  1  0
 10 29  1  0
 10 30  1  0
 11 31  1  0
 11 32  1  0
 13 33  1  0
 13 34  1  0
 13 35  1  0
 14 36  1  0
 14 37  1  0
 15 38  1  0
 15 39  1  0
 16 40  1  0
 17 41  1  0
M  CHG  1   6   1
M  END
>  <UniqueID>  (23) 
21

>  <SMILES>  (23) 
Cc1ccc([NH2+]CCN2CCN(C)CC2)cc1

>  <Energy>  (23) 
50.09295274147784

>  <Genealogy>  (23) 
Cc1ccc([NH2+]CCN2CCN(C)CC2)cc1 (protonated)
Cc1ccc([NH2+]CCN2CCN(C)CC2)cc1 (3D coordinates assigned)
Cc1ccc([NH2+]CCN2CCN(C)CC2)cc1 (nonaromatic ring conformer: 50.09295274147784 kcal/mol)

>  <smiles>  (23) 
Cc1ccc(NCCN2CCN(C)CC2)cc1

>  <score_type>  (23) 
oracle

>  <origin>  (23) 
adg

>  <m_score__min__energy>  (23) 
-4.2999999999999998

>  <m_primary>  (23) 
energy

$$$$
23:0
     RDKit          3D

 45 48  0  0  0  0  0  0  0  0999 V2000
   58.9514   35.6340   48.0239 H   0  0  0  0  0  0  0  0  0  0  0  0
   59.3310   34.6090   47.9000 C   0  0  0  0  0  0  0  0  0  0  0  0
   59.5070   34.1610   46.6470 C   0  0  0  0  0  0  0  0  0  0  0  0
   59.8384   34.8854   45.8884 H   0  0  0  0  0  0  0  0  0  0  0  0
   59.2870   32.7590   46.2100 C   0  0  0  0  0  0  0  0  0  0  0  0
   58.1520   32.4610   45.5230 N   0  0  0  0  0  0  0  0  0  0  0  0
   57.9060   31.2150   45.0550 C   0  0  0  0  0  0  0  0  0  0  0  0
   56.7160   30.9480   44.3690 C   0  0  0  0  0  0  0  0  0  0  0  0
   55.9802   31.7504   44.2116 H   0  0  0  0  0  0  0  0  0  0  0  0
   56.4620   29.6630   43.8840 C   0  0  0  0  0  0  0  0  0  0  0  0
   55.5254   29.4539   43.3464 H   0  0  0  0  0  0  0  0  0  0  0  0
   57.3970   28.6420   44.0810 C   0  0  0  0  0  0  0  0  0  0  0  0
   57.1945   27.6317   43.6960 H   0  0  0  0  0  0  0  0  0  0  0  0
   58.5890   28.9010   44.7660 C   0  0  0  0  0  0  0  0  0  0  0  0
   59.3209   28.0945   44.9203 H   0  0  0  0  0  0  0  0  0  0  0  0
   58.8520   30.1940   45.2580 C   0  0  0  0  0  0  0  0  0  0  0  0
   60.0290   30.5100   45.9550 C   0  0  0  0  0  0  0  0  0  0  0  0
   60.8930   29.6110   46.1640 O   0  0  0  0  0  0  0  0  0  0  0  0
   60.2360   31.7850   46.4200 N   0  0  0  0  0  0  0  0  0  0  0  0
   61.4360   32.0790   47.1640 C   0  0  0  0  0  0  0  0  0  0  0  0
   61.7640   31.3260   48.3010 C   0  0  0  0  0  0  0  0  0  0  0  0
   61.1050   30.5070   48.6250 H   0  0  0  0  0  0  0  0  0  0  0  0
   62.9260   31.6130   49.0240 C   0  0  0  0  0  0  0  0  0  0  0  0
   63.1749   31.0190   49.9158 H   0  0  0  0  0  0  0  0  0  0  0  0
   63.7750   32.6510   48.6210 C   0  0  0  0  0  0  0  0  0  0  0  0
   64.9280   32.9000   49.3800 O   0  0  0  0  0  0  0  0  0  0  0  0
   65.4570   32.0080   50.3560 C   0  0  0  0  0  0  0  0  0  0  0  0
   65.2306   32.3897   51.3625 H   0  0  0  0  0  0  0  0  0  0  0  0
   65.0020   31.0145   50.2297 H   0  0  0  0  0  0  0  0  0  0  0  0
   66.5470   31.9308   50.2297 H   0  0  0  0  0  0  0  0  0  0  0  0
   63.4460   33.4040   47.4780 C   0  0  0  0  0  0  0  0  0  0  0  0
   64.1061   34.2215   47.1525 H   0  0  0  0  0  0  0  0  0  0  0  0
   62.2850   33.1180   46.7550 C   0  0  0  0  0  0  0  0  0  0  0  0
   62.0359   33.7098   45.8618 H   0  0  0  0  0  0  0  0  0  0  0  0
   59.6080   33.8310   49.1270 C   0  0  0  0  0  0  0  0  0  0  0  0
   58.8380   32.7040   49.4700 C   0  0  0  0  0  0  0  0  0  0  0  0
   57.9987   32.3973   48.8286 H   0  0  0  0  0  0  0  0  0  0  0  0
   59.1370   31.9730   50.6240 C   0  0  0  0  0  0  0  0  0  0  0  0
   58.5219   31.1029   50.8970 H   0  0  0  0  0  0  0  0  0  0  0  0
   60.2150   32.3450   51.4310 C   0  0  0  0  0  0  0  0  0  0  0  0
   60.4436   31.7731   52.3424 H   0  0  0  0  0  0  0  0  0  0  0  0
   61.0030   33.4450   51.0790 C   0  0  0  0  0  0  0  0  0  0  0  0
   61.8570   33.7330   51.7096 H   0  0  0  0  0  0  0  0  0  0  0  0
   60.7070   34.1800   49.9260 C   0  0  0  0  0  0  0  0  0  0  0  0
   61.3388   35.0354   49.6447 H   0  0  0  0  0  0  0  0  0  0  0  0
  1  2  1  0
  2  3  2  0
  3  4  1  0
  3  5  1  0
  5  6  2  0
  6  7  1  0
  7  8  2  0
  8  9  1  0
  8 10  1  0
 10 11  1  0
 10 12  2  0
 12 13  1  0
 12 14  1  0
 14 15  1  0
 14 16  2  0
 16 17  1  0
 17 18  2  0
 17 19  1  0
 19 20  1  0
 20 21  2  0
 21 22  1  0
 21 23  1  0
 23 24  1  0
 23 25  2  0
 25 26  1  0
 26 27  1  0
 27 28  1  0
 27 29  1  0
 27 30  1  0
 25 31  1  0
 31 32  1  0
 31 33  2  0
 33 34  1  0
  2 35  1  0
 35 36  2  0
 36 37  1  0
 36 38  1  0
 38 39  1  0
 38 40  2  0
 40 41  1  0
 40 42  1  0
 42 43  1  0
 42 44  2  0
 44 45  1  0
 19  5  1  0
 33 20  1  0
 44 35  1  0
 16  7  1  0
M  END
>  <UniqueID>  (24) 
22

>  <SMILES>  (24) 
COc1ccc(-n2c(/C=C\c3ccccc3)nc3ccccc3c2=O)cc1

>  <Energy>  (24) 
71.47126498054719

>  <Genealogy>  (24) 
COc1ccc(-n2c(/C=C\c3ccccc3)nc3ccccc3c2=O)cc1 (cis-trans isomerization)
COc1ccc(-n2c(/C=C\c3ccccc3)nc3ccccc3c2=O)cc1 (3D coordinates assigned)
COc1ccc(-n2c(/C=C\c3ccccc3)nc3ccccc3c2=O)cc1 (optimized conformer: 71.47126498054719 kcal/mol)

>  <smiles>  (24) 
COc1ccc(-n2c(C=Cc3ccccc3)nc3ccccc3c2=O)cc1

>  <score_type>  (24) 
oracle

>  <origin>  (24) 
adg

>  <m_score__min__energy>  (24) 
-7.4199999999999999

>  <m_primary>  (24) 
energy

$$$$
24:0
     RDKit          3D

 48 51  0  0  0  0  0  0  0  0999 V2000
   57.1120   32.3430   41.3820 C   0  0  0  0  0  0  0  0  0  0  0  0
   57.4150   31.7830   42.7390 C   0  0  0  0  0  0  0  0  0  0  0  0
   57.2730   30.4110   42.9770 C   0  0  0  0  0  0  0  0  0  0  0  0
   57.6190   29.9020   44.2380 C   0  0  0  0  0  0  0  0  0  0  0  0
   57.5020   28.4560   44.5580 C   0  0  0  0  0  0  0  0  0  0  0  0
   57.0460   28.0160   45.8170 C   0  0  0  0  0  0  0  0  0  0  0  0
   56.9530   26.6480   46.0980 C   0  0  0  0  0  0  0  0  0  0  0  0
   57.3170   25.7080   45.1340 C   0  0  0  0  0  0  0  0  0  0  0  0
   57.7810   26.1300   43.8860 C   0  0  0  0  0  0  0  0  0  0  0  0
   57.8770   27.4950   43.6000 C   0  0  0  0  0  0  0  0  0  0  0  0
   58.0960   30.7570   45.1820 N   0  0  0  0  0  0  0  0  0  0  0  0
   58.2320   32.0890   44.9450 C   0  0  0  0  0  0  0  0  0  0  0  0
   58.7610   32.9420   45.9770 N   0  0  0  0  0  0  0  0  0  0  0  0
   59.3450   34.2520   45.6580 C   0  0  0  0  0  0  0  0  0  0  0  0
   60.6870   34.4100   46.3820 C   0  0  0  0  0  0  0  0  0  0  0  0
   60.6100   33.9260   47.7700 N   0  0  0  0  0  0  0  0  0  0  0  0
   61.8160   33.7900   48.5440 C   0  0  0  0  0  0  0  0  0  0  0  0
   61.8560   34.2150   49.8850 C   0  0  0  0  0  0  0  0  0  0  0  0
   63.0320   34.0930   50.6300 C   0  0  0  0  0  0  0  0  0  0  0  0
   64.1800   33.5530   50.0450 C   0  0  0  0  0  0  0  0  0  0  0  0
   64.1530   33.1350   48.7120 C   0  0  0  0  0  0  0  0  0  0  0  0
   62.9800   33.2540   47.9630 C   0  0  0  0  0  0  0  0  0  0  0  0
   59.3110   33.5220   48.3270 C   0  0  0  0  0  0  0  0  0  0  0  0
   58.6300   32.5260   47.3820 C   0  0  0  0  0  0  0  0  0  0  0  0
   57.9080   32.5910   43.7200 N   0  0  0  0  0  0  0  0  0  0  0  0
   56.5911   33.3057   41.4906 H   0  0  0  0  0  0  0  0  0  0  0  0
   58.0512   32.4945   40.8298 H   0  0  0  0  0  0  0  0  0  0  0  0
   56.4714   31.6397   40.8298 H   0  0  0  0  0  0  0  0  0  0  0  0
   56.8964   29.7428   42.1885 H   0  0  0  0  0  0  0  0  0  0  0  0
   56.7615   28.7521   46.5833 H   0  0  0  0  0  0  0  0  0  0  0  0
   56.5919   26.3133   47.0817 H   0  0  0  0  0  0  0  0  0  0  0  0
   57.2386   24.6336   45.3567 H   0  0  0  0  0  0  0  0  0  0  0  0
   58.0711   25.3878   43.1277 H   0  0  0  0  0  0  0  0  0  0  0  0
   58.2489   27.8212   42.6175 H   0  0  0  0  0  0  0  0  0  0  0  0
   59.5044   34.3266   44.5722 H   0  0  0  0  0  0  0  0  0  0  0  0
   58.6585   35.0464   45.9862 H   0  0  0  0  0  0  0  0  0  0  0  0
   61.4537   33.8331   45.8441 H   0  0  0  0  0  0  0  0  0  0  0  0
   60.9449   35.4791   46.4025 H   0  0  0  0  0  0  0  0  0  0  0  0
   60.9566   34.6456   50.3493 H   0  0  0  0  0  0  0  0  0  0  0  0
   63.0538   34.4228   51.6792 H   0  0  0  0  0  0  0  0  0  0  0  0
   65.1045   33.4570   50.6333 H   0  0  0  0  0  0  0  0  0  0  0  0
   65.0576   32.7112   48.2514 H   0  0  0  0  0  0  0  0  0  0  0  0
   62.9662   32.9268   46.9129 H   0  0  0  0  0  0  0  0  0  0  0  0
   59.4652   33.0484   49.3078 H   0  0  0  0  0  0  0  0  0  0  0  0
   58.6721   34.4101   48.4416 H   0  0  0  0  0  0  0  0  0  0  0  0
   59.0964   31.5377   47.5074 H   0  0  0  0  0  0  0  0  0  0  0  0
   57.5597   32.4878   47.6329 H   0  0  0  0  0  0  0  0  0  0  0  0
   58.0740   33.6000   43.5090 H   0  0  0  0  0  0  0  0  0  0  0  0
  1  2  1  0
  2  3  2  0
  3  4  1  0
  4  5  1  0
  5  6  2  0
  6  7  1  0
  7  8  2  0
  8  9  1  0
  9 10  2  0
  4 11  2  0
 11 12  1  0
 12 13  1  0
 13 14  1  0
 14 15  1  0
 15 16  1  0
 16 17  1  0
 17 18  2  0
 18 19  1  0
 19 20  2  0
 20 21  1  0
 21 22  2  0
 16 23  1  0
 23 24  1  0
 12 25  2  0
 25  2  1  0
 10  5  1  0
 24 13  1  0
 22 17  1  0
  1 26  1  0
  1 27  1  0
  1 28  1  0
  3 29  1  0
  6 30  1  0
  7 31  1  0
  8 32  1  0
  9 33  1  0
 10 34  1  0
 14 35  1  0
 14 36  1  0
 15 37  1  0
 15 38  1  0
 18 39  1  0
 19 40  1  0
 20 41  1  0
 21 42  1  0
 22 43  1  0
 23 44  1  0
 23 45  1  0
 24 46  1  0
 24 47  1  0
 25 48  1  0
M  CHG  1  25   1
M  END
>  <UniqueID>  (25) 
23

>  <SMILES>  (25) 
Cc1cc(-c2ccccc2)nc(N2CCN(c3ccccc3)CC2)[nH+]1

>  <Energy>  (25) 
62.283118784908446

>  <Genealogy>  (25) 
Cc1cc(-c2ccccc2)nc(N2CCN(c3ccccc3)CC2)[nH+]1 (protonated)
Cc1cc(-c2ccccc2)nc(N2CCN(c3ccccc3)CC2)[nH+]1 (3D coordinates assigned)
Cc1cc(-c2ccccc2)nc(N2CCN(c3ccccc3)CC2)[nH+]1 (nonaromatic ring conformer: 62.283118784908446 kcal/mol)

>  <smiles>  (25) 
Cc1cc(-c2ccccc2)nc(N2CCN(c3ccccc3)CC2)n1

>  <score_type>  (25) 
oracle

>  <origin>  (25) 
adg

>  <m_score__min__energy>  (25) 
-6.6699999999999999

>  <m_primary>  (25) 
energy

$$$$
25:0
     RDKit          3D

 64 67  0  0  0  0  0  0  0  0999 V2000
   59.2610   35.4620   54.6690 C   0  0  0  0  0  0  0  0  0  0  0  0
   59.3470   34.1800   53.8460 C   0  0  0  0  0  0  0  0  0  0  0  0
   58.9090   34.4180   52.4700 N   0  0  0  0  0  0  0  0  0  0  0  0
   58.9640   33.4430   51.4100 C   0  0  0  0  0  0  0  0  0  0  0  0
   59.9870   33.4470   50.4420 C   0  0  0  0  0  0  0  0  0  0  0  0
   60.0020   32.4900   49.4240 C   0  0  0  0  0  0  0  0  0  0  0  0
   58.9920   31.5210   49.3420 C   0  0  0  0  0  0  0  0  0  0  0  0
   59.0190   30.5490   48.2830 N   0  0  0  0  0  0  0  0  0  0  0  0
   59.1560   29.2510   48.5070 N   0  0  0  0  0  0  0  0  0  0  0  0
   59.1010   28.6100   47.3230 C   0  0  0  0  0  0  0  0  0  0  0  0
   59.2280   27.1470   47.2040 C   0  0  0  0  0  0  0  0  0  0  0  0
   60.2940   26.5960   47.5910 O   0  0  0  0  0  0  0  0  0  0  0  0
   58.1470   26.3470   46.7020 N   0  0  0  0  0  0  0  0  0  0  0  0
   58.3020   24.9100   46.4380 C   0  0  0  0  0  0  0  0  0  0  0  0
   57.3180   24.0870   47.2920 C   0  0  0  0  0  0  0  0  0  0  0  0
   55.8420   24.3140   46.9020 C   0  0  0  0  0  0  0  0  0  0  0  0
   55.6460   24.6570   45.4120 C   0  0  0  0  0  0  0  0  0  0  0  0
   56.7510   24.0540   44.5430 C   0  0  0  0  0  0  0  0  0  0  0  0
   58.1360   24.6110   44.9220 C   0  0  0  0  0  0  0  0  0  0  0  0
   58.9490   29.5400   46.3030 C   0  0  0  0  0  0  0  0  0  0  0  0
   58.9620   29.2980   44.8220 C   0  0  0  0  0  0  0  0  0  0  0  0
   58.8930   30.7650   46.9500 C   0  0  0  0  0  0  0  0  0  0  0  0
   58.8200   32.0890   46.2920 C   0  0  0  0  0  0  0  0  0  0  0  0
   59.8390   33.0270   46.5200 C   0  0  0  0  0  0  0  0  0  0  0  0
   59.8060   34.2730   45.8920 C   0  0  0  0  0  0  0  0  0  0  0  0
   58.7550   34.5940   45.0320 C   0  0  0  0  0  0  0  0  0  0  0  0
   57.7310   33.6730   44.8020 C   0  0  0  0  0  0  0  0  0  0  0  0
   57.7470   32.4140   45.4350 C   0  0  0  0  0  0  0  0  0  0  0  0
   56.7170   31.4770   45.2460 O   0  0  0  0  0  0  0  0  0  0  0  0
   56.4090   30.8540   44.0050 C   0  0  0  0  0  0  0  0  0  0  0  0
   57.9790   31.5050   50.3140 C   0  0  0  0  0  0  0  0  0  0  0  0
   57.9620   32.4630   51.3310 C   0  0  0  0  0  0  0  0  0  0  0  0
   59.2778   35.2119   55.7401 H   0  0  0  0  0  0  0  0  0  0  0  0
   60.1177   36.1092   54.4301 H   0  0  0  0  0  0  0  0  0  0  0  0
   58.3255   35.9890   54.4301 H   0  0  0  0  0  0  0  0  0  0  0  0
   60.3884   33.8257   53.8373 H   0  0  0  0  0  0  0  0  0  0  0  0
   58.6902   33.4235   54.3003 H   0  0  0  0  0  0  0  0  0  0  0  0
   58.5370   35.3700   52.2480 H   0  0  0  0  0  0  0  0  0  0  0  0
   60.7794   34.2086   50.4877 H   0  0  0  0  0  0  0  0  0  0  0  0
   60.8129   32.4969   48.6808 H   0  0  0  0  0  0  0  0  0  0  0  0
   57.2010   26.7810   46.6320 H   0  0  0  0  0  0  0  0  0  0  0  0
   59.3198   24.6090   46.7271 H   0  0  0  0  0  0  0  0  0  0  0  0
   57.5532   23.0198   47.1664 H   0  0  0  0  0  0  0  0  0  0  0  0
   57.4358   24.4145   48.3355 H   0  0  0  0  0  0  0  0  0  0  0  0
   55.2777   23.3966   47.1253 H   0  0  0  0  0  0  0  0  0  0  0  0
   55.4826   25.1763   47.4827 H   0  0  0  0  0  0  0  0  0  0  0  0
   54.6750   24.2611   45.0797 H   0  0  0  0  0  0  0  0  0  0  0  0
   55.6832   25.7511   45.3040 H   0  0  0  0  0  0  0  0  0  0  0  0
   56.7559   22.9623   44.6779 H   0  0  0  0  0  0  0  0  0  0  0  0
   56.5482   24.3187   43.4948 H   0  0  0  0  0  0  0  0  0  0  0  0
   58.8977   23.8734   44.6292 H   0  0  0  0  0  0  0  0  0  0  0  0
   58.2500   25.5690   44.3936 H   0  0  0  0  0  0  0  0  0  0  0  0
   59.0201   28.2169   44.6276 H   0  0  0  0  0  0  0  0  0  0  0  0
   58.0409   29.7017   44.3764 H   0  0  0  0  0  0  0  0  0  0  0  0
   59.8346   29.7981   44.3764 H   0  0  0  0  0  0  0  0  0  0  0  0
   60.6689   32.7785   47.1979 H   0  0  0  0  0  0  0  0  0  0  0  0
   60.6089   35.0023   46.0751 H   0  0  0  0  0  0  0  0  0  0  0  0
   58.7332   35.5747   44.5342 H   0  0  0  0  0  0  0  0  0  0  0  0
   56.9061   33.9320   44.1220 H   0  0  0  0  0  0  0  0  0  0  0  0
   55.9286   29.8822   44.1918 H   0  0  0  0  0  0  0  0  0  0  0  0
   55.7250   31.4970   43.4317 H   0  0  0  0  0  0  0  0  0  0  0  0
   57.3352   30.7009   43.4317 H   0  0  0  0  0  0  0  0  0  0  0  0
   57.1949   30.7345   50.2747 H   0  0  0  0  0  0  0  0  0  0  0  0
   57.1546   32.4491   52.0779 H   0  0  0  0  0  0  0  0  0  0  0  0
  1  2  1  0
  2  3  1  0
  3  4  1  0
  4  5  2  0
  5  6  1  0
  6  7  2  0
  7  8  1  0
  8  9  1  0
  9 10  2  0
 10 11  1  0
 11 12  2  0
 11 13  1  0
 13 14  1  0
 14 15  1  0
 15 16  1  0
 16 17  1  0
 17 18  1  0
 18 19  1  0
 10 20  1  0
 20 21  1  0
 20 22  2  0
 22 23  1  0
 23 24  2  0
 24 25  1  0
 25 26  2  0
 26 27  1  0
 27 28  2  0
 28 29  1  0
 29 30  1  0
  7 31  1  0
 31 32  2  0
 32  4  1  0
 22  8  1  0
 28 23  1  0
 19 14  1  0
  1 33  1  0
  1 34  1  0
  1 35  1  0
  2 36  1  0
  2 37  1  0
  3 38  1  0
  5 39  1  0
  6 40  1  0
 13 41  1  0
 14 42  1  0
 15 43  1  0
 15 44  1  0
 16 45  1  0
 16 46  1  0
 17 47  1  0
 17 48  1  0
 18 49  1  0
 18 50  1  0
 19 51  1  0
 19 52  1  0
 21 53  1  0
 21 54  1  0
 21 55  1  0
 24 56  1  0
 25 57  1  0
 26 58  1  0
 27 59  1  0
 30 60  1  0
 30 61  1  0
 30 62  1  0
 31 63  1  0
 32 64  1  0
M  END
>  <UniqueID>  (26) 
24

>  <SMILES>  (26) 
CCNc1ccc(-n2nc(C(=O)NC3CCCCC3)c(C)c2-c2ccccc2OC)cc1

>  <Energy>  (26) 
104.48327142005378

>  <Genealogy>  (26) 
CCNc1ccc(-n2nc(C(=O)NC3CCCCC3)c(C)c2-c2ccccc2OC)cc1 (3D coordinates assigned)
CCNc1ccc(-n2nc(C(=O)NC3CCCCC3)c(C)c2-c2ccccc2OC)cc1 (nonaromatic ring conformer: 104.48327142005378 kcal/mol)

>  <smiles>  (26) 
CCNc1ccc(-n2nc(C(=O)NC3CCCCC3)c(C)c2-c2ccccc2OC)cc1

>  <score_type>  (26) 
oracle

>  <origin>  (26) 
adg

>  <m_score__min__energy>  (26) 
-8.5899999999999999

>  <m_primary>  (26) 
energy

$$$$
26:0
     RDKit          3D

 43 44  0  0  0  0  0  0  0  0999 V2000
   60.3970   28.5850   44.8520 C   0  0  0  0  0  0  0  0  0  0  0  0
   59.4670   28.7980   46.0480 C   0  0  0  0  0  0  0  0  0  0  0  0
   58.3610   27.7690   46.0540 C   0  0  0  0  0  0  0  0  0  0  0  0
   58.6740   26.4420   46.3940 C   0  0  0  0  0  0  0  0  0  0  0  0
   57.6860   25.4500   46.3650 C   0  0  0  0  0  0  0  0  0  0  0  0
   57.9820   24.1190   46.6970 C   0  0  0  0  0  0  0  0  0  0  0  0
   56.9810   23.1390   46.6540 C   0  0  0  0  0  0  0  0  0  0  0  0
   57.3310   21.8200   46.9740 O   0  0  0  0  0  0  0  0  0  0  0  0
   57.4900   20.7740   46.0190 C   0  0  0  0  0  0  0  0  0  0  0  0
   55.6720   23.5050   46.2870 C   0  0  0  0  0  0  0  0  0  0  0  0
   55.3750   24.8300   45.9510 C   0  0  0  0  0  0  0  0  0  0  0  0
   56.3800   25.8030   45.9830 C   0  0  0  0  0  0  0  0  0  0  0  0
   56.0960   27.0850   45.6400 N   0  0  0  0  0  0  0  0  0  0  0  0
   57.0320   28.0750   45.6560 C   0  0  0  0  0  0  0  0  0  0  0  0
   56.6510   29.4020   45.2400 N   0  0  0  0  0  0  0  0  0  0  0  0
   56.9480   29.9250   43.9060 C   0  0  0  0  0  0  0  0  0  0  0  0
   57.3760   31.4100   43.9430 C   0  0  0  0  0  0  0  0  0  0  0  0
   57.2680   32.0700   45.2640 N   0  0  0  0  0  0  0  0  0  0  0  0
   58.3790   31.7470   46.1720 C   0  0  0  0  0  0  0  0  0  0  0  0
   57.0480   33.5240   45.1780 C   0  0  0  0  0  0  0  0  0  0  0  0
   61.4102   28.3530   45.2121 H   0  0  0  0  0  0  0  0  0  0  0  0
   60.0242   27.7490   44.2420 H   0  0  0  0  0  0  0  0  0  0  0  0
   60.4253   29.4999   44.2420 H   0  0  0  0  0  0  0  0  0  0  0  0
   60.0481   28.7090   46.9777 H   0  0  0  0  0  0  0  0  0  0  0  0
   59.0181   29.7994   45.9731 H   0  0  0  0  0  0  0  0  0  0  0  0
   59.7021   26.1806   46.6849 H   0  0  0  0  0  0  0  0  0  0  0  0
   59.0051   23.8434   46.9925 H   0  0  0  0  0  0  0  0  0  0  0  0
   57.6353   19.8179   46.5432 H   0  0  0  0  0  0  0  0  0  0  0  0
   56.5907   20.7134   45.3884 H   0  0  0  0  0  0  0  0  0  0  0  0
   58.3666   20.9834   45.3884 H   0  0  0  0  0  0  0  0  0  0  0  0
   54.8778   22.7442   46.2643 H   0  0  0  0  0  0  0  0  0  0  0  0
   54.3506   25.1072   45.6614 H   0  0  0  0  0  0  0  0  0  0  0  0
   56.2780   30.0860   45.9330 H   0  0  0  0  0  0  0  0  0  0  0  0
   57.7637   29.3321   43.4665 H   0  0  0  0  0  0  0  0  0  0  0  0
   56.0308   29.8528   43.3030 H   0  0  0  0  0  0  0  0  0  0  0  0
   58.4256   31.4687   43.6193 H   0  0  0  0  0  0  0  0  0  0  0  0
   56.6782   31.9428   43.2804 H   0  0  0  0  0  0  0  0  0  0  0  0
   58.0412   31.8452   47.2142 H   0  0  0  0  0  0  0  0  0  0  0  0
   58.7127   30.7147   45.9904 H   0  0  0  0  0  0  0  0  0  0  0  0
   59.2141   32.4395   45.9904 H   0  0  0  0  0  0  0  0  0  0  0  0
   56.9842   33.9458   46.1919 H   0  0  0  0  0  0  0  0  0  0  0  0
   57.8858   33.9904   44.6389 H   0  0  0  0  0  0  0  0  0  0  0  0
   56.1097   33.7216   44.6389 H   0  0  0  0  0  0  0  0  0  0  0  0
  1  2  1  0
  2  3  1  0
  3  4  2  0
  4  5  1  0
  5  6  2  0
  6  7  1  0
  7  8  1  0
  8  9  1  0
  7 10  2  0
 10 11  1  0
 11 12  2  0
 12 13  1  0
 13 14  2  0
 14 15  1  0
 15 16  1  0
 16 17  1  0
 17 18  1  0
 18 19  1  0
 18 20  1  0
 14  3  1  0
 12  5  1  0
  1 21  1  0
  1 22  1  0
  1 23  1  0
  2 24  1  0
  2 25  1  0
  4 26  1  0
  6 27  1  0
  9 28  1  0
  9 29  1  0
  9 30  1  0
 10 31  1  0
 11 32  1  0
 15 33  1  0
 16 34  1  0
 16 35  1  0
 17 36  1  0
 17 37  1  0
 19 38  1  0
 19 39  1  0
 19 40  1  0
 20 41  1  0
 20 42  1  0
 20 43  1  0
M  END
>  <UniqueID>  (27) 
25

>  <SMILES>  (27) 
CCc1cc2cc(OC)ccc2nc1NCCN(C)C

>  <Energy>  (27) 
44.74543055305496

>  <Genealogy>  (27) 
CCc1cc2cc(OC)ccc2nc1NCCN(C)C (3D coordinates assigned)
CCc1cc2cc(OC)ccc2nc1NCCN(C)C (optimized conformer: 44.74543055305496 kcal/mol)

>  <smiles>  (27) 
CCc1cc2cc(OC)ccc2nc1NCCN(C)C

>  <score_type>  (27) 
oracle

>  <origin>  (27) 
adg

>  <m_score__min__energy>  (27) 
-6.25

>  <m_primary>  (27) 
energy

$$$$
27:0
     RDKit          3D

 34 36  0  0  0  0  0  0  0  0999 V2000
   60.7960   30.7020   49.7210 O   0  0  0  0  0  0  0  0  0  0  0  0
   60.0500   31.6860   49.9780 C   0  0  0  0  0  0  0  0  0  0  0  0
   60.4300   33.0050   49.5510 N   0  0  0  0  0  0  0  0  0  0  0  0
   61.5490   33.2600   48.6830 C   0  0  0  0  0  0  0  0  0  0  0  0
   62.8560   33.2520   49.2040 C   0  0  0  0  0  0  0  0  0  0  0  0
   63.9560   33.4210   48.3610 C   0  0  0  0  0  0  0  0  0  0  0  0
   63.7690   33.5840   46.9890 C   0  0  0  0  0  0  0  0  0  0  0  0
   62.4790   33.5830   46.4540 C   0  0  0  0  0  0  0  0  0  0  0  0
   61.3590   33.4250   47.2890 C   0  0  0  0  0  0  0  0  0  0  0  0
   60.0030   33.4680   46.6890 C   0  0  0  0  0  0  0  0  0  0  0  0
   59.0580   32.4700   46.9870 C   0  0  0  0  0  0  0  0  0  0  0  0
   57.7790   32.5190   46.4240 C   0  0  0  0  0  0  0  0  0  0  0  0
   57.4300   33.5660   45.5670 C   0  0  0  0  0  0  0  0  0  0  0  0
   58.3590   34.5680   45.2740 C   0  0  0  0  0  0  0  0  0  0  0  0
   59.6400   34.5220   45.8340 C   0  0  0  0  0  0  0  0  0  0  0  0
   58.8040   31.4790   50.7460 C   0  0  0  0  0  0  0  0  0  0  0  0
   58.2490   30.1980   50.9070 C   0  0  0  0  0  0  0  0  0  0  0  0
   57.1010   30.0490   51.6210 N   0  0  0  0  0  0  0  0  0  0  0  0
   56.4770   31.1160   52.1830 C   0  0  0  0  0  0  0  0  0  0  0  0
   57.0220   32.3900   52.0260 C   0  0  0  0  0  0  0  0  0  0  0  0
   58.1680   32.5420   51.3130 N   0  0  0  0  0  0  0  0  0  0  0  0
   59.9220   33.8270   49.9490 H   0  0  0  0  0  0  0  0  0  0  0  0
   63.0123   33.1115   50.2837 H   0  0  0  0  0  0  0  0  0  0  0  0
   64.9729   33.4256   48.7804 H   0  0  0  0  0  0  0  0  0  0  0  0
   64.6382   33.7135   46.3274 H   0  0  0  0  0  0  0  0  0  0  0  0
   62.3380   33.7069   45.3701 H   0  0  0  0  0  0  0  0  0  0  0  0
   59.3262   31.6472   47.6660 H   0  0  0  0  0  0  0  0  0  0  0  0
   57.0464   31.7320   46.6561 H   0  0  0  0  0  0  0  0  0  0  0  0
   56.4242   33.6015   45.1231 H   0  0  0  0  0  0  0  0  0  0  0  0
   58.0826   35.3939   44.6021 H   0  0  0  0  0  0  0  0  0  0  0  0
   60.3667   35.3150   45.6038 H   0  0  0  0  0  0  0  0  0  0  0  0
   58.7398   29.3216   50.4585 H   0  0  0  0  0  0  0  0  0  0  0  0
   55.5493   30.9766   52.7574 H   0  0  0  0  0  0  0  0  0  0  0  0
   56.5282   33.2641   52.4756 H   0  0  0  0  0  0  0  0  0  0  0  0
  1  2  2  0
  2  3  1  0
  3  4  1  0
  4  5  2  0
  5  6  1  0
  6  7  2  0
  7  8  1  0
  8  9  2  0
  9 10  1  0
 10 11  2  0
 11 12  1  0
 12 13  2  0
 13 14  1  0
 14 15  2  0
  2 16  1  0
 16 17  2  0
 17 18  1  0
 18 19  2  0
 19 20  1  0
 20 21  2  0
  9  4  1  0
 15 10  1  0
 21 16  1  0
  3 22  1  0
  5 23  1  0
  6 24  1  0
  7 25  1  0
  8 26  1  0
 11 27  1  0
 12 28  1  0
 13 29  1  0
 14 30  1  0
 15 31  1  0
 17 32  1  0
 19 33  1  0
 20 34  1  0
M  END
>  <UniqueID>  (28) 
26

>  <SMILES>  (28) 
O=C(Nc1ccccc1-c1ccccc1)c1cnccn1

>  <Energy>  (28) 
49.547522917906186

>  <Genealogy>  (28) 
O=C(Nc1ccccc1-c1ccccc1)c1cnccn1 (3D coordinates assigned)
O=C(Nc1ccccc1-c1ccccc1)c1cnccn1 (optimized conformer: 49.547522917906186 kcal/mol)

>  <smiles>  (28) 
O=C(Nc1ccccc1-c1ccccc1)c1cnccn1

>  <score_type>  (28) 
oracle

>  <origin>  (28) 
adg

>  <m_score__min__energy>  (28) 
-6.8399999999999999

>  <m_primary>  (28) 
energy

$$$$
28:0
     RDKit          3D

 46 49  0  0  0  0  0  0  0  0999 V2000
   56.7250   27.8040   45.3420 C   0  0  0  0  0  0  0  0  0  0  0  0
   56.0740   28.9460   44.7950 O   0  0  0  0  0  0  0  0  0  0  0  0
   56.7320   30.1190   44.3920 C   0  0  0  0  0  0  0  0  0  0  0  0
   56.7100   30.4600   43.0350 C   0  0  0  0  0  0  0  0  0  0  0  0
   57.3410   31.6220   42.5850 C   0  0  0  0  0  0  0  0  0  0  0  0
   58.0130   32.4520   43.4890 C   0  0  0  0  0  0  0  0  0  0  0  0
   58.0620   32.1220   44.8550 C   0  0  0  0  0  0  0  0  0  0  0  0
   58.7410   32.9840   45.7890 N   0  0  0  0  0  0  0  0  0  0  0  0
   58.5850   32.7590   47.2350 C   0  0  0  0  0  0  0  0  0  0  0  0
   59.5370   33.6410   48.0570 C   0  0  0  0  0  0  0  0  0  0  0  0
   60.8840   33.6610   47.4550 N   0  0  0  0  0  0  0  0  0  0  0  0
   62.0610   33.6220   48.3030 C   0  0  0  0  0  0  0  0  0  0  0  0
   63.1740   32.8230   47.9880 C   0  0  0  0  0  0  0  0  0  0  0  0
   64.2810   32.8220   48.8340 C   0  0  0  0  0  0  0  0  0  0  0  0
   64.2670   33.6140   49.9930 C   0  0  0  0  0  0  0  0  0  0  0  0
   65.3830   33.6470   50.9060 N   0  0  0  0  0  0  0  0  0  0  0  0
   66.5650   33.0190   50.7370 C   0  0  0  0  0  0  0  0  0  0  0  0
   67.3640   33.2930   51.8250 C   0  0  0  0  0  0  0  0  0  0  0  0
   66.6820   34.0910   52.6670 N   0  0  0  0  0  0  0  0  0  0  0  0
   65.4820   34.2920   52.0900 C   0  0  0  0  0  0  0  0  0  0  0  0
   63.1640   34.3660   50.2520 N   0  0  0  0  0  0  0  0  0  0  0  0
   62.1060   34.3710   49.4410 N   0  0  0  0  0  0  0  0  0  0  0  0
   61.0170   33.8520   45.9970 C   0  0  0  0  0  0  0  0  0  0  0  0
   59.6570   34.0300   45.3200 C   0  0  0  0  0  0  0  0  0  0  0  0
   57.4070   30.9580   45.3020 C   0  0  0  0  0  0  0  0  0  0  0  0
   56.6953   27.8561   46.4404 H   0  0  0  0  0  0  0  0  0  0  0  0
   56.2110   26.8920   45.0041 H   0  0  0  0  0  0  0  0  0  0  0  0
   57.7716   27.7816   45.0041 H   0  0  0  0  0  0  0  0  0  0  0  0
   56.1916   29.8077   42.3169 H   0  0  0  0  0  0  0  0  0  0  0  0
   57.3096   31.8852   41.5174 H   0  0  0  0  0  0  0  0  0  0  0  0
   58.5055   33.3674   43.1292 H   0  0  0  0  0  0  0  0  0  0  0  0
   57.5486   32.9910   47.5214 H   0  0  0  0  0  0  0  0  0  0  0  0
   58.8278   31.7069   47.4449 H   0  0  0  0  0  0  0  0  0  0  0  0
   59.1410   34.6668   48.0889 H   0  0  0  0  0  0  0  0  0  0  0  0
   59.6113   33.2274   49.0736 H   0  0  0  0  0  0  0  0  0  0  0  0
   63.1709   32.2027   47.0796 H   0  0  0  0  0  0  0  0  0  0  0  0
   65.1598   32.2049   48.5954 H   0  0  0  0  0  0  0  0  0  0  0  0
   66.8436   32.3938   49.8759 H   0  0  0  0  0  0  0  0  0  0  0  0
   68.3878   32.9218   51.9797 H   0  0  0  0  0  0  0  0  0  0  0  0
   67.0110   34.4700   53.5820 H   0  0  0  0  0  0  0  0  0  0  0  0
   64.6809   34.9055   52.5281 H   0  0  0  0  0  0  0  0  0  0  0  0
   61.6277   34.7475   45.8097 H   0  0  0  0  0  0  0  0  0  0  0  0
   61.4926   32.9535   45.5769 H   0  0  0  0  0  0  0  0  0  0  0  0
   59.2467   35.0185   45.5739 H   0  0  0  0  0  0  0  0  0  0  0  0
   59.7757   33.9537   44.2291 H   0  0  0  0  0  0  0  0  0  0  0  0
   57.4223   30.7010   46.3715 H   0  0  0  0  0  0  0  0  0  0  0  0
  1  2  1  0
  2  3  1  0
  3  4  2  0
  4  5  1  0
  5  6  2  0
  6  7  1  0
  7  8  1  0
  8  9  1  0
  9 10  1  0
 10 11  1  0
 11 12  1  0
 12 13  2  0
 13 14  1  0
 14 15  2  0
 15 16  1  0
 16 17  1  0
 17 18  2  0
 18 19  1  0
 19 20  2  0
 15 21  1  0
 21 22  2  0
 11 23  1  0
 23 24  1  0
  7 25  2  0
 25  3  1  0
 24  8  1  0
 22 12  1  0
 20 16  1  0
  1 26  1  0
  1 27  1  0
  1 28  1  0
  4 29  1  0
  5 30  1  0
  6 31  1  0
  9 32  1  0
  9 33  1  0
 10 34  1  0
 10 35  1  0
 13 36  1  0
 14 37  1  0
 17 38  1  0
 18 39  1  0
 19 40  1  0
 20 41  1  0
 23 42  1  0
 23 43  1  0
 24 44  1  0
 24 45  1  0
 25 46  1  0
M  CHG  1  19   1
M  END
>  <UniqueID>  (29) 
27

>  <SMILES>  (29) 
COc1cccc(N2CCN(c3ccc(-n4cc[nH+]c4)nn3)CC2)c1

>  <Energy>  (29) 
88.64522984391645

>  <Genealogy>  (29) 
COc1cccc(N2CCN(c3ccc(-n4cc[nH+]c4)nn3)CC2)c1 (protonated)
COc1cccc(N2CCN(c3ccc(-n4cc[nH+]c4)nn3)CC2)c1 (3D coordinates assigned)
COc1cccc(N2CCN(c3ccc(-n4cc[nH+]c4)nn3)CC2)c1 (nonaromatic ring conformer: 88.64522984391645 kcal/mol)

>  <smiles>  (29) 
COc1cccc(N2CCN(c3ccc(-n4ccnc4)nn3)CC2)c1

>  <score_type>  (29) 
oracle

>  <origin>  (29) 
adg

>  <m_score__min__energy>  (29) 
-6.2300000000000004

>  <m_primary>  (29) 
energy

$$$$
29:0
     RDKit          3D

 39 41  0  0  0  0  0  0  0  0999 V2000
   56.0715   25.1177   46.6693 H   0  0  0  0  0  0  0  0  0  0  0  0
   56.5900   25.9640   46.1950 C   0  0  0  0  0  0  0  0  0  0  0  0
   55.8960   27.0880   45.8650 N   0  0  0  0  0  0  0  0  0  0  0  0
   56.4920   28.1600   45.2750 C   0  0  0  0  0  0  0  0  0  0  0  0
   55.7550   29.1950   44.9810 N   0  0  0  0  0  0  0  0  0  0  0  0
   55.5260   29.7450   43.6460 C   0  0  0  0  0  0  0  0  0  0  0  0
   54.5276   30.2053   43.6088 H   0  0  0  0  0  0  0  0  0  0  0  0
   55.5925   28.9333   42.9066 H   0  0  0  0  0  0  0  0  0  0  0  0
   56.5840   30.8040   43.3230 C   0  0  0  0  0  0  0  0  0  0  0  0
   56.1384   31.5702   42.6715 H   0  0  0  0  0  0  0  0  0  0  0  0
   57.4288   30.3120   42.8187 H   0  0  0  0  0  0  0  0  0  0  0  0
   57.0780   31.4420   44.5420 N   0  0  0  0  0  0  0  0  0  0  0  0
   56.7100   31.0950   45.4570 H   0  0  0  0  0  0  0  0  0  0  0  0
   58.0550   32.4930   44.5380 C   0  0  0  0  0  0  0  0  0  0  0  0
   58.4250   33.0110   43.4500 O   0  0  0  0  0  0  0  0  0  0  0  0
   58.6190   33.0010   45.8060 C   0  0  0  0  0  0  0  0  0  0  0  0
   58.7980   34.3880   45.9510 C   0  0  0  0  0  0  0  0  0  0  0  0
   58.5598   35.0595   45.1129 H   0  0  0  0  0  0  0  0  0  0  0  0
   59.2760   34.9200   47.1510 C   0  0  0  0  0  0  0  0  0  0  0  0
   59.4126   36.0065   47.2547 H   0  0  0  0  0  0  0  0  0  0  0  0
   59.5800   34.0750   48.2170 C   0  0  0  0  0  0  0  0  0  0  0  0
   59.9389   34.4977   49.1670 H   0  0  0  0  0  0  0  0  0  0  0  0
   59.4300   32.6920   48.0820 C   0  0  0  0  0  0  0  0  0  0  0  0
   59.6643   32.0327   48.9308 H   0  0  0  0  0  0  0  0  0  0  0  0
   58.9820   32.1360   46.8700 C   0  0  0  0  0  0  0  0  0  0  0  0
   58.8660   30.6330   46.7640 C   0  0  0  0  0  0  0  0  0  0  0  0
   57.9997   30.6407   46.0862 H   0  0  0  0  0  0  0  0  0  0  0  0
   60.1800   29.8610   46.8230 C   0  0  0  0  0  0  0  0  0  0  0  0
   60.3031   28.9405   46.2335 H   0  0  0  0  0  0  0  0  0  0  0  0
   61.2368   30.1134   46.6517 H   0  0  0  0  0  0  0  0  0  0  0  0
   59.2600   29.8710   48.0270 C   0  0  0  0  0  0  0  0  0  0  0  0
   58.7157   28.9580   48.3103 H   0  0  0  0  0  0  0  0  0  0  0  0
   59.3735   30.1337   49.0891 H   0  0  0  0  0  0  0  0  0  0  0  0
   57.8740   28.1120   44.9980 C   0  0  0  0  0  0  0  0  0  0  0  0
   58.3746   28.9686   44.5231 H   0  0  0  0  0  0  0  0  0  0  0  0
   58.6020   26.9670   45.3320 C   0  0  0  0  0  0  0  0  0  0  0  0
   59.6807   26.9199   45.1218 H   0  0  0  0  0  0  0  0  0  0  0  0
   57.9600   25.8840   45.9320 C   0  0  0  0  0  0  0  0  0  0  0  0
   58.5253   24.9778   46.1950 H   0  0  0  0  0  0  0  0  0  0  0  0
  1  2  1  0
  2  3  1  0
  3  4  1  0
  4  5  2  0
  5  6  1  0
  6  7  1  0
  6  8  1  0
  6  9  1  0
  9 10  1  0
  9 11  1  0
  9 12  1  0
 12 13  1  0
 12 14  1  0
 14 15  2  0
 14 16  1  0
 16 17  2  0
 17 18  1  0
 17 19  1  0
 19 20  1  0
 19 21  2  0
 21 22  1  0
 21 23  1  0
 23 24  1  0
 23 25  2  0
 25 26  1  0
 26 27  1  0
 26 28  1  0
 28 29  1  0
 28 30  1  0
 28 31  1  0
 31 32  1  0
 31 33  1  0
  4 34  1  0
 34 35  1  0
 34 36  2  0
 36 37  1  0
 36 38  1  0
 38 39  1  0
 38  2  2  0
 25 16  1  0
 31 26  1  0
M  CHG  1   3  -1
M  END
>  <UniqueID>  (30) 
28

>  <SMILES>  (30) 
O=C(NCC/N=c1\cccc[n-]1)c1ccccc1C1CC1

>  <Energy>  (30) 
308.4072091235232

>  <Genealogy>  (30) 
O=C(NCCN=c1cccc[n-]1)c1ccccc1C1CC1 (protonated)
O=C(NCC/N=c1\cccc[n-]1)c1ccccc1C1CC1 (cis-trans isomerization)
O=C(NCC/N=c1\cccc[n-]1)c1ccccc1C1CC1 (3D coordinates assigned)
O=C(NCC/N=c1\cccc[n-]1)c1ccccc1C1CC1 (nonaromatic ring conformer: 308.4072091235232 kcal/mol)

>  <smiles>  (30) 
O=C(NCCN=c1cccc[nH]1)c1ccccc1C1CC1

>  <score_type>  (30) 
oracle

>  <origin>  (30) 
adg

>  <m_score__min__energy>  (30) 
-9.0500000000000007

>  <m_primary>  (30) 
energy

$$$$
30:0
     RDKit          3D

 48 51  0  0  0  0  0  0  0  0999 V2000
   67.7250   29.0990   51.6560 C   0  0  0  0  0  0  0  0  0  0  0  0
   68.3380   29.9710   52.7450 C   0  0  0  0  0  0  0  0  0  0  0  0
   67.8850   31.3190   52.6300 O   0  0  0  0  0  0  0  0  0  0  0  0
   66.8250   31.7600   51.8200 C   0  0  0  0  0  0  0  0  0  0  0  0
   65.4730   31.6100   52.1830 C   0  0  0  0  0  0  0  0  0  0  0  0
   64.4590   32.0660   51.3350 C   0  0  0  0  0  0  0  0  0  0  0  0
   64.7730   32.6830   50.1110 C   0  0  0  0  0  0  0  0  0  0  0  0
   63.7240   33.1500   49.2340 N   0  0  0  0  0  0  0  0  0  0  0  0
   62.6550   34.0180   49.7560 C   0  0  0  0  0  0  0  0  0  0  0  0
   61.3230   33.7320   49.0470 C   0  0  0  0  0  0  0  0  0  0  0  0
   61.4960   33.5790   47.5960 N   0  0  0  0  0  0  0  0  0  0  0  0
   60.3580   33.2510   46.7780 C   0  0  0  0  0  0  0  0  0  0  0  0
   60.0870   31.9610   46.4350 N   0  0  0  0  0  0  0  0  0  0  0  0
   59.0300   31.5430   45.6550 C   0  0  0  0  0  0  0  0  0  0  0  0
   58.9170   30.1610   45.3960 C   0  0  0  0  0  0  0  0  0  0  0  0
   57.8780   29.6540   44.6160 C   0  0  0  0  0  0  0  0  0  0  0  0
   56.9270   30.5110   44.0760 C   0  0  0  0  0  0  0  0  0  0  0  0
   57.0040   31.8820   44.3110 C   0  0  0  0  0  0  0  0  0  0  0  0
   58.0420   32.4290   45.0960 C   0  0  0  0  0  0  0  0  0  0  0  0
   58.0710   33.8200   45.3120 C   0  0  0  0  0  0  0  0  0  0  0  0
   57.1990   34.5910   44.8280 O   0  0  0  0  0  0  0  0  0  0  0  0
   59.3110   34.4570   46.2430 S   0  0  0  0  0  0  0  0  0  0  0  0
   62.8260   33.7420   47.0000 C   0  0  0  0  0  0  0  0  0  0  0  0
   63.8360   32.9060   47.7850 C   0  0  0  0  0  0  0  0  0  0  0  0
   66.1250   32.8240   49.7500 C   0  0  0  0  0  0  0  0  0  0  0  0
   67.1370   32.3650   50.5980 C   0  0  0  0  0  0  0  0  0  0  0  0
   67.1513   28.2829   52.1194 H   0  0  0  0  0  0  0  0  0  0  0  0
   67.0559   29.7089   51.0312 H   0  0  0  0  0  0  0  0  0  0  0  0
   68.5254   28.6758   51.0312 H   0  0  0  0  0  0  0  0  0  0  0  0
   68.0475   29.5757   53.7296 H   0  0  0  0  0  0  0  0  0  0  0  0
   69.4323   29.9563   52.6340 H   0  0  0  0  0  0  0  0  0  0  0  0
   65.2130   31.1316   53.1388 H   0  0  0  0  0  0  0  0  0  0  0  0
   63.4061   31.9410   51.6280 H   0  0  0  0  0  0  0  0  0  0  0  0
   62.5360   33.8345   50.8340 H   0  0  0  0  0  0  0  0  0  0  0  0
   62.9326   35.0666   49.5736 H   0  0  0  0  0  0  0  0  0  0  0  0
   60.8958   32.8036   49.4540 H   0  0  0  0  0  0  0  0  0  0  0  0
   60.6534   34.5870   49.2220 H   0  0  0  0  0  0  0  0  0  0  0  0
   60.7270   31.2290   46.8210 H   0  0  0  0  0  0  0  0  0  0  0  0
   59.6623   29.4703   45.8171 H   0  0  0  0  0  0  0  0  0  0  0  0
   57.8112   28.5723   44.4277 H   0  0  0  0  0  0  0  0  0  0  0  0
   56.1103   30.1055   43.4607 H   0  0  0  0  0  0  0  0  0  0  0  0
   56.2439   32.5489   43.8780 H   0  0  0  0  0  0  0  0  0  0  0  0
   62.8037   33.4043   45.9534 H   0  0  0  0  0  0  0  0  0  0  0  0
   63.1183   34.8019   47.0345 H   0  0  0  0  0  0  0  0  0  0  0  0
   63.6503   31.8402   47.5860 H   0  0  0  0  0  0  0  0  0  0  0  0
   64.8480   33.1923   47.4625 H   0  0  0  0  0  0  0  0  0  0  0  0
   66.3880   33.2990   48.7933 H   0  0  0  0  0  0  0  0  0  0  0  0
   68.1899   32.4808   50.3012 H   0  0  0  0  0  0  0  0  0  0  0  0
  1  2  1  0
  2  3  1  0
  3  4  1  0
  4  5  2  0
  5  6  1  0
  6  7  2  0
  7  8  1  0
  8  9  1  0
  9 10  1  0
 10 11  1  0
 11 12  1  0
 12 13  2  0
 13 14  1  0
 14 15  2  0
 15 16  1  0
 16 17  2  0
 17 18  1  0
 18 19  2  0
 19 20  1  0
 20 21  2  0
 20 22  1  0
 11 23  1  0
 23 24  1  0
  7 25  1  0
 25 26  2  0
 26  4  1  0
 24  8  1  0
 22 12  1  0
 19 14  1  0
  1 27  1  0
  1 28  1  0
  1 29  1  0
  2 30  1  0
  2 31  1  0
  5 32  1  0
  6 33  1  0
  9 34  1  0
  9 35  1  0
 10 36  1  0
 10 37  1  0
 13 38  1  0
 15 39  1  0
 16 40  1  0
 17 41  1  0
 18 42  1  0
 23 43  1  0
 23 44  1  0
 24 45  1  0
 24 46  1  0
 25 47  1  0
 26 48  1  0
M  CHG  1  13   1
M  END
>  <UniqueID>  (31) 
29

>  <SMILES>  (31) 
CCOc1ccc(N2CCN(c3[nH+]c4ccccc4c(=O)s3)CC2)cc1

>  <Energy>  (31) 
65.90339510944969

>  <Genealogy>  (31) 
CCOc1ccc(N2CCN(c3[nH+]c4ccccc4c(=O)s3)CC2)cc1 (protonated)
CCOc1ccc(N2CCN(c3[nH+]c4ccccc4c(=O)s3)CC2)cc1 (3D coordinates assigned)
CCOc1ccc(N2CCN(c3[nH+]c4ccccc4c(=O)s3)CC2)cc1 (nonaromatic ring conformer: 65.90339510944969 kcal/mol)

>  <smiles>  (31) 
CCOc1ccc(N2CCN(c3nc4ccccc4c(=O)s3)CC2)cc1

>  <score_type>  (31) 
oracle

>  <origin>  (31) 
adg

>  <m_score__min__energy>  (31) 
-6.0800000000000001

>  <m_primary>  (31) 
energy

$$$$
31:0
     RDKit          3D

 63 66  0  0  0  0  0  0  0  0999 V2000
   56.4590   23.8160   44.0570 C   0  0  0  0  0  0  0  0  0  0  0  0
   57.4100   24.7870   43.3640 C   0  0  0  0  0  0  0  0  0  0  0  0
   57.6820   25.9820   44.2390 C   0  0  0  0  0  0  0  0  0  0  0  0
   58.4010   27.0790   43.7380 C   0  0  0  0  0  0  0  0  0  0  0  0
   58.6850   28.1710   44.5630 C   0  0  0  0  0  0  0  0  0  0  0  0
   58.2630   28.1780   45.9020 C   0  0  0  0  0  0  0  0  0  0  0  0
   58.5740   29.2970   46.7580 N   0  0  0  0  0  0  0  0  0  0  0  0
   59.3130   29.1090   47.9070 C   0  0  0  0  0  0  0  0  0  0  0  0
   59.7110   27.9570   48.2320 O   0  0  0  0  0  0  0  0  0  0  0  0
   59.6140   30.1600   48.7130 N   0  0  0  0  0  0  0  0  0  0  0  0
   59.1590   31.3860   48.3790 C   0  0  0  0  0  0  0  0  0  0  0  0
   59.3660   32.5790   49.0410 C   0  0  0  0  0  0  0  0  0  0  0  0
   60.1380   32.8290   50.2700 C   0  0  0  0  0  0  0  0  0  0  0  0
   59.5500   33.3040   51.2760 O   0  0  0  0  0  0  0  0  0  0  0  0
   61.5420   32.5610   50.3480 N   0  0  0  0  0  0  0  0  0  0  0  0
   62.4730   32.7500   49.2360 C   0  0  0  0  0  0  0  0  0  0  0  0
   62.4860   31.4910   48.3590 C   0  0  0  0  0  0  0  0  0  0  0  0
   63.5120   31.6100   47.2130 C   0  0  0  0  0  0  0  0  0  0  0  0
   63.7420   33.0610   46.7410 C   0  0  0  0  0  0  0  0  0  0  0  0
   62.4920   33.9250   46.9330 C   0  0  0  0  0  0  0  0  0  0  0  0
   62.0650   33.9980   48.4150 C   0  0  0  0  0  0  0  0  0  0  0  0
   58.7490   33.5220   48.2320 C   0  0  0  0  0  0  0  0  0  0  0  0
   58.1920   32.9020   47.1630 N   0  0  0  0  0  0  0  0  0  0  0  0
   57.4040   33.6010   46.1380 C   0  0  0  0  0  0  0  0  0  0  0  0
   58.1310   33.6030   44.7830 C   0  0  0  0  0  0  0  0  0  0  0  0
   59.5680   34.1560   44.8470 C   0  0  0  0  0  0  0  0  0  0  0  0
   59.6320   35.6120   45.3240 C   0  0  0  0  0  0  0  0  0  0  0  0
   59.7230   35.6730   46.7190 O   0  0  0  0  0  0  0  0  0  0  0  0
   58.4510   31.5960   47.2630 N   0  0  0  0  0  0  0  0  0  0  0  0
   58.1490   30.5610   46.4270 C   0  0  0  0  0  0  0  0  0  0  0  0
   57.5070   30.7530   45.3600 O   0  0  0  0  0  0  0  0  0  0  0  0
   57.5540   27.0760   46.4030 C   0  0  0  0  0  0  0  0  0  0  0  0
   57.2680   25.9840   45.5790 C   0  0  0  0  0  0  0  0  0  0  0  0
   56.5601   23.9192   45.1475 H   0  0  0  0  0  0  0  0  0  0  0  0
   55.4240   24.0428   43.7616 H   0  0  0  0  0  0  0  0  0  0  0  0
   56.7073   22.7859   43.7616 H   0  0  0  0  0  0  0  0  0  0  0  0
   58.3586   24.2727   43.1503 H   0  0  0  0  0  0  0  0  0  0  0  0
   56.9437   25.1320   42.4294 H   0  0  0  0  0  0  0  0  0  0  0  0
   58.7421   27.0791   42.6922 H   0  0  0  0  0  0  0  0  0  0  0  0
   59.2424   29.0298   44.1608 H   0  0  0  0  0  0  0  0  0  0  0  0
   63.4888   32.9139   49.6250 H   0  0  0  0  0  0  0  0  0  0  0  0
   62.7465   30.6235   48.9831 H   0  0  0  0  0  0  0  0  0  0  0  0
   61.4866   31.3691   47.9159 H   0  0  0  0  0  0  0  0  0  0  0  0
   64.4719   31.2008   47.5612 H   0  0  0  0  0  0  0  0  0  0  0  0
   63.1065   31.0515   46.3564 H   0  0  0  0  0  0  0  0  0  0  0  0
   64.5691   33.4973   47.3203 H   0  0  0  0  0  0  0  0  0  0  0  0
   63.9810   33.0382   45.6675 H   0  0  0  0  0  0  0  0  0  0  0  0
   62.7044   34.9427   46.5735 H   0  0  0  0  0  0  0  0  0  0  0  0
   61.6700   33.4669   46.3634 H   0  0  0  0  0  0  0  0  0  0  0  0
   62.5343   34.8829   48.8697 H   0  0  0  0  0  0  0  0  0  0  0  0
   60.9666   34.0534   48.4336 H   0  0  0  0  0  0  0  0  0  0  0  0
   58.7168   34.6040   48.4275 H   0  0  0  0  0  0  0  0  0  0  0  0
   56.4341   33.0948   46.0240 H   0  0  0  0  0  0  0  0  0  0  0  0
   57.2621   34.6436   46.4587 H   0  0  0  0  0  0  0  0  0  0  0  0
   58.1741   32.5686   44.4114 H   0  0  0  0  0  0  0  0  0  0  0  0
   57.5622   34.2676   44.1161 H   0  0  0  0  0  0  0  0  0  0  0  0
   60.1517   33.5341   45.5417 H   0  0  0  0  0  0  0  0  0  0  0  0
   59.9761   34.1273   43.8259 H   0  0  0  0  0  0  0  0  0  0  0  0
   60.5150   36.0977   44.8832 H   0  0  0  0  0  0  0  0  0  0  0  0
   58.7138   36.1281   45.0071 H   0  0  0  0  0  0  0  0  0  0  0  0
   59.4070   36.5780   46.9770 H   0  0  0  0  0  0  0  0  0  0  0  0
   57.2210   27.0714   47.4514 H   0  0  0  0  0  0  0  0  0  0  0  0
   56.7160   25.1226   45.9831 H   0  0  0  0  0  0  0  0  0  0  0  0
  1  2  1  0
  2  3  1  0
  3  4  2  0
  4  5  1  0
  5  6  2  0
  6  7  1  0
  7  8  1  0
  8  9  2  0
  8 10  1  0
 10 11  2  0
 11 12  1  0
 12 13  1  0
 13 14  2  0
 13 15  1  0
 15 16  1  0
 16 17  1  0
 17 18  1  0
 18 19  1  0
 19 20  1  0
 20 21  1  0
 12 22  2  0
 22 23  1  0
 23 24  1  0
 24 25  1  0
 25 26  1  0
 26 27  1  0
 27 28  1  0
 23 29  1  0
 29 30  1  0
 30 31  2  0
  6 32  1  0
 32 33  2  0
 33  3  1  0
 30  7  1  0
 29 11  1  0
 21 16  1  0
  1 34  1  0
  1 35  1  0
  1 36  1  0
  2 37  1  0
  2 38  1  0
  4 39  1  0
  5 40  1  0
 16 41  1  0
 17 42  1  0
 17 43  1  0
 18 44  1  0
 18 45  1  0
 19 46  1  0
 19 47  1  0
 20 48  1  0
 20 49  1  0
 21 50  1  0
 21 51  1  0
 22 52  1  0
 24 53  1  0
 24 54  1  0
 25 55  1  0
 25 56  1  0
 26 57  1  0
 26 58  1  0
 27 59  1  0
 27 60  1  0
 28 61  1  0
 32 62  1  0
 33 63  1  0
M  CHG  1  15  -1
M  END
>  <UniqueID>  (32) 
30

>  <SMILES>  (32) 
CCc1ccc(-n2c(=O)nc3c(C(=O)[N-]C4CCCCC4)cn(CCCCO)n3c2=O)cc1

>  <Energy>  (32) 
115.04507194444386

>  <Genealogy>  (32) 
CCc1ccc(-n2c(=O)nc3c(C(=O)[N-]C4CCCCC4)cn(CCCCO)n3c2=O)cc1 (protonated)
CCc1ccc(-n2c(=O)nc3c(C(=O)[N-]C4CCCCC4)cn(CCCCO)n3c2=O)cc1 (3D coordinates assigned)
CCc1ccc(-n2c(=O)nc3c(C(=O)[N-]C4CCCCC4)cn(CCCCO)n3c2=O)cc1 (nonaromatic ring conformer: 115.04507194444386 kcal/mol)

>  <smiles>  (32) 
CCc1ccc(-n2c(=O)nc3c(C(=O)NC4CCCCC4)cn(CCCCO)n3c2=O)cc1

>  <score_type>  (32) 
oracle

>  <origin>  (32) 
adg

>  <m_score__min__energy>  (32) 
-10.08

>  <m_primary>  (32) 
energy

$$$$
32:0
     RDKit          3D

 39 41  0  0  0  0  0  0  0  0999 V2000
   57.7680   25.7620   43.2240 C   0  0  0  0  0  0  0  0  0  0  0  0
   58.1300   27.2120   42.9250 C   0  0  0  0  0  0  0  0  0  0  0  0
   57.8740   28.0710   44.0910 N   0  0  0  0  0  0  0  0  0  0  0  0
   56.7310   28.9950   44.0850 C   0  0  0  0  0  0  0  0  0  0  0  0
   57.1960   30.4180   44.1130 C   0  0  0  0  0  0  0  0  0  0  0  0
   57.3790   31.2320   43.0180 C   0  0  0  0  0  0  0  0  0  0  0  0
   57.8750   32.3640   43.4530 O   0  0  0  0  0  0  0  0  0  0  0  0
   58.0040   32.2540   44.7570 C   0  0  0  0  0  0  0  0  0  0  0  0
   58.5460   33.3160   45.6100 C   0  0  0  0  0  0  0  0  0  0  0  0
   59.2480   34.4340   45.1750 C   0  0  0  0  0  0  0  0  0  0  0  0
   59.6350   35.2810   46.2200 C   0  0  0  0  0  0  0  0  0  0  0  0
   59.2390   34.8340   47.4760 C   0  0  0  0  0  0  0  0  0  0  0  0
   58.4070   33.3850   47.2840 S   0  0  0  0  0  0  0  0  0  0  0  0
   57.5990   31.0560   45.2270 N   0  0  0  0  0  0  0  0  0  0  0  0
   58.4500   27.6970   45.3560 C   0  0  0  0  0  0  0  0  0  0  0  0
   57.6900   26.9160   46.2420 C   0  0  0  0  0  0  0  0  0  0  0  0
   58.2070   26.5460   47.4850 C   0  0  0  0  0  0  0  0  0  0  0  0
   59.4870   26.9530   47.8570 C   0  0  0  0  0  0  0  0  0  0  0  0
   60.2560   27.7300   46.9880 C   0  0  0  0  0  0  0  0  0  0  0  0
   59.7520   28.1120   45.7350 C   0  0  0  0  0  0  0  0  0  0  0  0
   60.6290   28.9510   44.8450 C   0  0  0  0  0  0  0  0  0  0  0  0
   57.7302   25.6106   44.3129 H   0  0  0  0  0  0  0  0  0  0  0  0
   56.7849   25.5320   42.7875 H   0  0  0  0  0  0  0  0  0  0  0  0
   58.5277   25.0969   42.7875 H   0  0  0  0  0  0  0  0  0  0  0  0
   59.1968   27.2697   42.6632 H   0  0  0  0  0  0  0  0  0  0  0  0
   57.5080   27.5628   42.0883 H   0  0  0  0  0  0  0  0  0  0  0  0
   56.1371   28.8277   43.1743 H   0  0  0  0  0  0  0  0  0  0  0  0
   56.1210   28.8063   44.9807 H   0  0  0  0  0  0  0  0  0  0  0  0
   57.1511   30.9790   41.9720 H   0  0  0  0  0  0  0  0  0  0  0  0
   59.4761   34.6328   44.1175 H   0  0  0  0  0  0  0  0  0  0  0  0
   60.1990   36.2122   46.0627 H   0  0  0  0  0  0  0  0  0  0  0  0
   59.4363   35.3415   48.4318 H   0  0  0  0  0  0  0  0  0  0  0  0
   56.6787   26.5930   45.9541 H   0  0  0  0  0  0  0  0  0  0  0  0
   57.6039   25.9331   48.1710 H   0  0  0  0  0  0  0  0  0  0  0  0
   59.8924   26.6616   48.8372 H   0  0  0  0  0  0  0  0  0  0  0  0
   61.2661   28.0456   47.2883 H   0  0  0  0  0  0  0  0  0  0  0  0
   61.2858   29.5793   45.4645 H   0  0  0  0  0  0  0  0  0  0  0  0
   61.2420   28.2944   44.2100 H   0  0  0  0  0  0  0  0  0  0  0  0
   60.0002   29.5924   44.2100 H   0  0  0  0  0  0  0  0  0  0  0  0
  1  2  1  0
  2  3  1  0
  3  4  1  0
  4  5  1  0
  5  6  2  0
  6  7  1  0
  7  8  1  0
  8  9  1  0
  9 10  2  0
 10 11  1  0
 11 12  2  0
 12 13  1  0
  8 14  2  0
  3 15  1  0
 15 16  2  0
 16 17  1  0
 17 18  2  0
 18 19  1  0
 19 20  2  0
 20 21  1  0
 14  5  1  0
 20 15  1  0
 13  9  1  0
  1 22  1  0
  1 23  1  0
  1 24  1  0
  2 25  1  0
  2 26  1  0
  4 27  1  0
  4 28  1  0
  6 29  1  0
 10 30  1  0
 11 31  1  0
 12 32  1  0
 16 33  1  0
 17 34  1  0
 18 35  1  0
 19 36  1  0
 21 37  1  0
 21 38  1  0
 21 39  1  0
M  END
>  <UniqueID>  (33) 
31

>  <SMILES>  (33) 
CCN(Cc1coc(-c2cccs2)n1)c1ccccc1C

>  <Energy>  (33) 
95.50865290865826

>  <Genealogy>  (33) 
CCN(Cc1coc(-c2cccs2)n1)c1ccccc1C (3D coordinates assigned)
CCN(Cc1coc(-c2cccs2)n1)c1ccccc1C (optimized conformer: 95.50865290865826 kcal/mol)

>  <smiles>  (33) 
CCN(Cc1coc(-c2cccs2)n1)c1ccccc1C

>  <score_type>  (33) 
oracle

>  <origin>  (33) 
adg

>  <m_score__min__energy>  (33) 
-6.7400000000000002

>  <m_primary>  (33) 
energy

$$$$
33:0
     RDKit          3D

 34 36  0  0  0  0  0  0  0  0999 V2000
   57.0150   30.7150   44.4980 C   0  0  0  0  0  0  0  0  0  0  0  0
   57.8480   31.9260   44.3430 N   0  0  0  0  0  0  0  0  0  0  0  0
   57.7910   32.3570   42.9310 C   0  0  0  0  0  0  0  0  0  0  0  0
   57.4140   33.0240   45.2620 C   0  0  2  0  0  0  0  0  0  0  0  0
   58.1110   34.3750   44.9090 C   0  0  0  0  0  0  0  0  0  0  0  0
   59.6520   34.2700   44.9740 C   0  0  0  0  0  0  0  0  0  0  0  0
   60.0690   33.5200   46.2050 C   0  0  0  0  0  0  0  0  0  0  0  0
   59.2170   32.7490   46.9770 C   0  0  0  0  0  0  0  0  0  0  0  0
   59.8820   32.1440   47.9870 N   0  0  0  0  0  0  0  0  0  0  0  0
   61.1700   32.5060   47.8280 C   0  0  0  0  0  0  0  0  0  0  0  0
   62.2580   32.1220   48.6100 C   0  0  0  0  0  0  0  0  0  0  0  0
   63.5280   32.6120   48.2560 C   0  0  0  0  0  0  0  0  0  0  0  0
   63.6830   33.4660   47.1410 C   0  0  0  0  0  0  0  0  0  0  0  0
   62.5690   33.8400   46.3680 C   0  0  0  0  0  0  0  0  0  0  0  0
   61.3230   33.3420   46.7450 C   0  0  0  0  0  0  0  0  0  0  0  0
   57.7360   32.7130   46.7560 C   0  0  0  0  0  0  0  0  0  0  0  0
   56.8700   30.5042   45.5678 H   0  0  0  0  0  0  0  0  0  0  0  0
   56.0375   30.8788   44.0208 H   0  0  0  0  0  0  0  0  0  0  0  0
   57.5175   29.8608   44.0208 H   0  0  0  0  0  0  0  0  0  0  0  0
   57.6469   33.4466   42.8858 H   0  0  0  0  0  0  0  0  0  0  0  0
   58.7322   32.0904   42.4280 H   0  0  0  0  0  0  0  0  0  0  0  0
   56.9514   31.8549   42.4280 H   0  0  0  0  0  0  0  0  0  0  0  0
   56.3252   33.1021   45.1264 H   0  0  0  0  0  0  0  0  0  0  0  0
   57.8184   34.6693   43.8903 H   0  0  0  0  0  0  0  0  0  0  0  0
   57.7915   35.1239   45.6487 H   0  0  0  0  0  0  0  0  0  0  0  0
   60.0178   33.7383   44.0832 H   0  0  0  0  0  0  0  0  0  0  0  0
   60.0796   35.2829   45.0088 H   0  0  0  0  0  0  0  0  0  0  0  0
   59.4830   31.5260   48.7280 H   0  0  0  0  0  0  0  0  0  0  0  0
   62.1276   31.4569   49.4764 H   0  0  0  0  0  0  0  0  0  0  0  0
   64.4078   32.3280   48.8521 H   0  0  0  0  0  0  0  0  0  0  0  0
   64.6824   33.8412   46.8755 H   0  0  0  0  0  0  0  0  0  0  0  0
   62.6774   34.5023   45.4965 H   0  0  0  0  0  0  0  0  0  0  0  0
   57.3534   31.7137   47.0111 H   0  0  0  0  0  0  0  0  0  0  0  0
   57.2563   33.4693   47.3947 H   0  0  0  0  0  0  0  0  0  0  0  0
  1  2  1  0
  2  3  1  0
  2  4  1  0
  4  5  1  0
  5  6  1  0
  6  7  1  0
  7  8  2  0
  8  9  1  0
  9 10  1  0
 10 11  2  0
 11 12  1  0
 12 13  2  0
 13 14  1  0
 14 15  2  0
  8 16  1  0
 16  4  1  0
 15  7  1  0
 15 10  1  0
  1 17  1  0
  1 18  1  0
  1 19  1  0
  3 20  1  0
  3 21  1  0
  3 22  1  0
  4 23  1  1
  5 24  1  0
  5 25  1  0
  6 26  1  0
  6 27  1  0
  9 28  1  0
 11 29  1  0
 12 30  1  0
 13 31  1  0
 14 32  1  0
 16 33  1  0
 16 34  1  0
M  END
>  <UniqueID>  (34) 
32

>  <SMILES>  (34) 
CN(C)[C@@H]1CCc2c([nH]c3ccccc23)C1

>  <Energy>  (34) 
75.77502691359592

>  <Genealogy>  (34) 
CN(C)[C@@H]1CCc2c([nH]c3ccccc23)C1 (chirality)
CN(C)[C@@H]1CCc2c([nH]c3ccccc23)C1 (3D coordinates assigned)
CN(C)[C@@H]1CCc2c([nH]c3ccccc23)C1 (nonaromatic ring conformer: 75.77502691359592 kcal/mol)

>  <smiles>  (34) 
CN(C)C1CCc2c([nH]c3ccccc23)C1

>  <score_type>  (34) 
oracle

>  <origin>  (34) 
adg

>  <m_score__min__energy>  (34) 
-6.46

>  <m_primary>  (34) 
energy

$$$$
34:0
     RDKit          3D

 47 49  0  0  0  0  0  0  0  0999 V2000
   56.6240   30.7620   44.0240 C   0  0  0  0  0  0  0  0  0  0  0  0
   56.9790   30.1350   45.2520 O   0  0  0  0  0  0  0  0  0  0  0  0
   57.7030   28.9350   45.3530 C   0  0  0  0  0  0  0  0  0  0  0  0
   57.6400   27.9430   44.3540 C   0  0  0  0  0  0  0  0  0  0  0  0
   58.3780   26.7640   44.4790 C   0  0  0  0  0  0  0  0  0  0  0  0
   59.1940   26.5630   45.5920 C   0  0  0  0  0  0  0  0  0  0  0  0
   59.2660   27.5370   46.5900 C   0  0  0  0  0  0  0  0  0  0  0  0
   58.5100   28.7180   46.4900 C   0  0  0  0  0  0  0  0  0  0  0  0
   58.5480   29.7330   47.6050 C   0  0  0  0  0  0  0  0  0  0  0  0
   59.0290   31.0300   47.0910 N   0  0  0  0  0  0  0  0  0  0  0  0
   60.3490   30.9360   46.4500 C   0  0  0  0  0  0  0  0  0  0  0  0
   61.3230   31.9200   47.0540 C   0  0  0  0  0  0  0  0  0  0  0  0
   62.5700   31.4590   47.5120 C   0  0  0  0  0  0  0  0  0  0  0  0
   63.4650   32.3310   48.1340 C   0  0  0  0  0  0  0  0  0  0  0  0
   63.1290   33.6730   48.3050 C   0  0  0  0  0  0  0  0  0  0  0  0
   61.9040   34.1520   47.8400 C   0  0  0  0  0  0  0  0  0  0  0  0
   60.9970   33.2890   47.2070 C   0  0  0  0  0  0  0  0  0  0  0  0
   59.7670   33.8290   46.6980 N   0  0  0  0  0  0  0  0  0  0  0  0
   58.6060   33.9690   47.5820 C   0  0  0  0  0  0  0  0  0  0  0  0
   57.3140   33.4630   46.8970 C   0  0  0  0  0  0  0  0  0  0  0  0
   57.4790   33.1400   45.5260 O   0  0  0  0  0  0  0  0  0  0  0  0
   58.1740   34.1750   44.8630 C   0  0  0  0  0  0  0  0  0  0  0  0
   59.6460   34.1320   45.2700 C   0  0  0  0  0  0  0  0  0  0  0  0
   56.0919   31.7019   44.2326 H   0  0  0  0  0  0  0  0  0  0  0  0
   57.5345   30.9768   43.4453 H   0  0  0  0  0  0  0  0  0  0  0  0
   55.9714   30.0918   43.4453 H   0  0  0  0  0  0  0  0  0  0  0  0
   57.0049   28.0985   43.4694 H   0  0  0  0  0  0  0  0  0  0  0  0
   58.3155   25.9921   43.6978 H   0  0  0  0  0  0  0  0  0  0  0  0
   59.7809   25.6372   45.6837 H   0  0  0  0  0  0  0  0  0  0  0  0
   59.9191   27.3790   47.4609 H   0  0  0  0  0  0  0  0  0  0  0  0
   57.5364   29.8577   48.0187 H   0  0  0  0  0  0  0  0  0  0  0  0
   59.2318   29.3802   48.3911 H   0  0  0  0  0  0  0  0  0  0  0  0
   58.3540   31.3550   46.3590 H   0  0  0  0  0  0  0  0  0  0  0  0
   60.7404   29.9166   46.5831 H   0  0  0  0  0  0  0  0  0  0  0  0
   60.2341   31.1720   45.3818 H   0  0  0  0  0  0  0  0  0  0  0  0
   62.8426   30.4017   47.3789 H   0  0  0  0  0  0  0  0  0  0  0  0
   64.4370   31.9586   48.4898 H   0  0  0  0  0  0  0  0  0  0  0  0
   63.8307   34.3552   48.8072 H   0  0  0  0  0  0  0  0  0  0  0  0
   61.6475   35.2137   47.9706 H   0  0  0  0  0  0  0  0  0  0  0  0
   58.7795   33.3835   48.4969 H   0  0  0  0  0  0  0  0  0  0  0  0
   58.4779   35.0351   47.8209 H   0  0  0  0  0  0  0  0  0  0  0  0
   56.9716   32.5616   47.4264 H   0  0  0  0  0  0  0  0  0  0  0  0
   56.5840   34.2845   46.9458 H   0  0  0  0  0  0  0  0  0  0  0  0
   58.0889   34.0373   43.7750 H   0  0  0  0  0  0  0  0  0  0  0  0
   57.7418   35.1476   45.1408 H   0  0  0  0  0  0  0  0  0  0  0  0
   60.1613   33.3534   44.6884 H   0  0  0  0  0  0  0  0  0  0  0  0
   60.1023   35.1129   45.0711 H   0  0  0  0  0  0  0  0  0  0  0  0
  1  2  1  0
  2  3  1  0
  3  4  2  0
  4  5  1  0
  5  6  2  0
  6  7  1  0
  7  8  2  0
  8  9  1  0
  9 10  1  0
 10 11  1  0
 11 12  1  0
 12 13  2  0
 13 14  1  0
 14 15  2  0
 15 16  1  0
 16 17  2  0
 17 18  1  0
 18 19  1  0
 19 20  1  0
 20 21  1  0
 21 22  1  0
 22 23  1  0
  8  3  1  0
 17 12  1  0
 23 18  1  0
  1 24  1  0
  1 25  1  0
  1 26  1  0
  4 27  1  0
  5 28  1  0
  6 29  1  0
  7 30  1  0
  9 31  1  0
  9 32  1  0
 10 33  1  0
 11 34  1  0
 11 35  1  0
 13 36  1  0
 14 37  1  0
 15 38  1  0
 16 39  1  0
 19 40  1  0
 19 41  1  0
 20 42  1  0
 20 43  1  0
 22 44  1  0
 22 45  1  0
 23 46  1  0
 23 47  1  0
M  END
>  <UniqueID>  (35) 
33

>  <SMILES>  (35) 
COc1ccccc1CNCc1ccccc1N1CCOCC1

>  <Energy>  (35) 
56.76430391102047

>  <Genealogy>  (35) 
COc1ccccc1CNCc1ccccc1N1CCOCC1 (3D coordinates assigned)
COc1ccccc1CNCc1ccccc1N1CCOCC1 (nonaromatic ring conformer: 56.76430391102047 kcal/mol)

>  <smiles>  (35) 
COc1ccccc1CNCc1ccccc1N1CCOCC1

>  <score_type>  (35) 
oracle

>  <origin>  (35) 
adg

>  <m_score__min__energy>  (35) 
-7.5199999999999996

>  <m_primary>  (35) 
energy

$$$$
35:0
     RDKit          3D

 25 26  0  0  0  0  0  0  0  0999 V2000
   57.7610   31.9700   42.4710 C   0  0  0  0  0  0  0  0  0  0  0  0
   57.3890   31.0820   43.6590 C   0  0  1  0  0  0  0  0  0  0  0  0
   55.9850   29.7680   43.3590 Br  0  0  0  0  0  0  0  0  0  0  0  0
   58.5300   30.7430   44.6240 C   0  0  2  0  0  0  0  0  0  0  0  0
   58.4850   29.0040   45.4960 Br  0  0  0  0  0  0  0  0  0  0  0  0
   57.3970   31.6670   45.0750 C   0  0  1  0  0  0  0  0  0  0  0  0
   57.9040   33.3700   45.3320 S   0  0  0  0  0  0  0  0  0  0  0  0
   56.7220   34.5650   45.2390 O   0  0  0  0  0  0  0  0  0  0  0  0
   59.2110   33.6930   46.4590 C   0  0  0  0  0  0  0  0  0  0  0  0
   60.5490   33.5910   46.0520 C   0  0  0  0  0  0  0  0  0  0  0  0
   61.5790   33.8480   46.9620 C   0  0  0  0  0  0  0  0  0  0  0  0
   61.2770   34.2020   48.2800 C   0  0  0  0  0  0  0  0  0  0  0  0
   59.9440   34.2920   48.6920 C   0  0  0  0  0  0  0  0  0  0  0  0
   58.9120   34.0350   47.7840 C   0  0  0  0  0  0  0  0  0  0  0  0
   58.1615   32.9261   42.8391 H   0  0  0  0  0  0  0  0  0  0  0  0
   58.5229   31.4643   41.8596 H   0  0  0  0  0  0  0  0  0  0  0  0
   56.8662   32.1584   41.8596 H   0  0  0  0  0  0  0  0  0  0  0  0
   59.6258   30.7928   44.5418 H   0  0  0  0  0  0  0  0  0  0  0  0
   56.6413   31.6946   45.8739 H   0  0  0  0  0  0  0  0  0  0  0  0
   56.1620   34.4380   46.0450 H   0  0  0  0  0  0  0  0  0  0  0  0
   60.7884   33.3086   45.0162 H   0  0  0  0  0  0  0  0  0  0  0  0
   62.6281   33.7715   46.6403 H   0  0  0  0  0  0  0  0  0  0  0  0
   62.0882   34.4098   48.9932 H   0  0  0  0  0  0  0  0  0  0  0  0
   59.7069   34.5651   49.7309 H   0  0  0  0  0  0  0  0  0  0  0  0
   57.8638   34.1015   48.1108 H   0  0  0  0  0  0  0  0  0  0  0  0
  1  2  1  0
  2  3  1  6
  2  4  1  0
  4  5  1  0
  4  6  1  0
  6  7  1  0
  7  8  1  1
  7  9  1  0
  9 10  2  0
 10 11  1  0
 11 12  2  0
 12 13  1  0
 13 14  2  0
  6  2  1  0
 14  9  1  0
  1 15  1  0
  1 16  1  0
  1 17  1  0
  4 18  1  6
  6 19  1  1
  8 20  1  0
 10 21  1  0
 11 22  1  0
 12 23  1  0
 13 24  1  0
 14 25  1  0
M  CHG  1   7   1
M  END
>  <UniqueID>  (36) 
34

>  <SMILES>  (36) 
C[C@]1(Br)C([S+](O)c2ccccc2)[C@H]1Br

>  <Energy>  (36) 
295.7919621986648

>  <Genealogy>  (36) 
CC1(Br)C(Br)C1[S+](O)c1ccccc1 (protonated)
C[C@]1(Br)C([S+](O)c2ccccc2)[C@H]1Br (chirality)
C[C@]1(Br)C([S+](O)c2ccccc2)[C@H]1Br (3D coordinates assigned)
C[C@]1(Br)C([S+](O)c2ccccc2)[C@H]1Br (nonaromatic ring conformer: 295.7919621986648 kcal/mol)

>  <smiles>  (36) 
CC1(Br)C(Br)C1[S+]([O-])c1ccccc1

>  <score_type>  (36) 
oracle

>  <origin>  (36) 
adg

>  <m_score__min__energy>  (36) 
-5.3399999999999999

>  <m_primary>  (36) 
energy

$$$$
36:0
     RDKit          3D

 53 56  0  0  0  0  0  0  0  0999 V2000
   63.4390   33.3820   46.8110 C   0  0  0  0  0  0  0  0  0  0  0  0
   62.1180   33.7180   47.2180 O   0  0  0  0  0  0  0  0  0  0  0  0
   61.6560   33.6760   48.5440 C   0  0  0  0  0  0  0  0  0  0  0  0
   62.5270   33.4580   49.6300 C   0  0  0  0  0  0  0  0  0  0  0  0
   62.0260   33.3930   50.9340 C   0  0  0  0  0  0  0  0  0  0  0  0
   60.6590   33.5410   51.1670 C   0  0  0  0  0  0  0  0  0  0  0  0
   59.7870   33.7610   50.0990 C   0  0  0  0  0  0  0  0  0  0  0  0
   60.2780   33.8400   48.7870 C   0  0  0  0  0  0  0  0  0  0  0  0
   59.3730   34.0690   47.6940 N   0  0  0  0  0  0  0  0  0  0  0  0
   59.5590   35.2220   46.8070 C   0  0  0  0  0  0  0  0  0  0  0  0
   59.3510   34.8310   45.3250 C   0  0  0  0  0  0  0  0  0  0  0  0
   58.7080   33.5030   45.1510 N   0  0  0  0  0  0  0  0  0  0  0  0
   58.2180   33.3380   43.7520 C   0  0  0  0  0  0  0  0  0  0  0  0
   58.3830   31.8990   43.2250 C   0  0  0  0  0  0  0  0  0  0  0  0
   57.3220   30.9660   43.7320 C   0  0  0  0  0  0  0  0  0  0  0  0
   56.2020   30.7250   43.0890 O   0  0  0  0  0  0  0  0  0  0  0  0
   55.5690   29.8160   43.7910 C   0  0  0  0  0  0  0  0  0  0  0  0
   54.4500   29.3400   43.4670 O   0  0  0  0  0  0  0  0  0  0  0  0
   56.2320   29.4520   44.8630 O   0  0  0  0  0  0  0  0  0  0  0  0
   57.3370   30.1620   44.8660 C   0  0  0  0  0  0  0  0  0  0  0  0
   58.3900   30.0260   45.8900 C   0  0  0  0  0  0  0  0  0  0  0  0
   58.1650   29.3180   47.0820 C   0  0  0  0  0  0  0  0  0  0  0  0
   59.1800   29.2090   48.0390 C   0  0  0  0  0  0  0  0  0  0  0  0
   60.4280   29.7940   47.8070 C   0  0  0  0  0  0  0  0  0  0  0  0
   61.4110   29.6850   48.7340 F   0  0  0  0  0  0  0  0  0  0  0  0
   60.6660   30.4800   46.6130 C   0  0  0  0  0  0  0  0  0  0  0  0
   59.6530   30.5900   45.6550 C   0  0  0  0  0  0  0  0  0  0  0  0
   57.6090   33.3400   46.1300 C   0  0  0  0  0  0  0  0  0  0  0  0
   58.1780   33.2320   47.5520 C   0  0  0  0  0  0  0  0  0  0  0  0
   64.0671   33.2223   47.6998 H   0  0  0  0  0  0  0  0  0  0  0  0
   63.4143   32.4615   46.2092 H   0  0  0  0  0  0  0  0  0  0  0  0
   63.8571   34.2024   46.2092 H   0  0  0  0  0  0  0  0  0  0  0  0
   63.6058   33.3384   49.4513 H   0  0  0  0  0  0  0  0  0  0  0  0
   62.7115   33.2248   51.7776 H   0  0  0  0  0  0  0  0  0  0  0  0
   60.2673   33.4843   52.1933 H   0  0  0  0  0  0  0  0  0  0  0  0
   58.7090   33.8730   50.2872 H   0  0  0  0  0  0  0  0  0  0  0  0
   58.8324   36.0025   47.0769 H   0  0  0  0  0  0  0  0  0  0  0  0
   60.5886   35.5899   46.9275 H   0  0  0  0  0  0  0  0  0  0  0  0
   58.7146   35.5918   44.8495 H   0  0  0  0  0  0  0  0  0  0  0  0
   60.3467   34.7736   44.8609 H   0  0  0  0  0  0  0  0  0  0  0  0
   59.4390   32.7760   45.3480 H   0  0  0  0  0  0  0  0  0  0  0  0
   57.1510   33.6034   43.7202 H   0  0  0  0  0  0  0  0  0  0  0  0
   58.8225   33.9960   43.1105 H   0  0  0  0  0  0  0  0  0  0  0  0
   58.3360   31.9201   42.1262 H   0  0  0  0  0  0  0  0  0  0  0  0
   59.3521   31.5243   43.5862 H   0  0  0  0  0  0  0  0  0  0  0  0
   57.1874   28.8476   47.2639 H   0  0  0  0  0  0  0  0  0  0  0  0
   58.9954   28.6621   48.9754 H   0  0  0  0  0  0  0  0  0  0  0  0
   61.6506   30.9337   46.4265 H   0  0  0  0  0  0  0  0  0  0  0  0
   59.8476   31.1217   44.7119 H   0  0  0  0  0  0  0  0  0  0  0  0
   56.9385   34.2101   46.0719 H   0  0  0  0  0  0  0  0  0  0  0  0
   57.0522   32.4208   45.8952 H   0  0  0  0  0  0  0  0  0  0  0  0
   57.4161   33.5642   48.2725 H   0  0  0  0  0  0  0  0  0  0  0  0
   58.4533   32.1847   47.7454 H   0  0  0  0  0  0  0  0  0  0  0  0
  1  2  1  0
  2  3  1  0
  3  4  2  0
  4  5  1  0
  5  6  2  0
  6  7  1  0
  7  8  2  0
  8  9  1  0
  9 10  1  0
 10 11  1  0
 11 12  1  0
 12 13  1  0
 13 14  1  0
 14 15  1  0
 15 16  1  0
 16 17  1  0
 17 18  2  0
 17 19  1  0
 19 20  1  0
 20 21  1  0
 21 22  2  0
 22 23  1  0
 23 24  2  0
 24 25  1  0
 24 26  1  0
 26 27  2  0
 12 28  1  0
 28 29  1  0
  8  3  1  0
 29  9  1  0
 20 15  2  0
 27 21  1  0
  1 30  1  0
  1 31  1  0
  1 32  1  0
  4 33  1  0
  5 34  1  0
  6 35  1  0
  7 36  1  0
 10 37  1  0
 10 38  1  0
 11 39  1  0
 11 40  1  0
 12 41  1  0
 13 42  1  0
 13 43  1  0
 14 44  1  0
 14 45  1  0
 22 46  1  0
 23 47  1  0
 26 48  1  0
 27 49  1  0
 28 50  1  0
 28 51  1  0
 29 52  1  0
 29 53  1  0
M  CHG  1  12   1
M  END
>  <UniqueID>  (37) 
35

>  <SMILES>  (37) 
COc1ccccc1N1CC[NH+](CCc2oc(=O)oc2-c2ccc(F)cc2)CC1

>  <Energy>  (37) 
104.55457497962698

>  <Genealogy>  (37) 
COc1ccccc1N1CC[NH+](CCc2oc(=O)oc2-c2ccc(F)cc2)CC1 (protonated)
COc1ccccc1N1CC[NH+](CCc2oc(=O)oc2-c2ccc(F)cc2)CC1 (3D coordinates assigned)
COc1ccccc1N1CC[NH+](CCc2oc(=O)oc2-c2ccc(F)cc2)CC1 (nonaromatic ring conformer: 104.55457497962698 kcal/mol)

>  <smiles>  (37) 
COc1ccccc1N1CCN(CCc2oc(=O)oc2-c2ccc(F)cc2)CC1

>  <score_type>  (37) 
oracle

>  <origin>  (37) 
adg

>  <m_score__min__energy>  (37) 
-6.3099999999999996

>  <m_primary>  (37) 
energy

$$$$
37:0
     RDKit          3D

 55 57  0  0  0  0  0  0  0  0999 V2000
   61.1060   30.4790   47.0230 C   0  0  0  0  0  0  0  0  0  0  0  0
   60.2260   30.9410   48.1090 N   0  0  0  0  0  0  0  0  0  0  0  0
   60.5970   30.2920   49.3930 C   0  0  0  0  0  0  0  0  0  0  0  0
   60.3260   31.2200   50.5950 C   0  0  0  0  0  0  0  0  0  0  0  0
   59.2500   32.2120   50.3460 N   0  0  0  0  0  0  0  0  0  0  0  0
   57.9460   31.6420   50.7280 C   0  0  0  0  0  0  0  0  0  0  0  0
   59.4820   33.4620   51.0950 C   0  0  0  0  0  0  0  0  0  0  0  0
   58.8120   30.7020   47.7410 C   0  0  0  0  0  0  0  0  0  0  0  0
   58.4080   31.5340   46.5360 C   0  0  0  0  0  0  0  0  0  0  0  0
   58.6240   32.9330   46.5550 C   0  0  0  0  0  0  0  0  0  0  0  0
   59.1770   33.5220   47.7080 O   0  0  0  0  0  0  0  0  0  0  0  0
   60.1160   34.5990   47.7270 C   0  0  0  0  0  0  0  0  0  0  0  0
   61.4950   34.1000   48.0690 C   0  0  0  0  0  0  0  0  0  0  0  0
   62.2990   33.4960   47.0870 C   0  0  0  0  0  0  0  0  0  0  0  0
   63.5740   33.0260   47.4140 C   0  0  0  0  0  0  0  0  0  0  0  0
   64.0520   33.1470   48.7220 C   0  0  0  0  0  0  0  0  0  0  0  0
   65.2900   32.6900   49.0380 F   0  0  0  0  0  0  0  0  0  0  0  0
   63.2530   33.7340   49.7070 C   0  0  0  0  0  0  0  0  0  0  0  0
   61.9770   34.2050   49.3840 C   0  0  0  0  0  0  0  0  0  0  0  0
   58.2990   33.7040   45.4260 C   0  0  0  0  0  0  0  0  0  0  0  0
   57.7730   33.1090   44.2840 C   0  0  0  0  0  0  0  0  0  0  0  0
   57.5530   31.7300   44.2410 C   0  0  0  0  0  0  0  0  0  0  0  0
   57.0340   31.1440   43.0750 C   0  0  0  0  0  0  0  0  0  0  0  0
   56.8150   29.7680   43.0170 C   0  0  0  0  0  0  0  0  0  0  0  0
   57.1060   28.9670   44.1200 C   0  0  0  0  0  0  0  0  0  0  0  0
   57.6200   29.5350   45.2880 C   0  0  0  0  0  0  0  0  0  0  0  0
   57.8610   30.9250   45.3700 C   0  0  0  0  0  0  0  0  0  0  0  0
   62.0026   30.0083   47.4527 H   0  0  0  0  0  0  0  0  0  0  0  0
   60.5690   29.7465   46.4024 H   0  0  0  0  0  0  0  0  0  0  0  0
   61.4040   31.3370   46.4024 H   0  0  0  0  0  0  0  0  0  0  0  0
   60.0065   29.3716   49.5119 H   0  0  0  0  0  0  0  0  0  0  0  0
   61.6733   30.0664   49.3671 H   0  0  0  0  0  0  0  0  0  0  0  0
   60.0352   30.5994   51.4554 H   0  0  0  0  0  0  0  0  0  0  0  0
   61.2507   31.7856   50.7823 H   0  0  0  0  0  0  0  0  0  0  0  0
   59.1980   32.4420   49.3270 H   0  0  0  0  0  0  0  0  0  0  0  0
   57.8679   31.6078   51.8247 H   0  0  0  0  0  0  0  0  0  0  0  0
   57.1386   32.2693   50.3222 H   0  0  0  0  0  0  0  0  0  0  0  0
   57.8581   30.6234   50.3222 H   0  0  0  0  0  0  0  0  0  0  0  0
   59.4436   33.2550   52.1747 H   0  0  0  0  0  0  0  0  0  0  0  0
   60.4707   33.8675   50.8343 H   0  0  0  0  0  0  0  0  0  0  0  0
   58.7046   34.1953   50.8343 H   0  0  0  0  0  0  0  0  0  0  0  0
   58.6790   29.6366   47.5019 H   0  0  0  0  0  0  0  0  0  0  0  0
   58.1777   30.9916   48.5918 H   0  0  0  0  0  0  0  0  0  0  0  0
   60.1401   35.0741   46.7352 H   0  0  0  0  0  0  0  0  0  0  0  0
   59.8041   35.3254   48.4919 H   0  0  0  0  0  0  0  0  0  0  0  0
   61.9237   33.3929   46.0582 H   0  0  0  0  0  0  0  0  0  0  0  0
   64.2024   32.5601   46.6407 H   0  0  0  0  0  0  0  0  0  0  0  0
   63.6283   33.8255   50.7369 H   0  0  0  0  0  0  0  0  0  0  0  0
   61.3477   34.6598   50.1632 H   0  0  0  0  0  0  0  0  0  0  0  0
   58.4626   34.7916   45.4456 H   0  0  0  0  0  0  0  0  0  0  0  0
   57.5285   33.7286   43.4086 H   0  0  0  0  0  0  0  0  0  0  0  0
   56.7992   31.7731   42.2037 H   0  0  0  0  0  0  0  0  0  0  0  0
   56.4121   29.3141   42.0996 H   0  0  0  0  0  0  0  0  0  0  0  0
   56.9300   27.8823   44.0704 H   0  0  0  0  0  0  0  0  0  0  0  0
   57.8397   28.8930   46.1538 H   0  0  0  0  0  0  0  0  0  0  0  0
  1  2  1  0
  2  3  1  0
  3  4  1  0
  4  5  1  0
  5  6  1  0
  5  7  1  0
  2  8  1  0
  8  9  1  0
  9 10  2  0
 10 11  1  0
 11 12  1  0
 12 13  1  0
 13 14  2  0
 14 15  1  0
 15 16  2  0
 16 17  1  0
 16 18  1  0
 18 19  2  0
 10 20  1  0
 20 21  2  0
 21 22  1  0
 22 23  2  0
 23 24  1  0
 24 25  2  0
 25 26  1  0
 26 27  2  0
 27  9  1  0
 19 13  1  0
 27 22  1  0
  1 28  1  0
  1 29  1  0
  1 30  1  0
  3 31  1  0
  3 32  1  0
  4 33  1  0
  4 34  1  0
  5 35  1  0
  6 36  1  0
  6 37  1  0
  6 38  1  0
  7 39  1  0
  7 40  1  0
  7 41  1  0
  8 42  1  0
  8 43  1  0
 12 44  1  0
 12 45  1  0
 14 46  1  0
 15 47  1  0
 18 48  1  0
 19 49  1  0
 20 50  1  0
 21 51  1  0
 23 52  1  0
 24 53  1  0
 25 54  1  0
 26 55  1  0
M  CHG  1   5   1
M  END
>  <UniqueID>  (38) 
36

>  <SMILES>  (38) 
CN(CC[NH+](C)C)Cc1c(OCc2ccc(F)cc2)ccc2ccccc12

>  <Energy>  (38) 
62.47943963064796

>  <Genealogy>  (38) 
CN(CC[NH+](C)C)Cc1c(OCc2ccc(F)cc2)ccc2ccccc12 (protonated)
CN(CC[NH+](C)C)Cc1c(OCc2ccc(F)cc2)ccc2ccccc12 (3D coordinates assigned)
CN(CC[NH+](C)C)Cc1c(OCc2ccc(F)cc2)ccc2ccccc12 (optimized conformer: 62.47943963064796 kcal/mol)

>  <smiles>  (38) 
CN(C)CCN(C)Cc1c(OCc2ccc(F)cc2)ccc2ccccc12

>  <score_type>  (38) 
oracle

>  <origin>  (38) 
adg

>  <m_score__min__energy>  (38) 
-5.4199999999999999

>  <m_primary>  (38) 
energy

$$$$
38:0
     RDKit          3D

 49 52  0  0  0  0  0  0  0  0999 V2000
   56.8930   20.7350   43.7590 C   0  0  0  0  0  0  0  0  0  0  0  0
   57.3880   21.3660   44.9350 O   0  0  0  0  0  0  0  0  0  0  0  0
   57.3880   22.7520   45.1550 C   0  0  0  0  0  0  0  0  0  0  0  0
   57.4050   23.6760   44.0930 C   0  0  0  0  0  0  0  0  0  0  0  0
   57.4030   25.0480   44.3490 C   0  0  0  0  0  0  0  0  0  0  0  0
   57.3770   25.5280   45.6680 C   0  0  0  0  0  0  0  0  0  0  0  0
   57.3820   26.9850   45.9480 C   0  0  0  0  0  0  0  0  0  0  0  0
   57.5310   27.3890   47.1340 O   0  0  0  0  0  0  0  0  0  0  0  0
   57.1810   27.9410   44.8930 N   0  0  0  0  0  0  0  0  0  0  0  0
   57.5260   29.3340   45.0170 C   0  0  0  0  0  0  0  0  0  0  0  0
   58.6670   29.7120   45.7470 C   0  0  0  0  0  0  0  0  0  0  0  0
   59.0430   31.0620   45.8560 C   0  0  0  0  0  0  0  0  0  0  0  0
   60.2420   31.4600   46.6300 C   0  0  0  0  0  0  0  0  0  0  0  0
   60.9200   32.6160   46.4060 N   0  0  0  0  0  0  0  0  0  0  0  0
   61.9760   32.7440   47.2490 C   0  0  0  0  0  0  0  0  0  0  0  0
   62.8540   33.8280   47.2540 C   0  0  0  0  0  0  0  0  0  0  0  0
   63.9110   33.8380   48.1830 C   0  0  0  0  0  0  0  0  0  0  0  0
   64.0740   32.7690   49.0880 C   0  0  0  0  0  0  0  0  0  0  0  0
   63.1840   31.6840   49.0730 C   0  0  0  0  0  0  0  0  0  0  0  0
   62.1470   31.7010   48.1440 C   0  0  0  0  0  0  0  0  0  0  0  0
   60.9440   30.5620   47.8910 S   0  0  0  0  0  0  0  0  0  0  0  0
   58.2670   32.0360   45.2090 C   0  0  0  0  0  0  0  0  0  0  0  0
   57.1420   31.6710   44.4710 C   0  0  0  0  0  0  0  0  0  0  0  0
   56.7550   30.3260   44.3710 C   0  0  0  0  0  0  0  0  0  0  0  0
   55.5350   29.9670   43.5680 C   0  0  0  0  0  0  0  0  0  0  0  0
   57.3710   24.6050   46.7280 C   0  0  0  0  0  0  0  0  0  0  0  0
   57.3720   23.2180   46.4770 C   0  0  0  0  0  0  0  0  0  0  0  0
   57.3590   22.2730   47.5160 O   0  0  0  0  0  0  0  0  0  0  0  0
   56.1880   21.6310   48.0090 C   0  0  0  0  0  0  0  0  0  0  0  0
   56.2367   19.8983   44.0404 H   0  0  0  0  0  0  0  0  0  0  0  0
   56.3233   21.4639   43.1639 H   0  0  0  0  0  0  0  0  0  0  0  0
   57.7366   20.3552   43.1639 H   0  0  0  0  0  0  0  0  0  0  0  0
   57.4200   23.3142   43.0543 H   0  0  0  0  0  0  0  0  0  0  0  0
   57.4220   25.7593   43.5101 H   0  0  0  0  0  0  0  0  0  0  0  0
   56.6790   27.6260   44.0330 H   0  0  0  0  0  0  0  0  0  0  0  0
   59.2747   28.9392   46.2404 H   0  0  0  0  0  0  0  0  0  0  0  0
   62.7226   34.6590   46.5454 H   0  0  0  0  0  0  0  0  0  0  0  0
   64.6137   34.6841   48.2033 H   0  0  0  0  0  0  0  0  0  0  0  0
   64.9037   32.7856   49.8100 H   0  0  0  0  0  0  0  0  0  0  0  0
   63.3022   30.8449   49.7744 H   0  0  0  0  0  0  0  0  0  0  0  0
   58.5488   33.0966   45.2848 H   0  0  0  0  0  0  0  0  0  0  0  0
   56.5510   32.4462   43.9613 H   0  0  0  0  0  0  0  0  0  0  0  0
   54.7064   29.7232   44.2492 H   0  0  0  0  0  0  0  0  0  0  0  0
   55.2496   30.8192   42.9338 H   0  0  0  0  0  0  0  0  0  0  0  0
   55.7567   29.0960   42.9338 H   0  0  0  0  0  0  0  0  0  0  0  0
   57.3655   24.9694   47.7659 H   0  0  0  0  0  0  0  0  0  0  0  0
   56.2013   21.6383   49.1089 H   0  0  0  0  0  0  0  0  0  0  0  0
   55.2971   22.1669   47.6495 H   0  0  0  0  0  0  0  0  0  0  0  0
   56.1607   20.5918   47.6495 H   0  0  0  0  0  0  0  0  0  0  0  0
  1  2  1  0
  2  3  1  0
  3  4  2  0
  4  5  1  0
  5  6  2  0
  6  7  1  0
  7  8  2  0
  7  9  1  0
  9 10  1  0
 10 11  2  0
 11 12  1  0
 12 13  1  0
 13 14  2  0
 14 15  1  0
 15 16  2  0
 16 17  1  0
 17 18  2  0
 18 19  1  0
 19 20  2  0
 20 21  1  0
 12 22  2  0
 22 23  1  0
 23 24  2  0
 24 25  1  0
  6 26  1  0
 26 27  2  0
 27 28  1  0
 28 29  1  0
 27  3  1  0
 24 10  1  0
 21 13  1  0
 20 15  1  0
  1 30  1  0
  1 31  1  0
  1 32  1  0
  4 33  1  0
  5 34  1  0
  9 35  1  0
 11 36  1  0
 16 37  1  0
 17 38  1  0
 18 39  1  0
 19 40  1  0
 22 41  1  0
 23 42  1  0
 25 43  1  0
 25 44  1  0
 25 45  1  0
 26 46  1  0
 29 47  1  0
 29 48  1  0
 29 49  1  0
M  END
>  <UniqueID>  (39) 
37

>  <SMILES>  (39) 
COc1ccc(C(=O)Nc2cc(-c3nc4ccccc4s3)ccc2C)cc1OC

>  <Energy>  (39) 
94.27490267682626

>  <Genealogy>  (39) 
COc1ccc(C(=O)Nc2cc(-c3nc4ccccc4s3)ccc2C)cc1OC (3D coordinates assigned)
COc1ccc(C(=O)Nc2cc(-c3nc4ccccc4s3)ccc2C)cc1OC (optimized conformer: 94.27490267682626 kcal/mol)

>  <smiles>  (39) 
COc1ccc(C(=O)Nc2cc(-c3nc4ccccc4s3)ccc2C)cc1OC

>  <score_type>  (39) 
oracle

>  <origin>  (39) 
adg

>  <m_score__min__energy>  (39) 
-8.5899999999999999

>  <m_primary>  (39) 
energy

$$$$
39:0
     RDKit          3D

 44 46  0  0  0  0  0  0  0  0999 V2000
   63.3970   33.8640   46.3970 C   0  0  0  0  0  0  0  0  0  0  0  0
   62.8120   32.6510   47.1130 C   0  0  0  0  0  0  0  0  0  0  0  0
   61.3860   32.7230   47.1460 O   0  0  0  0  0  0  0  0  0  0  0  0
   60.5840   32.6650   48.3000 C   0  0  0  0  0  0  0  0  0  0  0  0
   61.1390   32.6790   49.5970 C   0  0  0  0  0  0  0  0  0  0  0  0
   60.3130   32.6120   50.7200 C   0  0  0  0  0  0  0  0  0  0  0  0
   58.9290   32.5370   50.5680 C   0  0  0  0  0  0  0  0  0  0  0  0
   58.3650   32.5230   49.2910 C   0  0  0  0  0  0  0  0  0  0  0  0
   59.1840   32.5690   48.1500 C   0  0  0  0  0  0  0  0  0  0  0  0
   58.5750   32.5970   46.8000 C   0  0  0  0  0  0  0  0  0  0  0  0
   57.8150   31.5830   46.3330 N   0  0  0  0  0  0  0  0  0  0  0  0
   57.4720   31.9720   45.0890 C   0  0  0  0  0  0  0  0  0  0  0  0
   56.6620   31.1330   44.1490 C   0  0  0  0  0  0  0  0  0  0  0  0
   56.1690   29.9130   44.8080 N   0  0  0  0  0  0  0  0  0  0  0  0
   56.9820   28.7170   44.5180 C   0  0  0  0  0  0  0  0  0  0  0  0
   58.3370   28.7710   45.1640 C   0  0  0  0  0  0  0  0  0  0  0  0
   59.5430   29.0000   44.5150 C   0  0  0  0  0  0  0  0  0  0  0  0
   60.6460   28.9590   45.3760 C   0  0  0  0  0  0  0  0  0  0  0  0
   60.3140   28.6960   46.6990 C   0  0  0  0  0  0  0  0  0  0  0  0
   58.6450   28.5120   46.7980 S   0  0  0  0  0  0  0  0  0  0  0  0
   58.0260   33.2000   44.8100 C   0  0  0  0  0  0  0  0  0  0  0  0
   58.7060   33.6010   45.8980 N   0  0  0  0  0  0  0  0  0  0  0  0
   59.4160   34.8700   46.0350 C   0  0  0  0  0  0  0  0  0  0  0  0
   63.7491   34.5941   47.1406 H   0  0  0  0  0  0  0  0  0  0  0  0
   64.2409   33.5462   45.7670 H   0  0  0  0  0  0  0  0  0  0  0  0
   62.6229   34.3265   45.7670 H   0  0  0  0  0  0  0  0  0  0  0  0
   63.1151   31.7370   46.5813 H   0  0  0  0  0  0  0  0  0  0  0  0
   63.1891   32.6345   48.1462 H   0  0  0  0  0  0  0  0  0  0  0  0
   62.2298   32.7431   49.7240 H   0  0  0  0  0  0  0  0  0  0  0  0
   60.7549   32.6184   51.7273 H   0  0  0  0  0  0  0  0  0  0  0  0
   58.2807   32.4888   51.4554 H   0  0  0  0  0  0  0  0  0  0  0  0
   57.2719   32.4756   49.1772 H   0  0  0  0  0  0  0  0  0  0  0  0
   55.8024   31.7208   43.7946 H   0  0  0  0  0  0  0  0  0  0  0  0
   57.3052   30.8364   43.3074 H   0  0  0  0  0  0  0  0  0  0  0  0
   56.1730   30.0760   45.8420 H   0  0  0  0  0  0  0  0  0  0  0  0
   56.4490   27.8296   44.8902 H   0  0  0  0  0  0  0  0  0  0  0  0
   57.1327   28.6717   43.4293 H   0  0  0  0  0  0  0  0  0  0  0  0
   59.6234   29.1937   43.4352 H   0  0  0  0  0  0  0  0  0  0  0  0
   61.6798   29.1201   45.0364 H   0  0  0  0  0  0  0  0  0  0  0  0
   61.0213   28.6209   47.5381 H   0  0  0  0  0  0  0  0  0  0  0  0
   57.9297   33.7548   43.8651 H   0  0  0  0  0  0  0  0  0  0  0  0
   59.5467   35.1037   47.1019 H   0  0  0  0  0  0  0  0  0  0  0  0
   60.4018   34.7925   45.5531 H   0  0  0  0  0  0  0  0  0  0  0  0
   58.8342   35.6696   45.5531 H   0  0  0  0  0  0  0  0  0  0  0  0
  1  2  1  0
  2  3  1  0
  3  4  1  0
  4  5  2  0
  5  6  1  0
  6  7  2  0
  7  8  1  0
  8  9  2  0
  9 10  1  0
 10 11  2  0
 11 12  1  0
 12 13  1  0
 13 14  1  0
 14 15  1  0
 15 16  1  0
 16 17  2  0
 17 18  1  0
 18 19  2  0
 19 20  1  0
 12 21  2  0
 21 22  1  0
 22 23  1  0
  9  4  1  0
 22 10  1  0
 20 16  1  0
  1 24  1  0
  1 25  1  0
  1 26  1  0
  2 27  1  0
  2 28  1  0
  5 29  1  0
  6 30  1  0
  7 31  1  0
  8 32  1  0
 13 33  1  0
 13 34  1  0
 14 35  1  0
 15 36  1  0
 15 37  1  0
 17 38  1  0
 18 39  1  0
 19 40  1  0
 21 41  1  0
 23 42  1  0
 23 43  1  0
 23 44  1  0
M  END
>  <UniqueID>  (40) 
38

>  <SMILES>  (40) 
CCOc1ccccc1-c1nc(CNCc2cccs2)cn1C

>  <Energy>  (40) 
101.73171709573273

>  <Genealogy>  (40) 
CCOc1ccccc1-c1nc(CNCc2cccs2)cn1C (3D coordinates assigned)
CCOc1ccccc1-c1nc(CNCc2cccs2)cn1C (optimized conformer: 101.73171709573273 kcal/mol)

>  <smiles>  (40) 
CCOc1ccccc1-c1nc(CNCc2cccs2)cn1C

>  <score_type>  (40) 
oracle

>  <origin>  (40) 
adg

>  <m_score__min__energy>  (40) 
-6.9800000000000004

>  <m_primary>  (40) 
energy

$$$$
40:0
     RDKit          3D

 26 28  0  0  0  0  0  0  0  0999 V2000
   58.2890   28.6880   46.0420 C   0  0  0  0  0  0  0  0  0  0  0  0
   57.7530   30.0080   45.5950 C   0  0  0  0  0  0  0  0  0  0  0  0
   56.6240   30.1630   44.8650 N   0  0  0  0  0  0  0  0  0  0  0  0
   56.4630   31.4670   44.6550 N   0  0  0  0  0  0  0  0  0  0  0  0
   57.4990   32.0760   45.2600 C   0  0  0  0  0  0  0  0  0  0  0  0
   57.7550   33.4410   45.3060 C   0  0  0  0  0  0  0  0  0  0  0  0
   58.9040   33.8620   45.9950 C   0  0  0  0  0  0  0  0  0  0  0  0
   59.7640   32.9220   46.6190 C   0  0  0  0  0  0  0  0  0  0  0  0
   60.9790   33.3670   47.3490 C   0  0  0  0  0  0  0  0  0  0  0  0
   62.2480   33.2890   46.7520 C   0  0  0  0  0  0  0  0  0  0  0  0
   63.3800   33.7120   47.4510 C   0  0  0  0  0  0  0  0  0  0  0  0
   63.2380   34.2130   48.7440 C   0  0  0  0  0  0  0  0  0  0  0  0
   62.0060   34.2880   49.3130 N   0  0  0  0  0  0  0  0  0  0  0  0
   60.8870   33.8810   48.6550 C   0  0  0  0  0  0  0  0  0  0  0  0
   59.4380   31.5500   46.5320 C   0  0  0  0  0  0  0  0  0  0  0  0
   58.3170   31.2000   45.8530 N   0  0  0  0  0  0  0  0  0  0  0  0
   58.3038   28.6515   47.1413 H   0  0  0  0  0  0  0  0  0  0  0  0
   57.6469   27.8821   45.6570 H   0  0  0  0  0  0  0  0  0  0  0  0
   59.3112   28.5579   45.6570 H   0  0  0  0  0  0  0  0  0  0  0  0
   57.0831   34.1644   44.8211 H   0  0  0  0  0  0  0  0  0  0  0  0
   59.1403   34.9348   46.0516 H   0  0  0  0  0  0  0  0  0  0  0  0
   62.3502   32.8935   45.7307 H   0  0  0  0  0  0  0  0  0  0  0  0
   64.3748   33.6505   46.9857 H   0  0  0  0  0  0  0  0  0  0  0  0
   64.1235   34.5478   49.3041 H   0  0  0  0  0  0  0  0  0  0  0  0
   59.9057   33.9542   49.1466 H   0  0  0  0  0  0  0  0  0  0  0  0
   60.0756   30.7867   47.0019 H   0  0  0  0  0  0  0  0  0  0  0  0
  1  2  1  0
  2  3  2  0
  3  4  1  0
  4  5  2  0
  5  6  1  0
  6  7  2  0
  7  8  1  0
  8  9  1  0
  9 10  2  0
 10 11  1  0
 11 12  2  0
 12 13  1  0
 13 14  2  0
  8 15  2  0
 15 16  1  0
 16  2  1  0
 16  5  1  0
 14  9  1  0
  1 17  1  0
  1 18  1  0
  1 19  1  0
  6 20  1  0
  7 21  1  0
 10 22  1  0
 11 23  1  0
 12 24  1  0
 14 25  1  0
 15 26  1  0
M  END
>  <UniqueID>  (41) 
39

>  <SMILES>  (41) 
Cc1nnc2ccc(-c3cccnc3)cn12

>  <Energy>  (41) 
74.26028867677698

>  <Genealogy>  (41) 
Cc1nnc2ccc(-c3cccnc3)cn12 (3D coordinates assigned)
Cc1nnc2ccc(-c3cccnc3)cn12 (optimized conformer: 74.26028867677698 kcal/mol)

>  <smiles>  (41) 
Cc1nnc2ccc(-c3cccnc3)cn12

>  <score_type>  (41) 
oracle

>  <origin>  (41) 
adg

>  <m_score__min__energy>  (41) 
-6.6600000000000001

>  <m_primary>  (41) 
energy

$$$$
41:0
     RDKit          3D

 50 52  0  0  0  0  0  0  0  0999 V2000
   60.8358   26.5632   46.1593 H   0  0  0  0  0  0  0  0  0  0  0  0
   60.1570   27.3950   46.3990 C   0  0  0  0  0  0  0  0  0  0  0  0
   60.6960   28.5630   46.7800 C   0  0  0  0  0  0  0  0  0  0  0  0
   61.7615   28.5874   47.0522 H   0  0  0  0  0  0  0  0  0  0  0  0
   59.9150   29.8250   46.8500 C   0  0  0  0  0  0  0  0  0  0  0  0
   59.6770   30.4450   48.0970 C   0  0  0  0  0  0  0  0  0  0  0  0
   60.1150   29.9000   49.1970 N   0  0  0  0  0  0  0  0  0  0  0  0
   59.2710   29.3760   50.2710 C   0  0  0  0  0  0  0  0  0  0  0  0
   58.4758   28.7537   49.8347 H   0  0  0  0  0  0  0  0  0  0  0  0
   59.8942   28.7764   50.9508 H   0  0  0  0  0  0  0  0  0  0  0  0
   58.6340   30.5230   51.0670 C   0  0  0  0  0  0  0  0  0  0  0  0
   59.3059   30.8085   51.8898 H   0  0  0  0  0  0  0  0  0  0  0  0
   58.4742   31.3766   50.3918 H   0  0  0  0  0  0  0  0  0  0  0  0
   57.3290   30.1080   51.6270 N   0  0  0  0  0  0  0  0  0  0  0  0
   56.5000   31.2880   51.9170 C   0  0  0  0  0  0  0  0  0  0  0  0
   56.4109   31.4148   53.0060 H   0  0  0  0  0  0  0  0  0  0  0  0
   56.9695   32.1821   51.4809 H   0  0  0  0  0  0  0  0  0  0  0  0
   55.4997   31.1495   51.4809 H   0  0  0  0  0  0  0  0  0  0  0  0
   57.5070   29.3210   52.8610 C   0  0  0  0  0  0  0  0  0  0  0  0
   57.3598   29.9719   53.7354 H   0  0  0  0  0  0  0  0  0  0  0  0
   56.7710   28.5038   52.8841 H   0  0  0  0  0  0  0  0  0  0  0  0
   58.5230   28.9001   52.8841 H   0  0  0  0  0  0  0  0  0  0  0  0
   58.9700   31.6070   48.1380 N   0  0  0  0  0  0  0  0  0  0  0  0
   58.4950   32.1930   47.0110 C   0  0  0  0  0  0  0  0  0  0  0  0
   57.7730   33.3900   47.0850 C   0  0  0  0  0  0  0  0  0  0  0  0
   57.5804   33.8578   48.0618 H   0  0  0  0  0  0  0  0  0  0  0  0
   57.2970   33.9900   45.9150 C   0  0  0  0  0  0  0  0  0  0  0  0
   56.7288   34.9302   45.9720 H   0  0  0  0  0  0  0  0  0  0  0  0
   57.5420   33.3970   44.6730 C   0  0  0  0  0  0  0  0  0  0  0  0
   57.1656   33.8726   43.7553 H   0  0  0  0  0  0  0  0  0  0  0  0
   58.2640   32.2010   44.5920 C   0  0  0  0  0  0  0  0  0  0  0  0
   58.4570   31.7398   43.6122 H   0  0  0  0  0  0  0  0  0  0  0  0
   58.7420   31.5900   45.7630 C   0  0  0  0  0  0  0  0  0  0  0  0
   59.4490   30.4260   45.7110 N   0  0  0  0  0  0  0  0  0  0  0  0
   59.6600   30.0100   44.7770 H   0  0  0  0  0  0  0  0  0  0  0  0
   58.6960   27.1630   46.2830 C   0  0  0  0  0  0  0  0  0  0  0  0
   58.1730   25.9420   46.7390 C   0  0  0  0  0  0  0  0  0  0  0  0
   58.8457   25.1888   47.1751 H   0  0  0  0  0  0  0  0  0  0  0  0
   56.8060   25.6770   46.6430 C   0  0  0  0  0  0  0  0  0  0  0  0
   56.4061   24.7216   47.0135 H   0  0  0  0  0  0  0  0  0  0  0  0
   55.9440   26.6190   46.0790 C   0  0  0  0  0  0  0  0  0  0  0  0
   54.5840   26.3400   45.9920 O   0  0  0  0  0  0  0  0  0  0  0  0
   56.4420   27.8360   45.5980 C   0  0  0  0  0  0  0  0  0  0  0  0
   55.5410   28.7490   45.0280 O   0  0  0  0  0  0  0  0  0  0  0  0
   55.9040   29.7760   44.1110 C   0  0  0  0  0  0  0  0  0  0  0  0
   56.2201   30.6702   44.6682 H   0  0  0  0  0  0  0  0  0  0  0  0
   56.7330   29.4263   43.4782 H   0  0  0  0  0  0  0  0  0  0  0  0
   55.0394   30.0249   43.4782 H   0  0  0  0  0  0  0  0  0  0  0  0
   57.8240   28.1030   45.6970 C   0  0  0  0  0  0  0  0  0  0  0  0
   58.2245   29.0530   45.3135 H   0  0  0  0  0  0  0  0  0  0  0  0
  1  2  1  0
  2  3  2  0
  3  4  1  0
  3  5  1  0
  5  6  1  0
  6  7  2  0
  7  8  1  0
  8  9  1  0
  8 10  1  0
  8 11  1  0
 11 12  1  0
 11 13  1  0
 11 14  1  0
 14 15  1  0
 15 16  1  0
 15 17  1  0
 15 18  1  0
 14 19  1  0
 19 20  1  0
 19 21  1  0
 19 22  1  0
  6 23  1  0
 23 24  1  0
 24 25  2  0
 25 26  1  0
 25 27  1  0
 27 28  1  0
 27 29  2  0
 29 30  1  0
 29 31  1  0
 31 32  1  0
 31 33  2  0
 33 34  1  0
 34 35  1  0
  2 36  1  0
 36 37  2  0
 37 38  1  0
 37 39  1  0
 39 40  1  0
 39 41  2  0
 41 42  1  0
 41 43  1  0
 43 44  1  0
 44 45  1  0
 45 46  1  0
 45 47  1  0
 45 48  1  0
 43 49  2  0
 49 50  1  0
 34  5  2  0
 49 36  1  0
 33 24  1  0
M  CHG  3  23  -1  34   1  42  -1
M  END
>  <UniqueID>  (42) 
40

>  <SMILES>  (42) 
COc1cc(/C=C/c2[nH+]c3ccccc3[n-]/c2=N\CCN(C)C)ccc1[O-]

>  <Energy>  (42) 
60.2046212069652

>  <Genealogy>  (42) 
COc1cc(C=Cc2[nH+]c3ccccc3[n-]c2=NCCN(C)C)ccc1[O-] (protonated)
COc1cc(/C=C/c2[nH+]c3ccccc3[n-]/c2=N\CCN(C)C)ccc1[O-] (cis-trans isomerization)
COc1cc(/C=C/c2[nH+]c3ccccc3[n-]/c2=N\CCN(C)C)ccc1[O-] (3D coordinates assigned)
COc1cc(/C=C/c2[nH+]c3ccccc3[n-]/c2=N\CCN(C)C)ccc1[O-] (optimized conformer: 60.2046212069652 kcal/mol)

>  <smiles>  (42) 
COc1cc(C=Cc2nc3ccccc3[nH]c2=NCCN(C)C)ccc1O

>  <score_type>  (42) 
oracle

>  <origin>  (42) 
adg

>  <m_score__min__energy>  (42) 
-11.49

>  <m_primary>  (42) 
energy

$$$$
42:0
     RDKit          3D

 46 48  0  0  0  0  0  0  0  0999 V2000
   55.5410   29.0980   44.8960 O   0  0  0  0  0  0  0  0  0  0  0  0
   56.8490   29.3870   44.2160 S   0  0  0  0  0  0  0  0  0  0  0  0
   56.6310   29.3070   42.7300 O   0  0  0  0  0  0  0  0  0  0  0  0
   57.3780   31.0180   44.6390 C   0  0  0  0  0  0  0  0  0  0  0  0
   57.4350   32.0190   43.6590 C   0  0  0  0  0  0  0  0  0  0  0  0
   57.9090   33.2940   43.9830 C   0  0  0  0  0  0  0  0  0  0  0  0
   58.3230   33.5850   45.2920 C   0  0  0  0  0  0  0  0  0  0  0  0
   58.9030   34.9400   45.6210 C   0  0  0  0  0  0  0  0  0  0  0  0
   60.3010   34.8450   46.0690 N   0  0  0  0  0  0  0  0  0  0  0  0
   60.3960   34.5380   47.5030 C   0  0  0  0  0  0  0  0  0  0  0  0
   61.7000   33.8470   47.7870 C   0  0  0  0  0  0  0  0  0  0  0  0
   62.1180   33.6380   49.1090 C   0  0  0  0  0  0  0  0  0  0  0  0
   63.3490   33.0250   49.3530 C   0  0  0  0  0  0  0  0  0  0  0  0
   64.1420   32.6430   48.3130 N   0  0  0  0  0  0  0  0  0  0  0  0
   63.7650   32.8480   47.0220 C   0  0  0  0  0  0  0  0  0  0  0  0
   62.5410   33.4580   46.7350 C   0  0  0  0  0  0  0  0  0  0  0  0
   58.2440   32.5870   46.2750 C   0  0  0  0  0  0  0  0  0  0  0  0
   57.7710   31.3140   45.9520 C   0  0  0  0  0  0  0  0  0  0  0  0
   58.0280   28.1870   44.6980 N   0  0  0  0  0  0  0  0  0  0  0  0
   59.3940   28.7290   44.5830 C   0  0  0  0  0  0  0  0  0  0  0  0
   60.3700   27.9340   45.4650 C   0  0  0  0  0  0  0  0  0  0  0  0
   60.0490   27.9600   46.8510 O   0  0  0  0  0  0  0  0  0  0  0  0
   58.6750   28.2110   47.1160 C   0  0  0  0  0  0  0  0  0  0  0  0
   57.7320   27.6400   46.0400 C   0  0  0  0  0  0  0  0  0  0  0  0
   57.1059   31.8008   42.6323 H   0  0  0  0  0  0  0  0  0  0  0  0
   57.9576   34.0730   43.2079 H   0  0  0  0  0  0  0  0  0  0  0  0
   58.8599   35.5728   44.7223 H   0  0  0  0  0  0  0  0  0  0  0  0
   58.3114   35.3738   46.4407 H   0  0  0  0  0  0  0  0  0  0  0  0
   60.7860   34.0910   45.5270 H   0  0  0  0  0  0  0  0  0  0  0  0
   60.3435   35.4722   48.0813 H   0  0  0  0  0  0  0  0  0  0  0  0
   59.5638   33.8787   47.7906 H   0  0  0  0  0  0  0  0  0  0  0  0
   61.4809   33.9546   49.9480 H   0  0  0  0  0  0  0  0  0  0  0  0
   63.6792   32.8501   50.3876 H   0  0  0  0  0  0  0  0  0  0  0  0
   65.0590   32.1860   48.5120 H   0  0  0  0  0  0  0  0  0  0  0  0
   64.4260   32.5325   46.2013 H   0  0  0  0  0  0  0  0  0  0  0  0
   62.2396   33.6317   45.6914 H   0  0  0  0  0  0  0  0  0  0  0  0
   58.5566   32.8090   47.3060 H   0  0  0  0  0  0  0  0  0  0  0  0
   57.7063   30.5398   46.7308 H   0  0  0  0  0  0  0  0  0  0  0  0
   59.7207   28.6651   43.5346 H   0  0  0  0  0  0  0  0  0  0  0  0
   59.3881   29.7768   44.9177 H   0  0  0  0  0  0  0  0  0  0  0  0
   60.3660   26.8868   45.1285 H   0  0  0  0  0  0  0  0  0  0  0  0
   61.3561   28.4093   45.3574 H   0  0  0  0  0  0  0  0  0  0  0  0
   58.4172   27.7553   48.0834 H   0  0  0  0  0  0  0  0  0  0  0  0
   58.5388   29.3025   47.1222 H   0  0  0  0  0  0  0  0  0  0  0  0
   57.8468   26.5464   46.0111 H   0  0  0  0  0  0  0  0  0  0  0  0
   56.7028   27.9249   46.3039 H   0  0  0  0  0  0  0  0  0  0  0  0
  1  2  2  0
  2  3  2  0
  2  4  1  0
  4  5  2  0
  5  6  1  0
  6  7  2  0
  7  8  1  0
  8  9  1  0
  9 10  1  0
 10 11  1  0
 11 12  2  0
 12 13  1  0
 13 14  2  0
 14 15  1  0
 15 16  2  0
  7 17  1  0
 17 18  2  0
  2 19  1  0
 19 20  1  0
 20 21  1  0
 21 22  1  0
 22 23  1  0
 23 24  1  0
 18  4  1  0
 24 19  1  0
 16 11  1  0
  5 25  1  0
  6 26  1  0
  8 27  1  0
  8 28  1  0
  9 29  1  0
 10 30  1  0
 10 31  1  0
 12 32  1  0
 13 33  1  0
 14 34  1  0
 15 35  1  0
 16 36  1  0
 17 37  1  0
 18 38  1  0
 20 39  1  0
 20 40  1  0
 21 41  1  0
 21 42  1  0
 23 43  1  0
 23 44  1  0
 24 45  1  0
 24 46  1  0
M  CHG  1  14   1
M  END
>  <UniqueID>  (43) 
41

>  <SMILES>  (43) 
O=S(=O)(c1ccc(CNCc2cc[nH+]cc2)cc1)N1CCOCC1

>  <Energy>  (43) 
57.27249032789913

>  <Genealogy>  (43) 
O=S(=O)(c1ccc(CNCc2cc[nH+]cc2)cc1)N1CCOCC1 (protonated)
O=S(=O)(c1ccc(CNCc2cc[nH+]cc2)cc1)N1CCOCC1 (3D coordinates assigned)
O=S(=O)(c1ccc(CNCc2cc[nH+]cc2)cc1)N1CCOCC1 (nonaromatic ring conformer: 57.27249032789913 kcal/mol)

>  <smiles>  (43) 
O=S(=O)(c1ccc(CNCc2ccncc2)cc1)N1CCOCC1

>  <score_type>  (43) 
oracle

>  <origin>  (43) 
adg

>  <m_score__min__energy>  (43) 
-7.1799999999999997

>  <m_primary>  (43) 
energy

$$$$
43:0
     RDKit          3D

 46 48  0  0  0  0  0  0  0  0999 V2000
   60.7140   29.8180   46.2840 C   0  0  0  0  0  0  0  0  0  0  0  0
   59.4680   30.5760   46.0930 N   0  0  0  0  0  0  0  0  0  0  0  0
   58.7240   30.0230   44.9470 C   0  0  0  0  0  0  0  0  0  0  0  0
   58.6490   30.5390   47.3270 C   0  0  0  0  0  0  0  0  0  0  0  0
   58.5450   31.9290   47.9730 C   0  0  0  0  0  0  0  0  0  0  0  0
   58.5600   33.0350   46.9370 C   0  0  0  0  0  0  0  0  0  0  0  0
   57.4510   33.1730   46.0830 C   0  0  0  0  0  0  0  0  0  0  0  0
   57.4470   34.1280   45.0660 C   0  0  0  0  0  0  0  0  0  0  0  0
   58.5550   34.9540   44.8780 C   0  0  0  0  0  0  0  0  0  0  0  0
   59.6690   34.8280   45.7090 C   0  0  0  0  0  0  0  0  0  0  0  0
   59.6850   33.8790   46.7450 C   0  0  0  0  0  0  0  0  0  0  0  0
   60.8920   33.7860   47.5910 C   0  0  0  0  0  0  0  0  0  0  0  0
   60.8330   34.1680   48.9380 C   0  0  0  0  0  0  0  0  0  0  0  0
   61.9700   34.0740   49.7470 C   0  0  0  0  0  0  0  0  0  0  0  0
   63.1810   33.5860   49.2240 C   0  0  0  0  0  0  0  0  0  0  0  0
   64.3890   33.4900   50.0810 C   0  0  0  0  0  0  0  0  0  0  0  0
   65.4810   32.6890   49.6930 C   0  0  0  0  0  0  0  0  0  0  0  0
   66.6180   32.6020   50.5020 C   0  0  0  0  0  0  0  0  0  0  0  0
   66.6780   33.3060   51.7050 C   0  0  0  0  0  0  0  0  0  0  0  0
   65.6020   34.1030   52.1030 C   0  0  0  0  0  0  0  0  0  0  0  0
   64.4630   34.1960   51.2960 C   0  0  0  0  0  0  0  0  0  0  0  0
   63.2270   33.1880   47.8750 C   0  0  0  0  0  0  0  0  0  0  0  0
   62.0900   33.2820   47.0680 C   0  0  0  0  0  0  0  0  0  0  0  0
   60.9095   29.6990   47.3599 H   0  0  0  0  0  0  0  0  0  0  0  0
   60.6153   28.8267   45.8175 H   0  0  0  0  0  0  0  0  0  0  0  0
   61.5489   30.3614   45.8175 H   0  0  0  0  0  0  0  0  0  0  0  0
   57.8918   29.4044   45.3142 H   0  0  0  0  0  0  0  0  0  0  0  0
   58.3267   30.8468   44.3358 H   0  0  0  0  0  0  0  0  0  0  0  0
   59.3983   29.4051   44.3358 H   0  0  0  0  0  0  0  0  0  0  0  0
   57.6384   30.1849   47.0753 H   0  0  0  0  0  0  0  0  0  0  0  0
   59.1336   29.8597   48.0437 H   0  0  0  0  0  0  0  0  0  0  0  0
   57.6056   31.9874   48.5423 H   0  0  0  0  0  0  0  0  0  0  0  0
   59.4159   32.0657   48.6309 H   0  0  0  0  0  0  0  0  0  0  0  0
   56.5762   32.5200   46.2186 H   0  0  0  0  0  0  0  0  0  0  0  0
   56.5688   34.2297   44.4115 H   0  0  0  0  0  0  0  0  0  0  0  0
   58.5508   35.7051   44.0743 H   0  0  0  0  0  0  0  0  0  0  0  0
   60.5426   35.4776   45.5515 H   0  0  0  0  0  0  0  0  0  0  0  0
   59.8892   34.5431   49.3605 H   0  0  0  0  0  0  0  0  0  0  0  0
   61.9167   34.3843   50.8010 H   0  0  0  0  0  0  0  0  0  0  0  0
   65.4389   32.1284   48.7475 H   0  0  0  0  0  0  0  0  0  0  0  0
   67.4674   31.9769   50.1892 H   0  0  0  0  0  0  0  0  0  0  0  0
   67.5730   33.2334   52.3404 H   0  0  0  0  0  0  0  0  0  0  0  0
   65.6503   34.6579   53.0516 H   0  0  0  0  0  0  0  0  0  0  0  0
   63.6189   34.8258   51.6137 H   0  0  0  0  0  0  0  0  0  0  0  0
   64.1655   32.7998   47.4524 H   0  0  0  0  0  0  0  0  0  0  0  0
   62.1358   32.9589   46.0175 H   0  0  0  0  0  0  0  0  0  0  0  0
  1  2  1  0
  2  3  1  0
  2  4  1  0
  4  5  1  0
  5  6  1  0
  6  7  2  0
  7  8  1  0
  8  9  2  0
  9 10  1  0
 10 11  2  0
 11 12  1  0
 12 13  2  0
 13 14  1  0
 14 15  2  0
 15 16  1  0
 16 17  2  0
 17 18  1  0
 18 19  2  0
 19 20  1  0
 20 21  2  0
 15 22  1  0
 22 23  2  0
 11  6  1  0
 23 12  1  0
 21 16  1  0
  1 24  1  0
  1 25  1  0
  1 26  1  0
  3 27  1  0
  3 28  1  0
  3 29  1  0
  4 30  1  0
  4 31  1  0
  5 32  1  0
  5 33  1  0
  7 34  1  0
  8 35  1  0
  9 36  1  0
 10 37  1  0
 13 38  1  0
 14 39  1  0
 17 40  1  0
 18 41  1  0
 19 42  1  0
 20 43  1  0
 21 44  1  0
 22 45  1  0
 23 46  1  0
M  END
>  <UniqueID>  (44) 
42

>  <SMILES>  (44) 
CN(C)CCc1ccccc1-c1ccc(-c2ccccc2)cc1

>  <Energy>  (44) 
59.365440143747634

>  <Genealogy>  (44) 
CN(C)CCc1ccccc1-c1ccc(-c2ccccc2)cc1 (3D coordinates assigned)
CN(C)CCc1ccccc1-c1ccc(-c2ccccc2)cc1 (optimized conformer: 59.365440143747634 kcal/mol)

>  <smiles>  (44) 
CN(C)CCc1ccccc1-c1ccc(-c2ccccc2)cc1

>  <score_type>  (44) 
oracle

>  <origin>  (44) 
adg

>  <m_score__min__energy>  (44) 
-7.5800000000000001

>  <m_primary>  (44) 
energy

$$$$
44:0
     RDKit          3D

 32 32  0  0  0  0  0  0  0  0999 V2000
   56.8380   34.4514   45.9671 H   0  0  0  0  0  0  0  0  0  0  0  0
   57.6810   33.8370   46.3160 C   0  0  0  0  0  0  0  0  0  0  0  0
   58.5570   34.3810   47.1110 N   0  0  0  0  0  0  0  0  0  0  0  0
   59.8480   34.9620   46.7360 C   0  0  0  0  0  0  0  0  0  0  0  0
   60.2330   35.5474   47.5840 H   0  0  0  0  0  0  0  0  0  0  0  0
   59.6893   35.5966   45.8516 H   0  0  0  0  0  0  0  0  0  0  0  0
   60.8890   33.8790   46.3640 C   0  0  0  0  0  0  0  0  0  0  0  0
   61.5230   34.2789   45.5590 H   0  0  0  0  0  0  0  0  0  0  0  0
   60.3121   32.9901   46.0691 H   0  0  0  0  0  0  0  0  0  0  0  0
   61.7730   33.4460   47.4710 N   0  0  0  0  0  0  0  0  0  0  0  0
   63.2030   33.4990   47.1290 C   0  0  0  0  0  0  0  0  0  0  0  0
   63.8003   33.5211   48.0525 H   0  0  0  0  0  0  0  0  0  0  0  0
   63.4722   32.6102   46.5394 H   0  0  0  0  0  0  0  0  0  0  0  0
   63.4057   34.4053   46.5394 H   0  0  0  0  0  0  0  0  0  0  0  0
   61.4990   34.1310   48.7420 C   0  0  0  0  0  0  0  0  0  0  0  0
   61.7638   33.4691   49.5797 H   0  0  0  0  0  0  0  0  0  0  0  0
   62.0980   35.0519   48.7988 H   0  0  0  0  0  0  0  0  0  0  0  0
   60.4302   34.3847   48.7988 H   0  0  0  0  0  0  0  0  0  0  0  0
   57.7650   32.4310   45.8590 C   0  0  0  0  0  0  0  0  0  0  0  0
   58.0319   31.6665   46.6035 H   0  0  0  0  0  0  0  0  0  0  0  0
   57.5380   32.0230   44.5980 C   0  0  0  0  0  0  0  0  0  0  0  0
   56.7380   30.8960   44.1370 C   0  0  0  0  0  0  0  0  0  0  0  0
   56.1500   30.0650   44.8770 O   0  0  0  0  0  0  0  0  0  0  0  0
   56.7130   30.8140   42.6610 C   0  0  0  0  0  0  0  0  0  0  0  0
   55.7086   31.0446   42.2763 H   0  0  0  0  0  0  0  0  0  0  0  0
   56.9625   29.8071   42.2951 H   0  0  0  0  0  0  0  0  0  0  0  0
   57.7260   31.8690   42.1970 C   0  0  0  0  0  0  0  0  0  0  0  0
   57.2706   32.5110   41.4286 H   0  0  0  0  0  0  0  0  0  0  0  0
   58.6131   31.3825   41.7653 H   0  0  0  0  0  0  0  0  0  0  0  0
   58.1230   32.7170   43.4170 C   0  0  0  0  0  0  0  0  0  0  0  0
   57.7125   33.7336   43.3274 H   0  0  0  0  0  0  0  0  0  0  0  0
   59.2150   32.8163   43.5043 H   0  0  0  0  0  0  0  0  0  0  0  0
  1  2  1  0
  2  3  2  0
  3  4  1  0
  4  5  1  0
  4  6  1  0
  4  7  1  0
  7  8  1  0
  7  9  1  0
  7 10  1  0
 10 11  1  0
 11 12  1  0
 11 13  1  0
 11 14  1  0
 10 15  1  0
 15 16  1  0
 15 17  1  0
 15 18  1  0
  2 19  1  0
 19 20  1  0
 19 21  2  0
 21 22  1  0
 22 23  2  0
 22 24  1  0
 24 25  1  0
 24 26  1  0
 24 27  1  0
 27 28  1  0
 27 29  1  0
 27 30  1  0
 30 31  1  0
 30 32  1  0
 30 21  1  0
M  END
>  <UniqueID>  (45) 
43

>  <SMILES>  (45) 
CN(C)CCN=C/C=C1/CCCC1=O

>  <Energy>  (45) 
40.53199640690466

>  <Genealogy>  (45) 
CN(C)CCN=C/C=C1/CCCC1=O (cis-trans isomerization)
CN(C)CCN=C/C=C1/CCCC1=O (3D coordinates assigned)
CN(C)CCN=C/C=C1/CCCC1=O (nonaromatic ring conformer: 40.53199640690466 kcal/mol)

>  <smiles>  (45) 
CN(C)CCN=CC=C1CCCC1=O

>  <score_type>  (45) 
oracle

>  <origin>  (45) 
adg

>  <m_score__min__energy>  (45) 
-5.7599999999999998

>  <m_primary>  (45) 
energy

$$$$
45:0
     RDKit          3D

 59 62  0  0  0  0  0  0  0  0999 V2000
   58.2400   32.3440   48.3110 F   0  0  0  0  0  0  0  0  0  0  0  0
   58.4870   33.1410   47.2420 C   0  0  0  0  0  0  0  0  0  0  0  0
   57.3930   33.4700   46.4340 C   0  0  0  0  0  0  0  0  0  0  0  0
   57.5760   34.1860   45.2560 C   0  0  0  0  0  0  0  0  0  0  0  0
   58.8570   34.5560   44.8650 C   0  0  0  0  0  0  0  0  0  0  0  0
   59.9590   34.2320   45.6600 C   0  0  0  0  0  0  0  0  0  0  0  0
   59.8050   33.5680   46.9060 C   0  0  0  0  0  0  0  0  0  0  0  0
   61.0190   33.2070   47.8190 C   0  0  0  0  0  0  0  0  0  0  0  0
   60.9390   31.7530   48.4370 C   0  0  0  0  0  0  0  0  0  0  0  0
   61.7560   30.6280   47.7600 C   0  0  0  0  0  0  0  0  0  0  0  0
   61.0640   30.0700   46.5860 N   0  0  0  0  0  0  0  0  0  0  0  0
   60.3920   28.7910   46.8660 C   0  0  0  0  0  0  0  0  0  0  0  0
   59.3340   28.4710   45.8360 C   0  0  0  0  0  0  0  0  0  0  0  0
   58.8370   29.4690   44.9920 C   0  0  0  0  0  0  0  0  0  0  0  0
   57.8590   29.1510   44.0520 C   0  0  0  0  0  0  0  0  0  0  0  0
   57.3920   27.8760   43.9500 N   0  0  0  0  0  0  0  0  0  0  0  0
   57.8540   26.8710   44.7540 C   0  0  0  0  0  0  0  0  0  0  0  0
   57.3480   25.5240   44.6050 N   0  0  0  0  0  0  0  0  0  0  0  0
   56.7870   24.7370   45.6950 C   0  0  0  0  0  0  0  0  0  0  0  0
   56.2500   23.4650   45.0540 C   0  0  0  0  0  0  0  0  0  0  0  0
   56.9300   23.3710   43.6930 C   0  0  0  0  0  0  0  0  0  0  0  0
   57.3640   24.7880   43.3500 C   0  0  0  0  0  0  0  0  0  0  0  0
   58.8350   27.1660   45.7190 C   0  0  0  0  0  0  0  0  0  0  0  0
   62.3600   33.3460   47.0230 C   0  0  0  0  0  0  0  0  0  0  0  0
   63.6070   33.2460   47.9390 C   0  0  0  0  0  0  0  0  0  0  0  0
   63.3410   33.5030   49.3080 O   0  0  0  0  0  0  0  0  0  0  0  0
   62.4670   34.6030   49.4470 C   0  0  0  0  0  0  0  0  0  0  0  0
   61.0400   34.2220   49.0150 C   0  0  0  0  0  0  0  0  0  0  0  0
   56.3808   33.1600   46.7328 H   0  0  0  0  0  0  0  0  0  0  0  0
   56.7094   34.4586   44.6357 H   0  0  0  0  0  0  0  0  0  0  0  0
   59.0041   35.1070   43.9244 H   0  0  0  0  0  0  0  0  0  0  0  0
   60.9687   34.4971   45.3132 H   0  0  0  0  0  0  0  0  0  0  0  0
   61.2806   31.8223   49.4803 H   0  0  0  0  0  0  0  0  0  0  0  0
   59.8903   31.4528   48.2955 H   0  0  0  0  0  0  0  0  0  0  0  0
   62.7251   31.0375   47.4389 H   0  0  0  0  0  0  0  0  0  0  0  0
   61.8878   29.8177   48.4921 H   0  0  0  0  0  0  0  0  0  0  0  0
   61.7420   29.9450   45.7960 H   0  0  0  0  0  0  0  0  0  0  0  0
   61.1431   27.9874   46.8652 H   0  0  0  0  0  0  0  0  0  0  0  0
   59.8989   28.8733   47.8458 H   0  0  0  0  0  0  0  0  0  0  0  0
   59.2158   30.4988   45.0697 H   0  0  0  0  0  0  0  0  0  0  0  0
   57.4621   29.9338   43.3889 H   0  0  0  0  0  0  0  0  0  0  0  0
   56.6560   27.6890   43.2330 H   0  0  0  0  0  0  0  0  0  0  0  0
   57.5659   24.4948   46.4330 H   0  0  0  0  0  0  0  0  0  0  0  0
   55.9968   25.2872   46.2269 H   0  0  0  0  0  0  0  0  0  0  0  0
   56.5018   22.5891   45.6700 H   0  0  0  0  0  0  0  0  0  0  0  0
   55.1543   23.4888   44.9599 H   0  0  0  0  0  0  0  0  0  0  0  0
   57.8036   22.7047   43.7461 H   0  0  0  0  0  0  0  0  0  0  0  0
   56.2544   22.9577   42.9297 H   0  0  0  0  0  0  0  0  0  0  0  0
   58.3769   24.7848   42.9210 H   0  0  0  0  0  0  0  0  0  0  0  0
   56.6971   25.2457   42.6045 H   0  0  0  0  0  0  0  0  0  0  0  0
   59.2104   26.3724   46.3817 H   0  0  0  0  0  0  0  0  0  0  0  0
   62.4090   32.5442   46.2716 H   0  0  0  0  0  0  0  0  0  0  0  0
   62.3687   34.3409   46.5538 H   0  0  0  0  0  0  0  0  0  0  0  0
   64.0192   32.2299   47.8519 H   0  0  0  0  0  0  0  0  0  0  0  0
   64.3117   34.0203   47.6016 H   0  0  0  0  0  0  0  0  0  0  0  0
   62.4526   34.9219   50.4996 H   0  0  0  0  0  0  0  0  0  0  0  0
   62.8241   35.4217   48.8050 H   0  0  0  0  0  0  0  0  0  0  0  0
   60.5229   33.7662   49.8722 H   0  0  0  0  0  0  0  0  0  0  0  0
   60.5385   35.1415   48.6787 H   0  0  0  0  0  0  0  0  0  0  0  0
  1  2  1  0
  2  3  2  0
  3  4  1  0
  4  5  2  0
  5  6  1  0
  6  7  2  0
  7  8  1  0
  8  9  1  0
  9 10  1  0
 10 11  1  0
 11 12  1  0
 12 13  1  0
 13 14  2  0
 14 15  1  0
 15 16  2  0
 16 17  1  0
 17 18  1  0
 18 19  1  0
 19 20  1  0
 20 21  1  0
 21 22  1  0
 17 23  2  0
  8 24  1  0
 24 25  1  0
 25 26  1  0
 26 27  1  0
 27 28  1  0
  7  2  1  0
 28  8  1  0
 23 13  1  0
 22 18  1  0
  3 29  1  0
  4 30  1  0
  5 31  1  0
  6 32  1  0
  9 33  1  0
  9 34  1  0
 10 35  1  0
 10 36  1  0
 11 37  1  0
 12 38  1  0
 12 39  1  0
 14 40  1  0
 15 41  1  0
 16 42  1  0
 19 43  1  0
 19 44  1  0
 20 45  1  0
 20 46  1  0
 21 47  1  0
 21 48  1  0
 22 49  1  0
 22 50  1  0
 23 51  1  0
 24 52  1  0
 24 53  1  0
 25 54  1  0
 25 55  1  0
 27 56  1  0
 27 57  1  0
 28 58  1  0
 28 59  1  0
M  CHG  1  16   1
M  END
>  <UniqueID>  (46) 
44

>  <SMILES>  (46) 
Fc1ccccc1C1(CCNCc2cc[nH+]c(N3CCCC3)c2)CCOCC1

>  <Energy>  (46) 
87.61237978550075

>  <Genealogy>  (46) 
Fc1ccccc1C1(CCNCc2cc[nH+]c(N3CCCC3)c2)CCOCC1 (protonated)
Fc1ccccc1C1(CCNCc2cc[nH+]c(N3CCCC3)c2)CCOCC1 (3D coordinates assigned)
Fc1ccccc1C1(CCNCc2cc[nH+]c(N3CCCC3)c2)CCOCC1 (nonaromatic ring conformer: 87.61237978550075 kcal/mol)

>  <smiles>  (46) 
Fc1ccccc1C1(CCNCc2ccnc(N3CCCC3)c2)CCOCC1

>  <score_type>  (46) 
oracle

>  <origin>  (46) 
adg

>  <m_score__min__energy>  (46) 
-6.8600000000000003

>  <m_primary>  (46) 
energy

$$$$
46:0
     RDKit          3D

 43 46  0  0  0  0  0  0  0  0999 V2000
   66.6670   32.2160   50.6770 C   0  0  0  0  0  0  0  0  0  0  0  0
   66.3990   31.2550   51.6530 C   0  0  0  0  0  0  0  0  0  0  0  0
   65.1690   30.6780   51.7260 N   0  0  0  0  0  0  0  0  0  0  0  0
   64.1730   31.0160   50.8600 C   0  0  0  0  0  0  0  0  0  0  0  0
   64.4000   31.9730   49.8600 C   0  0  0  0  0  0  0  0  0  0  0  0
   63.2940   32.3620   48.9140 C   0  0  0  0  0  0  0  0  0  0  0  0
   63.2780   33.8250   48.6880 N   0  0  0  0  0  0  0  0  0  0  0  0
   63.4240   34.1980   47.2530 C   0  0  0  0  0  0  0  0  0  0  0  0
   62.2220   33.7670   46.3770 C   0  0  0  0  0  0  0  0  0  0  0  0
   60.9400   34.0120   47.1090 C   0  0  0  0  0  0  0  0  0  0  0  0
   60.8720   34.2660   48.4470 C   0  0  0  0  0  0  0  0  0  0  0  0
   59.5890   34.4040   48.8340 N   0  0  0  0  0  0  0  0  0  0  0  0
   58.8920   34.1880   47.6920 C   0  0  0  0  0  0  0  0  0  0  0  0
   59.6890   33.9320   46.6300 N   0  0  0  0  0  0  0  0  0  0  0  0
   59.2630   33.6890   45.2520 C   0  0  0  0  0  0  0  0  0  0  0  0
   58.4420   32.4310   45.1740 C   0  0  0  0  0  0  0  0  0  0  0  0
   57.4040   32.3100   44.2380 C   0  0  0  0  0  0  0  0  0  0  0  0
   56.6440   31.1380   44.1990 C   0  0  0  0  0  0  0  0  0  0  0  0
   56.9120   30.1230   45.0630 N   0  0  0  0  0  0  0  0  0  0  0  0
   57.9120   30.2130   45.9800 C   0  0  0  0  0  0  0  0  0  0  0  0
   58.6960   31.3670   46.0520 C   0  0  0  0  0  0  0  0  0  0  0  0
   62.0850   34.4620   49.3010 C   0  0  0  0  0  0  0  0  0  0  0  0
   65.6620   32.5770   49.7780 C   0  0  0  0  0  0  0  0  0  0  0  0
   67.6605   32.6844   50.6168 H   0  0  0  0  0  0  0  0  0  0  0  0
   67.1847   30.9632   52.3654 H   0  0  0  0  0  0  0  0  0  0  0  0
   64.9820   29.9630   52.4640 H   0  0  0  0  0  0  0  0  0  0  0  0
   63.1867   30.5364   50.9454 H   0  0  0  0  0  0  0  0  0  0  0  0
   63.4475   31.8512   47.9519 H   0  0  0  0  0  0  0  0  0  0  0  0
   62.3325   32.0660   49.3589 H   0  0  0  0  0  0  0  0  0  0  0  0
   63.5291   35.2909   47.1864 H   0  0  0  0  0  0  0  0  0  0  0  0
   64.3093   33.6694   46.8699 H   0  0  0  0  0  0  0  0  0  0  0  0
   62.2250   34.3485   45.4433 H   0  0  0  0  0  0  0  0  0  0  0  0
   62.3080   32.6943   46.1493 H   0  0  0  0  0  0  0  0  0  0  0  0
   57.7939   34.2178   47.6350 H   0  0  0  0  0  0  0  0  0  0  0  0
   58.6582   34.5393   44.9038 H   0  0  0  0  0  0  0  0  0  0  0  0
   60.1537   33.5752   44.6167 H   0  0  0  0  0  0  0  0  0  0  0  0
   57.1898   33.1323   43.5394 H   0  0  0  0  0  0  0  0  0  0  0  0
   55.8280   31.0365   43.4684 H   0  0  0  0  0  0  0  0  0  0  0  0
   58.1040   29.3753   46.6666 H   0  0  0  0  0  0  0  0  0  0  0  0
   59.5066   31.4407   46.7919 H   0  0  0  0  0  0  0  0  0  0  0  0
   62.2726   35.5397   49.4169 H   0  0  0  0  0  0  0  0  0  0  0  0
   61.9029   33.9942   50.2798 H   0  0  0  0  0  0  0  0  0  0  0  0
   65.8604   33.3349   49.0059 H   0  0  0  0  0  0  0  0  0  0  0  0
  1  2  2  0
  2  3  1  0
  3  4  2  0
  4  5  1  0
  5  6  1  0
  6  7  1  0
  7  8  1  0
  8  9  1  0
  9 10  1  0
 10 11  2  0
 11 12  1  0
 12 13  2  0
 13 14  1  0
 14 15  1  0
 15 16  1  0
 16 17  2  0
 17 18  1  0
 18 19  2  0
 19 20  1  0
 20 21  2  0
 11 22  1  0
  5 23  2  0
 23  1  1  0
 22  7  1  0
 14 10  1  0
 21 16  1  0
  1 24  1  0
  2 25  1  0
  3 26  1  0
  4 27  1  0
  6 28  1  0
  6 29  1  0
  8 30  1  0
  8 31  1  0
  9 32  1  0
  9 33  1  0
 13 34  1  0
 15 35  1  0
 15 36  1  0
 17 37  1  0
 18 38  1  0
 20 39  1  0
 21 40  1  0
 22 41  1  0
 22 42  1  0
 23 43  1  0
M  CHG  1   3   1
M  END
>  <UniqueID>  (47) 
45

>  <SMILES>  (47) 
c1c[nH+]cc(CN2CCc3c(ncn3Cc3ccncc3)C2)c1

>  <Energy>  (47) 
82.63326076186144

>  <Genealogy>  (47) 
c1c[nH+]cc(CN2CCc3c(ncn3Cc3ccncc3)C2)c1 (protonated)
c1c[nH+]cc(CN2CCc3c(ncn3Cc3ccncc3)C2)c1 (3D coordinates assigned)
c1c[nH+]cc(CN2CCc3c(ncn3Cc3ccncc3)C2)c1 (nonaromatic ring conformer: 82.63326076186144 kcal/mol)

>  <smiles>  (47) 
c1cncc(CN2CCc3c(ncn3Cc3ccncc3)C2)c1

>  <score_type>  (47) 
oracle

>  <origin>  (47) 
adg

>  <m_score__min__energy>  (47) 
-6.1200000000000001

>  <m_primary>  (47) 
energy

$$$$
47:0
     RDKit          3D

 51 53  0  0  0  0  0  0  0  0999 V2000
   55.1784   26.1087   46.2401 H   0  0  0  0  0  0  0  0  0  0  0  0
   56.0520   26.7370   46.0120 C   0  0  0  0  0  0  0  0  0  0  0  0
   55.9070   27.8540   45.2640 N   0  0  0  0  0  0  0  0  0  0  0  0
   56.9500   28.6650   44.9620 C   0  0  0  0  0  0  0  0  0  0  0  0
   56.7090   29.6840   44.1820 N   0  0  0  0  0  0  0  0  0  0  0  0
   56.5870   31.1140   44.4850 C   0  0  0  0  0  0  0  0  0  0  0  0
   55.7050   31.5152   43.9644 H   0  0  0  0  0  0  0  0  0  0  0  0
   56.4855   31.2274   45.5744 H   0  0  0  0  0  0  0  0  0  0  0  0
   57.8340   31.8980   44.0330 C   0  0  0  0  0  0  0  0  0  0  0  0
   57.5600   32.6210   42.8840 F   0  0  0  0  0  0  0  0  0  0  0  0
   58.8360   30.9920   43.7200 F   0  0  0  0  0  0  0  0  0  0  0  0
   58.3080   32.8380   45.1220 C   0  0  0  0  0  0  0  0  0  0  0  0
   58.0630   32.5370   46.4760 C   0  0  0  0  0  0  0  0  0  0  0  0
   57.5039   31.6276   46.7413 H   0  0  0  0  0  0  0  0  0  0  0  0
   58.5260   33.3870   47.4850 C   0  0  0  0  0  0  0  0  0  0  0  0
   58.3210   33.1499   48.5394 H   0  0  0  0  0  0  0  0  0  0  0  0
   59.2480   34.5360   47.1570 C   0  0  0  0  0  0  0  0  0  0  0  0
   59.6049   35.2072   47.9521 H   0  0  0  0  0  0  0  0  0  0  0  0
   59.5170   34.8330   45.8190 C   0  0  0  0  0  0  0  0  0  0  0  0
   60.0913   35.7353   45.5621 H   0  0  0  0  0  0  0  0  0  0  0  0
   59.0580   33.9860   44.8050 C   0  0  0  0  0  0  0  0  0  0  0  0
   59.2844   34.2184   43.7539 H   0  0  0  0  0  0  0  0  0  0  0  0
   58.2270   28.3420   45.4910 C   0  0  0  0  0  0  0  0  0  0  0  0
   59.2140   29.1030   45.3030 O   0  0  0  0  0  0  0  0  0  0  0  0
   58.3920   27.1960   46.2370 N   0  0  0  0  0  0  0  0  0  0  0  0
   59.7430   26.8450   46.7240 C   0  0  0  0  0  0  0  0  0  0  0  0
   60.4637   26.9465   45.8992 H   0  0  0  0  0  0  0  0  0  0  0  0
   59.7328   25.8079   47.0904 H   0  0  0  0  0  0  0  0  0  0  0  0
   60.1450   27.7550   47.8470 C   0  0  0  0  0  0  0  0  0  0  0  0
   61.0000   27.3620   48.6860 O   0  0  0  0  0  0  0  0  0  0  0  0
   59.5470   29.0520   47.9750 N   0  0  0  0  0  0  0  0  0  0  0  0
   58.8740   29.3770   47.2470 H   0  0  0  0  0  0  0  0  0  0  0  0
   59.8310   29.9370   49.1030 C   0  0  0  0  0  0  0  0  0  0  0  0
   60.2514   29.3466   49.9305 H   0  0  0  0  0  0  0  0  0  0  0  0
   58.8962   30.4210   49.4221 H   0  0  0  0  0  0  0  0  0  0  0  0
   60.8180   30.9980   48.6990 C   0  0  0  0  0  0  0  0  0  0  0  0
   61.0530   32.0970   49.5380 C   0  0  0  0  0  0  0  0  0  0  0  0
   60.5122   32.1827   50.4920 H   0  0  0  0  0  0  0  0  0  0  0  0
   61.9710   33.0840   49.1680 C   0  0  0  0  0  0  0  0  0  0  0  0
   62.1299   33.9555   49.8201 H   0  0  0  0  0  0  0  0  0  0  0  0
   62.6910   32.9690   47.9690 C   0  0  0  0  0  0  0  0  0  0  0  0
   63.6670   34.0300   47.5580 C   0  0  0  0  0  0  0  0  0  0  0  0
   64.0982   34.4988   48.4548 H   0  0  0  0  0  0  0  0  0  0  0  0
   64.4705   33.5768   46.9588 H   0  0  0  0  0  0  0  0  0  0  0  0
   63.1485   34.7929   46.9588 H   0  0  0  0  0  0  0  0  0  0  0  0
   62.4550   31.8710   47.1290 C   0  0  0  0  0  0  0  0  0  0  0  0
   63.0010   31.7827   46.1781 H   0  0  0  0  0  0  0  0  0  0  0  0
   61.5300   30.8880   47.4930 C   0  0  0  0  0  0  0  0  0  0  0  0
   61.3590   30.0251   46.8326 H   0  0  0  0  0  0  0  0  0  0  0  0
   57.3110   26.3840   46.4930 C   0  0  0  0  0  0  0  0  0  0  0  0
   57.4310   24.8880   47.4210 Cl  0  0  0  0  0  0  0  0  0  0  0  0
  1  2  1  0
  2  3  1  0
  3  4  1  0
  4  5  2  0
  5  6  1  0
  6  7  1  0
  6  8  1  0
  6  9  1  0
  9 10  1  0
  9 11  1  0
  9 12  1  0
 12 13  2  0
 13 14  1  0
 13 15  1  0
 15 16  1  0
 15 17  2  0
 17 18  1  0
 17 19  1  0
 19 20  1  0
 19 21  2  0
 21 22  1  0
  4 23  1  0
 23 24  2  0
 23 25  1  0
 25 26  1  0
 26 27  1  0
 26 28  1  0
 26 29  1  0
 29 30  2  0
 29 31  1  0
 31 32  1  0
 31 33  1  0
 33 34  1  0
 33 35  1  0
 33 36  1  0
 36 37  2  0
 37 38  1  0
 37 39  1  0
 39 40  1  0
 39 41  2  0
 41 42  1  0
 42 43  1  0
 42 44  1  0
 42 45  1  0
 41 46  1  0
 46 47  1  0
 46 48  2  0
 48 49  1  0
 25 50  1  0
 50 51  1  0
 50  2  2  0
 21 12  1  0
 48 36  1  0
M  CHG  1   3  -1
M  END
>  <UniqueID>  (48) 
46

>  <SMILES>  (48) 
Cc1ccc(CNC(=O)Cn2c(Cl)c[n-]/c(=N/CC(F)(F)c3ccccc3)c2=O)cc1

>  <Energy>  (48) 
55.976102180194395

>  <Genealogy>  (48) 
Cc1ccc(CNC(=O)Cn2c(Cl)c[n-]c(=NCC(F)(F)c3ccccc3)c2=O)cc1 (protonated)
Cc1ccc(CNC(=O)Cn2c(Cl)c[n-]/c(=N/CC(F)(F)c3ccccc3)c2=O)cc1 (cis-trans isomerization)
Cc1ccc(CNC(=O)Cn2c(Cl)c[n-]/c(=N/CC(F)(F)c3ccccc3)c2=O)cc1 (3D coordinates assigned)
Cc1ccc(CNC(=O)Cn2c(Cl)c[n-]/c(=N/CC(F)(F)c3ccccc3)c2=O)cc1 (optimized conformer: 55.976102180194395 kcal/mol)

>  <smiles>  (48) 
Cc1ccc(CNC(=O)Cn2c(Cl)c[nH]c(=NCC(F)(F)c3ccccc3)c2=O)cc1

>  <score_type>  (48) 
oracle

>  <origin>  (48) 
adg

>  <m_score__min__energy>  (48) 
-10.19

>  <m_primary>  (48) 
energy

$$$$
48:0
     RDKit          3D

 33 34  0  0  0  0  0  0  0  0999 V2000
   60.3890   27.5510   47.9310 C   0  0  0  0  0  0  0  0  0  0  0  0
   59.2360   27.6120   46.9630 C   0  0  0  0  0  0  0  0  0  0  0  0
   58.1340   26.7700   47.1780 C   0  0  0  0  0  0  0  0  0  0  0  0
   57.0390   26.8010   46.3200 C   0  0  0  0  0  0  0  0  0  0  0  0
   57.0220   27.6780   45.2380 C   0  0  0  0  0  0  0  0  0  0  0  0
   58.1120   28.5260   44.9860 C   0  0  0  0  0  0  0  0  0  0  0  0
   58.0540   29.4510   43.8860 N   0  0  0  0  0  0  0  0  0  0  0  0
   56.9890   30.8210   43.8770 S   0  0  0  0  0  0  0  0  0  0  0  0
   56.7260   31.2310   42.4550 O   0  0  0  0  0  0  0  0  0  0  0  0
   55.6880   30.4460   44.5290 O   0  0  0  0  0  0  0  0  0  0  0  0
   57.7150   32.1440   44.7850 C   0  0  0  0  0  0  0  0  0  0  0  0
   57.9200   32.0070   46.1660 C   0  0  0  0  0  0  0  0  0  0  0  0
   58.5130   33.0420   46.8940 C   0  0  0  0  0  0  0  0  0  0  0  0
   58.9020   34.2190   46.2480 C   0  0  0  0  0  0  0  0  0  0  0  0
   58.6980   34.3610   44.8720 C   0  0  0  0  0  0  0  0  0  0  0  0
   58.1050   33.3260   44.1410 C   0  0  0  0  0  0  0  0  0  0  0  0
   59.2500   28.4740   45.8320 C   0  0  0  0  0  0  0  0  0  0  0  0
   60.4480   29.3490   45.5350 C   0  0  0  0  0  0  0  0  0  0  0  0
   60.0042   27.5714   48.9613 H   0  0  0  0  0  0  0  0  0  0  0  0
   60.9548   26.6217   47.7692 H   0  0  0  0  0  0  0  0  0  0  0  0
   61.0497   28.4154   47.7692 H   0  0  0  0  0  0  0  0  0  0  0  0
   58.1359   26.0785   48.0335 H   0  0  0  0  0  0  0  0  0  0  0  0
   56.1845   26.1312   46.4967 H   0  0  0  0  0  0  0  0  0  0  0  0
   56.1454   27.7064   44.5741 H   0  0  0  0  0  0  0  0  0  0  0  0
   58.5910   29.2600   43.0120 H   0  0  0  0  0  0  0  0  0  0  0  0
   57.6132   31.0825   46.6771 H   0  0  0  0  0  0  0  0  0  0  0  0
   58.6738   32.9304   47.9764 H   0  0  0  0  0  0  0  0  0  0  0  0
   59.3685   35.0333   46.8220 H   0  0  0  0  0  0  0  0  0  0  0  0
   59.0041   35.2873   44.3638 H   0  0  0  0  0  0  0  0  0  0  0  0
   57.9446   33.4402   43.0588 H   0  0  0  0  0  0  0  0  0  0  0  0
   60.9027   29.6811   46.4799 H   0  0  0  0  0  0  0  0  0  0  0  0
   61.1859   28.7757   44.9546 H   0  0  0  0  0  0  0  0  0  0  0  0
   60.1264   30.2263   44.9546 H   0  0  0  0  0  0  0  0  0  0  0  0
  1  2  1  0
  2  3  2  0
  3  4  1  0
  4  5  2  0
  5  6  1  0
  6  7  1  0
  7  8  1  0
  8  9  2  0
  8 10  2  0
  8 11  1  0
 11 12  2  0
 12 13  1  0
 13 14  2  0
 14 15  1  0
 15 16  2  0
  6 17  2  0
 17 18  1  0
 17  2  1  0
 16 11  1  0
  1 19  1  0
  1 20  1  0
  1 21  1  0
  3 22  1  0
  4 23  1  0
  5 24  1  0
  7 25  1  0
 12 26  1  0
 13 27  1  0
 14 28  1  0
 15 29  1  0
 16 30  1  0
 18 31  1  0
 18 32  1  0
 18 33  1  0
M  END
>  <UniqueID>  (49) 
47

>  <SMILES>  (49) 
Cc1cccc(NS(=O)(=O)c2ccccc2)c1C

>  <Energy>  (49) 
39.379489548366124

>  <Genealogy>  (49) 
Cc1cccc(NS(=O)(=O)c2ccccc2)c1C (3D coordinates assigned)
Cc1cccc(NS(=O)(=O)c2ccccc2)c1C (optimized conformer: 39.379489548366124 kcal/mol)

>  <smiles>  (49) 
Cc1cccc(NS(=O)(=O)c2ccccc2)c1C

>  <score_type>  (49) 
oracle

>  <origin>  (49) 
adg

>  <m_score__min__energy>  (49) 
-7.6299999999999999

>  <m_primary>  (49) 
energy

$$$$
49:0
     RDKit          3D

 50 52  0  0  0  0  0  0  0  0999 V2000
   65.3800   32.0410   50.1020 C   0  0  0  0  0  0  0  0  0  0  0  0
   64.9210   33.2720   49.5520 O   0  0  0  0  0  0  0  0  0  0  0  0
   63.6900   33.4360   48.9000 C   0  0  0  0  0  0  0  0  0  0  0  0
   62.6210   33.9730   49.6240 C   0  0  0  0  0  0  0  0  0  0  0  0
   61.3740   34.1590   49.0200 C   0  0  0  0  0  0  0  0  0  0  0  0
   61.1740   33.8170   47.6720 C   0  0  0  0  0  0  0  0  0  0  0  0
   59.8400   34.0160   47.0510 C   0  0  0  0  0  0  0  0  0  0  0  0
   59.5170   35.1730   46.6620 O   0  0  0  0  0  0  0  0  0  0  0  0
   58.8370   32.8850   46.9210 C   0  0  1  0  0  0  0  0  0  0  0  0
   57.4040   33.4390   46.7280 C   0  0  0  0  0  0  0  0  0  0  0  0
   57.0330   33.5480   45.2460 C   0  0  0  0  0  0  0  0  0  0  0  0
   57.1740   32.1940   44.5150 C   0  0  0  0  0  0  0  0  0  0  0  0
   58.0260   31.2410   45.2630 N   0  0  0  0  0  0  0  0  0  0  0  0
   58.3060   29.9960   44.5140 C   0  0  0  0  0  0  0  0  0  0  0  0
   58.0710   28.7290   45.3130 C   0  0  0  0  0  0  0  0  0  0  0  0
   59.0920   28.1920   46.1120 C   0  0  0  0  0  0  0  0  0  0  0  0
   58.8720   27.0250   46.8470 C   0  0  0  0  0  0  0  0  0  0  0  0
   57.6290   26.3880   46.7990 C   0  0  0  0  0  0  0  0  0  0  0  0
   56.5890   26.9210   46.0140 C   0  0  0  0  0  0  0  0  0  0  0  0
   55.3230   26.3240   45.9360 O   0  0  0  0  0  0  0  0  0  0  0  0
   55.0950   24.9680   45.5650 C   0  0  0  0  0  0  0  0  0  0  0  0
   56.8180   28.0930   45.2810 C   0  0  0  0  0  0  0  0  0  0  0  0
   59.2350   31.8950   45.7960 C   0  0  0  0  0  0  0  0  0  0  0  0
   62.2480   33.2670   46.9460 C   0  0  0  0  0  0  0  0  0  0  0  0
   63.4940   33.0820   47.5530 C   0  0  0  0  0  0  0  0  0  0  0  0
   65.3582   32.0993   51.2002 H   0  0  0  0  0  0  0  0  0  0  0  0
   64.7266   31.2227   49.7653 H   0  0  0  0  0  0  0  0  0  0  0  0
   66.4097   31.8502   49.7653 H   0  0  0  0  0  0  0  0  0  0  0  0
   62.7626   34.2517   50.6787 H   0  0  0  0  0  0  0  0  0  0  0  0
   60.5418   34.5769   49.6055 H   0  0  0  0  0  0  0  0  0  0  0  0
   58.8465   32.3137   47.8609 H   0  0  0  0  0  0  0  0  0  0  0  0
   56.6912   32.7646   47.2251 H   0  0  0  0  0  0  0  0  0  0  0  0
   57.3645   34.4472   47.1662 H   0  0  0  0  0  0  0  0  0  0  0  0
   55.9904   33.8890   45.1647 H   0  0  0  0  0  0  0  0  0  0  0  0
   57.7225   34.2634   44.7740 H   0  0  0  0  0  0  0  0  0  0  0  0
   56.1741   31.7528   44.3903 H   0  0  0  0  0  0  0  0  0  0  0  0
   57.6520   32.3832   43.5425 H   0  0  0  0  0  0  0  0  0  0  0  0
   57.6548   29.9717   43.6278 H   0  0  0  0  0  0  0  0  0  0  0  0
   59.3747   30.0146   44.2543 H   0  0  0  0  0  0  0  0  0  0  0  0
   60.0703   28.6926   46.1596 H   0  0  0  0  0  0  0  0  0  0  0  0
   59.6794   26.6060   47.4655 H   0  0  0  0  0  0  0  0  0  0  0  0
   57.4626   25.4668   47.3767 H   0  0  0  0  0  0  0  0  0  0  0  0
   54.9915   24.3525   46.4708 H   0  0  0  0  0  0  0  0  0  0  0  0
   54.1730   24.9010   44.9688 H   0  0  0  0  0  0  0  0  0  0  0  0
   55.9444   24.6032   44.9688 H   0  0  0  0  0  0  0  0  0  0  0  0
   56.0071   28.5206   44.6730 H   0  0  0  0  0  0  0  0  0  0  0  0
   59.9148   31.1320   46.2032 H   0  0  0  0  0  0  0  0  0  0  0  0
   59.7401   32.4441   44.9877 H   0  0  0  0  0  0  0  0  0  0  0  0
   62.1057   32.9808   45.8935 H   0  0  0  0  0  0  0  0  0  0  0  0
   64.3264   32.6568   46.9732 H   0  0  0  0  0  0  0  0  0  0  0  0
  1  2  1  0
  2  3  1  0
  3  4  2  0
  4  5  1  0
  5  6  2  0
  6  7  1  0
  7  8  2  0
  7  9  1  0
  9 10  1  0
 10 11  1  0
 11 12  1  0
 12 13  1  0
 13 14  1  0
 14 15  1  0
 15 16  2  0
 16 17  1  0
 17 18  2  0
 18 19  1  0
 19 20  1  0
 20 21  1  0
 19 22  2  0
 13 23  1  0
  6 24  1  0
 24 25  2  0
 25  3  1  0
 23  9  1  0
 22 15  1  0
  1 26  1  0
  1 27  1  0
  1 28  1  0
  4 29  1  0
  5 30  1  0
  9 31  1  1
 10 32  1  0
 10 33  1  0
 11 34  1  0
 11 35  1  0
 12 36  1  0
 12 37  1  0
 14 38  1  0
 14 39  1  0
 16 40  1  0
 17 41  1  0
 18 42  1  0
 21 43  1  0
 21 44  1  0
 21 45  1  0
 22 46  1  0
 23 47  1  0
 23 48  1  0
 24 49  1  0
 25 50  1  0
M  END
>  <UniqueID>  (50) 
48

>  <SMILES>  (50) 
COc1ccc(C(=O)[C@H]2CCCN(Cc3cccc(OC)c3)C2)cc1

>  <Energy>  (50) 
61.4221916969375

>  <Genealogy>  (50) 
COc1ccc(C(=O)[C@H]2CCCN(Cc3cccc(OC)c3)C2)cc1 (chirality)
COc1ccc(C(=O)[C@H]2CCCN(Cc3cccc(OC)c3)C2)cc1 (3D coordinates assigned)
COc1ccc(C(=O)[C@H]2CCCN(Cc3cccc(OC)c3)C2)cc1 (nonaromatic ring conformer: 61.4221916969375 kcal/mol)

>  <smiles>  (50) 
COc1ccc(C(=O)C2CCCN(Cc3cccc(OC)c3)C2)cc1

>  <score_type>  (50) 
oracle

>  <origin>  (50) 
adg

>  <m_score__min__energy>  (50) 
-8.7699999999999996

>  <m_primary>  (50) 
energy

$$$$
