0:0
     RDKit          3D

 70 74  0  0  0  0  0  0  0  0999 V2000
   62.5770   34.5570   48.9840 C   0  0  0  0  0  0  0  0  0  0  0  0
   63.5450   33.3910   48.8130 C   0  0  0  0  0  0  0  0  0  0  0  0
   64.3040   33.1810   50.0540 N   0  0  0  0  0  0  0  0  0  0  0  0
   65.2750   32.0830   49.9150 C   0  0  0  0  0  0  0  0  0  0  0  0
   65.6600   31.5330   51.2910 C   0  0  0  0  0  0  0  0  0  0  0  0
   64.7440   31.9520   52.2880 O   0  0  0  0  0  0  0  0  0  0  0  0
   65.2030   33.1220   52.9400 C   0  0  0  0  0  0  0  0  0  0  0  0
   64.0680   33.7850   53.7490 C   0  0  0  0  0  0  0  0  0  0  0  0
   63.0690   32.8040   54.2090 N   0  0  0  0  0  0  0  0  0  0  0  0
   61.7160   33.3830   54.2980 C   0  0  0  0  0  0  0  0  0  0  0  0
   61.0420   33.4440   52.9150 C   0  0  0  0  0  0  0  0  0  0  0  0
   61.8210   32.7980   51.9000 O   0  0  0  0  0  0  0  0  0  0  0  0
   61.4740   31.5780   51.3040 C   0  0  0  0  0  0  0  0  0  0  0  0
   61.8920   30.3940   51.9320 C   0  0  0  0  0  0  0  0  0  0  0  0
   62.5820   30.4910   53.1490 O   0  0  0  0  0  0  0  0  0  0  0  0
   63.3110   29.4230   53.7510 C   0  0  0  0  0  0  0  0  0  0  0  0
   61.6360   29.1540   51.3190 C   0  0  0  0  0  0  0  0  0  0  0  0
   60.9770   29.0950   50.0930 C   0  0  0  0  0  0  0  0  0  0  0  0
   60.5220   30.2680   49.4780 C   0  0  0  0  0  0  0  0  0  0  0  0
   59.8430   30.2040   48.2580 C   0  0  0  0  0  0  0  0  0  0  0  0
   59.3540   31.3790   47.6620 C   0  0  0  0  0  0  0  0  0  0  0  0
   59.5740   32.5900   48.2760 N   0  0  0  0  0  0  0  0  0  0  0  0
   60.2150   32.6640   49.4820 C   0  0  0  0  0  0  0  0  0  0  0  0
   60.7400   31.5160   50.0950 C   0  0  0  0  0  0  0  0  0  0  0  0
   59.0380   33.8300   47.6880 C   0  0  0  0  0  0  0  0  0  0  0  0
   59.1470   33.8100   46.1600 C   0  0  0  0  0  0  0  0  0  0  0  0
   58.5240   32.5560   45.6140 C   0  0  0  0  0  0  0  0  0  0  0  0
   57.8820   32.5730   44.3560 C   0  0  0  0  0  0  0  0  0  0  0  0
   57.3340   31.3830   43.8900 C   0  0  0  0  0  0  0  0  0  0  0  0
   57.4080   30.2310   44.5990 C   0  0  0  0  0  0  0  0  0  0  0  0
   58.0430   30.1610   45.8340 C   0  0  0  0  0  0  0  0  0  0  0  0
   58.6370   31.3420   46.3510 C   0  0  0  0  0  0  0  0  0  0  0  0
   56.7730   29.2200   43.9040 O   0  0  0  0  0  0  0  0  0  0  0  0
   56.2690   29.7740   42.6810 C   0  0  0  0  0  0  0  0  0  0  0  0
   56.6520   31.1560   42.7110 O   0  0  0  0  0  0  0  0  0  0  0  0
   62.4185   34.7479   50.0557 H   0  0  0  0  0  0  0  0  0  0  0  0
   62.9982   35.4558   48.5098 H   0  0  0  0  0  0  0  0  0  0  0  0
   61.6161   34.3084   48.5098 H   0  0  0  0  0  0  0  0  0  0  0  0
   62.9781   32.4791   48.5741 H   0  0  0  0  0  0  0  0  0  0  0  0
   64.2452   33.6201   47.9961 H   0  0  0  0  0  0  0  0  0  0  0  0
   63.6180   32.9170   50.8030 H   0  0  0  0  0  0  0  0  0  0  0  0
   64.8273   31.2771   49.3150 H   0  0  0  0  0  0  0  0  0  0  0  0
   66.1786   32.4667   49.4187 H   0  0  0  0  0  0  0  0  0  0  0  0
   65.6656   30.4338   51.2487 H   0  0  0  0  0  0  0  0  0  0  0  0
   66.6570   31.9176   51.5520 H   0  0  0  0  0  0  0  0  0  0  0  0
   66.0232   32.8552   53.6228 H   0  0  0  0  0  0  0  0  0  0  0  0
   65.5526   33.8340   52.1779 H   0  0  0  0  0  0  0  0  0  0  0  0
   64.5035   34.2858   54.6263 H   0  0  0  0  0  0  0  0  0  0  0  0
   63.5584   34.5043   53.0910 H   0  0  0  0  0  0  0  0  0  0  0  0
   63.0430   32.0180   53.5170 H   0  0  0  0  0  0  0  0  0  0  0  0
   63.3730   32.4050   55.1250 H   0  0  0  0  0  0  0  0  0  0  0  0
   61.1036   32.7617   54.9680 H   0  0  0  0  0  0  0  0  0  0  0  0
   61.8017   34.4079   54.6882 H   0  0  0  0  0  0  0  0  0  0  0  0
   60.0618   32.9486   52.9773 H   0  0  0  0  0  0  0  0  0  0  0  0
   60.9404   34.5035   52.6372 H   0  0  0  0  0  0  0  0  0  0  0  0
   63.2516   29.5100   54.8459 H   0  0  0  0  0  0  0  0  0  0  0  0
   62.8800   28.4613   53.4357 H   0  0  0  0  0  0  0  0  0  0  0  0
   64.3636   29.4740   53.4357 H   0  0  0  0  0  0  0  0  0  0  0  0
   61.9584   28.2245   51.8111 H   0  0  0  0  0  0  0  0  0  0  0  0
   60.8133   28.1225   49.6057 H   0  0  0  0  0  0  0  0  0  0  0  0
   59.6912   29.2330   47.7639 H   0  0  0  0  0  0  0  0  0  0  0  0
   60.3207   33.6393   49.9795 H   0  0  0  0  0  0  0  0  0  0  0  0
   57.9801   33.9334   47.9710 H   0  0  0  0  0  0  0  0  0  0  0  0
   59.6256   34.6786   48.0683 H   0  0  0  0  0  0  0  0  0  0  0  0
   58.6248   34.6854   45.7465 H   0  0  0  0  0  0  0  0  0  0  0  0
   60.2089   33.8382   45.8745 H   0  0  0  0  0  0  0  0  0  0  0  0
   57.8176   33.4979   43.7640 H   0  0  0  0  0  0  0  0  0  0  0  0
   58.0839   29.2159   46.3953 H   0  0  0  0  0  0  0  0  0  0  0  0
   56.7179   29.2676   41.8138 H   0  0  0  0  0  0  0  0  0  0  0  0
   55.1798   29.6501   42.5905 H   0  0  0  0  0  0  0  0  0  0  0  0
  1  2  1  0
  2  3  1  0
  3  4  1  0
  4  5  1  0
  5  6  1  0
  6  7  1  0
  7  8  1  0
  8  9  1  0
  9 10  1  0
 10 11  1  0
 11 12  1  0
 12 13  1  0
 13 14  2  0
 14 15  1  0
 15 16  1  0
 14 17  1  0
 17 18  2  0
 18 19  1  0
 19 20  2  0
 20 21  1  0
 21 22  2  0
 22 23  1  0
 23 24  2  0
 22 25  1  0
 25 26  1  0
 26 27  1  0
 27 28  2  0
 28 29  1  0
 29 30  2  0
 30 31  1  0
 31 32  2  0
 30 33  1  0
 33 34  1  0
 34 35  1  0
 24 13  1  0
 32 27  1  0
 24 19  1  0
 35 29  1  0
 32 21  1  0
  1 36  1  0
  1 37  1  0
  1 38  1  0
  2 39  1  0
  2 40  1  0
  3 41  1  0
  4 42  1  0
  4 43  1  0
  5 44  1  0
  5 45  1  0
  7 46  1  0
  7 47  1  0
  8 48  1  0
  8 49  1  0
  9 50  1  0
  9 51  1  0
 10 52  1  0
 10 53  1  0
 11 54  1  0
 11 55  1  0
 16 56  1  0
 16 57  1  0
 16 58  1  0
 17 59  1  0
 18 60  1  0
 20 61  1  0
 23 62  1  0
 25 63  1  0
 25 64  1  0
 26 65  1  0
 26 66  1  0
 28 67  1  0
 31 68  1  0
 34 69  1  0
 34 70  1  0
M  CHG  2   9   1  22   1
M  END
>  <UniqueID>  (1) 
1

>  <SMILES>  (1) 
CCNCCOCC[NH2+]CCOc1c(OC)ccc2cc3[n+](cc12)CCc1cc2c(cc1-3)OCO2

>  <Energy>  (1) 
113.71019363142554

>  <Genealogy>  (1) 
CCNCCOCC[NH2+]CCOc1c(OC)ccc2cc3[n+](cc12)CCc1cc2c(cc1-3)OCO2 (protonated)
CCNCCOCC[NH2+]CCOc1c(OC)ccc2cc3[n+](cc12)CCc1cc2c(cc1-3)OCO2 (3D coordinates assigned)
CCNCCOCC[NH2+]CCOc1c(OC)ccc2cc3[n+](cc12)CCc1cc2c(cc1-3)OCO2 (nonaromatic ring conformer: 113.71019363142554 kcal/mol)

>  <smiles>  (1) 
CCNCCOCCNCCOc1c(OC)ccc2cc3[n+](cc12)CCc1cc2c(cc1-3)OCO2

>  <score_type>  (1) 
oracle

>  <origin>  (1) 
adg

>  <m_score__min__energy>  (1) 
-3.6800000000000002

>  <m_primary>  (1) 
energy

$$$$
1:0
     RDKit          3D

 49 50  0  0  0  0  0  0  0  0999 V2000
   63.2500   30.7960   50.5660 C   0  0  0  0  0  0  0  0  0  0  0  0
   61.8350   30.4300   50.1290 C   0  0  0  0  0  0  0  0  0  0  0  0
   61.3550   31.3350   49.0730 N   0  0  0  0  0  0  0  0  0  0  0  0
   62.0680   31.1360   47.7990 C   0  0  0  0  0  0  0  0  0  0  0  0
   62.4980   32.4460   47.1300 C   0  0  0  0  0  0  0  0  0  0  0  0
   62.2370   33.5350   47.9910 O   0  0  0  0  0  0  0  0  0  0  0  0
   63.3600   33.8040   48.8020 C   0  0  0  0  0  0  0  0  0  0  0  0
   62.9090   34.1090   50.2280 C   0  0  0  0  0  0  0  0  0  0  0  0
   61.4490   34.2480   50.2880 N   0  0  0  0  0  0  0  0  0  0  0  0
   60.8980   33.4210   51.3700 C   0  0  0  0  0  0  0  0  0  0  0  0
   59.5150   32.8820   50.9970 C   0  0  0  0  0  0  0  0  0  0  0  0
   59.3260   32.9720   49.6010 O   0  0  0  0  0  0  0  0  0  0  0  0
   59.1340   33.0820   48.2280 C   0  0  0  0  0  0  0  0  0  0  0  0
   59.3260   34.3180   47.5970 C   0  0  0  0  0  0  0  0  0  0  0  0
   59.0500   34.4650   46.2360 C   0  0  0  0  0  0  0  0  0  0  0  0
   58.5830   33.3700   45.4930 C   0  0  0  0  0  0  0  0  0  0  0  0
   58.2490   33.5140   44.1390 C   0  0  0  0  0  0  0  0  0  0  0  0
   57.7620   32.4200   43.4180 C   0  0  0  0  0  0  0  0  0  0  0  0
   57.6150   31.1760   44.0390 C   0  0  0  0  0  0  0  0  0  0  0  0
   57.9550   31.0170   45.3840 C   0  0  0  0  0  0  0  0  0  0  0  0
   58.4250   32.1100   46.1220 C   0  0  0  0  0  0  0  0  0  0  0  0
   58.7140   31.9740   47.4870 C   0  0  0  0  0  0  0  0  0  0  0  0
   63.3025   30.8096   51.6647 H   0  0  0  0  0  0  0  0  0  0  0  0
   63.9588   30.0516   50.1742 H   0  0  0  0  0  0  0  0  0  0  0  0
   63.5090   31.7907   50.1742 H   0  0  0  0  0  0  0  0  0  0  0  0
   61.8328   29.3987   49.7464 H   0  0  0  0  0  0  0  0  0  0  0  0
   61.1667   30.5220   50.9978 H   0  0  0  0  0  0  0  0  0  0  0  0
   60.3430   31.1510   48.8900 H   0  0  0  0  0  0  0  0  0  0  0  0
   61.4460   32.3290   49.3910 H   0  0  0  0  0  0  0  0  0  0  0  0
   62.9669   30.5325   47.9933 H   0  0  0  0  0  0  0  0  0  0  0  0
   61.3705   30.6347   47.1119 H   0  0  0  0  0  0  0  0  0  0  0  0
   63.5748   32.4061   46.9089 H   0  0  0  0  0  0  0  0  0  0  0  0
   61.9309   32.5787   46.1968 H   0  0  0  0  0  0  0  0  0  0  0  0
   64.0236   32.9267   48.8090 H   0  0  0  0  0  0  0  0  0  0  0  0
   63.8986   34.6740   48.3983 H   0  0  0  0  0  0  0  0  0  0  0  0
   63.2217   33.2879   50.8898 H   0  0  0  0  0  0  0  0  0  0  0  0
   63.3694   35.0541   50.5518 H   0  0  0  0  0  0  0  0  0  0  0  0
   61.0680   33.8960   49.3780 H   0  0  0  0  0  0  0  0  0  0  0  0
   61.5756   32.5749   51.5570 H   0  0  0  0  0  0  0  0  0  0  0  0
   60.8007   34.0428   52.2721 H   0  0  0  0  0  0  0  0  0  0  0  0
   59.4371   31.8300   51.3088 H   0  0  0  0  0  0  0  0  0  0  0  0
   58.7438   33.4783   51.5066 H   0  0  0  0  0  0  0  0  0  0  0  0
   59.6959   35.1768   48.1764 H   0  0  0  0  0  0  0  0  0  0  0  0
   59.1986   35.4388   45.7465 H   0  0  0  0  0  0  0  0  0  0  0  0
   58.3703   34.4887   43.6437 H   0  0  0  0  0  0  0  0  0  0  0  0
   57.4934   32.5383   42.3579 H   0  0  0  0  0  0  0  0  0  0  0  0
   57.2302   30.3195   43.4660 H   0  0  0  0  0  0  0  0  0  0  0  0
   57.8535   30.0324   45.8640 H   0  0  0  0  0  0  0  0  0  0  0  0
   58.6101   30.9939   47.9755 H   0  0  0  0  0  0  0  0  0  0  0  0
  1  2  1  0
  2  3  1  0
  3  4  1  0
  4  5  1  0
  5  6  1  0
  6  7  1  0
  7  8  1  0
  8  9  1  0
  9 10  1  0
 10 11  1  0
 11 12  1  0
 12 13  1  0
 13 14  2  0
 14 15  1  0
 15 16  2  0
 16 17  1  0
 17 18  2  0
 18 19  1  0
 19 20  2  0
 20 21  1  0
 21 22  2  0
 22 13  1  0
 21 16  1  0
  1 23  1  0
  1 24  1  0
  1 25  1  0
  2 26  1  0
  2 27  1  0
  3 28  1  0
  3 29  1  0
  4 30  1  0
  4 31  1  0
  5 32  1  0
  5 33  1  0
  7 34  1  0
  7 35  1  0
  8 36  1  0
  8 37  1  0
  9 38  1  0
 10 39  1  0
 10 40  1  0
 11 41  1  0
 11 42  1  0
 14 43  1  0
 15 44  1  0
 17 45  1  0
 18 46  1  0
 19 47  1  0
 20 48  1  0
 22 49  1  0
M  CHG  1   3   1
M  END
>  <UniqueID>  (2) 
2

>  <SMILES>  (2) 
CC[NH2+]CCOCCNCCOc1ccc2ccccc2c1

>  <Energy>  (2) 
96.92204377568794

>  <Genealogy>  (2) 
CC[NH2+]CCOCCNCCOc1ccc2ccccc2c1 (protonated)
CC[NH2+]CCOCCNCCOc1ccc2ccccc2c1 (3D coordinates assigned)
CC[NH2+]CCOCCNCCOc1ccc2ccccc2c1 (optimized conformer: 96.92204377568794 kcal/mol)

>  <smiles>  (2) 
CCNCCOCCNCCOc1ccc2ccccc2c1

>  <score_type>  (2) 
oracle

>  <origin>  (2) 
adg

>  <m_score__min__energy>  (2) 
-4.2599999999999998

>  <m_primary>  (2) 
energy

$$$$
2:0
     RDKit          3D

 82 85  0  0  0  0  0  0  0  0999 V2000
   59.3180   34.9600   47.3630 C   0  0  0  0  0  0  0  0  0  0  0  0
   59.9100   34.7020   45.9830 C   0  0  0  0  0  0  0  0  0  0  0  0
   58.8580   34.8000   44.9640 N   0  0  0  0  0  0  0  0  0  0  0  0
   58.3040   33.4850   44.6050 C   0  0  0  0  0  0  0  0  0  0  0  0
   57.1070   33.0870   45.4840 C   0  0  0  0  0  0  0  0  0  0  0  0
   56.3290   32.1040   44.8270 O   0  0  0  0  0  0  0  0  0  0  0  0
   57.0460   31.5450   43.7450 C   0  0  0  0  0  0  0  0  0  0  0  0
   57.5720   30.1700   44.1440 C   0  0  0  0  0  0  0  0  0  0  0  0
   57.1710   29.8320   45.5090 N   0  0  0  0  0  0  0  0  0  0  0  0
   58.0580   29.0980   46.3630 C   0  0  0  0  0  0  0  0  0  0  0  0
   57.9120   27.7100   46.5060 C   0  0  0  0  0  0  0  0  0  0  0  0
   56.9330   27.0100   45.7720 C   0  0  0  0  0  0  0  0  0  0  0  0
   56.8210   25.6260   45.8780 C   0  0  0  0  0  0  0  0  0  0  0  0
   57.6890   24.9180   46.7010 C   0  0  0  0  0  0  0  0  0  0  0  0
   58.6600   25.5920   47.4420 C   0  0  0  0  0  0  0  0  0  0  0  0
   58.7740   27.0050   47.3870 C   0  0  0  0  0  0  0  0  0  0  0  0
   59.7040   27.6920   48.1450 N   0  0  0  0  0  0  0  0  0  0  0  0
   60.3910   27.0140   49.2670 C   0  0  0  0  0  0  0  0  0  0  0  0
   59.9710   29.0220   47.8720 C   0  0  0  0  0  0  0  0  0  0  0  0
   61.0930   29.6890   48.4290 C   0  0  0  0  0  0  0  0  0  0  0  0
   61.3190   31.0570   48.1970 C   0  0  0  0  0  0  0  0  0  0  0  0
   62.4060   31.7550   48.7490 O   0  0  0  0  0  0  0  0  0  0  0  0
   63.0080   32.9340   48.2100 C   0  0  0  0  0  0  0  0  0  0  0  0
   64.4750   33.0990   48.6890 C   0  0  0  0  0  0  0  0  0  0  0  0
   64.6980   33.0290   50.1730 N   0  0  0  0  0  0  0  0  0  0  0  0
   63.7430   33.9270   50.8770 C   0  0  0  0  0  0  0  0  0  0  0  0
   64.4200   31.6180   50.6080 C   0  0  0  0  0  0  0  0  0  0  0  0
   65.2150   31.2200   51.8670 C   0  0  0  0  0  0  0  0  0  0  0  0
   66.6930   31.2450   51.6310 N   0  0  0  0  0  0  0  0  0  0  0  0
   67.1550   29.8960   51.2160 C   0  0  0  0  0  0  0  0  0  0  0  0
   67.3810   31.5900   52.9010 C   0  0  0  0  0  0  0  0  0  0  0  0
   67.0710   32.2340   50.5720 C   0  0  0  0  0  0  0  0  0  0  0  0
   66.1030   33.4330   50.5180 C   0  0  0  0  0  0  0  0  0  0  0  0
   60.4390   31.7640   47.3820 C   0  0  0  0  0  0  0  0  0  0  0  0
   59.3570   31.1240   46.7840 C   0  0  0  0  0  0  0  0  0  0  0  0
   59.1220   29.7540   47.0030 C   0  0  0  0  0  0  0  0  0  0  0  0
   60.0366   34.6468   48.1347 H   0  0  0  0  0  0  0  0  0  0  0  0
   59.1038   36.0331   47.4753 H   0  0  0  0  0  0  0  0  0  0  0  0
   58.3862   34.3864   47.4753 H   0  0  0  0  0  0  0  0  0  0  0  0
   60.6904   35.4488   45.7751 H   0  0  0  0  0  0  0  0  0  0  0  0
   60.3466   33.6926   45.9582 H   0  0  0  0  0  0  0  0  0  0  0  0
   58.0890   35.4150   45.3220 H   0  0  0  0  0  0  0  0  0  0  0  0
   57.9755   33.5158   43.5556 H   0  0  0  0  0  0  0  0  0  0  0  0
   59.0950   32.7367   44.7611 H   0  0  0  0  0  0  0  0  0  0  0  0
   57.4747   32.6824   46.4385 H   0  0  0  0  0  0  0  0  0  0  0  0
   56.4848   33.9749   45.6698 H   0  0  0  0  0  0  0  0  0  0  0  0
   56.3798   31.4452   42.8754 H   0  0  0  0  0  0  0  0  0  0  0  0
   57.8901   32.2007   43.4849 H   0  0  0  0  0  0  0  0  0  0  0  0
   57.1677   29.4157   43.4530 H   0  0  0  0  0  0  0  0  0  0  0  0
   58.6708   30.1872   44.0954 H   0  0  0  0  0  0  0  0  0  0  0  0
   56.2140   30.0620   45.8610 H   0  0  0  0  0  0  0  0  0  0  0  0
   56.2509   27.5624   45.1090 H   0  0  0  0  0  0  0  0  0  0  0  0
   56.0448   25.0925   45.3098 H   0  0  0  0  0  0  0  0  0  0  0  0
   57.6100   23.8229   46.7682 H   0  0  0  0  0  0  0  0  0  0  0  0
   59.3487   25.0183   48.0796 H   0  0  0  0  0  0  0  0  0  0  0  0
   60.0016   27.3983   50.2213 H   0  0  0  0  0  0  0  0  0  0  0  0
   60.2101   25.9306   49.2068 H   0  0  0  0  0  0  0  0  0  0  0  0
   61.4719   27.2092   49.2068 H   0  0  0  0  0  0  0  0  0  0  0  0
   61.7999   29.1244   49.0547 H   0  0  0  0  0  0  0  0  0  0  0  0
   62.9964   32.8702   47.1119 H   0  0  0  0  0  0  0  0  0  0  0  0
   62.4328   33.8038   48.5601 H   0  0  0  0  0  0  0  0  0  0  0  0
   65.0727   32.3026   48.2215 H   0  0  0  0  0  0  0  0  0  0  0  0
   64.7692   34.1170   48.3939 H   0  0  0  0  0  0  0  0  0  0  0  0
   63.8651   33.8122   51.9641 H   0  0  0  0  0  0  0  0  0  0  0  0
   63.9442   34.9707   50.5936 H   0  0  0  0  0  0  0  0  0  0  0  0
   62.7137   33.6620   50.5936 H   0  0  0  0  0  0  0  0  0  0  0  0
   63.3458   31.5208   50.8239 H   0  0  0  0  0  0  0  0  0  0  0  0
   64.7310   30.9496   49.7916 H   0  0  0  0  0  0  0  0  0  0  0  0
   64.9731   31.9243   52.6766 H   0  0  0  0  0  0  0  0  0  0  0  0
   64.9321   30.1913   52.1351 H   0  0  0  0  0  0  0  0  0  0  0  0
   67.3630   29.2888   52.1093 H   0  0  0  0  0  0  0  0  0  0  0  0
   66.3724   29.4090   50.6156 H   0  0  0  0  0  0  0  0  0  0  0  0
   68.0718   29.9910   50.6156 H   0  0  0  0  0  0  0  0  0  0  0  0
   66.7580   31.2776   53.7521 H   0  0  0  0  0  0  0  0  0  0  0  0
   68.3499   31.0711   52.9458 H   0  0  0  0  0  0  0  0  0  0  0  0
   67.5447   32.6768   52.9458 H   0  0  0  0  0  0  0  0  0  0  0  0
   68.0844   32.6068   50.7818 H   0  0  0  0  0  0  0  0  0  0  0  0
   67.0248   31.7204   49.6003 H   0  0  0  0  0  0  0  0  0  0  0  0
   66.0962   33.9243   51.5021 H   0  0  0  0  0  0  0  0  0  0  0  0
   66.4574   34.1106   49.7273 H   0  0  0  0  0  0  0  0  0  0  0  0
   60.6002   32.8383   47.2090 H   0  0  0  0  0  0  0  0  0  0  0  0
   58.6785   31.6953   46.1334 H   0  0  0  0  0  0  0  0  0  0  0  0
  1  2  1  0
  2  3  1  0
  3  4  1  0
  4  5  1  0
  5  6  1  0
  6  7  1  0
  7  8  1  0
  8  9  1  0
  9 10  1  0
 10 11  2  0
 11 12  1  0
 12 13  2  0
 13 14  1  0
 14 15  2  0
 15 16  1  0
 16 17  2  0
 17 18  1  0
 17 19  1  0
 19 20  2  0
 20 21  1  0
 21 22  1  0
 22 23  1  0
 23 24  1  0
 24 25  1  0
 25 26  1  0
 25 27  1  0
 27 28  1  0
 28 29  1  0
 29 30  1  0
 29 31  1  0
 29 32  1  0
 32 33  1  0
 21 34  2  0
 34 35  1  0
 35 36  2  0
 36 10  1  0
 16 11  1  0
 36 19  1  0
 33 25  1  0
  1 37  1  0
  1 38  1  0
  1 39  1  0
  2 40  1  0
  2 41  1  0
  3 42  1  0
  4 43  1  0
  4 44  1  0
  5 45  1  0
  5 46  1  0
  7 47  1  0
  7 48  1  0
  8 49  1  0
  8 50  1  0
  9 51  1  0
 12 52  1  0
 13 53  1  0
 14 54  1  0
 15 55  1  0
 18 56  1  0
 18 57  1  0
 18 58  1  0
 20 59  1  0
 23 60  1  0
 23 61  1  0
 24 62  1  0
 24 63  1  0
 26 64  1  0
 26 65  1  0
 26 66  1  0
 27 67  1  0
 27 68  1  0
 28 69  1  0
 28 70  1  0
 30 71  1  0
 30 72  1  0
 30 73  1  0
 31 74  1  0
 31 75  1  0
 31 76  1  0
 32 77  1  0
 32 78  1  0
 33 79  1  0
 33 80  1  0
 34 81  1  0
 35 82  1  0
M  CHG  3  17   1  25   1  29   1
M  END
>  <UniqueID>  (3) 
3

>  <SMILES>  (3) 
CCNCCOCCNc1c2ccccc2[n+](C)c2cc(OCC[N+]3(C)CC[N+](C)(C)CC3)ccc12

>  <Energy>  (3) 
132.5919555117552

>  <Genealogy>  (3) 
CCNCCOCCNc1c2ccccc2[n+](C)c2cc(OCC[N+]3(C)CC[N+](C)(C)CC3)ccc12 (3D coordinates assigned)
CCNCCOCCNc1c2ccccc2[n+](C)c2cc(OCC[N+]3(C)CC[N+](C)(C)CC3)ccc12 (nonaromatic ring conformer: 132.5919555117552 kcal/mol)

>  <smiles>  (3) 
CCNCCOCCNc1c2ccccc2[n+](C)c2cc(OCC[N+]3(C)CC[N+](C)(C)CC3)ccc12

>  <score_type>  (3) 
oracle

>  <origin>  (3) 
adg

>  <m_score__min__energy>  (3) 
-5.0099999999999998

>  <m_primary>  (3) 
energy

$$$$
3:0
     RDKit          3D

 71 74  0  0  0  0  0  0  0  0999 V2000
   59.1210   22.1970   44.6530 C   0  0  0  0  0  0  0  0  0  0  0  0
   57.9580   21.6480   43.8280 C   0  0  0  0  0  0  0  0  0  0  0  0
   56.9590   22.7350   43.3850 C   0  0  0  0  0  0  0  0  0  0  0  0
   57.3320   24.1760   43.7970 C   0  0  0  0  0  0  0  0  0  0  0  0
   56.4370   24.7700   44.9000 C   0  0  0  0  0  0  0  0  0  0  0  0
   57.1510   25.7760   45.7650 C   0  0  0  0  0  0  0  0  0  0  0  0
   56.9170   27.1490   45.5960 C   0  0  0  0  0  0  0  0  0  0  0  0
   57.6030   28.0840   46.3770 C   0  0  0  0  0  0  0  0  0  0  0  0
   58.5220   27.6640   47.3530 C   0  0  0  0  0  0  0  0  0  0  0  0
   59.2500   28.6270   48.1460 N   0  0  0  0  0  0  0  0  0  0  0  0
   59.0940   30.0620   47.8650 C   0  0  0  0  0  0  0  0  0  0  0  0
   59.6610   30.9040   49.0120 C   0  0  0  0  0  0  0  0  0  0  0  0
   61.0570   30.5070   49.2970 N   0  0  0  0  0  0  0  0  0  0  0  0
   61.7170   31.3690   50.3140 C   0  0  0  0  0  0  0  0  0  0  0  0
   61.9310   32.8590   49.9320 C   0  0  0  0  0  0  0  0  0  0  0  0
   61.1870   33.2830   48.7300 N   0  0  0  0  0  0  0  0  0  0  0  0
   60.0930   34.2150   48.8560 C   0  0  0  0  0  0  0  0  0  0  0  0
   59.6450   34.5210   49.9930 O   0  0  0  0  0  0  0  0  0  0  0  0
   59.5310   34.9160   47.6510 C   0  0  0  0  0  0  0  0  0  0  0  0
   59.6340   34.0540   46.3720 C   0  0  0  0  0  0  0  0  0  0  0  0
   58.6700   32.8530   46.3930 C   0  0  0  0  0  0  0  0  0  0  0  0
   58.2190   32.6250   44.9510 C   0  0  0  0  0  0  0  0  0  0  0  0
   58.6490   33.8460   44.1460 C   0  0  0  0  0  0  0  0  0  0  0  0
   59.1700   34.8620   45.1510 C   0  0  0  0  0  0  0  0  0  0  0  0
   61.1020   33.5930   46.1810 C   0  0  0  0  0  0  0  0  0  0  0  0
   61.6610   32.9310   47.4100 C   0  0  0  0  0  0  0  0  0  0  0  0
   62.6080   32.1120   47.2680 O   0  0  0  0  0  0  0  0  0  0  0  0
   61.2440   29.0500   49.5570 C   0  0  0  0  0  0  0  0  0  0  0  0
   59.9730   28.2060   49.3540 C   0  0  0  0  0  0  0  0  0  0  0  0
   58.7400   26.2850   47.5320 C   0  0  0  0  0  0  0  0  0  0  0  0
   58.0590   25.3500   46.7460 C   0  0  0  0  0  0  0  0  0  0  0  0
   58.8937   22.0897   45.7239 H   0  0  0  0  0  0  0  0  0  0  0  0
   60.0367   21.6361   44.4145 H   0  0  0  0  0  0  0  0  0  0  0  0
   59.2699   23.2605   44.4145 H   0  0  0  0  0  0  0  0  0  0  0  0
   58.3660   21.1616   42.9297 H   0  0  0  0  0  0  0  0  0  0  0  0
   57.4089   20.9418   44.4681 H   0  0  0  0  0  0  0  0  0  0  0  0
   56.8849   22.7028   42.2880 H   0  0  0  0  0  0  0  0  0  0  0  0
   56.0118   22.5063   43.8954 H   0  0  0  0  0  0  0  0  0  0  0  0
   58.3704   24.1729   44.1600 H   0  0  0  0  0  0  0  0  0  0  0  0
   57.1934   24.8050   42.9053 H   0  0  0  0  0  0  0  0  0  0  0  0
   55.5777   25.2652   44.4243 H   0  0  0  0  0  0  0  0  0  0  0  0
   56.1264   23.9400   45.5517 H   0  0  0  0  0  0  0  0  0  0  0  0
   56.1899   27.4917   44.8450 H   0  0  0  0  0  0  0  0  0  0  0  0
   57.4215   29.1583   46.2259 H   0  0  0  0  0  0  0  0  0  0  0  0
   59.6305   30.3084   46.9369 H   0  0  0  0  0  0  0  0  0  0  0  0
   58.0225   30.2866   47.7581 H   0  0  0  0  0  0  0  0  0  0  0  0
   59.6362   31.9667   48.7290 H   0  0  0  0  0  0  0  0  0  0  0  0
   59.0508   30.7402   49.9125 H   0  0  0  0  0  0  0  0  0  0  0  0
   61.5820   30.7050   48.4100 H   0  0  0  0  0  0  0  0  0  0  0  0
   61.0995   31.3435   51.2240 H   0  0  0  0  0  0  0  0  0  0  0  0
   62.7283   30.9529   50.4334 H   0  0  0  0  0  0  0  0  0  0  0  0
   61.6065   33.4830   50.7778 H   0  0  0  0  0  0  0  0  0  0  0  0
   63.0003   32.9787   49.7033 H   0  0  0  0  0  0  0  0  0  0  0  0
   58.4719   35.1472   47.8378 H   0  0  0  0  0  0  0  0  0  0  0  0
   60.1186   35.8316   47.4889 H   0  0  0  0  0  0  0  0  0  0  0  0
   59.1861   31.9596   46.7743 H   0  0  0  0  0  0  0  0  0  0  0  0
   57.8096   33.0484   47.0499 H   0  0  0  0  0  0  0  0  0  0  0  0
   58.6949   31.7198   44.5459 H   0  0  0  0  0  0  0  0  0  0  0  0
   57.1288   32.4876   44.8999 H   0  0  0  0  0  0  0  0  0  0  0  0
   59.4427   33.5727   43.4352 H   0  0  0  0  0  0  0  0  0  0  0  0
   57.8101   34.2553   43.5640 H   0  0  0  0  0  0  0  0  0  0  0  0
   60.0127   35.4248   44.7230 H   0  0  0  0  0  0  0  0  0  0  0  0
   58.3937   35.5921   45.4236 H   0  0  0  0  0  0  0  0  0  0  0  0
   61.1417   32.8780   45.3460 H   0  0  0  0  0  0  0  0  0  0  0  0
   61.7096   34.4868   45.9765 H   0  0  0  0  0  0  0  0  0  0  0  0
   62.0205   28.6744   48.8744 H   0  0  0  0  0  0  0  0  0  0  0  0
   61.5242   28.9507   50.6161 H   0  0  0  0  0  0  0  0  0  0  0  0
   60.2559   27.1477   49.2537 H   0  0  0  0  0  0  0  0  0  0  0  0
   59.3150   28.3476   50.2241 H   0  0  0  0  0  0  0  0  0  0  0  0
   59.4518   25.9399   48.2964 H   0  0  0  0  0  0  0  0  0  0  0  0
   58.2362   24.2750   46.8977 H   0  0  0  0  0  0  0  0  0  0  0  0
  1  2  1  0
  2  3  1  0
  3  4  1  0
  4  5  1  0
  5  6  1  0
  6  7  2  0
  7  8  1  0
  8  9  2  0
  9 10  1  0
 10 11  1  0
 11 12  1  0
 12 13  1  0
 13 14  1  0
 14 15  1  0
 15 16  1  0
 16 17  1  0
 17 18  2  0
 17 19  1  0
 19 20  1  0
 20 21  1  0
 21 22  1  0
 22 23  1  0
 23 24  1  0
 20 25  1  0
 25 26  1  0
 26 27  2  0
 13 28  1  0
 28 29  1  0
  9 30  1  0
 30 31  2  0
 31  6  1  0
 29 10  1  0
 26 16  1  0
 24 20  1  0
  1 32  1  0
  1 33  1  0
  1 34  1  0
  2 35  1  0
  2 36  1  0
  3 37  1  0
  3 38  1  0
  4 39  1  0
  4 40  1  0
  5 41  1  0
  5 42  1  0
  7 43  1  0
  8 44  1  0
 11 45  1  0
 11 46  1  0
 12 47  1  0
 12 48  1  0
 13 49  1  0
 14 50  1  0
 14 51  1  0
 15 52  1  0
 15 53  1  0
 19 54  1  0
 19 55  1  0
 21 56  1  0
 21 57  1  0
 22 58  1  0
 22 59  1  0
 23 60  1  0
 23 61  1  0
 24 62  1  0
 24 63  1  0
 25 64  1  0
 25 65  1  0
 28 66  1  0
 28 67  1  0
 29 68  1  0
 29 69  1  0
 30 70  1  0
 31 71  1  0
M  CHG  1  13   1
M  END
>  <UniqueID>  (4) 
4

>  <SMILES>  (4) 
CCCCCc1ccc(N2CC[NH+](CCN3C(=O)CC4(CCCC4)CC3=O)CC2)cc1

>  <Energy>  (4) 
81.97405747532471

>  <Genealogy>  (4) 
CCCCCc1ccc(N2CC[NH+](CCN3C(=O)CC4(CCCC4)CC3=O)CC2)cc1 (protonated)
CCCCCc1ccc(N2CC[NH+](CCN3C(=O)CC4(CCCC4)CC3=O)CC2)cc1 (3D coordinates assigned)
CCCCCc1ccc(N2CC[NH+](CCN3C(=O)CC4(CCCC4)CC3=O)CC2)cc1 (nonaromatic ring conformer: 81.97405747532471 kcal/mol)

>  <smiles>  (4) 
CCCCCc1ccc(N2CCN(CCN3C(=O)CC4(CCCC4)CC3=O)CC2)cc1

>  <score_type>  (4) 
oracle

>  <origin>  (4) 
adg

>  <m_score__min__energy>  (4) 
-7.0999999999999996

>  <m_primary>  (4) 
energy

$$$$
4:0
     RDKit          3D

 65 68  0  0  0  0  0  0  0  0999 V2000
   63.3450   33.8570   46.3940 C   0  0  0  0  0  0  0  0  0  0  0  0
   63.2650   32.6400   47.3110 C   0  0  0  0  0  0  0  0  0  0  0  0
   63.3720   33.0360   48.7270 N   0  0  0  0  0  0  0  0  0  0  0  0
   62.6200   34.2100   49.2040 C   0  0  0  0  0  0  0  0  0  0  0  0
   61.6680   33.8550   50.3500 C   0  0  0  0  0  0  0  0  0  0  0  0
   60.3330   33.8480   49.8830 O   0  0  0  0  0  0  0  0  0  0  0  0
   59.5740   32.8130   50.4820 C   0  0  0  0  0  0  0  0  0  0  0  0
   59.5080   31.5360   49.6240 C   0  0  0  0  0  0  0  0  0  0  0  0
   60.4960   31.5140   48.5240 N   0  0  0  0  0  0  0  0  0  0  0  0
   59.8710   31.4060   47.2110 C   0  0  0  0  0  0  0  0  0  0  0  0
   59.5090   32.5810   46.4950 C   0  0  0  0  0  0  0  0  0  0  0  0
   59.8350   33.8760   46.9740 C   0  0  0  0  0  0  0  0  0  0  0  0
   59.5260   35.0160   46.2390 C   0  0  0  0  0  0  0  0  0  0  0  0
   58.8980   34.9010   45.0090 C   0  0  0  0  0  0  0  0  0  0  0  0
   58.5420   33.6470   44.5220 C   0  0  0  0  0  0  0  0  0  0  0  0
   58.8030   32.4660   45.2660 C   0  0  0  0  0  0  0  0  0  0  0  0
   58.3930   31.2310   44.8120 N   0  0  0  0  0  0  0  0  0  0  0  0
   57.3810   31.1420   43.7340 C   0  0  0  0  0  0  0  0  0  0  0  0
   58.9030   30.0810   45.3760 C   0  0  0  0  0  0  0  0  0  0  0  0
   58.7360   28.8210   44.7470 C   0  0  0  0  0  0  0  0  0  0  0  0
   59.1910   27.6510   45.3440 C   0  0  0  0  0  0  0  0  0  0  0  0
   59.8420   27.7010   46.5660 C   0  0  0  0  0  0  0  0  0  0  0  0
   60.0660   28.9250   47.1880 C   0  0  0  0  0  0  0  0  0  0  0  0
   59.6220   30.1410   46.6070 C   0  0  0  0  0  0  0  0  0  0  0  0
   64.2560   32.3250   49.6300 C   0  0  0  0  0  0  0  0  0  0  0  0
   65.6040   32.7030   49.7660 C   0  0  0  0  0  0  0  0  0  0  0  0
   66.4570   32.0030   50.6260 C   0  0  0  0  0  0  0  0  0  0  0  0
   65.9850   30.9140   51.3650 C   0  0  0  0  0  0  0  0  0  0  0  0
   66.8830   30.2360   52.2020 O   0  0  0  0  0  0  0  0  0  0  0  0
   67.5800   29.0490   51.8370 C   0  0  0  0  0  0  0  0  0  0  0  0
   64.6350   30.5390   51.2440 C   0  0  0  0  0  0  0  0  0  0  0  0
   63.7820   31.2390   50.3880 C   0  0  0  0  0  0  0  0  0  0  0  0
   63.4051   34.7713   47.0026 H   0  0  0  0  0  0  0  0  0  0  0  0
   64.2400   33.7796   45.7592 H   0  0  0  0  0  0  0  0  0  0  0  0
   62.4476   33.8974   45.7592 H   0  0  0  0  0  0  0  0  0  0  0  0
   62.3023   32.1323   47.1515 H   0  0  0  0  0  0  0  0  0  0  0  0
   64.1010   31.9662   47.0720 H   0  0  0  0  0  0  0  0  0  0  0  0
   63.3334   34.9691   49.5572 H   0  0  0  0  0  0  0  0  0  0  0  0
   62.0165   34.5901   48.3665 H   0  0  0  0  0  0  0  0  0  0  0  0
   61.9229   32.8587   50.7404 H   0  0  0  0  0  0  0  0  0  0  0  0
   61.7680   34.6046   51.1489 H   0  0  0  0  0  0  0  0  0  0  0  0
   60.0301   32.5604   51.4506 H   0  0  0  0  0  0  0  0  0  0  0  0
   58.5450   33.1850   50.5949 H   0  0  0  0  0  0  0  0  0  0  0  0
   59.6923   30.6688   50.2752 H   0  0  0  0  0  0  0  0  0  0  0  0
   58.5095   31.5064   49.1634 H   0  0  0  0  0  0  0  0  0  0  0  0
   61.1360   30.6980   48.6610 H   0  0  0  0  0  0  0  0  0  0  0  0
   61.1590   32.3160   48.5940 H   0  0  0  0  0  0  0  0  0  0  0  0
   60.3416   33.9806   47.9448 H   0  0  0  0  0  0  0  0  0  0  0  0
   59.7806   36.0103   46.6348 H   0  0  0  0  0  0  0  0  0  0  0  0
   58.6806   35.8022   44.4169 H   0  0  0  0  0  0  0  0  0  0  0  0
   58.0489   33.5691   43.5418 H   0  0  0  0  0  0  0  0  0  0  0  0
   56.3786   31.0538   44.1784 H   0  0  0  0  0  0  0  0  0  0  0  0
   57.4277   32.0477   43.1115 H   0  0  0  0  0  0  0  0  0  0  0  0
   57.5851   30.2583   43.1115 H   0  0  0  0  0  0  0  0  0  0  0  0
   58.2369   28.7685   43.7681 H   0  0  0  0  0  0  0  0  0  0  0  0
   59.0339   26.6833   44.8451 H   0  0  0  0  0  0  0  0  0  0  0  0
   60.1823   26.7712   47.0452 H   0  0  0  0  0  0  0  0  0  0  0  0
   60.5984   28.9507   48.1502 H   0  0  0  0  0  0  0  0  0  0  0  0
   65.9911   33.5570   49.1908 H   0  0  0  0  0  0  0  0  0  0  0  0
   67.5083   32.3121   50.7216 H   0  0  0  0  0  0  0  0  0  0  0  0
   67.8941   28.5142   52.7455 H   0  0  0  0  0  0  0  0  0  0  0  0
   66.9177   28.4032   51.2418 H   0  0  0  0  0  0  0  0  0  0  0  0
   68.4667   29.3128   51.2418 H   0  0  0  0  0  0  0  0  0  0  0  0
   64.2488   29.6897   51.8267 H   0  0  0  0  0  0  0  0  0  0  0  0
   62.7273   30.9376   50.3056 H   0  0  0  0  0  0  0  0  0  0  0  0
  1  2  1  0
  2  3  1  0
  3  4  1  0
  4  5  1  0
  5  6  1  0
  6  7  1  0
  7  8  1  0
  8  9  1  0
  9 10  1  0
 10 11  1  0
 11 12  2  0
 12 13  1  0
 13 14  2  0
 14 15  1  0
 15 16  2  0
 16 17  1  0
 17 18  1  0
 17 19  2  0
 19 20  1  0
 20 21  2  0
 21 22  1  0
 22 23  2  0
 23 24  1  0
  3 25  1  0
 25 26  2  0
 26 27  1  0
 27 28  2  0
 28 29  1  0
 29 30  1  0
 28 31  1  0
 31 32  2  0
 24 10  2  0
 32 25  1  0
 16 11  1  0
 24 19  1  0
  1 33  1  0
  1 34  1  0
  1 35  1  0
  2 36  1  0
  2 37  1  0
  4 38  1  0
  4 39  1  0
  5 40  1  0
  5 41  1  0
  7 42  1  0
  7 43  1  0
  8 44  1  0
  8 45  1  0
  9 46  1  0
  9 47  1  0
 12 48  1  0
 13 49  1  0
 14 50  1  0
 15 51  1  0
 18 52  1  0
 18 53  1  0
 18 54  1  0
 20 55  1  0
 21 56  1  0
 22 57  1  0
 23 58  1  0
 26 59  1  0
 27 60  1  0
 30 61  1  0
 30 62  1  0
 30 63  1  0
 31 64  1  0
 32 65  1  0
M  CHG  2   9   1  17   1
M  END
>  <UniqueID>  (5) 
5

>  <SMILES>  (5) 
CCN(CCOCC[NH2+]c1c2ccccc2[n+](C)c2ccccc12)c1ccc(OC)cc1

>  <Energy>  (5) 
97.53581739425888

>  <Genealogy>  (5) 
CCN(CCOCC[NH2+]c1c2ccccc2[n+](C)c2ccccc12)c1ccc(OC)cc1 (protonated)
CCN(CCOCC[NH2+]c1c2ccccc2[n+](C)c2ccccc12)c1ccc(OC)cc1 (3D coordinates assigned)
CCN(CCOCC[NH2+]c1c2ccccc2[n+](C)c2ccccc12)c1ccc(OC)cc1 (optimized conformer: 97.53581739425888 kcal/mol)

>  <smiles>  (5) 
CCN(CCOCCNc1c2ccccc2[n+](C)c2ccccc12)c1ccc(OC)cc1

>  <score_type>  (5) 
oracle

>  <origin>  (5) 
adg

>  <m_score__min__energy>  (5) 
-4.9299999999999997

>  <m_primary>  (5) 
energy

$$$$
5:0
     RDKit          3D

 73 76  0  0  0  0  0  0  0  0999 V2000
   57.7350   34.5900   44.9430 C   0  0  0  0  0  0  0  0  0  0  0  0
   59.2560   34.5910   44.7590 C   0  0  0  0  0  0  0  0  0  0  0  0
   59.9780   34.3000   46.0070 N   0  0  0  0  0  0  0  0  0  0  0  0
   59.3420   34.9210   47.1770 C   0  0  0  0  0  0  0  0  0  0  0  0
   59.0940   33.8580   48.2520 C   0  0  0  0  0  0  0  0  0  0  0  0
   58.5420   32.5660   47.6380 C   0  0  0  0  0  0  0  0  0  0  0  0
   59.5940   31.7170   47.0370 N   0  0  0  0  0  0  0  0  0  0  0  0
   59.0910   30.4100   46.6210 C   0  0  0  0  0  0  0  0  0  0  0  0
   58.3180   30.3210   45.4200 C   0  0  0  0  0  0  0  0  0  0  0  0
   58.0100   31.4670   44.6370 C   0  0  0  0  0  0  0  0  0  0  0  0
   57.2910   31.3640   43.4500 C   0  0  0  0  0  0  0  0  0  0  0  0
   56.8670   30.1260   42.9980 C   0  0  0  0  0  0  0  0  0  0  0  0
   57.1410   28.9860   43.7420 C   0  0  0  0  0  0  0  0  0  0  0  0
   57.8430   29.0590   44.9750 C   0  0  0  0  0  0  0  0  0  0  0  0
   58.0940   27.9260   45.7100 N   0  0  0  0  0  0  0  0  0  0  0  0
   57.3440   26.6800   45.4250 C   0  0  0  0  0  0  0  0  0  0  0  0
   59.0250   27.9500   46.7240 C   0  0  0  0  0  0  0  0  0  0  0  0
   59.5860   26.7400   47.1950 C   0  0  0  0  0  0  0  0  0  0  0  0
   60.4600   26.7190   48.2640 C   0  0  0  0  0  0  0  0  0  0  0  0
   60.7680   27.8900   48.9280 C   0  0  0  0  0  0  0  0  0  0  0  0
   60.2520   29.1250   48.4960 C   0  0  0  0  0  0  0  0  0  0  0  0
   60.4720   30.2690   49.2830 O   0  0  0  0  0  0  0  0  0  0  0  0
   61.3850   30.3990   50.3750 C   0  0  0  0  0  0  0  0  0  0  0  0
   61.8930   31.8590   50.4700 C   0  0  0  0  0  0  0  0  0  0  0  0
   63.0860   32.2000   49.6240 N   0  0  0  0  0  0  0  0  0  0  0  0
   64.3260   31.6870   50.2670 C   0  0  0  0  0  0  0  0  0  0  0  0
   63.2110   33.6900   49.4440 C   0  0  0  0  0  0  0  0  0  0  0  0
   62.4630   34.2140   48.2080 C   0  0  0  0  0  0  0  0  0  0  0  0
   63.0460   33.6130   46.9210 C   0  0  0  0  0  0  0  0  0  0  0  0
   63.6280   32.2060   47.1400 C   0  0  0  0  0  0  0  0  0  0  0  0
   62.9170   31.4940   48.3040 C   0  0  0  0  0  0  0  0  0  0  0  0
   59.4570   29.1890   47.2960 C   0  0  0  0  0  0  0  0  0  0  0  0
   57.4955   34.5898   46.0166 H   0  0  0  0  0  0  0  0  0  0  0  0
   57.3081   35.4879   44.4722 H   0  0  0  0  0  0  0  0  0  0  0  0
   57.3093   33.6916   44.4722 H   0  0  0  0  0  0  0  0  0  0  0  0
   59.5209   33.8275   44.0128 H   0  0  0  0  0  0  0  0  0  0  0  0
   59.5508   35.5988   44.4314 H   0  0  0  0  0  0  0  0  0  0  0  0
   60.9620   34.6500   45.9290 H   0  0  0  0  0  0  0  0  0  0  0  0
   60.0022   35.7028   47.5807 H   0  0  0  0  0  0  0  0  0  0  0  0
   58.3827   35.3679   46.8770 H   0  0  0  0  0  0  0  0  0  0  0  0
   60.0428   33.6358   48.7624 H   0  0  0  0  0  0  0  0  0  0  0  0
   58.3526   34.2494   48.9641 H   0  0  0  0  0  0  0  0  0  0  0  0
   58.0358   31.9910   48.4274 H   0  0  0  0  0  0  0  0  0  0  0  0
   57.8505   32.8535   46.8323 H   0  0  0  0  0  0  0  0  0  0  0  0
   59.9810   32.2070   46.2000 H   0  0  0  0  0  0  0  0  0  0  0  0
   60.4430   31.6870   47.6310 H   0  0  0  0  0  0  0  0  0  0  0  0
   58.3476   32.4572   44.9770 H   0  0  0  0  0  0  0  0  0  0  0  0
   57.0589   32.2688   42.8692 H   0  0  0  0  0  0  0  0  0  0  0  0
   56.3137   30.0455   42.0507 H   0  0  0  0  0  0  0  0  0  0  0  0
   56.8077   28.0063   43.3691 H   0  0  0  0  0  0  0  0  0  0  0  0
   57.0556   26.2008   46.3722 H   0  0  0  0  0  0  0  0  0  0  0  0
   56.4404   26.9203   44.8456 H   0  0  0  0  0  0  0  0  0  0  0  0
   57.9794   25.9940   44.8456 H   0  0  0  0  0  0  0  0  0  0  0  0
   59.3202   25.7949   46.6989 H   0  0  0  0  0  0  0  0  0  0  0  0
   60.9110   25.7691   48.5867 H   0  0  0  0  0  0  0  0  0  0  0  0
   61.4269   27.8564   49.8082 H   0  0  0  0  0  0  0  0  0  0  0  0
   60.8740   30.1295   51.3111 H   0  0  0  0  0  0  0  0  0  0  0  0
   62.2416   29.7287   50.2111 H   0  0  0  0  0  0  0  0  0  0  0  0
   61.0680   32.5220   50.1704 H   0  0  0  0  0  0  0  0  0  0  0  0
   62.2222   31.9900   51.5114 H   0  0  0  0  0  0  0  0  0  0  0  0
   64.2174   31.7319   51.3607 H   0  0  0  0  0  0  0  0  0  0  0  0
   64.4953   30.6450   49.9578 H   0  0  0  0  0  0  0  0  0  0  0  0
   65.1819   32.3049   49.9578 H   0  0  0  0  0  0  0  0  0  0  0  0
   62.8020   34.1858   50.3367 H   0  0  0  0  0  0  0  0  0  0  0  0
   64.2783   33.9141   49.3003 H   0  0  0  0  0  0  0  0  0  0  0  0
   61.4010   33.9382   48.2857 H   0  0  0  0  0  0  0  0  0  0  0  0
   62.5732   35.3077   48.1672 H   0  0  0  0  0  0  0  0  0  0  0  0
   62.2474   33.5512   46.1671 H   0  0  0  0  0  0  0  0  0  0  0  0
   63.8661   34.2663   46.5882 H   0  0  0  0  0  0  0  0  0  0  0  0
   63.4966   31.6148   46.2218 H   0  0  0  0  0  0  0  0  0  0  0  0
   64.6960   32.3012   47.3855 H   0  0  0  0  0  0  0  0  0  0  0  0
   61.8429   31.4353   48.0740 H   0  0  0  0  0  0  0  0  0  0  0  0
   63.3731   30.4982   48.4054 H   0  0  0  0  0  0  0  0  0  0  0  0
  1  2  1  0
  2  3  1  0
  3  4  1  0
  4  5  1  0
  5  6  1  0
  6  7  1  0
  7  8  1  0
  8  9  2  0
  9 10  1  0
 10 11  2  0
 11 12  1  0
 12 13  2  0
 13 14  1  0
 14 15  2  0
 15 16  1  0
 15 17  1  0
 17 18  2  0
 18 19  1  0
 19 20  2  0
 20 21  1  0
 21 22  1  0
 22 23  1  0
 23 24  1  0
 24 25  1  0
 25 26  1  0
 25 27  1  0
 27 28  1  0
 28 29  1  0
 29 30  1  0
 30 31  1  0
 21 32  2  0
 32  8  1  0
 14  9  1  0
 32 17  1  0
 31 25  1  0
  1 33  1  0
  1 34  1  0
  1 35  1  0
  2 36  1  0
  2 37  1  0
  3 38  1  0
  4 39  1  0
  4 40  1  0
  5 41  1  0
  5 42  1  0
  6 43  1  0
  6 44  1  0
  7 45  1  0
  7 46  1  0
 10 47  1  0
 11 48  1  0
 12 49  1  0
 13 50  1  0
 16 51  1  0
 16 52  1  0
 16 53  1  0
 18 54  1  0
 19 55  1  0
 20 56  1  0
 23 57  1  0
 23 58  1  0
 24 59  1  0
 24 60  1  0
 26 61  1  0
 26 62  1  0
 26 63  1  0
 27 64  1  0
 27 65  1  0
 28 66  1  0
 28 67  1  0
 29 68  1  0
 29 69  1  0
 30 70  1  0
 30 71  1  0
 31 72  1  0
 31 73  1  0
M  CHG  3   7   1  15   1  25   1
M  END
>  <UniqueID>  (6) 
6

>  <SMILES>  (6) 
CCNCCC[NH2+]c1c2ccccc2[n+](C)c2cccc(OCC[N+]3(C)CCCCC3)c12

>  <Energy>  (6) 
125.6435019305137

>  <Genealogy>  (6) 
CCNCCC[NH2+]c1c2ccccc2[n+](C)c2cccc(OCC[N+]3(C)CCCCC3)c12 (protonated)
CCNCCC[NH2+]c1c2ccccc2[n+](C)c2cccc(OCC[N+]3(C)CCCCC3)c12 (3D coordinates assigned)
CCNCCC[NH2+]c1c2ccccc2[n+](C)c2cccc(OCC[N+]3(C)CCCCC3)c12 (nonaromatic ring conformer: 125.6435019305137 kcal/mol)

>  <smiles>  (6) 
CCNCCCNc1c2ccccc2[n+](C)c2cccc(OCC[N+]3(C)CCCCC3)c12

>  <score_type>  (6) 
oracle

>  <origin>  (6) 
adg

>  <m_score__min__energy>  (6) 
-3.27

>  <m_primary>  (6) 
energy

$$$$
6:0
     RDKit          3D

 46 47  0  0  0  0  0  0  0  0999 V2000
   64.6467   33.6947   46.7812 H   0  0  0  0  0  0  0  0  0  0  0  0
   63.6880   33.1930   46.9790 C   0  0  0  0  0  0  0  0  0  0  0  0
   63.6740   31.8830   47.4590 C   0  0  0  0  0  0  0  0  0  0  0  0
   64.6214   31.3521   47.6336 H   0  0  0  0  0  0  0  0  0  0  0  0
   62.4600   31.2450   47.7180 C   0  0  0  0  0  0  0  0  0  0  0  0
   62.4550   30.2110   48.0934 H   0  0  0  0  0  0  0  0  0  0  0  0
   61.2430   31.9160   47.5020 C   0  0  0  0  0  0  0  0  0  0  0  0
   61.2560   33.2370   47.0060 C   0  0  0  0  0  0  0  0  0  0  0  0
   62.4870   33.8690   46.7490 C   0  0  0  0  0  0  0  0  0  0  0  0
   62.5037   34.8998   46.3653 H   0  0  0  0  0  0  0  0  0  0  0  0
   59.9790   33.9280   46.7120 C   0  0  0  0  0  0  0  0  0  0  0  0
   59.9820   35.0730   46.1850 O   0  0  0  0  0  0  0  0  0  0  0  0
   58.6940   33.2620   47.0070 C   0  0  0  0  0  0  0  0  0  0  0  0
   57.6000   33.7930   46.5310 N   0  0  0  0  0  0  0  0  0  0  0  0
   57.0810   33.6780   45.1680 C   0  0  0  0  0  0  0  0  0  0  0  0
   56.9371   34.6846   44.7485 H   0  0  0  0  0  0  0  0  0  0  0  0
   56.1220   33.1399   45.1949 H   0  0  0  0  0  0  0  0  0  0  0  0
   58.0650   32.8990   44.2870 C   0  0  0  0  0  0  0  0  0  0  0  0
   58.9137   32.5675   44.9033 H   0  0  0  0  0  0  0  0  0  0  0  0
   58.4086   33.5610   43.4784 H   0  0  0  0  0  0  0  0  0  0  0  0
   57.3930   31.6710   43.6580 C   0  0  0  0  0  0  0  0  0  0  0  0
   58.1504   31.0766   43.1259 H   0  0  0  0  0  0  0  0  0  0  0  0
   56.6163   32.0103   42.9569 H   0  0  0  0  0  0  0  0  0  0  0  0
   56.7610   30.8320   44.7050 N   0  0  0  0  0  0  0  0  0  0  0  0
   55.7440   29.9440   44.1050 C   0  0  0  0  0  0  0  0  0  0  0  0
   55.1744   29.4466   44.9038 H   0  0  0  0  0  0  0  0  0  0  0  0
   55.0595   30.5387   43.4822 H   0  0  0  0  0  0  0  0  0  0  0  0
   56.2410   29.1856   43.4822 H   0  0  0  0  0  0  0  0  0  0  0  0
   57.7830   30.0420   45.4330 C   0  0  0  0  0  0  0  0  0  0  0  0
   57.2825   29.4490   46.2127 H   0  0  0  0  0  0  0  0  0  0  0  0
   58.5070   30.7470   45.8675 H   0  0  0  0  0  0  0  0  0  0  0  0
   58.5540   29.0880   44.5040 C   0  0  0  0  0  0  0  0  0  0  0  0
   58.4863   29.4654   43.4730 H   0  0  0  0  0  0  0  0  0  0  0  0
   58.1022   28.0891   44.5943 H   0  0  0  0  0  0  0  0  0  0  0  0
   60.0280   28.9740   44.8910 C   0  0  0  0  0  0  0  0  0  0  0  0
   60.1198   28.9669   45.9871 H   0  0  0  0  0  0  0  0  0  0  0  0
   60.4433   28.0411   44.4822 H   0  0  0  0  0  0  0  0  0  0  0  0
   60.5818   29.8320   44.4822 H   0  0  0  0  0  0  0  0  0  0  0  0
   58.6860   32.0590   47.9350 C   0  0  2  0  0  0  0  0  0  0  0  0
   57.8321   31.4243   47.6556 H   0  0  0  0  0  0  0  0  0  0  0  0
   58.5400   32.5200   49.3900 C   0  0  0  0  0  0  0  0  0  0  0  0
   58.8022   31.6920   50.0650 H   0  0  0  0  0  0  0  0  0  0  0  0
   59.2127   33.3705   49.5744 H   0  0  0  0  0  0  0  0  0  0  0  0
   57.5003   32.8282   49.5744 H   0  0  0  0  0  0  0  0  0  0  0  0
   59.9520   31.2520   47.7950 C   0  0  0  0  0  0  0  0  0  0  0  0
   59.9130   30.0070   48.0000 O   0  0  0  0  0  0  0  0  0  0  0  0
  1  2  1  0
  2  3  2  0
  3  4  1  0
  3  5  1  0
  5  6  1  0
  5  7  2  0
  7  8  1  0
  8  9  2  0
  9 10  1  0
  8 11  1  0
 11 12  2  0
 11 13  1  0
 13 14  2  0
 14 15  1  0
 15 16  1  0
 15 17  1  0
 15 18  1  0
 18 19  1  0
 18 20  1  0
 18 21  1  0
 21 22  1  0
 21 23  1  0
 21 24  1  0
 24 25  1  0
 25 26  1  0
 25 27  1  0
 25 28  1  0
 24 29  1  0
 29 30  1  0
 29 31  1  0
 29 32  1  0
 32 33  1  0
 32 34  1  0
 32 35  1  0
 35 36  1  0
 35 37  1  0
 35 38  1  0
 13 39  1  0
 39 40  1  6
 39 41  1  0
 41 42  1  0
 41 43  1  0
 41 44  1  0
 39 45  1  0
 45 46  2  0
  9  2  1  0
 45  7  1  0
M  END
>  <UniqueID>  (7) 
7

>  <SMILES>  (7) 
CCCN(C)CCC/N=C1/C(=O)c2ccccc2C(=O)[C@H]1C

>  <Energy>  (7) 
42.649503752240456

>  <Genealogy>  (7) 
CCCN(C)CCCN=C1C(=O)c2ccccc2C(=O)[C@H]1C (chirality)
CCCN(C)CCC/N=C1/C(=O)c2ccccc2C(=O)[C@H]1C (cis-trans isomerization)
CCCN(C)CCC/N=C1/C(=O)c2ccccc2C(=O)[C@H]1C (3D coordinates assigned)
CCCN(C)CCC/N=C1/C(=O)c2ccccc2C(=O)[C@H]1C (nonaromatic ring conformer: 42.649503752240456 kcal/mol)

>  <smiles>  (7) 
CCCN(C)CCCN=C1C(=O)c2ccccc2C(=O)C1C

>  <score_type>  (7) 
oracle

>  <origin>  (7) 
adg

>  <m_score__min__energy>  (7) 
-7.3200000000000003

>  <m_primary>  (7) 
energy

$$$$
7:0
     RDKit          3D

 58 60  0  0  0  0  0  0  0  0999 V2000
   62.5520   31.2600   48.7380 C   0  0  0  0  0  0  0  0  0  0  0  0
   63.7390   32.1090   49.2250 C   0  0  0  0  0  0  0  0  0  0  0  0
   63.3220   33.0300   50.3830 C   0  0  0  0  0  0  0  0  0  0  0  0
   64.4030   32.8460   48.1230 N   0  0  0  0  0  0  0  0  0  0  0  0
   63.7180   34.0860   47.7110 C   0  0  0  0  0  0  0  0  0  0  0  0
   62.9100   33.8570   46.4230 C   0  0  0  0  0  0  0  0  0  0  0  0
   61.4490   33.4750   46.7100 C   0  0  0  0  0  0  0  0  0  0  0  0
   60.5430   33.9530   45.6550 N   0  0  0  0  0  0  0  0  0  0  0  0
   59.7360   35.0930   46.1080 C   0  0  0  0  0  0  0  0  0  0  0  0
   59.1380   34.7910   47.4810 C   0  0  0  0  0  0  0  0  0  0  0  0
   58.0660   33.8020   47.3760 N   0  0  0  0  0  0  0  0  0  0  0  0
   58.3770   32.4030   47.3060 C   0  0  0  0  0  0  0  0  0  0  0  0
   58.1550   31.6860   46.1190 C   0  0  0  0  0  0  0  0  0  0  0  0
   57.5630   32.3100   45.0000 C   0  0  0  0  0  0  0  0  0  0  0  0
   57.3010   31.5870   43.8390 C   0  0  0  0  0  0  0  0  0  0  0  0
   57.6060   30.2310   43.7800 C   0  0  0  0  0  0  0  0  0  0  0  0
   58.1940   29.5940   44.8730 C   0  0  0  0  0  0  0  0  0  0  0  0
   58.5100   30.3120   46.0560 C   0  0  0  0  0  0  0  0  0  0  0  0
   59.1270   29.7040   47.1350 N   0  0  0  0  0  0  0  0  0  0  0  0
   59.7490   28.3710   46.9770 C   0  0  0  0  0  0  0  0  0  0  0  0
   59.1810   30.3530   48.3560 C   0  0  0  0  0  0  0  0  0  0  0  0
   59.5600   29.6790   49.5460 C   0  0  0  0  0  0  0  0  0  0  0  0
   59.6630   30.3620   50.7580 C   0  0  0  0  0  0  0  0  0  0  0  0
   59.3820   31.7220   50.8210 C   0  0  0  0  0  0  0  0  0  0  0  0
   58.9680   32.4030   49.6800 C   0  0  0  0  0  0  0  0  0  0  0  0
   58.8400   31.7290   48.4470 C   0  0  0  0  0  0  0  0  0  0  0  0
   62.0021   30.8667   49.6057 H   0  0  0  0  0  0  0  0  0  0  0  0
   61.8801   31.8837   48.1301 H   0  0  0  0  0  0  0  0  0  0  0  0
   62.9251   30.4226   48.1301 H   0  0  0  0  0  0  0  0  0  0  0  0
   64.4976   31.4149   49.6158 H   0  0  0  0  0  0  0  0  0  0  0  0
   63.5448   32.5380   51.3413 H   0  0  0  0  0  0  0  0  0  0  0  0
   63.8796   33.9760   50.3182 H   0  0  0  0  0  0  0  0  0  0  0  0
   62.2432   33.2351   50.3182 H   0  0  0  0  0  0  0  0  0  0  0  0
   64.4780   32.2060   47.2970 H   0  0  0  0  0  0  0  0  0  0  0  0
   65.3790   33.0820   48.4220 H   0  0  0  0  0  0  0  0  0  0  0  0
   63.0365   34.4058   48.5130 H   0  0  0  0  0  0  0  0  0  0  0  0
   64.4742   34.8621   47.5214 H   0  0  0  0  0  0  0  0  0  0  0  0
   62.9232   34.7822   45.8281 H   0  0  0  0  0  0  0  0  0  0  0  0
   63.3750   33.0220   45.8785 H   0  0  0  0  0  0  0  0  0  0  0  0
   61.3734   32.3795   46.7750 H   0  0  0  0  0  0  0  0  0  0  0  0
   61.1512   33.9484   47.6572 H   0  0  0  0  0  0  0  0  0  0  0  0
   59.8850   33.1700   45.4250 H   0  0  0  0  0  0  0  0  0  0  0  0
   60.3730   35.9872   46.1758 H   0  0  0  0  0  0  0  0  0  0  0  0
   58.9228   35.2707   45.3889 H   0  0  0  0  0  0  0  0  0  0  0  0
   59.9271   34.3986   48.1393 H   0  0  0  0  0  0  0  0  0  0  0  0
   58.7200   35.7205   47.8950 H   0  0  0  0  0  0  0  0  0  0  0  0
   57.0630   34.0870   47.4610 H   0  0  0  0  0  0  0  0  0  0  0  0
   57.3059   33.3786   45.0454 H   0  0  0  0  0  0  0  0  0  0  0  0
   56.8528   32.0882   42.9684 H   0  0  0  0  0  0  0  0  0  0  0  0
   57.3826   29.6586   42.8676 H   0  0  0  0  0  0  0  0  0  0  0  0
   58.4163   28.5181   44.8172 H   0  0  0  0  0  0  0  0  0  0  0  0
   59.9500   27.9403   47.9690 H   0  0  0  0  0  0  0  0  0  0  0  0
   59.0658   27.7110   46.4223 H   0  0  0  0  0  0  0  0  0  0  0  0
   60.6936   28.4706   46.4223 H   0  0  0  0  0  0  0  0  0  0  0  0
   59.7760   28.6009   49.5121 H   0  0  0  0  0  0  0  0  0  0  0  0
   59.9676   29.8226   51.6670 H   0  0  0  0  0  0  0  0  0  0  0  0
   59.4870   32.2608   51.7742 H   0  0  0  0  0  0  0  0  0  0  0  0
   58.7383   33.4771   49.7400 H   0  0  0  0  0  0  0  0  0  0  0  0
  1  2  1  0
  2  3  1  0
  2  4  1  0
  4  5  1  0
  5  6  1  0
  6  7  1  0
  7  8  1  0
  8  9  1  0
  9 10  1  0
 10 11  1  0
 11 12  1  0
 12 13  2  0
 13 14  1  0
 14 15  2  0
 15 16  1  0
 16 17  2  0
 17 18  1  0
 18 19  2  0
 19 20  1  0
 19 21  1  0
 21 22  2  0
 22 23  1  0
 23 24  2  0
 24 25  1  0
 25 26  2  0
 26 12  1  0
 18 13  1  0
 26 21  1  0
  1 27  1  0
  1 28  1  0
  1 29  1  0
  2 30  1  0
  3 31  1  0
  3 32  1  0
  3 33  1  0
  4 34  1  0
  4 35  1  0
  5 36  1  0
  5 37  1  0
  6 38  1  0
  6 39  1  0
  7 40  1  0
  7 41  1  0
  8 42  1  0
  9 43  1  0
  9 44  1  0
 10 45  1  0
 10 46  1  0
 11 47  1  0
 14 48  1  0
 15 49  1  0
 16 50  1  0
 17 51  1  0
 20 52  1  0
 20 53  1  0
 20 54  1  0
 22 55  1  0
 23 56  1  0
 24 57  1  0
 25 58  1  0
M  CHG  2   4   1  19   1
M  END
>  <UniqueID>  (8) 
8

>  <SMILES>  (8) 
CC(C)[NH2+]CCCNCCNc1c2ccccc2[n+](C)c2ccccc12

>  <Energy>  (8) 
77.97392511418326

>  <Genealogy>  (8) 
CC(C)[NH2+]CCCNCCNc1c2ccccc2[n+](C)c2ccccc12 (protonated)
CC(C)[NH2+]CCCNCCNc1c2ccccc2[n+](C)c2ccccc12 (3D coordinates assigned)
CC(C)[NH2+]CCCNCCNc1c2ccccc2[n+](C)c2ccccc12 (optimized conformer: 77.97392511418326 kcal/mol)

>  <smiles>  (8) 
CC(C)NCCCNCCNc1c2ccccc2[n+](C)c2ccccc12

>  <score_type>  (8) 
oracle

>  <origin>  (8) 
adg

>  <m_score__min__energy>  (8) 
-4.5199999999999996

>  <m_primary>  (8) 
energy

$$$$
8:0
     RDKit          3D

 52 55  0  0  0  0  0  0  0  0999 V2000
   57.9980   32.4150   41.7200 C   0  0  0  0  0  0  0  0  0  0  0  0
   56.9790   31.2930   41.8780 C   0  0  0  0  0  0  0  0  0  0  0  0
   56.7270   31.0300   43.2560 O   0  0  0  0  0  0  0  0  0  0  0  0
   56.0070   29.9200   43.7100 C   0  0  0  0  0  0  0  0  0  0  0  0
   54.8140   29.7310   43.3440 O   0  0  0  0  0  0  0  0  0  0  0  0
   56.6550   28.9580   44.6530 C   0  0  0  0  0  0  0  0  0  0  0  0
   57.2090   29.6770   45.8000 N   0  0  0  0  0  0  0  0  0  0  0  0
   58.1450   29.0840   46.7160 C   0  0  0  0  0  0  0  0  0  0  0  0
   58.0330   27.7150   47.0220 C   0  0  0  0  0  0  0  0  0  0  0  0
   59.0090   27.0660   47.7770 C   0  0  0  0  0  0  0  0  0  0  0  0
   58.8870   25.7420   48.0460 F   0  0  0  0  0  0  0  0  0  0  0  0
   60.1270   27.7640   48.2230 C   0  0  0  0  0  0  0  0  0  0  0  0
   60.2610   29.1270   47.9460 C   0  0  0  0  0  0  0  0  0  0  0  0
   61.3690   29.7830   48.3770 N   0  0  0  0  0  0  0  0  0  0  0  0
   61.5420   31.1100   48.1510 C   0  0  0  0  0  0  0  0  0  0  0  0
   62.7660   31.8000   48.6270 C   0  0  0  0  0  0  0  0  0  0  0  0
   63.3350   31.4820   49.8720 C   0  0  0  0  0  0  0  0  0  0  0  0
   64.4870   32.1390   50.3070 C   0  0  0  0  0  0  0  0  0  0  0  0
   65.0660   33.1130   49.4950 C   0  0  0  0  0  0  0  0  0  0  0  0
   64.5100   33.4150   48.2920 N   0  0  0  0  0  0  0  0  0  0  0  0
   63.3880   32.7900   47.8450 C   0  0  0  0  0  0  0  0  0  0  0  0
   60.5670   31.8070   47.5150 N   0  0  0  0  0  0  0  0  0  0  0  0
   59.4300   31.2160   47.0590 C   0  0  0  0  0  0  0  0  0  0  0  0
   58.3960   32.0600   46.5330 N   0  0  0  0  0  0  0  0  0  0  0  0
   57.7930   33.0700   47.4020 C   0  0  0  0  0  0  0  0  0  0  0  0
   58.3640   34.4410   47.0260 C   0  0  0  0  0  0  0  0  0  0  0  0
   58.1670   34.7050   45.6470 O   0  0  0  0  0  0  0  0  0  0  0  0
   58.8780   33.7640   44.8580 C   0  0  0  0  0  0  0  0  0  0  0  0
   58.3530   32.3430   45.0980 C   0  0  0  0  0  0  0  0  0  0  0  0
   59.2560   29.8190   47.2230 C   0  0  0  0  0  0  0  0  0  0  0  0
   58.3155   32.7646   42.7135 H   0  0  0  0  0  0  0  0  0  0  0  0
   58.8719   32.0413   41.1662 H   0  0  0  0  0  0  0  0  0  0  0  0
   57.5422   33.2490   41.1662 H   0  0  0  0  0  0  0  0  0  0  0  0
   56.0388   31.5880   41.3891 H   0  0  0  0  0  0  0  0  0  0  0  0
   57.3824   30.3816   41.4126 H   0  0  0  0  0  0  0  0  0  0  0  0
   55.9065   28.2328   45.0048 H   0  0  0  0  0  0  0  0  0  0  0  0
   57.4675   28.4322   44.1301 H   0  0  0  0  0  0  0  0  0  0  0  0
   57.1050   30.7170   45.8200 H   0  0  0  0  0  0  0  0  0  0  0  0
   57.1624   27.1484   46.6601 H   0  0  0  0  0  0  0  0  0  0  0  0
   60.9076   27.2413   48.7953 H   0  0  0  0  0  0  0  0  0  0  0  0
   62.8707   30.7124   50.5061 H   0  0  0  0  0  0  0  0  0  0  0  0
   64.9337   31.8907   51.2811 H   0  0  0  0  0  0  0  0  0  0  0  0
   65.9736   33.6376   49.8281 H   0  0  0  0  0  0  0  0  0  0  0  0
   62.9645   33.0602   46.8664 H   0  0  0  0  0  0  0  0  0  0  0  0
   56.7015   33.0728   47.2653 H   0  0  0  0  0  0  0  0  0  0  0  0
   58.0193   32.8441   48.4545 H   0  0  0  0  0  0  0  0  0  0  0  0
   57.8579   35.2177   47.6182 H   0  0  0  0  0  0  0  0  0  0  0  0
   59.4438   34.4440   47.2358 H   0  0  0  0  0  0  0  0  0  0  0  0
   58.7551   34.0189   43.7950 H   0  0  0  0  0  0  0  0  0  0  0  0
   59.9406   33.7991   45.1404 H   0  0  0  0  0  0  0  0  0  0  0  0
   57.3168   32.2659   44.7369 H   0  0  0  0  0  0  0  0  0  0  0  0
   58.9770   31.6176   44.5553 H   0  0  0  0  0  0  0  0  0  0  0  0
  1  2  1  0
  2  3  1  0
  3  4  1  0
  4  5  2  0
  4  6  1  0
  6  7  1  0
  7  8  1  0
  8  9  2  0
  9 10  1  0
 10 11  1  0
 10 12  2  0
 12 13  1  0
 13 14  2  0
 14 15  1  0
 15 16  1  0
 16 17  2  0
 17 18  1  0
 18 19  2  0
 19 20  1  0
 20 21  2  0
 15 22  2  0
 22 23  1  0
 23 24  1  0
 24 25  1  0
 25 26  1  0
 26 27  1  0
 27 28  1  0
 28 29  1  0
 23 30  2  0
 30  8  1  0
 30 13  1  0
 21 16  1  0
 29 24  1  0
  1 31  1  0
  1 32  1  0
  1 33  1  0
  2 34  1  0
  2 35  1  0
  6 36  1  0
  6 37  1  0
  7 38  1  0
  9 39  1  0
 12 40  1  0
 17 41  1  0
 18 42  1  0
 19 43  1  0
 21 44  1  0
 25 45  1  0
 25 46  1  0
 26 47  1  0
 26 48  1  0
 28 49  1  0
 28 50  1  0
 29 51  1  0
 29 52  1  0
M  END
>  <UniqueID>  (9) 
9

>  <SMILES>  (9) 
CCOC(=O)CNc1cc(F)cc2nc(-c3cccnc3)nc(N3CCOCC3)c12

>  <Energy>  (9) 
68.59685707896472

>  <Genealogy>  (9) 
CCOC(=O)CNc1cc(F)cc2nc(-c3cccnc3)nc(N3CCOCC3)c12 (3D coordinates assigned)
CCOC(=O)CNc1cc(F)cc2nc(-c3cccnc3)nc(N3CCOCC3)c12 (nonaromatic ring conformer: 68.59685707896472 kcal/mol)

>  <smiles>  (9) 
CCOC(=O)CNc1cc(F)cc2nc(-c3cccnc3)nc(N3CCOCC3)c12

>  <score_type>  (9) 
oracle

>  <origin>  (9) 
adg

>  <m_score__min__energy>  (9) 
-7.3799999999999999

>  <m_primary>  (9) 
energy

$$$$
9:0
     RDKit          3D

 43 45  0  0  0  0  0  0  0  0999 V2000
   58.4300   30.8890   50.3330 C   0  0  0  0  0  0  0  0  0  0  0  0
   58.2630   32.3470   49.9190 C   0  0  0  0  0  0  0  0  0  0  0  0
   59.3450   32.7650   49.0030 N   0  0  0  0  0  0  0  0  0  0  0  0
   59.0710   33.1650   47.7130 C   0  0  0  0  0  0  0  0  0  0  0  0
   57.3870   33.2860   47.0770 S   0  0  0  0  0  0  0  0  0  0  0  0
   57.8850   33.4880   45.3250 C   0  0  0  0  0  0  0  0  0  0  0  0
   58.3090   32.1520   44.6930 C   0  0  0  0  0  0  0  0  0  0  0  0
   57.2540   31.1230   44.8240 N   0  0  0  0  0  0  0  0  0  0  0  0
   56.6700   30.8220   43.5040 C   0  0  0  0  0  0  0  0  0  0  0  0
   55.5280   29.7930   43.6470 C   0  0  0  0  0  0  0  0  0  0  0  0
   55.5120   29.1680   44.9180 O   0  0  0  0  0  0  0  0  0  0  0  0
   56.8060   28.7000   45.2360 C   0  0  0  0  0  0  0  0  0  0  0  0
   57.7720   29.8820   45.4450 C   0  0  0  0  0  0  0  0  0  0  0  0
   60.0820   33.4880   46.8670 N   0  0  0  0  0  0  0  0  0  0  0  0
   61.3760   33.4660   47.2600 C   0  0  0  0  0  0  0  0  0  0  0  0
   62.3870   33.8150   46.3570 C   0  0  0  0  0  0  0  0  0  0  0  0
   63.7230   33.8050   46.7670 C   0  0  0  0  0  0  0  0  0  0  0  0
   64.0520   33.4480   48.0780 C   0  0  0  0  0  0  0  0  0  0  0  0
   63.0450   33.0970   48.9840 C   0  0  0  0  0  0  0  0  0  0  0  0
   61.6960   33.1040   48.5790 C   0  0  0  0  0  0  0  0  0  0  0  0
   60.6480   32.7550   49.4460 C   0  0  0  0  0  0  0  0  0  0  0  0
   60.9100   32.4290   50.6390 O   0  0  0  0  0  0  0  0  0  0  0  0
   58.4381   30.8182   51.4307 H   0  0  0  0  0  0  0  0  0  0  0  0
   57.5939   30.2963   49.9335 H   0  0  0  0  0  0  0  0  0  0  0  0
   59.3785   30.5007   49.9335 H   0  0  0  0  0  0  0  0  0  0  0  0
   57.2949   32.4680   49.4110 H   0  0  0  0  0  0  0  0  0  0  0  0
   58.3059   32.9746   50.8214 H   0  0  0  0  0  0  0  0  0  0  0  0
   57.0351   33.8959   44.7582 H   0  0  0  0  0  0  0  0  0  0  0  0
   58.7472   34.1703   45.2916 H   0  0  0  0  0  0  0  0  0  0  0  0
   58.5181   32.3137   43.6252 H   0  0  0  0  0  0  0  0  0  0  0  0
   59.2045   31.7928   45.2212 H   0  0  0  0  0  0  0  0  0  0  0  0
   56.2715   31.7479   43.0636 H   0  0  0  0  0  0  0  0  0  0  0  0
   57.4515   30.4021   42.8536 H   0  0  0  0  0  0  0  0  0  0  0  0
   54.5683   30.3090   43.4964 H   0  0  0  0  0  0  0  0  0  0  0  0
   55.6907   29.0088   42.8929 H   0  0  0  0  0  0  0  0  0  0  0  0
   56.7584   28.1039   46.1593 H   0  0  0  0  0  0  0  0  0  0  0  0
   57.1750   28.0823   44.4039 H   0  0  0  0  0  0  0  0  0  0  0  0
   57.9029   30.0501   46.5242 H   0  0  0  0  0  0  0  0  0  0  0  0
   58.7313   29.6320   44.9683 H   0  0  0  0  0  0  0  0  0  0  0  0
   62.1301   34.0970   45.3253 H   0  0  0  0  0  0  0  0  0  0  0  0
   64.5172   34.0786   46.0568 H   0  0  0  0  0  0  0  0  0  0  0  0
   65.1044   33.4430   48.3979 H   0  0  0  0  0  0  0  0  0  0  0  0
   63.3074   32.8151   50.0144 H   0  0  0  0  0  0  0  0  0  0  0  0
  1  2  1  0
  2  3  1  0
  3  4  1  0
  4  5  1  0
  5  6  1  0
  6  7  1  0
  7  8  1  0
  8  9  1  0
  9 10  1  0
 10 11  1  0
 11 12  1  0
 12 13  1  0
  4 14  2  0
 14 15  1  0
 15 16  2  0
 16 17  1  0
 17 18  2  0
 18 19  1  0
 19 20  2  0
 20 21  1  0
 21 22  2  0
 21  3  1  0
 13  8  1  0
 20 15  1  0
  1 23  1  0
  1 24  1  0
  1 25  1  0
  2 26  1  0
  2 27  1  0
  6 28  1  0
  6 29  1  0
  7 30  1  0
  7 31  1  0
  9 32  1  0
  9 33  1  0
 10 34  1  0
 10 35  1  0
 12 36  1  0
 12 37  1  0
 13 38  1  0
 13 39  1  0
 16 40  1  0
 17 41  1  0
 18 42  1  0
 19 43  1  0
M  END
>  <UniqueID>  (10) 
10

>  <SMILES>  (10) 
CCn1c(SCCN2CCOCC2)nc2ccccc2c1=O

>  <Energy>  (10) 
57.022026654800364

>  <Genealogy>  (10) 
CCn1c(SCCN2CCOCC2)nc2ccccc2c1=O (3D coordinates assigned)
CCn1c(SCCN2CCOCC2)nc2ccccc2c1=O (nonaromatic ring conformer: 57.022026654800364 kcal/mol)

>  <smiles>  (10) 
CCn1c(SCCN2CCOCC2)nc2ccccc2c1=O

>  <score_type>  (10) 
oracle

>  <origin>  (10) 
adg

>  <m_score__min__energy>  (10) 
-7.6200000000000001

>  <m_primary>  (10) 
energy

$$$$
10:0
     RDKit          3D

 57 58  0  0  0  0  0  0  0  0999 V2000
   60.3297   31.4780   45.4214 H   0  0  0  0  0  0  0  0  0  0  0  0
   59.5060   30.7930   45.6710 C   0  0  0  0  0  0  0  0  0  0  0  0
   59.4830   30.2520   46.8960 C   0  0  0  0  0  0  0  0  0  0  0  0
   58.5069   29.9646   47.3139 H   0  0  0  0  0  0  0  0  0  0  0  0
   60.7090   30.0120   47.7380 C   0  0  0  0  0  0  0  0  0  0  0  0
   61.6063   30.1891   47.1269 H   0  0  0  0  0  0  0  0  0  0  0  0
   60.6903   28.9732   48.0994 H   0  0  0  0  0  0  0  0  0  0  0  0
   60.7300   30.8800   48.8550 O   0  0  0  0  0  0  0  0  0  0  0  0
   61.8370   30.6110   49.6970 C   0  0  0  0  0  0  0  0  0  0  0  0
   62.0936   29.5443   49.6181 H   0  0  0  0  0  0  0  0  0  0  0  0
   61.5554   30.8743   50.7272 H   0  0  0  0  0  0  0  0  0  0  0  0
   63.0720   31.4530   49.3060 C   0  0  0  0  0  0  0  0  0  0  0  0
   63.7551   30.8135   48.7277 H   0  0  0  0  0  0  0  0  0  0  0  0
   63.5149   31.8149   50.2456 H   0  0  0  0  0  0  0  0  0  0  0  0
   62.7620   32.6590   48.4910 N   0  0  0  0  0  0  0  0  0  0  0  0
   61.7200   32.7110   48.3940 H   0  0  0  0  0  0  0  0  0  0  0  0
   63.3820   32.5200   47.1360 C   0  0  0  0  0  0  0  0  0  0  0  0
   62.8183   31.7686   46.5636 H   0  0  0  0  0  0  0  0  0  0  0  0
   64.4298   32.2145   47.2731 H   0  0  0  0  0  0  0  0  0  0  0  0
   63.3740   33.8410   46.3590 C   0  0  0  0  0  0  0  0  0  0  0  0
   63.3689   34.6828   47.0670 H   0  0  0  0  0  0  0  0  0  0  0  0
   64.2718   33.8996   45.7261 H   0  0  0  0  0  0  0  0  0  0  0  0
   62.4756   33.8887   45.7261 H   0  0  0  0  0  0  0  0  0  0  0  0
   63.2270   33.8960   49.1720 C   0  0  0  0  0  0  0  0  0  0  0  0
   64.3258   33.8798   49.2202 H   0  0  0  0  0  0  0  0  0  0  0  0
   62.8590   34.7546   48.5911 H   0  0  0  0  0  0  0  0  0  0  0  0
   62.6750   34.0280   50.5960 C   0  0  0  0  0  0  0  0  0  0  0  0
   63.4799   33.8355   51.3206 H   0  0  0  0  0  0  0  0  0  0  0  0
   62.2834   35.0451   50.7446 H   0  0  0  0  0  0  0  0  0  0  0  0
   61.8656   33.2981   50.7446 H   0  0  0  0  0  0  0  0  0  0  0  0
   58.4860   30.5210   44.6350 C   0  0  0  0  0  0  0  0  0  0  0  0
   58.0070   29.2110   44.4730 C   0  0  0  0  0  0  0  0  0  0  0  0
   58.3933   28.4048   45.1140 H   0  0  0  0  0  0  0  0  0  0  0  0
   57.0440   28.9250   43.5040 C   0  0  0  0  0  0  0  0  0  0  0  0
   56.6643   27.8985   43.3938 H   0  0  0  0  0  0  0  0  0  0  0  0
   56.5620   29.9380   42.6750 C   0  0  0  0  0  0  0  0  0  0  0  0
   55.7981   29.7104   41.9170 H   0  0  0  0  0  0  0  0  0  0  0  0
   57.0480   31.2410   42.8060 C   0  0  0  0  0  0  0  0  0  0  0  0
   56.6620   32.0357   42.1507 H   0  0  0  0  0  0  0  0  0  0  0  0
   58.0270   31.5450   43.7690 C   0  0  0  0  0  0  0  0  0  0  0  0
   58.5040   32.9740   43.8980 C   0  0  0  0  0  0  0  0  0  0  0  0
   59.5533   32.9759   44.2280 H   0  0  0  0  0  0  0  0  0  0  0  0
   58.4104   33.4675   42.9194 H   0  0  0  0  0  0  0  0  0  0  0  0
   57.6550   33.7390   44.9180 C   0  0  0  0  0  0  0  0  0  0  0  0
   57.4766   34.7592   44.5474 H   0  0  0  0  0  0  0  0  0  0  0  0
   56.6995   33.2107   45.0519 H   0  0  0  0  0  0  0  0  0  0  0  0
   58.3600   33.8110   46.2450 C   0  0  0  0  0  0  0  0  0  0  0  0
   57.9050   33.0440   47.3310 C   0  0  0  0  0  0  0  0  0  0  0  0
   57.0167   32.4054   47.2163 H   0  0  0  0  0  0  0  0  0  0  0  0
   58.5760   33.0890   48.5560 C   0  0  0  0  0  0  0  0  0  0  0  0
   58.2113   32.4916   49.4046 H   0  0  0  0  0  0  0  0  0  0  0  0
   59.7110   33.8930   48.7040 C   0  0  0  0  0  0  0  0  0  0  0  0
   60.2355   33.9314   49.6701 H   0  0  0  0  0  0  0  0  0  0  0  0
   60.1790   34.6480   47.6240 C   0  0  0  0  0  0  0  0  0  0  0  0
   61.0745   35.2762   47.7397 H   0  0  0  0  0  0  0  0  0  0  0  0
   59.5090   34.6050   46.3960 C   0  0  0  0  0  0  0  0  0  0  0  0
   59.8833   35.1948   45.5463 H   0  0  0  0  0  0  0  0  0  0  0  0
  1  2  1  0
  2  3  2  0
  3  4  1  0
  3  5  1  0
  5  6  1  0
  5  7  1  0
  5  8  1  0
  8  9  1  0
  9 10  1  0
  9 11  1  0
  9 12  1  0
 12 13  1  0
 12 14  1  0
 12 15  1  0
 15 16  1  0
 15 17  1  0
 17 18  1  0
 17 19  1  0
 17 20  1  0
 20 21  1  0
 20 22  1  0
 20 23  1  0
 15 24  1  0
 24 25  1  0
 24 26  1  0
 24 27  1  0
 27 28  1  0
 27 29  1  0
 27 30  1  0
  2 31  1  0
 31 32  2  0
 32 33  1  0
 32 34  1  0
 34 35  1  0
 34 36  2  0
 36 37  1  0
 36 38  1  0
 38 39  1  0
 38 40  2  0
 40 41  1  0
 41 42  1  0
 41 43  1  0
 41 44  1  0
 44 45  1  0
 44 46  1  0
 44 47  1  0
 47 48  2  0
 48 49  1  0
 48 50  1  0
 50 51  1  0
 50 52  2  0
 52 53  1  0
 52 54  1  0
 54 55  1  0
 54 56  2  0
 56 57  1  0
 40 31  1  0
 56 47  1  0
M  CHG  1  15   1
M  END
>  <UniqueID>  (11) 
11

>  <SMILES>  (11) 
CC[NH+](CC)CCOC/C=C\c1ccccc1CCc1ccccc1

>  <Energy>  (11) 
65.1140707822099

>  <Genealogy>  (11) 
CC[NH+](CC)CCOCC=Cc1ccccc1CCc1ccccc1 (protonated)
CC[NH+](CC)CCOC/C=C\c1ccccc1CCc1ccccc1 (cis-trans isomerization)
CC[NH+](CC)CCOC/C=C\c1ccccc1CCc1ccccc1 (3D coordinates assigned)
CC[NH+](CC)CCOC/C=C\c1ccccc1CCc1ccccc1 (optimized conformer: 65.1140707822099 kcal/mol)

>  <smiles>  (11) 
CCN(CC)CCOCC=Cc1ccccc1CCc1ccccc1

>  <score_type>  (11) 
oracle

>  <origin>  (11) 
adg

>  <m_score__min__energy>  (11) 
-5.3799999999999999

>  <m_primary>  (11) 
energy

$$$$
11:0
     RDKit          3D

 64 67  0  0  0  0  0  0  0  0999 V2000
   64.9090   31.2140   50.8220 C   0  0  0  0  0  0  0  0  0  0  0  0
   64.9980   32.3550   49.8000 C   0  0  0  0  0  0  0  0  0  0  0  0
   63.6920   32.7280   49.2010 N   0  0  0  0  0  0  0  0  0  0  0  0
   63.4580   32.2200   47.8270 C   0  0  0  0  0  0  0  0  0  0  0  0
   63.3990   33.3510   46.8010 C   0  0  0  0  0  0  0  0  0  0  0  0
   63.3860   34.1730   49.3260 C   0  0  0  0  0  0  0  0  0  0  0  0
   63.0110   34.4910   50.7710 C   0  0  0  0  0  0  0  0  0  0  0  0
   63.0130   33.2920   51.5140 O   0  0  0  0  0  0  0  0  0  0  0  0
   62.2120   33.4280   52.6670 C   0  0  0  0  0  0  0  0  0  0  0  0
   60.7570   33.1670   52.2810 C   0  0  0  0  0  0  0  0  0  0  0  0
   60.6160   31.8770   51.4570 C   0  0  0  0  0  0  0  0  0  0  0  0
   61.3970   31.9160   50.2080 N   0  0  0  0  0  0  0  0  0  0  0  0
   60.7550   31.1600   49.1460 C   0  0  0  0  0  0  0  0  0  0  0  0
   60.1400   31.8350   48.0800 C   0  0  0  0  0  0  0  0  0  0  0  0
   59.5120   31.1520   47.0500 C   0  0  0  0  0  0  0  0  0  0  0  0
   59.5650   29.7880   46.9520 N   0  0  0  0  0  0  0  0  0  0  0  0
   59.2020   29.1260   45.6880 C   0  0  0  0  0  0  0  0  0  0  0  0
   60.0430   29.0650   48.0330 C   0  0  0  0  0  0  0  0  0  0  0  0
   59.8950   27.6580   48.0910 C   0  0  0  0  0  0  0  0  0  0  0  0
   60.4380   26.9180   49.1380 C   0  0  0  0  0  0  0  0  0  0  0  0
   61.1270   27.5550   50.1620 C   0  0  0  0  0  0  0  0  0  0  0  0
   61.2490   28.9420   50.1690 C   0  0  0  0  0  0  0  0  0  0  0  0
   60.6890   29.7310   49.1330 C   0  0  0  0  0  0  0  0  0  0  0  0
   58.9050   32.1470   46.1290 C   0  0  0  0  0  0  0  0  0  0  0  0
   58.0070   32.0040   45.0610 C   0  0  0  0  0  0  0  0  0  0  0  0
   57.5310   33.1620   44.4190 C   0  0  0  0  0  0  0  0  0  0  0  0
   57.9150   34.4400   44.8690 C   0  0  0  0  0  0  0  0  0  0  0  0
   58.7640   34.5720   45.9770 C   0  0  0  0  0  0  0  0  0  0  0  0
   59.2370   33.4110   46.5900 C   0  0  0  0  0  0  0  0  0  0  0  0
   60.0110   33.2740   47.8100 C   0  0  0  0  0  0  0  0  0  0  0  0
   60.4690   34.2250   48.4970 O   0  0  0  0  0  0  0  0  0  0  0  0
   64.9414   31.6300   51.8398 H   0  0  0  0  0  0  0  0  0  0  0  0
   63.9654   30.6668   50.6794 H   0  0  0  0  0  0  0  0  0  0  0  0
   65.7563   30.5271   50.6794 H   0  0  0  0  0  0  0  0  0  0  0  0
   65.4135   33.2401   50.3041 H   0  0  0  0  0  0  0  0  0  0  0  0
   65.6366   31.9990   48.9782 H   0  0  0  0  0  0  0  0  0  0  0  0
   64.2770   31.5374   47.5564 H   0  0  0  0  0  0  0  0  0  0  0  0
   62.4881   31.7012   47.8171 H   0  0  0  0  0  0  0  0  0  0  0  0
   63.3486   34.3177   47.3234 H   0  0  0  0  0  0  0  0  0  0  0  0
   64.2999   33.3215   46.1705 H   0  0  0  0  0  0  0  0  0  0  0  0
   62.5061   33.2279   46.1705 H   0  0  0  0  0  0  0  0  0  0  0  0
   64.2701   34.7611   49.0388 H   0  0  0  0  0  0  0  0  0  0  0  0
   62.5449   34.4281   48.6645 H   0  0  0  0  0  0  0  0  0  0  0  0
   63.7436   35.1919   51.1977 H   0  0  0  0  0  0  0  0  0  0  0  0
   62.0127   34.9515   50.8060 H   0  0  0  0  0  0  0  0  0  0  0  0
   62.5303   32.7000   53.4277 H   0  0  0  0  0  0  0  0  0  0  0  0
   62.3159   34.4421   53.0802 H   0  0  0  0  0  0  0  0  0  0  0  0
   60.1553   33.0736   53.1971 H   0  0  0  0  0  0  0  0  0  0  0  0
   60.4063   34.0093   51.6666 H   0  0  0  0  0  0  0  0  0  0  0  0
   60.9659   31.0300   52.0654 H   0  0  0  0  0  0  0  0  0  0  0  0
   59.5558   31.7691   51.1845 H   0  0  0  0  0  0  0  0  0  0  0  0
   61.6120   32.9000   49.9440 H   0  0  0  0  0  0  0  0  0  0  0  0
   62.3380   31.5000   50.3930 H   0  0  0  0  0  0  0  0  0  0  0  0
   58.6835   28.1804   45.9050 H   0  0  0  0  0  0  0  0  0  0  0  0
   58.5381   29.7833   45.1073 H   0  0  0  0  0  0  0  0  0  0  0  0
   60.1132   28.9197   45.1073 H   0  0  0  0  0  0  0  0  0  0  0  0
   59.3409   27.1401   47.2943 H   0  0  0  0  0  0  0  0  0  0  0  0
   60.3208   25.8244   49.1542 H   0  0  0  0  0  0  0  0  0  0  0  0
   61.5781   26.9613   50.9707 H   0  0  0  0  0  0  0  0  0  0  0  0
   61.7887   29.4335   50.9919 H   0  0  0  0  0  0  0  0  0  0  0  0
   57.6813   31.0062   44.7319 H   0  0  0  0  0  0  0  0  0  0  0  0
   56.8529   33.0682   43.5580 H   0  0  0  0  0  0  0  0  0  0  0  0
   57.5477   35.3374   44.3496 H   0  0  0  0  0  0  0  0  0  0  0  0
   59.0499   35.5653   46.3534 H   0  0  0  0  0  0  0  0  0  0  0  0
  1  2  1  0
  2  3  1  0
  3  4  1  0
  4  5  1  0
  3  6  1  0
  6  7  1  0
  7  8  1  0
  8  9  1  0
  9 10  1  0
 10 11  1  0
 11 12  1  0
 12 13  1  0
 13 14  2  0
 14 15  1  0
 15 16  2  0
 16 17  1  0
 16 18  1  0
 18 19  2  0
 19 20  1  0
 20 21  2  0
 21 22  1  0
 22 23  2  0
 15 24  1  0
 24 25  2  0
 25 26  1  0
 26 27  2  0
 27 28  1  0
 28 29  2  0
 29 30  1  0
 30 31  2  0
 23 13  1  0
 29 24  1  0
 30 14  1  0
 23 18  1  0
  1 32  1  0
  1 33  1  0
  1 34  1  0
  2 35  1  0
  2 36  1  0
  4 37  1  0
  4 38  1  0
  5 39  1  0
  5 40  1  0
  5 41  1  0
  6 42  1  0
  6 43  1  0
  7 44  1  0
  7 45  1  0
  9 46  1  0
  9 47  1  0
 10 48  1  0
 10 49  1  0
 11 50  1  0
 11 51  1  0
 12 52  1  0
 12 53  1  0
 17 54  1  0
 17 55  1  0
 17 56  1  0
 19 57  1  0
 20 58  1  0
 21 59  1  0
 22 60  1  0
 25 61  1  0
 26 62  1  0
 27 63  1  0
 28 64  1  0
M  CHG  2  12   1  16   1
M  END
>  <UniqueID>  (12) 
12

>  <SMILES>  (12) 
CCN(CC)CCOCCC[NH2+]c1c2c([n+](C)c3ccccc13)-c1ccccc1C2=O

>  <Energy>  (12) 
117.28576373373181

>  <Genealogy>  (12) 
CCN(CC)CCOCCC[NH2+]c1c2c([n+](C)c3ccccc13)-c1ccccc1C2=O (protonated)
CCN(CC)CCOCCC[NH2+]c1c2c([n+](C)c3ccccc13)-c1ccccc1C2=O (3D coordinates assigned)
CCN(CC)CCOCCC[NH2+]c1c2c([n+](C)c3ccccc13)-c1ccccc1C2=O (nonaromatic ring conformer: 117.28576373373181 kcal/mol)

>  <smiles>  (12) 
CCN(CC)CCOCCCNc1c2c([n+](C)c3ccccc13)-c1ccccc1C2=O

>  <score_type>  (12) 
oracle

>  <origin>  (12) 
adg

>  <m_score__min__energy>  (12) 
-4.6799999999999997

>  <m_primary>  (12) 
energy

$$$$
12:0
     RDKit          3D

 44 45  0  0  0  0  0  0  0  0999 V2000
   58.6130   28.9640   45.9710 C   0  0  0  0  0  0  0  0  0  0  0  0
   58.3550   29.8870   44.7830 C   0  0  0  0  0  0  0  0  0  0  0  0
   57.0080   30.5030   44.9120 N   0  0  0  0  0  0  0  0  0  0  0  0
   55.9850   29.7560   44.1450 C   0  0  0  0  0  0  0  0  0  0  0  0
   56.3160   29.7340   42.6530 C   0  0  0  0  0  0  0  0  0  0  0  0
   57.0140   31.9350   44.5290 C   0  0  0  0  0  0  0  0  0  0  0  0
   58.4440   32.4480   44.3270 C   0  0  0  0  0  0  0  0  0  0  0  0
   58.4390   33.8500   44.1580 O   0  0  0  0  0  0  0  0  0  0  0  0
   58.3180   34.5040   45.4080 C   0  0  0  0  0  0  0  0  0  0  0  0
   59.6880   34.9600   45.9030 C   0  0  0  0  0  0  0  0  0  0  0  0
   60.6350   33.9480   45.6520 O   0  0  0  0  0  0  0  0  0  0  0  0
   60.9340   33.3900   46.8540 N   0  0  0  0  0  0  0  0  0  0  0  0
   62.2110   33.4200   47.4840 C   0  0  0  0  0  0  0  0  0  0  0  0
   63.1410   34.2000   47.1490 O   0  0  0  0  0  0  0  0  0  0  0  0
   62.2680   32.3970   48.5320 C   0  0  0  0  0  0  0  0  0  0  0  0
   63.2950   32.0500   49.4130 C   0  0  0  0  0  0  0  0  0  0  0  0
   64.8290   32.9160   49.3860 Cl  0  0  0  0  0  0  0  0  0  0  0  0
   63.0630   30.9910   50.3210 C   0  0  0  0  0  0  0  0  0  0  0  0
   64.3290   30.5260   51.4580 Cl  0  0  0  0  0  0  0  0  0  0  0  0
   61.8190   30.3050   50.3190 C   0  0  0  0  0  0  0  0  0  0  0  0
   61.5440   28.9750   51.4490 Cl  0  0  0  0  0  0  0  0  0  0  0  0
   60.8020   30.6770   49.4130 C   0  0  0  0  0  0  0  0  0  0  0  0
   59.2500   29.8440   49.3890 Cl  0  0  0  0  0  0  0  0  0  0  0  0
   61.0580   31.7280   48.5290 C   0  0  0  0  0  0  0  0  0  0  0  0
   60.2280   32.3200   47.4750 C   0  0  0  0  0  0  0  0  0  0  0  0
   59.0820   31.9340   47.1240 O   0  0  0  0  0  0  0  0  0  0  0  0
   58.4577   29.5197   46.9075 H   0  0  0  0  0  0  0  0  0  0  0  0
   57.9186   28.1118   45.9308 H   0  0  0  0  0  0  0  0  0  0  0  0
   59.6486   28.5954   45.9308 H   0  0  0  0  0  0  0  0  0  0  0  0
   59.1187   30.6784   44.7619 H   0  0  0  0  0  0  0  0  0  0  0  0
   58.4020   29.3042   43.8512 H   0  0  0  0  0  0  0  0  0  0  0  0
   55.9418   28.7220   44.5178 H   0  0  0  0  0  0  0  0  0  0  0  0
   55.0156   30.2584   44.2782 H   0  0  0  0  0  0  0  0  0  0  0  0
   57.4055   29.6616   42.5202 H   0  0  0  0  0  0  0  0  0  0  0  0
   55.8308   28.8661   42.1825 H   0  0  0  0  0  0  0  0  0  0  0  0
   55.9499   30.6585   42.1825 H   0  0  0  0  0  0  0  0  0  0  0  0
   56.4527   32.0580   43.5910 H   0  0  0  0  0  0  0  0  0  0  0  0
   56.5469   32.5145   45.3390 H   0  0  0  0  0  0  0  0  0  0  0  0
   59.0505   32.1902   45.2077 H   0  0  0  0  0  0  0  0  0  0  0  0
   58.8702   31.9792   43.4278 H   0  0  0  0  0  0  0  0  0  0  0  0
   57.6623   35.3802   45.2970 H   0  0  0  0  0  0  0  0  0  0  0  0
   57.8893   33.8022   46.1386 H   0  0  0  0  0  0  0  0  0  0  0  0
   59.9828   35.8783   45.3739 H   0  0  0  0  0  0  0  0  0  0  0  0
   59.6410   35.1604   46.9836 H   0  0  0  0  0  0  0  0  0  0  0  0
  1  2  1  0
  2  3  1  0
  3  4  1  0
  4  5  1  0
  3  6  1  0
  6  7  1  0
  7  8  1  0
  8  9  1  0
  9 10  1  0
 10 11  1  0
 11 12  1  0
 12 13  1  0
 13 14  2  0
 13 15  1  0
 15 16  2  0
 16 17  1  0
 16 18  1  0
 18 19  1  0
 18 20  2  0
 20 21  1  0
 20 22  1  0
 22 23  1  0
 22 24  2  0
 24 25  1  0
 25 26  2  0
 25 12  1  0
 24 15  1  0
  1 27  1  0
  1 28  1  0
  1 29  1  0
  2 30  1  0
  2 31  1  0
  4 32  1  0
  4 33  1  0
  5 34  1  0
  5 35  1  0
  5 36  1  0
  6 37  1  0
  6 38  1  0
  7 39  1  0
  7 40  1  0
  9 41  1  0
  9 42  1  0
 10 43  1  0
 10 44  1  0
M  END
>  <UniqueID>  (13) 
13

>  <SMILES>  (13) 
CCN(CC)CCOCCON1C(=O)c2c(Cl)c(Cl)c(Cl)c(Cl)c2C1=O

>  <Energy>  (13) 
78.91340636410749

>  <Genealogy>  (13) 
CCN(CC)CCOCCON1C(=O)c2c(Cl)c(Cl)c(Cl)c(Cl)c2C1=O (3D coordinates assigned)
CCN(CC)CCOCCON1C(=O)c2c(Cl)c(Cl)c(Cl)c(Cl)c2C1=O (nonaromatic ring conformer: 78.91340636410749 kcal/mol)

>  <smiles>  (13) 
CCN(CC)CCOCCON1C(=O)c2c(Cl)c(Cl)c(Cl)c(Cl)c2C1=O

>  <score_type>  (13) 
oracle

>  <origin>  (13) 
adg

>  <m_score__min__energy>  (13) 
-7.4500000000000002

>  <m_primary>  (13) 
energy

$$$$
13:0
     RDKit          3D

 53 55  0  0  0  0  0  0  0  0999 V2000
   60.5010   29.7200   47.6430 C   0  0  0  0  0  0  0  0  0  0  0  0
   60.0790   30.1300   46.2340 C   0  0  0  0  0  0  0  0  0  0  0  0
   58.6190   29.9220   46.0620 N   0  0  0  0  0  0  0  0  0  0  0  0
   58.1940   28.6620   46.7060 C   0  0  0  0  0  0  0  0  0  0  0  0
   58.2300   29.9170   44.6330 C   0  0  0  0  0  0  0  0  0  0  0  0
   57.7690   31.3150   44.2010 C   0  0  0  0  0  0  0  0  0  0  0  0
   57.1600   31.9580   45.2980 O   0  0  0  0  0  0  0  0  0  0  0  0
   57.4540   33.3460   45.3020 C   0  0  0  0  0  0  0  0  0  0  0  0
   57.8620   33.7840   46.7100 C   0  0  0  0  0  0  0  0  0  0  0  0
   58.4160   32.6550   47.4650 N   0  0  0  0  0  0  0  0  0  0  0  0
   59.4410   32.8430   48.4630 C   0  0  0  0  0  0  0  0  0  0  0  0
   60.7400   33.2300   48.0880 C   0  0  0  0  0  0  0  0  0  0  0  0
   61.0500   33.5190   46.7390 C   0  0  0  0  0  0  0  0  0  0  0  0
   62.3550   33.8170   46.3590 C   0  0  0  0  0  0  0  0  0  0  0  0
   63.3710   33.8310   47.3100 C   0  0  0  0  0  0  0  0  0  0  0  0
   63.0830   33.5940   48.6530 C   0  0  0  0  0  0  0  0  0  0  0  0
   61.7540   33.3410   49.0800 C   0  0  0  0  0  0  0  0  0  0  0  0
   61.4390   33.1930   50.4180 N   0  0  0  0  0  0  0  0  0  0  0  0
   62.4140   33.5940   51.4590 C   0  0  0  0  0  0  0  0  0  0  0  0
   60.2000   32.7020   50.7860 C   0  0  0  0  0  0  0  0  0  0  0  0
   59.9240   32.2980   52.1200 C   0  0  0  0  0  0  0  0  0  0  0  0
   58.6610   31.8310   52.4860 C   0  0  0  0  0  0  0  0  0  0  0  0
   57.6450   31.7430   51.5390 C   0  0  0  0  0  0  0  0  0  0  0  0
   56.0590   31.1490   52.0040 Cl  0  0  0  0  0  0  0  0  0  0  0  0
   57.8960   32.1010   50.2150 C   0  0  0  0  0  0  0  0  0  0  0  0
   59.1700   32.5580   49.8150 C   0  0  0  0  0  0  0  0  0  0  0  0
   59.9159   30.2884   48.3810 H   0  0  0  0  0  0  0  0  0  0  0  0
   60.3197   28.6439   47.7815 H   0  0  0  0  0  0  0  0  0  0  0  0
   61.5714   29.9323   47.7815 H   0  0  0  0  0  0  0  0  0  0  0  0
   60.3169   31.1924   46.0769 H   0  0  0  0  0  0  0  0  0  0  0  0
   60.6209   29.5147   45.5007 H   0  0  0  0  0  0  0  0  0  0  0  0
   58.2330   28.7776   47.7992 H   0  0  0  0  0  0  0  0  0  0  0  0
   57.1653   28.4222   46.3991 H   0  0  0  0  0  0  0  0  0  0  0  0
   58.8673   27.8481   46.3991 H   0  0  0  0  0  0  0  0  0  0  0  0
   59.0942   29.6154   44.0229 H   0  0  0  0  0  0  0  0  0  0  0  0
   57.4016   29.2075   44.4905 H   0  0  0  0  0  0  0  0  0  0  0  0
   58.6366   31.9018   43.8650 H   0  0  0  0  0  0  0  0  0  0  0  0
   57.0485   31.2292   43.3742 H   0  0  0  0  0  0  0  0  0  0  0  0
   58.2796   33.5467   44.6033 H   0  0  0  0  0  0  0  0  0  0  0  0
   56.5610   33.9078   44.9908 H   0  0  0  0  0  0  0  0  0  0  0  0
   58.6217   34.5760   46.6357 H   0  0  0  0  0  0  0  0  0  0  0  0
   56.9709   34.1574   47.2359 H   0  0  0  0  0  0  0  0  0  0  0  0
   58.1420   31.6820   47.1990 H   0  0  0  0  0  0  0  0  0  0  0  0
   60.2516   33.5081   45.9824 H   0  0  0  0  0  0  0  0  0  0  0  0
   62.5836   34.0416   45.3067 H   0  0  0  0  0  0  0  0  0  0  0  0
   64.4074   34.0303   47.0000 H   0  0  0  0  0  0  0  0  0  0  0  0
   63.8976   33.6033   49.3921 H   0  0  0  0  0  0  0  0  0  0  0  0
   61.9814   33.4161   52.4546 H   0  0  0  0  0  0  0  0  0  0  0  0
   63.3339   33.0012   51.3477 H   0  0  0  0  0  0  0  0  0  0  0  0
   62.6506   34.6625   51.3477 H   0  0  0  0  0  0  0  0  0  0  0  0
   60.7198   32.3544   52.8774 H   0  0  0  0  0  0  0  0  0  0  0  0
   58.4678   31.5314   53.5266 H   0  0  0  0  0  0  0  0  0  0  0  0
   57.0891   32.0261   49.4712 H   0  0  0  0  0  0  0  0  0  0  0  0
  1  2  1  0
  2  3  1  0
  3  4  1  0
  3  5  1  0
  5  6  1  0
  6  7  1  0
  7  8  1  0
  8  9  1  0
  9 10  1  0
 10 11  1  0
 11 12  2  0
 12 13  1  0
 13 14  2  0
 14 15  1  0
 15 16  2  0
 16 17  1  0
 17 18  2  0
 18 19  1  0
 18 20  1  0
 20 21  2  0
 21 22  1  0
 22 23  2  0
 23 24  1  0
 23 25  1  0
 25 26  2  0
 26 11  1  0
 17 12  1  0
 26 20  1  0
  1 27  1  0
  1 28  1  0
  1 29  1  0
  2 30  1  0
  2 31  1  0
  4 32  1  0
  4 33  1  0
  4 34  1  0
  5 35  1  0
  5 36  1  0
  6 37  1  0
  6 38  1  0
  8 39  1  0
  8 40  1  0
  9 41  1  0
  9 42  1  0
 10 43  1  0
 13 44  1  0
 14 45  1  0
 15 46  1  0
 16 47  1  0
 19 48  1  0
 19 49  1  0
 19 50  1  0
 21 51  1  0
 22 52  1  0
 25 53  1  0
M  CHG  1  18   1
M  END
>  <UniqueID>  (14) 
14

>  <SMILES>  (14) 
CCN(C)CCOCCNc1c2ccccc2[n+](C)c2ccc(Cl)cc12

>  <Energy>  (14) 
79.66490939880636

>  <Genealogy>  (14) 
CCN(C)CCOCCNc1c2ccccc2[n+](C)c2ccc(Cl)cc12 (3D coordinates assigned)
CCN(C)CCOCCNc1c2ccccc2[n+](C)c2ccc(Cl)cc12 (optimized conformer: 79.66490939880636 kcal/mol)

>  <smiles>  (14) 
CCN(C)CCOCCNc1c2ccccc2[n+](C)c2ccc(Cl)cc12

>  <score_type>  (14) 
oracle

>  <origin>  (14) 
adg

>  <m_score__min__energy>  (14) 
-5.5

>  <m_primary>  (14) 
energy

$$$$
14:0
     RDKit          3D

 44 45  0  0  0  0  0  0  0  0999 V2000
   60.2200   29.7930   46.4020 C   0  0  0  0  0  0  0  0  0  0  0  0
   59.1280   30.0470   47.4360 C   0  0  0  0  0  0  0  0  0  0  0  0
   58.1600   30.9690   46.9340 O   0  0  0  0  0  0  0  0  0  0  0  0
   58.4320   32.2580   46.4440 C   0  0  0  0  0  0  0  0  0  0  0  0
   59.4470   33.0740   46.9840 C   0  0  0  0  0  0  0  0  0  0  0  0
   59.6800   34.3480   46.4640 C   0  0  0  0  0  0  0  0  0  0  0  0
   58.9030   34.8240   45.4100 C   0  0  0  0  0  0  0  0  0  0  0  0
   57.8900   34.0320   44.8700 C   0  0  0  0  0  0  0  0  0  0  0  0
   57.6490   32.7380   45.3780 C   0  0  0  0  0  0  0  0  0  0  0  0
   56.6460   31.8920   44.8700 O   0  0  0  0  0  0  0  0  0  0  0  0
   56.6710   31.1800   43.6300 C   0  0  0  0  0  0  0  0  0  0  0  0
   56.2130   29.7210   43.8140 C   0  0  0  0  0  0  0  0  0  0  0  0
   56.3520   29.2290   45.1930 N   0  0  0  0  0  0  0  0  0  0  0  0
   57.4130   28.2220   45.3190 C   0  0  0  0  0  0  0  0  0  0  0  0
   57.0460   27.1870   46.3850 C   0  0  0  0  0  0  0  0  0  0  0  0
   56.4800   25.9910   45.7680 N   0  0  0  0  0  0  0  0  0  0  0  0
   57.0770   25.2230   44.8370 C   0  0  0  0  0  0  0  0  0  0  0  0
   56.1890   24.2340   44.4750 C   0  0  0  0  0  0  0  0  0  0  0  0
   56.4340   23.1030   43.5350 C   0  0  0  0  0  0  0  0  0  0  0  0
   55.0610   24.4530   45.2430 C   0  0  0  0  0  0  0  0  0  0  0  0
   55.2590   25.5400   46.0170 N   0  0  0  0  0  0  0  0  0  0  0  0
   61.1673   29.5726   46.9158 H   0  0  0  0  0  0  0  0  0  0  0  0
   59.9366   28.9368   45.7722 H   0  0  0  0  0  0  0  0  0  0  0  0
   60.3436   30.6864   45.7722 H   0  0  0  0  0  0  0  0  0  0  0  0
   58.6300   29.0960   47.6759 H   0  0  0  0  0  0  0  0  0  0  0  0
   59.5890   30.4755   48.3382 H   0  0  0  0  0  0  0  0  0  0  0  0
   60.0589   32.7044   47.8201 H   0  0  0  0  0  0  0  0  0  0  0  0
   60.4776   34.9767   46.8866 H   0  0  0  0  0  0  0  0  0  0  0  0
   59.0893   35.8285   45.0022 H   0  0  0  0  0  0  0  0  0  0  0  0
   57.2755   34.4183   44.0435 H   0  0  0  0  0  0  0  0  0  0  0  0
   55.9992   31.6793   42.9163 H   0  0  0  0  0  0  0  0  0  0  0  0
   57.7043   31.1749   43.2529 H   0  0  0  0  0  0  0  0  0  0  0  0
   55.1541   29.6499   43.5246 H   0  0  0  0  0  0  0  0  0  0  0  0
   56.8625   29.0972   43.1823 H   0  0  0  0  0  0  0  0  0  0  0  0
   56.5300   30.0250   45.8460 H   0  0  0  0  0  0  0  0  0  0  0  0
   57.5468   27.7143   44.3524 H   0  0  0  0  0  0  0  0  0  0  0  0
   58.3458   28.7234   45.6163 H   0  0  0  0  0  0  0  0  0  0  0  0
   57.9505   26.9103   46.9465 H   0  0  0  0  0  0  0  0  0  0  0  0
   56.2970   27.6251   47.0610 H   0  0  0  0  0  0  0  0  0  0  0  0
   58.0924   25.3607   44.4370 H   0  0  0  0  0  0  0  0  0  0  0  0
   56.6327   22.1858   44.1088 H   0  0  0  0  0  0  0  0  0  0  0  0
   55.5472   22.9542   42.9013 H   0  0  0  0  0  0  0  0  0  0  0  0
   57.3028   23.3345   42.9013 H   0  0  0  0  0  0  0  0  0  0  0  0
   54.1482   23.8394   45.2259 H   0  0  0  0  0  0  0  0  0  0  0  0
  1  2  1  0
  2  3  1  0
  3  4  1  0
  4  5  2  0
  5  6  1  0
  6  7  2  0
  7  8  1  0
  8  9  2  0
  9 10  1  0
 10 11  1  0
 11 12  1  0
 12 13  1  0
 13 14  1  0
 14 15  1  0
 15 16  1  0
 16 17  1  0
 17 18  2  0
 18 19  1  0
 18 20  1  0
 20 21  2  0
  9  4  1  0
 21 16  1  0
  1 22  1  0
  1 23  1  0
  1 24  1  0
  2 25  1  0
  2 26  1  0
  5 27  1  0
  6 28  1  0
  7 29  1  0
  8 30  1  0
 11 31  1  0
 11 32  1  0
 12 33  1  0
 12 34  1  0
 13 35  1  0
 14 36  1  0
 14 37  1  0
 15 38  1  0
 15 39  1  0
 17 40  1  0
 19 41  1  0
 19 42  1  0
 19 43  1  0
 20 44  1  0
M  END
>  <UniqueID>  (15) 
15

>  <SMILES>  (15) 
CCOc1ccccc1OCCNCCn1cc(C)cn1

>  <Energy>  (15) 
68.50125289368083

>  <Genealogy>  (15) 
CCOc1ccccc1OCCNCCn1cc(C)cn1 (3D coordinates assigned)
CCOc1ccccc1OCCNCCn1cc(C)cn1 (optimized conformer: 68.50125289368083 kcal/mol)

>  <smiles>  (15) 
CCOc1ccccc1OCCNCCn1cc(C)cn1

>  <score_type>  (15) 
oracle

>  <origin>  (15) 
adg

>  <m_score__min__energy>  (15) 
-6.75

>  <m_primary>  (15) 
energy

$$$$
15:0
     RDKit          3D

 38 40  0  0  0  0  0  0  0  0999 V2000
   56.5860   26.4970   46.0320 C   0  0  0  0  0  0  0  0  0  0  0  0
   57.1060   27.7230   45.2900 C   0  0  0  0  0  0  0  0  0  0  0  0
   56.0060   28.6580   45.0300 N   0  0  0  0  0  0  0  0  0  0  0  0
   56.2680   29.4250   43.8050 C   0  0  0  0  0  0  0  0  0  0  0  0
   57.1170   30.6610   44.1150 C   0  0  0  0  0  0  0  0  0  0  0  0
   57.3970   30.7590   45.5480 N   0  0  0  0  0  0  0  0  0  0  0  0
   58.6300   31.2960   46.0430 C   0  0  0  0  0  0  0  0  0  0  0  0
   59.6660   30.6110   46.6710 C   0  0  0  0  0  0  0  0  0  0  0  0
   59.8410   29.1530   46.7940 C   0  0  0  0  0  0  0  0  0  0  0  0
   60.3220   28.3170   45.7920 C   0  0  0  0  0  0  0  0  0  0  0  0
   60.3160   26.9630   46.1480 C   0  0  0  0  0  0  0  0  0  0  0  0
   59.8140   26.7240   47.4200 C   0  0  0  0  0  0  0  0  0  0  0  0
   59.3780   28.1980   48.1000 S   0  0  0  0  0  0  0  0  0  0  0  0
   60.6010   31.4990   47.0930 N   0  0  0  0  0  0  0  0  0  0  0  0
   60.1100   32.6930   46.7030 C   0  0  0  0  0  0  0  0  0  0  0  0
   60.7110   33.9320   46.9210 C   0  0  0  0  0  0  0  0  0  0  0  0
   60.0400   35.0740   46.4540 C   0  0  0  0  0  0  0  0  0  0  0  0
   58.8020   34.9530   45.7940 C   0  0  0  0  0  0  0  0  0  0  0  0
   58.2440   33.6810   45.6010 C   0  0  0  0  0  0  0  0  0  0  0  0
   58.9310   32.6040   46.0610 N   0  0  0  0  0  0  0  0  0  0  0  0
   56.6580   26.6668   47.1164 H   0  0  0  0  0  0  0  0  0  0  0  0
   55.5355   26.3205   45.7575 H   0  0  0  0  0  0  0  0  0  0  0  0
   57.1892   25.6191   45.7575 H   0  0  0  0  0  0  0  0  0  0  0  0
   57.8708   28.2222   45.9030 H   0  0  0  0  0  0  0  0  0  0  0  0
   57.5434   27.4057   44.3319 H   0  0  0  0  0  0  0  0  0  0  0  0
   55.1430   28.0890   44.8740 H   0  0  0  0  0  0  0  0  0  0  0  0
   56.8055   28.7878   43.0874 H   0  0  0  0  0  0  0  0  0  0  0  0
   55.3080   29.7517   43.3787 H   0  0  0  0  0  0  0  0  0  0  0  0
   58.0680   30.5909   43.5666 H   0  0  0  0  0  0  0  0  0  0  0  0
   56.5585   31.5565   43.8050 H   0  0  0  0  0  0  0  0  0  0  0  0
   56.8300   30.1600   46.1910 H   0  0  0  0  0  0  0  0  0  0  0  0
   60.6726   28.6835   44.8159 H   0  0  0  0  0  0  0  0  0  0  0  0
   60.6751   26.1640   45.4827 H   0  0  0  0  0  0  0  0  0  0  0  0
   59.7180   25.7391   47.9004 H   0  0  0  0  0  0  0  0  0  0  0  0
   61.6772   34.0123   47.4407 H   0  0  0  0  0  0  0  0  0  0  0  0
   60.4842   36.0690   46.6047 H   0  0  0  0  0  0  0  0  0  0  0  0
   58.2767   35.8493   45.4326 H   0  0  0  0  0  0  0  0  0  0  0  0
   57.2769   33.5592   45.0913 H   0  0  0  0  0  0  0  0  0  0  0  0
  1  2  1  0
  2  3  1  0
  3  4  1  0
  4  5  1  0
  5  6  1  0
  6  7  1  0
  7  8  2  0
  8  9  1  0
  9 10  2  0
 10 11  1  0
 11 12  2  0
 12 13  1  0
  8 14  1  0
 14 15  2  0
 15 16  1  0
 16 17  2  0
 17 18  1  0
 18 19  2  0
 19 20  1  0
 20  7  1  0
 13  9  1  0
 20 15  1  0
  1 21  1  0
  1 22  1  0
  1 23  1  0
  2 24  1  0
  2 25  1  0
  3 26  1  0
  4 27  1  0
  4 28  1  0
  5 29  1  0
  5 30  1  0
  6 31  1  0
 10 32  1  0
 11 33  1  0
 12 34  1  0
 16 35  1  0
 17 36  1  0
 18 37  1  0
 19 38  1  0
M  END
>  <UniqueID>  (16) 
16

>  <SMILES>  (16) 
CCNCCNc1c(-c2cccs2)nc2ccccn12

>  <Energy>  (16) 
99.18797805183527

>  <Genealogy>  (16) 
CCNCCNc1c(-c2cccs2)nc2ccccn12 (3D coordinates assigned)
CCNCCNc1c(-c2cccs2)nc2ccccn12 (optimized conformer: 99.18797805183527 kcal/mol)

>  <smiles>  (16) 
CCNCCNc1c(-c2cccs2)nc2ccccn12

>  <score_type>  (16) 
oracle

>  <origin>  (16) 
adg

>  <m_score__min__energy>  (16) 
-6.1299999999999999

>  <m_primary>  (16) 
energy

$$$$
16:0
     RDKit          3D

 49 52  0  0  0  0  0  0  0  0999 V2000
   56.6160   30.4670   42.9670 C   0  0  0  0  0  0  0  0  0  0  0  0
   56.7540   29.2890   43.9350 C   0  0  0  0  0  0  0  0  0  0  0  0
   57.5550   28.1770   43.3850 N   0  0  0  0  0  0  0  0  0  0  0  0
   58.3430   27.4070   44.3710 C   0  0  0  0  0  0  0  0  0  0  0  0
   59.3590   28.2460   45.1680 C   0  0  0  0  0  0  0  0  0  0  0  0
   58.9570   28.4060   46.5700 N   0  0  0  0  0  0  0  0  0  0  0  0
   59.4050   29.5010   47.3870 C   0  0  0  0  0  0  0  0  0  0  0  0
   59.2100   30.8070   46.9440 C   0  0  0  0  0  0  0  0  0  0  0  0
   59.7510   31.8780   47.6280 C   0  0  0  0  0  0  0  0  0  0  0  0
   60.3720   31.7280   48.8430 N   0  0  0  0  0  0  0  0  0  0  0  0
   60.6590   32.9100   49.6730 C   0  0  0  0  0  0  0  0  0  0  0  0
   60.6260   30.4460   49.3020 C   0  0  0  0  0  0  0  0  0  0  0  0
   61.4140   30.2120   50.4550 C   0  0  0  0  0  0  0  0  0  0  0  0
   61.5760   28.9240   50.9660 C   0  0  0  0  0  0  0  0  0  0  0  0
   60.9550   27.8410   50.3510 C   0  0  0  0  0  0  0  0  0  0  0  0
   61.1180   26.2340   51.0350 Cl  0  0  0  0  0  0  0  0  0  0  0  0
   60.2110   28.0310   49.1870 C   0  0  0  0  0  0  0  0  0  0  0  0
   60.0910   29.3110   48.6100 C   0  0  0  0  0  0  0  0  0  0  0  0
   59.4990   33.0870   46.8320 C   0  0  0  0  0  0  0  0  0  0  0  0
   60.0120   34.3900   46.9280 C   0  0  0  0  0  0  0  0  0  0  0  0
   59.6530   35.3320   45.9510 C   0  0  0  0  0  0  0  0  0  0  0  0
   58.8320   34.9610   44.8720 C   0  0  0  0  0  0  0  0  0  0  0  0
   58.3830   33.6380   44.7490 C   0  0  0  0  0  0  0  0  0  0  0  0
   58.7390   32.7150   45.7340 C   0  0  0  0  0  0  0  0  0  0  0  0
   58.4690   31.2460   45.7140 C   0  0  0  0  0  0  0  0  0  0  0  0
   56.5067   31.4004   43.5386 H   0  0  0  0  0  0  0  0  0  0  0  0
   57.5131   30.5280   42.3334 H   0  0  0  0  0  0  0  0  0  0  0  0
   55.7291   30.3190   42.3334 H   0  0  0  0  0  0  0  0  0  0  0  0
   57.2383   29.6473   44.8554 H   0  0  0  0  0  0  0  0  0  0  0  0
   55.7424   28.9012   44.1254 H   0  0  0  0  0  0  0  0  0  0  0  0
   56.9130   27.5360   42.8720 H   0  0  0  0  0  0  0  0  0  0  0  0
   58.2190   28.5680   42.6760 H   0  0  0  0  0  0  0  0  0  0  0  0
   57.6445   26.9443   45.0838 H   0  0  0  0  0  0  0  0  0  0  0  0
   58.9249   26.6685   43.8000 H   0  0  0  0  0  0  0  0  0  0  0  0
   60.3380   27.7456   45.1337 H   0  0  0  0  0  0  0  0  0  0  0  0
   59.4081   29.2456   44.7114 H   0  0  0  0  0  0  0  0  0  0  0  0
   58.0770   27.9180   46.8540 H   0  0  0  0  0  0  0  0  0  0  0  0
   60.5925   32.6363   50.7363 H   0  0  0  0  0  0  0  0  0  0  0  0
   61.6722   33.2764   49.4513 H   0  0  0  0  0  0  0  0  0  0  0  0
   59.9266   33.7003   49.4513 H   0  0  0  0  0  0  0  0  0  0  0  0
   61.9061   31.0589   50.9556 H   0  0  0  0  0  0  0  0  0  0  0  0
   62.1976   28.7637   51.8593 H   0  0  0  0  0  0  0  0  0  0  0  0
   59.7123   27.1722   48.7140 H   0  0  0  0  0  0  0  0  0  0  0  0
   60.6833   34.6680   47.7539 H   0  0  0  0  0  0  0  0  0  0  0  0
   60.0165   36.3672   46.0303 H   0  0  0  0  0  0  0  0  0  0  0  0
   58.5407   35.7108   44.1217 H   0  0  0  0  0  0  0  0  0  0  0  0
   57.7625   33.3336   43.8932 H   0  0  0  0  0  0  0  0  0  0  0  0
   57.3930   31.0311   45.7913 H   0  0  0  0  0  0  0  0  0  0  0  0
   58.7804   30.7383   44.7892 H   0  0  0  0  0  0  0  0  0  0  0  0
  1  2  1  0
  2  3  1  0
  3  4  1  0
  4  5  1  0
  5  6  1  0
  6  7  1  0
  7  8  2  0
  8  9  1  0
  9 10  2  0
 10 11  1  0
 10 12  1  0
 12 13  2  0
 13 14  1  0
 14 15  2  0
 15 16  1  0
 15 17  1  0
 17 18  2  0
  9 19  1  0
 19 20  2  0
 20 21  1  0
 21 22  2  0
 22 23  1  0
 23 24  2  0
 24 25  1  0
 18  7  1  0
 24 19  1  0
 25  8  1  0
 18 12  1  0
  1 26  1  0
  1 27  1  0
  1 28  1  0
  2 29  1  0
  2 30  1  0
  3 31  1  0
  3 32  1  0
  4 33  1  0
  4 34  1  0
  5 35  1  0
  5 36  1  0
  6 37  1  0
 11 38  1  0
 11 39  1  0
 11 40  1  0
 13 41  1  0
 14 42  1  0
 17 43  1  0
 20 44  1  0
 21 45  1  0
 22 46  1  0
 23 47  1  0
 25 48  1  0
 25 49  1  0
M  CHG  2   3   1  10   1
M  END
>  <UniqueID>  (17) 
17

>  <SMILES>  (17) 
CC[NH2+]CCNc1c2c([n+](C)c3ccc(Cl)cc13)-c1ccccc1C2

>  <Energy>  (17) 
93.869456613572

>  <Genealogy>  (17) 
CC[NH2+]CCNc1c2c([n+](C)c3ccc(Cl)cc13)-c1ccccc1C2 (protonated)
CC[NH2+]CCNc1c2c([n+](C)c3ccc(Cl)cc13)-c1ccccc1C2 (3D coordinates assigned)
CC[NH2+]CCNc1c2c([n+](C)c3ccc(Cl)cc13)-c1ccccc1C2 (nonaromatic ring conformer: 93.869456613572 kcal/mol)

>  <smiles>  (17) 
CCNCCNc1c2c([n+](C)c3ccc(Cl)cc13)-c1ccccc1C2

>  <score_type>  (17) 
oracle

>  <origin>  (17) 
adg

>  <m_score__min__energy>  (17) 
-5.2999999999999998

>  <m_primary>  (17) 
energy

$$$$
17:0
     RDKit          3D

 77 79  0  0  0  0  0  0  0  0999 V2000
   57.9120   33.2000   46.9980 C   0  0  0  0  0  0  0  0  0  0  0  0
   58.0050   32.7200   45.5520 C   0  0  0  0  0  0  0  0  0  0  0  0
   56.9370   31.7600   45.2540 N   0  0  0  0  0  0  0  0  0  0  0  0
   57.0290   31.2080   43.8870 C   0  0  0  0  0  0  0  0  0  0  0  0
   56.3220   29.8530   43.8260 C   0  0  0  0  0  0  0  0  0  0  0  0
   56.1570   29.3340   45.1320 O   0  0  0  0  0  0  0  0  0  0  0  0
   56.9910   28.2180   45.3460 C   0  0  0  0  0  0  0  0  0  0  0  0
   58.4560   28.6500   45.2260 C   0  0  0  0  0  0  0  0  0  0  0  0
   58.7680   29.6970   46.1280 O   0  0  0  0  0  0  0  0  0  0  0  0
   58.5210   29.3330   47.4760 C   0  0  0  0  0  0  0  0  0  0  0  0
   59.5600   28.3100   47.9410 C   0  0  0  0  0  0  0  0  0  0  0  0
   60.7120   28.9630   48.5670 N   0  0  0  0  0  0  0  0  0  0  0  0
   60.5240   30.1770   49.3110 C   0  0  0  0  0  0  0  0  0  0  0  0
   60.8860   31.4110   48.7500 C   0  0  0  0  0  0  0  0  0  0  0  0
   61.5930   31.4720   47.5300 C   0  0  0  0  0  0  0  0  0  0  0  0
   61.9750   32.6980   46.9900 C   0  0  0  0  0  0  0  0  0  0  0  0
   61.6770   33.8770   47.6620 C   0  0  0  0  0  0  0  0  0  0  0  0
   60.9890   33.8390   48.8750 C   0  0  0  0  0  0  0  0  0  0  0  0
   60.5550   32.6100   49.4340 C   0  0  0  0  0  0  0  0  0  0  0  0
   59.8440   32.5580   50.6200 N   0  0  0  0  0  0  0  0  0  0  0  0
   59.2520   33.7940   51.1780 C   0  0  0  0  0  0  0  0  0  0  0  0
   59.6710   31.3480   51.2700 C   0  0  0  0  0  0  0  0  0  0  0  0
   59.1990   31.2790   52.6030 C   0  0  0  0  0  0  0  0  0  0  0  0
   58.9480   30.0480   53.2370 C   0  0  0  0  0  0  0  0  0  0  0  0
   58.4550   29.9930   54.5940 N   0  0  0  0  0  0  0  0  0  0  0  0
   57.0620   29.6920   54.9320 C   0  0  0  0  0  0  0  0  0  0  0  0
   56.0860   30.4580   54.0270 C   0  0  0  0  0  0  0  0  0  0  0  0
   55.9910   29.8380   52.6860 N   0  0  0  0  0  0  0  0  0  0  0  0
   55.9510   30.8640   51.6280 C   0  0  0  0  0  0  0  0  0  0  0  0
   54.7820   29.0020   52.6030 C   0  0  0  0  0  0  0  0  0  0  0  0
   59.1900   28.8540   52.5400 C   0  0  0  0  0  0  0  0  0  0  0  0
   58.9080   27.6300   53.1720 O   0  0  0  0  0  0  0  0  0  0  0  0
   59.8010   26.9250   54.0260 C   0  0  0  0  0  0  0  0  0  0  0  0
   59.7150   28.9060   51.2410 C   0  0  0  0  0  0  0  0  0  0  0  0
   59.9760   30.1360   50.6060 C   0  0  0  0  0  0  0  0  0  0  0  0
   58.0765   32.3508   47.6775 H   0  0  0  0  0  0  0  0  0  0  0  0
   58.6780   33.9684   47.1793 H   0  0  0  0  0  0  0  0  0  0  0  0
   56.9145   33.6267   47.1793 H   0  0  0  0  0  0  0  0  0  0  0  0
   57.9118   33.5844   44.8781 H   0  0  0  0  0  0  0  0  0  0  0  0
   58.9762   32.2247   45.4059 H   0  0  0  0  0  0  0  0  0  0  0  0
   57.0240   30.9640   45.9320 H   0  0  0  0  0  0  0  0  0  0  0  0
   56.5503   31.9017   43.1802 H   0  0  0  0  0  0  0  0  0  0  0  0
   58.0878   31.0773   43.6189 H   0  0  0  0  0  0  0  0  0  0  0  0
   55.3352   29.9778   43.3563 H   0  0  0  0  0  0  0  0  0  0  0  0
   56.9313   29.1542   43.2340 H   0  0  0  0  0  0  0  0  0  0  0  0
   56.8092   27.8109   46.3516 H   0  0  0  0  0  0  0  0  0  0  0  0
   56.7721   27.4450   44.5946 H   0  0  0  0  0  0  0  0  0  0  0  0
   59.1015   27.7866   45.4447 H   0  0  0  0  0  0  0  0  0  0  0  0
   58.6230   29.0172   44.2026 H   0  0  0  0  0  0  0  0  0  0  0  0
   58.5815   30.2284   48.1120 H   0  0  0  0  0  0  0  0  0  0  0  0
   57.5177   28.8885   47.5518 H   0  0  0  0  0  0  0  0  0  0  0  0
   59.0929   27.6323   48.6707 H   0  0  0  0  0  0  0  0  0  0  0  0
   59.9144   27.7530   47.0611 H   0  0  0  0  0  0  0  0  0  0  0  0
   61.6160   28.4500   48.6690 H   0  0  0  0  0  0  0  0  0  0  0  0
   61.8450   30.5417   47.0000 H   0  0  0  0  0  0  0  0  0  0  0  0
   62.5128   32.7327   46.0311 H   0  0  0  0  0  0  0  0  0  0  0  0
   61.9845   34.8435   47.2362 H   0  0  0  0  0  0  0  0  0  0  0  0
   60.7795   34.7786   49.4071 H   0  0  0  0  0  0  0  0  0  0  0  0
   59.2742   33.7476   52.2768 H   0  0  0  0  0  0  0  0  0  0  0  0
   59.8309   34.6646   50.8360 H   0  0  0  0  0  0  0  0  0  0  0  0
   58.2108   33.8887   50.8360 H   0  0  0  0  0  0  0  0  0  0  0  0
   59.0238   32.2125   53.1579 H   0  0  0  0  0  0  0  0  0  0  0  0
   59.1050   30.2430   55.3750 H   0  0  0  0  0  0  0  0  0  0  0  0
   56.8899   28.6124   54.8106 H   0  0  0  0  0  0  0  0  0  0  0  0
   56.8842   30.0019   55.9723 H   0  0  0  0  0  0  0  0  0  0  0  0
   55.0897   30.4564   54.4932 H   0  0  0  0  0  0  0  0  0  0  0  0
   56.4598   31.4855   53.9070 H   0  0  0  0  0  0  0  0  0  0  0  0
   55.9121   31.8628   52.0871 H   0  0  0  0  0  0  0  0  0  0  0  0
   56.8530   30.7823   51.0037 H   0  0  0  0  0  0  0  0  0  0  0  0
   55.0581   30.7123   51.0037 H   0  0  0  0  0  0  0  0  0  0  0  0
   54.4328   28.7605   53.6178 H   0  0  0  0  0  0  0  0  0  0  0  0
   53.9941   29.5492   52.0646 H   0  0  0  0  0  0  0  0  0  0  0  0
   55.0158   28.0717   52.0646 H   0  0  0  0  0  0  0  0  0  0  0  0
   59.5425   27.1291   55.0755 H   0  0  0  0  0  0  0  0  0  0  0  0
   59.7190   25.8455   53.8314 H   0  0  0  0  0  0  0  0  0  0  0  0
   60.8320   27.2553   53.8314 H   0  0  0  0  0  0  0  0  0  0  0  0
   59.9272   27.9679   50.7072 H   0  0  0  0  0  0  0  0  0  0  0  0
  1  2  1  0
  2  3  1  0
  3  4  1  0
  4  5  1  0
  5  6  1  0
  6  7  1  0
  7  8  1  0
  8  9  1  0
  9 10  1  0
 10 11  1  0
 11 12  1  0
 12 13  1  0
 13 14  2  0
 14 15  1  0
 15 16  2  0
 16 17  1  0
 17 18  2  0
 18 19  1  0
 19 20  2  0
 20 21  1  0
 20 22  1  0
 22 23  2  0
 23 24  1  0
 24 25  1  0
 25 26  1  0
 26 27  1  0
 27 28  1  0
 28 29  1  0
 28 30  1  0
 24 31  2  0
 31 32  1  0
 32 33  1  0
 31 34  1  0
 34 35  2  0
 35 13  1  0
 19 14  1  0
 35 22  1  0
  1 36  1  0
  1 37  1  0
  1 38  1  0
  2 39  1  0
  2 40  1  0
  3 41  1  0
  4 42  1  0
  4 43  1  0
  5 44  1  0
  5 45  1  0
  7 46  1  0
  7 47  1  0
  8 48  1  0
  8 49  1  0
 10 50  1  0
 10 51  1  0
 11 52  1  0
 11 53  1  0
 12 54  1  0
 15 55  1  0
 16 56  1  0
 17 57  1  0
 18 58  1  0
 21 59  1  0
 21 60  1  0
 21 61  1  0
 23 62  1  0
 25 63  1  0
 26 64  1  0
 26 65  1  0
 27 66  1  0
 27 67  1  0
 29 68  1  0
 29 69  1  0
 29 70  1  0
 30 71  1  0
 30 72  1  0
 30 73  1  0
 33 74  1  0
 33 75  1  0
 33 76  1  0
 34 77  1  0
M  CHG  1  20   1
M  END
>  <UniqueID>  (18) 
18

>  <SMILES>  (18) 
CCNCCOCCOCCNc1c2ccccc2[n+](C)c2cc(NCCN(C)C)c(OC)cc12

>  <Energy>  (18) 
97.41398281424864

>  <Genealogy>  (18) 
CCNCCOCCOCCNc1c2ccccc2[n+](C)c2cc(NCCN(C)C)c(OC)cc12 (3D coordinates assigned)
CCNCCOCCOCCNc1c2ccccc2[n+](C)c2cc(NCCN(C)C)c(OC)cc12 (optimized conformer: 97.41398281424864 kcal/mol)

>  <smiles>  (18) 
CCNCCOCCOCCNc1c2ccccc2[n+](C)c2cc(NCCN(C)C)c(OC)cc12

>  <score_type>  (18) 
oracle

>  <origin>  (18) 
adg

>  <m_score__min__energy>  (18) 
-5.3300000000000001

>  <m_primary>  (18) 
energy

$$$$
18:0
     RDKit          3D

 42 44  0  0  0  0  0  0  0  0999 V2000
   57.0070   30.6910   43.4570 C   0  0  0  0  0  0  0  0  0  0  0  0
   56.6730   31.3180   44.6910 O   0  0  0  0  0  0  0  0  0  0  0  0
   57.4170   32.3530   45.2790 C   0  0  0  0  0  0  0  0  0  0  0  0
   57.7860   33.5260   44.5620 C   0  0  0  0  0  0  0  0  0  0  0  0
   58.5430   34.5360   45.1820 C   0  0  0  0  0  0  0  0  0  0  0  0
   58.9170   34.3510   46.5100 C   0  0  0  0  0  0  0  0  0  0  0  0
   59.6290   35.1910   47.2810 N   0  0  0  0  0  0  0  0  0  0  0  0
   59.7280   34.5950   48.4910 C   0  0  0  0  0  0  0  0  0  0  0  0
   59.0730   33.3670   48.4810 C   0  0  0  0  0  0  0  0  0  0  0  0
   58.9000   32.4370   49.6460 C   0  0  0  0  0  0  0  0  0  0  0  0
   60.2330   32.1570   50.3680 C   0  0  0  0  0  0  0  0  0  0  0  0
   60.6980   30.7630   50.2320 N   0  0  0  0  0  0  0  0  0  0  0  0
   62.1330   30.6770   49.9090 C   0  0  0  0  0  0  0  0  0  0  0  0
   62.5230   31.7600   48.9280 C   0  0  0  0  0  0  0  0  0  0  0  0
   63.3730   32.7960   49.3550 C   0  0  0  0  0  0  0  0  0  0  0  0
   63.7320   33.8260   48.4820 C   0  0  0  0  0  0  0  0  0  0  0  0
   63.2370   33.8410   47.1780 C   0  0  0  0  0  0  0  0  0  0  0  0
   62.3770   32.8310   46.7450 C   0  0  0  0  0  0  0  0  0  0  0  0
   62.0110   31.7930   47.6110 C   0  0  0  0  0  0  0  0  0  0  0  0
   60.9020   30.5640   47.0120 Cl  0  0  0  0  0  0  0  0  0  0  0  0
   58.5590   33.2270   47.2080 C   0  0  0  0  0  0  0  0  0  0  0  0
   57.8080   32.2080   46.6250 C   0  0  0  0  0  0  0  0  0  0  0  0
   57.5156   29.7363   43.6567 H   0  0  0  0  0  0  0  0  0  0  0  0
   56.0890   30.5039   42.8805 H   0  0  0  0  0  0  0  0  0  0  0  0
   57.6744   31.3484   42.8805 H   0  0  0  0  0  0  0  0  0  0  0  0
   57.4761   33.6435   43.5131 H   0  0  0  0  0  0  0  0  0  0  0  0
   58.8310   35.4452   44.6339 H   0  0  0  0  0  0  0  0  0  0  0  0
   60.0180   36.1200   47.0080 H   0  0  0  0  0  0  0  0  0  0  0  0
   60.2518   35.0204   49.3597 H   0  0  0  0  0  0  0  0  0  0  0  0
   58.1980   32.8910   50.3609 H   0  0  0  0  0  0  0  0  0  0  0  0
   58.5158   31.4806   49.2616 H   0  0  0  0  0  0  0  0  0  0  0  0
   61.0020   32.8224   49.9486 H   0  0  0  0  0  0  0  0  0  0  0  0
   60.0629   32.3368   51.4398 H   0  0  0  0  0  0  0  0  0  0  0  0
   60.4960   30.2230   51.1040 H   0  0  0  0  0  0  0  0  0  0  0  0
   60.1510   30.3250   49.4530 H   0  0  0  0  0  0  0  0  0  0  0  0
   62.7192   30.7969   50.8320 H   0  0  0  0  0  0  0  0  0  0  0  0
   62.3363   29.6962   49.4542 H   0  0  0  0  0  0  0  0  0  0  0  0
   63.7585   32.7953   50.3852 H   0  0  0  0  0  0  0  0  0  0  0  0
   64.4056   34.6258   48.8233 H   0  0  0  0  0  0  0  0  0  0  0  0
   63.5249   34.6498   46.4903 H   0  0  0  0  0  0  0  0  0  0  0  0
   61.9843   32.8502   45.7177 H   0  0  0  0  0  0  0  0  0  0  0  0
   57.5277   31.3136   47.2007 H   0  0  0  0  0  0  0  0  0  0  0  0
  1  2  1  0
  2  3  1  0
  3  4  2  0
  4  5  1  0
  5  6  2  0
  6  7  1  0
  7  8  1  0
  8  9  2  0
  9 10  1  0
 10 11  1  0
 11 12  1  0
 12 13  1  0
 13 14  1  0
 14 15  2  0
 15 16  1  0
 16 17  2  0
 17 18  1  0
 18 19  2  0
 19 20  1  0
  9 21  1  0
 21 22  2  0
 22  3  1  0
 21  6  1  0
 19 14  1  0
  1 23  1  0
  1 24  1  0
  1 25  1  0
  4 26  1  0
  5 27  1  0
  7 28  1  0
  8 29  1  0
 10 30  1  0
 10 31  1  0
 11 32  1  0
 11 33  1  0
 12 34  1  0
 12 35  1  0
 13 36  1  0
 13 37  1  0
 15 38  1  0
 16 39  1  0
 17 40  1  0
 18 41  1  0
 22 42  1  0
M  CHG  1  12   1
M  END
>  <UniqueID>  (19) 
19

>  <SMILES>  (19) 
COc1ccc2[nH]cc(CC[NH2+]Cc3ccccc3Cl)c2c1

>  <Energy>  (19) 
74.53210941541462

>  <Genealogy>  (19) 
COc1ccc2[nH]cc(CC[NH2+]Cc3ccccc3Cl)c2c1 (protonated)
COc1ccc2[nH]cc(CC[NH2+]Cc3ccccc3Cl)c2c1 (3D coordinates assigned)
COc1ccc2[nH]cc(CC[NH2+]Cc3ccccc3Cl)c2c1 (optimized conformer: 74.53210941541462 kcal/mol)

>  <smiles>  (19) 
COc1ccc2[nH]cc(CCNCc3ccccc3Cl)c2c1

>  <score_type>  (19) 
oracle

>  <origin>  (19) 
adg

>  <m_score__min__energy>  (19) 
-5.5999999999999996

>  <m_primary>  (19) 
energy

$$$$
19:0
     RDKit          3D

 53 55  0  0  0  0  0  0  0  0999 V2000
   57.0720   34.1950   44.9010 C   0  0  0  0  0  0  0  0  0  0  0  0
   57.7860   33.1310   45.6800 C   0  0  0  0  0  0  0  0  0  0  0  0
   57.3740   31.9430   45.5850 O   0  0  0  0  0  0  0  0  0  0  0  0
   58.9210   33.4320   46.5250 N   0  0  0  0  0  0  0  0  0  0  0  0
   60.0120   34.2550   45.9740 C   0  0  0  0  0  0  0  0  0  0  0  0
   61.3670   33.8670   46.5800 C   0  0  0  0  0  0  0  0  0  0  0  0
   61.3620   33.8270   48.1210 C   0  0  0  0  0  0  0  0  0  0  0  0
   59.9620   33.9410   48.7390 C   0  0  0  0  0  0  0  0  0  0  0  0
   58.8920   33.1310   47.9740 C   0  0  2  0  0  0  0  0  0  0  0  0
   58.9950   31.6120   48.2590 C   0  0  0  0  0  0  0  0  0  0  0  0
   60.2020   30.9980   47.6450 N   0  0  0  0  0  0  0  0  0  0  0  0
   59.9430   30.5130   46.2590 C   0  0  0  0  0  0  0  0  0  0  0  0
   60.6290   29.1720   45.9270 C   0  0  0  0  0  0  0  0  0  0  0  0
   60.3350   28.1130   46.9180 N   0  0  0  0  0  0  0  0  0  0  0  0
   59.0100   27.0910   46.4050 S   0  0  0  0  0  0  0  0  0  0  0  0
   57.9870   27.0000   47.5020 O   0  0  0  0  0  0  0  0  0  0  0  0
   59.5280   25.7080   46.1260 O   0  0  0  0  0  0  0  0  0  0  0  0
   58.2390   27.7150   44.9550 C   0  0  0  0  0  0  0  0  0  0  0  0
   58.1140   27.0760   43.7370 C   0  0  0  0  0  0  0  0  0  0  0  0
   57.4050   27.8730   42.9160 N   0  0  0  0  0  0  0  0  0  0  0  0
   57.0770   28.9750   43.5720 N   0  0  0  0  0  0  0  0  0  0  0  0
   56.3100   30.0790   43.0090 C   0  0  0  0  0  0  0  0  0  0  0  0
   57.5780   28.9200   44.8200 C   0  0  0  0  0  0  0  0  0  0  0  0
   60.1180   28.6050   48.2940 C   0  0  0  0  0  0  0  0  0  0  0  0
   60.7970   29.9600   48.5170 C   0  0  0  0  0  0  0  0  0  0  0  0
   56.5972   34.9025   45.5967 H   0  0  0  0  0  0  0  0  0  0  0  0
   57.7933   34.7319   44.2674 H   0  0  0  0  0  0  0  0  0  0  0  0
   56.3017   33.7310   44.2674 H   0  0  0  0  0  0  0  0  0  0  0  0
   60.0531   34.1115   44.8842 H   0  0  0  0  0  0  0  0  0  0  0  0
   59.8106   35.3076   46.2219 H   0  0  0  0  0  0  0  0  0  0  0  0
   61.6428   32.8697   46.2066 H   0  0  0  0  0  0  0  0  0  0  0  0
   62.0897   34.6396   46.2785 H   0  0  0  0  0  0  0  0  0  0  0  0
   61.8075   32.8747   48.4446 H   0  0  0  0  0  0  0  0  0  0  0  0
   61.9365   34.6993   48.4660 H   0  0  0  0  0  0  0  0  0  0  0  0
   60.0057   33.5723   49.7744 H   0  0  0  0  0  0  0  0  0  0  0  0
   59.6679   34.9998   48.6898 H   0  0  0  0  0  0  0  0  0  0  0  0
   57.9095   33.4501   48.3521 H   0  0  0  0  0  0  0  0  0  0  0  0
   59.0365   31.4593   49.3476 H   0  0  0  0  0  0  0  0  0  0  0  0
   58.1119   31.1282   47.8162 H   0  0  0  0  0  0  0  0  0  0  0  0
   58.8575   30.3870   46.1335 H   0  0  0  0  0  0  0  0  0  0  0  0
   60.3633   31.2644   45.5743 H   0  0  0  0  0  0  0  0  0  0  0  0
   60.2809   28.8348   44.9395 H   0  0  0  0  0  0  0  0  0  0  0  0
   61.7152   29.3448   45.9415 H   0  0  0  0  0  0  0  0  0  0  0  0
   58.5229   26.0872   43.4820 H   0  0  0  0  0  0  0  0  0  0  0  0
   57.1420   27.6600   41.9270 H   0  0  0  0  0  0  0  0  0  0  0  0
   55.8885   30.6858   43.8239 H   0  0  0  0  0  0  0  0  0  0  0  0
   56.9689   30.7047   42.3891 H   0  0  0  0  0  0  0  0  0  0  0  0
   55.4937   29.6798   42.3891 H   0  0  0  0  0  0  0  0  0  0  0  0
   57.4788   29.6957   45.5936 H   0  0  0  0  0  0  0  0  0  0  0  0
   59.0374   28.7131   48.4691 H   0  0  0  0  0  0  0  0  0  0  0  0
   60.5564   27.8788   48.9943 H   0  0  0  0  0  0  0  0  0  0  0  0
   60.6712   30.2573   49.5685 H   0  0  0  0  0  0  0  0  0  0  0  0
   61.8647   29.8633   48.2707 H   0  0  0  0  0  0  0  0  0  0  0  0
  1  2  1  0
  2  3  2  0
  2  4  1  0
  4  5  1  0
  5  6  1  0
  6  7  1  0
  7  8  1  0
  8  9  1  0
  9 10  1  0
 10 11  1  0
 11 12  1  0
 12 13  1  0
 13 14  1  0
 14 15  1  0
 15 16  2  0
 15 17  2  0
 15 18  1  0
 18 19  1  0
 19 20  2  0
 20 21  1  0
 21 22  1  0
 21 23  1  0
 14 24  1  0
 24 25  1  0
  9  4  1  0
 25 11  1  0
 23 18  2  0
  1 26  1  0
  1 27  1  0
  1 28  1  0
  5 29  1  0
  5 30  1  0
  6 31  1  0
  6 32  1  0
  7 33  1  0
  7 34  1  0
  8 35  1  0
  8 36  1  0
  9 37  1  1
 10 38  1  0
 10 39  1  0
 12 40  1  0
 12 41  1  0
 13 42  1  0
 13 43  1  0
 19 44  1  0
 20 45  1  0
 22 46  1  0
 22 47  1  0
 22 48  1  0
 23 49  1  0
 24 50  1  0
 24 51  1  0
 25 52  1  0
 25 53  1  0
M  CHG  1  20   1
M  END
>  <UniqueID>  (20) 
20

>  <SMILES>  (20) 
CC(=O)N1CCCC[C@@H]1CN1CCN(S(=O)(=O)c2c[nH+]n(C)c2)CC1

>  <Energy>  (20) 
95.03332026815372

>  <Genealogy>  (20) 
CC(=O)N1CCCCC1CN1CCN(S(=O)(=O)c2c[nH+]n(C)c2)CC1 (protonated)
CC(=O)N1CCCC[C@@H]1CN1CCN(S(=O)(=O)c2c[nH+]n(C)c2)CC1 (chirality)
CC(=O)N1CCCC[C@@H]1CN1CCN(S(=O)(=O)c2c[nH+]n(C)c2)CC1 (3D coordinates assigned)
CC(=O)N1CCCC[C@@H]1CN1CCN(S(=O)(=O)c2c[nH+]n(C)c2)CC1 (nonaromatic ring conformer: 95.03332026815372 kcal/mol)

>  <smiles>  (20) 
CC(=O)N1CCCCC1CN1CCN(S(=O)(=O)c2cnn(C)c2)CC1

>  <score_type>  (20) 
oracle

>  <origin>  (20) 
adg

>  <m_score__min__energy>  (20) 
-7.6299999999999999

>  <m_primary>  (20) 
energy

$$$$
20:0
     RDKit          3D

 48 50  0  0  0  0  0  0  0  0999 V2000
   59.6710   34.1860   49.3450 C   0  0  0  0  0  0  0  0  0  0  0  0
   60.6230   34.1380   47.7880 S   0  0  0  0  0  0  0  0  0  0  0  0
   59.2560   33.5780   46.7420 C   0  0  0  0  0  0  0  0  0  0  0  0
   58.4900   34.5860   46.1440 C   0  0  0  0  0  0  0  0  0  0  0  0
   57.4930   34.2760   45.2330 C   0  0  0  0  0  0  0  0  0  0  0  0
   57.3180   32.9640   44.8150 C   0  0  0  0  0  0  0  0  0  0  0  0
   58.1440   31.9200   45.3000 C   0  0  0  0  0  0  0  0  0  0  0  0
   59.0430   32.2110   46.3730 C   0  0  0  0  0  0  0  0  0  0  0  0
   59.7250   31.1300   46.9850 C   0  0  0  0  0  0  0  0  0  0  0  0
   60.3560   31.2780   48.2660 N   0  0  0  0  0  0  0  0  0  0  0  0
   61.8090   31.1850   48.4400 C   0  0  0  0  0  0  0  0  0  0  0  0
   62.5790   31.4780   47.1360 C   0  0  0  0  0  0  0  0  0  0  0  0
   63.6700   32.4720   47.3290 N   0  0  0  0  0  0  0  0  0  0  0  0
   63.4380   33.6660   46.4960 C   0  0  0  0  0  0  0  0  0  0  0  0
   63.7760   32.8730   48.7460 C   0  0  0  0  0  0  0  0  0  0  0  0
   59.6310   29.8400   46.4320 C   0  0  0  0  0  0  0  0  0  0  0  0
   60.3850   28.7710   46.9680 C   0  0  0  0  0  0  0  0  0  0  0  0
   60.2140   27.4720   46.4970 C   0  0  0  0  0  0  0  0  0  0  0  0
   59.2820   27.2100   45.5010 C   0  0  0  0  0  0  0  0  0  0  0  0
   58.5510   28.2550   44.9350 C   0  0  0  0  0  0  0  0  0  0  0  0
   58.7480   29.5990   45.3500 C   0  0  0  0  0  0  0  0  0  0  0  0
   58.0860   30.6510   44.7490 N   0  0  0  0  0  0  0  0  0  0  0  0
   57.3720   30.4370   43.4680 C   0  0  0  0  0  0  0  0  0  0  0  0
   60.3632   34.1511   50.1992 H   0  0  0  0  0  0  0  0  0  0  0  0
   59.0833   35.1149   49.3870 H   0  0  0  0  0  0  0  0  0  0  0  0
   58.9929   33.3209   49.3870 H   0  0  0  0  0  0  0  0  0  0  0  0
   58.6823   35.6382   46.4008 H   0  0  0  0  0  0  0  0  0  0  0  0
   56.8401   35.0698   44.8410 H   0  0  0  0  0  0  0  0  0  0  0  0
   56.5220   32.7301   44.0927 H   0  0  0  0  0  0  0  0  0  0  0  0
   59.7710   31.5700   49.0810 H   0  0  0  0  0  0  0  0  0  0  0  0
   62.1202   31.9120   49.2046 H   0  0  0  0  0  0  0  0  0  0  0  0
   62.0444   30.1542   48.7433 H   0  0  0  0  0  0  0  0  0  0  0  0
   63.0182   30.5393   46.7673 H   0  0  0  0  0  0  0  0  0  0  0  0
   61.8650   31.9015   46.4143 H   0  0  0  0  0  0  0  0  0  0  0  0
   64.5900   32.0650   47.0400 H   0  0  0  0  0  0  0  0  0  0  0  0
   63.2685   34.5382   47.1445 H   0  0  0  0  0  0  0  0  0  0  0  0
   64.3178   33.8467   45.8610 H   0  0  0  0  0  0  0  0  0  0  0  0
   62.5545   33.5040   45.8610 H   0  0  0  0  0  0  0  0  0  0  0  0
   63.5480   32.0103   49.3892 H   0  0  0  0  0  0  0  0  0  0  0  0
   64.7978   33.2242   48.9522 H   0  0  0  0  0  0  0  0  0  0  0  0
   63.0612   33.6833   48.9522 H   0  0  0  0  0  0  0  0  0  0  0  0
   61.1154   28.9678   47.7666 H   0  0  0  0  0  0  0  0  0  0  0  0
   60.8176   26.6524   46.9141 H   0  0  0  0  0  0  0  0  0  0  0  0
   59.1200   26.1775   45.1580 H   0  0  0  0  0  0  0  0  0  0  0  0
   57.8090   28.0341   44.1536 H   0  0  0  0  0  0  0  0  0  0  0  0
   56.3367   30.1267   43.6727 H   0  0  0  0  0  0  0  0  0  0  0  0
   57.3668   31.3731   42.8903 H   0  0  0  0  0  0  0  0  0  0  0  0
   57.8825   29.6524   42.8903 H   0  0  0  0  0  0  0  0  0  0  0  0
  1  2  1  0
  2  3  1  0
  3  4  2  0
  4  5  1  0
  5  6  2  0
  6  7  1  0
  7  8  2  0
  8  9  1  0
  9 10  1  0
 10 11  1  0
 11 12  1  0
 12 13  1  0
 13 14  1  0
 13 15  1  0
  9 16  2  0
 16 17  1  0
 17 18  2  0
 18 19  1  0
 19 20  2  0
 20 21  1  0
 21 22  2  0
 22 23  1  0
  8  3  1  0
 21 16  1  0
 22  7  1  0
  1 24  1  0
  1 25  1  0
  1 26  1  0
  4 27  1  0
  5 28  1  0
  6 29  1  0
 10 30  1  0
 11 31  1  0
 11 32  1  0
 12 33  1  0
 12 34  1  0
 13 35  1  0
 14 36  1  0
 14 37  1  0
 14 38  1  0
 15 39  1  0
 15 40  1  0
 15 41  1  0
 17 42  1  0
 18 43  1  0
 19 44  1  0
 20 45  1  0
 23 46  1  0
 23 47  1  0
 23 48  1  0
M  CHG  2  13   1  22   1
M  END
>  <UniqueID>  (21) 
21

>  <SMILES>  (21) 
CSc1cccc2c1c(NCC[NH+](C)C)c1ccccc1[n+]2C

>  <Energy>  (21) 
83.61244439486069

>  <Genealogy>  (21) 
CSc1cccc2c1c(NCC[NH+](C)C)c1ccccc1[n+]2C (protonated)
CSc1cccc2c1c(NCC[NH+](C)C)c1ccccc1[n+]2C (3D coordinates assigned)
CSc1cccc2c1c(NCC[NH+](C)C)c1ccccc1[n+]2C (optimized conformer: 83.61244439486069 kcal/mol)

>  <smiles>  (21) 
CSc1cccc2c1c(NCCN(C)C)c1ccccc1[n+]2C

>  <score_type>  (21) 
oracle

>  <origin>  (21) 
adg

>  <m_score__min__energy>  (21) 
-4.6600000000000001

>  <m_primary>  (21) 
energy

$$$$
21:0
     RDKit          3D

 54 55  0  0  0  0  0  0  0  0999 V2000
   60.0900   30.2100   48.3700 C   0  0  0  0  0  0  0  0  0  0  0  0
   58.7530   29.6750   47.8440 C   0  0  0  0  0  0  0  0  0  0  0  0
   58.6840   29.6390   46.3590 N   0  0  0  0  0  0  0  0  0  0  0  0
   59.9580   30.0370   45.6900 C   0  0  0  0  0  0  0  0  0  0  0  0
   60.6540   28.9260   44.8850 C   0  0  0  0  0  0  0  0  0  0  0  0
   58.0870   28.4000   45.7860 C   0  0  0  0  0  0  0  0  0  0  0  0
   57.0500   28.6060   44.6630 C   0  0  0  0  0  0  0  0  0  0  0  0
   56.2610   29.7520   44.9290 O   0  0  0  0  0  0  0  0  0  0  0  0
   56.4050   30.7210   43.9010 C   0  0  0  0  0  0  0  0  0  0  0  0
   57.3690   31.8420   44.2950 C   0  0  0  0  0  0  0  0  0  0  0  0
   57.4190   31.9490   45.7060 O   0  0  0  0  0  0  0  0  0  0  0  0
   57.6160   33.2940   46.1080 C   0  0  2  0  0  0  0  0  0  0  0  0
   57.5880   34.1890   44.8680 C   0  0  0  0  0  0  0  0  0  0  0  0
   58.9370   33.4790   46.8290 C   0  0  0  0  0  0  0  0  0  0  0  0
   58.9760   33.6020   48.2440 C   0  0  0  0  0  0  0  0  0  0  0  0
   60.2080   33.7470   48.9250 C   0  0  0  0  0  0  0  0  0  0  0  0
   60.3030   33.8680   50.3190 O   0  0  0  0  0  0  0  0  0  0  0  0
   59.2800   33.4710   51.2260 C   0  0  0  0  0  0  0  0  0  0  0  0
   61.3670   33.7630   48.1500 C   0  0  0  0  0  0  0  0  0  0  0  0
   62.6900   33.8850   48.5060 C   0  0  0  0  0  0  0  0  0  0  0  0
   63.3870   33.8220   47.3040 C   0  0  0  0  0  0  0  0  0  0  0  0
   62.5490   33.6730   46.2940 O   0  0  0  0  0  0  0  0  0  0  0  0
   61.3370   33.6370   46.7890 C   0  0  0  0  0  0  0  0  0  0  0  0
   60.1430   33.4890   46.0920 C   0  0  0  0  0  0  0  0  0  0  0  0
   60.0794   30.2058   49.4699 H   0  0  0  0  0  0  0  0  0  0  0  0
   60.9086   29.5702   48.0087 H   0  0  0  0  0  0  0  0  0  0  0  0
   60.2413   31.2379   48.0087 H   0  0  0  0  0  0  0  0  0  0  0  0
   58.6097   28.6535   48.2262 H   0  0  0  0  0  0  0  0  0  0  0  0
   57.9653   30.3590   48.1930 H   0  0  0  0  0  0  0  0  0  0  0  0
   58.0060   30.3930   46.0940 H   0  0  0  0  0  0  0  0  0  0  0  0
   59.7358   30.8664   45.0024 H   0  0  0  0  0  0  0  0  0  0  0  0
   60.6536   30.3079   46.4980 H   0  0  0  0  0  0  0  0  0  0  0  0
   61.1080   28.2013   45.5769 H   0  0  0  0  0  0  0  0  0  0  0  0
   59.9147   28.4143   44.2512 H   0  0  0  0  0  0  0  0  0  0  0  0
   61.4370   29.3680   44.2512 H   0  0  0  0  0  0  0  0  0  0  0  0
   58.9061   27.7885   45.3797 H   0  0  0  0  0  0  0  0  0  0  0  0
   57.5384   27.9253   46.6129 H   0  0  0  0  0  0  0  0  0  0  0  0
   57.5738   28.7400   43.7050 H   0  0  0  0  0  0  0  0  0  0  0  0
   56.3952   27.7235   44.6132 H   0  0  0  0  0  0  0  0  0  0  0  0
   56.7890   30.2247   42.9975 H   0  0  0  0  0  0  0  0  0  0  0  0
   55.4179   31.1719   43.7210 H   0  0  0  0  0  0  0  0  0  0  0  0
   58.3735   31.6140   43.9090 H   0  0  0  0  0  0  0  0  0  0  0  0
   57.0185   32.7932   43.8679 H   0  0  0  0  0  0  0  0  0  0  0  0
   56.8107   33.5666   46.8060 H   0  0  0  0  0  0  0  0  0  0  0  0
   57.5550   35.2439   45.1779 H   0  0  0  0  0  0  0  0  0  0  0  0
   58.4921   34.0115   44.2672 H   0  0  0  0  0  0  0  0  0  0  0  0
   56.6967   33.9553   44.2672 H   0  0  0  0  0  0  0  0  0  0  0  0
   58.0372   33.5843   48.8170 H   0  0  0  0  0  0  0  0  0  0  0  0
   59.6325   33.6078   52.2590 H   0  0  0  0  0  0  0  0  0  0  0  0
   58.3836   34.0865   51.0599 H   0  0  0  0  0  0  0  0  0  0  0  0
   59.0335   32.4119   51.0599 H   0  0  0  0  0  0  0  0  0  0  0  0
   63.1050   34.0057   49.5175 H   0  0  0  0  0  0  0  0  0  0  0  0
   64.4809   33.8870   47.2081 H   0  0  0  0  0  0  0  0  0  0  0  0
   60.1372   33.3826   44.9972 H   0  0  0  0  0  0  0  0  0  0  0  0
  1  2  1  0
  2  3  1  0
  3  4  1  0
  4  5  1  0
  3  6  1  0
  6  7  1  0
  7  8  1  0
  8  9  1  0
  9 10  1  0
 10 11  1  0
 11 12  1  0
 12 13  1  0
 12 14  1  0
 14 15  2  0
 15 16  1  0
 16 17  1  0
 17 18  1  0
 16 19  2  0
 19 20  1  0
 20 21  2  0
 21 22  1  0
 22 23  1  0
 23 24  2  0
 24 14  1  0
 23 19  1  0
  1 25  1  0
  1 26  1  0
  1 27  1  0
  2 28  1  0
  2 29  1  0
  3 30  1  0
  4 31  1  0
  4 32  1  0
  5 33  1  0
  5 34  1  0
  5 35  1  0
  6 36  1  0
  6 37  1  0
  7 38  1  0
  7 39  1  0
  9 40  1  0
  9 41  1  0
 10 42  1  0
 10 43  1  0
 12 44  1  1
 13 45  1  0
 13 46  1  0
 13 47  1  0
 15 48  1  0
 18 49  1  0
 18 50  1  0
 18 51  1  0
 20 52  1  0
 21 53  1  0
 24 54  1  0
M  CHG  1   3   1
M  END
>  <UniqueID>  (22) 
22

>  <SMILES>  (22) 
CC[NH+](CC)CCOCCO[C@H](C)c1cc(OC)c2ccoc2c1

>  <Energy>  (22) 
93.86981015147606

>  <Genealogy>  (22) 
CC[NH+](CC)CCOCCOC(C)c1cc(OC)c2ccoc2c1 (protonated)
CC[NH+](CC)CCOCCO[C@H](C)c1cc(OC)c2ccoc2c1 (chirality)
CC[NH+](CC)CCOCCO[C@H](C)c1cc(OC)c2ccoc2c1 (3D coordinates assigned)
CC[NH+](CC)CCOCCO[C@H](C)c1cc(OC)c2ccoc2c1 (optimized conformer: 93.86981015147606 kcal/mol)

>  <smiles>  (22) 
CCN(CC)CCOCCOC(C)c1cc(OC)c2ccoc2c1

>  <score_type>  (22) 
oracle

>  <origin>  (22) 
adg

>  <m_score__min__energy>  (22) 
-4.9299999999999997

>  <m_primary>  (22) 
energy

$$$$
22:0
     RDKit          3D

 56 58  0  0  0  0  0  0  0  0999 V2000
   59.3690   27.1910   47.8430 C   0  0  0  0  0  0  0  0  0  0  0  0
   58.8110   28.6210   47.7520 C   0  0  0  0  0  0  0  0  0  0  0  0
   58.4580   29.0490   46.3790 N   0  0  0  0  0  0  0  0  0  0  0  0
   59.6130   29.5700   45.6190 C   0  0  0  0  0  0  0  0  0  0  0  0
   60.3570   28.4280   44.9280 C   0  0  0  0  0  0  0  0  0  0  0  0
   57.6780   28.0300   45.6360 C   0  0  0  0  0  0  0  0  0  0  0  0
   57.0180   28.6720   44.4200 C   0  0  0  0  0  0  0  0  0  0  0  0
   56.1690   29.7110   44.8580 O   0  0  0  0  0  0  0  0  0  0  0  0
   56.1440   30.7480   43.8980 C   0  0  0  0  0  0  0  0  0  0  0  0
   57.0290   31.9020   44.3760 C   0  0  0  0  0  0  0  0  0  0  0  0
   57.6360   31.5880   45.6770 N   0  0  0  0  0  0  0  0  0  0  0  0
   57.7360   32.7670   46.5460 C   0  0  0  0  0  0  0  0  0  0  0  0
   59.1810   33.1250   46.7100 C   0  0  0  0  0  0  0  0  0  0  0  0
   59.8560   34.2160   46.1680 C   0  0  0  0  0  0  0  0  0  0  0  0
   59.2960   35.1980   45.1910 C   0  0  0  0  0  0  0  0  0  0  0  0
   61.0840   34.2850   46.6490 O   0  0  0  0  0  0  0  0  0  0  0  0
   61.2350   33.2940   47.4980 C   0  0  0  0  0  0  0  0  0  0  0  0
   60.0870   32.5490   47.5780 C   0  0  0  0  0  0  0  0  0  0  0  0
   59.9770   31.4490   48.4270 C   0  0  0  0  0  0  0  0  0  0  0  0
   61.0930   31.1030   49.2080 C   0  0  0  0  0  0  0  0  0  0  0  0
   62.2850   31.8640   49.1380 C   0  0  0  0  0  0  0  0  0  0  0  0
   63.3970   31.5290   49.9250 C   0  0  0  0  0  0  0  0  0  0  0  0
   64.5660   32.2920   49.8470 C   0  0  0  0  0  0  0  0  0  0  0  0
   64.6380   33.3920   48.9870 C   0  0  0  0  0  0  0  0  0  0  0  0
   63.5410   33.7410   48.1950 C   0  0  0  0  0  0  0  0  0  0  0  0
   62.3630   32.9840   48.2630 C   0  0  0  0  0  0  0  0  0  0  0  0
   59.4797   26.9072   48.9000 H   0  0  0  0  0  0  0  0  0  0  0  0
   58.6765   26.4949   47.3471 H   0  0  0  0  0  0  0  0  0  0  0  0
   60.3499   27.1479   47.3471 H   0  0  0  0  0  0  0  0  0  0  0  0
   57.9059   28.6783   48.3746 H   0  0  0  0  0  0  0  0  0  0  0  0
   59.6094   29.2943   48.0973 H   0  0  0  0  0  0  0  0  0  0  0  0
   59.2558   30.2813   44.8597 H   0  0  0  0  0  0  0  0  0  0  0  0
   60.3001   30.0727   46.3155 H   0  0  0  0  0  0  0  0  0  0  0  0
   60.7915   27.7611   45.6872 H   0  0  0  0  0  0  0  0  0  0  0  0
   59.6550   27.8602   44.2997 H   0  0  0  0  0  0  0  0  0  0  0  0
   61.1601   28.8407   44.2997 H   0  0  0  0  0  0  0  0  0  0  0  0
   58.3506   27.2252   45.3044 H   0  0  0  0  0  0  0  0  0  0  0  0
   56.9011   27.6150   46.2949 H   0  0  0  0  0  0  0  0  0  0  0  0
   57.7910   29.0825   43.7536 H   0  0  0  0  0  0  0  0  0  0  0  0
   56.4338   27.9188   43.8710 H   0  0  0  0  0  0  0  0  0  0  0  0
   56.5223   30.3685   42.9373 H   0  0  0  0  0  0  0  0  0  0  0  0
   55.1116   31.1049   43.7682 H   0  0  0  0  0  0  0  0  0  0  0  0
   57.8263   32.0750   43.6381 H   0  0  0  0  0  0  0  0  0  0  0  0
   56.4069   32.8026   44.4847 H   0  0  0  0  0  0  0  0  0  0  0  0
   57.0300   30.8820   46.1590 H   0  0  0  0  0  0  0  0  0  0  0  0
   57.1960   33.6096   46.0895 H   0  0  0  0  0  0  0  0  0  0  0  0
   57.2921   32.5461   47.5279 H   0  0  0  0  0  0  0  0  0  0  0  0
   58.8226   36.0281   45.7359 H   0  0  0  0  0  0  0  0  0  0  0  0
   60.1067   35.5894   44.5589 H   0  0  0  0  0  0  0  0  0  0  0  0
   58.5463   34.6995   44.5589 H   0  0  0  0  0  0  0  0  0  0  0  0
   59.0442   30.8688   48.4840 H   0  0  0  0  0  0  0  0  0  0  0  0
   61.0400   30.2334   49.8795 H   0  0  0  0  0  0  0  0  0  0  0  0
   63.3491   30.6651   50.6042 H   0  0  0  0  0  0  0  0  0  0  0  0
   65.4349   32.0251   50.4664 H   0  0  0  0  0  0  0  0  0  0  0  0
   65.5626   33.9855   48.9336 H   0  0  0  0  0  0  0  0  0  0  0  0
   63.6016   34.6074   47.5200 H   0  0  0  0  0  0  0  0  0  0  0  0
  1  2  1  0
  2  3  1  0
  3  4  1  0
  4  5  1  0
  3  6  1  0
  6  7  1  0
  7  8  1  0
  8  9  1  0
  9 10  1  0
 10 11  1  0
 11 12  1  0
 12 13  1  0
 13 14  2  0
 14 15  1  0
 14 16  1  0
 16 17  1  0
 17 18  2  0
 18 19  1  0
 19 20  2  0
 20 21  1  0
 21 22  2  0
 22 23  1  0
 23 24  2  0
 24 25  1  0
 25 26  2  0
 18 13  1  0
 26 21  1  0
 26 17  1  0
  1 27  1  0
  1 28  1  0
  1 29  1  0
  2 30  1  0
  2 31  1  0
  4 32  1  0
  4 33  1  0
  5 34  1  0
  5 35  1  0
  5 36  1  0
  6 37  1  0
  6 38  1  0
  7 39  1  0
  7 40  1  0
  9 41  1  0
  9 42  1  0
 10 43  1  0
 10 44  1  0
 11 45  1  0
 12 46  1  0
 12 47  1  0
 15 48  1  0
 15 49  1  0
 15 50  1  0
 19 51  1  0
 20 52  1  0
 22 53  1  0
 23 54  1  0
 24 55  1  0
 25 56  1  0
M  END
>  <UniqueID>  (23) 
23

>  <SMILES>  (23) 
CCN(CC)CCOCCNCc1c(C)oc2c1ccc1ccccc12

>  <Energy>  (23) 
86.63001823871257

>  <Genealogy>  (23) 
CCN(CC)CCOCCNCc1c(C)oc2c1ccc1ccccc12 (3D coordinates assigned)
CCN(CC)CCOCCNCc1c(C)oc2c1ccc1ccccc12 (optimized conformer: 86.63001823871257 kcal/mol)

>  <smiles>  (23) 
CCN(CC)CCOCCNCc1c(C)oc2c1ccc1ccccc12

>  <score_type>  (23) 
oracle

>  <origin>  (23) 
adg

>  <m_score__min__energy>  (23) 
-8.3399999999999999

>  <m_primary>  (23) 
energy

$$$$
23:0
     RDKit          3D

 46 49  0  0  0  0  0  0  0  0999 V2000
   58.0490   26.9760   44.8660 C   0  0  0  0  0  0  0  0  0  0  0  0
   56.8030   27.2870   45.6870 C   0  0  0  0  0  0  0  0  0  0  0  0
   56.1260   28.4730   45.1480 N   0  0  0  0  0  0  0  0  0  0  0  0
   56.7850   28.9700   43.9290 C   0  0  0  0  0  0  0  0  0  0  0  0
   57.4990   30.2970   44.2040 C   0  0  0  0  0  0  0  0  0  0  0  0
   57.3740   30.6860   45.6080 N   0  0  0  0  0  0  0  0  0  0  0  0
   58.5000   31.2520   46.3000 C   0  0  0  0  0  0  0  0  0  0  0  0
   58.8950   32.5790   46.0440 C   0  0  0  0  0  0  0  0  0  0  0  0
   58.1650   33.3900   45.1490 C   0  0  0  0  0  0  0  0  0  0  0  0
   58.5200   34.7210   44.9420 C   0  0  0  0  0  0  0  0  0  0  0  0
   59.5910   35.2710   45.6340 C   0  0  0  0  0  0  0  0  0  0  0  0
   60.3330   34.4880   46.5190 C   0  0  0  0  0  0  0  0  0  0  0  0
   60.0260   33.1180   46.7180 C   0  0  0  0  0  0  0  0  0  0  0  0
   60.7810   32.3200   47.5570 N   0  0  0  0  0  0  0  0  0  0  0  0
   62.1180   32.7670   48.0030 C   0  0  0  0  0  0  0  0  0  0  0  0
   60.3060   31.0790   47.9360 C   0  0  0  0  0  0  0  0  0  0  0  0
   60.8800   30.3180   48.9830 C   0  0  0  0  0  0  0  0  0  0  0  0
   60.4430   29.0690   49.2950 C   0  0  0  0  0  0  0  0  0  0  0  0
   59.4030   28.4570   48.6160 C   0  0  0  0  0  0  0  0  0  0  0  0
   58.7670   29.1820   47.6000 C   0  0  0  0  0  0  0  0  0  0  0  0
   59.1830   30.5020   47.2730 C   0  0  0  0  0  0  0  0  0  0  0  0
   61.1650   28.5660   50.3600 O   0  0  0  0  0  0  0  0  0  0  0  0
   62.1110   29.5620   50.7610 C   0  0  0  0  0  0  0  0  0  0  0  0
   61.8890   30.6590   49.8690 O   0  0  0  0  0  0  0  0  0  0  0  0
   58.8907   26.7659   45.5423 H   0  0  0  0  0  0  0  0  0  0  0  0
   57.8602   26.0974   44.2316 H   0  0  0  0  0  0  0  0  0  0  0  0
   58.2952   27.8402   44.2316 H   0  0  0  0  0  0  0  0  0  0  0  0
   56.1176   26.4276   45.6476 H   0  0  0  0  0  0  0  0  0  0  0  0
   57.0980   27.4833   46.7283 H   0  0  0  0  0  0  0  0  0  0  0  0
   55.1490   28.1910   44.8970 H   0  0  0  0  0  0  0  0  0  0  0  0
   57.5213   28.2274   43.5879 H   0  0  0  0  0  0  0  0  0  0  0  0
   56.0211   29.1326   43.1544 H   0  0  0  0  0  0  0  0  0  0  0  0
   58.5651   30.1886   43.9557 H   0  0  0  0  0  0  0  0  0  0  0  0
   57.0328   31.0773   43.5845 H   0  0  0  0  0  0  0  0  0  0  0  0
   56.6620   30.1890   46.1880 H   0  0  0  0  0  0  0  0  0  0  0  0
   57.3057   32.9662   44.6086 H   0  0  0  0  0  0  0  0  0  0  0  0
   57.9514   35.3370   44.2297 H   0  0  0  0  0  0  0  0  0  0  0  0
   59.8554   36.3281   45.4839 H   0  0  0  0  0  0  0  0  0  0  0  0
   61.1696   34.9408   47.0713 H   0  0  0  0  0  0  0  0  0  0  0  0
   62.1529   32.7787   49.1024 H   0  0  0  0  0  0  0  0  0  0  0  0
   62.8827   32.0756   47.6192 H   0  0  0  0  0  0  0  0  0  0  0  0
   62.3131   33.7792   47.6192 H   0  0  0  0  0  0  0  0  0  0  0  0
   59.0862   27.4338   48.8665 H   0  0  0  0  0  0  0  0  0  0  0  0
   57.9338   28.7237   47.0471 H   0  0  0  0  0  0  0  0  0  0  0  0
   61.9334   29.8678   51.8026 H   0  0  0  0  0  0  0  0  0  0  0  0
   63.1463   29.1931   50.7150 H   0  0  0  0  0  0  0  0  0  0  0  0
  1  2  1  0
  2  3  1  0
  3  4  1  0
  4  5  1  0
  5  6  1  0
  6  7  1  0
  7  8  2  0
  8  9  1  0
  9 10  2  0
 10 11  1  0
 11 12  2  0
 12 13  1  0
 13 14  2  0
 14 15  1  0
 14 16  1  0
 16 17  2  0
 17 18  1  0
 18 19  2  0
 19 20  1  0
 20 21  2  0
 18 22  1  0
 22 23  1  0
 23 24  1  0
 21  7  1  0
 13  8  1  0
 21 16  1  0
 24 17  1  0
  1 25  1  0
  1 26  1  0
  1 27  1  0
  2 28  1  0
  2 29  1  0
  3 30  1  0
  4 31  1  0
  4 32  1  0
  5 33  1  0
  5 34  1  0
  6 35  1  0
  9 36  1  0
 10 37  1  0
 11 38  1  0
 12 39  1  0
 15 40  1  0
 15 41  1  0
 15 42  1  0
 19 43  1  0
 20 44  1  0
 23 45  1  0
 23 46  1  0
M  CHG  1  14   1
M  END
>  <UniqueID>  (24) 
24

>  <SMILES>  (24) 
CCNCCNc1c2ccccc2[n+](C)c2c3c(ccc12)OCO3

>  <Energy>  (24) 
98.47104530097691

>  <Genealogy>  (24) 
CCNCCNc1c2ccccc2[n+](C)c2c3c(ccc12)OCO3 (3D coordinates assigned)
CCNCCNc1c2ccccc2[n+](C)c2c3c(ccc12)OCO3 (nonaromatic ring conformer: 98.47104530097691 kcal/mol)

>  <smiles>  (24) 
CCNCCNc1c2ccccc2[n+](C)c2c3c(ccc12)OCO3

>  <score_type>  (24) 
oracle

>  <origin>  (24) 
adg

>  <m_score__min__energy>  (24) 
-5.7300000000000004

>  <m_primary>  (24) 
energy

$$$$
24:0
     RDKit          3D

 72 74  0  0  0  0  0  0  0  0999 V2000
   62.4800   32.8080   47.5010 C   0  0  0  0  0  0  0  0  0  0  0  0
   62.8820   32.4320   48.9220 C   0  0  0  0  0  0  0  0  0  0  0  0
   61.7440   32.4030   49.7630 O   0  0  0  0  0  0  0  0  0  0  0  0
   60.8240   33.4070   49.3880 C   0  0  0  0  0  0  0  0  0  0  0  0
   59.9890   33.7990   50.6010 C   0  0  0  0  0  0  0  0  0  0  0  0
   60.7870   33.6970   51.7610 O   0  0  0  0  0  0  0  0  0  0  0  0
   59.9790   33.3730   52.8730 C   0  0  0  0  0  0  0  0  0  0  0  0
   60.6260   32.2080   53.6320 C   0  0  0  0  0  0  0  0  0  0  0  0
   61.2620   31.2250   52.7400 N   0  0  0  0  0  0  0  0  0  0  0  0
   62.4670   30.6170   53.3320 C   0  0  0  0  0  0  0  0  0  0  0  0
   62.5610   29.1300   52.9770 C   0  0  0  0  0  0  0  0  0  0  0  0
   61.3170   28.7000   52.4500 O   0  0  0  0  0  0  0  0  0  0  0  0
   61.4670   28.0870   51.1830 C   0  0  0  0  0  0  0  0  0  0  0  0
   61.3170   29.0980   50.0370 C   0  0  0  0  0  0  0  0  0  0  0  0
   60.6500   30.2720   50.4660 O   0  0  0  0  0  0  0  0  0  0  0  0
   59.2580   30.0480   50.5510 C   0  0  0  0  0  0  0  0  0  0  0  0
   58.5700   30.7060   49.3570 C   0  0  0  0  0  0  0  0  0  0  0  0
   59.4900   30.8360   48.2260 N   0  0  0  0  0  0  0  0  0  0  0  0
   59.0300   30.7930   46.8630 C   0  0  0  0  0  0  0  0  0  0  0  0
   58.6870   31.9830   46.1990 C   0  0  0  0  0  0  0  0  0  0  0  0
   58.8810   33.2370   46.8160 C   0  0  0  0  0  0  0  0  0  0  0  0
   58.5730   34.4150   46.1420 C   0  0  0  0  0  0  0  0  0  0  0  0
   58.0820   34.3670   44.8430 C   0  0  0  0  0  0  0  0  0  0  0  0
   57.8700   33.1390   44.2180 C   0  0  0  0  0  0  0  0  0  0  0  0
   58.1340   31.9190   44.8920 C   0  0  0  0  0  0  0  0  0  0  0  0
   57.8770   30.6930   44.3080 N   0  0  0  0  0  0  0  0  0  0  0  0
   57.0330   30.6140   43.0940 C   0  0  0  0  0  0  0  0  0  0  0  0
   58.3920   29.5390   44.8690 C   0  0  0  0  0  0  0  0  0  0  0  0
   58.3980   28.3060   44.1680 C   0  0  0  0  0  0  0  0  0  0  0  0
   58.9030   27.1460   44.7560 C   0  0  0  0  0  0  0  0  0  0  0  0
   59.4320   27.1850   46.0400 C   0  0  0  0  0  0  0  0  0  0  0  0
   59.4710   28.3870   46.7420 C   0  0  0  0  0  0  0  0  0  0  0  0
   58.9570   29.5710   46.1730 C   0  0  0  0  0  0  0  0  0  0  0  0
   61.6770   33.5591   47.5337 H   0  0  0  0  0  0  0  0  0  0  0  0
   63.3499   33.2241   46.9718 H   0  0  0  0  0  0  0  0  0  0  0  0
   62.1229   31.9122   46.9718 H   0  0  0  0  0  0  0  0  0  0  0  0
   63.3533   31.4381   48.9148 H   0  0  0  0  0  0  0  0  0  0  0  0
   63.5901   33.1821   49.3039 H   0  0  0  0  0  0  0  0  0  0  0  0
   61.3703   34.2869   49.0174 H   0  0  0  0  0  0  0  0  0  0  0  0
   60.1656   33.0270   48.5930 H   0  0  0  0  0  0  0  0  0  0  0  0
   59.6356   34.8344   50.4864 H   0  0  0  0  0  0  0  0  0  0  0  0
   59.1211   33.1286   50.6870 H   0  0  0  0  0  0  0  0  0  0  0  0
   59.8965   34.2462   53.5368 H   0  0  0  0  0  0  0  0  0  0  0  0
   58.9735   33.0846   52.5327 H   0  0  0  0  0  0  0  0  0  0  0  0
   61.3914   32.6131   54.3102 H   0  0  0  0  0  0  0  0  0  0  0  0
   59.8270   31.6873   54.1802 H   0  0  0  0  0  0  0  0  0  0  0  0
   60.5570   30.4750   52.5470 H   0  0  0  0  0  0  0  0  0  0  0  0
   61.5080   31.6820   51.8300 H   0  0  0  0  0  0  0  0  0  0  0  0
   63.3577   31.1358   52.9479 H   0  0  0  0  0  0  0  0  0  0  0  0
   62.4074   30.7135   54.4261 H   0  0  0  0  0  0  0  0  0  0  0  0
   63.3509   28.9796   52.2264 H   0  0  0  0  0  0  0  0  0  0  0  0
   62.8029   28.5480   53.8785 H   0  0  0  0  0  0  0  0  0  0  0  0
   62.4656   27.6294   51.1252 H   0  0  0  0  0  0  0  0  0  0  0  0
   60.6770   27.3292   51.0750 H   0  0  0  0  0  0  0  0  0  0  0  0
   62.3165   29.3696   49.6665 H   0  0  0  0  0  0  0  0  0  0  0  0
   60.7183   28.6316   49.2407 H   0  0  0  0  0  0  0  0  0  0  0  0
   59.0581   28.9664   50.5407 H   0  0  0  0  0  0  0  0  0  0  0  0
   58.8704   30.4802   51.4853 H   0  0  0  0  0  0  0  0  0  0  0  0
   57.7110   30.0899   49.0527 H   0  0  0  0  0  0  0  0  0  0  0  0
   58.2377   31.7114   49.6550 H   0  0  0  0  0  0  0  0  0  0  0  0
   60.4900   31.0770   48.4120 H   0  0  0  0  0  0  0  0  0  0  0  0
   59.2797   33.2840   47.8401 H   0  0  0  0  0  0  0  0  0  0  0  0
   58.7185   35.3858   46.6385 H   0  0  0  0  0  0  0  0  0  0  0  0
   57.8599   35.3010   44.3060 H   0  0  0  0  0  0  0  0  0  0  0  0
   57.4918   33.1157   43.1853 H   0  0  0  0  0  0  0  0  0  0  0  0
   55.9774   30.5152   43.3871 H   0  0  0  0  0  0  0  0  0  0  0  0
   57.1636   31.5283   42.4965 H   0  0  0  0  0  0  0  0  0  0  0  0
   57.3310   29.7398   42.4965 H   0  0  0  0  0  0  0  0  0  0  0  0
   57.9980   28.2637   43.1442 H   0  0  0  0  0  0  0  0  0  0  0  0
   58.8822   26.1967   44.2007 H   0  0  0  0  0  0  0  0  0  0  0  0
   59.8204   26.2656   46.5025 H   0  0  0  0  0  0  0  0  0  0  0  0
   59.9074   28.4135   47.7514 H   0  0  0  0  0  0  0  0  0  0  0  0
  1  2  1  0
  2  3  1  0
  3  4  1  0
  4  5  1  0
  5  6  1  0
  6  7  1  0
  7  8  1  0
  8  9  1  0
  9 10  1  0
 10 11  1  0
 11 12  1  0
 12 13  1  0
 13 14  1  0
 14 15  1  0
 15 16  1  0
 16 17  1  0
 17 18  1  0
 18 19  1  0
 19 20  2  0
 20 21  1  0
 21 22  2  0
 22 23  1  0
 23 24  2  0
 24 25  1  0
 25 26  2  0
 26 27  1  0
 26 28  1  0
 28 29  2  0
 29 30  1  0
 30 31  2  0
 31 32  1  0
 32 33  2  0
 33 19  1  0
 25 20  1  0
 33 28  1  0
  1 34  1  0
  1 35  1  0
  1 36  1  0
  2 37  1  0
  2 38  1  0
  4 39  1  0
  4 40  1  0
  5 41  1  0
  5 42  1  0
  7 43  1  0
  7 44  1  0
  8 45  1  0
  8 46  1  0
  9 47  1  0
  9 48  1  0
 10 49  1  0
 10 50  1  0
 11 51  1  0
 11 52  1  0
 13 53  1  0
 13 54  1  0
 14 55  1  0
 14 56  1  0
 16 57  1  0
 16 58  1  0
 17 59  1  0
 17 60  1  0
 18 61  1  0
 21 62  1  0
 22 63  1  0
 23 64  1  0
 24 65  1  0
 27 66  1  0
 27 67  1  0
 27 68  1  0
 29 69  1  0
 30 70  1  0
 31 71  1  0
 32 72  1  0
M  CHG  2   9   1  26   1
M  END
>  <UniqueID>  (25) 
25

>  <SMILES>  (25) 
CCOCCOCC[NH2+]CCOCCOCCNc1c2ccccc2[n+](C)c2ccccc12

>  <Energy>  (25) 
95.68003103166734

>  <Genealogy>  (25) 
CCOCCOCC[NH2+]CCOCCOCCNc1c2ccccc2[n+](C)c2ccccc12 (protonated)
CCOCCOCC[NH2+]CCOCCOCCNc1c2ccccc2[n+](C)c2ccccc12 (3D coordinates assigned)
CCOCCOCC[NH2+]CCOCCOCCNc1c2ccccc2[n+](C)c2ccccc12 (optimized conformer: 95.68003103166734 kcal/mol)

>  <smiles>  (25) 
CCOCCOCCNCCOCCOCCNc1c2ccccc2[n+](C)c2ccccc12

>  <score_type>  (25) 
oracle

>  <origin>  (25) 
adg

>  <m_score__min__energy>  (25) 
-3.6400000000000001

>  <m_primary>  (25) 
energy

$$$$
25:0
     RDKit          3D

 85 88  0  0  0  0  0  0  0  0999 V2000
   58.1150   26.4830   47.1100 C   0  0  0  0  0  0  0  0  0  0  0  0
   56.9880   26.4520   46.0770 C   0  0  0  0  0  0  0  0  0  0  0  0
   56.7490   27.8180   45.3970 C   0  0  0  0  0  0  0  0  0  0  0  0
   57.4090   27.9760   44.0710 N   0  0  1  0  0  0  0  0  0  0  0  0
   57.0070   29.2610   43.4330 C   0  0  0  0  0  0  0  0  0  0  0  0
   55.6550   29.7740   43.9440 C   0  0  0  0  0  0  0  0  0  0  0  0
   58.8930   27.8490   44.1200 C   0  0  0  0  0  0  0  0  0  0  0  0
   59.6190   29.0970   44.6630 C   0  0  0  0  0  0  0  0  0  0  0  0
   59.0500   29.5230   45.9460 N   0  0  0  0  0  0  0  0  0  0  0  0
   59.3660   30.7930   46.5450 C   0  0  0  0  0  0  0  0  0  0  0  0
   58.8890   31.9780   45.9600 C   0  0  0  0  0  0  0  0  0  0  0  0
   58.1510   31.9410   44.7570 C   0  0  0  0  0  0  0  0  0  0  0  0
   57.6100   33.1060   44.2170 C   0  0  0  0  0  0  0  0  0  0  0  0
   57.7810   34.3200   44.8700 C   0  0  0  0  0  0  0  0  0  0  0  0
   58.5180   34.3840   46.0520 C   0  0  0  0  0  0  0  0  0  0  0  0
   59.1220   33.2230   46.6030 C   0  0  0  0  0  0  0  0  0  0  0  0
   59.8950   33.2800   47.7490 N   0  0  0  0  0  0  0  0  0  0  0  0
   60.3640   34.5880   48.2590 C   0  0  0  0  0  0  0  0  0  0  0  0
   60.2680   32.1120   48.3930 C   0  0  0  0  0  0  0  0  0  0  0  0
   60.8430   32.1270   49.6910 C   0  0  0  0  0  0  0  0  0  0  0  0
   61.2940   30.9440   50.3020 C   0  0  0  0  0  0  0  0  0  0  0  0
   61.8630   30.9190   51.5870 O   0  0  0  0  0  0  0  0  0  0  0  0
   63.1610   31.4030   51.9350 C   0  0  0  0  0  0  0  0  0  0  0  0
   64.1100   31.2940   50.7150 C   0  0  0  0  0  0  0  0  0  0  0  0
   64.8030   32.5560   50.2860 N   0  0  0  0  0  0  0  0  0  0  0  0
   64.3070   32.9740   48.9450 C   0  0  0  0  0  0  0  0  0  0  0  0
   66.2700   32.2390   50.1660 C   0  0  0  0  0  0  0  0  0  0  0  0
   67.1730   33.4470   50.4900 C   0  0  0  0  0  0  0  0  0  0  0  0
   66.9970   33.9200   51.9010 N   0  0  0  0  0  0  0  0  0  0  0  0
   67.9560   33.2120   52.7880 C   0  0  0  0  0  0  0  0  0  0  0  0
   67.3090   35.3700   51.9620 C   0  0  0  0  0  0  0  0  0  0  0  0
   65.6050   33.6830   52.4010 C   0  0  0  0  0  0  0  0  0  0  0  0
   64.5730   33.6770   51.2560 C   0  0  0  0  0  0  0  0  0  0  0  0
   61.1780   29.7370   49.6180 C   0  0  0  0  0  0  0  0  0  0  0  0
   60.5800   29.6900   48.3620 C   0  0  0  0  0  0  0  0  0  0  0  0
   60.0670   30.8560   47.7640 C   0  0  0  0  0  0  0  0  0  0  0  0
   57.6849   26.4712   48.1224 H   0  0  0  0  0  0  0  0  0  0  0  0
   58.7601   25.6023   46.9754 H   0  0  0  0  0  0  0  0  0  0  0  0
   58.7107   27.3979   46.9754 H   0  0  0  0  0  0  0  0  0  0  0  0
   57.2447   25.7154   45.3014 H   0  0  0  0  0  0  0  0  0  0  0  0
   56.0632   26.1855   46.6097 H   0  0  0  0  0  0  0  0  0  0  0  0
   55.6654   27.9469   45.2582 H   0  0  0  0  0  0  0  0  0  0  0  0
   57.1933   28.5766   46.0581 H   0  0  0  0  0  0  0  0  0  0  0  0
   57.0750   27.2020   43.4510 H   0  0  0  0  0  0  0  0  0  0  0  0
   57.7757   30.0176   43.6491 H   0  0  0  0  0  0  0  0  0  0  0  0
   56.9087   29.0807   42.3523 H   0  0  0  0  0  0  0  0  0  0  0  0
   55.6548   29.7741   45.0440 H   0  0  0  0  0  0  0  0  0  0  0  0
   55.4889   30.7977   43.5773 H   0  0  0  0  0  0  0  0  0  0  0  0
   54.8516   29.1182   43.5773 H   0  0  0  0  0  0  0  0  0  0  0  0
   59.1446   26.9954   44.7666 H   0  0  0  0  0  0  0  0  0  0  0  0
   59.2321   27.7137   43.0824 H   0  0  0  0  0  0  0  0  0  0  0  0
   60.6840   28.8603   44.8033 H   0  0  0  0  0  0  0  0  0  0  0  0
   59.4968   29.9152   43.9380 H   0  0  0  0  0  0  0  0  0  0  0  0
   58.4990   28.8320   46.5040 H   0  0  0  0  0  0  0  0  0  0  0  0
   58.0014   30.9816   44.2401 H   0  0  0  0  0  0  0  0  0  0  0  0
   57.0471   33.0643   43.2729 H   0  0  0  0  0  0  0  0  0  0  0  0
   57.3334   35.2343   44.4531 H   0  0  0  0  0  0  0  0  0  0  0  0
   58.6334   35.3497   46.5660 H   0  0  0  0  0  0  0  0  0  0  0  0
   60.3596   34.5757   49.3589 H   0  0  0  0  0  0  0  0  0  0  0  0
   61.3859   34.7771   47.8985 H   0  0  0  0  0  0  0  0  0  0  0  0
   59.6950   35.3833   47.8985 H   0  0  0  0  0  0  0  0  0  0  0  0
   60.9374   33.0820   50.2286 H   0  0  0  0  0  0  0  0  0  0  0  0
   63.0864   32.4555   52.2460 H   0  0  0  0  0  0  0  0  0  0  0  0
   63.5631   30.7983   52.7613 H   0  0  0  0  0  0  0  0  0  0  0  0
   64.8861   30.5544   50.9612 H   0  0  0  0  0  0  0  0  0  0  0  0
   63.4637   31.0165   49.8692 H   0  0  0  0  0  0  0  0  0  0  0  0
   63.4710   33.6785   49.0665 H   0  0  0  0  0  0  0  0  0  0  0  0
   65.1206   33.4629   48.3891 H   0  0  0  0  0  0  0  0  0  0  0  0
   63.9631   32.0893   48.3891 H   0  0  0  0  0  0  0  0  0  0  0  0
   66.5111   31.4233   50.8635 H   0  0  0  0  0  0  0  0  0  0  0  0
   66.4620   31.9539   49.1211 H   0  0  0  0  0  0  0  0  0  0  0  0
   68.2231   33.1546   50.3423 H   0  0  0  0  0  0  0  0  0  0  0  0
   66.8900   34.2712   49.8187 H   0  0  0  0  0  0  0  0  0  0  0  0
   67.6946   33.4050   53.8389 H   0  0  0  0  0  0  0  0  0  0  0  0
   67.9083   32.1309   52.5909 H   0  0  0  0  0  0  0  0  0  0  0  0
   68.9751   33.5760   52.5909 H   0  0  0  0  0  0  0  0  0  0  0  0
   67.3771   35.6865   53.0133 H   0  0  0  0  0  0  0  0  0  0  0  0
   68.2686   35.5601   51.4590 H   0  0  0  0  0  0  0  0  0  0  0  0
   66.5125   35.9379   51.4590 H   0  0  0  0  0  0  0  0  0  0  0  0
   65.5726   32.7101   52.9133 H   0  0  0  0  0  0  0  0  0  0  0  0
   65.3463   34.5030   53.0871 H   0  0  0  0  0  0  0  0  0  0  0  0
   63.5669   33.5701   51.6876 H   0  0  0  0  0  0  0  0  0  0  0  0
   64.6765   34.6238   50.7057 H   0  0  0  0  0  0  0  0  0  0  0  0
   61.5622   28.8126   50.0740 H   0  0  0  0  0  0  0  0  0  0  0  0
   60.5075   28.7297   47.8304 H   0  0  0  0  0  0  0  0  0  0  0  0
  1  2  1  0
  2  3  1  0
  3  4  1  0
  4  5  1  0
  5  6  1  0
  4  7  1  0
  7  8  1  0
  8  9  1  0
  9 10  1  0
 10 11  2  0
 11 12  1  0
 12 13  2  0
 13 14  1  0
 14 15  2  0
 15 16  1  0
 16 17  2  0
 17 18  1  0
 17 19  1  0
 19 20  2  0
 20 21  1  0
 21 22  1  0
 22 23  1  0
 23 24  1  0
 24 25  1  0
 25 26  1  0
 25 27  1  0
 27 28  1  0
 28 29  1  0
 29 30  1  0
 29 31  1  0
 29 32  1  0
 32 33  1  0
 21 34  2  0
 34 35  1  0
 35 36  2  0
 36 10  1  0
 16 11  1  0
 36 19  1  0
 33 25  1  0
  1 37  1  0
  1 38  1  0
  1 39  1  0
  2 40  1  0
  2 41  1  0
  3 42  1  0
  3 43  1  0
  4 44  1  6
  5 45  1  0
  5 46  1  0
  6 47  1  0
  6 48  1  0
  6 49  1  0
  7 50  1  0
  7 51  1  0
  8 52  1  0
  8 53  1  0
  9 54  1  0
 12 55  1  0
 13 56  1  0
 14 57  1  0
 15 58  1  0
 18 59  1  0
 18 60  1  0
 18 61  1  0
 20 62  1  0
 23 63  1  0
 23 64  1  0
 24 65  1  0
 24 66  1  0
 26 67  1  0
 26 68  1  0
 26 69  1  0
 27 70  1  0
 27 71  1  0
 28 72  1  0
 28 73  1  0
 30 74  1  0
 30 75  1  0
 30 76  1  0
 31 77  1  0
 31 78  1  0
 31 79  1  0
 32 80  1  0
 32 81  1  0
 33 82  1  0
 33 83  1  0
 34 84  1  0
 35 85  1  0
M  CHG  4   4   1  17   1  25   1  29   1
M  END
>  <UniqueID>  (26) 
26

>  <SMILES>  (26) 
CCC[N@@H+](CC)CCNc1c2ccccc2[n+](C)c2cc(OCC[N+]3(C)CC[N+](C)(C)CC3)ccc12

>  <Energy>  (26) 
140.37858426002663

>  <Genealogy>  (26) 
CCC[NH+](CC)CCNc1c2ccccc2[n+](C)c2cc(OCC[N+]3(C)CC[N+](C)(C)CC3)ccc12 (protonated)
CCC[N@@H+](CC)CCNc1c2ccccc2[n+](C)c2cc(OCC[N+]3(C)CC[N+](C)(C)CC3)ccc12 (chirality)
CCC[N@@H+](CC)CCNc1c2ccccc2[n+](C)c2cc(OCC[N+]3(C)CC[N+](C)(C)CC3)ccc12 (3D coordinates assigned)
CCC[N@@H+](CC)CCNc1c2ccccc2[n+](C)c2cc(OCC[N+]3(C)CC[N+](C)(C)CC3)ccc12 (nonaromatic ring conformer: 140.37858426002663 kcal/mol)

>  <smiles>  (26) 
CCCN(CC)CCNc1c2ccccc2[n+](C)c2cc(OCC[N+]3(C)CC[N+](C)(C)CC3)ccc12

>  <score_type>  (26) 
oracle

>  <origin>  (26) 
adg

>  <m_score__min__energy>  (26) 
-2.6899999999999999

>  <m_primary>  (26) 
energy

$$$$
26:0
     RDKit          3D

 41 42  0  0  0  0  0  0  0  0999 V2000
   57.4410   26.2640   44.9330 C   0  0  0  0  0  0  0  0  0  0  0  0
   56.7590   27.1770   45.9430 C   0  0  0  0  0  0  0  0  0  0  0  0
   55.8900   28.1130   45.2460 N   0  0  0  0  0  0  0  0  0  0  0  0
   56.3390   29.3910   44.7830 C   0  0  0  0  0  0  0  0  0  0  0  0
   55.5450   30.3680   44.7360 O   0  0  0  0  0  0  0  0  0  0  0  0
   57.7480   29.5500   44.3110 C   0  0  0  0  0  0  0  0  0  0  0  0
   58.4890   30.4920   45.2160 C   0  0  0  0  0  0  0  0  0  0  0  0
   59.3180   30.1710   46.2980 C   0  0  0  0  0  0  0  0  0  0  0  0
   59.6610   28.7800   46.7540 C   0  0  0  0  0  0  0  0  0  0  0  0
   59.7510   31.3050   46.9140 N   0  0  0  0  0  0  0  0  0  0  0  0
   60.6640   31.4070   48.0620 C   0  0  0  0  0  0  0  0  0  0  0  0
   61.7400   32.4790   47.8310 C   0  0  0  0  0  0  0  0  0  0  0  0
   63.1090   31.8870   47.4760 C   0  0  0  0  0  0  0  0  0  0  0  0
   63.9200   32.8440   46.8500 O   0  0  0  0  0  0  0  0  0  0  0  0
   59.1770   32.3330   46.2500 C   0  0  0  0  0  0  0  0  0  0  0  0
   59.2760   33.7010   46.5290 C   0  0  0  0  0  0  0  0  0  0  0  0
   58.5610   34.5970   45.7140 C   0  0  0  0  0  0  0  0  0  0  0  0
   57.7640   34.1180   44.6540 C   0  0  0  0  0  0  0  0  0  0  0  0
   57.6740   32.7390   44.3980 C   0  0  0  0  0  0  0  0  0  0  0  0
   58.4000   31.8720   45.2160 C   0  0  0  0  0  0  0  0  0  0  0  0
   58.0169   25.4931   45.4659 H   0  0  0  0  0  0  0  0  0  0  0  0
   56.6798   25.7822   44.3017 H   0  0  0  0  0  0  0  0  0  0  0  0
   58.1189   26.8572   44.3017 H   0  0  0  0  0  0  0  0  0  0  0  0
   56.1607   26.5707   46.6390 H   0  0  0  0  0  0  0  0  0  0  0  0
   57.5224   27.7358   46.5041 H   0  0  0  0  0  0  0  0  0  0  0  0
   58.2473   28.5699   44.3177 H   0  0  0  0  0  0  0  0  0  0  0  0
   57.7430   29.9589   43.2898 H   0  0  0  0  0  0  0  0  0  0  0  0
   59.6693   28.7462   47.8534 H   0  0  0  0  0  0  0  0  0  0  0  0
   58.9103   28.0730   46.3711 H   0  0  0  0  0  0  0  0  0  0  0  0
   60.6543   28.5031   46.3711 H   0  0  0  0  0  0  0  0  0  0  0  0
   60.0834   31.6704   48.9584 H   0  0  0  0  0  0  0  0  0  0  0  0
   61.1654   30.4366   48.1920 H   0  0  0  0  0  0  0  0  0  0  0  0
   61.4149   33.1298   47.0059 H   0  0  0  0  0  0  0  0  0  0  0  0
   61.8566   33.0363   48.7722 H   0  0  0  0  0  0  0  0  0  0  0  0
   63.6027   31.5433   48.3969 H   0  0  0  0  0  0  0  0  0  0  0  0
   62.9595   31.0454   46.7836 H   0  0  0  0  0  0  0  0  0  0  0  0
   64.6710   32.3490   46.4290 H   0  0  0  0  0  0  0  0  0  0  0  0
   59.8954   34.0650   47.3620 H   0  0  0  0  0  0  0  0  0  0  0  0
   58.6240   35.6785   45.9048 H   0  0  0  0  0  0  0  0  0  0  0  0
   57.2091   34.8282   44.0234 H   0  0  0  0  0  0  0  0  0  0  0  0
   57.0501   32.3546   43.5776 H   0  0  0  0  0  0  0  0  0  0  0  0
  1  2  1  0
  2  3  1  0
  3  4  1  0
  4  5  2  0
  4  6  1  0
  6  7  1  0
  7  8  2  0
  8  9  1  0
  8 10  1  0
 10 11  1  0
 11 12  1  0
 12 13  1  0
 13 14  1  0
 10 15  1  0
 15 16  2  0
 16 17  1  0
 17 18  2  0
 18 19  1  0
 19 20  2  0
 20  7  1  0
 20 15  1  0
  1 21  1  0
  1 22  1  0
  1 23  1  0
  2 24  1  0
  2 25  1  0
  6 26  1  0
  6 27  1  0
  9 28  1  0
  9 29  1  0
  9 30  1  0
 11 31  1  0
 11 32  1  0
 12 33  1  0
 12 34  1  0
 13 35  1  0
 13 36  1  0
 14 37  1  0
 16 38  1  0
 17 39  1  0
 18 40  1  0
 19 41  1  0
M  CHG  1   3  -1
M  END
>  <UniqueID>  (27) 
27

>  <SMILES>  (27) 
CC[N-]C(=O)Cc1c(C)n(CCCO)c2ccccc12

>  <Energy>  (27) 
61.78182347076891

>  <Genealogy>  (27) 
CC[N-]C(=O)Cc1c(C)n(CCCO)c2ccccc12 (protonated)
CC[N-]C(=O)Cc1c(C)n(CCCO)c2ccccc12 (3D coordinates assigned)
CC[N-]C(=O)Cc1c(C)n(CCCO)c2ccccc12 (optimized conformer: 61.78182347076891 kcal/mol)

>  <smiles>  (27) 
CCNC(=O)Cc1c(C)n(CCCO)c2ccccc12

>  <score_type>  (27) 
oracle

>  <origin>  (27) 
adg

>  <m_score__min__energy>  (27) 
-9.2300000000000004

>  <m_primary>  (27) 
energy

$$$$
27:0
     RDKit          3D

 41 42  0  0  0  0  0  0  0  0999 V2000
   57.3900   24.9960   44.2600 C   0  0  0  0  0  0  0  0  0  0  0  0
   57.6300   25.7670   45.5560 C   0  0  0  0  0  0  0  0  0  0  0  0
   56.6820   26.9300   45.7040 C   0  0  0  0  0  0  0  0  0  0  0  0
   55.4740   26.7070   45.9920 O   0  0  0  0  0  0  0  0  0  0  0  0
   57.1220   28.3320   45.4880 C   0  0  0  0  0  0  0  0  0  0  0  0
   58.3860   28.7290   45.9480 C   0  0  0  0  0  0  0  0  0  0  0  0
   58.8300   30.0170   45.7980 N   0  0  0  0  0  0  0  0  0  0  0  0
   60.1780   30.3490   46.2800 C   0  0  0  0  0  0  0  0  0  0  0  0
   58.0240   30.9660   45.2060 C   0  0  0  0  0  0  0  0  0  0  0  0
   58.4080   32.4310   45.1170 C   0  0  0  0  0  0  0  0  0  0  0  0
   57.9830   33.1670   46.3200 N   0  0  0  0  0  0  0  0  0  0  0  0
   58.7340   34.4170   46.5190 C   0  0  0  0  0  0  0  0  0  0  0  0
   60.0770   34.1410   47.1480 C   0  0  0  0  0  0  0  0  0  0  0  0
   60.2230   34.1800   48.5450 C   0  0  0  0  0  0  0  0  0  0  0  0
   61.4510   33.8630   49.1350 C   0  0  0  0  0  0  0  0  0  0  0  0
   62.5440   33.5180   48.3360 C   0  0  0  0  0  0  0  0  0  0  0  0
   63.7300   33.2010   48.9090 F   0  0  0  0  0  0  0  0  0  0  0  0
   62.4140   33.5030   46.9440 C   0  0  0  0  0  0  0  0  0  0  0  0
   61.1890   33.8200   46.3500 C   0  0  0  0  0  0  0  0  0  0  0  0
   56.7660   30.5950   44.7090 C   0  0  0  0  0  0  0  0  0  0  0  0
   56.3050   29.2900   44.8650 C   0  0  0  0  0  0  0  0  0  0  0  0
   55.1430   29.0010   44.4710 O   0  0  0  0  0  0  0  0  0  0  0  0
   57.0708   23.9704   44.4972 H   0  0  0  0  0  0  0  0  0  0  0  0
   56.6056   25.4980   43.6746 H   0  0  0  0  0  0  0  0  0  0  0  0
   58.3207   24.9641   43.6746 H   0  0  0  0  0  0  0  0  0  0  0  0
   57.4901   25.0840   46.4069 H   0  0  0  0  0  0  0  0  0  0  0  0
   58.6552   26.1649   45.5302 H   0  0  0  0  0  0  0  0  0  0  0  0
   59.0356   27.9902   46.4402 H   0  0  0  0  0  0  0  0  0  0  0  0
   60.1841   30.3505   47.3800 H   0  0  0  0  0  0  0  0  0  0  0  0
   60.8943   29.6004   45.9104 H   0  0  0  0  0  0  0  0  0  0  0  0
   60.4647   31.3446   45.9104 H   0  0  0  0  0  0  0  0  0  0  0  0
   59.5004   32.5101   45.0152 H   0  0  0  0  0  0  0  0  0  0  0  0
   57.9043   32.8707   44.2435 H   0  0  0  0  0  0  0  0  0  0  0  0
   56.9760   33.4240   46.1830 H   0  0  0  0  0  0  0  0  0  0  0  0
   58.8855   34.9056   45.5452 H   0  0  0  0  0  0  0  0  0  0  0  0
   58.1582   35.0711   47.1902 H   0  0  0  0  0  0  0  0  0  0  0  0
   59.3679   34.4610   49.1774 H   0  0  0  0  0  0  0  0  0  0  0  0
   61.5563   33.8854   50.2297 H   0  0  0  0  0  0  0  0  0  0  0  0
   63.2776   33.2412   46.3149 H   0  0  0  0  0  0  0  0  0  0  0  0
   61.0947   33.8183   45.2540 H   0  0  0  0  0  0  0  0  0  0  0  0
   56.1403   31.3384   44.1934 H   0  0  0  0  0  0  0  0  0  0  0  0
  1  2  1  0
  2  3  1  0
  3  4  2  0
  3  5  1  0
  5  6  2  0
  6  7  1  0
  7  8  1  0
  7  9  1  0
  9 10  1  0
 10 11  1  0
 11 12  1  0
 12 13  1  0
 13 14  2  0
 14 15  1  0
 15 16  2  0
 16 17  1  0
 16 18  1  0
 18 19  2  0
  9 20  2  0
 20 21  1  0
 21 22  2  0
 21  5  1  0
 19 13  1  0
  1 23  1  0
  1 24  1  0
  1 25  1  0
  2 26  1  0
  2 27  1  0
  6 28  1  0
  8 29  1  0
  8 30  1  0
  8 31  1  0
 10 32  1  0
 10 33  1  0
 11 34  1  0
 12 35  1  0
 12 36  1  0
 14 37  1  0
 15 38  1  0
 18 39  1  0
 19 40  1  0
 20 41  1  0
M  END
>  <UniqueID>  (28) 
28

>  <SMILES>  (28) 
CCC(=O)c1cn(C)c(CNCc2ccc(F)cc2)cc1=O

>  <Energy>  (28) 
43.5219615755415

>  <Genealogy>  (28) 
CCC(=O)c1cn(C)c(CNCc2ccc(F)cc2)cc1=O (3D coordinates assigned)
CCC(=O)c1cn(C)c(CNCc2ccc(F)cc2)cc1=O (optimized conformer: 43.5219615755415 kcal/mol)

>  <smiles>  (28) 
CCC(=O)c1cn(C)c(CNCc2ccc(F)cc2)cc1=O

>  <score_type>  (28) 
oracle

>  <origin>  (28) 
adg

>  <m_score__min__energy>  (28) 
-7.3099999999999996

>  <m_primary>  (28) 
energy

$$$$
28:0
     RDKit          3D

 49 51  0  0  0  0  0  0  0  0999 V2000
   63.4250   33.0880   47.0610 C   0  0  0  0  0  0  0  0  0  0  0  0
   63.1880   32.1760   48.2740 C   0  0  0  0  0  0  0  0  0  0  0  0
   62.9590   32.9030   49.5510 N   0  0  2  0  0  0  0  0  0  0  0  0
   63.0220   34.3660   49.3620 C   0  0  0  0  0  0  0  0  0  0  0  0
   63.8790   32.4410   50.6220 C   0  0  0  0  0  0  0  0  0  0  0  0
   63.1350   32.0940   51.9240 C   0  0  0  0  0  0  0  0  0  0  0  0
   61.7880   31.7630   51.6410 O   0  0  0  0  0  0  0  0  0  0  0  0
   60.8910   32.4610   52.4860 C   0  0  0  0  0  0  0  0  0  0  0  0
   59.8270   33.1870   51.6570 C   0  0  0  0  0  0  0  0  0  0  0  0
   60.3840   33.7030   50.4470 O   0  0  0  0  0  0  0  0  0  0  0  0
   59.8700   33.4970   49.1560 C   0  0  0  0  0  0  0  0  0  0  0  0
   59.7540   34.6030   48.3120 C   0  0  0  0  0  0  0  0  0  0  0  0
   59.2520   34.4650   47.0150 C   0  0  0  0  0  0  0  0  0  0  0  0
   58.8480   33.2050   46.5180 C   0  0  0  0  0  0  0  0  0  0  0  0
   58.3370   33.0970   45.1850 C   0  0  0  0  0  0  0  0  0  0  0  0
   58.2700   34.1540   44.4950 O   0  0  0  0  0  0  0  0  0  0  0  0
   57.8980   31.8780   44.5760 C   0  0  0  0  0  0  0  0  0  0  0  0
   57.4100   31.8930   43.2470 C   0  0  0  0  0  0  0  0  0  0  0  0
   56.9740   30.7170   42.6270 C   0  0  0  0  0  0  0  0  0  0  0  0
   57.0110   29.5040   43.3120 C   0  0  0  0  0  0  0  0  0  0  0  0
   57.4880   29.4590   44.6210 C   0  0  0  0  0  0  0  0  0  0  0  0
   57.9260   30.6330   45.2460 C   0  0  0  0  0  0  0  0  0  0  0  0
   58.5030   30.5790   46.8250 S   0  0  0  0  0  0  0  0  0  0  0  0
   58.9760   32.0950   47.3820 C   0  0  0  0  0  0  0  0  0  0  0  0
   59.4800   32.2340   48.6810 C   0  0  0  0  0  0  0  0  0  0  0  0
   63.6876   34.0984   47.4077 H   0  0  0  0  0  0  0  0  0  0  0  0
   64.2479   32.6835   46.4533 H   0  0  0  0  0  0  0  0  0  0  0  0
   62.5093   33.1353   46.4533 H   0  0  0  0  0  0  0  0  0  0  0  0
   62.3049   31.5529   48.0692 H   0  0  0  0  0  0  0  0  0  0  0  0
   64.1062   31.5854   48.4081 H   0  0  0  0  0  0  0  0  0  0  0  0
   61.9780   32.6710   49.8380 H   0  0  0  0  0  0  0  0  0  0  0  0
   63.0434   34.8619   50.3436 H   0  0  0  0  0  0  0  0  0  0  0  0
   63.9321   34.6244   48.8008 H   0  0  0  0  0  0  0  0  0  0  0  0
   62.1375   34.7016   48.8008 H   0  0  0  0  0  0  0  0  0  0  0  0
   64.4105   31.5449   50.2691 H   0  0  0  0  0  0  0  0  0  0  0  0
   64.5768   33.2622   50.8426 H   0  0  0  0  0  0  0  0  0  0  0  0
   63.6267   31.2365   52.4066 H   0  0  0  0  0  0  0  0  0  0  0  0
   63.1583   32.9652   52.5952 H   0  0  0  0  0  0  0  0  0  0  0  0
   60.3982   31.7454   53.1605 H   0  0  0  0  0  0  0  0  0  0  0  0
   61.4561   33.2038   53.0681 H   0  0  0  0  0  0  0  0  0  0  0  0
   59.0206   32.4811   51.4093 H   0  0  0  0  0  0  0  0  0  0  0  0
   59.4355   34.0276   52.2487 H   0  0  0  0  0  0  0  0  0  0  0  0
   60.0616   35.5957   48.6724 H   0  0  0  0  0  0  0  0  0  0  0  0
   59.1699   35.3522   46.3699 H   0  0  0  0  0  0  0  0  0  0  0  0
   57.3731   32.8431   42.6939 H   0  0  0  0  0  0  0  0  0  0  0  0
   56.5999   30.7501   41.5931 H   0  0  0  0  0  0  0  0  0  0  0  0
   56.6642   28.5831   42.8203 H   0  0  0  0  0  0  0  0  0  0  0  0
   57.5203   28.5021   45.1625 H   0  0  0  0  0  0  0  0  0  0  0  0
   59.5708   31.3515   49.3314 H   0  0  0  0  0  0  0  0  0  0  0  0
  1  2  1  0
  2  3  1  0
  3  4  1  0
  3  5  1  0
  5  6  1  0
  6  7  1  0
  7  8  1  0
  8  9  1  0
  9 10  1  0
 10 11  1  0
 11 12  2  0
 12 13  1  0
 13 14  2  0
 14 15  1  0
 15 16  2  0
 15 17  1  0
 17 18  2  0
 18 19  1  0
 19 20  2  0
 20 21  1  0
 21 22  2  0
 22 23  1  0
 23 24  1  0
 24 25  2  0
 25 11  1  0
 24 14  1  0
 22 17  1  0
  1 26  1  0
  1 27  1  0
  1 28  1  0
  2 29  1  0
  2 30  1  0
  3 31  1  1
  4 32  1  0
  4 33  1  0
  4 34  1  0
  5 35  1  0
  5 36  1  0
  6 37  1  0
  6 38  1  0
  8 39  1  0
  8 40  1  0
  9 41  1  0
  9 42  1  0
 12 43  1  0
 13 44  1  0
 18 45  1  0
 19 46  1  0
 20 47  1  0
 21 48  1  0
 25 49  1  0
M  CHG  1   3   1
M  END
>  <UniqueID>  (29) 
29

>  <SMILES>  (29) 
CC[N@H+](C)CCOCCOc1ccc2c(=O)c3ccccc3sc2c1

>  <Energy>  (29) 
66.17162775162033

>  <Genealogy>  (29) 
CC[NH+](C)CCOCCOc1ccc2c(=O)c3ccccc3sc2c1 (protonated)
CC[N@H+](C)CCOCCOc1ccc2c(=O)c3ccccc3sc2c1 (chirality)
CC[N@H+](C)CCOCCOc1ccc2c(=O)c3ccccc3sc2c1 (3D coordinates assigned)
CC[N@H+](C)CCOCCOc1ccc2c(=O)c3ccccc3sc2c1 (optimized conformer: 66.17162775162033 kcal/mol)

>  <smiles>  (29) 
CCN(C)CCOCCOc1ccc2c(=O)c3ccccc3sc2c1

>  <score_type>  (29) 
oracle

>  <origin>  (29) 
adg

>  <m_score__min__energy>  (29) 
-6.0199999999999996

>  <m_primary>  (29) 
energy

$$$$
29:0
     RDKit          3D

 52 54  0  0  0  0  0  0  0  0999 V2000
   55.2210   29.2360   52.9650 C   0  0  0  0  0  0  0  0  0  0  0  0
   55.5290   30.4590   52.0960 C   0  0  0  0  0  0  0  0  0  0  0  0
   56.9320   30.4530   51.6050 N   0  0  0  0  0  0  0  0  0  0  0  0
   57.4430   31.7880   51.1950 C   0  0  0  0  0  0  0  0  0  0  0  0
   57.7700   32.7330   52.3630 C   0  0  0  0  0  0  0  0  0  0  0  0
   57.8390   29.8090   52.5790 C   0  0  0  0  0  0  0  0  0  0  0  0
   58.8750   29.1110   51.8880 O   0  0  0  0  0  0  0  0  0  0  0  0
   59.7760   29.7260   51.0050 C   0  0  0  0  0  0  0  0  0  0  0  0
   59.7380   29.4840   49.6180 C   0  0  0  0  0  0  0  0  0  0  0  0
   60.6440   30.1220   48.7620 C   0  0  0  0  0  0  0  0  0  0  0  0
   61.5820   31.0350   49.2690 C   0  0  0  0  0  0  0  0  0  0  0  0
   62.5160   31.7800   48.3270 C   0  0  2  0  0  0  0  0  0  0  0  0
   63.8730   31.9020   48.8920 N   0  0  0  0  0  0  0  0  0  0  0  0
   64.0840   33.3170   49.2350 C   0  0  0  0  0  0  0  0  0  0  0  0
   62.9610   34.1230   48.5960 C   0  0  0  0  0  0  0  0  0  0  0  0
   62.0240   33.1370   48.0920 N   0  0  0  0  0  0  0  0  0  0  0  0
   60.8230   33.4740   47.3500 C   0  0  0  0  0  0  0  0  0  0  0  0
   60.9020   33.8930   46.0040 C   0  0  0  0  0  0  0  0  0  0  0  0
   59.7420   34.1930   45.2810 C   0  0  0  0  0  0  0  0  0  0  0  0
   58.4860   34.0710   45.8810 C   0  0  0  0  0  0  0  0  0  0  0  0
   57.0260   34.3760   44.9490 Cl  0  0  0  0  0  0  0  0  0  0  0  0
   58.3880   33.6460   47.2100 C   0  0  0  0  0  0  0  0  0  0  0  0
   59.5440   33.3620   47.9430 C   0  0  0  0  0  0  0  0  0  0  0  0
   61.6260   31.2680   50.6550 C   0  0  0  0  0  0  0  0  0  0  0  0
   60.7400   30.6070   51.5180 C   0  0  0  0  0  0  0  0  0  0  0  0
   60.8180   30.9380   53.2450 Cl  0  0  0  0  0  0  0  0  0  0  0  0
   55.2910   29.5138   54.0270 H   0  0  0  0  0  0  0  0  0  0  0  0
   54.2045   28.8772   52.7460 H   0  0  0  0  0  0  0  0  0  0  0  0
   55.9464   28.4386   52.7460 H   0  0  0  0  0  0  0  0  0  0  0  0
   54.8498   30.4602   51.2308 H   0  0  0  0  0  0  0  0  0  0  0  0
   55.3884   31.3588   52.7129 H   0  0  0  0  0  0  0  0  0  0  0  0
   58.3605   31.6387   50.6069 H   0  0  0  0  0  0  0  0  0  0  0  0
   56.6369   32.2682   50.6210 H   0  0  0  0  0  0  0  0  0  0  0  0
   57.5904   32.2139   53.3160 H   0  0  0  0  0  0  0  0  0  0  0  0
   58.8256   33.0369   52.3043 H   0  0  0  0  0  0  0  0  0  0  0  0
   57.1280   33.6243   52.3043 H   0  0  0  0  0  0  0  0  0  0  0  0
   58.2858   30.5784   53.2258 H   0  0  0  0  0  0  0  0  0  0  0  0
   57.2670   29.0962   53.1911 H   0  0  0  0  0  0  0  0  0  0  0  0
   58.9919   28.7894   49.2046 H   0  0  0  0  0  0  0  0  0  0  0  0
   60.6205   29.9060   47.6837 H   0  0  0  0  0  0  0  0  0  0  0  0
   62.5497   31.2013   47.3921 H   0  0  0  0  0  0  0  0  0  0  0  0
   64.0140   31.2990   49.7370 H   0  0  0  0  0  0  0  0  0  0  0  0
   64.5770   31.6180   48.1730 H   0  0  0  0  0  0  0  0  0  0  0  0
   64.0616   33.4447   50.3273 H   0  0  0  0  0  0  0  0  0  0  0  0
   65.0617   33.6603   48.8659 H   0  0  0  0  0  0  0  0  0  0  0  0
   62.4765   34.7690   49.3430 H   0  0  0  0  0  0  0  0  0  0  0  0
   63.3316   34.7833   47.7981 H   0  0  0  0  0  0  0  0  0  0  0  0
   61.8850   33.9845   45.5189 H   0  0  0  0  0  0  0  0  0  0  0  0
   59.8193   34.5264   44.2356 H   0  0  0  0  0  0  0  0  0  0  0  0
   57.3994   33.5350   47.6793 H   0  0  0  0  0  0  0  0  0  0  0  0
   59.4578   33.0477   48.9936 H   0  0  0  0  0  0  0  0  0  0  0  0
   62.3618   31.9749   51.0659 H   0  0  0  0  0  0  0  0  0  0  0  0
  1  2  1  0
  2  3  1  0
  3  4  1  0
  4  5  1  0
  3  6  1  0
  6  7  1  0
  7  8  1  0
  8  9  2  0
  9 10  1  0
 10 11  2  0
 11 12  1  0
 12 13  1  0
 13 14  1  0
 14 15  1  0
 15 16  1  0
 16 17  1  0
 17 18  2  0
 18 19  1  0
 19 20  2  0
 20 21  1  0
 20 22  1  0
 22 23  2  0
 11 24  1  0
 24 25  2  0
 25 26  1  0
 25  8  1  0
 16 12  1  0
 23 17  1  0
  1 27  1  0
  1 28  1  0
  1 29  1  0
  2 30  1  0
  2 31  1  0
  4 32  1  0
  4 33  1  0
  5 34  1  0
  5 35  1  0
  5 36  1  0
  6 37  1  0
  6 38  1  0
  9 39  1  0
 10 40  1  0
 12 41  1  6
 13 42  1  0
 13 43  1  0
 14 44  1  0
 14 45  1  0
 15 46  1  0
 15 47  1  0
 18 48  1  0
 19 49  1  0
 22 50  1  0
 23 51  1  0
 24 52  1  0
M  CHG  1  13   1
M  END
>  <UniqueID>  (30) 
30

>  <SMILES>  (30) 
CCN(CC)COc1ccc([C@@H]2[NH2+]CCN2c2ccc(Cl)cc2)cc1Cl

>  <Energy>  (30) 
60.35372727425161

>  <Genealogy>  (30) 
CCN(CC)COc1ccc(C2[NH2+]CCN2c2ccc(Cl)cc2)cc1Cl (protonated)
CCN(CC)COc1ccc([C@@H]2[NH2+]CCN2c2ccc(Cl)cc2)cc1Cl (chirality)
CCN(CC)COc1ccc([C@@H]2[NH2+]CCN2c2ccc(Cl)cc2)cc1Cl (3D coordinates assigned)
CCN(CC)COc1ccc([C@@H]2[NH2+]CCN2c2ccc(Cl)cc2)cc1Cl (nonaromatic ring conformer: 60.35372727425161 kcal/mol)

>  <smiles>  (30) 
CCN(CC)COc1ccc(C2NCCN2c2ccc(Cl)cc2)cc1Cl

>  <score_type>  (30) 
oracle

>  <origin>  (30) 
adg

>  <m_score__min__energy>  (30) 
-5.71

>  <m_primary>  (30) 
energy

$$$$
30:0
     RDKit          3D

 47 49  0  0  0  0  0  0  0  0999 V2000
   62.5480   33.8390   46.3810 C   0  0  0  0  0  0  0  0  0  0  0  0
   63.6490   33.8060   47.4580 C   0  0  0  0  0  0  0  0  0  0  0  0
   63.3990   32.9180   48.6420 N   0  0  0  0  0  0  0  0  0  0  0  0
   64.6600   32.7070   49.3990 C   0  0  0  0  0  0  0  0  0  0  0  0
   62.3810   33.5330   49.5320 C   0  0  0  0  0  0  0  0  0  0  0  0
   62.9030   31.6110   48.0940 C   0  0  0  0  0  0  0  0  0  0  0  0
   61.7350   30.9410   48.8650 C   0  0  0  0  0  0  0  0  0  0  0  0
   60.7280   30.2380   47.9240 C   0  0  0  0  0  0  0  0  0  0  0  0
   59.3140   30.6170   48.1580 N   0  0  0  0  0  0  0  0  0  0  0  0
   59.1970   32.0340   48.4400 C   0  0  0  0  0  0  0  0  0  0  0  0
   59.1890   32.4350   49.6370 O   0  0  0  0  0  0  0  0  0  0  0  0
   59.1130   33.0150   47.3340 C   0  0  0  0  0  0  0  0  0  0  0  0
   59.3780   34.3790   47.5420 C   0  0  0  0  0  0  0  0  0  0  0  0
   59.2770   35.2860   46.4830 C   0  0  0  0  0  0  0  0  0  0  0  0
   58.9080   34.8460   45.2080 C   0  0  0  0  0  0  0  0  0  0  0  0
   58.6300   33.4880   44.9850 C   0  0  0  0  0  0  0  0  0  0  0  0
   58.2230   33.0390   43.7210 C   0  0  0  0  0  0  0  0  0  0  0  0
   57.9080   31.6930   43.5230 C   0  0  0  0  0  0  0  0  0  0  0  0
   58.0030   30.7820   44.5790 C   0  0  0  0  0  0  0  0  0  0  0  0
   58.4260   31.2090   45.8480 C   0  0  0  0  0  0  0  0  0  0  0  0
   58.7390   32.5660   46.0540 C   0  0  0  0  0  0  0  0  0  0  0  0
   58.5390   30.2660   46.9860 C   0  0  0  0  0  0  0  0  0  0  0  0
   58.0050   29.1250   46.9100 O   0  0  0  0  0  0  0  0  0  0  0  0
   61.5612   33.8686   46.8662 H   0  0  0  0  0  0  0  0  0  0  0  0
   62.6752   34.7337   45.7539 H   0  0  0  0  0  0  0  0  0  0  0  0
   62.6214   32.9383   45.7539 H   0  0  0  0  0  0  0  0  0  0  0  0
   64.5782   33.4675   46.9763 H   0  0  0  0  0  0  0  0  0  0  0  0
   63.6915   34.8277   47.8633 H   0  0  0  0  0  0  0  0  0  0  0  0
   64.4501   32.7421   50.4782 H   0  0  0  0  0  0  0  0  0  0  0  0
   65.0835   31.7255   49.1396 H   0  0  0  0  0  0  0  0  0  0  0  0
   65.3800   33.4972   49.1396 H   0  0  0  0  0  0  0  0  0  0  0  0
   62.6616   33.3635   50.5820 H   0  0  0  0  0  0  0  0  0  0  0  0
   62.3282   34.6142   49.3365 H   0  0  0  0  0  0  0  0  0  0  0  0
   61.3994   33.0767   49.3365 H   0  0  0  0  0  0  0  0  0  0  0  0
   62.5660   31.7867   47.0618 H   0  0  0  0  0  0  0  0  0  0  0  0
   63.7504   30.9153   48.1830 H   0  0  0  0  0  0  0  0  0  0  0  0
   62.1518   30.1940   49.5566 H   0  0  0  0  0  0  0  0  0  0  0  0
   61.1925   31.7327   49.4025 H   0  0  0  0  0  0  0  0  0  0  0  0
   60.9873   30.4953   46.8864 H   0  0  0  0  0  0  0  0  0  0  0  0
   60.8047   29.1595   48.1264 H   0  0  0  0  0  0  0  0  0  0  0  0
   58.9230   30.0810   48.9650 H   0  0  0  0  0  0  0  0  0  0  0  0
   59.6661   34.7347   48.5422 H   0  0  0  0  0  0  0  0  0  0  0  0
   59.4890   36.3518   46.6537 H   0  0  0  0  0  0  0  0  0  0  0  0
   58.8354   35.5649   44.3786 H   0  0  0  0  0  0  0  0  0  0  0  0
   58.1516   33.7484   42.8833 H   0  0  0  0  0  0  0  0  0  0  0  0
   57.5833   31.3477   42.5304 H   0  0  0  0  0  0  0  0  0  0  0  0
   57.7451   29.7253   44.4150 H   0  0  0  0  0  0  0  0  0  0  0  0
  1  2  1  0
  2  3  1  0
  3  4  1  0
  3  5  1  0
  3  6  1  0
  6  7  1  0
  7  8  1  0
  8  9  1  0
  9 10  1  0
 10 11  2  0
 10 12  1  0
 12 13  1  0
 13 14  2  0
 14 15  1  0
 15 16  2  0
 16 17  1  0
 17 18  2  0
 18 19  1  0
 19 20  2  0
 20 21  1  0
 20 22  1  0
 22 23  2  0
 22  9  1  0
 21 12  2  0
 21 16  1  0
  1 24  1  0
  1 25  1  0
  1 26  1  0
  2 27  1  0
  2 28  1  0
  4 29  1  0
  4 30  1  0
  4 31  1  0
  5 32  1  0
  5 33  1  0
  5 34  1  0
  6 35  1  0
  6 36  1  0
  7 37  1  0
  7 38  1  0
  8 39  1  0
  8 40  1  0
  9 41  1  0
 13 42  1  0
 14 43  1  0
 15 44  1  0
 17 45  1  0
 18 46  1  0
 19 47  1  0
M  CHG  2   3   1   9   1
M  END
>  <UniqueID>  (31) 
31

>  <SMILES>  (31) 
CC[N+](C)(C)CCC[NH+]1C(=O)c2cccc3cccc(c23)C1=O

>  <Energy>  (31) 
70.50142377048445

>  <Genealogy>  (31) 
CC[N+](C)(C)CCC[NH+]1C(=O)c2cccc3cccc(c23)C1=O (protonated)
CC[N+](C)(C)CCC[NH+]1C(=O)c2cccc3cccc(c23)C1=O (3D coordinates assigned)
CC[N+](C)(C)CCC[NH+]1C(=O)c2cccc3cccc(c23)C1=O (nonaromatic ring conformer: 70.50142377048445 kcal/mol)

>  <smiles>  (31) 
CC[N+](C)(C)CCCN1C(=O)c2cccc3cccc(c23)C1=O

>  <score_type>  (31) 
oracle

>  <origin>  (31) 
adg

>  <m_score__min__energy>  (31) 
-4.6100000000000003

>  <m_primary>  (31) 
energy

$$$$
