0:0
     RDKit          3D

 47 50  0  0  0  0  0  0  0  0999 V2000
   63.3920   33.7430   46.7990 C   0  0  0  0  0  0  0  0  0  0  0  0
   63.0020   33.7130   48.2710 C   0  0  0  0  0  0  0  0  0  0  0  0
   62.2440   32.4900   48.5660 N   0  0  0  0  0  0  0  0  0  0  0  0
   62.6430   31.3850   47.6830 C   0  0  0  0  0  0  0  0  0  0  0  0
   61.4970   30.3740   47.5440 C   0  0  0  0  0  0  0  0  0  0  0  0
   60.2090   30.9850   47.9170 N   0  0  0  0  0  0  0  0  0  0  0  0
   59.4360   31.3220   46.7390 C   0  0  0  0  0  0  0  0  0  0  0  0
   59.3920   32.6710   46.2640 C   0  0  0  0  0  0  0  0  0  0  0  0
   59.9360   33.7420   47.0190 C   0  0  0  0  0  0  0  0  0  0  0  0
   59.8710   35.0540   46.5600 C   0  0  0  0  0  0  0  0  0  0  0  0
   59.2620   35.3420   45.3480 C   0  0  0  0  0  0  0  0  0  0  0  0
   58.7220   34.3170   44.5770 C   0  0  0  0  0  0  0  0  0  0  0  0
   58.7860   32.9650   45.0020 C   0  0  0  0  0  0  0  0  0  0  0  0
   58.2830   31.9480   44.2170 N   0  0  0  0  0  0  0  0  0  0  0  0
   57.7650   32.2230   42.8610 C   0  0  0  0  0  0  0  0  0  0  0  0
   58.2350   30.6800   44.7270 C   0  0  0  0  0  0  0  0  0  0  0  0
   57.5560   29.3330   43.9650 S   0  0  0  0  0  0  0  0  0  0  0  0
   57.8760   28.2780   45.2140 C   0  0  0  0  0  0  0  0  0  0  0  0
   57.5360   26.9280   45.2520 C   0  0  0  0  0  0  0  0  0  0  0  0
   57.8280   26.2000   46.4070 C   0  0  0  0  0  0  0  0  0  0  0  0
   58.4280   26.8340   47.5020 C   0  0  0  0  0  0  0  0  0  0  0  0
   58.7600   28.1970   47.4480 C   0  0  0  0  0  0  0  0  0  0  0  0
   58.5120   28.9390   46.2710 C   0  0  0  0  0  0  0  0  0  0  0  0
   58.7520   30.3260   45.9820 C   0  0  0  0  0  0  0  0  0  0  0  0
   64.4852   33.8271   46.7110 H   0  0  0  0  0  0  0  0  0  0  0  0
   63.0551   32.8163   46.3115 H   0  0  0  0  0  0  0  0  0  0  0  0
   62.9173   34.6073   46.3115 H   0  0  0  0  0  0  0  0  0  0  0  0
   63.9116   33.7356   48.8892 H   0  0  0  0  0  0  0  0  0  0  0  0
   62.3755   34.5887   48.4960 H   0  0  0  0  0  0  0  0  0  0  0  0
   62.4690   32.2100   49.5500 H   0  0  0  0  0  0  0  0  0  0  0  0
   62.8951   31.7865   46.6904 H   0  0  0  0  0  0  0  0  0  0  0  0
   63.5171   30.8776   48.1173 H   0  0  0  0  0  0  0  0  0  0  0  0
   61.4440   30.0308   46.5002 H   0  0  0  0  0  0  0  0  0  0  0  0
   61.6922   29.5265   48.2175 H   0  0  0  0  0  0  0  0  0  0  0  0
   60.3240   31.8220   48.5270 H   0  0  0  0  0  0  0  0  0  0  0  0
   59.6730   30.3310   48.5310 H   0  0  0  0  0  0  0  0  0  0  0  0
   60.4181   33.5313   47.9850 H   0  0  0  0  0  0  0  0  0  0  0  0
   60.3047   35.8665   47.1614 H   0  0  0  0  0  0  0  0  0  0  0  0
   59.2056   36.3824   44.9954 H   0  0  0  0  0  0  0  0  0  0  0  0
   58.2365   34.5596   43.6202 H   0  0  0  0  0  0  0  0  0  0  0  0
   56.7957   32.7376   42.9362 H   0  0  0  0  0  0  0  0  0  0  0  0
   58.4780   32.8614   42.3186 H   0  0  0  0  0  0  0  0  0  0  0  0
   57.6357   31.2748   42.3186 H   0  0  0  0  0  0  0  0  0  0  0  0
   57.0485   26.4463   44.3916 H   0  0  0  0  0  0  0  0  0  0  0  0
   57.5866   25.1280   46.4569 H   0  0  0  0  0  0  0  0  0  0  0  0
   58.6415   26.2578   48.4144 H   0  0  0  0  0  0  0  0  0  0  0  0
   59.2133   28.6876   48.3220 H   0  0  0  0  0  0  0  0  0  0  0  0
  1  2  1  0
  2  3  1  0
  3  4  1  0
  4  5  1  0
  5  6  1  0
  6  7  1  0
  7  8  2  0
  8  9  1  0
  9 10  2  0
 10 11  1  0
 11 12  2  0
 12 13  1  0
 13 14  2  0
 14 15  1  0
 14 16  1  0
 16 17  1  0
 17 18  1  0
 18 19  2  0
 19 20  1  0
 20 21  2  0
 21 22  1  0
 22 23  2  0
 23 24  1  0
 24  7  1  0
 13  8  1  0
 24 16  2  0
 23 18  1  0
  1 25  1  0
  1 26  1  0
  1 27  1  0
  2 28  1  0
  2 29  1  0
  3 30  1  0
  4 31  1  0
  4 32  1  0
  5 33  1  0
  5 34  1  0
  6 35  1  0
  6 36  1  0
  9 37  1  0
 10 38  1  0
 11 39  1  0
 12 40  1  0
 15 41  1  0
 15 42  1  0
 15 43  1  0
 19 44  1  0
 20 45  1  0
 21 46  1  0
 22 47  1  0
M  CHG  2   6   1  14   1
M  END
>  <UniqueID>  (1) 
1

>  <SMILES>  (1) 
CCNCC[NH2+]c1c2ccccc2[n+](C)c2sc3ccccc3c12

>  <Energy>  (1) 
105.78457150523633

>  <Genealogy>  (1) 
CCNCC[NH2+]c1c2ccccc2[n+](C)c2sc3ccccc3c12 (protonated)
CCNCC[NH2+]c1c2ccccc2[n+](C)c2sc3ccccc3c12 (3D coordinates assigned)
CCNCC[NH2+]c1c2ccccc2[n+](C)c2sc3ccccc3c12 (optimized conformer: 105.78457150523633 kcal/mol)

>  <smiles>  (1) 
CCNCCNc1c2ccccc2[n+](C)c2sc3ccccc3c12

>  <score_type>  (1) 
oracle

>  <origin>  (1) 
adg

>  <m_score__min__energy>  (1) 
-5.1200000000000001

>  <m_primary>  (1) 
energy

$$$$
1:0
     RDKit          3D

 68 70  0  0  0  0  0  0  0  0999 V2000
   58.0158   29.0795   43.7424 H   0  0  0  0  0  0  0  0  0  0  0  0
   57.7420   28.8210   44.7760 C   0  0  0  0  0  0  0  0  0  0  0  0
   57.5400   29.7970   45.6170 N   0  0  0  0  0  0  0  0  0  0  0  0
   57.8000   31.1890   45.3850 C   0  0  0  0  0  0  0  0  0  0  0  0
   57.5680   31.7430   44.1130 C   0  0  0  0  0  0  0  0  0  0  0  0
   57.2127   31.1011   43.2934 H   0  0  0  0  0  0  0  0  0  0  0  0
   57.7860   33.1020   43.8850 C   0  0  0  0  0  0  0  0  0  0  0  0
   57.6201   33.5246   42.8831 H   0  0  0  0  0  0  0  0  0  0  0  0
   58.2140   33.9250   44.9260 C   0  0  0  0  0  0  0  0  0  0  0  0
   58.3836   34.9965   44.7440 H   0  0  0  0  0  0  0  0  0  0  0  0
   58.4280   33.3920   46.2000 C   0  0  0  0  0  0  0  0  0  0  0  0
   58.7657   34.0482   47.0157 H   0  0  0  0  0  0  0  0  0  0  0  0
   58.2150   32.0210   46.4490 C   0  0  0  0  0  0  0  0  0  0  0  0
   58.4400   31.4580   47.7590 N   0  0  0  0  0  0  0  0  0  0  0  0
   58.2450   30.4430   47.9120 H   0  0  0  0  0  0  0  0  0  0  0  0
   58.8680   32.2290   48.9280 C   0  0  0  0  0  0  0  0  0  0  0  0
   58.3079   33.1753   48.9563 H   0  0  0  0  0  0  0  0  0  0  0  0
   59.9487   32.4151   48.8411 H   0  0  0  0  0  0  0  0  0  0  0  0
   58.6160   31.4620   50.2320 C   0  0  0  0  0  0  0  0  0  0  0  0
   57.7066   31.8546   50.7105 H   0  0  0  0  0  0  0  0  0  0  0  0
   59.4862   31.5956   50.8914 H   0  0  0  0  0  0  0  0  0  0  0  0
   58.4470   30.0760   49.9810 O   0  0  0  0  0  0  0  0  0  0  0  0
   59.6280   29.3470   50.2720 C   0  0  0  0  0  0  0  0  0  0  0  0
   59.3634   28.2936   50.4461 H   0  0  0  0  0  0  0  0  0  0  0  0
   60.0931   29.7883   51.1658 H   0  0  0  0  0  0  0  0  0  0  0  0
   60.6400   29.4230   49.1160 C   0  0  0  0  0  0  0  0  0  0  0  0
   61.4669   28.7233   49.3076 H   0  0  0  0  0  0  0  0  0  0  0  0
   61.0321   30.4481   49.0427 H   0  0  0  0  0  0  0  0  0  0  0  0
   59.9740   29.0610   47.8430 N   0  0  0  0  0  0  0  0  0  0  0  0
   60.6720   29.6570   46.6800 C   0  0  0  0  0  0  0  0  0  0  0  0
   59.9286   29.9812   45.9369 H   0  0  0  0  0  0  0  0  0  0  0  0
   61.3408   28.9039   46.2378 H   0  0  0  0  0  0  0  0  0  0  0  0
   61.5020   30.8630   47.1240 C   0  0  0  0  0  0  0  0  0  0  0  0
   61.5303   30.9041   48.2229 H   0  0  0  0  0  0  0  0  0  0  0  0
   62.5261   30.7668   46.7342 H   0  0  0  0  0  0  0  0  0  0  0  0
   61.0464   31.7852   46.7342 H   0  0  0  0  0  0  0  0  0  0  0  0
   59.8450   27.5940   47.6930 C   0  0  0  0  0  0  0  0  0  0  0  0
   60.2577   27.1021   48.5862 H   0  0  0  0  0  0  0  0  0  0  0  0
   58.7804   27.3428   47.5763 H   0  0  0  0  0  0  0  0  0  0  0  0
   60.6030   27.1080   46.4570 C   0  0  0  0  0  0  0  0  0  0  0  0
   61.4904   26.5390   46.7713 H   0  0  0  0  0  0  0  0  0  0  0  0
   59.9472   26.4616   45.8553 H   0  0  0  0  0  0  0  0  0  0  0  0
   60.9167   27.9738   45.8553 H   0  0  0  0  0  0  0  0  0  0  0  0
   57.6260   27.3870   45.1250 C   0  0  0  0  0  0  0  0  0  0  0  0
   57.1990   26.8530   46.3320 C   0  0  0  0  0  0  0  0  0  0  0  0
   56.9490   27.4096   47.2473 H   0  0  0  0  0  0  0  0  0  0  0  0
   57.1500   25.4860   46.1570 C   0  0  0  0  0  0  0  0  0  0  0  0
   56.6980   24.5090   47.2020 C   0  0  0  0  0  0  0  0  0  0  0  0
   56.8908   24.9258   48.2015 H   0  0  0  0  0  0  0  0  0  0  0  0
   55.6207   24.3195   47.0853 H   0  0  0  0  0  0  0  0  0  0  0  0
   57.2510   23.5653   47.0853 H   0  0  0  0  0  0  0  0  0  0  0  0
   57.4910   25.1620   44.8890 N   0  0  0  0  0  0  0  0  0  0  0  0
   57.4800   23.8410   44.3220 C   0  0  0  0  0  0  0  0  0  0  0  0
   56.5730   23.5080   43.3090 C   0  0  0  0  0  0  0  0  0  0  0  0
   55.8528   24.2560   42.9458 H   0  0  0  0  0  0  0  0  0  0  0  0
   56.5850   22.2240   42.7610 C   0  0  0  0  0  0  0  0  0  0  0  0
   55.8747   21.9531   41.9660 H   0  0  0  0  0  0  0  0  0  0  0  0
   57.5080   21.2860   43.2320 C   0  0  0  0  0  0  0  0  0  0  0  0
   57.5267   20.2723   42.8054 H   0  0  0  0  0  0  0  0  0  0  0  0
   58.3850   21.6250   44.2190 N   0  0  0  0  0  0  0  0  0  0  0  0
   59.0700   20.9140   44.5620 H   0  0  0  0  0  0  0  0  0  0  0  0
   58.3900   22.8710   44.7660 C   0  0  0  0  0  0  0  0  0  0  0  0
   59.1106   23.1182   45.5595 H   0  0  0  0  0  0  0  0  0  0  0  0
   57.7780   26.3200   44.2500 C   0  0  0  0  0  0  0  0  0  0  0  0
   58.1420   26.4420   42.7960 C   0  0  0  0  0  0  0  0  0  0  0  0
   59.1815   26.7904   42.7062 H   0  0  0  0  0  0  0  0  0  0  0  0
   58.0408   25.4608   42.3091 H   0  0  0  0  0  0  0  0  0  0  0  0
   57.4700   27.1640   42.3091 H   0  0  0  0  0  0  0  0  0  0  0  0
  1  2  1  0
  2  3  2  0
  3  4  1  0
  4  5  2  0
  5  6  1  0
  5  7  1  0
  7  8  1  0
  7  9  2  0
  9 10  1  0
  9 11  1  0
 11 12  1  0
 11 13  2  0
 13 14  1  0
 14 15  1  0
 14 16  1  0
 16 17  1  0
 16 18  1  0
 16 19  1  0
 19 20  1  0
 19 21  1  0
 19 22  1  0
 22 23  1  0
 23 24  1  0
 23 25  1  0
 23 26  1  0
 26 27  1  0
 26 28  1  0
 26 29  1  0
 29 30  1  0
 30 31  1  0
 30 32  1  0
 30 33  1  0
 33 34  1  0
 33 35  1  0
 33 36  1  0
 29 37  1  0
 37 38  1  0
 37 39  1  0
 37 40  1  0
 40 41  1  0
 40 42  1  0
 40 43  1  0
  2 44  1  0
 44 45  1  0
 45 46  1  0
 45 47  2  0
 47 48  1  0
 48 49  1  0
 48 50  1  0
 48 51  1  0
 47 52  1  0
 52 53  1  0
 53 54  2  0
 54 55  1  0
 54 56  1  0
 56 57  1  0
 56 58  2  0
 58 59  1  0
 58 60  1  0
 60 61  1  0
 60 62  2  0
 62 63  1  0
 52 64  1  0
 64 65  1  0
 65 66  1  0
 65 67  1  0
 65 68  1  0
 13  4  1  0
 64 44  2  0
 62 53  1  0
M  CHG  1  60   1
M  END
>  <UniqueID>  (2) 
2

>  <SMILES>  (2) 
CCN(CC)CCOCCNc1ccccc1/N=C\c1cc(C)n(-c2ccc[nH+]c2)c1C

>  <Energy>  (2) 
109.78086910829226

>  <Genealogy>  (2) 
CCN(CC)CCOCCNc1ccccc1N=Cc1cc(C)n(-c2ccc[nH+]c2)c1C (protonated)
CCN(CC)CCOCCNc1ccccc1/N=C\c1cc(C)n(-c2ccc[nH+]c2)c1C (cis-trans isomerization)
CCN(CC)CCOCCNc1ccccc1/N=C\c1cc(C)n(-c2ccc[nH+]c2)c1C (3D coordinates assigned)
CCN(CC)CCOCCNc1ccccc1/N=C\c1cc(C)n(-c2ccc[nH+]c2)c1C (optimized conformer: 109.78086910829226 kcal/mol)

>  <smiles>  (2) 
CCN(CC)CCOCCNc1ccccc1N=Cc1cc(C)n(-c2cccnc2)c1C

>  <score_type>  (2) 
oracle

>  <origin>  (2) 
adg

>  <m_score__min__energy>  (2) 
-6.9100000000000001

>  <m_primary>  (2) 
energy

$$$$
2:0
     RDKit          3D

 55 56  0  0  0  0  0  0  0  0999 V2000
   56.4570   29.8370   42.9270 C   0  0  0  0  0  0  0  0  0  0  0  0
   55.5400   30.0920   44.1130 C   0  0  0  0  0  0  0  0  0  0  0  0
   55.9660   29.3040   45.2040 O   0  0  0  0  0  0  0  0  0  0  0  0
   57.1140   28.5530   44.8580 C   0  0  0  0  0  0  0  0  0  0  0  0
   57.8070   28.0430   46.1240 C   0  0  0  0  0  0  0  0  0  0  0  0
   58.6100   29.1070   46.7490 N   0  0  0  0  0  0  0  0  0  0  0  0
   58.6690   29.1980   48.2180 C   0  0  0  0  0  0  0  0  0  0  0  0
   60.0840   28.9200   48.7210 C   0  0  0  0  0  0  0  0  0  0  0  0
   59.2800   30.0760   45.9080 C   0  0  0  0  0  0  0  0  0  0  0  0
   60.5100   29.9360   45.6620 O   0  0  0  0  0  0  0  0  0  0  0  0
   58.5230   31.2220   45.2750 C   0  0  0  0  0  0  0  0  0  0  0  0
   58.9110   32.5610   45.8480 C   0  0  0  0  0  0  0  0  0  0  0  0
   58.8820   33.7100   45.0410 C   0  0  0  0  0  0  0  0  0  0  0  0
   59.2580   34.9490   45.5640 C   0  0  0  0  0  0  0  0  0  0  0  0
   59.6780   35.0510   46.8940 C   0  0  0  0  0  0  0  0  0  0  0  0
   59.7390   33.9080   47.7060 C   0  0  0  0  0  0  0  0  0  0  0  0
   60.1410   34.0230   49.1510 C   0  0  0  0  0  0  0  0  0  0  0  0
   61.5270   34.4980   49.2370 N   0  0  0  0  0  0  0  0  0  0  0  0
   62.4880   33.4210   48.9380 C   0  0  2  0  0  0  0  0  0  0  0  0
   63.0150   33.5510   47.5260 C   0  0  0  0  0  0  0  0  0  0  0  0
   63.3060   32.1230   47.1150 C   0  0  0  0  0  0  0  0  0  0  0  0
   62.3790   31.2520   47.8380 N   0  0  0  0  0  0  0  0  0  0  0  0
   61.8650   32.0190   48.9780 C   0  0  0  0  0  0  0  0  0  0  0  0
   59.3500   32.6640   47.1800 C   0  0  0  0  0  0  0  0  0  0  0  0
   57.4574   29.5588   43.2901 H   0  0  0  0  0  0  0  0  0  0  0  0
   56.0478   29.0186   42.3165 H   0  0  0  0  0  0  0  0  0  0  0  0
   56.5291   30.7492   42.3165 H   0  0  0  0  0  0  0  0  0  0  0  0
   55.5816   31.1561   44.3887 H   0  0  0  0  0  0  0  0  0  0  0  0
   54.5063   29.8272   43.8459 H   0  0  0  0  0  0  0  0  0  0  0  0
   56.8151   27.6964   44.2361 H   0  0  0  0  0  0  0  0  0  0  0  0
   57.8105   29.1950   44.2988 H   0  0  0  0  0  0  0  0  0  0  0  0
   57.0443   27.7005   46.8388 H   0  0  0  0  0  0  0  0  0  0  0  0
   58.4757   27.2141   45.8487 H   0  0  0  0  0  0  0  0  0  0  0  0
   58.3675   30.2090   48.5293 H   0  0  0  0  0  0  0  0  0  0  0  0
   57.9883   28.4473   48.6459 H   0  0  0  0  0  0  0  0  0  0  0  0
   60.0886   28.9191   49.8210 H   0  0  0  0  0  0  0  0  0  0  0  0
   60.4182   27.9390   48.3521 H   0  0  0  0  0  0  0  0  0  0  0  0
   60.7644   29.7016   48.3521 H   0  0  0  0  0  0  0  0  0  0  0  0
   58.7311   31.2275   44.1949 H   0  0  0  0  0  0  0  0  0  0  0  0
   57.4535   31.0689   45.4818 H   0  0  0  0  0  0  0  0  0  0  0  0
   58.5615   33.6336   43.9915 H   0  0  0  0  0  0  0  0  0  0  0  0
   59.2238   35.8463   44.9287 H   0  0  0  0  0  0  0  0  0  0  0  0
   59.9617   36.0310   47.3053 H   0  0  0  0  0  0  0  0  0  0  0  0
   59.4767   34.7363   49.6607 H   0  0  0  0  0  0  0  0  0  0  0  0
   60.0605   33.0377   49.6335 H   0  0  0  0  0  0  0  0  0  0  0  0
   61.6560   35.2850   48.5590 H   0  0  0  0  0  0  0  0  0  0  0  0
   63.2649   33.5272   49.7094 H   0  0  0  0  0  0  0  0  0  0  0  0
   62.2596   34.0023   46.8660 H   0  0  0  0  0  0  0  0  0  0  0  0
   63.9002   34.2007   47.4609 H   0  0  0  0  0  0  0  0  0  0  0  0
   63.1590   32.0082   46.0309 H   0  0  0  0  0  0  0  0  0  0  0  0
   64.3468   31.8589   47.3536 H   0  0  0  0  0  0  0  0  0  0  0  0
   61.5770   31.0320   47.1980 H   0  0  0  0  0  0  0  0  0  0  0  0
   60.7699   32.0969   48.9101 H   0  0  0  0  0  0  0  0  0  0  0  0
   62.1258   31.5159   49.9208 H   0  0  0  0  0  0  0  0  0  0  0  0
   59.3892   31.7659   47.8139 H   0  0  0  0  0  0  0  0  0  0  0  0
  1  2  1  0
  2  3  1  0
  3  4  1  0
  4  5  1  0
  5  6  1  0
  6  7  1  0
  7  8  1  0
  6  9  1  0
  9 10  2  0
  9 11  1  0
 11 12  1  0
 12 13  2  0
 13 14  1  0
 14 15  2  0
 15 16  1  0
 16 17  1  0
 17 18  1  0
 18 19  1  0
 19 20  1  0
 20 21  1  0
 21 22  1  0
 22 23  1  0
 16 24  2  0
 24 12  1  0
 23 19  1  0
  1 25  1  0
  1 26  1  0
  1 27  1  0
  2 28  1  0
  2 29  1  0
  4 30  1  0
  4 31  1  0
  5 32  1  0
  5 33  1  0
  7 34  1  0
  7 35  1  0
  8 36  1  0
  8 37  1  0
  8 38  1  0
 11 39  1  0
 11 40  1  0
 13 41  1  0
 14 42  1  0
 15 43  1  0
 17 44  1  0
 17 45  1  0
 18 46  1  0
 19 47  1  1
 20 48  1  0
 20 49  1  0
 21 50  1  0
 21 51  1  0
 22 52  1  0
 23 53  1  0
 23 54  1  0
 24 55  1  0
M  END
>  <UniqueID>  (3) 
3

>  <SMILES>  (3) 
CCOCCN(CC)C(=O)Cc1cccc(CN[C@@H]2CCNC2)c1

>  <Energy>  (3) 
47.56539849345698

>  <Genealogy>  (3) 
CCOCCN(CC)C(=O)Cc1cccc(CN[C@@H]2CCNC2)c1 (chirality)
CCOCCN(CC)C(=O)Cc1cccc(CN[C@@H]2CCNC2)c1 (3D coordinates assigned)
CCOCCN(CC)C(=O)Cc1cccc(CN[C@@H]2CCNC2)c1 (nonaromatic ring conformer: 47.56539849345698 kcal/mol)

>  <smiles>  (3) 
CCOCCN(CC)C(=O)Cc1cccc(CNC2CCNC2)c1

>  <score_type>  (3) 
oracle

>  <origin>  (3) 
adg

>  <m_score__min__energy>  (3) 
-8.2799999999999994

>  <m_primary>  (3) 
energy

$$$$
3:0
     RDKit          3D

 45 47  0  0  0  0  0  0  0  0999 V2000
   59.8400   28.3350   48.5080 C   0  0  0  0  0  0  0  0  0  0  0  0
   59.6580   26.8390   48.2690 C   0  0  0  0  0  0  0  0  0  0  0  0
   59.3600   26.5660   46.8530 N   0  0  0  0  0  0  0  0  0  0  0  0
   59.6350   25.2260   46.3130 C   0  0  0  0  0  0  0  0  0  0  0  0
   58.3660   24.5920   45.7480 C   0  0  0  0  0  0  0  0  0  0  0  0
   58.8010   27.5950   46.0020 C   0  0  0  0  0  0  0  0  0  0  0  0
   59.6500   28.4620   45.2600 C   0  0  0  0  0  0  0  0  0  0  0  0
   59.1150   29.4710   44.4400 C   0  0  0  0  0  0  0  0  0  0  0  0
   57.7300   29.5900   44.3770 C   0  0  0  0  0  0  0  0  0  0  0  0
   56.9160   30.4590   43.6860 C   0  0  0  0  0  0  0  0  0  0  0  0
   57.3300   31.6140   42.8200 C   0  0  0  0  0  0  0  0  0  0  0  0
   58.1930   32.5350   43.5710 N   0  0  0  0  0  0  0  0  0  0  0  0
   57.3940   33.3630   44.4860 C   0  0  0  0  0  0  0  0  0  0  0  0
   58.1920   33.7170   45.7020 C   0  0  0  0  0  0  0  0  0  0  0  0
   58.1400   33.0660   46.9280 C   0  0  0  0  0  0  0  0  0  0  0  0
   59.0600   33.5670   47.8570 C   0  0  0  0  0  0  0  0  0  0  0  0
   59.8460   34.5990   47.3610 C   0  0  0  0  0  0  0  0  0  0  0  0
   59.3990   34.8870   45.7650 S   0  0  0  0  0  0  0  0  0  0  0  0
   55.6200   30.1090   44.0470 C   0  0  0  0  0  0  0  0  0  0  0  0
   55.6450   29.0850   44.8820 O   0  0  0  0  0  0  0  0  0  0  0  0
   56.9010   28.7660   45.0870 C   0  0  0  0  0  0  0  0  0  0  0  0
   57.3980   27.7560   45.9070 C   0  0  0  0  0  0  0  0  0  0  0  0
   59.8641   28.5332   49.5897 H   0  0  0  0  0  0  0  0  0  0  0  0
   60.7851   28.6667   48.0533 H   0  0  0  0  0  0  0  0  0  0  0  0
   59.0020   28.8836   48.0533 H   0  0  0  0  0  0  0  0  0  0  0  0
   60.5829   26.3141   48.5502 H   0  0  0  0  0  0  0  0  0  0  0  0
   58.8147   26.4852   48.8804 H   0  0  0  0  0  0  0  0  0  0  0  0
   60.3837   25.3081   45.5113 H   0  0  0  0  0  0  0  0  0  0  0  0
   60.0110   24.5903   47.1282 H   0  0  0  0  0  0  0  0  0  0  0  0
   57.7180   24.2682   46.5758 H   0  0  0  0  0  0  0  0  0  0  0  0
   57.8315   25.3290   45.1306 H   0  0  0  0  0  0  0  0  0  0  0  0
   58.6343   23.7221   45.1306 H   0  0  0  0  0  0  0  0  0  0  0  0
   60.7412   28.3413   45.3287 H   0  0  0  0  0  0  0  0  0  0  0  0
   59.7697   30.1442   43.8671 H   0  0  0  0  0  0  0  0  0  0  0  0
   57.8799   31.2331   41.9468 H   0  0  0  0  0  0  0  0  0  0  0  0
   56.4297   32.1554   42.4938 H   0  0  0  0  0  0  0  0  0  0  0  0
   58.8890   31.9810   44.1250 H   0  0  0  0  0  0  0  0  0  0  0  0
   58.7020   33.1590   42.8990 H   0  0  0  0  0  0  0  0  0  0  0  0
   57.0922   34.2860   43.9693 H   0  0  0  0  0  0  0  0  0  0  0  0
   56.5046   32.7949   44.7962 H   0  0  0  0  0  0  0  0  0  0  0  0
   57.4465   32.2407   47.1468 H   0  0  0  0  0  0  0  0  0  0  0  0
   59.1516   33.1799   48.8826 H   0  0  0  0  0  0  0  0  0  0  0  0
   60.6280   35.1367   47.9172 H   0  0  0  0  0  0  0  0  0  0  0  0
   54.7082   30.6104   43.6903 H   0  0  0  0  0  0  0  0  0  0  0  0
   56.7165   27.0991   46.4674 H   0  0  0  0  0  0  0  0  0  0  0  0
  1  2  1  0
  2  3  1  0
  3  4  1  0
  4  5  1  0
  3  6  1  0
  6  7  2  0
  7  8  1  0
  8  9  2  0
  9 10  1  0
 10 11  1  0
 11 12  1  0
 12 13  1  0
 13 14  1  0
 14 15  2  0
 15 16  1  0
 16 17  2  0
 17 18  1  0
 10 19  2  0
 19 20  1  0
 20 21  1  0
 21 22  2  0
 22  6  1  0
 21  9  1  0
 18 14  1  0
  1 23  1  0
  1 24  1  0
  1 25  1  0
  2 26  1  0
  2 27  1  0
  4 28  1  0
  4 29  1  0
  5 30  1  0
  5 31  1  0
  5 32  1  0
  7 33  1  0
  8 34  1  0
 11 35  1  0
 11 36  1  0
 12 37  1  0
 12 38  1  0
 13 39  1  0
 13 40  1  0
 15 41  1  0
 16 42  1  0
 17 43  1  0
 19 44  1  0
 22 45  1  0
M  CHG  1  12   1
M  END
>  <UniqueID>  (4) 
4

>  <SMILES>  (4) 
CCN(CC)c1ccc2c(C[NH2+]Cc3cccs3)coc2c1

>  <Energy>  (4) 
100.54103767640184

>  <Genealogy>  (4) 
CCN(CC)c1ccc2c(C[NH2+]Cc3cccs3)coc2c1 (protonated)
CCN(CC)c1ccc2c(C[NH2+]Cc3cccs3)coc2c1 (3D coordinates assigned)
CCN(CC)c1ccc2c(C[NH2+]Cc3cccs3)coc2c1 (optimized conformer: 100.54103767640184 kcal/mol)

>  <smiles>  (4) 
CCN(CC)c1ccc2c(CNCc3cccs3)coc2c1

>  <score_type>  (4) 
oracle

>  <origin>  (4) 
adg

>  <m_score__min__energy>  (4) 
-5.6699999999999999

>  <m_primary>  (4) 
energy

$$$$
4:0
     RDKit          3D

 67 70  0  0  0  0  0  0  0  0999 V2000
   56.6670   30.8600   43.2150 C   0  0  0  0  0  0  0  0  0  0  0  0
   57.6480   30.9140   44.2600 N   0  0  0  0  0  0  0  0  0  0  0  0
   58.0870   32.0240   44.8630 C   0  0  0  0  0  0  0  0  0  0  0  0
   57.5720   33.2420   44.4790 C   0  0  0  0  0  0  0  0  0  0  0  0
   58.0000   34.4130   45.0970 C   0  0  0  0  0  0  0  0  0  0  0  0
   58.9430   34.3710   46.1000 C   0  0  0  0  0  0  0  0  0  0  0  0
   59.4430   33.1320   46.4670 C   0  0  0  0  0  0  0  0  0  0  0  0
   59.0470   31.9520   45.8780 C   0  0  0  0  0  0  0  0  0  0  0  0
   59.5800   30.7540   46.3000 C   0  0  0  0  0  0  0  0  0  0  0  0
   60.5840   30.6480   47.3030 N   0  0  0  0  0  0  0  0  0  0  0  0
   61.9620   30.9770   47.1230 C   0  0  0  0  0  0  0  0  0  0  0  0
   62.6450   31.6540   48.2530 C   0  0  0  0  0  0  0  0  0  0  0  0
   63.7130   32.5410   47.8350 N   0  0  0  0  0  0  0  0  0  0  0  0
   63.3150   33.4500   46.8040 C   0  0  0  0  0  0  0  0  0  0  0  0
   64.2110   33.2860   48.9660 C   0  0  0  0  0  0  0  0  0  0  0  0
   59.1060   29.6140   45.6590 C   0  0  0  0  0  0  0  0  0  0  0  0
   59.6350   28.4170   46.0920 C   0  0  0  0  0  0  0  0  0  0  0  0
   59.1860   27.2650   45.4890 C   0  0  0  0  0  0  0  0  0  0  0  0
   58.2230   27.2880   44.4650 C   0  0  0  0  0  0  0  0  0  0  0  0
   57.8140   26.2040   43.9120 O   0  0  0  0  0  0  0  0  0  0  0  0
   57.3990   25.1000   43.3500 C   0  0  0  0  0  0  0  0  0  0  0  0
   56.5730   24.1390   44.1790 C   0  0  0  0  0  0  0  0  0  0  0  0
   57.2500   23.7000   45.3450 N   0  0  0  0  0  0  0  0  0  0  0  0
   56.9510   24.5400   46.5110 C   0  0  0  0  0  0  0  0  0  0  0  0
   56.8510   22.3290   45.7230 C   0  0  0  0  0  0  0  0  0  0  0  0
   57.5940   21.4540   44.7540 C   0  0  0  0  0  0  0  0  0  0  0  0
   58.8580   22.2460   44.5110 C   0  0  0  0  0  0  0  0  0  0  0  0
   58.6640   23.5420   45.2610 C   0  0  0  0  0  0  0  0  0  0  0  0
   57.7340   28.5440   44.0800 C   0  0  0  0  0  0  0  0  0  0  0  0
   58.1610   29.7130   44.6630 C   0  0  0  0  0  0  0  0  0  0  0  0
   55.6618   30.8047   43.6582 H   0  0  0  0  0  0  0  0  0  0  0  0
   56.7441   31.7637   42.5927 H   0  0  0  0  0  0  0  0  0  0  0  0
   56.8428   29.9702   42.5927 H   0  0  0  0  0  0  0  0  0  0  0  0
   56.8181   33.2896   43.6793 H   0  0  0  0  0  0  0  0  0  0  0  0
   57.5817   35.3803   44.7818 H   0  0  0  0  0  0  0  0  0  0  0  0
   59.2881   35.2914   46.5938 H   0  0  0  0  0  0  0  0  0  0  0  0
   60.1942   33.0888   47.2694 H   0  0  0  0  0  0  0  0  0  0  0  0
   60.2300   30.2910   48.2410 H   0  0  0  0  0  0  0  0  0  0  0  0
   62.5032   30.0410   46.9207 H   0  0  0  0  0  0  0  0  0  0  0  0
   61.9768   31.7075   46.3007 H   0  0  0  0  0  0  0  0  0  0  0  0
   61.8999   32.2433   48.8076 H   0  0  0  0  0  0  0  0  0  0  0  0
   63.1009   30.8682   48.8733 H   0  0  0  0  0  0  0  0  0  0  0  0
   64.5180   31.9910   47.4560 H   0  0  0  0  0  0  0  0  0  0  0  0
   62.9133   34.3674   47.2590 H   0  0  0  0  0  0  0  0  0  0  0  0
   64.1856   33.7009   46.1802 H   0  0  0  0  0  0  0  0  0  0  0  0
   62.5401   32.9804   46.1802 H   0  0  0  0  0  0  0  0  0  0  0  0
   63.8858   32.7995   49.8974 H   0  0  0  0  0  0  0  0  0  0  0  0
   65.3101   33.3141   48.9314 H   0  0  0  0  0  0  0  0  0  0  0  0
   63.8167   34.3123   48.9314 H   0  0  0  0  0  0  0  0  0  0  0  0
   60.3897   28.3841   46.8916 H   0  0  0  0  0  0  0  0  0  0  0  0
   59.5925   26.2972   45.8178 H   0  0  0  0  0  0  0  0  0  0  0  0
   56.7897   25.3864   42.4801 H   0  0  0  0  0  0  0  0  0  0  0  0
   58.3222   24.5440   43.1294 H   0  0  0  0  0  0  0  0  0  0  0  0
   55.6436   24.6439   44.4809 H   0  0  0  0  0  0  0  0  0  0  0  0
   56.3720   23.2533   43.5585 H   0  0  0  0  0  0  0  0  0  0  0  0
   57.1526   23.9737   47.4322 H   0  0  0  0  0  0  0  0  0  0  0  0
   57.5843   25.4391   46.4873 H   0  0  0  0  0  0  0  0  0  0  0  0
   55.8920   24.8367   46.4873 H   0  0  0  0  0  0  0  0  0  0  0  0
   57.1488   22.1066   46.7583 H   0  0  0  0  0  0  0  0  0  0  0  0
   55.7622   22.1781   45.6807 H   0  0  0  0  0  0  0  0  0  0  0  0
   57.8178   20.4714   45.1950 H   0  0  0  0  0  0  0  0  0  0  0  0
   57.0288   21.2329   43.8366 H   0  0  0  0  0  0  0  0  0  0  0  0
   59.7333   21.7037   44.8980 H   0  0  0  0  0  0  0  0  0  0  0  0
   59.0376   22.4145   43.4389 H   0  0  0  0  0  0  0  0  0  0  0  0
   59.1082   23.4798   46.2654 H   0  0  0  0  0  0  0  0  0  0  0  0
   59.1498   24.3916   44.7588 H   0  0  0  0  0  0  0  0  0  0  0  0
   56.9799   28.5959   43.2809 H   0  0  0  0  0  0  0  0  0  0  0  0
  1  2  1  0
  2  3  2  0
  3  4  1  0
  4  5  2  0
  5  6  1  0
  6  7  2  0
  7  8  1  0
  8  9  2  0
  9 10  1  0
 10 11  1  0
 11 12  1  0
 12 13  1  0
 13 14  1  0
 13 15  1  0
  9 16  1  0
 16 17  2  0
 17 18  1  0
 18 19  2  0
 19 20  1  0
 20 21  1  0
 21 22  1  0
 22 23  1  0
 23 24  1  0
 23 25  1  0
 25 26  1  0
 26 27  1  0
 27 28  1  0
 19 29  1  0
 29 30  2  0
 30  2  1  0
  8  3  1  0
 30 16  1  0
 28 23  1  0
  1 31  1  0
  1 32  1  0
  1 33  1  0
  4 34  1  0
  5 35  1  0
  6 36  1  0
  7 37  1  0
 10 38  1  0
 11 39  1  0
 11 40  1  0
 12 41  1  0
 12 42  1  0
 13 43  1  0
 14 44  1  0
 14 45  1  0
 14 46  1  0
 15 47  1  0
 15 48  1  0
 15 49  1  0
 17 50  1  0
 18 51  1  0
 21 52  1  0
 21 53  1  0
 22 54  1  0
 22 55  1  0
 24 56  1  0
 24 57  1  0
 24 58  1  0
 25 59  1  0
 25 60  1  0
 26 61  1  0
 26 62  1  0
 27 63  1  0
 27 64  1  0
 28 65  1  0
 28 66  1  0
 29 67  1  0
M  CHG  3   2   1  13   1  23   1
M  END
>  <UniqueID>  (5) 
5

>  <SMILES>  (5) 
C[n+]1c2ccccc2c(NCC[NH+](C)C)c2ccc(OCC[N+]3(C)CCCC3)cc21

>  <Energy>  (5) 
267.19703608412846

>  <Genealogy>  (5) 
C[n+]1c2ccccc2c(NCC[NH+](C)C)c2ccc(OCC[N+]3(C)CCCC3)cc21 (protonated)
C[n+]1c2ccccc2c(NCC[NH+](C)C)c2ccc(OCC[N+]3(C)CCCC3)cc21 (3D coordinates assigned)
C[n+]1c2ccccc2c(NCC[NH+](C)C)c2ccc(OCC[N+]3(C)CCCC3)cc21 (nonaromatic ring conformer: 267.19703608412846 kcal/mol)

>  <smiles>  (5) 
CN(C)CCNc1c2ccccc2[n+](C)c2cc(OCC[N+]3(C)CCCC3)ccc12

>  <score_type>  (5) 
oracle

>  <origin>  (5) 
adg

>  <m_score__min__energy>  (5) 
-3.6699999999999999

>  <m_primary>  (5) 
energy

$$$$
5:0
     RDKit          3D

 55 57  0  0  0  0  0  0  0  0999 V2000
   56.3240   31.4340   51.9860 C   0  0  0  0  0  0  0  0  0  0  0  0
   57.8110   31.4030   52.3680 C   0  0  0  0  0  0  0  0  0  0  0  0
   58.7480   31.1770   51.2350 N   0  0  0  0  0  0  0  0  0  0  0  0
   58.5510   32.0930   50.0900 C   0  0  0  0  0  0  0  0  0  0  0  0
   59.5080   33.2880   50.0920 C   0  0  0  0  0  0  0  0  0  0  0  0
   59.0110   29.7740   50.8410 C   0  0  0  0  0  0  0  0  0  0  0  0
   60.5040   29.5260   50.5420 C   0  0  0  0  0  0  0  0  0  0  0  0
   60.8030   29.6560   49.1050 N   0  0  0  0  0  0  0  0  0  0  0  0
   60.3900   28.6150   48.1900 C   0  0  0  0  0  0  0  0  0  0  0  0
   59.8290   27.5710   48.6200 O   0  0  0  0  0  0  0  0  0  0  0  0
   60.5320   28.7940   46.7110 C   0  0  0  0  0  0  0  0  0  0  0  0
   59.5990   29.8970   46.3020 C   0  0  0  0  0  0  0  0  0  0  0  0
   58.4520   29.5960   45.5520 C   0  0  0  0  0  0  0  0  0  0  0  0
   57.5280   30.6010   45.2150 C   0  0  0  0  0  0  0  0  0  0  0  0
   56.3750   30.3320   44.4610 O   0  0  0  0  0  0  0  0  0  0  0  0
   56.3490   30.2040   43.0430 C   0  0  0  0  0  0  0  0  0  0  0  0
   57.7510   31.9160   45.6430 C   0  0  0  0  0  0  0  0  0  0  0  0
   56.8090   32.8970   45.2930 O   0  0  0  0  0  0  0  0  0  0  0  0
   57.0890   34.2900   45.2000 C   0  0  0  0  0  0  0  0  0  0  0  0
   58.8960   32.2170   46.4020 C   0  0  0  0  0  0  0  0  0  0  0  0
   59.8270   31.2190   46.7380 C   0  0  0  0  0  0  0  0  0  0  0  0
   61.0510   31.5840   47.5070 C   0  0  0  0  0  0  0  0  0  0  0  0
   61.7790   32.7200   47.1010 C   0  0  0  0  0  0  0  0  0  0  0  0
   62.9230   33.1200   47.7900 C   0  0  0  0  0  0  0  0  0  0  0  0
   63.3610   32.3960   48.8930 C   0  0  0  0  0  0  0  0  0  0  0  0
   62.6620   31.2640   49.3100 C   0  0  0  0  0  0  0  0  0  0  0  0
   61.5080   30.8300   48.6280 C   0  0  0  0  0  0  0  0  0  0  0  0
   55.7110   31.4468   52.8993 H   0  0  0  0  0  0  0  0  0  0  0  0
   56.1166   32.3367   51.3925 H   0  0  0  0  0  0  0  0  0  0  0  0
   56.0792   30.5408   51.3925 H   0  0  0  0  0  0  0  0  0  0  0  0
   58.0639   32.3676   52.8324 H   0  0  0  0  0  0  0  0  0  0  0  0
   57.9359   30.5452   53.0452 H   0  0  0  0  0  0  0  0  0  0  0  0
   58.7042   31.5258   49.1600 H   0  0  0  0  0  0  0  0  0  0  0  0
   57.5305   32.4957   50.1698 H   0  0  0  0  0  0  0  0  0  0  0  0
   59.7364   33.5731   51.1296 H   0  0  0  0  0  0  0  0  0  0  0  0
   60.4387   33.0133   49.5739 H   0  0  0  0  0  0  0  0  0  0  0  0
   59.0366   34.1362   49.5739 H   0  0  0  0  0  0  0  0  0  0  0  0
   58.6984   29.1107   51.6609 H   0  0  0  0  0  0  0  0  0  0  0  0
   58.4424   29.5676   49.9222 H   0  0  0  0  0  0  0  0  0  0  0  0
   61.1053   30.2598   51.0987 H   0  0  0  0  0  0  0  0  0  0  0  0
   60.7486   28.4989   50.8507 H   0  0  0  0  0  0  0  0  0  0  0  0
   61.5684   29.0665   46.4628 H   0  0  0  0  0  0  0  0  0  0  0  0
   60.2878   27.8615   46.1811 H   0  0  0  0  0  0  0  0  0  0  0  0
   58.2734   28.5614   45.2237 H   0  0  0  0  0  0  0  0  0  0  0  0
   56.1367   29.1590   42.7730 H   0  0  0  0  0  0  0  0  0  0  0  0
   55.5649   30.8559   42.6303 H   0  0  0  0  0  0  0  0  0  0  0  0
   57.3253   30.4983   42.6303 H   0  0  0  0  0  0  0  0  0  0  0  0
   57.1745   34.7151   46.2109 H   0  0  0  0  0  0  0  0  0  0  0  0
   58.0350   34.4385   44.6586 H   0  0  0  0  0  0  0  0  0  0  0  0
   56.2739   34.7925   44.6586 H   0  0  0  0  0  0  0  0  0  0  0  0
   59.0658   33.2505   46.7383 H   0  0  0  0  0  0  0  0  0  0  0  0
   61.4403   33.2988   46.2291 H   0  0  0  0  0  0  0  0  0  0  0  0
   63.4798   34.0096   47.4605 H   0  0  0  0  0  0  0  0  0  0  0  0
   64.2610   32.7169   49.4380 H   0  0  0  0  0  0  0  0  0  0  0  0
   63.0172   30.7007   50.1855 H   0  0  0  0  0  0  0  0  0  0  0  0
  1  2  1  0
  2  3  1  0
  3  4  1  0
  4  5  1  0
  3  6  1  0
  6  7  1  0
  7  8  1  0
  8  9  1  0
  9 10  2  0
  9 11  1  0
 11 12  1  0
 12 13  2  0
 13 14  1  0
 14 15  1  0
 15 16  1  0
 14 17  2  0
 17 18  1  0
 18 19  1  0
 17 20  1  0
 20 21  2  0
 21 22  1  0
 22 23  2  0
 23 24  1  0
 24 25  2  0
 25 26  1  0
 26 27  2  0
 27  8  1  0
 21 12  1  0
 27 22  1  0
  1 28  1  0
  1 29  1  0
  1 30  1  0
  2 31  1  0
  2 32  1  0
  4 33  1  0
  4 34  1  0
  5 35  1  0
  5 36  1  0
  5 37  1  0
  6 38  1  0
  6 39  1  0
  7 40  1  0
  7 41  1  0
 11 42  1  0
 11 43  1  0
 13 44  1  0
 16 45  1  0
 16 46  1  0
 16 47  1  0
 19 48  1  0
 19 49  1  0
 19 50  1  0
 20 51  1  0
 23 52  1  0
 24 53  1  0
 25 54  1  0
 26 55  1  0
M  END
>  <UniqueID>  (6) 
6

>  <SMILES>  (6) 
CCN(CC)CCN1C(=O)Cc2cc(OC)c(OC)cc2-c2ccccc21

>  <Energy>  (6) 
77.00119098133355

>  <Genealogy>  (6) 
CCN(CC)CCN1C(=O)Cc2cc(OC)c(OC)cc2-c2ccccc21 (3D coordinates assigned)
CCN(CC)CCN1C(=O)Cc2cc(OC)c(OC)cc2-c2ccccc21 (nonaromatic ring conformer: 77.00119098133355 kcal/mol)

>  <smiles>  (6) 
CCN(CC)CCN1C(=O)Cc2cc(OC)c(OC)cc2-c2ccccc21

>  <score_type>  (6) 
oracle

>  <origin>  (6) 
adg

>  <m_score__min__energy>  (6) 
-6.3700000000000001

>  <m_primary>  (6) 
energy

$$$$
6:0
     RDKit          3D

 34 36  0  0  0  0  0  0  0  0999 V2000
   56.7230   27.5290   45.6290 C   0  0  0  0  0  0  0  0  0  0  0  0
   55.8580   28.5840   45.2250 O   0  0  0  0  0  0  0  0  0  0  0  0
   56.2710   29.6170   44.3760 C   0  0  0  0  0  0  0  0  0  0  0  0
   55.8490   29.6620   43.1870 O   0  0  0  0  0  0  0  0  0  0  0  0
   57.2000   30.6540   44.8740 C   0  0  0  0  0  0  0  0  0  0  0  0
   57.0040   32.0170   44.5240 C   0  0  0  0  0  0  0  0  0  0  0  0
   57.8790   33.0140   44.9890 C   0  0  0  0  0  0  0  0  0  0  0  0
   58.9410   32.6180   45.8030 C   0  0  0  0  0  0  0  0  0  0  0  0
   59.1360   31.3140   46.1450 C   0  0  0  0  0  0  0  0  0  0  0  0
   58.2910   30.3000   45.7030 C   0  0  0  0  0  0  0  0  0  0  0  0
   60.2160   31.1900   46.9370 N   0  0  0  0  0  0  0  0  0  0  0  0
   60.6590   32.4700   47.0640 C   0  0  0  0  0  0  0  0  0  0  0  0
   61.8400   32.8070   47.8850 C   0  0  0  0  0  0  0  0  0  0  0  0
   61.6730   33.4400   49.1240 C   0  0  0  0  0  0  0  0  0  0  0  0
   62.7870   33.7830   49.8920 C   0  0  0  0  0  0  0  0  0  0  0  0
   64.0650   33.5010   49.4060 C   0  0  0  0  0  0  0  0  0  0  0  0
   64.2180   32.9070   48.1920 N   0  0  0  0  0  0  0  0  0  0  0  0
   63.1450   32.5650   47.4260 C   0  0  0  0  0  0  0  0  0  0  0  0
   59.9080   33.3670   46.3620 N   0  0  0  0  0  0  0  0  0  0  0  0
   60.1040   34.8100   46.2150 C   0  0  0  0  0  0  0  0  0  0  0  0
   56.7592   27.4848   46.7275 H   0  0  0  0  0  0  0  0  0  0  0  0
   56.3447   26.5738   45.2359 H   0  0  0  0  0  0  0  0  0  0  0  0
   57.7338   27.7127   45.2359 H   0  0  0  0  0  0  0  0  0  0  0  0
   56.1564   32.2957   43.8807 H   0  0  0  0  0  0  0  0  0  0  0  0
   57.7316   34.0705   44.7204 H   0  0  0  0  0  0  0  0  0  0  0  0
   58.4664   29.2527   45.9901 H   0  0  0  0  0  0  0  0  0  0  0  0
   60.6617   33.6671   49.4922 H   0  0  0  0  0  0  0  0  0  0  0  0
   62.6592   34.2704   50.8698 H   0  0  0  0  0  0  0  0  0  0  0  0
   64.9499   33.7597   50.0060 H   0  0  0  0  0  0  0  0  0  0  0  0
   65.1820   32.7180   47.8340 H   0  0  0  0  0  0  0  0  0  0  0  0
   63.3014   32.0969   46.4429 H   0  0  0  0  0  0  0  0  0  0  0  0
   60.1671   35.2747   47.2100 H   0  0  0  0  0  0  0  0  0  0  0  0
   61.0361   34.9990   45.6623 H   0  0  0  0  0  0  0  0  0  0  0  0
   59.2561   35.2408   45.6623 H   0  0  0  0  0  0  0  0  0  0  0  0
  1  2  1  0
  2  3  1  0
  3  4  2  0
  3  5  1  0
  5  6  2  0
  6  7  1  0
  7  8  2  0
  8  9  1  0
  9 10  2  0
  9 11  1  0
 11 12  2  0
 12 13  1  0
 13 14  2  0
 14 15  1  0
 15 16  2  0
 16 17  1  0
 17 18  2  0
 12 19  1  0
 19 20  1  0
 10  5  1  0
 18 13  1  0
 19  8  1  0
  1 21  1  0
  1 22  1  0
  1 23  1  0
  6 24  1  0
  7 25  1  0
 10 26  1  0
 14 27  1  0
 15 28  1  0
 16 29  1  0
 17 30  1  0
 18 31  1  0
 20 32  1  0
 20 33  1  0
 20 34  1  0
M  CHG  1  17   1
M  END
>  <UniqueID>  (7) 
7

>  <SMILES>  (7) 
COC(=O)c1ccc2c(c1)nc(-c1ccc[nH+]c1)n2C

>  <Energy>  (7) 
76.82995716566523

>  <Genealogy>  (7) 
COC(=O)c1ccc2c(c1)nc(-c1ccc[nH+]c1)n2C (protonated)
COC(=O)c1ccc2c(c1)nc(-c1ccc[nH+]c1)n2C (3D coordinates assigned)
COC(=O)c1ccc2c(c1)nc(-c1ccc[nH+]c1)n2C (optimized conformer: 76.82995716566523 kcal/mol)

>  <smiles>  (7) 
COC(=O)c1ccc2c(c1)nc(-c1cccnc1)n2C

>  <score_type>  (7) 
oracle

>  <origin>  (7) 
adg

>  <m_score__min__energy>  (7) 
-5.7199999999999998

>  <m_primary>  (7) 
energy

$$$$
7:0
     RDKit          3D

 67 71  0  0  0  0  0  0  0  0999 V2000
   60.8790   33.4410   51.8850 C   0  0  0  0  0  0  0  0  0  0  0  0
   60.2250   33.5940   50.5040 C   0  0  0  0  0  0  0  0  0  0  0  0
   59.1820   32.5890   50.2040 N   0  0  0  0  0  0  0  0  0  0  0  0
   58.5290   32.6900   48.8840 C   0  0  0  0  0  0  0  0  0  0  0  0
   59.2150   33.7550   48.0370 C   0  0  0  0  0  0  0  0  0  0  0  0
   58.3430   32.1170   51.3280 C   0  0  0  0  0  0  0  0  0  0  0  0
   57.4440   30.9110   51.0100 C   0  0  0  0  0  0  0  0  0  0  0  0
   58.1770   29.7050   51.0660 O   0  0  0  0  0  0  0  0  0  0  0  0
   59.2700   29.8580   51.9460 C   0  0  0  0  0  0  0  0  0  0  0  0
   59.9820   28.5180   52.1140 C   0  0  0  0  0  0  0  0  0  0  0  0
   61.1130   28.4050   51.1950 N   0  0  0  0  0  0  0  0  0  0  0  0
   61.3610   29.4490   50.2450 C   0  0  0  0  0  0  0  0  0  0  0  0
   60.6070   29.5250   49.0800 C   0  0  0  0  0  0  0  0  0  0  0  0
   60.8220   30.5240   48.1580 C   0  0  0  0  0  0  0  0  0  0  0  0
   61.8580   31.4170   48.2790 N   0  0  0  0  0  0  0  0  0  0  0  0
   62.2630   32.2430   47.1290 C   0  0  0  0  0  0  0  0  0  0  0  0
   62.5530   31.4570   49.4790 C   0  0  0  0  0  0  0  0  0  0  0  0
   63.4780   32.4880   49.7690 C   0  0  0  0  0  0  0  0  0  0  0  0
   64.1910   32.4960   50.9680 C   0  0  0  0  0  0  0  0  0  0  0  0
   63.9960   31.4910   51.9100 C   0  0  0  0  0  0  0  0  0  0  0  0
   63.0690   30.4780   51.6720 C   0  0  0  0  0  0  0  0  0  0  0  0
   62.3300   30.4490   50.4730 C   0  0  0  0  0  0  0  0  0  0  0  0
   59.8400   30.3140   47.0850 C   0  0  0  0  0  0  0  0  0  0  0  0
   59.4800   31.1520   46.0230 C   0  0  0  0  0  0  0  0  0  0  0  0
   58.4560   30.7350   45.1570 C   0  0  0  0  0  0  0  0  0  0  0  0
   58.0890   31.5270   44.0570 C   0  0  0  0  0  0  0  0  0  0  0  0
   57.0720   31.1090   43.1960 C   0  0  0  0  0  0  0  0  0  0  0  0
   56.4090   29.9000   43.4260 C   0  0  0  0  0  0  0  0  0  0  0  0
   56.7560   29.1040   44.5200 C   0  0  0  0  0  0  0  0  0  0  0  0
   57.7780   29.5090   45.3970 C   0  0  0  0  0  0  0  0  0  0  0  0
   58.1340   28.7430   46.5260 C   0  0  0  0  0  0  0  0  0  0  0  0
   57.5290   27.6690   46.7990 O   0  0  0  0  0  0  0  0  0  0  0  0
   59.1380   29.1840   47.3330 N   0  0  0  0  0  0  0  0  0  0  0  0
   59.5600   28.5720   48.5920 C   0  0  0  0  0  0  0  0  0  0  0  0
   60.1270   33.6169   52.6683 H   0  0  0  0  0  0  0  0  0  0  0  0
   61.2846   32.4237   51.9879 H   0  0  0  0  0  0  0  0  0  0  0  0
   61.6938   34.1728   51.9879 H   0  0  0  0  0  0  0  0  0  0  0  0
   59.7658   34.5921   50.4501 H   0  0  0  0  0  0  0  0  0  0  0  0
   61.0235   33.4469   49.7619 H   0  0  0  0  0  0  0  0  0  0  0  0
   58.5953   31.7193   48.3707 H   0  0  0  0  0  0  0  0  0  0  0  0
   57.4744   32.9689   49.0259 H   0  0  0  0  0  0  0  0  0  0  0  0
   59.6922   34.4959   48.6953 H   0  0  0  0  0  0  0  0  0  0  0  0
   59.9791   33.2826   47.4021 H   0  0  0  0  0  0  0  0  0  0  0  0
   58.4689   34.2553   47.4021 H   0  0  0  0  0  0  0  0  0  0  0  0
   59.0100   31.8357   52.1562 H   0  0  0  0  0  0  0  0  0  0  0  0
   57.6651   32.9477   51.5738 H   0  0  0  0  0  0  0  0  0  0  0  0
   56.6255   30.8690   51.7437 H   0  0  0  0  0  0  0  0  0  0  0  0
   57.0434   31.0309   49.9926 H   0  0  0  0  0  0  0  0  0  0  0  0
   59.9724   30.5968   51.5327 H   0  0  0  0  0  0  0  0  0  0  0  0
   58.9061   30.2042   52.9246 H   0  0  0  0  0  0  0  0  0  0  0  0
   60.3488   28.4330   53.1475 H   0  0  0  0  0  0  0  0  0  0  0  0
   59.2677   27.7120   51.8902 H   0  0  0  0  0  0  0  0  0  0  0  0
   61.9300   27.8230   51.4880 H   0  0  0  0  0  0  0  0  0  0  0  0
   62.7204   33.1758   47.4905 H   0  0  0  0  0  0  0  0  0  0  0  0
   62.9920   31.6897   46.5188 H   0  0  0  0  0  0  0  0  0  0  0  0
   61.3791   32.4805   46.5188 H   0  0  0  0  0  0  0  0  0  0  0  0
   63.6371   33.2948   49.0384 H   0  0  0  0  0  0  0  0  0  0  0  0
   64.9119   33.3020   51.1699 H   0  0  0  0  0  0  0  0  0  0  0  0
   64.5751   31.4960   52.8452 H   0  0  0  0  0  0  0  0  0  0  0  0
   62.9129   29.6938   52.4274 H   0  0  0  0  0  0  0  0  0  0  0  0
   59.9879   32.1157   45.8702 H   0  0  0  0  0  0  0  0  0  0  0  0
   58.6049   32.4809   43.8727 H   0  0  0  0  0  0  0  0  0  0  0  0
   56.7919   31.7329   42.3344 H   0  0  0  0  0  0  0  0  0  0  0  0
   55.6109   29.5743   42.7427 H   0  0  0  0  0  0  0  0  0  0  0  0
   56.2273   28.1557   44.6965 H   0  0  0  0  0  0  0  0  0  0  0  0
   58.7222   28.5042   49.3016 H   0  0  0  0  0  0  0  0  0  0  0  0
   59.9246   27.5405   48.4779 H   0  0  0  0  0  0  0  0  0  0  0  0
  1  2  1  0
  2  3  1  0
  3  4  1  0
  4  5  1  0
  3  6  1  0
  6  7  1  0
  7  8  1  0
  8  9  1  0
  9 10  1  0
 10 11  1  0
 11 12  1  0
 12 13  2  0
 13 14  1  0
 14 15  2  0
 15 16  1  0
 15 17  1  0
 17 18  2  0
 18 19  1  0
 19 20  2  0
 20 21  1  0
 21 22  2  0
 14 23  1  0
 23 24  2  0
 24 25  1  0
 25 26  2  0
 26 27  1  0
 27 28  2  0
 28 29  1  0
 29 30  2  0
 30 31  1  0
 31 32  2  0
 31 33  1  0
 33 34  1  0
 22 12  1  0
 33 23  1  0
 34 13  1  0
 22 17  1  0
 30 25  1  0
  1 35  1  0
  1 36  1  0
  1 37  1  0
  2 38  1  0
  2 39  1  0
  4 40  1  0
  4 41  1  0
  5 42  1  0
  5 43  1  0
  5 44  1  0
  6 45  1  0
  6 46  1  0
  7 47  1  0
  7 48  1  0
  9 49  1  0
  9 50  1  0
 10 51  1  0
 10 52  1  0
 11 53  1  0
 16 54  1  0
 16 55  1  0
 16 56  1  0
 18 57  1  0
 19 58  1  0
 20 59  1  0
 21 60  1  0
 24 61  1  0
 26 62  1  0
 27 63  1  0
 28 64  1  0
 29 65  1  0
 34 66  1  0
 34 67  1  0
M  CHG  1  15   1
M  END
>  <UniqueID>  (8) 
8

>  <SMILES>  (8) 
CCN(CC)CCOCCNc1c2c([n+](C)c3ccccc13)-c1cc3ccccc3c(=O)n1C2

>  <Energy>  (8) 
125.76058044030077

>  <Genealogy>  (8) 
CCN(CC)CCOCCNc1c2c([n+](C)c3ccccc13)-c1cc3ccccc3c(=O)n1C2 (3D coordinates assigned)
CCN(CC)CCOCCNc1c2c([n+](C)c3ccccc13)-c1cc3ccccc3c(=O)n1C2 (nonaromatic ring conformer: 125.76058044030077 kcal/mol)

>  <smiles>  (8) 
CCN(CC)CCOCCNc1c2c([n+](C)c3ccccc13)-c1cc3ccccc3c(=O)n1C2

>  <score_type>  (8) 
oracle

>  <origin>  (8) 
adg

>  <m_score__min__energy>  (8) 
-6.8099999999999996

>  <m_primary>  (8) 
energy

$$$$
8:0
     RDKit          3D

 58 61  0  0  0  0  0  0  0  0999 V2000
   64.9200   35.5140   52.8630 C   0  0  0  0  0  0  0  0  0  0  0  0
   65.3910   34.7720   51.7420 O   0  0  0  0  0  0  0  0  0  0  0  0
   64.5820   33.9680   50.9220 C   0  0  0  0  0  0  0  0  0  0  0  0
   63.3540   34.4270   50.4030 C   0  0  0  0  0  0  0  0  0  0  0  0
   62.5760   33.5940   49.5890 C   0  0  0  0  0  0  0  0  0  0  0  0
   61.3540   34.0300   49.0630 C   0  0  0  0  0  0  0  0  0  0  0  0
   60.5960   33.1750   48.2470 C   0  0  0  0  0  0  0  0  0  0  0  0
   59.3750   33.5650   47.6870 C   0  0  0  0  0  0  0  0  0  0  0  0
   58.8920   34.7070   47.9100 O   0  0  0  0  0  0  0  0  0  0  0  0
   58.7040   32.7070   46.8840 N   0  0  0  0  0  0  0  0  0  0  0  0
   59.1720   31.4600   46.6100 C   0  0  0  0  0  0  0  0  0  0  0  0
   58.3810   30.6240   45.6820 C   0  0  0  0  0  0  0  0  0  0  0  0
   58.0610   29.3100   46.0490 C   0  0  0  0  0  0  0  0  0  0  0  0
   57.3240   28.4920   45.1860 C   0  0  0  0  0  0  0  0  0  0  0  0
   56.9710   26.8220   45.6240 S   0  0  0  0  0  0  0  0  0  0  0  0
   55.5330   26.7180   46.0520 O   0  0  0  0  0  0  0  0  0  0  0  0
   57.8390   26.3980   46.7770 O   0  0  0  0  0  0  0  0  0  0  0  0
   57.2410   25.7690   44.2690 N   0  0  0  0  0  0  0  0  0  0  0  0
   57.4720   24.4000   44.7410 C   0  0  0  0  0  0  0  0  0  0  0  0
   56.6140   23.4150   43.9500 C   0  0  0  0  0  0  0  0  0  0  0  0
   56.6120   23.7730   42.6150 F   0  0  0  0  0  0  0  0  0  0  0  0
   57.1280   22.1370   44.0740 F   0  0  0  0  0  0  0  0  0  0  0  0
   55.3130   23.4310   44.4220 F   0  0  0  0  0  0  0  0  0  0  0  0
   56.9020   28.9930   43.9490 C   0  0  0  0  0  0  0  0  0  0  0  0
   57.1980   30.3090   43.5840 C   0  0  0  0  0  0  0  0  0  0  0  0
   57.9350   31.1400   44.4500 C   0  0  0  0  0  0  0  0  0  0  0  0
   58.2310   32.4750   44.1250 O   0  0  0  0  0  0  0  0  0  0  0  0
   57.4290   33.5920   44.4940 C   0  0  0  0  0  0  0  0  0  0  0  0
   60.3420   31.0170   47.1870 N   0  0  0  0  0  0  0  0  0  0  0  0
   60.8340   29.6470   46.9510 C   0  0  0  0  0  0  0  0  0  0  0  0
   61.0740   31.8750   47.9720 C   0  0  0  0  0  0  0  0  0  0  0  0
   62.2680   31.4820   48.5010 N   0  0  0  0  0  0  0  0  0  0  0  0
   63.0220   32.2940   49.2890 C   0  0  0  0  0  0  0  0  0  0  0  0
   64.2380   31.8360   49.8020 C   0  0  0  0  0  0  0  0  0  0  0  0
   65.0240   32.6690   50.6210 C   0  0  0  0  0  0  0  0  0  0  0  0
   66.2520   32.2440   51.1550 O   0  0  0  0  0  0  0  0  0  0  0  0
   66.8850   31.0080   50.8390 C   0  0  0  0  0  0  0  0  0  0  0  0
   65.2362   35.0159   53.7914 H   0  0  0  0  0  0  0  0  0  0  0  0
   65.3383   36.5309   52.8316 H   0  0  0  0  0  0  0  0  0  0  0  0
   63.8218   35.5682   52.8316 H   0  0  0  0  0  0  0  0  0  0  0  0
   63.0056   35.4435   50.6383 H   0  0  0  0  0  0  0  0  0  0  0  0
   60.9877   35.0423   49.2890 H   0  0  0  0  0  0  0  0  0  0  0  0
   58.3916   28.9190   47.0225 H   0  0  0  0  0  0  0  0  0  0  0  0
   58.1140   26.1050   43.7990 H   0  0  0  0  0  0  0  0  0  0  0  0
   58.5337   24.1446   44.6081 H   0  0  0  0  0  0  0  0  0  0  0  0
   57.1998   24.3375   45.8050 H   0  0  0  0  0  0  0  0  0  0  0  0
   56.3351   28.3482   43.2614 H   0  0  0  0  0  0  0  0  0  0  0  0
   56.8534   30.6982   42.6146 H   0  0  0  0  0  0  0  0  0  0  0  0
   57.3792   33.6613   45.5907 H   0  0  0  0  0  0  0  0  0  0  0  0
   57.8736   34.5127   44.0882 H   0  0  0  0  0  0  0  0  0  0  0  0
   56.4145   33.4650   44.0882 H   0  0  0  0  0  0  0  0  0  0  0  0
   61.0124   29.1502   47.9160 H   0  0  0  0  0  0  0  0  0  0  0  0
   60.0830   29.0809   46.3805 H   0  0  0  0  0  0  0  0  0  0  0  0
   61.7736   29.6880   46.3805 H   0  0  0  0  0  0  0  0  0  0  0  0
   64.5833   30.8189   49.5648 H   0  0  0  0  0  0  0  0  0  0  0  0
   67.1529   30.4850   51.7689 H   0  0  0  0  0  0  0  0  0  0  0  0
   66.1961   30.3828   50.2520 H   0  0  0  0  0  0  0  0  0  0  0  0
   67.7949   31.2016   50.2520 H   0  0  0  0  0  0  0  0  0  0  0  0
  1  2  1  0
  2  3  1  0
  3  4  2  0
  4  5  1  0
  5  6  2  0
  6  7  1  0
  7  8  1  0
  8  9  2  0
  8 10  1  0
 10 11  2  0
 11 12  1  0
 12 13  2  0
 13 14  1  0
 14 15  1  0
 15 16  2  0
 15 17  2  0
 15 18  1  0
 18 19  1  0
 19 20  1  0
 20 21  1  0
 20 22  1  0
 20 23  1  0
 14 24  2  0
 24 25  1  0
 25 26  2  0
 26 27  1  0
 27 28  1  0
 11 29  1  0
 29 30  1  0
 29 31  1  0
 31 32  1  0
 32 33  2  0
 33 34  1  0
 34 35  2  0
 35 36  1  0
 36 37  1  0
 35  3  1  0
 33  5  1  0
 31  7  2  0
 26 12  1  0
  1 38  1  0
  1 39  1  0
  1 40  1  0
  4 41  1  0
  6 42  1  0
 13 43  1  0
 18 44  1  0
 19 45  1  0
 19 46  1  0
 24 47  1  0
 25 48  1  0
 28 49  1  0
 28 50  1  0
 28 51  1  0
 30 52  1  0
 30 53  1  0
 30 54  1  0
 34 55  1  0
 37 56  1  0
 37 57  1  0
 37 58  1  0
M  END
>  <UniqueID>  (9) 
9

>  <SMILES>  (9) 
COc1cc2cc3c(=O)nc(-c4cc(S(=O)(=O)NCC(F)(F)F)ccc4OC)n(C)c3nc2cc1OC

>  <Energy>  (9) 
73.62716643624732

>  <Genealogy>  (9) 
COc1cc2cc3c(=O)nc(-c4cc(S(=O)(=O)NCC(F)(F)F)ccc4OC)n(C)c3nc2cc1OC (3D coordinates assigned)
COc1cc2cc3c(=O)nc(-c4cc(S(=O)(=O)NCC(F)(F)F)ccc4OC)n(C)c3nc2cc1OC (optimized conformer: 73.62716643624732 kcal/mol)

>  <smiles>  (9) 
COc1cc2cc3c(=O)nc(-c4cc(S(=O)(=O)NCC(F)(F)F)ccc4OC)n(C)c3nc2cc1OC

>  <score_type>  (9) 
oracle

>  <origin>  (9) 
adg

>  <m_score__min__energy>  (9) 
-8.3499999999999996

>  <m_primary>  (9) 
energy

$$$$
9:0
     RDKit          3D

 63 65  0  0  0  0  0  0  0  0999 V2000
   55.3090   30.5550   52.4000 C   0  0  0  0  0  0  0  0  0  0  0  0
   56.4590   30.2490   51.6210 O   0  0  0  0  0  0  0  0  0  0  0  0
   57.6390   31.0080   51.6120 C   0  0  0  0  0  0  0  0  0  0  0  0
   57.5660   32.3450   52.0070 C   0  0  0  0  0  0  0  0  0  0  0  0
   58.7100   33.1440   52.0160 C   0  0  0  0  0  0  0  0  0  0  0  0
   59.9530   32.6180   51.6260 C   0  0  0  0  0  0  0  0  0  0  0  0
   61.1700   33.5230   51.6380 C   0  0  0  0  0  0  0  0  0  0  0  0
   62.1280   33.1940   50.5460 N   0  0  2  0  0  0  0  0  0  0  0  0
   63.4810   33.0350   51.1240 C   0  0  0  0  0  0  0  0  0  0  0  0
   62.1400   34.2580   49.4920 C   0  0  0  0  0  0  0  0  0  0  0  0
   61.4290   33.8970   48.1430 C   0  0  2  0  0  0  0  0  0  0  0  0
   60.2370   32.9590   48.2860 C   0  0  0  0  0  0  0  0  0  0  0  0
   60.7450   31.5980   48.0740 N   0  0  0  0  0  0  0  0  0  0  0  0
   59.6840   30.6920   47.5990 C   0  0  0  0  0  0  0  0  0  0  0  0
   58.3880   31.4660   47.3210 C   0  0  0  0  0  0  0  0  0  0  0  0
   58.1970   31.6780   45.8440 C   0  0  0  0  0  0  0  0  0  0  0  0
   58.4170   32.9450   45.2760 C   0  0  0  0  0  0  0  0  0  0  0  0
   58.2200   33.1470   43.9060 C   0  0  0  0  0  0  0  0  0  0  0  0
   57.8050   32.0850   43.0920 C   0  0  0  0  0  0  0  0  0  0  0  0
   57.5670   32.3350   41.3720 Cl  0  0  0  0  0  0  0  0  0  0  0  0
   57.5770   30.8230   43.6530 C   0  0  0  0  0  0  0  0  0  0  0  0
   57.7680   30.6190   45.0240 C   0  0  0  0  0  0  0  0  0  0  0  0
   61.8760   31.7170   47.1370 C   0  0  0  0  0  0  0  0  0  0  0  0
   62.2620   33.1980   47.0550 C   0  0  2  0  0  0  0  0  0  0  0  0
   63.7760   33.4350   47.0770 C   0  0  0  0  0  0  0  0  0  0  0  0
   60.0450   31.2660   51.2310 C   0  0  0  0  0  0  0  0  0  0  0  0
   61.2980   30.7450   50.8660 O   0  0  0  0  0  0  0  0  0  0  0  0
   61.5470   29.3790   50.5520 C   0  0  0  0  0  0  0  0  0  0  0  0
   58.8810   30.4700   51.2260 C   0  0  0  0  0  0  0  0  0  0  0  0
   55.5615   30.4878   53.4685 H   0  0  0  0  0  0  0  0  0  0  0  0
   54.9690   31.5749   52.1670 H   0  0  0  0  0  0  0  0  0  0  0  0
   54.5071   29.8390   52.1670 H   0  0  0  0  0  0  0  0  0  0  0  0
   56.5996   32.7718   52.3134 H   0  0  0  0  0  0  0  0  0  0  0  0
   58.6379   34.1954   52.3313 H   0  0  0  0  0  0  0  0  0  0  0  0
   60.8379   34.5645   51.5157 H   0  0  0  0  0  0  0  0  0  0  0  0
   61.6889   33.3776   52.5970 H   0  0  0  0  0  0  0  0  0  0  0  0
   61.8700   32.2760   50.1200 H   0  0  0  0  0  0  0  0  0  0  0  0
   63.4139   33.0429   52.2219 H   0  0  0  0  0  0  0  0  0  0  0  0
   63.9126   32.0800   50.7899 H   0  0  0  0  0  0  0  0  0  0  0  0
   64.1222   33.8640   50.7899 H   0  0  0  0  0  0  0  0  0  0  0  0
   61.6435   35.1478   49.9064 H   0  0  0  0  0  0  0  0  0  0  0  0
   63.1991   34.4110   49.2372 H   0  0  0  0  0  0  0  0  0  0  0  0
   61.1691   34.9223   47.8409 H   0  0  0  0  0  0  0  0  0  0  0  0
   59.8020   33.0491   49.2923 H   0  0  0  0  0  0  0  0  0  0  0  0
   59.4493   33.2056   47.5589 H   0  0  0  0  0  0  0  0  0  0  0  0
   60.0169   30.2019   46.6722 H   0  0  0  0  0  0  0  0  0  0  0  0
   59.4857   29.9426   48.3795 H   0  0  0  0  0  0  0  0  0  0  0  0
   57.5352   30.8946   47.7163 H   0  0  0  0  0  0  0  0  0  0  0  0
   58.4524   32.4482   47.8121 H   0  0  0  0  0  0  0  0  0  0  0  0
   58.7453   33.7807   45.9114 H   0  0  0  0  0  0  0  0  0  0  0  0
   58.3912   34.1410   43.4672 H   0  0  0  0  0  0  0  0  0  0  0  0
   57.2470   29.9900   43.0148 H   0  0  0  0  0  0  0  0  0  0  0  0
   57.5820   29.6272   45.4619 H   0  0  0  0  0  0  0  0  0  0  0  0
   62.7293   31.1275   47.5036 H   0  0  0  0  0  0  0  0  0  0  0  0
   61.5939   31.3377   46.1438 H   0  0  0  0  0  0  0  0  0  0  0  0
   62.0176   33.6469   46.0810 H   0  0  0  0  0  0  0  0  0  0  0  0
   64.1235   33.4894   48.1192 H   0  0  0  0  0  0  0  0  0  0  0  0
   64.2845   32.6055   46.5638 H   0  0  0  0  0  0  0  0  0  0  0  0
   64.0067   34.3802   46.5638 H   0  0  0  0  0  0  0  0  0  0  0  0
   61.6522   28.8021   51.4827 H   0  0  0  0  0  0  0  0  0  0  0  0
   60.7070   28.9786   49.9653 H   0  0  0  0  0  0  0  0  0  0  0  0
   62.4742   29.3007   49.9653 H   0  0  0  0  0  0  0  0  0  0  0  0
   58.9444   29.4163   50.9168 H   0  0  0  0  0  0  0  0  0  0  0  0
  1  2  1  0
  2  3  1  0
  3  4  2  0
  4  5  1  0
  5  6  2  0
  6  7  1  0
  7  8  1  0
  8  9  1  0
  8 10  1  0
 10 11  1  0
 11 12  1  0
 12 13  1  0
 13 14  1  0
 14 15  1  0
 15 16  1  0
 16 17  2  0
 17 18  1  0
 18 19  2  0
 19 20  1  0
 19 21  1  0
 21 22  2  0
 13 23  1  0
 23 24  1  0
 24 25  1  0
  6 26  1  0
 26 27  1  0
 27 28  1  0
 26 29  2  0
 29  3  1  0
 24 11  1  0
 22 16  1  0
  1 30  1  0
  1 31  1  0
  1 32  1  0
  4 33  1  0
  5 34  1  0
  7 35  1  0
  7 36  1  0
  8 37  1  6
  9 38  1  0
  9 39  1  0
  9 40  1  0
 10 41  1  0
 10 42  1  0
 11 43  1  6
 12 44  1  0
 12 45  1  0
 14 46  1  0
 14 47  1  0
 15 48  1  0
 15 49  1  0
 17 50  1  0
 18 51  1  0
 21 52  1  0
 22 53  1  0
 23 54  1  0
 23 55  1  0
 24 56  1  6
 25 57  1  0
 25 58  1  0
 25 59  1  0
 28 60  1  0
 28 61  1  0
 28 62  1  0
 29 63  1  0
M  CHG  1   8   1
M  END
>  <UniqueID>  (10) 
10

>  <SMILES>  (10) 
COc1ccc(C[N@H+](C)C[C@@H]2CN(CCc3ccc(Cl)cc3)CC2C)c(OC)c1

>  <Energy>  (10) 
73.49161608058834

>  <Genealogy>  (10) 
COc1ccc(C[NH+](C)CC2CN(CCc3ccc(Cl)cc3)CC2C)c(OC)c1 (protonated)
COc1ccc(C[N@H+](C)C[C@@H]2CN(CCc3ccc(Cl)cc3)CC2C)c(OC)c1 (chirality)
COc1ccc(C[N@H+](C)C[C@@H]2CN(CCc3ccc(Cl)cc3)CC2C)c(OC)c1 (3D coordinates assigned)
COc1ccc(C[N@H+](C)C[C@@H]2CN(CCc3ccc(Cl)cc3)CC2C)c(OC)c1 (nonaromatic ring conformer: 73.49161608058834 kcal/mol)

>  <smiles>  (10) 
COc1ccc(CN(C)CC2CN(CCc3ccc(Cl)cc3)CC2C)c(OC)c1

>  <score_type>  (10) 
oracle

>  <origin>  (10) 
adg

>  <m_score__min__energy>  (10) 
-6.2999999999999998

>  <m_primary>  (10) 
energy

$$$$
10:0
     RDKit          3D

 54 57  0  0  0  0  0  0  0  0999 V2000
   56.7010   31.5950   51.6630 C   0  0  0  0  0  0  0  0  0  0  0  0
   57.0380   30.2910   51.2450 O   0  0  0  0  0  0  0  0  0  0  0  0
   57.4430   29.5310   52.3650 C   0  0  0  0  0  0  0  0  0  0  0  0
   58.9690   29.5340   52.4450 C   0  0  0  0  0  0  0  0  0  0  0  0
   59.5460   30.2030   51.2560 N   0  0  0  0  0  0  0  0  0  0  0  0
   60.2310   31.4500   51.6460 C   0  0  0  0  0  0  0  0  0  0  0  0
   60.4840   29.3170   50.5340 C   0  0  0  0  0  0  0  0  0  0  0  0
   60.1210   29.2240   49.0440 C   0  0  0  0  0  0  0  0  0  0  0  0
   59.0120   30.1180   48.6920 N   0  0  0  0  0  0  0  0  0  0  0  0
   58.9310   30.7780   47.4200 C   0  0  0  0  0  0  0  0  0  0  0  0
   59.0600   32.1820   47.2960 C   0  0  0  0  0  0  0  0  0  0  0  0
   59.4850   32.9650   48.3860 C   0  0  0  0  0  0  0  0  0  0  0  0
   59.6300   34.3450   48.2590 C   0  0  0  0  0  0  0  0  0  0  0  0
   59.3780   34.9650   47.0410 C   0  0  0  0  0  0  0  0  0  0  0  0
   58.9820   34.2130   45.9350 C   0  0  0  0  0  0  0  0  0  0  0  0
   58.8050   32.8120   46.0300 C   0  0  0  0  0  0  0  0  0  0  0  0
   58.4210   32.0530   44.9350 N   0  0  0  0  0  0  0  0  0  0  0  0
   58.0370   32.6830   43.6570 C   0  0  0  0  0  0  0  0  0  0  0  0
   58.4330   30.6870   45.0540 C   0  0  0  0  0  0  0  0  0  0  0  0
   58.2070   29.7880   44.0630 N   0  0  0  0  0  0  0  0  0  0  0  0
   58.3110   28.5810   44.6530 C   0  0  0  0  0  0  0  0  0  0  0  0
   58.1640   27.3390   44.0390 C   0  0  0  0  0  0  0  0  0  0  0  0
   58.3260   26.1870   44.8280 C   0  0  0  0  0  0  0  0  0  0  0  0
   58.6440   26.3000   46.1980 C   0  0  0  0  0  0  0  0  0  0  0  0
   58.7970   27.5640   46.7940 C   0  0  0  0  0  0  0  0  0  0  0  0
   58.6090   28.6940   45.9940 C   0  0  0  0  0  0  0  0  0  0  0  0
   58.6860   30.0540   46.2550 C   0  0  0  0  0  0  0  0  0  0  0  0
   56.6903   31.6364   52.7622 H   0  0  0  0  0  0  0  0  0  0  0  0
   57.4445   32.3076   51.2764 H   0  0  0  0  0  0  0  0  0  0  0  0
   55.7053   31.8581   51.2764 H   0  0  0  0  0  0  0  0  0  0  0  0
   57.0251   29.9736   53.2812 H   0  0  0  0  0  0  0  0  0  0  0  0
   57.0789   28.4980   52.2635 H   0  0  0  0  0  0  0  0  0  0  0  0
   59.2836   30.0714   53.3518 H   0  0  0  0  0  0  0  0  0  0  0  0
   59.3271   28.4945   52.4790 H   0  0  0  0  0  0  0  0  0  0  0  0
   60.2693   31.5196   52.7431 H   0  0  0  0  0  0  0  0  0  0  0  0
   61.2545   31.4477   51.2428 H   0  0  0  0  0  0  0  0  0  0  0  0
   59.6801   32.3125   51.2428 H   0  0  0  0  0  0  0  0  0  0  0  0
   61.5037   29.7180   50.6310 H   0  0  0  0  0  0  0  0  0  0  0  0
   60.4212   28.3101   50.9724 H   0  0  0  0  0  0  0  0  0  0  0  0
   61.0023   29.4988   48.4459 H   0  0  0  0  0  0  0  0  0  0  0  0
   59.8047   28.1914   48.8350 H   0  0  0  0  0  0  0  0  0  0  0  0
   58.2650   30.3000   49.4000 H   0  0  0  0  0  0  0  0  0  0  0  0
   59.7052   32.4817   49.3493 H   0  0  0  0  0  0  0  0  0  0  0  0
   59.9448   34.9454   49.1253 H   0  0  0  0  0  0  0  0  0  0  0  0
   59.4915   36.0552   46.9486 H   0  0  0  0  0  0  0  0  0  0  0  0
   58.8044   34.7169   44.9735 H   0  0  0  0  0  0  0  0  0  0  0  0
   57.4741   33.6065   43.8580 H   0  0  0  0  0  0  0  0  0  0  0  0
   58.9422   32.9235   43.0802 H   0  0  0  0  0  0  0  0  0  0  0  0
   57.4084   31.9886   43.0802 H   0  0  0  0  0  0  0  0  0  0  0  0
   58.0230   29.9550   43.0500 H   0  0  0  0  0  0  0  0  0  0  0  0
   57.9279   27.2621   42.9674 H   0  0  0  0  0  0  0  0  0  0  0  0
   58.2042   25.1921   44.3749 H   0  0  0  0  0  0  0  0  0  0  0  0
   58.7733   25.3916   46.8047 H   0  0  0  0  0  0  0  0  0  0  0  0
   59.0570   27.6605   47.8585 H   0  0  0  0  0  0  0  0  0  0  0  0
  1  2  1  0
  2  3  1  0
  3  4  1  0
  4  5  1  0
  5  6  1  0
  5  7  1  0
  7  8  1  0
  8  9  1  0
  9 10  1  0
 10 11  2  0
 11 12  1  0
 12 13  2  0
 13 14  1  0
 14 15  2  0
 15 16  1  0
 16 17  2  0
 17 18  1  0
 17 19  1  0
 19 20  1  0
 20 21  1  0
 21 22  2  0
 22 23  1  0
 23 24  2  0
 24 25  1  0
 25 26  2  0
 26 27  1  0
 27 10  1  0
 16 11  1  0
 27 19  2  0
 26 21  1  0
  1 28  1  0
  1 29  1  0
  1 30  1  0
  3 31  1  0
  3 32  1  0
  4 33  1  0
  4 34  1  0
  6 35  1  0
  6 36  1  0
  6 37  1  0
  7 38  1  0
  7 39  1  0
  8 40  1  0
  8 41  1  0
  9 42  1  0
 12 43  1  0
 13 44  1  0
 14 45  1  0
 15 46  1  0
 18 47  1  0
 18 48  1  0
 18 49  1  0
 20 50  1  0
 22 51  1  0
 23 52  1  0
 24 53  1  0
 25 54  1  0
M  CHG  1  17   1
M  END
>  <UniqueID>  (11) 
11

>  <SMILES>  (11) 
COCCN(C)CCNc1c2ccccc2[n+](C)c2[nH]c3ccccc3c12

>  <Energy>  (11) 
111.63727447565765

>  <Genealogy>  (11) 
COCCN(C)CCNc1c2ccccc2[n+](C)c2[nH]c3ccccc3c12 (3D coordinates assigned)
COCCN(C)CCNc1c2ccccc2[n+](C)c2[nH]c3ccccc3c12 (optimized conformer: 111.63727447565765 kcal/mol)

>  <smiles>  (11) 
COCCN(C)CCNc1c2ccccc2[n+](C)c2[nH]c3ccccc3c12

>  <score_type>  (11) 
oracle

>  <origin>  (11) 
adg

>  <m_score__min__energy>  (11) 
-6.0199999999999996

>  <m_primary>  (11) 
energy

$$$$
11:0
     RDKit          3D

 42 44  0  0  0  0  0  0  0  0999 V2000
   56.6370   30.4660   42.7290 C   0  0  0  0  0  0  0  0  0  0  0  0
   55.6400   30.0910   43.8280 C   0  0  0  0  0  0  0  0  0  0  0  0
   56.3030   29.6390   45.0600 N   0  0  0  0  0  0  0  0  0  0  0  0
   57.4080   28.7080   44.7940 C   0  0  0  0  0  0  0  0  0  0  0  0
   58.4090   28.7350   45.9500 C   0  0  0  0  0  0  0  0  0  0  0  0
   58.1220   29.8490   46.8540 N   0  0  0  0  0  0  0  0  0  0  0  0
   59.0730   30.9090   47.0480 C   0  0  0  0  0  0  0  0  0  0  0  0
   60.1200   30.7870   47.9780 C   0  0  0  0  0  0  0  0  0  0  0  0
   60.1970   29.6710   48.8380 C   0  0  0  0  0  0  0  0  0  0  0  0
   61.2100   29.5760   49.7900 C   0  0  0  0  0  0  0  0  0  0  0  0
   62.1440   30.5970   49.9170 C   0  0  0  0  0  0  0  0  0  0  0  0
   62.0820   31.7150   49.0840 C   0  0  0  0  0  0  0  0  0  0  0  0
   61.0860   31.8260   48.0800 C   0  0  0  0  0  0  0  0  0  0  0  0
   61.0260   32.9180   47.2310 N   0  0  0  0  0  0  0  0  0  0  0  0
   62.1640   33.8580   47.1450 C   0  0  0  0  0  0  0  0  0  0  0  0
   59.9040   33.1170   46.4480 C   0  0  0  0  0  0  0  0  0  0  0  0
   59.6700   34.3220   45.7420 C   0  0  0  0  0  0  0  0  0  0  0  0
   58.5540   34.4590   44.9180 C   0  0  0  0  0  0  0  0  0  0  0  0
   57.6560   33.4040   44.8020 C   0  0  0  0  0  0  0  0  0  0  0  0
   57.8560   32.2650   45.5100 N   0  0  0  0  0  0  0  0  0  0  0  0
   58.9290   32.0970   46.3320 C   0  0  0  0  0  0  0  0  0  0  0  0
   57.5729   30.8180   43.1875 H   0  0  0  0  0  0  0  0  0  0  0  0
   56.8435   29.5841   42.1048 H   0  0  0  0  0  0  0  0  0  0  0  0
   56.2112   31.2654   42.1048 H   0  0  0  0  0  0  0  0  0  0  0  0
   55.0246   30.9723   44.0616 H   0  0  0  0  0  0  0  0  0  0  0  0
   55.0276   29.2576   43.4532 H   0  0  0  0  0  0  0  0  0  0  0  0
   56.6710   30.4680   45.5850 H   0  0  0  0  0  0  0  0  0  0  0  0
   57.0070   27.6896   44.6839 H   0  0  0  0  0  0  0  0  0  0  0  0
   57.9191   29.0116   43.8685 H   0  0  0  0  0  0  0  0  0  0  0  0
   58.3418   27.7897   46.5085 H   0  0  0  0  0  0  0  0  0  0  0  0
   59.4214   28.8633   45.5394 H   0  0  0  0  0  0  0  0  0  0  0  0
   57.1150   30.0500   47.0540 H   0  0  0  0  0  0  0  0  0  0  0  0
   59.4498   28.8679   48.7561 H   0  0  0  0  0  0  0  0  0  0  0  0
   61.2704   28.6919   50.4417 H   0  0  0  0  0  0  0  0  0  0  0  0
   62.9356   30.5237   50.6773 H   0  0  0  0  0  0  0  0  0  0  0  0
   62.8176   32.5234   49.2080 H   0  0  0  0  0  0  0  0  0  0  0  0
   62.4927   34.1295   48.1590 H   0  0  0  0  0  0  0  0  0  0  0  0
   62.9949   33.3794   46.6060 H   0  0  0  0  0  0  0  0  0  0  0  0
   61.8510   34.7644   46.6060 H   0  0  0  0  0  0  0  0  0  0  0  0
   60.3764   35.1589   45.8449 H   0  0  0  0  0  0  0  0  0  0  0  0
   58.3852   35.3942   44.3641 H   0  0  0  0  0  0  0  0  0  0  0  0
   56.7845   33.4932   44.1368 H   0  0  0  0  0  0  0  0  0  0  0  0
  1  2  1  0
  2  3  1  0
  3  4  1  0
  4  5  1  0
  5  6  1  0
  6  7  1  0
  7  8  2  0
  8  9  1  0
  9 10  2  0
 10 11  1  0
 11 12  2  0
 12 13  1  0
 13 14  2  0
 14 15  1  0
 14 16  1  0
 16 17  2  0
 17 18  1  0
 18 19  2  0
 19 20  1  0
 20 21  2  0
 21  7  1  0
 13  8  1  0
 21 16  1  0
  1 22  1  0
  1 23  1  0
  1 24  1  0
  2 25  1  0
  2 26  1  0
  3 27  1  0
  4 28  1  0
  4 29  1  0
  5 30  1  0
  5 31  1  0
  6 32  1  0
  9 33  1  0
 10 34  1  0
 11 35  1  0
 12 36  1  0
 15 37  1  0
 15 38  1  0
 15 39  1  0
 17 40  1  0
 18 41  1  0
 19 42  1  0
M  CHG  1  14   1
M  END
>  <UniqueID>  (12) 
12

>  <SMILES>  (12) 
CCNCCNc1c2ccccc2[n+](C)c2cccnc12

>  <Energy>  (12) 
62.608627831649244

>  <Genealogy>  (12) 
CCNCCNc1c2ccccc2[n+](C)c2cccnc12 (3D coordinates assigned)
CCNCCNc1c2ccccc2[n+](C)c2cccnc12 (optimized conformer: 62.608627831649244 kcal/mol)

>  <smiles>  (12) 
CCNCCNc1c2ccccc2[n+](C)c2cccnc12

>  <score_type>  (12) 
oracle

>  <origin>  (12) 
adg

>  <m_score__min__energy>  (12) 
-5.6399999999999997

>  <m_primary>  (12) 
energy

$$$$
12:0
     RDKit          3D

 61 64  0  0  0  0  0  0  0  0999 V2000
   58.1290   27.0920   43.1410 C   0  0  0  0  0  0  0  0  0  0  0  0
   59.2340   27.7960   43.6970 O   0  0  0  0  0  0  0  0  0  0  0  0
   59.3410   28.1810   45.0440 C   0  0  0  0  0  0  0  0  0  0  0  0
   59.8840   27.3170   46.0140 C   0  0  0  0  0  0  0  0  0  0  0  0
   59.9810   27.7210   47.3470 C   0  0  0  0  0  0  0  0  0  0  0  0
   59.5140   28.9790   47.7420 C   0  0  0  0  0  0  0  0  0  0  0  0
   59.6610   29.4210   49.1780 C   0  0  0  0  0  0  0  0  0  0  0  0
   60.3900   30.6970   49.2820 N   0  0  0  0  0  0  0  0  0  0  0  0
   61.8490   30.4980   49.2910 C   0  0  0  0  0  0  0  0  0  0  0  0
   62.5420   31.6550   48.6210 C   0  0  0  0  0  0  0  0  0  0  0  0
   63.5760   32.3350   49.2760 C   0  0  0  0  0  0  0  0  0  0  0  0
   64.1830   33.4290   48.6550 C   0  0  0  0  0  0  0  0  0  0  0  0
   63.7600   33.8360   47.4310 N   0  0  0  0  0  0  0  0  0  0  0  0
   62.7520   33.2020   46.7770 C   0  0  0  0  0  0  0  0  0  0  0  0
   62.1210   32.1010   47.3610 C   0  0  0  0  0  0  0  0  0  0  0  0
   58.9620   29.8410   46.7840 C   0  0  0  0  0  0  0  0  0  0  0  0
   58.9020   29.4670   45.4310 C   0  0  0  0  0  0  0  0  0  0  0  0
   58.3200   30.4300   44.4190 C   0  0  0  0  0  0  0  0  0  0  0  0
   57.0310   31.0000   44.8720 N   0  0  0  0  0  0  0  0  0  0  0  0
   55.9120   30.4090   44.1210 C   0  0  0  0  0  0  0  0  0  0  0  0
   56.9830   32.4860   44.8760 C   0  0  0  0  0  0  0  0  0  0  0  0
   57.9430   33.1400   45.8480 C   0  0  0  0  0  0  0  0  0  0  0  0
   58.7540   34.2160   45.4440 C   0  0  0  0  0  0  0  0  0  0  0  0
   59.6470   34.8050   46.3430 C   0  0  0  0  0  0  0  0  0  0  0  0
   59.7300   34.3320   47.6550 C   0  0  0  0  0  0  0  0  0  0  0  0
   58.8900   33.2950   48.0790 C   0  0  0  0  0  0  0  0  0  0  0  0
   58.0050   32.6970   47.1810 C   0  0  0  0  0  0  0  0  0  0  0  0
   58.9510   32.8720   49.4100 O   0  0  0  0  0  0  0  0  0  0  0  0
   59.6310   33.6470   50.3990 C   0  0  0  0  0  0  0  0  0  0  0  0
   60.9120   34.2500   49.8140 C   0  0  0  0  0  0  0  0  0  0  0  0
   60.6370   34.8850   48.5620 O   0  0  0  0  0  0  0  0  0  0  0  0
   57.5027   26.6930   43.9525 H   0  0  0  0  0  0  0  0  0  0  0  0
   57.5326   27.7770   42.5204 H   0  0  0  0  0  0  0  0  0  0  0  0
   58.4978   26.2620   42.5204 H   0  0  0  0  0  0  0  0  0  0  0  0
   60.2343   26.3167   45.7196 H   0  0  0  0  0  0  0  0  0  0  0  0
   60.4276   27.0455   48.0915 H   0  0  0  0  0  0  0  0  0  0  0  0
   58.6602   29.5451   49.6173 H   0  0  0  0  0  0  0  0  0  0  0  0
   60.2348   28.6526   49.7169 H   0  0  0  0  0  0  0  0  0  0  0  0
   60.1350   31.2890   48.4560 H   0  0  0  0  0  0  0  0  0  0  0  0
   60.0930   31.2070   50.1490 H   0  0  0  0  0  0  0  0  0  0  0  0
   62.1976   30.4203   50.3314 H   0  0  0  0  0  0  0  0  0  0  0  0
   62.0860   29.5746   48.7423 H   0  0  0  0  0  0  0  0  0  0  0  0
   63.9081   32.0098   50.2730 H   0  0  0  0  0  0  0  0  0  0  0  0
   65.0040   33.9609   49.1579 H   0  0  0  0  0  0  0  0  0  0  0  0
   62.4322   33.5562   45.7859 H   0  0  0  0  0  0  0  0  0  0  0  0
   61.3010   31.5887   46.8365 H   0  0  0  0  0  0  0  0  0  0  0  0
   58.5715   30.8212   47.0951 H   0  0  0  0  0  0  0  0  0  0  0  0
   59.0343   31.2510   44.2586 H   0  0  0  0  0  0  0  0  0  0  0  0
   58.1366   29.8739   43.4878 H   0  0  0  0  0  0  0  0  0  0  0  0
   55.1652   30.0146   44.8257 H   0  0  0  0  0  0  0  0  0  0  0  0
   55.4477   31.1795   43.4879 H   0  0  0  0  0  0  0  0  0  0  0  0
   56.2866   29.5911   43.4879 H   0  0  0  0  0  0  0  0  0  0  0  0
   57.2240   32.8408   43.8631 H   0  0  0  0  0  0  0  0  0  0  0  0
   55.9695   32.7667   45.1986 H   0  0  0  0  0  0  0  0  0  0  0  0
   58.6848   34.5961   44.4141 H   0  0  0  0  0  0  0  0  0  0  0  0
   60.2843   35.6406   46.0179 H   0  0  0  0  0  0  0  0  0  0  0  0
   57.3539   31.8765   47.5170 H   0  0  0  0  0  0  0  0  0  0  0  0
   58.9714   34.4582   50.7410 H   0  0  0  0  0  0  0  0  0  0  0  0
   59.8961   32.9950   51.2444 H   0  0  0  0  0  0  0  0  0  0  0  0
   61.3164   34.9936   50.5165 H   0  0  0  0  0  0  0  0  0  0  0  0
   61.6443   33.4452   49.6529 H   0  0  0  0  0  0  0  0  0  0  0  0
  1  2  1  0
  2  3  1  0
  3  4  2  0
  4  5  1  0
  5  6  2  0
  6  7  1  0
  7  8  1  0
  8  9  1  0
  9 10  1  0
 10 11  2  0
 11 12  1  0
 12 13  2  0
 13 14  1  0
 14 15  2  0
  6 16  1  0
 16 17  2  0
 17 18  1  0
 18 19  1  0
 19 20  1  0
 19 21  1  0
 21 22  1  0
 22 23  2  0
 23 24  1  0
 24 25  2  0
 25 26  1  0
 26 27  2  0
 26 28  1  0
 28 29  1  0
 29 30  1  0
 30 31  1  0
 17  3  1  0
 27 22  1  0
 15 10  1  0
 31 25  1  0
  1 32  1  0
  1 33  1  0
  1 34  1  0
  4 35  1  0
  5 36  1  0
  7 37  1  0
  7 38  1  0
  8 39  1  0
  8 40  1  0
  9 41  1  0
  9 42  1  0
 11 43  1  0
 12 44  1  0
 14 45  1  0
 15 46  1  0
 16 47  1  0
 18 48  1  0
 18 49  1  0
 20 50  1  0
 20 51  1  0
 20 52  1  0
 21 53  1  0
 21 54  1  0
 23 55  1  0
 24 56  1  0
 27 57  1  0
 29 58  1  0
 29 59  1  0
 30 60  1  0
 30 61  1  0
M  CHG  1   8   1
M  END
>  <UniqueID>  (13) 
13

>  <SMILES>  (13) 
COc1ccc(C[NH2+]Cc2ccncc2)cc1CN(C)Cc1ccc2c(c1)OCCO2

>  <Energy>  (13) 
66.52239911644287

>  <Genealogy>  (13) 
COc1ccc(C[NH2+]Cc2ccncc2)cc1CN(C)Cc1ccc2c(c1)OCCO2 (protonated)
COc1ccc(C[NH2+]Cc2ccncc2)cc1CN(C)Cc1ccc2c(c1)OCCO2 (3D coordinates assigned)
COc1ccc(C[NH2+]Cc2ccncc2)cc1CN(C)Cc1ccc2c(c1)OCCO2 (nonaromatic ring conformer: 66.52239911644287 kcal/mol)

>  <smiles>  (13) 
COc1ccc(CNCc2ccncc2)cc1CN(C)Cc1ccc2c(c1)OCCO2

>  <score_type>  (13) 
oracle

>  <origin>  (13) 
adg

>  <m_score__min__energy>  (13) 
-6.3399999999999999

>  <m_primary>  (13) 
energy

$$$$
13:0
     RDKit          3D

 40 43  0  0  0  0  0  0  0  0999 V2000
   58.0350   22.0840   45.5470 C   0  0  0  0  0  0  0  0  0  0  0  0
   57.9180   23.0410   46.5950 O   0  0  0  0  0  0  0  0  0  0  0  0
   58.0360   24.4270   46.4180 C   0  0  0  0  0  0  0  0  0  0  0  0
   56.9120   25.2260   46.6570 C   0  0  0  0  0  0  0  0  0  0  0  0
   56.9770   26.6130   46.4950 C   0  0  0  0  0  0  0  0  0  0  0  0
   58.1750   27.2260   46.0920 C   0  0  0  0  0  0  0  0  0  0  0  0
   58.2540   28.6960   45.9100 C   0  0  0  0  0  0  0  0  0  0  0  0
   59.3280   29.4070   46.3850 N   0  0  0  0  0  0  0  0  0  0  0  0
   59.4130   30.7750   46.2350 C   0  0  0  0  0  0  0  0  0  0  0  0
   60.5790   31.5310   46.7540 C   0  0  0  0  0  0  0  0  0  0  0  0
   60.5420   32.9360   46.7970 C   0  0  0  0  0  0  0  0  0  0  0  0
   61.6320   33.6610   47.2910 C   0  0  0  0  0  0  0  0  0  0  0  0
   62.7790   32.9940   47.7440 C   0  0  0  0  0  0  0  0  0  0  0  0
   63.9310   33.7700   48.3100 C   0  0  0  0  0  0  0  0  0  0  0  0
   62.8090   31.5920   47.7320 C   0  0  0  0  0  0  0  0  0  0  0  0
   61.7210   30.8660   47.2390 C   0  0  0  0  0  0  0  0  0  0  0  0
   58.4150   31.4520   45.5860 N   0  0  0  0  0  0  0  0  0  0  0  0
   57.3580   30.7540   45.1170 C   0  0  0  0  0  0  0  0  0  0  0  0
   56.2850   31.2560   44.4910 N   0  0  0  0  0  0  0  0  0  0  0  0
   55.5360   30.1410   44.2760 C   0  0  0  0  0  0  0  0  0  0  0  0
   56.0920   28.9900   44.7410 N   0  0  0  0  0  0  0  0  0  0  0  0
   57.2510   29.4170   45.2620 C   0  0  0  0  0  0  0  0  0  0  0  0
   59.3020   26.4250   45.8450 C   0  0  0  0  0  0  0  0  0  0  0  0
   59.2360   25.0380   46.0080 C   0  0  0  0  0  0  0  0  0  0  0  0
   58.1577   21.0800   45.9793 H   0  0  0  0  0  0  0  0  0  0  0  0
   57.1273   22.1074   44.9261 H   0  0  0  0  0  0  0  0  0  0  0  0
   58.9103   22.3254   44.9261 H   0  0  0  0  0  0  0  0  0  0  0  0
   55.9687   24.7582   46.9753 H   0  0  0  0  0  0  0  0  0  0  0  0
   56.0848   27.2280   46.6842 H   0  0  0  0  0  0  0  0  0  0  0  0
   60.1160   28.8850   46.8300 H   0  0  0  0  0  0  0  0  0  0  0  0
   59.6489   33.4694   46.4394 H   0  0  0  0  0  0  0  0  0  0  0  0
   61.5888   34.7597   47.3241 H   0  0  0  0  0  0  0  0  0  0  0  0
   63.8880   33.7411   49.4088 H   0  0  0  0  0  0  0  0  0  0  0  0
   64.8767   33.3241   47.9682 H   0  0  0  0  0  0  0  0  0  0  0  0
   63.8731   34.8139   47.9682 H   0  0  0  0  0  0  0  0  0  0  0  0
   63.6937   31.0606   48.1127 H   0  0  0  0  0  0  0  0  0  0  0  0
   61.7575   29.7666   47.2299 H   0  0  0  0  0  0  0  0  0  0  0  0
   54.5608   30.1680   43.7678 H   0  0  0  0  0  0  0  0  0  0  0  0
   60.2435   26.8924   45.5209 H   0  0  0  0  0  0  0  0  0  0  0  0
   60.1261   24.4212   45.8149 H   0  0  0  0  0  0  0  0  0  0  0  0
  1  2  1  0
  2  3  1  0
  3  4  2  0
  4  5  1  0
  5  6  2  0
  6  7  1  0
  7  8  2  0
  8  9  1  0
  9 10  1  0
 10 11  2  0
 11 12  1  0
 12 13  2  0
 13 14  1  0
 13 15  1  0
 15 16  2  0
  9 17  2  0
 17 18  1  0
 18 19  1  0
 19 20  1  0
 20 21  2  0
 21 22  1  0
  6 23  1  0
 23 24  2  0
 24  3  1  0
 22  7  1  0
 16 10  1  0
 22 18  2  0
  1 25  1  0
  1 26  1  0
  1 27  1  0
  4 28  1  0
  5 29  1  0
  8 30  1  0
 11 31  1  0
 12 32  1  0
 14 33  1  0
 14 34  1  0
 14 35  1  0
 15 36  1  0
 16 37  1  0
 20 38  1  0
 23 39  1  0
 24 40  1  0
M  CHG  2   8   1  19  -1
M  END
>  <UniqueID>  (14) 
14

>  <SMILES>  (14) 
COc1ccc(-c2[nH+]c(-c3ccc(C)cc3)nc3[n-]cnc23)cc1

>  <Energy>  (14) 
89.39678354251068

>  <Genealogy>  (14) 
COc1ccc(-c2[nH+]c(-c3ccc(C)cc3)nc3[n-]cnc23)cc1 (protonated)
COc1ccc(-c2[nH+]c(-c3ccc(C)cc3)nc3[n-]cnc23)cc1 (3D coordinates assigned)
COc1ccc(-c2[nH+]c(-c3ccc(C)cc3)nc3[n-]cnc23)cc1 (optimized conformer: 89.39678354251068 kcal/mol)

>  <smiles>  (14) 
COc1ccc(-c2nc(-c3ccc(C)cc3)nc3[nH]cnc23)cc1

>  <score_type>  (14) 
oracle

>  <origin>  (14) 
adg

>  <m_score__min__energy>  (14) 
-8.0700000000000003

>  <m_primary>  (14) 
energy

$$$$
14:0
     RDKit          3D

 46 49  0  0  0  0  0  0  0  0999 V2000
   59.6320   34.9360   46.5130 C   0  0  0  0  0  0  0  0  0  0  0  0
   58.8880   33.7180   46.0650 C   0  0  0  0  0  0  0  0  0  0  0  0
   57.4590   33.7760   45.1650 S   0  0  0  0  0  0  0  0  0  0  0  0
   57.2780   32.1140   45.0980 C   0  0  0  0  0  0  0  0  0  0  0  0
   56.2700   31.4460   44.4920 N   0  0  0  0  0  0  0  0  0  0  0  0
   56.2650   30.0870   44.5290 C   0  0  0  0  0  0  0  0  0  0  0  0
   57.2690   29.4140   45.1600 N   0  0  0  0  0  0  0  0  0  0  0  0
   58.2980   30.0630   45.7770 C   0  0  0  0  0  0  0  0  0  0  0  0
   59.3410   29.2880   46.3790 N   0  0  0  0  0  0  0  0  0  0  0  0
   60.2530   28.5220   45.5270 C   0  0  0  0  0  0  0  0  0  0  0  0
   59.9880   27.0150   45.6970 C   0  0  0  0  0  0  0  0  0  0  0  0
   59.6880   26.6040   47.1000 N   0  0  0  0  0  0  0  0  0  0  0  0
   58.3100   26.0900   47.2520 C   0  0  0  0  0  0  0  0  0  0  0  0
   57.9860   25.1220   46.1440 C   0  0  0  0  0  0  0  0  0  0  0  0
   56.9220   25.3740   45.2610 C   0  0  0  0  0  0  0  0  0  0  0  0
   56.6370   24.4760   44.2280 C   0  0  0  0  0  0  0  0  0  0  0  0
   57.4100   23.3220   44.0690 C   0  0  0  0  0  0  0  0  0  0  0  0
   58.4700   23.0660   44.9430 C   0  0  0  0  0  0  0  0  0  0  0  0
   58.7590   23.9620   45.9770 C   0  0  0  0  0  0  0  0  0  0  0  0
   59.9980   27.6470   48.1030 C   0  0  0  0  0  0  0  0  0  0  0  0
   59.2510   28.9560   47.8040 C   0  0  0  0  0  0  0  0  0  0  0  0
   58.3110   31.4720   45.7630 C   0  0  0  0  0  0  0  0  0  0  0  0
   59.2270   32.3830   46.3450 C   0  0  0  0  0  0  0  0  0  0  0  0
   60.4400   32.0010   47.1450 C   0  0  0  0  0  0  0  0  0  0  0  0
   59.6525   34.9695   47.6123 H   0  0  0  0  0  0  0  0  0  0  0  0
   60.6618   34.8989   46.1281 H   0  0  0  0  0  0  0  0  0  0  0  0
   59.1289   35.8353   46.1281 H   0  0  0  0  0  0  0  0  0  0  0  0
   55.4483   29.5285   44.0483 H   0  0  0  0  0  0  0  0  0  0  0  0
   60.0934   28.8040   44.4758 H   0  0  0  0  0  0  0  0  0  0  0  0
   61.2908   28.7421   45.8178 H   0  0  0  0  0  0  0  0  0  0  0  0
   59.1295   26.7418   45.0658 H   0  0  0  0  0  0  0  0  0  0  0  0
   60.9124   26.4952   45.4048 H   0  0  0  0  0  0  0  0  0  0  0  0
   58.2195   25.5761   48.2204 H   0  0  0  0  0  0  0  0  0  0  0  0
   57.6067   26.9345   47.2054 H   0  0  0  0  0  0  0  0  0  0  0  0
   56.3114   26.2808   45.3831 H   0  0  0  0  0  0  0  0  0  0  0  0
   55.8033   24.6778   43.5393 H   0  0  0  0  0  0  0  0  0  0  0  0
   57.1840   22.6159   43.2564 H   0  0  0  0  0  0  0  0  0  0  0  0
   59.0781   22.1580   44.8173 H   0  0  0  0  0  0  0  0  0  0  0  0
   59.5950   23.7572   46.6620 H   0  0  0  0  0  0  0  0  0  0  0  0
   59.7007   27.2852   49.0984 H   0  0  0  0  0  0  0  0  0  0  0  0
   61.0784   27.8503   48.0666 H   0  0  0  0  0  0  0  0  0  0  0  0
   58.1930   28.8400   48.0820 H   0  0  0  0  0  0  0  0  0  0  0  0
   59.7110   29.7677   48.3868 H   0  0  0  0  0  0  0  0  0  0  0  0
   60.2093   32.0736   48.2181 H   0  0  0  0  0  0  0  0  0  0  0  0
   60.7296   30.9682   46.9013 H   0  0  0  0  0  0  0  0  0  0  0  0
   61.2692   32.6815   46.9013 H   0  0  0  0  0  0  0  0  0  0  0  0
  1  2  1  0
  2  3  1  0
  3  4  1  0
  4  5  2  0
  5  6  1  0
  6  7  2  0
  7  8  1  0
  8  9  1  0
  9 10  1  0
 10 11  1  0
 11 12  1  0
 12 13  1  0
 13 14  1  0
 14 15  2  0
 15 16  1  0
 16 17  2  0
 17 18  1  0
 18 19  2  0
 12 20  1  0
 20 21  1  0
  8 22  2  0
 22 23  1  0
 23 24  1  0
 23  2  2  0
 22  4  1  0
 21  9  1  0
 19 14  1  0
  1 25  1  0
  1 26  1  0
  1 27  1  0
  6 28  1  0
 10 29  1  0
 10 30  1  0
 11 31  1  0
 11 32  1  0
 13 33  1  0
 13 34  1  0
 15 35  1  0
 16 36  1  0
 17 37  1  0
 18 38  1  0
 19 39  1  0
 20 40  1  0
 20 41  1  0
 21 42  1  0
 21 43  1  0
 24 44  1  0
 24 45  1  0
 24 46  1  0
M  END
>  <UniqueID>  (15) 
15

>  <SMILES>  (15) 
Cc1sc2ncnc(N3CCN(Cc4ccccc4)CC3)c2c1C

>  <Energy>  (15) 
96.95090471618569

>  <Genealogy>  (15) 
Cc1sc2ncnc(N3CCN(Cc4ccccc4)CC3)c2c1C (3D coordinates assigned)
Cc1sc2ncnc(N3CCN(Cc4ccccc4)CC3)c2c1C (nonaromatic ring conformer: 96.95090471618569 kcal/mol)

>  <smiles>  (15) 
Cc1sc2ncnc(N3CCN(Cc4ccccc4)CC3)c2c1C

>  <score_type>  (15) 
oracle

>  <origin>  (15) 
adg

>  <m_score__min__energy>  (15) 
-7.6799999999999997

>  <m_primary>  (15) 
energy

$$$$
15:0
     RDKit          3D

 50 53  0  0  0  0  0  0  0  0999 V2000
   66.7390   32.2970   50.5850 C   0  0  0  0  0  0  0  0  0  0  0  0
   65.3680   32.4500   51.2390 C   0  0  0  0  0  0  0  0  0  0  0  0
   64.3480   32.8320   50.2410 N   0  0  0  0  0  0  0  0  0  0  0  0
   64.7880   33.0890   48.9700 C   0  0  0  0  0  0  0  0  0  0  0  0
   63.9050   33.4570   47.9650 C   0  0  0  0  0  0  0  0  0  0  0  0
   62.5610   33.6210   48.2590 C   0  0  0  0  0  0  0  0  0  0  0  0
   62.0930   33.4410   49.5710 C   0  0  0  0  0  0  0  0  0  0  0  0
   63.0060   32.9750   50.5550 C   0  0  0  0  0  0  0  0  0  0  0  0
   62.4670   32.7100   51.9490 C   0  0  0  0  0  0  0  0  0  0  0  0
   61.0280   32.2100   51.8790 C   0  0  0  0  0  0  0  0  0  0  0  0
   60.1450   33.2550   51.2050 C   0  0  0  0  0  0  0  0  0  0  0  0
   60.7030   33.7030   49.9160 N   0  0  0  0  0  0  0  0  0  0  0  0
   59.8570   34.5960   49.1010 C   0  0  0  0  0  0  0  0  0  0  0  0
   59.3020   33.8690   47.9010 C   0  0  0  0  0  0  0  0  0  0  0  0
   58.9750   32.5080   47.9930 C   0  0  0  0  0  0  0  0  0  0  0  0
   58.4550   31.8270   46.8880 C   0  0  0  0  0  0  0  0  0  0  0  0
   58.2510   32.4970   45.6700 C   0  0  0  0  0  0  0  0  0  0  0  0
   57.6960   31.7740   44.4980 C   0  0  0  0  0  0  0  0  0  0  0  0
   57.0060   30.5590   44.6690 C   0  0  0  0  0  0  0  0  0  0  0  0
   56.4830   29.8820   43.5620 C   0  0  0  0  0  0  0  0  0  0  0  0
   56.6380   30.4110   42.2770 C   0  0  0  0  0  0  0  0  0  0  0  0
   57.3220   31.6150   42.0950 C   0  0  0  0  0  0  0  0  0  0  0  0
   57.8500   32.2950   43.1980 C   0  0  0  0  0  0  0  0  0  0  0  0
   58.5820   33.8590   45.5770 C   0  0  0  0  0  0  0  0  0  0  0  0
   59.1110   34.5360   46.6800 C   0  0  0  0  0  0  0  0  0  0  0  0
   67.5098   32.2110   51.3650 H   0  0  0  0  0  0  0  0  0  0  0  0
   66.7479   31.3923   49.9594 H   0  0  0  0  0  0  0  0  0  0  0  0
   66.9471   33.1775   49.9594 H   0  0  0  0  0  0  0  0  0  0  0  0
   65.0802   31.4938   51.7003 H   0  0  0  0  0  0  0  0  0  0  0  0
   65.4282   33.2412   52.0008 H   0  0  0  0  0  0  0  0  0  0  0  0
   65.8605   33.0022   48.7417 H   0  0  0  0  0  0  0  0  0  0  0  0
   64.2702   33.6177   46.9399 H   0  0  0  0  0  0  0  0  0  0  0  0
   61.8561   33.8939   47.4599 H   0  0  0  0  0  0  0  0  0  0  0  0
   63.0912   31.9488   52.4399 H   0  0  0  0  0  0  0  0  0  0  0  0
   62.4903   33.6477   52.5237 H   0  0  0  0  0  0  0  0  0  0  0  0
   60.9947   31.2760   51.2989 H   0  0  0  0  0  0  0  0  0  0  0  0
   60.6586   32.0288   52.8992 H   0  0  0  0  0  0  0  0  0  0  0  0
   59.1505   32.8191   51.0289 H   0  0  0  0  0  0  0  0  0  0  0  0
   60.0850   34.1287   51.8706 H   0  0  0  0  0  0  0  0  0  0  0  0
   59.0227   34.9623   49.7172 H   0  0  0  0  0  0  0  0  0  0  0  0
   60.4731   35.4360   48.7476 H   0  0  0  0  0  0  0  0  0  0  0  0
   59.1288   31.9725   48.9415 H   0  0  0  0  0  0  0  0  0  0  0  0
   58.2039   30.7594   46.9729 H   0  0  0  0  0  0  0  0  0  0  0  0
   56.8774   30.1398   45.6778 H   0  0  0  0  0  0  0  0  0  0  0  0
   55.9484   28.9310   43.7029 H   0  0  0  0  0  0  0  0  0  0  0  0
   56.2211   29.8788   41.4093 H   0  0  0  0  0  0  0  0  0  0  0  0
   57.4458   32.0291   41.0835 H   0  0  0  0  0  0  0  0  0  0  0  0
   58.3888   33.2424   43.0492 H   0  0  0  0  0  0  0  0  0  0  0  0
   58.4240   34.3964   44.6303 H   0  0  0  0  0  0  0  0  0  0  0  0
   59.3796   35.5990   46.5908 H   0  0  0  0  0  0  0  0  0  0  0  0
  1  2  1  0
  2  3  1  0
  3  4  2  0
  4  5  1  0
  5  6  2  0
  6  7  1  0
  7  8  2  0
  8  9  1  0
  9 10  1  0
 10 11  1  0
 11 12  1  0
 12 13  1  0
 13 14  1  0
 14 15  2  0
 15 16  1  0
 16 17  2  0
 17 18  1  0
 18 19  2  0
 19 20  1  0
 20 21  2  0
 21 22  1  0
 22 23  2  0
 17 24  1  0
 24 25  2  0
  8  3  1  0
 25 14  1  0
 12  7  1  0
 23 18  1  0
  1 26  1  0
  1 27  1  0
  1 28  1  0
  2 29  1  0
  2 30  1  0
  4 31  1  0
  5 32  1  0
  6 33  1  0
  9 34  1  0
  9 35  1  0
 10 36  1  0
 10 37  1  0
 11 38  1  0
 11 39  1  0
 13 40  1  0
 13 41  1  0
 15 42  1  0
 16 43  1  0
 19 44  1  0
 20 45  1  0
 21 46  1  0
 22 47  1  0
 23 48  1  0
 24 49  1  0
 25 50  1  0
M  CHG  1   3   1
M  END
>  <UniqueID>  (16) 
16

>  <SMILES>  (16) 
CC[n+]1cccc2c1CCCN2Cc1ccc(-c2ccccc2)cc1

>  <Energy>  (16) 
62.746750862722415

>  <Genealogy>  (16) 
CC[n+]1cccc2c1CCCN2Cc1ccc(-c2ccccc2)cc1 (3D coordinates assigned)
CC[n+]1cccc2c1CCCN2Cc1ccc(-c2ccccc2)cc1 (nonaromatic ring conformer: 62.746750862722415 kcal/mol)

>  <smiles>  (16) 
CC[n+]1cccc2c1CCCN2Cc1ccc(-c2ccccc2)cc1

>  <score_type>  (16) 
oracle

>  <origin>  (16) 
adg

>  <m_score__min__energy>  (16) 
-6.9400000000000004

>  <m_primary>  (16) 
energy

$$$$
16:0
     RDKit          3D

 49 50  0  0  0  0  0  0  0  0999 V2000
   59.7400   35.3830   46.3610 C   0  0  0  0  0  0  0  0  0  0  0  0
   60.1920   33.9150   46.3550 C   0  0  0  0  0  0  0  0  0  0  0  0
   59.1110   32.9250   46.0810 N   0  0  0  0  0  0  0  0  0  0  0  0
   58.1710   32.7220   47.2080 C   0  0  0  0  0  0  0  0  0  0  0  0
   58.8900   32.6960   48.5580 C   0  0  0  0  0  0  0  0  0  0  0  0
   58.3800   33.2010   44.8240 C   0  0  0  0  0  0  0  0  0  0  0  0
   57.4440   32.1120   44.5210 C   0  0  0  0  0  0  0  0  0  0  0  0
   56.6740   31.2130   44.2940 C   0  0  0  0  0  0  0  0  0  0  0  0
   55.7150   30.1370   44.0300 C   0  0  0  0  0  0  0  0  0  0  0  0
   56.1940   28.9100   44.5750 O   0  0  0  0  0  0  0  0  0  0  0  0
   57.4950   28.4310   44.3660 C   0  0  0  0  0  0  0  0  0  0  0  0
   57.7650   27.7700   43.3250 O   0  0  0  0  0  0  0  0  0  0  0  0
   58.5170   28.6920   45.3450 N   0  0  0  0  0  0  0  0  0  0  0  0
   59.8970   28.2300   45.1370 C   0  0  0  0  0  0  0  0  0  0  0  0
   60.8900   29.2800   45.6460 C   0  0  0  0  0  0  0  0  0  0  0  0
   60.5350   29.7700   46.9880 N   0  0  0  0  0  0  0  0  0  0  0  0
   61.4700   30.6050   47.7010 C   0  0  0  0  0  0  0  0  0  0  0  0
   62.3100   31.4390   47.0250 N   0  0  0  0  0  0  0  0  0  0  0  0
   63.1920   32.2350   47.6820 C   0  0  0  0  0  0  0  0  0  0  0  0
   63.2500   32.2070   49.0750 C   0  0  0  0  0  0  0  0  0  0  0  0
   64.4810   33.3160   50.0250 Br  0  0  0  0  0  0  0  0  0  0  0  0
   62.3860   31.3520   49.7570 C   0  0  0  0  0  0  0  0  0  0  0  0
   61.5180   30.5720   49.0620 N   0  0  0  0  0  0  0  0  0  0  0  0
   59.2880   29.3210   47.6270 C   0  0  0  0  0  0  0  0  0  0  0  0
   58.1370   29.3280   46.6140 C   0  0  0  0  0  0  0  0  0  0  0  0
   59.6333   35.7296   47.3995 H   0  0  0  0  0  0  0  0  0  0  0  0
   60.4899   35.9997   45.8439 H   0  0  0  0  0  0  0  0  0  0  0  0
   58.7731   35.4711   45.8439 H   0  0  0  0  0  0  0  0  0  0  0  0
   60.9653   33.7990   45.5814 H   0  0  0  0  0  0  0  0  0  0  0  0
   60.5556   33.7006   47.3708 H   0  0  0  0  0  0  0  0  0  0  0  0
   57.4387   33.5428   47.2116 H   0  0  0  0  0  0  0  0  0  0  0  0
   57.6780   31.7488   47.0674 H   0  0  0  0  0  0  0  0  0  0  0  0
   58.1477   32.7228   49.3693 H   0  0  0  0  0  0  0  0  0  0  0  0
   59.4872   31.7757   48.6377 H   0  0  0  0  0  0  0  0  0  0  0  0
   59.5521   33.5708   48.6377 H   0  0  0  0  0  0  0  0  0  0  0  0
   57.8186   34.1409   44.9312 H   0  0  0  0  0  0  0  0  0  0  0  0
   59.1064   33.2833   44.0021 H   0  0  0  0  0  0  0  0  0  0  0  0
   54.7494   30.3885   44.4929 H   0  0  0  0  0  0  0  0  0  0  0  0
   55.5905   30.0241   42.9429 H   0  0  0  0  0  0  0  0  0  0  0  0
   60.0513   27.2886   45.6847 H   0  0  0  0  0  0  0  0  0  0  0  0
   60.0635   28.0708   44.0614 H   0  0  0  0  0  0  0  0  0  0  0  0
   61.8930   28.8302   45.6860 H   0  0  0  0  0  0  0  0  0  0  0  0
   60.8646   30.1350   44.9544 H   0  0  0  0  0  0  0  0  0  0  0  0
   63.8600   32.9011   47.1163 H   0  0  0  0  0  0  0  0  0  0  0  0
   62.4070   31.3090   50.8560 H   0  0  0  0  0  0  0  0  0  0  0  0
   59.4254   28.3001   48.0128 H   0  0  0  0  0  0  0  0  0  0  0  0
   59.0423   30.0062   48.4517 H   0  0  0  0  0  0  0  0  0  0  0  0
   57.2832   28.7829   47.0428 H   0  0  0  0  0  0  0  0  0  0  0  0
   57.8753   30.3756   46.4041 H   0  0  0  0  0  0  0  0  0  0  0  0
  1  2  1  0
  2  3  1  0
  3  4  1  0
  4  5  1  0
  3  6  1  0
  6  7  1  0
  7  8  3  0
  8  9  1  0
  9 10  1  0
 10 11  1  0
 11 12  2  0
 11 13  1  0
 13 14  1  0
 14 15  1  0
 15 16  1  0
 16 17  1  0
 17 18  2  0
 18 19  1  0
 19 20  2  0
 20 21  1  0
 20 22  1  0
 22 23  2  0
 16 24  1  0
 24 25  1  0
 25 13  1  0
 23 17  1  0
  1 26  1  0
  1 27  1  0
  1 28  1  0
  2 29  1  0
  2 30  1  0
  4 31  1  0
  4 32  1  0
  5 33  1  0
  5 34  1  0
  5 35  1  0
  6 36  1  0
  6 37  1  0
  9 38  1  0
  9 39  1  0
 14 40  1  0
 14 41  1  0
 15 42  1  0
 15 43  1  0
 19 44  1  0
 22 45  1  0
 24 46  1  0
 24 47  1  0
 25 48  1  0
 25 49  1  0
M  END
>  <UniqueID>  (17) 
17

>  <SMILES>  (17) 
CCN(CC)CC#CCOC(=O)N1CCN(c2ncc(Br)cn2)CC1

>  <Energy>  (17) 
44.00482580054671

>  <Genealogy>  (17) 
CCN(CC)CC#CCOC(=O)N1CCN(c2ncc(Br)cn2)CC1 (3D coordinates assigned)
CCN(CC)CC#CCOC(=O)N1CCN(c2ncc(Br)cn2)CC1 (nonaromatic ring conformer: 44.00482580054671 kcal/mol)

>  <smiles>  (17) 
CCN(CC)CC#CCOC(=O)N1CCN(c2ncc(Br)cn2)CC1

>  <score_type>  (17) 
oracle

>  <origin>  (17) 
adg

>  <m_score__min__energy>  (17) 
-6.0700000000000003

>  <m_primary>  (17) 
energy

$$$$
17:0
     RDKit          3D

 48 49  0  0  0  0  0  0  0  0999 V2000
   56.6620   30.6060   43.0650 C   0  0  0  0  0  0  0  0  0  0  0  0
   56.6120   30.6660   44.5390 N   0  0  0  0  0  0  0  0  0  0  0  0
   56.9410   29.3500   45.1140 C   0  0  0  0  0  0  0  0  0  0  0  0
   57.4140   31.7530   45.1650 C   0  0  0  0  0  0  0  0  0  0  0  0
   58.4420   31.2690   46.2250 C   0  0  0  0  0  0  0  0  0  0  0  0
   59.6930   32.1680   46.2820 C   0  0  0  0  0  0  0  0  0  0  0  0
   59.3710   33.5960   46.0800 N   0  0  0  0  0  0  0  0  0  0  0  0
   58.6380   34.1810   47.2250 C   0  0  0  0  0  0  0  0  0  0  0  0
   59.2190   33.6630   48.5450 C   0  0  0  0  0  0  0  0  0  0  0  0
   60.4800   34.2720   48.8190 O   0  0  0  0  0  0  0  0  0  0  0  0
   61.7120   33.8940   48.2560 C   0  0  0  0  0  0  0  0  0  0  0  0
   61.9840   34.1090   46.9320 N   0  0  0  0  0  0  0  0  0  0  0  0
   63.1620   33.7280   46.3720 C   0  0  0  0  0  0  0  0  0  0  0  0
   64.1300   33.0880   47.1420 C   0  0  0  0  0  0  0  0  0  0  0  0
   63.8840   32.8500   48.4910 C   0  0  0  0  0  0  0  0  0  0  0  0
   62.6770   33.2690   49.0770 C   0  0  0  0  0  0  0  0  0  0  0  0
   62.4050   32.9970   50.5450 C   0  0  0  0  0  0  0  0  0  0  0  0
   61.3460   31.9070   50.6980 C   0  0  0  0  0  0  0  0  0  0  0  0
   63.5630   32.5860   51.1890 F   0  0  0  0  0  0  0  0  0  0  0  0
   61.9690   34.1510   51.1720 F   0  0  0  0  0  0  0  0  0  0  0  0
   58.7330   33.8800   44.7660 C   0  0  0  0  0  0  0  0  0  0  0  0
   58.0800   32.6470   44.1040 C   0  0  0  0  0  0  0  0  0  0  0  0
   57.3374   29.7955   42.7537 H   0  0  0  0  0  0  0  0  0  0  0  0
   55.6529   30.4139   42.6714 H   0  0  0  0  0  0  0  0  0  0  0  0
   57.0329   31.5639   42.6714 H   0  0  0  0  0  0  0  0  0  0  0  0
   56.9247   29.4152   46.2119 H   0  0  0  0  0  0  0  0  0  0  0  0
   56.2006   28.6083   44.7797 H   0  0  0  0  0  0  0  0  0  0  0  0
   57.9433   29.0440   44.7797 H   0  0  0  0  0  0  0  0  0  0  0  0
   56.6855   32.3570   45.7258 H   0  0  0  0  0  0  0  0  0  0  0  0
   57.9589   31.2724   47.2132 H   0  0  0  0  0  0  0  0  0  0  0  0
   58.7678   30.2578   45.9398 H   0  0  0  0  0  0  0  0  0  0  0  0
   60.1687   32.0491   47.2667 H   0  0  0  0  0  0  0  0  0  0  0  0
   60.3658   31.8579   45.4689 H   0  0  0  0  0  0  0  0  0  0  0  0
   58.7288   35.2768   47.1931 H   0  0  0  0  0  0  0  0  0  0  0  0
   57.5791   33.8901   47.1600 H   0  0  0  0  0  0  0  0  0  0  0  0
   58.5208   33.8966   49.3623 H   0  0  0  0  0  0  0  0  0  0  0  0
   59.3638   32.5756   48.4631 H   0  0  0  0  0  0  0  0  0  0  0  0
   61.2820   34.5600   46.3070 H   0  0  0  0  0  0  0  0  0  0  0  0
   63.3517   33.9258   45.3067 H   0  0  0  0  0  0  0  0  0  0  0  0
   65.0811   32.7732   46.6877 H   0  0  0  0  0  0  0  0  0  0  0  0
   64.6378   32.3314   49.1016 H   0  0  0  0  0  0  0  0  0  0  0  0
   61.1642   31.7199   51.7666 H   0  0  0  0  0  0  0  0  0  0  0  0
   60.4114   32.2339   50.2188 H   0  0  0  0  0  0  0  0  0  0  0  0
   61.6998   30.9822   50.2188 H   0  0  0  0  0  0  0  0  0  0  0  0
   57.9557   34.6436   44.9170 H   0  0  0  0  0  0  0  0  0  0  0  0
   59.5331   34.2170   44.0905 H   0  0  0  0  0  0  0  0  0  0  0  0
   57.3187   32.9833   43.3848 H   0  0  0  0  0  0  0  0  0  0  0  0
   58.8592   32.0662   43.5887 H   0  0  0  0  0  0  0  0  0  0  0  0
  1  2  1  0
  2  3  1  0
  2  4  1  0
  4  5  1  0
  5  6  1  0
  6  7  1  0
  7  8  1  0
  8  9  1  0
  9 10  1  0
 10 11  1  0
 11 12  2  0
 12 13  1  0
 13 14  2  0
 14 15  1  0
 15 16  2  0
 16 17  1  0
 17 18  1  0
 17 19  1  0
 17 20  1  0
  7 21  1  0
 21 22  1  0
 22  4  1  0
 16 11  1  0
  1 23  1  0
  1 24  1  0
  1 25  1  0
  3 26  1  0
  3 27  1  0
  3 28  1  0
  4 29  1  0
  5 30  1  0
  5 31  1  0
  6 32  1  0
  6 33  1  0
  8 34  1  0
  8 35  1  0
  9 36  1  0
  9 37  1  0
 12 38  1  0
 13 39  1  0
 14 40  1  0
 15 41  1  0
 18 42  1  0
 18 43  1  0
 18 44  1  0
 21 45  1  0
 21 46  1  0
 22 47  1  0
 22 48  1  0
M  CHG  1  12   1
M  END
>  <UniqueID>  (18) 
18

>  <SMILES>  (18) 
CN(C)C1CCN(CCOc2[nH+]cccc2C(C)(F)F)CC1

>  <Energy>  (18) 
59.45207633738942

>  <Genealogy>  (18) 
CN(C)C1CCN(CCOc2[nH+]cccc2C(C)(F)F)CC1 (protonated)
CN(C)C1CCN(CCOc2[nH+]cccc2C(C)(F)F)CC1 (3D coordinates assigned)
CN(C)C1CCN(CCOc2[nH+]cccc2C(C)(F)F)CC1 (nonaromatic ring conformer: 59.45207633738942 kcal/mol)

>  <smiles>  (18) 
CN(C)C1CCN(CCOc2ncccc2C(C)(F)F)CC1

>  <score_type>  (18) 
oracle

>  <origin>  (18) 
adg

>  <m_score__min__energy>  (18) 
-5.2199999999999998

>  <m_primary>  (18) 
energy

$$$$
18:0
     RDKit          3D

 41 42  0  0  0  0  0  0  0  0999 V2000
   56.7630   22.1460   43.0900 C   0  0  0  0  0  0  0  0  0  0  0  0
   55.7710   23.2980   42.9960 C   0  0  0  0  0  0  0  0  0  0  0  0
   56.2830   24.4610   43.7330 N   0  0  0  0  0  0  0  0  0  0  0  0
   57.5900   24.1780   44.3490 C   0  0  0  0  0  0  0  0  0  0  0  0
   58.1720   25.4270   45.0440 C   0  0  0  0  0  0  0  0  0  0  0  0
   57.4120   26.6730   44.7630 N   0  0  0  0  0  0  0  0  0  0  0  0
   58.1000   27.5070   43.7370 C   0  0  0  0  0  0  0  0  0  0  0  0
   57.7640   28.9970   43.8570 C   0  0  0  0  0  0  0  0  0  0  0  0
   58.1320   29.4850   45.1920 N   0  0  0  0  0  0  0  0  0  0  0  0
   58.4840   30.8710   45.4010 C   0  0  0  0  0  0  0  0  0  0  0  0
   59.4370   31.2310   46.3740 C   0  0  0  0  0  0  0  0  0  0  0  0
   59.7800   32.5720   46.5720 C   0  0  0  0  0  0  0  0  0  0  0  0
   59.1790   33.5710   45.8000 C   0  0  0  0  0  0  0  0  0  0  0  0
   59.6110   35.2530   46.0480 Cl  0  0  0  0  0  0  0  0  0  0  0  0
   58.2330   33.2270   44.8310 C   0  0  0  0  0  0  0  0  0  0  0  0
   57.8860   31.8870   44.6320 C   0  0  0  0  0  0  0  0  0  0  0  0
   58.1160   28.5370   46.3150 C   0  0  0  0  0  0  0  0  0  0  0  0
   57.1220   27.4020   46.0320 C   0  0  0  0  0  0  0  0  0  0  0  0
   56.9600   21.9172   44.1477 H   0  0  0  0  0  0  0  0  0  0  0  0
   56.3421   21.2584   42.5951 H   0  0  0  0  0  0  0  0  0  0  0  0
   57.7033   22.4305   42.5951 H   0  0  0  0  0  0  0  0  0  0  0  0
   55.6272   23.5700   41.9399 H   0  0  0  0  0  0  0  0  0  0  0  0
   54.8114   22.9859   43.4339 H   0  0  0  0  0  0  0  0  0  0  0  0
   56.4190   25.2370   43.0420 H   0  0  0  0  0  0  0  0  0  0  0  0
   57.4677   23.3787   45.0948 H   0  0  0  0  0  0  0  0  0  0  0  0
   58.2858   23.8704   43.5545 H   0  0  0  0  0  0  0  0  0  0  0  0
   58.1673   25.2543   46.1304 H   0  0  0  0  0  0  0  0  0  0  0  0
   59.1878   25.5726   44.6478 H   0  0  0  0  0  0  0  0  0  0  0  0
   56.4830   26.3930   44.3670 H   0  0  0  0  0  0  0  0  0  0  0  0
   59.1866   27.3817   43.8538 H   0  0  0  0  0  0  0  0  0  0  0  0
   57.7528   27.1687   42.7496 H   0  0  0  0  0  0  0  0  0  0  0  0
   58.3238   29.5599   43.0955 H   0  0  0  0  0  0  0  0  0  0  0  0
   56.6840   29.1387   43.7040 H   0  0  0  0  0  0  0  0  0  0  0  0
   59.9156   30.4502   46.9834 H   0  0  0  0  0  0  0  0  0  0  0  0
   60.5238   32.8415   47.3363 H   0  0  0  0  0  0  0  0  0  0  0  0
   57.7599   34.0123   44.2231 H   0  0  0  0  0  0  0  0  0  0  0  0
   57.1394   31.6247   43.8680 H   0  0  0  0  0  0  0  0  0  0  0  0
   59.1227   28.1143   46.4488 H   0  0  0  0  0  0  0  0  0  0  0  0
   57.8081   29.0661   47.2289 H   0  0  0  0  0  0  0  0  0  0  0  0
   57.1631   26.6848   46.8650 H   0  0  0  0  0  0  0  0  0  0  0  0
   56.1257   27.8566   45.9288 H   0  0  0  0  0  0  0  0  0  0  0  0
  1  2  1  0
  2  3  1  0
  3  4  1  0
  4  5  1  0
  5  6  1  0
  6  7  1  0
  7  8  1  0
  8  9  1  0
  9 10  1  0
 10 11  2  0
 11 12  1  0
 12 13  2  0
 13 14  1  0
 13 15  1  0
 15 16  2  0
  9 17  1  0
 17 18  1  0
 18  6  1  0
 16 10  1  0
  1 19  1  0
  1 20  1  0
  1 21  1  0
  2 22  1  0
  2 23  1  0
  3 24  1  0
  4 25  1  0
  4 26  1  0
  5 27  1  0
  5 28  1  0
  6 29  1  0
  7 30  1  0
  7 31  1  0
  8 32  1  0
  8 33  1  0
 11 34  1  0
 12 35  1  0
 15 36  1  0
 16 37  1  0
 17 38  1  0
 17 39  1  0
 18 40  1  0
 18 41  1  0
M  CHG  1   6   1
M  END
>  <UniqueID>  (19) 
19

>  <SMILES>  (19) 
CCNCC[NH+]1CCN(c2ccc(Cl)cc2)CC1

>  <Energy>  (19) 
47.21011385403671

>  <Genealogy>  (19) 
CCNCC[NH+]1CCN(c2ccc(Cl)cc2)CC1 (protonated)
CCNCC[NH+]1CCN(c2ccc(Cl)cc2)CC1 (3D coordinates assigned)
CCNCC[NH+]1CCN(c2ccc(Cl)cc2)CC1 (nonaromatic ring conformer: 47.21011385403671 kcal/mol)

>  <smiles>  (19) 
CCNCCN1CCN(c2ccc(Cl)cc2)CC1

>  <score_type>  (19) 
oracle

>  <origin>  (19) 
adg

>  <m_score__min__energy>  (19) 
-5.0300000000000002

>  <m_primary>  (19) 
energy

$$$$
19:0
     RDKit          3D

 56 59  0  0  0  0  0  0  0  0999 V2000
   63.3220   33.8210   46.3800 C   0  0  0  0  0  0  0  0  0  0  0  0
   63.1650   32.5030   47.1290 C   0  0  0  0  0  0  0  0  0  0  0  0
   63.2010   32.7410   48.5920 N   0  0  0  0  0  0  0  0  0  0  0  0
   63.1130   34.1860   48.8720 C   0  0  0  0  0  0  0  0  0  0  0  0
   62.1140   32.0210   49.2920 C   0  0  0  0  0  0  0  0  0  0  0  0
   60.9950   32.9850   49.7400 C   0  0  0  0  0  0  0  0  0  0  0  0
   59.6390   32.4500   49.5190 N   0  0  0  0  0  0  0  0  0  0  0  0
   59.4070   32.0870   48.1270 C   0  0  0  0  0  0  0  0  0  0  0  0
   59.3470   33.0830   47.0940 C   0  0  0  0  0  0  0  0  0  0  0  0
   59.7570   34.4260   47.3080 C   0  0  0  0  0  0  0  0  0  0  0  0
   59.6810   35.3780   46.2960 C   0  0  0  0  0  0  0  0  0  0  0  0
   59.2040   35.0310   45.0430 C   0  0  0  0  0  0  0  0  0  0  0  0
   58.8030   33.7260   44.7870 C   0  0  0  0  0  0  0  0  0  0  0  0
   58.8600   32.7270   45.7910 C   0  0  0  0  0  0  0  0  0  0  0  0
   58.4540   31.4360   45.5230 N   0  0  0  0  0  0  0  0  0  0  0  0
   57.8690   31.0790   44.2140 C   0  0  0  0  0  0  0  0  0  0  0  0
   58.6290   30.4770   46.4800 C   0  0  0  0  0  0  0  0  0  0  0  0
   58.3070   28.8300   46.3170 S   0  0  0  0  0  0  0  0  0  0  0  0
   58.7770   28.4030   47.8600 C   0  0  0  0  0  0  0  0  0  0  0  0
   59.1910   29.5430   48.5440 C   0  0  0  0  0  0  0  0  0  0  0  0
   59.8170   29.3760   49.8710 C   0  0  0  0  0  0  0  0  0  0  0  0
   61.0690   28.7370   49.9130 C   0  0  0  0  0  0  0  0  0  0  0  0
   61.7060   28.4990   51.1300 C   0  0  0  0  0  0  0  0  0  0  0  0
   61.0910   28.8710   52.3220 C   0  0  0  0  0  0  0  0  0  0  0  0
   59.8300   29.4700   52.3050 C   0  0  0  0  0  0  0  0  0  0  0  0
   59.1600   29.7200   51.0900 C   0  0  0  0  0  0  0  0  0  0  0  0
   57.8410   30.3140   51.1340 N   0  0  0  0  0  0  0  0  0  0  0  0
   56.8650   29.7160   51.6300 O   0  0  0  0  0  0  0  0  0  0  0  0
   57.6320   31.5700   50.6100 O   0  0  0  0  0  0  0  0  0  0  0  0
   59.1070   30.7410   47.7630 C   0  0  0  0  0  0  0  0  0  0  0  0
   63.4201   34.6442   47.1030 H   0  0  0  0  0  0  0  0  0  0  0  0
   64.2215   33.7788   45.7482 H   0  0  0  0  0  0  0  0  0  0  0  0
   62.4378   33.9913   45.7482 H   0  0  0  0  0  0  0  0  0  0  0  0
   62.2029   32.0433   46.8587 H   0  0  0  0  0  0  0  0  0  0  0  0
   63.9913   31.8314   46.8530 H   0  0  0  0  0  0  0  0  0  0  0  0
   63.1031   34.3488   49.9599 H   0  0  0  0  0  0  0  0  0  0  0  0
   63.9816   34.6982   48.4325 H   0  0  0  0  0  0  0  0  0  0  0  0
   62.1886   34.5890   48.4325 H   0  0  0  0  0  0  0  0  0  0  0  0
   61.6872   31.2691   48.6119 H   0  0  0  0  0  0  0  0  0  0  0  0
   62.5372   31.5429   50.1877 H   0  0  0  0  0  0  0  0  0  0  0  0
   61.1190   33.1884   50.8139 H   0  0  0  0  0  0  0  0  0  0  0  0
   61.0881   33.8964   49.1312 H   0  0  0  0  0  0  0  0  0  0  0  0
   58.9430   33.1540   49.8230 H   0  0  0  0  0  0  0  0  0  0  0  0
   59.4670   31.6840   50.1960 H   0  0  0  0  0  0  0  0  0  0  0  0
   60.1430   34.7199   48.2952 H   0  0  0  0  0  0  0  0  0  0  0  0
   60.0015   36.4118   46.4923 H   0  0  0  0  0  0  0  0  0  0  0  0
   59.1426   35.7901   44.2492 H   0  0  0  0  0  0  0  0  0  0  0  0
   58.4338   33.4625   43.7849 H   0  0  0  0  0  0  0  0  0  0  0  0
   56.9395   30.5118   44.3702 H   0  0  0  0  0  0  0  0  0  0  0  0
   57.6481   31.9964   43.6486 H   0  0  0  0  0  0  0  0  0  0  0  0
   58.5838   30.4631   43.6486 H   0  0  0  0  0  0  0  0  0  0  0  0
   58.7622   27.3830   48.2715 H   0  0  0  0  0  0  0  0  0  0  0  0
   61.5508   28.4216   48.9757 H   0  0  0  0  0  0  0  0  0  0  0  0
   62.6947   28.0172   51.1483 H   0  0  0  0  0  0  0  0  0  0  0  0
   61.6002   28.6924   53.2806 H   0  0  0  0  0  0  0  0  0  0  0  0
   59.3516   29.7514   53.2547 H   0  0  0  0  0  0  0  0  0  0  0  0
  1  2  1  0
  2  3  1  0
  3  4  1  0
  3  5  1  0
  5  6  1  0
  6  7  1  0
  7  8  1  0
  8  9  2  0
  9 10  1  0
 10 11  2  0
 11 12  1  0
 12 13  2  0
 13 14  1  0
 14 15  2  0
 15 16  1  0
 15 17  1  0
 17 18  1  0
 18 19  1  0
 19 20  2  0
 20 21  1  0
 21 22  2  0
 22 23  1  0
 23 24  2  0
 24 25  1  0
 25 26  2  0
 26 27  1  0
 27 28  2  0
 27 29  1  0
 20 30  1  0
 30  8  1  0
 14  9  1  0
 30 17  2  0
 26 21  1  0
  1 31  1  0
  1 32  1  0
  1 33  1  0
  2 34  1  0
  2 35  1  0
  4 36  1  0
  4 37  1  0
  4 38  1  0
  5 39  1  0
  5 40  1  0
  6 41  1  0
  6 42  1  0
  7 43  1  0
  7 44  1  0
 10 45  1  0
 11 46  1  0
 12 47  1  0
 13 48  1  0
 16 49  1  0
 16 50  1  0
 16 51  1  0
 19 52  1  0
 22 53  1  0
 23 54  1  0
 24 55  1  0
 25 56  1  0
M  CHG  4   7   1  15   1  27   1  29  -1
M  END
>  <UniqueID>  (20) 
20

>  <SMILES>  (20) 
CCN(C)CC[NH2+]c1c2ccccc2[n+](C)c2scc(-c3ccccc3[N+](=O)[O-])c12

>  <Energy>  (20) 
121.50953211872465

>  <Genealogy>  (20) 
CCN(C)CC[NH2+]c1c2ccccc2[n+](C)c2scc(-c3ccccc3[N+](=O)[O-])c12 (protonated)
CCN(C)CC[NH2+]c1c2ccccc2[n+](C)c2scc(-c3ccccc3[N+](=O)[O-])c12 (3D coordinates assigned)
CCN(C)CC[NH2+]c1c2ccccc2[n+](C)c2scc(-c3ccccc3[N+](=O)[O-])c12 (optimized conformer: 121.50953211872465 kcal/mol)

>  <smiles>  (20) 
CCN(C)CCNc1c2ccccc2[n+](C)c2scc(-c3ccccc3[N+](=O)[O-])c12

>  <score_type>  (20) 
oracle

>  <origin>  (20) 
adg

>  <m_score__min__energy>  (20) 
-4.9299999999999997

>  <m_primary>  (20) 
energy

$$$$
20:0
     RDKit          3D

 60 62  0  0  0  0  0  0  0  0999 V2000
   63.6300   31.8810   47.9230 N   0  0  0  0  0  0  0  0  0  0  0  0
   63.6180   33.2310   47.3690 C   0  0  0  0  0  0  0  0  0  0  0  0
   63.1880   34.2540   48.4290 C   0  0  0  0  0  0  0  0  0  0  0  0
   62.5520   33.6040   49.5880 N   0  0  0  0  0  0  0  0  0  0  0  0
   61.1100   33.8990   49.6600 C   0  0  0  0  0  0  0  0  0  0  0  0
   60.3830   33.4730   48.4060 C   0  0  0  0  0  0  0  0  0  0  0  0
   60.2690   32.1150   48.0750 C   0  0  0  0  0  0  0  0  0  0  0  0
   59.6160   31.7250   46.9020 C   0  0  0  0  0  0  0  0  0  0  0  0
   59.0710   32.6890   46.0340 C   0  0  0  0  0  0  0  0  0  0  0  0
   58.3780   32.2740   44.7870 C   0  0  0  0  0  0  0  0  0  0  0  0
   58.4570   33.0680   43.6290 C   0  0  0  0  0  0  0  0  0  0  0  0
   57.7920   32.6840   42.4620 C   0  0  0  0  0  0  0  0  0  0  0  0
   57.0350   31.5120   42.4370 C   0  0  0  0  0  0  0  0  0  0  0  0
   56.9390   30.7100   43.5840 C   0  0  0  0  0  0  0  0  0  0  0  0
   56.0990   29.4630   43.5600 C   0  0  0  0  0  0  0  0  0  0  0  0
   56.0160   28.8270   44.8900 N   0  0  0  0  0  0  0  0  0  0  0  0
   57.1690   28.0010   45.3310 C   0  0  0  0  0  0  0  0  0  0  0  0
   57.7450   28.5300   46.6640 C   0  0  0  0  0  0  0  0  0  0  0  0
   58.9030   27.7070   47.2630 C   0  0  0  0  0  0  0  0  0  0  0  0
   60.3100   28.1470   46.8170 C   0  0  0  0  0  0  0  0  0  0  0  0
   60.6110   28.0410   45.2980 C   0  0  0  0  0  0  0  0  0  0  0  0
   59.5350   28.6150   44.3560 C   0  0  0  0  0  0  0  0  0  0  0  0
   58.2380   27.7780   44.2290 C   0  0  0  0  0  0  0  0  0  0  0  0
   57.6220   31.0890   44.7520 C   0  0  0  0  0  0  0  0  0  0  0  0
   59.1920   34.0500   46.3680 C   0  0  0  0  0  0  0  0  0  0  0  0
   59.8430   34.4370   47.5420 C   0  0  0  0  0  0  0  0  0  0  0  0
   64.4860   31.3970   47.5650 H   0  0  0  0  0  0  0  0  0  0  0  0
   62.8170   31.3550   47.5290 H   0  0  0  0  0  0  0  0  0  0  0  0
   64.6279   33.4835   47.0136 H   0  0  0  0  0  0  0  0  0  0  0  0
   62.8988   33.2632   46.5373 H   0  0  0  0  0  0  0  0  0  0  0  0
   64.0755   34.8057   48.7725 H   0  0  0  0  0  0  0  0  0  0  0  0
   62.4537   34.9334   47.9715 H   0  0  0  0  0  0  0  0  0  0  0  0
   63.0140   33.9150   50.4730 H   0  0  0  0  0  0  0  0  0  0  0  0
   62.6630   32.5660   49.5030 H   0  0  0  0  0  0  0  0  0  0  0  0
   60.6802   33.3633   50.5193 H   0  0  0  0  0  0  0  0  0  0  0  0
   60.9903   34.9870   49.7697 H   0  0  0  0  0  0  0  0  0  0  0  0
   60.6960   31.3520   48.7424 H   0  0  0  0  0  0  0  0  0  0  0  0
   59.5276   30.6566   46.6558 H   0  0  0  0  0  0  0  0  0  0  0  0
   59.0459   33.9970   43.6422 H   0  0  0  0  0  0  0  0  0  0  0  0
   57.8654   33.3080   41.5591 H   0  0  0  0  0  0  0  0  0  0  0  0
   56.5122   31.2162   41.5155 H   0  0  0  0  0  0  0  0  0  0  0  0
   55.0837   29.7249   43.2275 H   0  0  0  0  0  0  0  0  0  0  0  0
   56.5713   28.7481   42.8701 H   0  0  0  0  0  0  0  0  0  0  0  0
   55.1650   28.2140   44.8810 H   0  0  0  0  0  0  0  0  0  0  0  0
   56.7859   26.9883   45.5252 H   0  0  0  0  0  0  0  0  0  0  0  0
   58.1105   29.5532   46.4923 H   0  0  0  0  0  0  0  0  0  0  0  0
   56.9233   28.4675   47.3926 H   0  0  0  0  0  0  0  0  0  0  0  0
   58.8503   27.7901   48.3586 H   0  0  0  0  0  0  0  0  0  0  0  0
   58.7713   26.6779   46.8975 H   0  0  0  0  0  0  0  0  0  0  0  0
   60.4427   29.1981   47.1130 H   0  0  0  0  0  0  0  0  0  0  0  0
   61.0057   27.4483   47.3047 H   0  0  0  0  0  0  0  0  0  0  0  0
   61.5509   28.5780   45.1026 H   0  0  0  0  0  0  0  0  0  0  0  0
   60.6547   26.9641   45.0781 H   0  0  0  0  0  0  0  0  0  0  0  0
   59.2583   29.6128   44.7272 H   0  0  0  0  0  0  0  0  0  0  0  0
   59.9870   28.6217   43.3532 H   0  0  0  0  0  0  0  0  0  0  0  0
   57.7765   28.0189   43.2600 H   0  0  0  0  0  0  0  0  0  0  0  0
   58.5529   26.7291   44.3319 H   0  0  0  0  0  0  0  0  0  0  0  0
   57.5647   30.4526   45.6474 H   0  0  0  0  0  0  0  0  0  0  0  0
   58.7708   34.8155   45.6997 H   0  0  0  0  0  0  0  0  0  0  0  0
   59.9327   35.5048   47.7904 H   0  0  0  0  0  0  0  0  0  0  0  0
  1  2  1  0
  2  3  1  0
  3  4  1  0
  4  5  1  0
  5  6  1  0
  6  7  2  0
  7  8  1  0
  8  9  2  0
  9 10  1  0
 10 11  2  0
 11 12  1  0
 12 13  2  0
 13 14  1  0
 14 15  1  0
 15 16  1  0
 16 17  1  0
 17 18  1  0
 18 19  1  0
 19 20  1  0
 20 21  1  0
 21 22  1  0
 22 23  1  0
 14 24  2  0
  9 25  1  0
 25 26  2  0
 26  6  1  0
 24 10  1  0
 23 17  1  0
  1 27  1  0
  1 28  1  0
  2 29  1  0
  2 30  1  0
  3 31  1  0
  3 32  1  0
  4 33  1  0
  4 34  1  0
  5 35  1  0
  5 36  1  0
  7 37  1  0
  8 38  1  0
 11 39  1  0
 12 40  1  0
 13 41  1  0
 15 42  1  0
 15 43  1  0
 16 44  1  0
 17 45  1  0
 18 46  1  0
 18 47  1  0
 19 48  1  0
 19 49  1  0
 20 50  1  0
 20 51  1  0
 21 52  1  0
 21 53  1  0
 22 54  1  0
 22 55  1  0
 23 56  1  0
 23 57  1  0
 24 58  1  0
 25 59  1  0
 26 60  1  0
M  CHG  1   4   1
M  END
>  <UniqueID>  (21) 
21

>  <SMILES>  (21) 
NCC[NH2+]Cc1ccc(-c2cccc(CNC3CCCCCC3)c2)cc1

>  <Energy>  (21) 
75.83737529940409

>  <Genealogy>  (21) 
NCC[NH2+]Cc1ccc(-c2cccc(CNC3CCCCCC3)c2)cc1 (protonated)
NCC[NH2+]Cc1ccc(-c2cccc(CNC3CCCCCC3)c2)cc1 (3D coordinates assigned)
NCC[NH2+]Cc1ccc(-c2cccc(CNC3CCCCCC3)c2)cc1 (nonaromatic ring conformer: 75.83737529940409 kcal/mol)

>  <smiles>  (21) 
NCCNCc1ccc(-c2cccc(CNC3CCCCCC3)c2)cc1

>  <score_type>  (21) 
oracle

>  <origin>  (21) 
adg

>  <m_score__min__energy>  (21) 
-5.5800000000000001

>  <m_primary>  (21) 
energy

$$$$
21:0
     RDKit          3D

 55 56  0  0  0  0  0  0  0  0999 V2000
   57.0800   32.1940   41.0440 C   0  0  0  0  0  0  0  0  0  0  0  0
   58.1320   32.2000   42.1530 C   0  0  0  0  0  0  0  0  0  0  0  0
   57.5820   31.6480   43.4050 N   0  0  0  0  0  0  0  0  0  0  0  0
   56.5200   30.6340   43.2980 C   0  0  0  0  0  0  0  0  0  0  0  0
   57.0480   29.2480   43.6590 C   0  0  0  0  0  0  0  0  0  0  0  0
   58.0760   32.0900   44.7010 C   0  0  0  0  0  0  0  0  0  0  0  0
   58.5390   33.4070   44.8880 C   0  0  0  0  0  0  0  0  0  0  0  0
   58.9920   33.8380   46.1360 C   0  0  0  0  0  0  0  0  0  0  0  0
   59.0020   32.9650   47.2350 C   0  0  0  0  0  0  0  0  0  0  0  0
   58.5780   31.6350   47.0560 C   0  0  0  0  0  0  0  0  0  0  0  0
   58.1050   31.2130   45.8070 C   0  0  0  0  0  0  0  0  0  0  0  0
   58.6220   30.6960   48.1370 N   0  0  0  0  0  0  0  0  0  0  0  0
   59.8720   30.4240   48.8410 C   0  0  0  0  0  0  0  0  0  0  0  0
   60.2060   31.5310   49.8430 C   0  0  0  0  0  0  0  0  0  0  0  0
   60.5550   32.8110   49.1770 N   0  0  2  0  0  0  0  0  0  0  0  0
   61.3140   33.7040   50.0940 C   0  0  0  0  0  0  0  0  0  0  0  0
   62.5060   34.4550   49.4400 C   0  0  0  0  0  0  0  0  0  0  0  0
   63.4800   33.5320   48.6840 C   0  0  0  0  0  0  0  0  0  0  0  0
   62.9140   33.0660   47.3980 N   0  0  0  0  0  0  0  0  0  0  0  0
   63.3210   33.9460   46.2890 C   0  0  0  0  0  0  0  0  0  0  0  0
   63.3570   31.6890   47.1210 C   0  0  0  0  0  0  0  0  0  0  0  0
   59.3610   33.4900   48.6090 C   0  0  0  0  0  0  0  0  0  0  0  0
   56.0753   32.1883   41.4917 H   0  0  0  0  0  0  0  0  0  0  0  0
   57.1987   33.0928   40.4211 H   0  0  0  0  0  0  0  0  0  0  0  0
   57.2090   31.2966   40.4211 H   0  0  0  0  0  0  0  0  0  0  0  0
   58.9911   31.5897   41.8374 H   0  0  0  0  0  0  0  0  0  0  0  0
   58.4440   33.2390   42.3349 H   0  0  0  0  0  0  0  0  0  0  0  0
   55.7013   30.8969   43.9840 H   0  0  0  0  0  0  0  0  0  0  0  0
   56.1602   30.6120   42.2588 H   0  0  0  0  0  0  0  0  0  0  0  0
   57.0875   29.1443   44.7534 H   0  0  0  0  0  0  0  0  0  0  0  0
   56.3792   28.4807   43.2419 H   0  0  0  0  0  0  0  0  0  0  0  0
   58.0578   29.1202   43.2419 H   0  0  0  0  0  0  0  0  0  0  0  0
   58.5437   34.1058   44.0385 H   0  0  0  0  0  0  0  0  0  0  0  0
   59.3448   34.8726   46.2595 H   0  0  0  0  0  0  0  0  0  0  0  0
   57.7495   30.1791   45.6856 H   0  0  0  0  0  0  0  0  0  0  0  0
   57.8600   29.9820   48.2090 H   0  0  0  0  0  0  0  0  0  0  0  0
   59.7775   29.4703   49.3809 H   0  0  0  0  0  0  0  0  0  0  0  0
   60.6820   30.3761   48.0983 H   0  0  0  0  0  0  0  0  0  0  0  0
   59.3324   31.6965   50.4907 H   0  0  0  0  0  0  0  0  0  0  0  0
   61.0820   31.2051   50.4230 H   0  0  0  0  0  0  0  0  0  0  0  0
   61.2190   32.5990   48.3930 H   0  0  0  0  0  0  0  0  0  0  0  0
   60.6164   34.4542   50.4948 H   0  0  0  0  0  0  0  0  0  0  0  0
   61.7474   33.0536   50.8681 H   0  0  0  0  0  0  0  0  0  0  0  0
   62.1041   35.1922   48.7294 H   0  0  0  0  0  0  0  0  0  0  0  0
   63.0759   34.9248   50.2552 H   0  0  0  0  0  0  0  0  0  0  0  0
   64.4101   34.0842   48.4838 H   0  0  0  0  0  0  0  0  0  0  0  0
   63.6699   32.6493   49.3124 H   0  0  0  0  0  0  0  0  0  0  0  0
   63.7501   34.8737   46.6956 H   0  0  0  0  0  0  0  0  0  0  0  0
   64.0736   33.4337   45.6717 H   0  0  0  0  0  0  0  0  0  0  0  0
   62.4433   34.1877   45.6717 H   0  0  0  0  0  0  0  0  0  0  0  0
   63.5270   31.1605   48.0706 H   0  0  0  0  0  0  0  0  0  0  0  0
   62.5824   31.1640   46.5427 H   0  0  0  0  0  0  0  0  0  0  0  0
   64.2924   31.7141   46.5427 H   0  0  0  0  0  0  0  0  0  0  0  0
   58.5075   33.3283   49.2838 H   0  0  0  0  0  0  0  0  0  0  0  0
   59.5971   34.5598   48.5099 H   0  0  0  0  0  0  0  0  0  0  0  0
  1  2  1  0
  2  3  1  0
  3  4  1  0
  4  5  1  0
  3  6  1  0
  6  7  2  0
  7  8  1  0
  8  9  2  0
  9 10  1  0
 10 11  2  0
 10 12  1  0
 12 13  1  0
 13 14  1  0
 14 15  1  0
 15 16  1  0
 16 17  1  0
 17 18  1  0
 18 19  1  0
 19 20  1  0
 19 21  1  0
 15 22  1  0
 11  6  1  0
 22  9  1  0
  1 23  1  0
  1 24  1  0
  1 25  1  0
  2 26  1  0
  2 27  1  0
  4 28  1  0
  4 29  1  0
  5 30  1  0
  5 31  1  0
  5 32  1  0
  7 33  1  0
  8 34  1  0
 11 35  1  0
 12 36  1  0
 13 37  1  0
 13 38  1  0
 14 39  1  0
 14 40  1  0
 15 41  1  6
 16 42  1  0
 16 43  1  0
 17 44  1  0
 17 45  1  0
 18 46  1  0
 18 47  1  0
 20 48  1  0
 20 49  1  0
 20 50  1  0
 21 51  1  0
 21 52  1  0
 21 53  1  0
 22 54  1  0
 22 55  1  0
M  CHG  1  15   1
M  END
>  <UniqueID>  (22) 
22

>  <SMILES>  (22) 
CCN(CC)c1ccc2c(c1)NCC[N@H+](CCCN(C)C)C2

>  <Energy>  (22) 
64.43360360514464

>  <Genealogy>  (22) 
CCN(CC)c1ccc2c(c1)NCC[NH+](CCCN(C)C)C2 (protonated)
CCN(CC)c1ccc2c(c1)NCC[N@H+](CCCN(C)C)C2 (chirality)
CCN(CC)c1ccc2c(c1)NCC[N@H+](CCCN(C)C)C2 (3D coordinates assigned)
CCN(CC)c1ccc2c(c1)NCC[N@H+](CCCN(C)C)C2 (nonaromatic ring conformer: 64.43360360514464 kcal/mol)

>  <smiles>  (22) 
CCN(CC)c1ccc2c(c1)NCCN(CCCN(C)C)C2

>  <score_type>  (22) 
oracle

>  <origin>  (22) 
adg

>  <m_score__min__energy>  (22) 
-2.8300000000000001

>  <m_primary>  (22) 
energy

$$$$
22:0
     RDKit          3D

 39 41  0  0  0  0  0  0  0  0999 V2000
   56.2070   29.9920   43.0850 C   0  0  0  0  0  0  0  0  0  0  0  0
   56.4440   30.3680   44.4370 O   0  0  0  0  0  0  0  0  0  0  0  0
   57.6540   30.1620   45.1180 C   0  0  0  0  0  0  0  0  0  0  0  0
   58.6930   29.3840   44.5750 C   0  0  0  0  0  0  0  0  0  0  0  0
   59.8730   29.2170   45.2980 C   0  0  0  0  0  0  0  0  0  0  0  0
   60.0110   29.8090   46.5520 C   0  0  0  0  0  0  0  0  0  0  0  0
   58.9530   30.5580   47.0820 C   0  0  0  0  0  0  0  0  0  0  0  0
   59.0690   31.1760   48.3730 N   0  0  0  0  0  0  0  0  0  0  0  0
   59.4920   30.5670   49.4940 C   0  0  0  0  0  0  0  0  0  0  0  0
   59.5410   31.5050   50.5000 C   0  0  0  0  0  0  0  0  0  0  0  0
   59.1710   32.7070   50.0170 N   0  0  0  0  0  0  0  0  0  0  0  0
   58.8870   32.4720   48.7200 C   0  0  0  0  0  0  0  0  0  0  0  0
   58.4830   33.7760   47.6110 S   0  0  0  0  0  0  0  0  0  0  0  0
   57.1040   33.4570   46.7070 O   0  0  0  0  0  0  0  0  0  0  0  0
   59.8360   34.3740   46.6100 C   0  0  0  0  0  0  0  0  0  0  0  0
   61.1630   34.0240   47.2290 C   0  0  0  0  0  0  0  0  0  0  0  0
   61.3890   34.2410   48.5980 C   0  0  0  0  0  0  0  0  0  0  0  0
   62.6290   33.9370   49.1660 C   0  0  0  0  0  0  0  0  0  0  0  0
   63.6480   33.4000   48.3750 C   0  0  0  0  0  0  0  0  0  0  0  0
   64.8510   33.1060   48.9270 F   0  0  0  0  0  0  0  0  0  0  0  0
   63.4270   33.1620   47.0160 C   0  0  0  0  0  0  0  0  0  0  0  0
   62.1880   33.4680   46.4440 C   0  0  0  0  0  0  0  0  0  0  0  0
   57.8170   30.7330   46.3450 N   0  0  0  0  0  0  0  0  0  0  0  0
   55.6206   29.0617   43.0606 H   0  0  0  0  0  0  0  0  0  0  0  0
   55.6488   30.7908   42.5747 H   0  0  0  0  0  0  0  0  0  0  0  0
   57.1684   29.8329   42.5747 H   0  0  0  0  0  0  0  0  0  0  0  0
   58.5751   28.9117   43.5886 H   0  0  0  0  0  0  0  0  0  0  0  0
   60.6950   28.6181   44.8789 H   0  0  0  0  0  0  0  0  0  0  0  0
   60.9444   29.6888   47.1215 H   0  0  0  0  0  0  0  0  0  0  0  0
   59.7537   29.5030   49.5907 H   0  0  0  0  0  0  0  0  0  0  0  0
   59.8372   31.3039   51.5401 H   0  0  0  0  0  0  0  0  0  0  0  0
   56.3680   33.8670   47.2270 H   0  0  0  0  0  0  0  0  0  0  0  0
   59.7736   33.9171   45.6113 H   0  0  0  0  0  0  0  0  0  0  0  0
   59.7612   35.4692   46.5390 H   0  0  0  0  0  0  0  0  0  0  0  0
   60.5855   34.6525   49.2266 H   0  0  0  0  0  0  0  0  0  0  0  0
   62.8030   34.1206   50.2365 H   0  0  0  0  0  0  0  0  0  0  0  0
   64.2280   32.7337   46.3956 H   0  0  0  0  0  0  0  0  0  0  0  0
   62.0149   33.2728   45.3754 H   0  0  0  0  0  0  0  0  0  0  0  0
   57.0320   31.2980   46.7400 H   0  0  0  0  0  0  0  0  0  0  0  0
  1  2  1  0
  2  3  1  0
  3  4  2  0
  4  5  1  0
  5  6  2  0
  6  7  1  0
  7  8  1  0
  8  9  1  0
  9 10  2  0
 10 11  1  0
 11 12  2  0
 12 13  1  0
 13 14  1  6
 13 15  1  0
 15 16  1  0
 16 17  2  0
 17 18  1  0
 18 19  2  0
 19 20  1  0
 19 21  1  0
 21 22  2  0
  7 23  2  0
 23  3  1  0
 12  8  1  0
 22 16  1  0
  1 24  1  0
  1 25  1  0
  1 26  1  0
  4 27  1  0
  5 28  1  0
  6 29  1  0
  9 30  1  0
 10 31  1  0
 14 32  1  0
 15 33  1  0
 15 34  1  0
 17 35  1  0
 18 36  1  0
 21 37  1  0
 22 38  1  0
 23 39  1  0
M  CHG  2  13   1  23   1
M  END
>  <UniqueID>  (23) 
23

>  <SMILES>  (23) 
COc1cccc(-n2ccnc2[S@+](O)Cc2ccc(F)cc2)[nH+]1

>  <Energy>  (23) 
69.16386434279534

>  <Genealogy>  (23) 
COc1cccc(-n2ccnc2[S+](O)Cc2ccc(F)cc2)[nH+]1 (protonated)
COc1cccc(-n2ccnc2[S@+](O)Cc2ccc(F)cc2)[nH+]1 (chirality)
COc1cccc(-n2ccnc2[S@+](O)Cc2ccc(F)cc2)[nH+]1 (3D coordinates assigned)
COc1cccc(-n2ccnc2[S@+](O)Cc2ccc(F)cc2)[nH+]1 (optimized conformer: 69.16386434279534 kcal/mol)

>  <smiles>  (23) 
COc1cccc(-n2ccnc2[S+]([O-])Cc2ccc(F)cc2)n1

>  <score_type>  (23) 
oracle

>  <origin>  (23) 
adg

>  <m_score__min__energy>  (23) 
-4.1100000000000003

>  <m_primary>  (23) 
energy

$$$$
23:0
     RDKit          3D

 61 63  0  0  0  0  0  0  0  0999 V2000
   56.2350   24.6200   45.3390 C   0  0  0  0  0  0  0  0  0  0  0  0
   56.4100   26.0170   45.8660 C   0  0  0  0  0  0  0  0  0  0  0  0
   55.4020   26.5920   46.3650 O   0  0  0  0  0  0  0  0  0  0  0  0
   57.7210   26.7330   45.8350 C   0  0  0  0  0  0  0  0  0  0  0  0
   58.7460   26.2910   46.6950 C   0  0  0  0  0  0  0  0  0  0  0  0
   60.0100   26.8900   46.6800 C   0  0  0  0  0  0  0  0  0  0  0  0
   61.0770   26.4080   47.6230 C   0  0  0  0  0  0  0  0  0  0  0  0
   60.2540   27.9570   45.8110 C   0  0  0  0  0  0  0  0  0  0  0  0
   59.2450   28.4210   44.9630 C   0  0  0  0  0  0  0  0  0  0  0  0
   57.9720   27.8220   44.9610 C   0  0  0  0  0  0  0  0  0  0  0  0
   56.9410   28.2810   44.1220 O   0  0  0  0  0  0  0  0  0  0  0  0
   57.0060   29.3650   43.1940 C   0  0  0  0  0  0  0  0  0  0  0  0
   56.2910   30.6020   43.7660 C   0  0  1  0  0  0  0  0  0  0  0  0
   55.4990   30.2670   44.8790 O   0  0  0  0  0  0  0  0  0  0  0  0
   57.2860   31.7360   44.0960 C   0  0  0  0  0  0  0  0  0  0  0  0
   57.4110   31.9220   45.5630 N   0  0  0  0  0  0  0  0  0  0  0  0
   57.7720   33.3120   45.9480 C   0  0  0  0  0  0  0  0  0  0  0  0
   59.2660   33.4680   46.2680 C   0  0  0  0  0  0  0  0  0  0  0  0
   59.6700   32.4950   47.2880 N   0  0  0  0  0  0  0  0  0  0  0  0
   60.8650   32.7140   48.0550 C   0  0  0  0  0  0  0  0  0  0  0  0
   60.9140   33.7560   49.0110 C   0  0  0  0  0  0  0  0  0  0  0  0
   59.7090   34.6130   49.2890 C   0  0  0  0  0  0  0  0  0  0  0  0
   62.0910   33.9600   49.7470 C   0  0  0  0  0  0  0  0  0  0  0  0
   63.2160   33.1630   49.5210 C   0  0  0  0  0  0  0  0  0  0  0  0
   63.1690   32.1320   48.5860 C   0  0  0  0  0  0  0  0  0  0  0  0
   61.9950   31.8860   47.8580 C   0  0  0  0  0  0  0  0  0  0  0  0
   61.9690   30.7600   46.8600 C   0  0  0  0  0  0  0  0  0  0  0  0
   58.8450   31.3090   47.5310 C   0  0  0  0  0  0  0  0  0  0  0  0
   58.2250   30.8560   46.2050 C   0  0  0  0  0  0  0  0  0  0  0  0
   56.1471   23.9185   46.1817 H   0  0  0  0  0  0  0  0  0  0  0  0
   55.3237   24.5713   44.7248 H   0  0  0  0  0  0  0  0  0  0  0  0
   57.1061   24.3480   44.7248 H   0  0  0  0  0  0  0  0  0  0  0  0
   58.5489   25.4612   47.3897 H   0  0  0  0  0  0  0  0  0  0  0  0
   60.7444   26.5583   48.6607 H   0  0  0  0  0  0  0  0  0  0  0  0
   61.2639   25.3380   47.4492 H   0  0  0  0  0  0  0  0  0  0  0  0
   62.0034   26.9750   47.4492 H   0  0  0  0  0  0  0  0  0  0  0  0
   61.2451   28.4338   45.7945 H   0  0  0  0  0  0  0  0  0  0  0  0
   59.4486   29.2655   44.2883 H   0  0  0  0  0  0  0  0  0  0  0  0
   58.0598   29.6129   42.9990 H   0  0  0  0  0  0  0  0  0  0  0  0
   56.5098   29.0656   42.2590 H   0  0  0  0  0  0  0  0  0  0  0  0
   55.6171   30.9818   42.9840 H   0  0  0  0  0  0  0  0  0  0  0  0
   56.1060   30.0840   45.6390 H   0  0  0  0  0  0  0  0  0  0  0  0
   58.2721   31.4820   43.6801 H   0  0  0  0  0  0  0  0  0  0  0  0
   56.9114   32.6712   43.6543 H   0  0  0  0  0  0  0  0  0  0  0  0
   57.5179   33.9851   45.1159 H   0  0  0  0  0  0  0  0  0  0  0  0
   57.2086   33.5619   46.8591 H   0  0  0  0  0  0  0  0  0  0  0  0
   59.8530   33.3000   45.3530 H   0  0  0  0  0  0  0  0  0  0  0  0
   59.4471   34.4837   46.6494 H   0  0  0  0  0  0  0  0  0  0  0  0
   59.5715   34.7108   50.3760 H   0  0  0  0  0  0  0  0  0  0  0  0
   59.8578   35.6093   48.8471 H   0  0  0  0  0  0  0  0  0  0  0  0
   58.8167   34.1455   48.8471 H   0  0  0  0  0  0  0  0  0  0  0  0
   62.1283   34.7536   50.5078 H   0  0  0  0  0  0  0  0  0  0  0  0
   64.1424   33.3506   50.0837 H   0  0  0  0  0  0  0  0  0  0  0  0
   64.0579   31.5065   48.4171 H   0  0  0  0  0  0  0  0  0  0  0  0
   61.9468   29.7980   47.3930 H   0  0  0  0  0  0  0  0  0  0  0  0
   61.0727   30.8502   46.2287 H   0  0  0  0  0  0  0  0  0  0  0  0
   62.8685   30.8087   46.2287 H   0  0  0  0  0  0  0  0  0  0  0  0
   59.4700   30.5021   47.9412 H   0  0  0  0  0  0  0  0  0  0  0  0
   58.0495   31.5494   48.2517 H   0  0  0  0  0  0  0  0  0  0  0  0
   59.0340   30.5678   45.5176 H   0  0  0  0  0  0  0  0  0  0  0  0
   57.5565   30.0095   46.4207 H   0  0  0  0  0  0  0  0  0  0  0  0
  1  2  1  0
  2  3  2  0
  2  4  1  0
  4  5  2  0
  5  6  1  0
  6  7  1  0
  6  8  2  0
  8  9  1  0
  9 10  2  0
 10 11  1  0
 11 12  1  0
 12 13  1  0
 13 14  1  0
 13 15  1  0
 15 16  1  0
 16 17  1  0
 17 18  1  0
 18 19  1  0
 19 20  1  0
 20 21  2  0
 21 22  1  0
 21 23  1  0
 23 24  2  0
 24 25  1  0
 25 26  2  0
 26 27  1  0
 19 28  1  0
 28 29  1  0
 10  4  1  0
 29 16  1  0
 26 20  1  0
  1 30  1  0
  1 31  1  0
  1 32  1  0
  5 33  1  0
  7 34  1  0
  7 35  1  0
  7 36  1  0
  8 37  1  0
  9 38  1  0
 12 39  1  0
 12 40  1  0
 13 41  1  6
 14 42  1  0
 15 43  1  0
 15 44  1  0
 17 45  1  0
 17 46  1  0
 18 47  1  0
 18 48  1  0
 22 49  1  0
 22 50  1  0
 22 51  1  0
 23 52  1  0
 24 53  1  0
 25 54  1  0
 27 55  1  0
 27 56  1  0
 27 57  1  0
 28 58  1  0
 28 59  1  0
 29 60  1  0
 29 61  1  0
M  END
>  <UniqueID>  (24) 
24

>  <SMILES>  (24) 
CC(=O)c1cc(C)ccc1OC[C@@H](O)CN1CCN(c2c(C)cccc2C)CC1

>  <Energy>  (24) 
80.57064853527524

>  <Genealogy>  (24) 
CC(=O)c1cc(C)ccc1OC[C@@H](O)CN1CCN(c2c(C)cccc2C)CC1 (chirality)
CC(=O)c1cc(C)ccc1OC[C@@H](O)CN1CCN(c2c(C)cccc2C)CC1 (3D coordinates assigned)
CC(=O)c1cc(C)ccc1OC[C@@H](O)CN1CCN(c2c(C)cccc2C)CC1 (nonaromatic ring conformer: 80.57064853527524 kcal/mol)

>  <smiles>  (24) 
CC(=O)c1cc(C)ccc1OCC(O)CN1CCN(c2c(C)cccc2C)CC1

>  <score_type>  (24) 
oracle

>  <origin>  (24) 
adg

>  <m_score__min__energy>  (24) 
-9.1199999999999992

>  <m_primary>  (24) 
energy

$$$$
24:0
     RDKit          3D

 42 43  0  0  0  0  0  0  0  0999 V2000
   58.2510   33.3470   44.1350 C   0  0  0  0  0  0  0  0  0  0  0  0
   57.2430   33.1620   45.2600 C   0  0  0  0  0  0  0  0  0  0  0  0
   56.7610   31.8360   45.2340 O   0  0  0  0  0  0  0  0  0  0  0  0
   56.9980   31.2700   43.9620 C   0  0  0  0  0  0  0  0  0  0  0  0
   56.3580   29.8830   43.8910 C   0  0  0  0  0  0  0  0  0  0  0  0
   56.1330   29.3240   45.2370 N   0  0  0  0  0  0  0  0  0  0  0  0
   57.0250   28.1940   45.5460 C   0  0  0  0  0  0  0  0  0  0  0  0
   58.1130   28.6070   46.4980 C   0  0  0  0  0  0  0  0  0  0  0  0
   58.4390   29.9250   46.6070 N   0  0  0  0  0  0  0  0  0  0  0  0
   59.4250   30.3710   47.4330 C   0  0  0  0  0  0  0  0  0  0  0  0
   59.6930   31.8260   47.5420 C   0  0  0  0  0  0  0  0  0  0  0  0
   60.4010   32.4670   46.5060 C   0  0  0  0  0  0  0  0  0  0  0  0
   60.7260   33.8210   46.5960 C   0  0  0  0  0  0  0  0  0  0  0  0
   60.3530   34.5560   47.7190 C   0  0  0  0  0  0  0  0  0  0  0  0
   59.6450   33.9430   48.7530 C   0  0  0  0  0  0  0  0  0  0  0  0
   59.2960   32.5830   48.6750 C   0  0  0  0  0  0  0  0  0  0  0  0
   58.5200   31.9700   49.8120 C   0  0  0  0  0  0  0  0  0  0  0  0
   60.1480   29.4420   48.1990 C   0  0  0  0  0  0  0  0  0  0  0  0
   59.8490   28.0840   48.0940 C   0  0  0  0  0  0  0  0  0  0  0  0
   58.8310   27.6560   47.2390 C   0  0  0  0  0  0  0  0  0  0  0  0
   58.5540   26.3320   47.1370 F   0  0  0  0  0  0  0  0  0  0  0  0
   59.2479   33.5300   44.5624 H   0  0  0  0  0  0  0  0  0  0  0  0
   58.2790   32.4390   43.5147 H   0  0  0  0  0  0  0  0  0  0  0  0
   57.9547   34.2058   43.5147 H   0  0  0  0  0  0  0  0  0  0  0  0
   57.7297   33.3582   46.2268 H   0  0  0  0  0  0  0  0  0  0  0  0
   56.4061   33.8634   45.1271 H   0  0  0  0  0  0  0  0  0  0  0  0
   56.5599   31.9156   43.1866 H   0  0  0  0  0  0  0  0  0  0  0  0
   58.0820   31.1812   43.7976 H   0  0  0  0  0  0  0  0  0  0  0  0
   55.3924   29.9608   43.3699 H   0  0  0  0  0  0  0  0  0  0  0  0
   57.0419   29.2138   43.3484 H   0  0  0  0  0  0  0  0  0  0  0  0
   56.3480   30.0820   45.9270 H   0  0  0  0  0  0  0  0  0  0  0  0
   56.4355   27.3857   46.0032 H   0  0  0  0  0  0  0  0  0  0  0  0
   57.4912   27.8513   44.6105 H   0  0  0  0  0  0  0  0  0  0  0  0
   60.7008   31.8936   45.6164 H   0  0  0  0  0  0  0  0  0  0  0  0
   61.2776   34.3088   45.7788 H   0  0  0  0  0  0  0  0  0  0  0  0
   60.6171   35.6214   47.7906 H   0  0  0  0  0  0  0  0  0  0  0  0
   59.3569   34.5293   49.6380 H   0  0  0  0  0  0  0  0  0  0  0  0
   58.9452   32.3059   50.7693 H   0  0  0  0  0  0  0  0  0  0  0  0
   57.4674   32.2831   49.7484 H   0  0  0  0  0  0  0  0  0  0  0  0
   58.5809   30.8735   49.7484 H   0  0  0  0  0  0  0  0  0  0  0  0
   60.9443   29.7831   48.8768 H   0  0  0  0  0  0  0  0  0  0  0  0
   60.4154   27.3493   48.6851 H   0  0  0  0  0  0  0  0  0  0  0  0
  1  2  1  0
  2  3  1  0
  3  4  1  0
  4  5  1  0
  5  6  1  0
  6  7  1  0
  7  8  1  0
  8  9  2  0
  9 10  1  0
 10 11  1  0
 11 12  2  0
 12 13  1  0
 13 14  2  0
 14 15  1  0
 15 16  2  0
 16 17  1  0
 10 18  2  0
 18 19  1  0
 19 20  2  0
 20 21  1  0
 20  8  1  0
 16 11  1  0
  1 22  1  0
  1 23  1  0
  1 24  1  0
  2 25  1  0
  2 26  1  0
  4 27  1  0
  4 28  1  0
  5 29  1  0
  5 30  1  0
  6 31  1  0
  7 32  1  0
  7 33  1  0
 12 34  1  0
 13 35  1  0
 14 36  1  0
 15 37  1  0
 17 38  1  0
 17 39  1  0
 17 40  1  0
 18 41  1  0
 19 42  1  0
M  END
>  <UniqueID>  (25) 
25

>  <SMILES>  (25) 
CCOCCNCc1nc(-c2ccccc2C)ccc1F

>  <Energy>  (25) 
41.28335555505542

>  <Genealogy>  (25) 
CCOCCNCc1nc(-c2ccccc2C)ccc1F (3D coordinates assigned)
CCOCCNCc1nc(-c2ccccc2C)ccc1F (optimized conformer: 41.28335555505542 kcal/mol)

>  <smiles>  (25) 
CCOCCNCc1nc(-c2ccccc2C)ccc1F

>  <score_type>  (25) 
oracle

>  <origin>  (25) 
adg

>  <m_score__min__energy>  (25) 
-6.9500000000000002

>  <m_primary>  (25) 
energy

$$$$
25:0
     RDKit          3D

 73 77  0  0  0  0  0  0  0  0999 V2000
   57.4020   25.2010   43.7880 C   0  0  0  0  0  0  0  0  0  0  0  0
   58.0030   24.7260   45.1180 C   0  0  0  0  0  0  0  0  0  0  0  0
   57.6960   25.6060   46.2690 N   0  0  0  0  0  0  0  0  0  0  0  0
   56.6440   25.0450   47.1380 C   0  0  0  0  0  0  0  0  0  0  0  0
   58.9080   25.9910   47.0270 C   0  0  0  0  0  0  0  0  0  0  0  0
   59.0390   27.5150   47.1480 C   0  0  0  0  0  0  0  0  0  0  0  0
   57.9330   28.2040   46.4840 N   0  0  0  0  0  0  0  0  0  0  0  0
   58.0640   29.5670   46.0620 C   0  0  0  0  0  0  0  0  0  0  0  0
   57.6620   29.9960   44.7760 C   0  0  0  0  0  0  0  0  0  0  0  0
   57.0380   29.1030   43.8840 C   0  0  0  0  0  0  0  0  0  0  0  0
   56.5910   29.5410   42.6400 C   0  0  0  0  0  0  0  0  0  0  0  0
   56.7390   30.8740   42.2700 C   0  0  0  0  0  0  0  0  0  0  0  0
   57.3540   31.7820   43.1330 C   0  0  0  0  0  0  0  0  0  0  0  0
   57.8560   31.3680   44.3900 C   0  0  0  0  0  0  0  0  0  0  0  0
   58.4970   32.2520   45.2480 N   0  0  0  0  0  0  0  0  0  0  0  0
   58.9630   33.5730   44.7970 C   0  0  0  0  0  0  0  0  0  0  0  0
   58.7550   31.8290   46.5280 C   0  0  0  0  0  0  0  0  0  0  0  0
   58.5850   30.5220   46.9220 C   0  0  0  0  0  0  0  0  0  0  0  0
   58.9790   30.3400   48.1630 O   0  0  0  0  0  0  0  0  0  0  0  0
   59.3800   31.5090   48.6110 C   0  0  0  0  0  0  0  0  0  0  0  0
   59.8650   31.7880   49.8850 C   0  0  0  0  0  0  0  0  0  0  0  0
   60.2050   33.1220   50.1980 C   0  0  0  0  0  0  0  0  0  0  0  0
   60.7170   33.4530   51.5080 N   0  0  0  0  0  0  0  0  0  0  0  0
   62.1900   33.4860   51.5310 C   0  0  0  0  0  0  0  0  0  0  0  0
   62.8340   32.1260   51.1920 C   0  0  0  0  0  0  0  0  0  0  0  0
   63.5680   32.1720   49.9080 N   0  0  0  0  0  0  0  0  0  0  0  0
   63.9940   33.5520   49.5400 C   0  0  0  0  0  0  0  0  0  0  0  0
   63.1880   34.1460   48.3760 C   0  0  0  0  0  0  0  0  0  0  0  0
   63.2870   33.2620   47.1230 C   0  0  0  0  0  0  0  0  0  0  0  0
   63.3770   31.7640   47.4600 C   0  0  0  0  0  0  0  0  0  0  0  0
   62.8040   31.4690   48.8500 C   0  0  0  0  0  0  0  0  0  0  0  0
   60.0260   34.1340   49.2220 C   0  0  0  0  0  0  0  0  0  0  0  0
   59.5390   33.8270   47.9410 C   0  0  0  0  0  0  0  0  0  0  0  0
   59.2550   32.4890   47.6460 C   0  0  0  0  0  0  0  0  0  0  0  0
   56.5534   25.8717   43.9879 H   0  0  0  0  0  0  0  0  0  0  0  0
   58.1679   25.7405   43.2115 H   0  0  0  0  0  0  0  0  0  0  0  0
   57.0540   24.3312   43.2115 H   0  0  0  0  0  0  0  0  0  0  0  0
   57.6094   23.7222   45.3360 H   0  0  0  0  0  0  0  0  0  0  0  0
   59.0959   24.7361   44.9937 H   0  0  0  0  0  0  0  0  0  0  0  0
   56.9216   25.1930   48.1921 H   0  0  0  0  0  0  0  0  0  0  0  0
   55.6904   25.5544   46.9349 H   0  0  0  0  0  0  0  0  0  0  0  0
   56.5357   23.9693   46.9349 H   0  0  0  0  0  0  0  0  0  0  0  0
   58.8509   25.5565   48.0359 H   0  0  0  0  0  0  0  0  0  0  0  0
   59.7871   25.6124   46.4850 H   0  0  0  0  0  0  0  0  0  0  0  0
   59.0429   27.7897   48.2131 H   0  0  0  0  0  0  0  0  0  0  0  0
   59.9769   27.8198   46.6607 H   0  0  0  0  0  0  0  0  0  0  0  0
   56.9830   27.7700   46.4540 H   0  0  0  0  0  0  0  0  0  0  0  0
   56.9024   28.0502   44.1723 H   0  0  0  0  0  0  0  0  0  0  0  0
   56.1186   28.8297   41.9466 H   0  0  0  0  0  0  0  0  0  0  0  0
   56.3691   31.2142   41.2915 H   0  0  0  0  0  0  0  0  0  0  0  0
   57.4501   32.8356   42.8318 H   0  0  0  0  0  0  0  0  0  0  0  0
   59.1848   34.2019   45.6718 H   0  0  0  0  0  0  0  0  0  0  0  0
   59.8732   33.4535   44.1910 H   0  0  0  0  0  0  0  0  0  0  0  0
   58.1793   34.0511   44.1910 H   0  0  0  0  0  0  0  0  0  0  0  0
   59.9808   30.9878   50.6309 H   0  0  0  0  0  0  0  0  0  0  0  0
   60.3600   34.4010   51.7720 H   0  0  0  0  0  0  0  0  0  0  0  0
   60.3580   32.7850   52.2290 H   0  0  0  0  0  0  0  0  0  0  0  0
   62.5345   34.2287   50.7963 H   0  0  0  0  0  0  0  0  0  0  0  0
   62.4950   33.7456   52.5555 H   0  0  0  0  0  0  0  0  0  0  0  0
   63.5359   31.8543   51.9942 H   0  0  0  0  0  0  0  0  0  0  0  0
   62.0309   31.3799   51.1009 H   0  0  0  0  0  0  0  0  0  0  0  0
   63.8693   34.2019   50.4186 H   0  0  0  0  0  0  0  0  0  0  0  0
   65.0428   33.4932   49.2137 H   0  0  0  0  0  0  0  0  0  0  0  0
   62.1326   34.2274   48.6751 H   0  0  0  0  0  0  0  0  0  0  0  0
   63.6009   35.1370   48.1365 H   0  0  0  0  0  0  0  0  0  0  0  0
   62.3947   33.4302   46.5021 H   0  0  0  0  0  0  0  0  0  0  0  0
   64.2096   33.5395   46.5922 H   0  0  0  0  0  0  0  0  0  0  0  0
   62.8091   31.1936   46.7102 H   0  0  0  0  0  0  0  0  0  0  0  0
   64.4370   31.4703   47.4527 H   0  0  0  0  0  0  0  0  0  0  0  0
   61.7561   31.8018   48.8836 H   0  0  0  0  0  0  0  0  0  0  0  0
   62.8746   30.3865   49.0320 H   0  0  0  0  0  0  0  0  0  0  0  0
   60.2724   35.1765   49.4718 H   0  0  0  0  0  0  0  0  0  0  0  0
   59.3851   34.6164   47.1905 H   0  0  0  0  0  0  0  0  0  0  0  0
  1  2  1  0
  2  3  1  0
  3  4  1  0
  3  5  1  0
  5  6  1  0
  6  7  1  0
  7  8  1  0
  8  9  2  0
  9 10  1  0
 10 11  2  0
 11 12  1  0
 12 13  2  0
 13 14  1  0
 14 15  2  0
 15 16  1  0
 15 17  1  0
 17 18  2  0
 18 19  1  0
 19 20  1  0
 20 21  2  0
 21 22  1  0
 22 23  1  0
 23 24  1  0
 24 25  1  0
 25 26  1  0
 26 27  1  0
 27 28  1  0
 28 29  1  0
 29 30  1  0
 30 31  1  0
 22 32  2  0
 32 33  1  0
 33 34  2  0
 18  8  1  0
 34 20  1  0
 14  9  1  0
 34 17  1  0
 31 26  1  0
  1 35  1  0
  1 36  1  0
  1 37  1  0
  2 38  1  0
  2 39  1  0
  4 40  1  0
  4 41  1  0
  4 42  1  0
  5 43  1  0
  5 44  1  0
  6 45  1  0
  6 46  1  0
  7 47  1  0
 10 48  1  0
 11 49  1  0
 12 50  1  0
 13 51  1  0
 16 52  1  0
 16 53  1  0
 16 54  1  0
 21 55  1  0
 23 56  1  0
 23 57  1  0
 24 58  1  0
 24 59  1  0
 25 60  1  0
 25 61  1  0
 27 62  1  0
 27 63  1  0
 28 64  1  0
 28 65  1  0
 29 66  1  0
 29 67  1  0
 30 68  1  0
 30 69  1  0
 31 70  1  0
 31 71  1  0
 32 72  1  0
 33 73  1  0
M  CHG  2  15   1  23   1
M  END
>  <UniqueID>  (26) 
26

>  <SMILES>  (26) 
CCN(C)CCNc1c2ccccc2[n+](C)c2c1oc1cc([NH2+]CCN3CCCCC3)ccc12

>  <Energy>  (26) 
144.94179723434831

>  <Genealogy>  (26) 
CCN(C)CCNc1c2ccccc2[n+](C)c2c1oc1cc([NH2+]CCN3CCCCC3)ccc12 (protonated)
CCN(C)CCNc1c2ccccc2[n+](C)c2c1oc1cc([NH2+]CCN3CCCCC3)ccc12 (3D coordinates assigned)
CCN(C)CCNc1c2ccccc2[n+](C)c2c1oc1cc([NH2+]CCN3CCCCC3)ccc12 (nonaromatic ring conformer: 144.94179723434831 kcal/mol)

>  <smiles>  (26) 
CCN(C)CCNc1c2ccccc2[n+](C)c2c1oc1cc(NCCN3CCCCC3)ccc12

>  <score_type>  (26) 
oracle

>  <origin>  (26) 
adg

>  <m_score__min__energy>  (26) 
-5.7599999999999998

>  <m_primary>  (26) 
energy

$$$$
26:0
     RDKit          3D

 15 15  0  0  0  0  0  0  0  0999 V2000
   56.2930   29.3880   42.6180 C   0  0  0  0  0  0  0  0  0  0  0  0
   56.2410   30.0950   43.9360 C   0  0  0  0  0  0  0  0  0  0  0  0
   55.5230   29.6230   44.8590 O   0  0  0  0  0  0  0  0  0  0  0  0
   57.0210   31.3310   44.1590 C   0  0  0  0  0  0  0  0  0  0  0  0
   57.7680   31.9210   43.1260 C   0  0  0  0  0  0  0  0  0  0  0  0
   58.4720   33.0570   43.3720 N   0  0  0  0  0  0  0  0  0  0  0  0
   58.4680   33.6380   44.6000 C   0  0  0  0  0  0  0  0  0  0  0  0
   57.7260   33.0580   45.6290 C   0  0  0  0  0  0  0  0  0  0  0  0
   57.0230   31.9220   45.3870 N   0  0  0  0  0  0  0  0  0  0  0  0
   56.3727   28.3039   42.7863 H   0  0  0  0  0  0  0  0  0  0  0  0
   55.3765   29.6043   42.0494 H   0  0  0  0  0  0  0  0  0  0  0  0
   57.1680   29.7361   42.0494 H   0  0  0  0  0  0  0  0  0  0  0  0
   57.7830   31.4664   42.1244 H   0  0  0  0  0  0  0  0  0  0  0  0
   59.0445   34.5572   44.7812 H   0  0  0  0  0  0  0  0  0  0  0  0
   57.7106   33.5173   46.6284 H   0  0  0  0  0  0  0  0  0  0  0  0
  1  2  1  0
  2  3  2  0
  2  4  1  0
  4  5  2  0
  5  6  1  0
  6  7  2  0
  7  8  1  0
  8  9  2  0
  9  4  1  0
  1 10  1  0
  1 11  1  0
  1 12  1  0
  5 13  1  0
  7 14  1  0
  8 15  1  0
M  END
>  <UniqueID>  (27) 
27

>  <SMILES>  (27) 
CC(=O)c1cnccn1

>  <Energy>  (27) 
14.185460088752214

>  <Genealogy>  (27) 
CC(=O)c1cnccn1 (3D coordinates assigned)
CC(=O)c1cnccn1 (optimized conformer: 14.185460088752214 kcal/mol)

>  <smiles>  (27) 
CC(=O)c1cnccn1

>  <score_type>  (27) 
oracle

>  <origin>  (27) 
adg

>  <m_score__min__energy>  (27) 
-4.5899999999999999

>  <m_primary>  (27) 
energy

$$$$
27:0
     RDKit          3D

 64 66  0  0  0  0  0  0  0  0999 V2000
   60.8040   28.6830   44.8710 C   0  0  0  0  0  0  0  0  0  0  0  0
   60.4330   29.7160   45.9370 C   0  0  0  0  0  0  0  0  0  0  0  0
   58.9680   29.7260   46.1510 N   0  0  0  0  0  0  0  0  0  0  0  0
   58.5400   28.5980   47.0100 C   0  0  0  0  0  0  0  0  0  0  0  0
   59.4650   28.4730   48.2150 C   0  0  0  0  0  0  0  0  0  0  0  0
   58.2310   29.7370   44.8670 C   0  0  0  0  0  0  0  0  0  0  0  0
   57.9150   31.1730   44.4590 C   0  0  0  0  0  0  0  0  0  0  0  0
   57.1040   31.7600   45.4540 O   0  0  0  0  0  0  0  0  0  0  0  0
   57.3710   33.1430   45.5780 C   0  0  0  0  0  0  0  0  0  0  0  0
   58.1830   33.4520   46.8390 C   0  0  0  0  0  0  0  0  0  0  0  0
   58.9230   32.2730   47.2920 N   0  0  0  0  0  0  0  0  0  0  0  0
   59.9400   32.3580   48.3070 C   0  0  0  0  0  0  0  0  0  0  0  0
   61.1980   32.9060   48.0010 C   0  0  0  0  0  0  0  0  0  0  0  0
   61.4900   33.3730   46.7000 C   0  0  0  0  0  0  0  0  0  0  0  0
   62.7580   33.8470   46.3780 C   0  0  0  0  0  0  0  0  0  0  0  0
   63.7620   33.8530   47.3380 C   0  0  0  0  0  0  0  0  0  0  0  0
   63.4940   33.4150   48.6350 C   0  0  0  0  0  0  0  0  0  0  0  0
   62.1990   32.9690   49.0070 C   0  0  0  0  0  0  0  0  0  0  0  0
   61.9060   32.5850   50.3030 N   0  0  0  0  0  0  0  0  0  0  0  0
   62.8430   32.9210   51.4000 C   0  0  0  0  0  0  0  0  0  0  0  0
   60.7220   31.9280   50.5820 C   0  0  0  0  0  0  0  0  0  0  0  0
   60.4920   31.3080   51.8350 C   0  0  0  0  0  0  0  0  0  0  0  0
   59.2530   30.7250   52.1500 C   0  0  0  0  0  0  0  0  0  0  0  0
   59.0000   30.1330   53.3980 O   0  0  0  0  0  0  0  0  0  0  0  0
   58.4610   30.8140   54.5260 C   0  0  0  0  0  0  0  0  0  0  0  0
   58.2280   30.7270   51.2020 C   0  0  0  0  0  0  0  0  0  0  0  0
   56.9990   30.1410   51.5510 O   0  0  0  0  0  0  0  0  0  0  0  0
   55.8680   30.8590   52.0320 C   0  0  0  0  0  0  0  0  0  0  0  0
   58.4510   31.2980   49.9410 C   0  0  0  0  0  0  0  0  0  0  0  0
   59.7000   31.8560   49.6020 C   0  0  0  0  0  0  0  0  0  0  0  0
   61.1371   27.7554   45.3595 H   0  0  0  0  0  0  0  0  0  0  0  0
   59.9255   28.4719   44.2436 H   0  0  0  0  0  0  0  0  0  0  0  0
   61.6161   29.0790   44.2436 H   0  0  0  0  0  0  0  0  0  0  0  0
   60.9364   29.4608   46.8811 H   0  0  0  0  0  0  0  0  0  0  0  0
   60.7532   30.7124   45.5982 H   0  0  0  0  0  0  0  0  0  0  0  0
   57.5119   28.7763   47.3582 H   0  0  0  0  0  0  0  0  0  0  0  0
   58.5829   27.6664   46.4266 H   0  0  0  0  0  0  0  0  0  0  0  0
   58.8750   28.5527   49.1400 H   0  0  0  0  0  0  0  0  0  0  0  0
   59.9735   27.4980   48.1873 H   0  0  0  0  0  0  0  0  0  0  0  0
   60.2140   29.2781   48.1873 H   0  0  0  0  0  0  0  0  0  0  0  0
   58.8482   29.2646   44.0886 H   0  0  0  0  0  0  0  0  0  0  0  0
   57.2899   29.1800   44.9860 H   0  0  0  0  0  0  0  0  0  0  0  0
   58.8502   31.7436   44.3600 H   0  0  0  0  0  0  0  0  0  0  0  0
   57.3871   31.1801   43.4940 H   0  0  0  0  0  0  0  0  0  0  0  0
   57.9393   33.4768   44.6973 H   0  0  0  0  0  0  0  0  0  0  0  0
   56.4097   33.6728   45.6507 H   0  0  0  0  0  0  0  0  0  0  0  0
   58.8956   34.2604   46.6182 H   0  0  0  0  0  0  0  0  0  0  0  0
   57.4883   33.7556   47.6360 H   0  0  0  0  0  0  0  0  0  0  0  0
   58.5570   31.3290   47.0300 H   0  0  0  0  0  0  0  0  0  0  0  0
   60.7038   33.3617   45.9307 H   0  0  0  0  0  0  0  0  0  0  0  0
   62.9654   34.2170   45.3631 H   0  0  0  0  0  0  0  0  0  0  0  0
   64.7707   34.2040   47.0748 H   0  0  0  0  0  0  0  0  0  0  0  0
   64.3007   33.4153   49.3828 H   0  0  0  0  0  0  0  0  0  0  0  0
   62.3520   32.7449   52.3685 H   0  0  0  0  0  0  0  0  0  0  0  0
   63.7396   32.2884   51.3231 H   0  0  0  0  0  0  0  0  0  0  0  0
   63.1332   33.9792   51.3231 H   0  0  0  0  0  0  0  0  0  0  0  0
   61.3023   31.2825   52.5785 H   0  0  0  0  0  0  0  0  0  0  0  0
   58.8322   30.3451   55.4492 H   0  0  0  0  0  0  0  0  0  0  0  0
   58.7714   31.8690   54.5002 H   0  0  0  0  0  0  0  0  0  0  0  0
   57.3629   30.7542   54.5002 H   0  0  0  0  0  0  0  0  0  0  0  0
   55.8725   30.8561   53.1320 H   0  0  0  0  0  0  0  0  0  0  0  0
   55.9101   31.8961   51.6679 H   0  0  0  0  0  0  0  0  0  0  0  0
   54.9473   30.3796   51.6679 H   0  0  0  0  0  0  0  0  0  0  0  0
   57.6359   31.3107   49.2025 H   0  0  0  0  0  0  0  0  0  0  0  0
  1  2  1  0
  2  3  1  0
  3  4  1  0
  4  5  1  0
  3  6  1  0
  6  7  1  0
  7  8  1  0
  8  9  1  0
  9 10  1  0
 10 11  1  0
 11 12  1  0
 12 13  2  0
 13 14  1  0
 14 15  2  0
 15 16  1  0
 16 17  2  0
 17 18  1  0
 18 19  2  0
 19 20  1  0
 19 21  1  0
 21 22  2  0
 22 23  1  0
 23 24  1  0
 24 25  1  0
 23 26  2  0
 26 27  1  0
 27 28  1  0
 26 29  1  0
 29 30  2  0
 30 12  1  0
 18 13  1  0
 30 21  1  0
  1 31  1  0
  1 32  1  0
  1 33  1  0
  2 34  1  0
  2 35  1  0
  4 36  1  0
  4 37  1  0
  5 38  1  0
  5 39  1  0
  5 40  1  0
  6 41  1  0
  6 42  1  0
  7 43  1  0
  7 44  1  0
  9 45  1  0
  9 46  1  0
 10 47  1  0
 10 48  1  0
 11 49  1  0
 14 50  1  0
 15 51  1  0
 16 52  1  0
 17 53  1  0
 20 54  1  0
 20 55  1  0
 20 56  1  0
 22 57  1  0
 25 58  1  0
 25 59  1  0
 25 60  1  0
 28 61  1  0
 28 62  1  0
 28 63  1  0
 29 64  1  0
M  CHG  1  19   1
M  END
>  <UniqueID>  (28) 
28

>  <SMILES>  (28) 
CCN(CC)CCOCCNc1c2ccccc2[n+](C)c2cc(OC)c(OC)cc12

>  <Energy>  (28) 
86.85942991656972

>  <Genealogy>  (28) 
CCN(CC)CCOCCNc1c2ccccc2[n+](C)c2cc(OC)c(OC)cc12 (3D coordinates assigned)
CCN(CC)CCOCCNc1c2ccccc2[n+](C)c2cc(OC)c(OC)cc12 (optimized conformer: 86.85942991656972 kcal/mol)

>  <smiles>  (28) 
CCN(CC)CCOCCNc1c2ccccc2[n+](C)c2cc(OC)c(OC)cc12

>  <score_type>  (28) 
oracle

>  <origin>  (28) 
adg

>  <m_score__min__energy>  (28) 
-5.7800000000000002

>  <m_primary>  (28) 
energy

$$$$
28:0
     RDKit          3D

 47 49  0  0  0  0  0  0  0  0999 V2000
   63.6450   33.4460   46.7690 C   0  0  0  0  0  0  0  0  0  0  0  0
   62.7480   32.9380   47.9070 C   0  0  0  0  0  0  0  0  0  0  0  0
   62.1380   31.5710   47.5550 C   0  0  0  0  0  0  0  0  0  0  0  0
   61.6790   33.9720   48.3480 C   0  0  0  0  0  0  0  0  0  0  0  0
   60.2270   33.4440   48.4190 C   0  0  0  0  0  0  0  0  0  0  0  0
   59.3300   33.9340   47.3050 C   0  0  0  0  0  0  0  0  0  0  0  0
   58.8790   35.1150   47.3400 O   0  0  0  0  0  0  0  0  0  0  0  0
   58.9320   33.0620   46.2280 N   0  0  0  0  0  0  0  0  0  0  0  0
   58.5690   33.5860   44.9020 C   0  0  0  0  0  0  0  0  0  0  0  0
   57.3950   32.7950   44.2880 C   0  0  0  0  0  0  0  0  0  0  0  0
   57.2160   31.4540   44.8910 N   0  0  0  0  0  0  0  0  0  0  0  0
   56.4030   30.6080   44.0010 C   0  0  0  0  0  0  0  0  0  0  0  0
   55.9920   29.3410   44.7410 C   0  0  0  0  0  0  0  0  0  0  0  0
   57.1990   28.6370   45.2940 C   0  0  0  0  0  0  0  0  0  0  0  0
   57.1150   27.2680   45.5950 C   0  0  0  0  0  0  0  0  0  0  0  0
   58.2230   26.5890   46.1030 C   0  0  0  0  0  0  0  0  0  0  0  0
   59.4230   27.2680   46.3150 C   0  0  0  0  0  0  0  0  0  0  0  0
   60.5040   26.6030   46.7910 F   0  0  0  0  0  0  0  0  0  0  0  0
   59.5140   28.6330   46.0300 C   0  0  0  0  0  0  0  0  0  0  0  0
   58.3950   29.3450   45.5530 C   0  0  0  0  0  0  0  0  0  0  0  0
   58.5210   30.8280   45.2090 C   0  0  2  0  0  0  0  0  0  0  0  0
   59.1320   31.6130   46.3870 C   0  0  0  0  0  0  0  0  0  0  0  0
   64.5280   33.9461   47.1935 H   0  0  0  0  0  0  0  0  0  0  0  0
   63.9674   32.5964   46.1491 H   0  0  0  0  0  0  0  0  0  0  0  0
   63.0822   34.1594   46.1491 H   0  0  0  0  0  0  0  0  0  0  0  0
   63.3922   32.7987   48.7877 H   0  0  0  0  0  0  0  0  0  0  0  0
   61.8958   31.0283   48.4806 H   0  0  0  0  0  0  0  0  0  0  0  0
   61.2207   31.7194   46.9663 H   0  0  0  0  0  0  0  0  0  0  0  0
   62.8611   30.9874   46.9663 H   0  0  0  0  0  0  0  0  0  0  0  0
   61.9550   34.3385   49.3478 H   0  0  0  0  0  0  0  0  0  0  0  0
   61.6776   34.7523   47.5727 H   0  0  0  0  0  0  0  0  0  0  0  0
   60.2579   32.3452   48.3779 H   0  0  0  0  0  0  0  0  0  0  0  0
   59.7993   33.8257   49.3578 H   0  0  0  0  0  0  0  0  0  0  0  0
   58.2763   34.6416   45.0018 H   0  0  0  0  0  0  0  0  0  0  0  0
   59.4404   33.4845   44.2384 H   0  0  0  0  0  0  0  0  0  0  0  0
   56.4698   33.3712   44.4362 H   0  0  0  0  0  0  0  0  0  0  0  0
   57.6231   32.6463   43.2222 H   0  0  0  0  0  0  0  0  0  0  0  0
   55.5033   31.1600   43.6913 H   0  0  0  0  0  0  0  0  0  0  0  0
   56.9920   30.3388   43.1119 H   0  0  0  0  0  0  0  0  0  0  0  0
   55.3183   29.6080   45.5686 H   0  0  0  0  0  0  0  0  0  0  0  0
   55.4808   28.6685   44.0364 H   0  0  0  0  0  0  0  0  0  0  0  0
   56.1710   26.7282   45.4295 H   0  0  0  0  0  0  0  0  0  0  0  0
   58.1502   25.5166   46.3367 H   0  0  0  0  0  0  0  0  0  0  0  0
   60.4693   29.1575   46.1795 H   0  0  0  0  0  0  0  0  0  0  0  0
   59.1700   30.8729   44.3220 H   0  0  0  0  0  0  0  0  0  0  0  0
   58.6530   31.2861   47.3217 H   0  0  0  0  0  0  0  0  0  0  0  0
   60.2135   31.4136   46.4120 H   0  0  0  0  0  0  0  0  0  0  0  0
  1  2  1  0
  2  3  1  0
  2  4  1  0
  4  5  1  0
  5  6  1  0
  6  7  2  0
  6  8  1  0
  8  9  1  0
  9 10  1  0
 10 11  1  0
 11 12  1  0
 12 13  1  0
 13 14  1  0
 14 15  2  0
 15 16  1  0
 16 17  2  0
 17 18  1  0
 17 19  1  0
 19 20  2  0
 20 21  1  0
 21 22  1  0
 22  8  1  0
 21 11  1  0
 20 14  1  0
  1 23  1  0
  1 24  1  0
  1 25  1  0
  2 26  1  0
  3 27  1  0
  3 28  1  0
  3 29  1  0
  4 30  1  0
  4 31  1  0
  5 32  1  0
  5 33  1  0
  9 34  1  0
  9 35  1  0
 10 36  1  0
 10 37  1  0
 12 38  1  0
 12 39  1  0
 13 40  1  0
 13 41  1  0
 15 42  1  0
 16 43  1  0
 19 44  1  0
 21 45  1  6
 22 46  1  0
 22 47  1  0
M  END
>  <UniqueID>  (29) 
29

>  <SMILES>  (29) 
CC(C)CCC(=O)N1CCN2CCc3ccc(F)cc3[C@@H]2C1

>  <Energy>  (29) 
54.99769167455014

>  <Genealogy>  (29) 
CC(C)CCC(=O)N1CCN2CCc3ccc(F)cc3[C@@H]2C1 (chirality)
CC(C)CCC(=O)N1CCN2CCc3ccc(F)cc3[C@@H]2C1 (3D coordinates assigned)
CC(C)CCC(=O)N1CCN2CCc3ccc(F)cc3[C@@H]2C1 (nonaromatic ring conformer: 54.99769167455014 kcal/mol)

>  <smiles>  (29) 
CC(C)CCC(=O)N1CCN2CCc3ccc(F)cc3C2C1

>  <score_type>  (29) 
oracle

>  <origin>  (29) 
adg

>  <m_score__min__energy>  (29) 
-7.6900000000000004

>  <m_primary>  (29) 
energy

$$$$
29:0
     RDKit          3D

 42 46  0  0  0  0  0  0  0  0999 V2000
   67.6430   31.6020   51.8420 C   0  0  0  0  0  0  0  0  0  0  0  0
   66.3110   31.6390   51.1680 C   0  0  0  0  0  0  0  0  0  0  0  0
   66.0190   32.4400   50.1230 N   0  0  0  0  0  0  0  0  0  0  0  0
   64.7530   32.0660   49.8380 C   0  0  0  0  0  0  0  0  0  0  0  0
   63.9180   32.6350   48.7660 C   0  0  0  0  0  0  0  0  0  0  0  0
   64.4380   33.4080   47.7890 N   0  0  0  0  0  0  0  0  0  0  0  0
   63.3870   33.7250   47.0060 C   0  0  0  0  0  0  0  0  0  0  0  0
   62.2330   33.1790   47.4410 N   0  0  0  0  0  0  0  0  0  0  0  0
   62.5500   32.5010   48.5570 C   0  0  0  0  0  0  0  0  0  0  0  0
   61.5290   31.7420   49.3450 C   0  0  0  0  0  0  0  0  0  0  0  0
   60.9500   30.7150   48.4910 N   0  0  0  0  0  0  0  0  0  0  0  0
   60.2670   30.9250   47.3990 C   0  0  0  0  0  0  0  0  0  0  0  0
   59.7790   29.7390   46.6470 C   0  0  0  0  0  0  0  0  0  0  0  0
   58.6420   29.0300   47.0790 C   0  0  0  0  0  0  0  0  0  0  0  0
   58.1810   27.9240   46.3610 C   0  0  0  0  0  0  0  0  0  0  0  0
   58.8430   27.5150   45.2010 C   0  0  0  0  0  0  0  0  0  0  0  0
   59.9650   28.2170   44.7540 C   0  0  0  0  0  0  0  0  0  0  0  0
   60.4310   29.3260   45.4690 C   0  0  0  0  0  0  0  0  0  0  0  0
   59.9530   32.3060   46.9110 C   0  0  0  0  0  0  0  0  0  0  0  0
   58.6600   32.5610   46.4120 C   0  0  0  0  0  0  0  0  0  0  0  0
   58.3310   33.8050   45.8710 C   0  0  0  0  0  0  0  0  0  0  0  0
   56.7170   34.0900   45.2490 Cl  0  0  0  0  0  0  0  0  0  0  0  0
   59.2870   34.8170   45.8200 C   0  0  0  0  0  0  0  0  0  0  0  0
   60.5690   34.5940   46.3230 C   0  0  0  0  0  0  0  0  0  0  0  0
   60.9180   33.3510   46.8810 C   0  0  0  0  0  0  0  0  0  0  0  0
   64.3390   31.1140   50.6420 O   0  0  0  0  0  0  0  0  0  0  0  0
   65.2890   30.8250   51.4750 N   0  0  0  0  0  0  0  0  0  0  0  0
   67.5021   31.6059   52.9329 H   0  0  0  0  0  0  0  0  0  0  0  0
   68.1791   30.6886   51.5448 H   0  0  0  0  0  0  0  0  0  0  0  0
   68.2290   32.4842   51.5448 H   0  0  0  0  0  0  0  0  0  0  0  0
   63.4625   34.3594   46.1106 H   0  0  0  0  0  0  0  0  0  0  0  0
   62.0083   31.2720   50.2164 H   0  0  0  0  0  0  0  0  0  0  0  0
   60.7419   32.4256   49.6958 H   0  0  0  0  0  0  0  0  0  0  0  0
   58.1126   29.3494   47.9888 H   0  0  0  0  0  0  0  0  0  0  0  0
   57.2946   27.3739   46.7099 H   0  0  0  0  0  0  0  0  0  0  0  0
   58.4811   26.6408   44.6399 H   0  0  0  0  0  0  0  0  0  0  0  0
   60.4833   27.8973   43.8380 H   0  0  0  0  0  0  0  0  0  0  0  0
   61.3115   29.8783   45.1089 H   0  0  0  0  0  0  0  0  0  0  0  0
   57.8987   31.7679   46.4494 H   0  0  0  0  0  0  0  0  0  0  0  0
   59.0307   35.7932   45.3826 H   0  0  0  0  0  0  0  0  0  0  0  0
   61.3162   35.4003   46.2827 H   0  0  0  0  0  0  0  0  0  0  0  0
   65.2460   30.0950   52.2210 H   0  0  0  0  0  0  0  0  0  0  0  0
  1  2  1  0
  2  3  1  0
  3  4  2  0
  4  5  1  0
  5  6  1  0
  6  7  2  0
  7  8  1  0
  8  9  1  0
  9 10  1  0
 10 11  1  0
 11 12  2  0
 12 13  1  0
 13 14  2  0
 14 15  1  0
 15 16  2  0
 16 17  1  0
 17 18  2  0
 12 19  1  0
 19 20  2  0
 20 21  1  0
 21 22  1  0
 21 23  2  0
 23 24  1  0
 24 25  2  0
  4 26  1  0
 26 27  1  0
 27  2  2  0
  9  5  2  0
 18 13  1  0
 25 19  1  0
 25  8  1  0
  1 28  1  0
  1 29  1  0
  1 30  1  0
  7 31  1  0
 10 32  1  0
 10 33  1  0
 14 34  1  0
 15 35  1  0
 16 36  1  0
 17 37  1  0
 18 38  1  0
 20 39  1  0
 23 40  1  0
 24 41  1  0
 27 42  1  0
M  CHG  1  27   1
M  END
>  <UniqueID>  (30) 
30

>  <SMILES>  (30) 
Cc1nc(-c2ncn3c2CN=C(c2ccccc2)c2cc(Cl)ccc2-3)o[nH+]1

>  <Energy>  (30) 
127.67950391526209

>  <Genealogy>  (30) 
Cc1nc(-c2ncn3c2CN=C(c2ccccc2)c2cc(Cl)ccc2-3)o[nH+]1 (protonated)
Cc1nc(-c2ncn3c2CN=C(c2ccccc2)c2cc(Cl)ccc2-3)o[nH+]1 (3D coordinates assigned)
Cc1nc(-c2ncn3c2CN=C(c2ccccc2)c2cc(Cl)ccc2-3)o[nH+]1 (nonaromatic ring conformer: 127.67950391526209 kcal/mol)

>  <smiles>  (30) 
Cc1noc(-c2ncn3c2CN=C(c2ccccc2)c2cc(Cl)ccc2-3)n1

>  <score_type>  (30) 
oracle

>  <origin>  (30) 
adg

>  <m_score__min__energy>  (30) 
-7.2000000000000002

>  <m_primary>  (30) 
energy

$$$$
30:0
     RDKit          3D

 49 51  0  0  0  0  0  0  0  0999 V2000
   63.3840   33.8370   46.4440 C   0  0  0  0  0  0  0  0  0  0  0  0
   63.7830   32.6740   47.3490 C   0  0  0  0  0  0  0  0  0  0  0  0
   63.1330   32.8010   48.6740 N   0  0  0  0  0  0  0  0  0  0  0  0
   64.0140   32.3100   49.7580 C   0  0  0  0  0  0  0  0  0  0  0  0
   65.3490   33.0520   49.7430 C   0  0  0  0  0  0  0  0  0  0  0  0
   62.6470   34.1820   48.9300 C   0  0  0  0  0  0  0  0  0  0  0  0
   61.2400   34.1320   49.5340 C   0  0  0  0  0  0  0  0  0  0  0  0
   60.4200   33.0760   48.9160 N   0  0  0  0  0  0  0  0  0  0  0  0
   59.9210   33.5120   47.6340 C   0  0  0  0  0  0  0  0  0  0  0  0
   59.9810   34.8380   47.3370 N   0  0  0  0  0  0  0  0  0  0  0  0
   59.5170   35.3410   46.1690 C   0  0  0  0  0  0  0  0  0  0  0  0
   58.9630   34.4980   45.2120 C   0  0  0  0  0  0  0  0  0  0  0  0
   58.8890   33.1050   45.4420 C   0  0  0  0  0  0  0  0  0  0  0  0
   59.3370   32.6120   46.6980 C   0  0  0  0  0  0  0  0  0  0  0  0
   59.1660   31.2530   46.9870 C   0  0  0  0  0  0  0  0  0  0  0  0
   58.5080   30.4170   46.0900 C   0  0  0  0  0  0  0  0  0  0  0  0
   58.2590   29.0780   46.4370 C   0  0  0  0  0  0  0  0  0  0  0  0
   57.5570   28.2450   45.5690 C   0  0  0  0  0  0  0  0  0  0  0  0
   57.0860   28.7430   44.3560 C   0  0  0  0  0  0  0  0  0  0  0  0
   57.3350   30.0690   43.9940 C   0  0  0  0  0  0  0  0  0  0  0  0
   58.0810   30.9290   44.8410 C   0  0  0  0  0  0  0  0  0  0  0  0
   58.3780   32.2340   44.4930 N   0  0  0  0  0  0  0  0  0  0  0  0
   58.1700   32.6930   43.1010 C   0  0  0  0  0  0  0  0  0  0  0  0
   63.0887   34.6978   47.0619 H   0  0  0  0  0  0  0  0  0  0  0  0
   64.2375   34.1170   45.8090 H   0  0  0  0  0  0  0  0  0  0  0  0
   62.5384   33.5341   45.8090 H   0  0  0  0  0  0  0  0  0  0  0  0
   63.4710   31.7283   46.8819 H   0  0  0  0  0  0  0  0  0  0  0  0
   64.8744   32.6876   47.4854 H   0  0  0  0  0  0  0  0  0  0  0  0
   63.5203   32.4736   50.7273 H   0  0  0  0  0  0  0  0  0  0  0  0
   64.2026   31.2374   49.6035 H   0  0  0  0  0  0  0  0  0  0  0  0
   65.6784   33.2351   50.7764 H   0  0  0  0  0  0  0  0  0  0  0  0
   66.1014   32.4426   49.2209 H   0  0  0  0  0  0  0  0  0  0  0  0
   65.2287   34.0127   49.2209 H   0  0  0  0  0  0  0  0  0  0  0  0
   63.3284   34.6849   49.6320 H   0  0  0  0  0  0  0  0  0  0  0  0
   62.6161   34.7384   47.9816 H   0  0  0  0  0  0  0  0  0  0  0  0
   61.3219   33.9344   50.6130 H   0  0  0  0  0  0  0  0  0  0  0  0
   60.7515   35.0997   49.3469 H   0  0  0  0  0  0  0  0  0  0  0  0
   61.0200   32.2280   48.7780 H   0  0  0  0  0  0  0  0  0  0  0  0
   59.6260   32.7800   49.5270 H   0  0  0  0  0  0  0  0  0  0  0  0
   59.5785   36.4222   45.9760 H   0  0  0  0  0  0  0  0  0  0  0  0
   58.5799   34.9175   44.2701 H   0  0  0  0  0  0  0  0  0  0  0  0
   59.5548   30.8427   47.9306 H   0  0  0  0  0  0  0  0  0  0  0  0
   58.6204   28.6858   47.3991 H   0  0  0  0  0  0  0  0  0  0  0  0
   57.3746   27.1949   45.8410 H   0  0  0  0  0  0  0  0  0  0  0  0
   56.5154   28.0890   43.6802 H   0  0  0  0  0  0  0  0  0  0  0  0
   56.9472   30.4520   43.0386 H   0  0  0  0  0  0  0  0  0  0  0  0
   57.7160   33.6949   43.1093 H   0  0  0  0  0  0  0  0  0  0  0  0
   59.1378   32.7333   42.5797 H   0  0  0  0  0  0  0  0  0  0  0  0
   57.5017   31.9919   42.5797 H   0  0  0  0  0  0  0  0  0  0  0  0
  1  2  1  0
  2  3  1  0
  3  4  1  0
  4  5  1  0
  3  6  1  0
  6  7  1  0
  7  8  1  0
  8  9  1  0
  9 10  2  0
 10 11  1  0
 11 12  2  0
 12 13  1  0
 13 14  2  0
 14 15  1  0
 15 16  2  0
 16 17  1  0
 17 18  2  0
 18 19  1  0
 19 20  2  0
 20 21  1  0
 21 22  2  0
 22 23  1  0
 14  9  1  0
 21 16  1  0
 22 13  1  0
  1 24  1  0
  1 25  1  0
  1 26  1  0
  2 27  1  0
  2 28  1  0
  4 29  1  0
  4 30  1  0
  5 31  1  0
  5 32  1  0
  5 33  1  0
  6 34  1  0
  6 35  1  0
  7 36  1  0
  7 37  1  0
  8 38  1  0
  8 39  1  0
 11 40  1  0
 12 41  1  0
 15 42  1  0
 17 43  1  0
 18 44  1  0
 19 45  1  0
 20 46  1  0
 23 47  1  0
 23 48  1  0
 23 49  1  0
M  CHG  2   8   1  22   1
M  END
>  <UniqueID>  (31) 
31

>  <SMILES>  (31) 
CCN(CC)CC[NH2+]c1nccc2c1cc1ccccc1[n+]2C

>  <Energy>  (31) 
69.75401712178552

>  <Genealogy>  (31) 
CCN(CC)CC[NH2+]c1nccc2c1cc1ccccc1[n+]2C (protonated)
CCN(CC)CC[NH2+]c1nccc2c1cc1ccccc1[n+]2C (3D coordinates assigned)
CCN(CC)CC[NH2+]c1nccc2c1cc1ccccc1[n+]2C (optimized conformer: 69.75401712178552 kcal/mol)

>  <smiles>  (31) 
CCN(CC)CCNc1nccc2c1cc1ccccc1[n+]2C

>  <score_type>  (31) 
oracle

>  <origin>  (31) 
adg

>  <m_score__min__energy>  (31) 
-4.0800000000000001

>  <m_primary>  (31) 
energy

$$$$
31:0
     RDKit          3D

 47 47  0  0  0  0  0  0  0  0999 V2000
   59.4658   34.3596   46.6863 H   0  0  0  0  0  0  0  0  0  0  0  0
   59.4160   34.3240   45.5880 C   0  0  0  0  0  0  0  0  0  0  0  0
   60.3429   33.8825   45.1931 H   0  0  0  0  0  0  0  0  0  0  0  0
   59.2984   35.3439   45.1931 H   0  0  0  0  0  0  0  0  0  0  0  0
   58.2100   33.4620   45.1550 C   0  0  0  0  0  0  0  0  0  0  0  0
   56.9750   34.3900   45.0740 C   0  0  0  0  0  0  0  0  0  0  0  0
   56.6389   34.6426   46.0905 H   0  0  0  0  0  0  0  0  0  0  0  0
   57.2435   35.3117   44.5370 H   0  0  0  0  0  0  0  0  0  0  0  0
   56.1644   33.8756   44.5370 H   0  0  0  0  0  0  0  0  0  0  0  0
   57.9770   32.3280   46.2230 C   0  0  0  0  0  0  0  0  0  0  0  0
   57.0825   32.5727   46.8147 H   0  0  0  0  0  0  0  0  0  0  0  0
   58.8681   32.2708   46.8653 H   0  0  0  0  0  0  0  0  0  0  0  0
   57.7790   30.9850   45.5690 C   0  0  0  0  0  0  0  0  0  0  0  0
   58.6690   30.0680   45.7890 N   0  0  0  0  0  0  0  0  0  0  0  0
   59.7920   29.7230   44.9430 C   0  0  0  0  0  0  0  0  0  0  0  0
   60.7269   29.8522   45.5080 H   0  0  0  0  0  0  0  0  0  0  0  0
   59.7951   30.3805   44.0611 H   0  0  0  0  0  0  0  0  0  0  0  0
   59.6740   28.2670   44.4840 C   0  0  0  0  0  0  0  0  0  0  0  0
   60.5653   27.7158   44.8183 H   0  0  0  0  0  0  0  0  0  0  0  0
   59.5916   28.2619   43.3871 H   0  0  0  0  0  0  0  0  0  0  0  0
   58.4180   27.5800   45.0600 C   0  0  0  0  0  0  0  0  0  0  0  0
   57.8033   28.3355   45.5712 H   0  0  0  0  0  0  0  0  0  0  0  0
   58.7498   26.7971   45.7578 H   0  0  0  0  0  0  0  0  0  0  0  0
   57.6000   26.9330   44.0010 N   0  0  1  0  0  0  0  0  0  0  0  0
   56.6880   27.4430   43.9170 H   0  0  0  0  0  0  0  0  0  0  0  0
   58.2920   27.0520   42.7010 C   0  0  0  0  0  0  0  0  0  0  0  0
   59.3630   27.2362   42.8712 H   0  0  0  0  0  0  0  0  0  0  0  0
   58.1663   26.1191   42.1320 H   0  0  0  0  0  0  0  0  0  0  0  0
   57.8619   27.8894   42.1320 H   0  0  0  0  0  0  0  0  0  0  0  0
   57.3470   25.5030   44.3240 C   0  0  0  0  0  0  0  0  0  0  0  0
   58.3109   24.9747   44.3661 H   0  0  0  0  0  0  0  0  0  0  0  0
   56.6956   25.0925   43.5384 H   0  0  0  0  0  0  0  0  0  0  0  0
   56.6290   25.3240   45.6660 C   0  0  0  0  0  0  0  0  0  0  0  0
   57.3384   25.5009   46.4879 H   0  0  0  0  0  0  0  0  0  0  0  0
   55.7993   26.0428   45.7367 H   0  0  0  0  0  0  0  0  0  0  0  0
   56.2339   24.2999   45.7367 H   0  0  0  0  0  0  0  0  0  0  0  0
   56.8280   31.0140   44.3870 C   0  0  2  0  0  0  0  0  0  0  0  0
   55.9066   31.5331   44.6895 H   0  0  0  0  0  0  0  0  0  0  0  0
   56.3290   29.6940   43.9890 N   0  0  0  0  0  0  0  0  0  0  0  0
   56.3970   29.3070   42.8030 O   0  0  0  0  0  0  0  0  0  0  0  0
   55.5240   29.0000   44.8620 O   0  0  0  0  0  0  0  0  0  0  0  0
   57.4890   31.8160   43.2380 C   0  0  0  0  0  0  0  0  0  0  0  0
   56.6989   32.3334   42.6739 H   0  0  0  0  0  0  0  0  0  0  0  0
   58.0408   31.0971   42.6145 H   0  0  0  0  0  0  0  0  0  0  0  0
   58.5130   32.8740   43.7360 C   0  0  0  0  0  0  0  0  0  0  0  0
   58.5239   33.7055   43.0159 H   0  0  0  0  0  0  0  0  0  0  0  0
   59.4804   32.3564   43.8148 H   0  0  0  0  0  0  0  0  0  0  0  0
  1  2  1  0
  2  3  1  0
  2  4  1  0
  2  5  1  0
  5  6  1  0
  6  7  1  0
  6  8  1  0
  6  9  1  0
  5 10  1  0
 10 11  1  0
 10 12  1  0
 10 13  1  0
 13 14  2  0
 14 15  1  0
 15 16  1  0
 15 17  1  0
 15 18  1  0
 18 19  1  0
 18 20  1  0
 18 21  1  0
 21 22  1  0
 21 23  1  0
 21 24  1  0
 24 25  1  6
 24 26  1  0
 26 27  1  0
 26 28  1  0
 26 29  1  0
 24 30  1  0
 30 31  1  0
 30 32  1  0
 30 33  1  0
 33 34  1  0
 33 35  1  0
 33 36  1  0
 13 37  1  0
 37 38  1  1
 37 39  1  0
 39 40  2  0
 39 41  1  0
 37 42  1  0
 42 43  1  0
 42 44  1  0
 42 45  1  0
 45 46  1  0
 45 47  1  0
 45  5  1  0
M  CHG  3  24   1  39   1  41  -1
M  END
>  <UniqueID>  (32) 
32

>  <SMILES>  (32) 
CC[N@H+](C)CCC/N=C1/CC(C)(C)CC[C@H]1[N+](=O)[O-]

>  <Energy>  (32) 
55.936611977537936

>  <Genealogy>  (32) 
CC[NH+](C)CCCN=C1CC(C)(C)CCC1[N+](=O)[O-] (protonated)
CC[N@H+](C)CCCN=C1CC(C)(C)CC[C@H]1[N+](=O)[O-] (chirality)
CC[N@H+](C)CCC/N=C1/CC(C)(C)CC[C@H]1[N+](=O)[O-] (cis-trans isomerization)
CC[N@H+](C)CCC/N=C1/CC(C)(C)CC[C@H]1[N+](=O)[O-] (3D coordinates assigned)
CC[N@H+](C)CCC/N=C1/CC(C)(C)CC[C@H]1[N+](=O)[O-] (nonaromatic ring conformer: 55.936611977537936 kcal/mol)

>  <smiles>  (32) 
CCN(C)CCCN=C1CC(C)(C)CCC1[N+](=O)[O-]

>  <score_type>  (32) 
oracle

>  <origin>  (32) 
adg

>  <m_score__min__energy>  (32) 
-5.5

>  <m_primary>  (32) 
energy

$$$$
32:0
     RDKit          3D

 43 45  0  0  0  0  0  0  0  0999 V2000
   55.5870   29.7270   43.3860 C   0  0  0  0  0  0  0  0  0  0  0  0
   56.9510   30.3700   43.1530 C   0  0  0  0  0  0  0  0  0  0  0  0
   57.7830   30.2990   44.3710 N   0  0  0  0  0  0  0  0  0  0  0  0
   58.2140   31.4490   45.0170 C   0  0  0  0  0  0  0  0  0  0  0  0
   57.7310   33.0960   44.4550 S   0  0  0  0  0  0  0  0  0  0  0  0
   57.9290   33.9020   46.0860 C   0  0  0  0  0  0  0  0  0  0  0  0
   59.2070   34.7410   46.1590 C   0  0  0  0  0  0  0  0  0  0  0  0
   60.3600   33.9490   45.8660 O   0  0  0  0  0  0  0  0  0  0  0  0
   61.4150   33.6430   46.7450 C   0  0  0  0  0  0  0  0  0  0  0  0
   62.7700   33.8300   46.4040 C   0  0  0  0  0  0  0  0  0  0  0  0
   63.7780   33.5080   47.3150 C   0  0  0  0  0  0  0  0  0  0  0  0
   63.4510   32.9910   48.5680 C   0  0  0  0  0  0  0  0  0  0  0  0
   62.1150   32.7920   48.9150 C   0  0  0  0  0  0  0  0  0  0  0  0
   61.0870   33.1140   48.0060 C   0  0  0  0  0  0  0  0  0  0  0  0
   59.7320   32.9270   48.3170 O   0  0  0  0  0  0  0  0  0  0  0  0
   59.2210   32.7840   49.6380 C   0  0  0  0  0  0  0  0  0  0  0  0
   59.0270   31.3630   46.1140 N   0  0  0  0  0  0  0  0  0  0  0  0
   59.3820   30.1520   46.6030 C   0  0  0  0  0  0  0  0  0  0  0  0
   60.1910   29.9320   47.7220 C   0  0  0  0  0  0  0  0  0  0  0  0
   60.3740   28.5750   47.9870 C   0  0  0  0  0  0  0  0  0  0  0  0
   59.5320   27.6680   46.8320 S   0  0  0  0  0  0  0  0  0  0  0  0
   58.9390   29.0020   46.0010 C   0  0  0  0  0  0  0  0  0  0  0  0
   58.1310   29.0650   44.8750 C   0  0  0  0  0  0  0  0  0  0  0  0
   57.7300   27.9980   44.3330 O   0  0  0  0  0  0  0  0  0  0  0  0
   55.4025   29.6400   44.4669 H   0  0  0  0  0  0  0  0  0  0  0  0
   54.8046   30.3511   42.9295 H   0  0  0  0  0  0  0  0  0  0  0  0
   55.5706   28.7263   42.9295 H   0  0  0  0  0  0  0  0  0  0  0  0
   57.4634   29.8412   42.3357 H   0  0  0  0  0  0  0  0  0  0  0  0
   56.8004   31.4279   42.8919 H   0  0  0  0  0  0  0  0  0  0  0  0
   57.0635   34.5566   46.2661 H   0  0  0  0  0  0  0  0  0  0  0  0
   57.9963   33.1128   46.8493 H   0  0  0  0  0  0  0  0  0  0  0  0
   59.1401   35.5617   45.4296 H   0  0  0  0  0  0  0  0  0  0  0  0
   59.3063   35.1382   47.1800 H   0  0  0  0  0  0  0  0  0  0  0  0
   63.0347   34.2318   45.4148 H   0  0  0  0  0  0  0  0  0  0  0  0
   64.8327   33.6626   47.0435 H   0  0  0  0  0  0  0  0  0  0  0  0
   64.2477   32.7398   49.2836 H   0  0  0  0  0  0  0  0  0  0  0  0
   61.8621   32.3814   49.9037 H   0  0  0  0  0  0  0  0  0  0  0  0
   60.0161   33.0065   50.3648 H   0  0  0  0  0  0  0  0  0  0  0  0
   58.3840   33.4824   49.7850 H   0  0  0  0  0  0  0  0  0  0  0  0
   58.8680   31.7526   49.7850 H   0  0  0  0  0  0  0  0  0  0  0  0
   59.3660   32.2310   46.5860 H   0  0  0  0  0  0  0  0  0  0  0  0
   60.6333   30.7384   48.3254 H   0  0  0  0  0  0  0  0  0  0  0  0
   60.9697   28.1607   48.8137 H   0  0  0  0  0  0  0  0  0  0  0  0
  1  2  1  0
  2  3  1  0
  3  4  1  0
  4  5  1  0
  5  6  1  0
  6  7  1  0
  7  8  1  0
  8  9  1  0
  9 10  2  0
 10 11  1  0
 11 12  2  0
 12 13  1  0
 13 14  2  0
 14 15  1  0
 15 16  1  0
  4 17  2  0
 17 18  1  0
 18 19  1  0
 19 20  2  0
 20 21  1  0
 21 22  1  0
 22 23  1  0
 23 24  2  0
 23  3  1  0
 14  9  1  0
 22 18  2  0
  1 25  1  0
  1 26  1  0
  1 27  1  0
  2 28  1  0
  2 29  1  0
  6 30  1  0
  6 31  1  0
  7 32  1  0
  7 33  1  0
 10 34  1  0
 11 35  1  0
 12 36  1  0
 13 37  1  0
 16 38  1  0
 16 39  1  0
 16 40  1  0
 17 41  1  0
 19 42  1  0
 20 43  1  0
M  CHG  1  17   1
M  END
>  <UniqueID>  (33) 
33

>  <SMILES>  (33) 
CCn1c(SCCOc2ccccc2OC)[nH+]c2ccsc2c1=O

>  <Energy>  (33) 
76.13238356970596

>  <Genealogy>  (33) 
CCn1c(SCCOc2ccccc2OC)[nH+]c2ccsc2c1=O (protonated)
CCn1c(SCCOc2ccccc2OC)[nH+]c2ccsc2c1=O (3D coordinates assigned)
CCn1c(SCCOc2ccccc2OC)[nH+]c2ccsc2c1=O (optimized conformer: 76.13238356970596 kcal/mol)

>  <smiles>  (33) 
CCn1c(SCCOc2ccccc2OC)nc2ccsc2c1=O

>  <score_type>  (33) 
oracle

>  <origin>  (33) 
adg

>  <m_score__min__energy>  (33) 
-4.9900000000000002

>  <m_primary>  (33) 
energy

$$$$
33:0
     RDKit          3D

 29 30  0  0  0  0  0  0  0  0999 V2000
   55.0750   26.3570   46.7720 H   0  0  0  0  0  0  0  0  0  0  0  0
   54.6580   25.9750   45.9560 O   0  0  0  0  0  0  0  0  0  0  0  0
   55.5830   25.0620   45.4370 C   0  0  0  0  0  0  0  0  0  0  0  0
   55.4772   25.0229   44.3428 H   0  0  0  0  0  0  0  0  0  0  0  0
   55.3870   24.0719   45.8743 H   0  0  0  0  0  0  0  0  0  0  0  0
   57.0110   25.4820   45.7890 C   0  0  0  0  0  0  0  0  0  0  0  0
   57.5939   25.5861   44.8620 H   0  0  0  0  0  0  0  0  0  0  0  0
   57.4525   24.7114   46.4381 H   0  0  0  0  0  0  0  0  0  0  0  0
   57.0220   26.7580   46.5070 N   0  0  0  0  0  0  0  0  0  0  0  0
   57.0220   27.9620   46.0040 C   0  0  0  0  0  0  0  0  0  0  0  0
   58.0770   28.7710   46.2710 N   0  0  0  0  0  0  0  0  0  0  0  0
   58.1510   30.0400   45.7930 C   0  0  0  0  0  0  0  0  0  0  0  0
   57.1220   30.5300   44.9640 C   0  0  0  0  0  0  0  0  0  0  0  0
   56.0250   29.6900   44.7160 C   0  0  0  0  0  0  0  0  0  0  0  0
   55.0580   30.0970   44.0160 O   0  0  0  0  0  0  0  0  0  0  0  0
   55.9950   28.4290   45.2320 N   0  0  0  0  0  0  0  0  0  0  0  0
   55.1590   27.8420   45.0220 H   0  0  0  0  0  0  0  0  0  0  0  0
   57.1300   31.9560   44.4540 C   0  0  0  0  0  0  0  0  0  0  0  0
   56.7789   31.9587   43.4115 H   0  0  0  0  0  0  0  0  0  0  0  0
   56.4703   32.5459   45.1074 H   0  0  0  0  0  0  0  0  0  0  0  0
   58.5220   32.5950   44.5040 C   0  0  0  0  0  0  0  0  0  0  0  0
   59.1498   32.1573   43.7139 H   0  0  0  0  0  0  0  0  0  0  0  0
   58.4213   33.6796   44.3510 H   0  0  0  0  0  0  0  0  0  0  0  0
   59.1770   32.3460   45.8630 C   0  0  0  0  0  0  0  0  0  0  0  0
   60.1492   32.8594   45.8968 H   0  0  0  0  0  0  0  0  0  0  0  0
   58.5185   32.7338   46.6542 H   0  0  0  0  0  0  0  0  0  0  0  0
   59.3900   30.8460   46.0830 C   0  0  0  0  0  0  0  0  0  0  0  0
   60.1975   30.5031   45.4194 H   0  0  0  0  0  0  0  0  0  0  0  0
   59.6466   30.6961   47.1421 H   0  0  0  0  0  0  0  0  0  0  0  0
  1  2  1  0
  2  3  1  0
  3  4  1  0
  3  5  1  0
  3  6  1  0
  6  7  1  0
  6  8  1  0
  6  9  1  0
  9 10  2  0
 10 11  1  0
 11 12  1  0
 12 13  2  0
 13 14  1  0
 14 15  2  0
 14 16  1  0
 16 17  1  0
 13 18  1  0
 18 19  1  0
 18 20  1  0
 18 21  1  0
 21 22  1  0
 21 23  1  0
 21 24  1  0
 24 25  1  0
 24 26  1  0
 24 27  1  0
 27 28  1  0
 27 29  1  0
 16 10  1  0
 27 12  1  0
M  CHG  1  11  -1
M  END
>  <UniqueID>  (34) 
34

>  <SMILES>  (34) 
O=c1[nH]/c(=N\CCO)[n-]c2c1CCCC2

>  <Energy>  (34) 
28.883933483031427

>  <Genealogy>  (34) 
O=c1[nH]c(=NCCO)[n-]c2c1CCCC2 (protonated)
O=c1[nH]/c(=N\CCO)[n-]c2c1CCCC2 (cis-trans isomerization)
O=c1[nH]/c(=N\CCO)[n-]c2c1CCCC2 (3D coordinates assigned)
O=c1[nH]/c(=N\CCO)[n-]c2c1CCCC2 (nonaromatic ring conformer: 28.883933483031427 kcal/mol)

>  <smiles>  (34) 
O=c1[nH]c(=NCCO)[nH]c2c1CCCC2

>  <score_type>  (34) 
oracle

>  <origin>  (34) 
adg

>  <m_score__min__energy>  (34) 
-8.8000000000000007

>  <m_primary>  (34) 
energy

$$$$
34:0
     RDKit          3D

 69 70  0  0  0  0  0  0  0  0999 V2000
   57.7500   32.2470   51.5620 C   0  0  0  0  0  0  0  0  0  0  0  0
   59.1510   32.7170   51.1650 C   0  0  0  0  0  0  0  0  0  0  0  0
   59.2630   33.0480   49.6630 C   0  0  0  0  0  0  0  0  0  0  0  0
   59.1080   31.8980   48.6620 C   0  0  0  0  0  0  0  0  0  0  0  0
   59.4420   30.5840   49.0260 C   0  0  0  0  0  0  0  0  0  0  0  0
   59.2690   29.5090   48.1520 C   0  0  0  0  0  0  0  0  0  0  0  0
   59.7960   28.1660   48.5840 C   0  0  0  0  0  0  0  0  0  0  0  0
   58.6700   29.7240   46.8900 C   0  0  0  0  0  0  0  0  0  0  0  0
   58.5540   31.0560   46.4090 C   0  0  0  0  0  0  0  0  0  0  0  0
   58.7430   32.1550   47.3060 C   0  0  0  0  0  0  0  0  0  0  0  0
   58.6590   33.5940   46.7990 C   0  0  0  0  0  0  0  0  0  0  0  0
   59.9870   34.0300   46.1530 C   0  0  0  0  0  0  0  0  0  0  0  0
   61.1490   33.8390   47.0420 N   0  0  0  0  0  0  0  0  0  0  0  0
   62.4620   33.8280   46.3650 C   0  0  0  0  0  0  0  0  0  0  0  0
   63.5860   33.1280   47.1530 C   0  0  0  0  0  0  0  0  0  0  0  0
   63.0510   32.5140   48.7470 S   0  0  0  0  0  0  0  0  0  0  0  0
   64.4770   32.2390   49.7740 C   0  0  0  0  0  0  0  0  0  0  0  0
   62.3170   31.2120   48.5800 O   0  0  0  0  0  0  0  0  0  0  0  0
   62.1490   33.5140   49.4130 O   0  0  0  0  0  0  0  0  0  0  0  0
   58.4750   31.2670   44.8970 C   0  0  0  0  0  0  0  0  0  0  0  0
   57.7080   30.1790   44.1530 C   0  0  0  0  0  0  0  0  0  0  0  0
   58.0950   28.8340   44.6520 C   0  0  0  0  0  0  0  0  0  0  0  0
   58.2370   27.8760   43.8460 O   0  0  0  0  0  0  0  0  0  0  0  0
   58.1990   28.6210   46.0660 N   0  0  0  0  0  0  0  0  0  0  0  0
   57.4650   27.4620   46.6230 C   0  0  0  0  0  0  0  0  0  0  0  0
   58.3100   26.1740   46.6380 C   0  0  0  0  0  0  0  0  0  0  0  0
   57.5560   24.9200   46.1630 C   0  0  0  0  0  0  0  0  0  0  0  0
   56.3580   25.2500   45.2610 C   0  0  0  0  0  0  0  0  0  0  0  0
   55.1780   25.3700   46.0340 O   0  0  0  0  0  0  0  0  0  0  0  0
   54.2100   24.4360   45.6090 C   0  0  0  0  0  0  0  0  0  0  0  0
   57.6694   32.2200   52.6587 H   0  0  0  0  0  0  0  0  0  0  0  0
   57.0011   32.9431   51.1563 H   0  0  0  0  0  0  0  0  0  0  0  0
   57.5724   31.2401   51.1563 H   0  0  0  0  0  0  0  0  0  0  0  0
   59.3968   33.6196   51.7438 H   0  0  0  0  0  0  0  0  0  0  0  0
   59.8504   31.8951   51.3777 H   0  0  0  0  0  0  0  0  0  0  0  0
   58.4848   33.7904   49.4322 H   0  0  0  0  0  0  0  0  0  0  0  0
   60.3004   33.3896   49.5323 H   0  0  0  0  0  0  0  0  0  0  0  0
   59.8520   30.3958   50.0292 H   0  0  0  0  0  0  0  0  0  0  0  0
   59.8156   28.1160   49.6827 H   0  0  0  0  0  0  0  0  0  0  0  0
   59.1426   27.3725   48.1924 H   0  0  0  0  0  0  0  0  0  0  0  0
   60.8147   28.0286   48.1924 H   0  0  0  0  0  0  0  0  0  0  0  0
   57.8549   33.6658   46.0518 H   0  0  0  0  0  0  0  0  0  0  0  0
   58.4513   34.2550   47.6534 H   0  0  0  0  0  0  0  0  0  0  0  0
   60.1435   33.4382   45.2391 H   0  0  0  0  0  0  0  0  0  0  0  0
   59.9108   35.1058   45.9366 H   0  0  0  0  0  0  0  0  0  0  0  0
   61.1550   34.6060   47.7560 H   0  0  0  0  0  0  0  0  0  0  0  0
   61.0230   32.9440   47.5690 H   0  0  0  0  0  0  0  0  0  0  0  0
   62.3462   33.3113   45.4008 H   0  0  0  0  0  0  0  0  0  0  0  0
   62.7656   34.8798   46.2581 H   0  0  0  0  0  0  0  0  0  0  0  0
   63.9550   32.2800   46.5574 H   0  0  0  0  0  0  0  0  0  0  0  0
   64.3715   33.8758   47.3370 H   0  0  0  0  0  0  0  0  0  0  0  0
   64.1830   32.2957   50.8325 H   0  0  0  0  0  0  0  0  0  0  0  0
   64.8949   31.2437   49.5623 H   0  0  0  0  0  0  0  0  0  0  0  0
   65.2350   33.0075   49.5623 H   0  0  0  0  0  0  0  0  0  0  0  0
   57.9776   32.2299   44.7086 H   0  0  0  0  0  0  0  0  0  0  0  0
   59.5079   31.2397   44.5197 H   0  0  0  0  0  0  0  0  0  0  0  0
   56.6291   30.3260   44.3088 H   0  0  0  0  0  0  0  0  0  0  0  0
   57.9493   30.2435   43.0817 H   0  0  0  0  0  0  0  0  0  0  0  0
   57.1653   27.6982   47.6547 H   0  0  0  0  0  0  0  0  0  0  0  0
   56.5932   27.2797   45.9775 H   0  0  0  0  0  0  0  0  0  0  0  0
   59.1790   26.3238   45.9805 H   0  0  0  0  0  0  0  0  0  0  0  0
   58.5942   25.9944   47.6854 H   0  0  0  0  0  0  0  0  0  0  0  0
   58.2540   24.2826   45.6004 H   0  0  0  0  0  0  0  0  0  0  0  0
   57.1664   24.4104   47.0566 H   0  0  0  0  0  0  0  0  0  0  0  0
   56.5477   26.1995   44.7390 H   0  0  0  0  0  0  0  0  0  0  0  0
   56.2259   24.4378   44.5310 H   0  0  0  0  0  0  0  0  0  0  0  0
   53.7335   23.9763   46.4874 H   0  0  0  0  0  0  0  0  0  0  0  0
   53.4472   24.9480   45.0041 H   0  0  0  0  0  0  0  0  0  0  0  0
   54.6944   23.6554   45.0041 H   0  0  0  0  0  0  0  0  0  0  0  0
  1  2  1  0
  2  3  1  0
  3  4  1  0
  4  5  2  0
  5  6  1  0
  6  7  1  0
  6  8  2  0
  8  9  1  0
  9 10  2  0
 10 11  1  0
 11 12  1  0
 12 13  1  0
 13 14  1  0
 14 15  1  0
 15 16  1  0
 16 17  1  0
 16 18  2  0
 16 19  2  0
  9 20  1  0
 20 21  1  0
 21 22  1  0
 22 23  2  0
 22 24  1  0
 24 25  1  0
 25 26  1  0
 26 27  1  0
 27 28  1  0
 28 29  1  0
 29 30  1  0
 10  4  1  0
 24  8  1  0
  1 31  1  0
  1 32  1  0
  1 33  1  0
  2 34  1  0
  2 35  1  0
  3 36  1  0
  3 37  1  0
  5 38  1  0
  7 39  1  0
  7 40  1  0
  7 41  1  0
 11 42  1  0
 11 43  1  0
 12 44  1  0
 12 45  1  0
 13 46  1  0
 13 47  1  0
 14 48  1  0
 14 49  1  0
 15 50  1  0
 15 51  1  0
 17 52  1  0
 17 53  1  0
 17 54  1  0
 20 55  1  0
 20 56  1  0
 21 57  1  0
 21 58  1  0
 25 59  1  0
 25 60  1  0
 26 61  1  0
 26 62  1  0
 27 63  1  0
 27 64  1  0
 28 65  1  0
 28 66  1  0
 30 67  1  0
 30 68  1  0
 30 69  1  0
M  CHG  1  13   1
M  END
>  <UniqueID>  (35) 
35

>  <SMILES>  (35) 
CCCc1cc(C)c2c(c1CC[NH2+]CCS(C)(=O)=O)CCC(=O)N2CCCCOC

>  <Energy>  (35) 
79.2293786857332

>  <Genealogy>  (35) 
CCCc1cc(C)c2c(c1CC[NH2+]CCS(C)(=O)=O)CCC(=O)N2CCCCOC (protonated)
CCCc1cc(C)c2c(c1CC[NH2+]CCS(C)(=O)=O)CCC(=O)N2CCCCOC (3D coordinates assigned)
CCCc1cc(C)c2c(c1CC[NH2+]CCS(C)(=O)=O)CCC(=O)N2CCCCOC (nonaromatic ring conformer: 79.2293786857332 kcal/mol)

>  <smiles>  (35) 
CCCc1cc(C)c2c(c1CCNCCS(C)(=O)=O)CCC(=O)N2CCCCOC

>  <score_type>  (35) 
oracle

>  <origin>  (35) 
adg

>  <m_score__min__energy>  (35) 
-6.6399999999999997

>  <m_primary>  (35) 
energy

$$$$
35:0
     RDKit          3D

 37 38  0  0  0  0  0  0  0  0999 V2000
   63.7710   33.4580   47.1130 C   0  0  0  0  0  0  0  0  0  0  0  0
   62.3330   33.8350   46.7690 C   0  0  0  0  0  0  0  0  0  0  0  0
   61.4030   33.3550   47.8010 N   0  0  0  0  0  0  0  0  0  0  0  0
   61.6630   32.0750   48.4730 C   0  0  0  0  0  0  0  0  0  0  0  0
   61.5160   30.9140   47.4930 C   0  0  0  0  0  0  0  0  0  0  0  0
   60.3040   34.1750   48.2430 C   0  0  0  0  0  0  0  0  0  0  0  0
   60.0210   34.2270   49.4710 O   0  0  0  0  0  0  0  0  0  0  0  0
   59.4240   34.9050   47.2670 C   0  0  0  0  0  0  0  0  0  0  0  0
   58.8130   33.9240   46.3030 C   0  0  0  0  0  0  0  0  0  0  0  0
   58.3810   34.3560   45.0390 C   0  0  0  0  0  0  0  0  0  0  0  0
   57.8540   33.4450   44.1200 C   0  0  0  0  0  0  0  0  0  0  0  0
   57.7570   32.0870   44.4500 C   0  0  0  0  0  0  0  0  0  0  0  0
   57.2300   31.1630   43.5340 C   0  0  0  0  0  0  0  0  0  0  0  0
   57.1440   29.8100   43.8730 C   0  0  0  0  0  0  0  0  0  0  0  0
   57.5830   29.3690   45.1240 C   0  0  0  0  0  0  0  0  0  0  0  0
   58.1100   30.2780   46.0450 C   0  0  0  0  0  0  0  0  0  0  0  0
   58.2010   31.6410   45.7190 C   0  0  0  0  0  0  0  0  0  0  0  0
   58.7310   32.5630   46.6340 C   0  0  0  0  0  0  0  0  0  0  0  0
   63.8904   33.4267   48.2061 H   0  0  0  0  0  0  0  0  0  0  0  0
   64.0019   32.4690   46.6905 H   0  0  0  0  0  0  0  0  0  0  0  0
   64.4574   34.2065   46.6905 H   0  0  0  0  0  0  0  0  0  0  0  0
   62.2556   34.9298   46.6957 H   0  0  0  0  0  0  0  0  0  0  0  0
   62.0666   33.3656   45.8105 H   0  0  0  0  0  0  0  0  0  0  0  0
   62.6862   32.0800   48.8767 H   0  0  0  0  0  0  0  0  0  0  0  0
   60.9336   31.9470   49.2864 H   0  0  0  0  0  0  0  0  0  0  0  0
   61.3971   29.9745   48.0527 H   0  0  0  0  0  0  0  0  0  0  0  0
   60.6315   31.0782   46.8600 H   0  0  0  0  0  0  0  0  0  0  0  0
   62.4135   30.8526   46.8600 H   0  0  0  0  0  0  0  0  0  0  0  0
   58.6246   35.4261   47.8143 H   0  0  0  0  0  0  0  0  0  0  0  0
   60.0271   35.6364   46.7091 H   0  0  0  0  0  0  0  0  0  0  0  0
   58.4580   35.4198   44.7701 H   0  0  0  0  0  0  0  0  0  0  0  0
   57.5142   33.7952   43.1342 H   0  0  0  0  0  0  0  0  0  0  0  0
   56.8840   31.5047   42.5473 H   0  0  0  0  0  0  0  0  0  0  0  0
   56.7293   29.0897   43.1525 H   0  0  0  0  0  0  0  0  0  0  0  0
   57.5135   28.3026   45.3847 H   0  0  0  0  0  0  0  0  0  0  0  0
   58.4546   29.9251   47.0282 H   0  0  0  0  0  0  0  0  0  0  0  0
   59.0843   32.2169   47.6166 H   0  0  0  0  0  0  0  0  0  0  0  0
  1  2  1  0
  2  3  1  0
  3  4  1  0
  4  5  1  0
  3  6  1  0
  6  7  2  0
  6  8  1  0
  8  9  1  0
  9 10  2  0
 10 11  1  0
 11 12  2  0
 12 13  1  0
 13 14  2  0
 14 15  1  0
 15 16  2  0
 16 17  1  0
 17 18  2  0
 18  9  1  0
 17 12  1  0
  1 19  1  0
  1 20  1  0
  1 21  1  0
  2 22  1  0
  2 23  1  0
  4 24  1  0
  4 25  1  0
  5 26  1  0
  5 27  1  0
  5 28  1  0
  8 29  1  0
  8 30  1  0
 10 31  1  0
 11 32  1  0
 13 33  1  0
 14 34  1  0
 15 35  1  0
 16 36  1  0
 18 37  1  0
M  END
>  <UniqueID>  (36) 
36

>  <SMILES>  (36) 
CCN(CC)C(=O)Cc1ccc2ccccc2c1

>  <Energy>  (36) 
32.974546857153705

>  <Genealogy>  (36) 
CCN(CC)C(=O)Cc1ccc2ccccc2c1 (3D coordinates assigned)
CCN(CC)C(=O)Cc1ccc2ccccc2c1 (optimized conformer: 32.974546857153705 kcal/mol)

>  <smiles>  (36) 
CCN(CC)C(=O)Cc1ccc2ccccc2c1

>  <score_type>  (36) 
oracle

>  <origin>  (36) 
adg

>  <m_score__min__energy>  (36) 
-7.29

>  <m_primary>  (36) 
energy

$$$$
36:0
     RDKit          3D

 46 48  0  0  0  0  0  0  0  0999 V2000
   59.2150   27.3550   45.0520 C   0  0  0  0  0  0  0  0  0  0  0  0
   57.7260   27.2690   44.7300 C   0  0  0  0  0  0  0  0  0  0  0  0
   57.3800   28.1620   43.6490 N   0  0  0  0  0  0  0  0  0  0  0  0
   56.5610   29.4750   43.8650 S   0  0  0  0  0  5  0  0  0  0  0  0
   55.1850   29.1740   44.7860 O   0  0  0  0  0  0  0  0  0  0  0  0
   56.0910   30.0700   42.3620 O   0  0  0  0  0  0  0  0  0  0  0  0
   57.5600   30.6520   44.7080 C   0  0  0  0  0  0  0  0  0  0  0  0
   58.2180   30.2850   45.8980 C   0  0  0  0  0  0  0  0  0  0  0  0
   59.0210   31.2080   46.5910 C   0  0  0  0  0  0  0  0  0  0  0  0
   60.0570   30.5670   48.0690 Br  0  0  0  0  0  0  0  0  0  0  0  0
   59.1140   32.5200   46.0870 C   0  0  0  0  0  0  0  0  0  0  0  0
   58.5180   32.8520   44.8970 C   0  0  0  0  0  0  0  0  0  0  0  0
   57.7210   31.9490   44.1950 C   0  0  0  0  0  0  0  0  0  0  0  0
   58.8740   34.2340   44.4970 C   0  0  0  0  0  0  0  0  0  0  0  0
   59.9170   34.6400   45.5580 C   0  0  0  0  0  0  0  0  0  0  0  0
   59.8720   33.6110   46.6080 N   0  0  0  0  0  0  0  0  0  0  0  0
   59.8270   34.0140   48.0180 C   0  0  0  0  0  0  0  0  0  0  0  0
   61.1600   33.7640   48.6710 C   0  0  0  0  0  0  0  0  0  0  0  0
   62.2980   33.5430   47.8830 C   0  0  0  0  0  0  0  0  0  0  0  0
   63.5450   33.3400   48.4820 C   0  0  0  0  0  0  0  0  0  0  0  0
   63.6710   33.3430   49.8820 C   0  0  0  0  0  0  0  0  0  0  0  0
   65.0230   33.1740   50.5270 C   0  0  0  0  0  0  0  0  0  0  0  0
   66.0070   33.0190   49.5650 F   0  0  0  0  0  0  0  0  0  0  0  0
   65.3080   34.2940   51.2850 F   0  0  0  0  0  0  0  0  0  0  0  0
   65.0390   32.0580   51.3460 F   0  0  0  0  0  0  0  0  0  0  0  0
   62.5340   33.6000   50.6680 C   0  0  0  0  0  0  0  0  0  0  0  0
   61.2880   33.8030   50.0670 C   0  0  0  0  0  0  0  0  0  0  0  0
   59.3543   27.3630   46.1431 H   0  0  0  0  0  0  0  0  0  0  0  0
   59.7338   26.4853   44.6225 H   0  0  0  0  0  0  0  0  0  0  0  0
   59.6303   28.2786   44.6225 H   0  0  0  0  0  0  0  0  0  0  0  0
   57.4797   26.2375   44.4378 H   0  0  0  0  0  0  0  0  0  0  0  0
   57.1557   27.5618   45.6239 H   0  0  0  0  0  0  0  0  0  0  0  0
   55.1530   28.1880   44.8770 H   0  0  0  0  0  0  0  0  0  0  0  0
   55.7640   29.2790   41.8630 H   0  0  0  0  0  0  0  0  0  0  0  0
   58.1023   29.2638   46.2900 H   0  0  0  0  0  0  0  0  0  0  0  0
   57.2281   32.2467   43.2578 H   0  0  0  0  0  0  0  0  0  0  0  0
   59.3083   34.2544   43.4866 H   0  0  0  0  0  0  0  0  0  0  0  0
   58.0085   34.9117   44.4561 H   0  0  0  0  0  0  0  0  0  0  0  0
   60.9201   34.6795   45.1083 H   0  0  0  0  0  0  0  0  0  0  0  0
   59.6967   35.6361   45.9695 H   0  0  0  0  0  0  0  0  0  0  0  0
   59.5856   35.0852   48.0825 H   0  0  0  0  0  0  0  0  0  0  0  0
   59.0564   33.4244   48.5362 H   0  0  0  0  0  0  0  0  0  0  0  0
   62.2095   33.5292   46.7867 H   0  0  0  0  0  0  0  0  0  0  0  0
   64.4331   33.1769   47.8537 H   0  0  0  0  0  0  0  0  0  0  0  0
   62.6253   33.6417   51.7634 H   0  0  0  0  0  0  0  0  0  0  0  0
   60.4035   33.9943   50.6924 H   0  0  0  0  0  0  0  0  0  0  0  0
  1  2  1  0
  2  3  1  0
  3  4  2  0
  4  5  1  0
  4  6  1  0
  4  7  1  0
  7  8  2  0
  8  9  1  0
  9 10  1  0
  9 11  2  0
 11 12  1  0
 12 13  2  0
 12 14  1  0
 14 15  1  0
 15 16  1  0
 16 17  1  0
 17 18  1  0
 18 19  2  0
 19 20  1  0
 20 21  2  0
 21 22  1  0
 22 23  1  0
 22 24  1  0
 22 25  1  0
 21 26  1  0
 26 27  2  0
 13  7  1  0
 27 18  1  0
 16 11  1  0
  1 28  1  0
  1 29  1  0
  1 30  1  0
  2 31  1  0
  2 32  1  0
  5 33  1  0
  6 34  1  0
  8 35  1  0
 13 36  1  0
 14 37  1  0
 14 38  1  0
 15 39  1  0
 15 40  1  0
 17 41  1  0
 17 42  1  0
 19 43  1  0
 20 44  1  0
 26 45  1  0
 27 46  1  0
M  CHG  1   4   1
M  END
>  <UniqueID>  (37) 
37

>  <SMILES>  (37) 
CCN=[S+](O)(O)c1cc(Br)c2c(c1)CCN2Cc1ccc(C(F)(F)F)cc1

>  <Energy>  (37) 
63.33439028939288

>  <Genealogy>  (37) 
CCN=[S+](O)(O)c1cc(Br)c2c(c1)CCN2Cc1ccc(C(F)(F)F)cc1 (protonated)
CCN=[S+](O)(O)c1cc(Br)c2c(c1)CCN2Cc1ccc(C(F)(F)F)cc1 (3D coordinates assigned)
CCN=[S+](O)(O)c1cc(Br)c2c(c1)CCN2Cc1ccc(C(F)(F)F)cc1 (nonaromatic ring conformer: 63.33439028939288 kcal/mol)

>  <smiles>  (37) 
CCN=[S+]([O-])([O-])c1cc(Br)c2c(c1)CCN2Cc1ccc(C(F)(F)F)cc1

>  <score_type>  (37) 
oracle

>  <origin>  (37) 
adg

>  <m_score__min__energy>  (37) 
-7.6500000000000004

>  <m_primary>  (37) 
energy

$$$$
37:0
     RDKit          3D

 70 74  0  0  0  0  0  0  0  0999 V2000
   59.2630   33.6570   51.5860 C   0  0  0  0  0  0  0  0  0  0  0  0
   60.0740   33.8280   50.3090 C   0  0  0  0  0  0  0  0  0  0  0  0
   59.9790   32.5910   49.4960 N   0  0  0  0  0  0  0  0  0  0  0  0
   58.6510   31.9310   49.6130 C   0  0  0  0  0  0  0  0  0  0  0  0
   58.7100   30.4820   50.1180 C   0  0  0  0  0  0  0  0  0  0  0  0
   61.1480   31.6920   49.6400 C   0  0  0  0  0  0  0  0  0  0  0  0
   62.3450   32.2140   48.8110 C   0  0  0  0  0  0  0  0  0  0  0  0
   62.2730   31.8370   47.3810 N   0  0  0  0  0  0  0  0  0  0  0  0
   60.9040   31.7110   46.8900 C   0  0  0  0  0  0  0  0  0  0  0  0
   60.2090   32.8410   46.3980 C   0  0  0  0  0  0  0  0  0  0  0  0
   60.5660   34.1610   46.7560 C   0  0  0  0  0  0  0  0  0  0  0  0
   59.9170   35.2570   46.1840 C   0  0  0  0  0  0  0  0  0  0  0  0
   58.8950   35.0560   45.2600 C   0  0  0  0  0  0  0  0  0  0  0  0
   58.5040   33.7570   44.9160 C   0  0  0  0  0  0  0  0  0  0  0  0
   59.1480   32.6380   45.4830 C   0  0  0  0  0  0  0  0  0  0  0  0
   58.7880   31.3620   45.1310 N   0  0  0  0  0  0  0  0  0  0  0  0
   58.3240   31.1230   43.7490 C   0  0  0  0  0  0  0  0  0  0  0  0
   59.1100   30.3150   45.9690 C   0  0  0  0  0  0  0  0  0  0  0  0
   60.2450   30.4500   46.8130 C   0  0  0  0  0  0  0  0  0  0  0  0
   60.6540   29.3460   47.5810 C   0  0  0  0  0  0  0  0  0  0  0  0
   59.9790   28.1360   47.5260 C   0  0  0  0  0  0  0  0  0  0  0  0
   58.8010   27.9860   46.7740 C   0  0  0  0  0  0  0  0  0  0  0  0
   58.0270   26.7790   46.8130 C   0  0  0  0  0  0  0  0  0  0  0  0
   58.4660   25.6090   47.4740 C   0  0  0  0  0  0  0  0  0  0  0  0
   57.6550   24.4790   47.5580 C   0  0  0  0  0  0  0  0  0  0  0  0
   56.3890   24.4550   46.9620 C   0  0  0  0  0  0  0  0  0  0  0  0
   55.5780   23.3110   47.0340 O   0  0  0  0  0  0  0  0  0  0  0  0
   55.2200   22.6470   48.2420 C   0  0  0  0  0  0  0  0  0  0  0  0
   55.9370   25.5900   46.2600 C   0  0  0  0  0  0  0  0  0  0  0  0
   54.6790   25.6100   45.6310 O   0  0  0  0  0  0  0  0  0  0  0  0
   53.9820   24.4530   45.1820 C   0  0  0  0  0  0  0  0  0  0  0  0
   56.7550   26.7430   46.1830 C   0  0  0  0  0  0  0  0  0  0  0  0
   56.2760   27.8900   45.5440 C   0  0  0  0  0  0  0  0  0  0  0  0
   57.0310   29.0530   45.4980 C   0  0  0  0  0  0  0  0  0  0  0  0
   58.3290   29.1120   46.0360 C   0  0  0  0  0  0  0  0  0  0  0  0
   59.9189   33.7953   52.4582 H   0  0  0  0  0  0  0  0  0  0  0  0
   58.4568   34.4049   51.6113 H   0  0  0  0  0  0  0  0  0  0  0  0
   58.8274   32.6473   51.6113 H   0  0  0  0  0  0  0  0  0  0  0  0
   59.6772   34.6771   49.7331 H   0  0  0  0  0  0  0  0  0  0  0  0
   61.1265   34.0197   50.5649 H   0  0  0  0  0  0  0  0  0  0  0  0
   58.0359   32.5154   50.3131 H   0  0  0  0  0  0  0  0  0  0  0  0
   58.2257   31.8951   48.5992 H   0  0  0  0  0  0  0  0  0  0  0  0
   58.7102   30.4768   51.2180 H   0  0  0  0  0  0  0  0  0  0  0  0
   57.8336   29.9291   49.7489 H   0  0  0  0  0  0  0  0  0  0  0  0
   59.6284   30.0022   49.7489 H   0  0  0  0  0  0  0  0  0  0  0  0
   61.4372   31.6428   50.7002 H   0  0  0  0  0  0  0  0  0  0  0  0
   60.8726   30.6924   49.2725 H   0  0  0  0  0  0  0  0  0  0  0  0
   62.3676   33.3114   48.8825 H   0  0  0  0  0  0  0  0  0  0  0  0
   63.2545   31.7540   49.2248 H   0  0  0  0  0  0  0  0  0  0  0  0
   62.7810   30.9330   47.2320 H   0  0  0  0  0  0  0  0  0  0  0  0
   62.8190   32.5660   46.8800 H   0  0  0  0  0  0  0  0  0  0  0  0
   61.3646   34.3268   47.4940 H   0  0  0  0  0  0  0  0  0  0  0  0
   60.2130   36.2789   46.4633 H   0  0  0  0  0  0  0  0  0  0  0  0
   58.3938   35.9201   44.7994 H   0  0  0  0  0  0  0  0  0  0  0  0
   57.6860   33.6074   44.1960 H   0  0  0  0  0  0  0  0  0  0  0  0
   57.3463   30.6194   43.7724 H   0  0  0  0  0  0  0  0  0  0  0  0
   58.2288   32.0843   43.2228 H   0  0  0  0  0  0  0  0  0  0  0  0
   59.0514   30.4874   43.2228 H   0  0  0  0  0  0  0  0  0  0  0  0
   61.5290   29.4441   48.2403 H   0  0  0  0  0  0  0  0  0  0  0  0
   60.3743   27.2741   48.0835 H   0  0  0  0  0  0  0  0  0  0  0  0
   59.4666   25.5903   47.9306 H   0  0  0  0  0  0  0  0  0  0  0  0
   58.0152   23.5927   48.1008 H   0  0  0  0  0  0  0  0  0  0  0  0
   55.5453   23.2503   49.1023 H   0  0  0  0  0  0  0  0  0  0  0  0
   54.1285   22.5151   48.2783 H   0  0  0  0  0  0  0  0  0  0  0  0
   55.7097   21.6627   48.2783 H   0  0  0  0  0  0  0  0  0  0  0  0
   53.6336   23.8747   46.0505 H   0  0  0  0  0  0  0  0  0  0  0  0
   53.1175   24.7585   44.5743 H   0  0  0  0  0  0  0  0  0  0  0  0
   54.6562   23.8316   44.5743 H   0  0  0  0  0  0  0  0  0  0  0  0
   55.2838   27.8703   45.0696 H   0  0  0  0  0  0  0  0  0  0  0  0
   56.6036   29.9515   45.0289 H   0  0  0  0  0  0  0  0  0  0  0  0
  1  2  1  0
  2  3  1  0
  3  4  1  0
  4  5  1  0
  3  6  1  0
  6  7  1  0
  7  8  1  0
  8  9  1  0
  9 10  2  0
 10 11  1  0
 11 12  2  0
 12 13  1  0
 13 14  2  0
 14 15  1  0
 15 16  2  0
 16 17  1  0
 16 18  1  0
 18 19  2  0
 19 20  1  0
 20 21  2  0
 21 22  1  0
 22 23  2  0
 23 24  1  0
 24 25  2  0
 25 26  1  0
 26 27  1  0
 27 28  1  0
 26 29  2  0
 29 30  1  0
 30 31  1  0
 29 32  1  0
 32 33  2  0
 33 34  1  0
 34 35  2  0
 19  9  1  0
 35 22  1  0
 15 10  1  0
 35 18  1  0
 32 23  1  0
  1 36  1  0
  1 37  1  0
  1 38  1  0
  2 39  1  0
  2 40  1  0
  4 41  1  0
  4 42  1  0
  5 43  1  0
  5 44  1  0
  5 45  1  0
  6 46  1  0
  6 47  1  0
  7 48  1  0
  7 49  1  0
  8 50  1  0
  8 51  1  0
 11 52  1  0
 12 53  1  0
 13 54  1  0
 14 55  1  0
 17 56  1  0
 17 57  1  0
 17 58  1  0
 20 59  1  0
 21 60  1  0
 24 61  1  0
 25 62  1  0
 28 63  1  0
 28 64  1  0
 28 65  1  0
 31 66  1  0
 31 67  1  0
 31 68  1  0
 33 69  1  0
 34 70  1  0
M  CHG  2   8   1  16   1
M  END
>  <UniqueID>  (38) 
38

>  <SMILES>  (38) 
CCN(CC)CC[NH2+]c1c2ccccc2[n+](C)c2c1ccc1c3ccc(OC)c(OC)c3ccc12

>  <Energy>  (38) 
142.5639559198801

>  <Genealogy>  (38) 
CCN(CC)CC[NH2+]c1c2ccccc2[n+](C)c2c1ccc1c3ccc(OC)c(OC)c3ccc12 (protonated)
CCN(CC)CC[NH2+]c1c2ccccc2[n+](C)c2c1ccc1c3ccc(OC)c(OC)c3ccc12 (3D coordinates assigned)
CCN(CC)CC[NH2+]c1c2ccccc2[n+](C)c2c1ccc1c3ccc(OC)c(OC)c3ccc12 (optimized conformer: 142.5639559198801 kcal/mol)

>  <smiles>  (38) 
CCN(CC)CCNc1c2ccccc2[n+](C)c2c1ccc1c3ccc(OC)c(OC)c3ccc12

>  <score_type>  (38) 
oracle

>  <origin>  (38) 
adg

>  <m_score__min__energy>  (38) 
-5.1600000000000001

>  <m_primary>  (38) 
energy

$$$$
38:0
     RDKit          3D

 55 57  0  0  0  0  0  0  0  0999 V2000
   58.7780   28.5230   44.4530 C   0  0  0  0  0  0  0  0  0  0  0  0
   58.1400   29.1610   45.6500 C   0  0  0  0  0  0  0  0  0  0  0  0
   57.0010   29.6860   45.5120 O   0  0  0  0  0  0  0  0  0  0  0  0
   58.8110   29.1910   46.9780 C   0  0  0  0  0  0  0  0  0  0  0  0
   58.5460   30.2130   47.9100 C   0  0  0  0  0  0  0  0  0  0  0  0
   59.1900   30.2310   49.1510 C   0  0  0  0  0  0  0  0  0  0  0  0
   60.1190   29.2270   49.4840 C   0  0  0  0  0  0  0  0  0  0  0  0
   60.8020   29.1990   50.7110 O   0  0  0  0  0  0  0  0  0  0  0  0
   62.2210   29.2140   50.8740 C   0  0  0  0  0  0  0  0  0  0  0  0
   62.7950   30.6440   50.7970 C   0  0  0  0  0  0  0  0  0  0  0  0
   61.8540   31.6170   50.1870 N   0  0  0  0  0  0  0  0  0  0  0  0
   61.8890   32.9270   50.8890 C   0  0  0  0  0  0  0  0  0  0  0  0
   61.3160   34.0760   50.0350 C   0  0  0  0  0  0  0  0  0  0  0  0
   60.4010   33.5350   49.0140 N   0  0  0  0  0  0  0  0  0  0  0  0
   59.6790   34.6150   48.3110 C   0  0  0  0  0  0  0  0  0  0  0  0
   59.1630   34.1240   46.9840 C   0  0  0  0  0  0  0  0  0  0  0  0
   59.7230   34.6070   45.7910 C   0  0  0  0  0  0  0  0  0  0  0  0
   59.2650   34.1410   44.5560 C   0  0  0  0  0  0  0  0  0  0  0  0
   58.2440   33.1800   44.4970 C   0  0  0  0  0  0  0  0  0  0  0  0
   57.7510   32.6970   43.1640 C   0  0  0  0  0  0  0  0  0  0  0  0
   57.6750   32.7050   45.6890 C   0  0  0  0  0  0  0  0  0  0  0  0
   58.1350   33.1700   46.9240 C   0  0  0  0  0  0  0  0  0  0  0  0
   61.1540   32.7060   48.0500 C   0  0  0  0  0  0  0  0  0  0  0  0
   62.1770   31.7860   48.7530 C   0  0  0  0  0  0  0  0  0  0  0  0
   60.3770   28.2080   48.5640 C   0  0  0  0  0  0  0  0  0  0  0  0
   59.7340   28.1870   47.3240 C   0  0  0  0  0  0  0  0  0  0  0  0
   59.5197   27.7813   44.7845 H   0  0  0  0  0  0  0  0  0  0  0  0
   58.0062   28.0247   43.8481 H   0  0  0  0  0  0  0  0  0  0  0  0
   59.2763   29.2948   43.8481 H   0  0  0  0  0  0  0  0  0  0  0  0
   57.8251   31.0051   47.6592 H   0  0  0  0  0  0  0  0  0  0  0  0
   58.9697   31.0334   49.8705 H   0  0  0  0  0  0  0  0  0  0  0  0
   62.4707   28.7832   51.8548 H   0  0  0  0  0  0  0  0  0  0  0  0
   62.6637   28.6250   50.0572 H   0  0  0  0  0  0  0  0  0  0  0  0
   63.0345   30.9805   51.8165 H   0  0  0  0  0  0  0  0  0  0  0  0
   63.6880   30.6050   50.1558 H   0  0  0  0  0  0  0  0  0  0  0  0
   60.8840   31.2220   50.2520 H   0  0  0  0  0  0  0  0  0  0  0  0
   61.2977   32.8468   51.8131 H   0  0  0  0  0  0  0  0  0  0  0  0
   62.9426   33.1630   51.0991 H   0  0  0  0  0  0  0  0  0  0  0  0
   60.7665   34.7737   50.6841 H   0  0  0  0  0  0  0  0  0  0  0  0
   62.1427   34.6037   49.5369 H   0  0  0  0  0  0  0  0  0  0  0  0
   58.8317   34.9467   48.9291 H   0  0  0  0  0  0  0  0  0  0  0  0
   60.3707   35.4525   48.1372 H   0  0  0  0  0  0  0  0  0  0  0  0
   60.5271   35.3567   45.8286 H   0  0  0  0  0  0  0  0  0  0  0  0
   59.7065   34.5289   43.6262 H   0  0  0  0  0  0  0  0  0  0  0  0
   56.9727   31.9345   43.3152 H   0  0  0  0  0  0  0  0  0  0  0  0
   57.3310   33.5428   42.6000 H   0  0  0  0  0  0  0  0  0  0  0  0
   58.5880   32.2597   42.6000 H   0  0  0  0  0  0  0  0  0  0  0  0
   56.8634   31.9635   45.6509 H   0  0  0  0  0  0  0  0  0  0  0  0
   57.6893   32.7865   47.8537 H   0  0  0  0  0  0  0  0  0  0  0  0
   60.4438   32.0825   47.4870 H   0  0  0  0  0  0  0  0  0  0  0  0
   61.7078   33.3812   47.3811 H   0  0  0  0  0  0  0  0  0  0  0  0
   62.1665   30.8002   48.2651 H   0  0  0  0  0  0  0  0  0  0  0  0
   63.1714   32.2496   48.6741 H   0  0  0  0  0  0  0  0  0  0  0  0
   61.0941   27.4137   48.8186 H   0  0  0  0  0  0  0  0  0  0  0  0
   59.9514   27.3778   46.6113 H   0  0  0  0  0  0  0  0  0  0  0  0
  1  2  1  0
  2  3  2  0
  2  4  1  0
  4  5  2  0
  5  6  1  0
  6  7  2  0
  7  8  1  0
  8  9  1  0
  9 10  1  0
 10 11  1  0
 11 12  1  0
 12 13  1  0
 13 14  1  0
 14 15  1  0
 15 16  1  0
 16 17  2  0
 17 18  1  0
 18 19  2  0
 19 20  1  0
 19 21  1  0
 21 22  2  0
 14 23  1  0
 23 24  1  0
  7 25  1  0
 25 26  2  0
 26  4  1  0
 24 11  1  0
 22 16  1  0
  1 27  1  0
  1 28  1  0
  1 29  1  0
  5 30  1  0
  6 31  1  0
  9 32  1  0
  9 33  1  0
 10 34  1  0
 10 35  1  0
 11 36  1  0
 12 37  1  0
 12 38  1  0
 13 39  1  0
 13 40  1  0
 15 41  1  0
 15 42  1  0
 17 43  1  0
 18 44  1  0
 20 45  1  0
 20 46  1  0
 20 47  1  0
 21 48  1  0
 22 49  1  0
 23 50  1  0
 23 51  1  0
 24 52  1  0
 24 53  1  0
 25 54  1  0
 26 55  1  0
M  CHG  1  11   1
M  END
>  <UniqueID>  (39) 
39

>  <SMILES>  (39) 
CC(=O)c1ccc(OCC[NH+]2CCN(Cc3ccc(C)cc3)CC2)cc1

>  <Energy>  (39) 
64.62304023929175

>  <Genealogy>  (39) 
CC(=O)c1ccc(OCC[NH+]2CCN(Cc3ccc(C)cc3)CC2)cc1 (protonated)
CC(=O)c1ccc(OCC[NH+]2CCN(Cc3ccc(C)cc3)CC2)cc1 (3D coordinates assigned)
CC(=O)c1ccc(OCC[NH+]2CCN(Cc3ccc(C)cc3)CC2)cc1 (nonaromatic ring conformer: 64.62304023929175 kcal/mol)

>  <smiles>  (39) 
CC(=O)c1ccc(OCCN2CCN(Cc3ccc(C)cc3)CC2)cc1

>  <score_type>  (39) 
oracle

>  <origin>  (39) 
adg

>  <m_score__min__energy>  (39) 
-6.3700000000000001

>  <m_primary>  (39) 
energy

$$$$
39:0
     RDKit          3D

 47 47  0  0  0  0  0  0  0  0999 V2000
   56.5860   29.4670   42.6780 C   0  0  0  0  0  0  0  0  0  0  0  0
   55.3590   29.7150   43.5390 C   0  0  0  0  0  0  0  0  0  0  0  0
   55.6480   29.3460   44.8820 O   0  0  0  0  0  0  0  0  0  0  0  0
   56.8700   28.8150   45.3220 C   0  0  0  0  0  0  0  0  0  0  0  0
   57.0990   27.4280   45.4050 C   0  0  0  0  0  0  0  0  0  0  0  0
   58.3340   26.9470   45.8490 C   0  0  0  0  0  0  0  0  0  0  0  0
   58.6340   25.0640   45.9700 Br  0  0  0  0  0  0  0  0  0  0  0  0
   59.3400   27.8390   46.2230 C   0  0  0  0  0  0  0  0  0  0  0  0
   59.1250   29.2200   46.1460 C   0  0  0  0  0  0  0  0  0  0  0  0
   60.5040   30.3910   46.7730 Br  0  0  0  0  0  0  0  0  0  0  0  0
   57.8900   29.7080   45.6800 C   0  0  0  0  0  0  0  0  0  0  0  0
   57.6330   31.0810   45.5830 O   0  0  0  0  0  0  0  0  0  0  0  0
   58.0700   31.8960   44.4950 C   0  0  0  0  0  0  0  0  0  0  0  0
   57.3930   33.2770   44.5080 C   0  0  0  0  0  0  0  0  0  0  0  0
   57.9170   34.0840   45.5460 O   0  0  0  0  0  0  0  0  0  0  0  0
   59.2900   34.3770   45.3400 C   0  0  0  0  0  0  0  0  0  0  0  0
   59.9120   34.8630   46.6610 C   0  0  0  0  0  0  0  0  0  0  0  0
   60.4020   33.7820   47.5540 N   0  0  0  0  0  0  0  0  0  0  0  0
   59.4910   33.4230   48.6630 C   0  0  0  0  0  0  0  0  0  0  0  0
   58.2110   32.7070   48.2170 C   0  0  0  0  0  0  0  0  0  0  0  0
   61.8320   33.8220   47.9290 C   0  0  0  0  0  0  0  0  0  0  0  0
   62.7240   33.7430   46.6920 C   0  0  0  0  0  0  0  0  0  0  0  0
   57.4582   29.2907   43.3247 H   0  0  0  0  0  0  0  0  0  0  0  0
   56.4161   28.5850   42.0430 H   0  0  0  0  0  0  0  0  0  0  0  0
   56.7720   30.3457   42.0430 H   0  0  0  0  0  0  0  0  0  0  0  0
   55.0914   30.7812   43.4998 H   0  0  0  0  0  0  0  0  0  0  0  0
   54.5168   29.1151   43.1639 H   0  0  0  0  0  0  0  0  0  0  0  0
   56.3049   26.7222   45.1200 H   0  0  0  0  0  0  0  0  0  0  0  0
   60.3069   27.4548   46.5801 H   0  0  0  0  0  0  0  0  0  0  0  0
   59.1591   32.0326   44.5675 H   0  0  0  0  0  0  0  0  0  0  0  0
   57.7966   31.3900   43.5574 H   0  0  0  0  0  0  0  0  0  0  0  0
   57.5678   33.7734   43.5421 H   0  0  0  0  0  0  0  0  0  0  0  0
   56.3150   33.1396   44.6784 H   0  0  0  0  0  0  0  0  0  0  0  0
   59.8119   33.4703   45.0002 H   0  0  0  0  0  0  0  0  0  0  0  0
   59.3878   35.1628   44.5765 H   0  0  0  0  0  0  0  0  0  0  0  0
   60.7618   35.5179   46.4184 H   0  0  0  0  0  0  0  0  0  0  0  0
   59.1097   35.3780   47.2098 H   0  0  0  0  0  0  0  0  0  0  0  0
   60.0333   32.7616   49.3547 H   0  0  0  0  0  0  0  0  0  0  0  0
   59.1781   34.3667   49.1336 H   0  0  0  0  0  0  0  0  0  0  0  0
   57.6415   32.3884   49.1026 H   0  0  0  0  0  0  0  0  0  0  0  0
   57.5980   33.3932   47.6142 H   0  0  0  0  0  0  0  0  0  0  0  0
   58.4750   31.8255   47.6142 H   0  0  0  0  0  0  0  0  0  0  0  0
   62.0381   34.7620   48.4618 H   0  0  0  0  0  0  0  0  0  0  0  0
   62.0497   32.9580   48.5741 H   0  0  0  0  0  0  0  0  0  0  0  0
   63.7750   33.6499   47.0031 H   0  0  0  0  0  0  0  0  0  0  0  0
   62.4405   32.8664   46.0909 H   0  0  0  0  0  0  0  0  0  0  0  0
   62.5990   34.6557   46.0909 H   0  0  0  0  0  0  0  0  0  0  0  0
  1  2  1  0
  2  3  1  0
  3  4  1  0
  4  5  2  0
  5  6  1  0
  6  7  1  0
  6  8  2  0
  8  9  1  0
  9 10  1  0
  9 11  2  0
 11 12  1  0
 12 13  1  0
 13 14  1  0
 14 15  1  0
 15 16  1  0
 16 17  1  0
 17 18  1  0
 18 19  1  0
 19 20  1  0
 18 21  1  0
 21 22  1  0
 11  4  1  0
  1 23  1  0
  1 24  1  0
  1 25  1  0
  2 26  1  0
  2 27  1  0
  5 28  1  0
  8 29  1  0
 13 30  1  0
 13 31  1  0
 14 32  1  0
 14 33  1  0
 16 34  1  0
 16 35  1  0
 17 36  1  0
 17 37  1  0
 19 38  1  0
 19 39  1  0
 20 40  1  0
 20 41  1  0
 20 42  1  0
 21 43  1  0
 21 44  1  0
 22 45  1  0
 22 46  1  0
 22 47  1  0
M  END
>  <UniqueID>  (40) 
40

>  <SMILES>  (40) 
CCOc1cc(Br)cc(Br)c1OCCOCCN(CC)CC

>  <Energy>  (40) 
54.855285210935854

>  <Genealogy>  (40) 
CCOc1cc(Br)cc(Br)c1OCCOCCN(CC)CC (3D coordinates assigned)
CCOc1cc(Br)cc(Br)c1OCCOCCN(CC)CC (optimized conformer: 54.855285210935854 kcal/mol)

>  <smiles>  (40) 
CCOc1cc(Br)cc(Br)c1OCCOCCN(CC)CC

>  <score_type>  (40) 
oracle

>  <origin>  (40) 
adg

>  <m_score__min__energy>  (40) 
-6.7000000000000002

>  <m_primary>  (40) 
energy

$$$$
40:0
     RDKit          3D

 56 59  0  0  0  0  0  0  0  0999 V2000
   57.7380   32.0440   41.4870 C   0  0  0  0  0  0  0  0  0  0  0  0
   56.8440   31.1860   42.1880 O   0  0  0  0  0  0  0  0  0  0  0  0
   57.1420   30.5300   43.3950 C   0  0  0  0  0  0  0  0  0  0  0  0
   57.0800   29.1260   43.5060 C   0  0  0  0  0  0  0  0  0  0  0  0
   57.3910   28.4840   44.7170 C   0  0  0  0  0  0  0  0  0  0  0  0
   57.3380   27.0510   44.8270 N   0  0  0  0  0  0  0  0  0  0  0  0
   57.6370   26.1030   43.7920 C   0  0  0  0  0  0  0  0  0  0  0  0
   58.2430   26.4130   42.7300 O   0  0  0  0  0  0  0  0  0  0  0  0
   57.2300   24.7310   44.1170 C   0  0  0  0  0  0  0  0  0  0  0  0
   57.3900   23.5900   43.3270 C   0  0  0  0  0  0  0  0  0  0  0  0
   56.9420   22.3560   43.8260 C   0  0  0  0  0  0  0  0  0  0  0  0
   56.3470   22.2760   45.1010 C   0  0  0  0  0  0  0  0  0  0  0  0
   56.1950   23.4310   45.8840 C   0  0  0  0  0  0  0  0  0  0  0  0
   56.6420   24.6470   45.3690 C   0  0  0  0  0  0  0  0  0  0  0  0
   56.6010   26.2030   46.1420 S   0  0  0  0  0  0  0  0  0  0  0  0
   57.4520   26.2420   47.3790 O   0  0  0  0  0  0  0  0  0  0  0  0
   55.1990   26.6810   46.3960 O   0  0  0  0  0  0  0  0  0  0  0  0
   57.7410   29.2590   45.8300 C   0  0  0  0  0  0  0  0  0  0  0  0
   57.8080   30.6480   45.7320 C   0  0  0  0  0  0  0  0  0  0  0  0
   57.5170   31.2960   44.5200 C   0  0  0  0  0  0  0  0  0  0  0  0
   57.6330   32.8030   44.4450 C   0  0  0  0  0  0  0  0  0  0  0  0
   59.0090   33.3100   44.9110 C   0  0  0  0  0  0  0  0  0  0  0  0
   59.0300   33.8060   46.3370 C   0  0  0  0  0  0  0  0  0  0  0  0
   58.1280   34.5940   46.7330 O   0  0  0  0  0  0  0  0  0  0  0  0
   60.1050   33.4600   47.2360 N   0  0  0  0  0  0  0  0  0  0  0  0
   61.3760   32.9030   46.7530 C   0  0  0  0  0  0  0  0  0  0  0  0
   62.5320   33.5160   47.5510 C   0  0  0  0  0  0  0  0  0  0  0  0
   62.4030   33.3070   49.0170 N   0  0  0  0  0  0  0  0  0  0  0  0
   62.9710   34.4430   49.7610 C   0  0  0  0  0  0  0  0  0  0  0  0
   61.0330   32.9820   49.4860 C   0  0  0  0  0  0  0  0  0  0  0  0
   59.9390   33.6960   48.6770 C   0  0  0  0  0  0  0  0  0  0  0  0
   58.3367   32.6186   42.2091 H   0  0  0  0  0  0  0  0  0  0  0  0
   58.4059   31.4402   40.8551 H   0  0  0  0  0  0  0  0  0  0  0  0
   57.1621   32.7362   40.8551 H   0  0  0  0  0  0  0  0  0  0  0  0
   56.7843   28.5251   42.6334 H   0  0  0  0  0  0  0  0  0  0  0  0
   57.8577   23.6568   42.3336 H   0  0  0  0  0  0  0  0  0  0  0  0
   57.0562   21.4465   43.2180 H   0  0  0  0  0  0  0  0  0  0  0  0
   56.0004   21.3048   45.4840 H   0  0  0  0  0  0  0  0  0  0  0  0
   55.7337   23.3779   46.8812 H   0  0  0  0  0  0  0  0  0  0  0  0
   57.9647   28.7680   46.7886 H   0  0  0  0  0  0  0  0  0  0  0  0
   58.0917   31.2428   46.6128 H   0  0  0  0  0  0  0  0  0  0  0  0
   57.4750   33.1179   43.4030 H   0  0  0  0  0  0  0  0  0  0  0  0
   56.8734   33.2313   45.1155 H   0  0  0  0  0  0  0  0  0  0  0  0
   59.7304   32.4844   44.8213 H   0  0  0  0  0  0  0  0  0  0  0  0
   59.2653   34.1678   44.2719 H   0  0  0  0  0  0  0  0  0  0  0  0
   61.3740   31.8113   46.8883 H   0  0  0  0  0  0  0  0  0  0  0  0
   61.4995   33.1373   45.6854 H   0  0  0  0  0  0  0  0  0  0  0  0
   63.4729   33.0570   47.2133 H   0  0  0  0  0  0  0  0  0  0  0  0
   62.5158   34.6011   47.3714 H   0  0  0  0  0  0  0  0  0  0  0  0
   62.8781   34.2571   50.8412 H   0  0  0  0  0  0  0  0  0  0  0  0
   64.0330   34.5587   49.4989 H   0  0  0  0  0  0  0  0  0  0  0  0
   62.4264   35.3621   49.4989 H   0  0  0  0  0  0  0  0  0  0  0  0
   60.8809   31.8960   49.3998 H   0  0  0  0  0  0  0  0  0  0  0  0
   60.9505   33.3255   50.5277 H   0  0  0  0  0  0  0  0  0  0  0  0
   58.9552   33.3176   48.9917 H   0  0  0  0  0  0  0  0  0  0  0  0
   60.0164   34.7772   48.8644 H   0  0  0  0  0  0  0  0  0  0  0  0
  1  2  1  0
  2  3  1  0
  3  4  2  0
  4  5  1  0
  5  6  1  0
  6  7  1  0
  7  8  2  0
  7  9  1  0
  9 10  2  0
 10 11  1  0
 11 12  2  0
 12 13  1  0
 13 14  2  0
 14 15  1  0
 15 16  2  0
 15 17  2  0
  5 18  2  0
 18 19  1  0
 19 20  2  0
 20 21  1  0
 21 22  1  0
 22 23  1  0
 23 24  2  0
 23 25  1  0
 25 26  1  0
 26 27  1  0
 27 28  1  0
 28 29  1  0
 28 30  1  0
 30 31  1  0
 20  3  1  0
 31 25  1  0
 15  6  1  0
 14  9  1  0
  1 32  1  0
  1 33  1  0
  1 34  1  0
  4 35  1  0
 10 36  1  0
 11 37  1  0
 12 38  1  0
 13 39  1  0
 18 40  1  0
 19 41  1  0
 21 42  1  0
 21 43  1  0
 22 44  1  0
 22 45  1  0
 26 46  1  0
 26 47  1  0
 27 48  1  0
 27 49  1  0
 29 50  1  0
 29 51  1  0
 29 52  1  0
 30 53  1  0
 30 54  1  0
 31 55  1  0
 31 56  1  0
M  END
>  <UniqueID>  (41) 
41

>  <SMILES>  (41) 
COc1cc(N2C(=O)c3ccccc3S2(=O)=O)ccc1CCC(=O)N1CCN(C)CC1

>  <Energy>  (41) 
92.06239900744276

>  <Genealogy>  (41) 
COc1cc(N2C(=O)c3ccccc3S2(=O)=O)ccc1CCC(=O)N1CCN(C)CC1 (3D coordinates assigned)
COc1cc(N2C(=O)c3ccccc3S2(=O)=O)ccc1CCC(=O)N1CCN(C)CC1 (nonaromatic ring conformer: 92.06239900744276 kcal/mol)

>  <smiles>  (41) 
COc1cc(N2C(=O)c3ccccc3S2(=O)=O)ccc1CCC(=O)N1CCN(C)CC1

>  <score_type>  (41) 
oracle

>  <origin>  (41) 
adg

>  <m_score__min__energy>  (41) 
-9.1300000000000008

>  <m_primary>  (41) 
energy

$$$$
