0:0
     RDKit          3D

 45 46  0  0  0  0  0  0  0  0999 V2000
   63.4180   32.1960   47.4490 C   0  0  0  0  0  0  0  0  0  0  0  0
   62.8230   33.4850   46.8720 C   0  0  0  0  0  0  0  0  0  0  0  0
   61.5170   33.8190   47.4680 N   0  0  0  0  0  0  0  0  0  0  0  0
   60.6470   34.5480   46.5320 C   0  0  0  0  0  0  0  0  0  0  0  0
   59.5200   33.6640   46.0620 C   0  0  0  0  0  0  0  0  0  0  0  0
   58.9760   32.6960   46.9190 C   0  0  0  0  0  0  0  0  0  0  0  0
   57.9070   31.9000   46.4960 C   0  0  0  0  0  0  0  0  0  0  0  0
   57.3700   32.0560   45.2110 C   0  0  0  0  0  0  0  0  0  0  0  0
   56.2590   31.2360   44.8260 N   0  0  0  0  0  0  0  0  0  0  0  0
   56.3220   29.8640   44.4150 C   0  0  0  0  0  0  0  0  0  0  0  0
   55.5210   29.0120   44.8820 O   0  0  0  0  0  0  0  0  0  0  0  0
   57.3150   29.4530   43.3710 C   0  0  0  0  0  0  0  0  0  0  0  0
   57.4250   27.9880   43.2990 N   0  0  0  0  0  0  0  0  0  0  0  0
   58.7350   27.4840   43.7490 C   0  0  0  0  0  0  0  0  0  0  0  0
   59.1960   28.1360   45.0360 C   0  0  0  0  0  0  0  0  0  0  0  0
   60.2630   29.0520   44.9990 C   0  0  0  0  0  0  0  0  0  0  0  0
   60.6970   29.6830   46.1670 C   0  0  0  0  0  0  0  0  0  0  0  0
   60.0740   29.4060   47.3860 C   0  0  0  0  0  0  0  0  0  0  0  0
   60.6240   30.2000   48.8520 Cl  0  0  0  0  0  0  0  0  0  0  0  0
   59.0150   28.4960   47.4380 C   0  0  0  0  0  0  0  0  0  0  0  0
   58.5700   27.8600   46.2730 C   0  0  0  0  0  0  0  0  0  0  0  0
   57.2390   26.7160   46.4060 Cl  0  0  0  0  0  0  0  0  0  0  0  0
   57.8890   33.0530   44.3660 C   0  0  0  0  0  0  0  0  0  0  0  0
   58.9570   33.8490   44.7890 C   0  0  0  0  0  0  0  0  0  0  0  0
   63.3967   32.2421   48.5478 H   0  0  0  0  0  0  0  0  0  0  0  0
   62.8267   31.3339   47.1067 H   0  0  0  0  0  0  0  0  0  0  0  0
   64.4576   32.0867   47.1067 H   0  0  0  0  0  0  0  0  0  0  0  0
   63.5210   34.3130   47.0647 H   0  0  0  0  0  0  0  0  0  0  0  0
   62.6688   33.3291   45.7941 H   0  0  0  0  0  0  0  0  0  0  0  0
   61.0390   32.9450   47.7930 H   0  0  0  0  0  0  0  0  0  0  0  0
   61.6920   34.4250   48.3050 H   0  0  0  0  0  0  0  0  0  0  0  0
   60.2282   35.4298   47.0389 H   0  0  0  0  0  0  0  0  0  0  0  0
   61.2426   34.8588   45.6610 H   0  0  0  0  0  0  0  0  0  0  0  0
   59.3922   32.5624   47.9284 H   0  0  0  0  0  0  0  0  0  0  0  0
   57.4846   31.1461   47.1766 H   0  0  0  0  0  0  0  0  0  0  0  0
   56.9899   29.8382   42.3933 H   0  0  0  0  0  0  0  0  0  0  0  0
   58.2984   29.8665   43.6392 H   0  0  0  0  0  0  0  0  0  0  0  0
   56.6720   27.5730   43.8940 H   0  0  0  0  0  0  0  0  0  0  0  0
   58.6588   26.3987   43.9109 H   0  0  0  0  0  0  0  0  0  0  0  0
   59.4721   27.7256   42.9691 H   0  0  0  0  0  0  0  0  0  0  0  0
   60.7595   29.2731   44.0426 H   0  0  0  0  0  0  0  0  0  0  0  0
   61.5308   30.3993   46.1268 H   0  0  0  0  0  0  0  0  0  0  0  0
   58.5281   28.2781   48.4000 H   0  0  0  0  0  0  0  0  0  0  0  0
   57.4526   33.2070   43.3681 H   0  0  0  0  0  0  0  0  0  0  0  0
   59.3589   34.6249   44.1208 H   0  0  0  0  0  0  0  0  0  0  0  0
  1  2  1  0
  2  3  1  0
  3  4  1  0
  4  5  1  0
  5  6  2  0
  6  7  1  0
  7  8  2  0
  8  9  1  0
  9 10  1  0
 10 11  2  0
 10 12  1  0
 12 13  1  0
 13 14  1  0
 14 15  1  0
 15 16  2  0
 16 17  1  0
 17 18  2  0
 18 19  1  0
 18 20  1  0
 20 21  2  0
 21 22  1  0
  8 23  1  0
 23 24  2  0
 24  5  1  0
 21 15  1  0
  1 25  1  0
  1 26  1  0
  1 27  1  0
  2 28  1  0
  2 29  1  0
  3 30  1  0
  3 31  1  0
  4 32  1  0
  4 33  1  0
  6 34  1  0
  7 35  1  0
 12 36  1  0
 12 37  1  0
 13 38  1  0
 14 39  1  0
 14 40  1  0
 16 41  1  0
 17 42  1  0
 20 43  1  0
 23 44  1  0
 24 45  1  0
M  CHG  2   3   1   9  -1
M  END
>  <UniqueID>  (1) 
1

>  <SMILES>  (1) 
CC[NH2+]Cc1ccc([N-]C(=O)CNCc2ccc(Cl)cc2Cl)cc1

>  <Energy>  (1) 
46.140676549659

>  <Genealogy>  (1) 
CC[NH2+]Cc1ccc([N-]C(=O)CNCc2ccc(Cl)cc2Cl)cc1 (protonated)
CC[NH2+]Cc1ccc([N-]C(=O)CNCc2ccc(Cl)cc2Cl)cc1 (3D coordinates assigned)
CC[NH2+]Cc1ccc([N-]C(=O)CNCc2ccc(Cl)cc2Cl)cc1 (optimized conformer: 46.140676549659 kcal/mol)

>  <smiles>  (1) 
CCNCc1ccc(NC(=O)CNCc2ccc(Cl)cc2Cl)cc1

>  <score_type>  (1) 
oracle

>  <origin>  (1) 
adg

>  <m_score__min__energy>  (1) 
-9.0099999999999998

>  <m_primary>  (1) 
energy

$$$$
1:0
     RDKit          3D

 58 61  0  0  0  0  0  0  0  0999 V2000
   63.2970   33.0470   47.0180 C   0  0  0  0  0  0  0  0  0  0  0  0
   63.7810   32.5900   48.3970 C   0  0  0  0  0  0  0  0  0  0  0  0
   62.9360   31.5300   48.9790 N   0  0  0  0  0  0  0  0  0  0  0  0
   62.5650   31.7430   50.3920 C   0  0  0  0  0  0  0  0  0  0  0  0
   61.3220   30.9480   50.8100 C   0  0  0  0  0  0  0  0  0  0  0  0
   60.9540   30.0910   49.7520 O   0  0  0  0  0  0  0  0  0  0  0  0
   59.7340   29.4470   50.0550 C   0  0  0  0  0  0  0  0  0  0  0  0
   58.9190   29.2740   48.7750 C   0  0  0  0  0  0  0  0  0  0  0  0
   59.7350   29.5500   47.5910 N   0  0  0  0  0  0  0  0  0  0  0  0
   59.1340   29.8020   46.3130 C   0  0  0  0  0  0  0  0  0  0  0  0
   58.7870   28.7450   45.4390 C   0  0  0  0  0  0  0  0  0  0  0  0
   59.1260   27.4130   45.7510 C   0  0  0  0  0  0  0  0  0  0  0  0
   58.7980   26.3760   44.8830 C   0  0  0  0  0  0  0  0  0  0  0  0
   58.1380   26.6430   43.6890 C   0  0  0  0  0  0  0  0  0  0  0  0
   57.7780   27.9490   43.3590 C   0  0  0  0  0  0  0  0  0  0  0  0
   58.0700   29.0290   44.2270 C   0  0  0  0  0  0  0  0  0  0  0  0
   57.6880   30.3280   43.9260 N   0  0  0  0  0  0  0  0  0  0  0  0
   56.8530   30.6320   42.7500 C   0  0  0  0  0  0  0  0  0  0  0  0
   58.1230   31.3400   44.7440 C   0  0  0  0  0  0  0  0  0  0  0  0
   57.9730   32.6710   44.5310 N   0  0  0  0  0  0  0  0  0  0  0  0
   58.5950   33.2650   45.5690 C   0  0  0  0  0  0  0  0  0  0  0  0
   58.7440   34.6340   45.7780 C   0  0  0  0  0  0  0  0  0  0  0  0
   59.4780   35.0580   46.8980 C   0  0  0  0  0  0  0  0  0  0  0  0
   60.0750   34.1130   47.7700 C   0  0  0  0  0  0  0  0  0  0  0  0
   60.8440   34.5760   48.9700 C   0  0  0  0  0  0  0  0  0  0  0  0
   59.9020   32.7320   47.5360 C   0  0  0  0  0  0  0  0  0  0  0  0
   59.1400   32.3390   46.4320 C   0  0  0  0  0  0  0  0  0  0  0  0
   58.8280   31.0970   45.9060 C   0  0  0  0  0  0  0  0  0  0  0  0
   62.5020   33.7976   47.1386 H   0  0  0  0  0  0  0  0  0  0  0  0
   64.1373   33.4889   46.4624 H   0  0  0  0  0  0  0  0  0  0  0  0
   62.9040   32.1828   46.4624 H   0  0  0  0  0  0  0  0  0  0  0  0
   64.8075   32.2069   48.2996 H   0  0  0  0  0  0  0  0  0  0  0  0
   63.7308   33.4590   49.0695 H   0  0  0  0  0  0  0  0  0  0  0  0
   63.4420   30.6170   48.8940 H   0  0  0  0  0  0  0  0  0  0  0  0
   62.0580   31.4490   48.4140 H   0  0  0  0  0  0  0  0  0  0  0  0
   63.4087   31.4342   51.0266 H   0  0  0  0  0  0  0  0  0  0  0  0
   62.3298   32.8106   50.5138 H   0  0  0  0  0  0  0  0  0  0  0  0
   61.5483   30.3524   51.7067 H   0  0  0  0  0  0  0  0  0  0  0  0
   60.4958   31.6379   51.0370 H   0  0  0  0  0  0  0  0  0  0  0  0
   59.9396   28.4601   50.4952 H   0  0  0  0  0  0  0  0  0  0  0  0
   59.1654   30.0568   50.7725 H   0  0  0  0  0  0  0  0  0  0  0  0
   58.5473   28.2401   48.7224 H   0  0  0  0  0  0  0  0  0  0  0  0
   58.0800   29.9851   48.7954 H   0  0  0  0  0  0  0  0  0  0  0  0
   60.7660   29.3860   47.6420 H   0  0  0  0  0  0  0  0  0  0  0  0
   59.6549   27.1911   46.6896 H   0  0  0  0  0  0  0  0  0  0  0  0
   59.0622   25.3403   45.1428 H   0  0  0  0  0  0  0  0  0  0  0  0
   57.8984   25.8192   43.0006 H   0  0  0  0  0  0  0  0  0  0  0  0
   57.2587   28.1435   42.4090 H   0  0  0  0  0  0  0  0  0  0  0  0
   55.8678   30.9907   43.0827 H   0  0  0  0  0  0  0  0  0  0  0  0
   57.3413   31.4100   42.1448 H   0  0  0  0  0  0  0  0  0  0  0  0
   56.7268   29.7221   42.1448 H   0  0  0  0  0  0  0  0  0  0  0  0
   57.5310   33.1640   43.7250 H   0  0  0  0  0  0  0  0  0  0  0  0
   58.2990   35.3631   45.0849 H   0  0  0  0  0  0  0  0  0  0  0  0
   59.5907   36.1333   47.1004 H   0  0  0  0  0  0  0  0  0  0  0  0
   60.3207   34.2609   49.8848 H   0  0  0  0  0  0  0  0  0  0  0  0
   61.8512   34.1340   48.9530 H   0  0  0  0  0  0  0  0  0  0  0  0
   60.9246   35.6729   48.9530 H   0  0  0  0  0  0  0  0  0  0  0  0
   60.3547   31.9849   48.2045 H   0  0  0  0  0  0  0  0  0  0  0  0
  1  2  1  0
  2  3  1  0
  3  4  1  0
  4  5  1  0
  5  6  1  0
  6  7  1  0
  7  8  1  0
  8  9  1  0
  9 10  1  0
 10 11  2  0
 11 12  1  0
 12 13  2  0
 13 14  1  0
 14 15  2  0
 15 16  1  0
 16 17  2  0
 17 18  1  0
 17 19  1  0
 19 20  1  0
 20 21  1  0
 21 22  2  0
 22 23  1  0
 23 24  2  0
 24 25  1  0
 24 26  1  0
 26 27  2  0
 27 28  1  0
 28 10  1  0
 16 11  1  0
 28 19  2  0
 27 21  1  0
  1 29  1  0
  1 30  1  0
  1 31  1  0
  2 32  1  0
  2 33  1  0
  3 34  1  0
  3 35  1  0
  4 36  1  0
  4 37  1  0
  5 38  1  0
  5 39  1  0
  7 40  1  0
  7 41  1  0
  8 42  1  0
  8 43  1  0
  9 44  1  0
 12 45  1  0
 13 46  1  0
 14 47  1  0
 15 48  1  0
 18 49  1  0
 18 50  1  0
 18 51  1  0
 20 52  1  0
 22 53  1  0
 23 54  1  0
 25 55  1  0
 25 56  1  0
 25 57  1  0
 26 58  1  0
M  CHG  2   3   1  17   1
M  END
>  <UniqueID>  (2) 
2

>  <SMILES>  (2) 
CC[NH2+]CCOCCNc1c2ccccc2[n+](C)c2[nH]c3ccc(C)cc3c12

>  <Energy>  (2) 
110.6595729373663

>  <Genealogy>  (2) 
CC[NH2+]CCOCCNc1c2ccccc2[n+](C)c2[nH]c3ccc(C)cc3c12 (protonated)
CC[NH2+]CCOCCNc1c2ccccc2[n+](C)c2[nH]c3ccc(C)cc3c12 (3D coordinates assigned)
CC[NH2+]CCOCCNc1c2ccccc2[n+](C)c2[nH]c3ccc(C)cc3c12 (optimized conformer: 110.6595729373663 kcal/mol)

>  <smiles>  (2) 
CCNCCOCCNc1c2ccccc2[n+](C)c2[nH]c3ccc(C)cc3c12

>  <score_type>  (2) 
oracle

>  <origin>  (2) 
adg

>  <m_score__min__energy>  (2) 
-5.1799999999999997

>  <m_primary>  (2) 
energy

$$$$
2:0
     RDKit          3D

 69 73  0  0  0  0  0  0  0  0999 V2000
   59.1500   29.7520   51.0960 C   0  0  0  0  0  0  0  0  0  0  0  0
   60.2650   28.8500   51.6260 C   0  0  0  0  0  0  0  0  0  0  0  0
   61.3500   29.6280   52.3860 C   0  0  0  0  0  0  0  0  0  0  0  0
   62.7700   29.3450   51.8430 C   0  0  0  0  0  0  0  0  0  0  0  0
   63.5370   30.6250   51.3730 C   0  0  2  0  0  0  0  0  0  0  0  0
   64.7980   30.2520   50.8710 O   0  0  0  0  0  0  0  0  0  0  0  0
   63.7690   31.5880   52.5310 C   0  0  0  0  0  0  0  0  0  0  0  0
   63.5980   31.2450   53.7310 O   0  0  0  0  0  0  0  0  0  0  0  0
   64.1480   32.9040   52.2570 O   0  0  0  0  0  0  0  0  0  0  0  0
   64.3010   33.3700   50.9190 C   0  0  0  0  0  0  0  0  0  0  0  0
   63.2200   32.7810   50.0470 C   0  0  0  0  0  0  0  0  0  0  0  0
   62.8020   31.4370   50.2830 C   0  0  0  0  0  0  0  0  0  0  0  0
   61.7950   30.8900   49.4500 C   0  0  0  0  0  0  0  0  0  0  0  0
   61.2560   31.6870   48.4450 C   0  0  0  0  0  0  0  0  0  0  0  0
   61.6750   32.9500   48.2350 N   0  0  0  0  0  0  0  0  0  0  0  0
   62.6440   33.5250   48.9940 C   0  0  0  0  0  0  0  0  0  0  0  0
   63.0170   34.7060   48.7560 O   0  0  0  0  0  0  0  0  0  0  0  0
   60.9530   33.5540   47.1080 C   0  0  0  0  0  0  0  0  0  0  0  0
   60.0270   32.4450   46.6830 C   0  0  0  0  0  0  0  0  0  0  0  0
   60.2310   31.3550   47.4900 C   0  0  0  0  0  0  0  0  0  0  0  0
   59.5290   30.2070   47.3630 N   0  0  0  0  0  0  0  0  0  0  0  0
   58.5710   30.1100   46.3980 C   0  0  0  0  0  0  0  0  0  0  0  0
   57.8410   28.9230   46.2800 C   0  0  0  0  0  0  0  0  0  0  0  0
   56.8340   28.7930   45.3210 C   0  0  0  0  0  0  0  0  0  0  0  0
   56.1300   27.5790   45.2650 O   0  0  0  0  0  0  0  0  0  0  0  0
   56.2920   26.4810   46.1650 C   0  0  0  0  0  0  0  0  0  0  0  0
   57.3800   25.5180   45.6820 C   0  0  0  0  0  0  0  0  0  0  0  0
   57.4870   25.5630   44.2140 N   0  0  0  0  0  0  0  0  0  0  0  0
   56.8240   24.4120   43.5880 C   0  0  0  0  0  0  0  0  0  0  0  0
   57.4360   23.1150   44.1010 C   0  0  0  0  0  0  0  0  0  0  0  0
   56.5630   29.8700   44.4590 C   0  0  0  0  0  0  0  0  0  0  0  0
   57.2840   31.0630   44.5600 C   0  0  0  0  0  0  0  0  0  0  0  0
   58.3030   31.2090   45.5240 C   0  0  0  0  0  0  0  0  0  0  0  0
   59.0640   32.4090   45.6620 C   0  0  0  0  0  0  0  0  0  0  0  0
   58.8390   33.6370   44.8030 C   0  0  0  0  0  0  0  0  0  0  0  0
   57.4680   34.2480   45.0770 C   0  0  0  0  0  0  0  0  0  0  0  0
   58.6031   30.1944   51.9417 H   0  0  0  0  0  0  0  0  0  0  0  0
   59.5872   30.5535   50.4825 H   0  0  0  0  0  0  0  0  0  0  0  0
   58.4575   29.1570   50.4825 H   0  0  0  0  0  0  0  0  0  0  0  0
   59.8228   28.1078   52.3068 H   0  0  0  0  0  0  0  0  0  0  0  0
   60.7455   28.3733   50.7589 H   0  0  0  0  0  0  0  0  0  0  0  0
   61.1440   30.7044   52.2917 H   0  0  0  0  0  0  0  0  0  0  0  0
   61.3221   29.3021   53.4362 H   0  0  0  0  0  0  0  0  0  0  0  0
   63.3557   28.8636   52.6400 H   0  0  0  0  0  0  0  0  0  0  0  0
   62.6508   28.7020   50.9585 H   0  0  0  0  0  0  0  0  0  0  0  0
   65.4670   30.8910   51.2350 H   0  0  0  0  0  0  0  0  0  0  0  0
   64.2256   34.4673   50.9034 H   0  0  0  0  0  0  0  0  0  0  0  0
   65.2851   33.0611   50.5367 H   0  0  0  0  0  0  0  0  0  0  0  0
   61.4465   29.8567   49.5948 H   0  0  0  0  0  0  0  0  0  0  0  0
   60.3888   34.4426   47.4276 H   0  0  0  0  0  0  0  0  0  0  0  0
   61.6135   33.9070   46.3024 H   0  0  0  0  0  0  0  0  0  0  0  0
   58.0629   28.0805   46.9515 H   0  0  0  0  0  0  0  0  0  0  0  0
   56.5714   26.8687   47.1558 H   0  0  0  0  0  0  0  0  0  0  0  0
   55.3406   25.9312   46.2148 H   0  0  0  0  0  0  0  0  0  0  0  0
   58.3441   25.8079   46.1252 H   0  0  0  0  0  0  0  0  0  0  0  0
   57.1158   24.4957   45.9905 H   0  0  0  0  0  0  0  0  0  0  0  0
   56.9980   26.4280   43.8800 H   0  0  0  0  0  0  0  0  0  0  0  0
   55.7520   24.4311   43.8340 H   0  0  0  0  0  0  0  0  0  0  0  0
   56.9579   24.4676   42.4976 H   0  0  0  0  0  0  0  0  0  0  0  0
   57.4343   23.1187   45.2010 H   0  0  0  0  0  0  0  0  0  0  0  0
   56.8456   22.2615   43.7362 H   0  0  0  0  0  0  0  0  0  0  0  0
   58.4701   23.0281   43.7362 H   0  0  0  0  0  0  0  0  0  0  0  0
   55.7754   29.7727   43.6972 H   0  0  0  0  0  0  0  0  0  0  0  0
   57.0543   31.8969   43.8804 H   0  0  0  0  0  0  0  0  0  0  0  0
   59.6168   34.3816   45.0280 H   0  0  0  0  0  0  0  0  0  0  0  0
   58.8868   33.3399   43.7450 H   0  0  0  0  0  0  0  0  0  0  0  0
   57.3086   34.3190   46.1631 H   0  0  0  0  0  0  0  0  0  0  0  0
   57.4191   35.2531   44.6327 H   0  0  0  0  0  0  0  0  0  0  0  0
   56.6879   33.6124   44.6327 H   0  0  0  0  0  0  0  0  0  0  0  0
  1  2  1  0
  2  3  1  0
  3  4  1  0
  4  5  1  0
  5  6  1  6
  5  7  1  0
  7  8  2  0
  7  9  1  0
  9 10  1  0
 10 11  1  0
 11 12  2  0
 12 13  1  0
 13 14  2  0
 14 15  1  0
 15 16  1  0
 16 17  2  0
 15 18  1  0
 18 19  1  0
 19 20  2  0
 20 21  1  0
 21 22  2  0
 22 23  1  0
 23 24  2  0
 24 25  1  0
 25 26  1  0
 26 27  1  0
 27 28  1  0
 28 29  1  0
 29 30  1  0
 24 31  1  0
 31 32  2  0
 32 33  1  0
 33 34  2  0
 34 35  1  0
 35 36  1  0
 12  5  1  0
 20 14  1  0
 33 22  1  0
 16 11  1  0
 34 19  1  0
  1 37  1  0
  1 38  1  0
  1 39  1  0
  2 40  1  0
  2 41  1  0
  3 42  1  0
  3 43  1  0
  4 44  1  0
  4 45  1  0
  6 46  1  0
 10 47  1  0
 10 48  1  0
 13 49  1  0
 18 50  1  0
 18 51  1  0
 23 52  1  0
 26 53  1  0
 26 54  1  0
 27 55  1  0
 27 56  1  0
 28 57  1  0
 29 58  1  0
 29 59  1  0
 30 60  1  0
 30 61  1  0
 30 62  1  0
 31 63  1  0
 32 64  1  0
 35 65  1  0
 35 66  1  0
 36 67  1  0
 36 68  1  0
 36 69  1  0
M  END
>  <UniqueID>  (3) 
3

>  <SMILES>  (3) 
CCCC[C@]1(O)C(=O)OCc2c1cc1n(c2=O)Cc2c-1nc1cc(OCCNCC)ccc1c2CC

>  <Energy>  (3) 
105.16585323214726

>  <Genealogy>  (3) 
CCCC[C@]1(O)C(=O)OCc2c1cc1n(c2=O)Cc2c-1nc1cc(OCCNCC)ccc1c2CC (chirality)
CCCC[C@]1(O)C(=O)OCc2c1cc1n(c2=O)Cc2c-1nc1cc(OCCNCC)ccc1c2CC (3D coordinates assigned)
CCCC[C@]1(O)C(=O)OCc2c1cc1n(c2=O)Cc2c-1nc1cc(OCCNCC)ccc1c2CC (nonaromatic ring conformer: 105.16585323214726 kcal/mol)

>  <smiles>  (3) 
CCCCC1(O)C(=O)OCc2c1cc1n(c2=O)Cc2c-1nc1cc(OCCNCC)ccc1c2CC

>  <score_type>  (3) 
oracle

>  <origin>  (3) 
adg

>  <m_score__min__energy>  (3) 
-7.5999999999999996

>  <m_primary>  (3) 
energy

$$$$
3:0
     RDKit          3D

 77 80  0  0  0  0  0  0  0  0999 V2000
   62.9060   31.7220   47.1540 C   0  0  0  0  0  0  0  0  0  0  0  0
   62.3380   33.1380   47.1330 C   0  0  0  0  0  0  0  0  0  0  0  0
   62.7340   33.8910   48.3520 N   0  0  0  0  0  0  0  0  0  0  0  0
   63.9940   33.3400   48.9090 C   0  0  0  0  0  0  0  0  0  0  0  0
   63.7920   32.8710   50.3500 C   0  0  0  0  0  0  0  0  0  0  0  0
   61.6320   33.8260   49.3460 C   0  0  0  0  0  0  0  0  0  0  0  0
   60.2820   34.3400   48.8140 C   0  0  0  0  0  0  0  0  0  0  0  0
   59.2360   33.3160   48.8550 N   0  0  0  0  0  0  0  0  0  0  0  0
   59.1320   32.2700   47.8720 C   0  0  0  0  0  0  0  0  0  0  0  0
   58.6640   32.5430   46.5710 C   0  0  0  0  0  0  0  0  0  0  0  0
   58.4550   33.8700   46.1380 C   0  0  0  0  0  0  0  0  0  0  0  0
   58.0160   34.1340   44.8440 C   0  0  0  0  0  0  0  0  0  0  0  0
   57.8080   33.0900   43.9500 C   0  0  0  0  0  0  0  0  0  0  0  0
   58.0350   31.7730   44.3440 C   0  0  0  0  0  0  0  0  0  0  0  0
   58.4550   31.4660   45.6660 C   0  0  0  0  0  0  0  0  0  0  0  0
   58.6980   30.1660   46.0680 N   0  0  0  0  0  0  0  0  0  0  0  0
   58.2250   29.0330   45.2440 C   0  0  0  0  0  0  0  0  0  0  0  0
   59.3890   29.9250   47.2410 C   0  0  0  0  0  0  0  0  0  0  0  0
   59.9290   28.6510   47.5410 C   0  0  0  0  0  0  0  0  0  0  0  0
   60.5830   28.4110   48.7490 C   0  0  0  0  0  0  0  0  0  0  0  0
   60.7270   29.4310   49.6930 C   0  0  0  0  0  0  0  0  0  0  0  0
   61.3670   29.1740   50.9610 N   0  0  0  0  0  0  0  0  0  0  0  0
   61.6720   30.4400   51.6410 C   0  0  0  0  0  0  0  0  0  0  0  0
   60.9770   30.5840   53.0260 C   0  0  0  0  0  0  0  0  0  0  0  0
   59.7850   31.5030   53.1300 N   0  0  0  0  0  0  0  0  0  0  0  0
   59.2850   31.3730   54.5300 C   0  0  0  0  0  0  0  0  0  0  0  0
   58.6930   31.0760   52.2000 C   0  0  0  0  0  0  0  0  0  0  0  0
   57.4410   31.9760   52.2720 C   0  0  0  0  0  0  0  0  0  0  0  0
   57.7820   33.4740   52.3710 C   0  0  0  0  0  0  0  0  0  0  0  0
   59.2420   33.7540   52.0160 C   0  0  0  0  0  0  0  0  0  0  0  0
   60.1990   32.9380   52.9070 C   0  0  0  0  0  0  0  0  0  0  0  0
   60.2560   30.7130   49.3860 C   0  0  0  0  0  0  0  0  0  0  0  0
   59.5930   30.9760   48.1720 C   0  0  0  0  0  0  0  0  0  0  0  0
   63.0372   31.3950   48.1960 H   0  0  0  0  0  0  0  0  0  0  0  0
   62.2116   31.0407   46.6405 H   0  0  0  0  0  0  0  0  0  0  0  0
   63.8787   31.7095   46.6405 H   0  0  0  0  0  0  0  0  0  0  0  0
   62.7188   33.6648   46.2456 H   0  0  0  0  0  0  0  0  0  0  0  0
   61.2403   33.0740   47.1028 H   0  0  0  0  0  0  0  0  0  0  0  0
   64.3173   32.4870   48.2942 H   0  0  0  0  0  0  0  0  0  0  0  0
   64.7587   34.1307   48.8998 H   0  0  0  0  0  0  0  0  0  0  0  0
   64.1302   33.6563   51.0420 H   0  0  0  0  0  0  0  0  0  0  0  0
   62.7253   32.6649   50.5224 H   0  0  0  0  0  0  0  0  0  0  0  0
   64.3751   31.9543   50.5224 H   0  0  0  0  0  0  0  0  0  0  0  0
   61.5061   32.7780   49.6556 H   0  0  0  0  0  0  0  0  0  0  0  0
   61.9166   34.4817   50.1821 H   0  0  0  0  0  0  0  0  0  0  0  0
   59.9631   35.1947   49.4286 H   0  0  0  0  0  0  0  0  0  0  0  0
   60.4255   34.6289   47.7624 H   0  0  0  0  0  0  0  0  0  0  0  0
   58.5570   33.3260   49.6460 H   0  0  0  0  0  0  0  0  0  0  0  0
   58.6410   34.7042   46.8305 H   0  0  0  0  0  0  0  0  0  0  0  0
   57.8331   35.1716   44.5278 H   0  0  0  0  0  0  0  0  0  0  0  0
   57.4629   33.3044   42.9278 H   0  0  0  0  0  0  0  0  0  0  0  0
   57.8867   30.9581   43.6201 H   0  0  0  0  0  0  0  0  0  0  0  0
   57.8851   28.2187   45.9008 H   0  0  0  0  0  0  0  0  0  0  0  0
   57.3902   29.3647   44.6091 H   0  0  0  0  0  0  0  0  0  0  0  0
   59.0478   28.6727   44.6091 H   0  0  0  0  0  0  0  0  0  0  0  0
   59.8309   27.8363   46.8084 H   0  0  0  0  0  0  0  0  0  0  0  0
   60.9888   27.4107   48.9604 H   0  0  0  0  0  0  0  0  0  0  0  0
   62.2420   28.6330   50.7930 H   0  0  0  0  0  0  0  0  0  0  0  0
   60.7260   28.5980   51.5560 H   0  0  0  0  0  0  0  0  0  0  0  0
   62.7602   30.5021   51.7894 H   0  0  0  0  0  0  0  0  0  0  0  0
   61.2911   31.2504   51.0021 H   0  0  0  0  0  0  0  0  0  0  0  0
   60.6437   29.5808   53.3302 H   0  0  0  0  0  0  0  0  0  0  0  0
   61.7391   31.0501   53.6678 H   0  0  0  0  0  0  0  0  0  0  0  0
   60.1038   31.5859   55.2330 H   0  0  0  0  0  0  0  0  0  0  0  0
   58.4653   32.0879   54.6945 H   0  0  0  0  0  0  0  0  0  0  0  0
   58.9173   30.3494   54.6945 H   0  0  0  0  0  0  0  0  0  0  0  0
   59.0815   31.1004   51.1712 H   0  0  0  0  0  0  0  0  0  0  0  0
   58.3844   30.0647   52.5034 H   0  0  0  0  0  0  0  0  0  0  0  0
   56.8393   31.8126   51.3658 H   0  0  0  0  0  0  0  0  0  0  0  0
   56.8913   31.7026   53.1847 H   0  0  0  0  0  0  0  0  0  0  0  0
   57.1349   34.0320   51.6783 H   0  0  0  0  0  0  0  0  0  0  0  0
   57.6186   33.7914   53.4115 H   0  0  0  0  0  0  0  0  0  0  0  0
   59.4135   33.4836   50.9636 H   0  0  0  0  0  0  0  0  0  0  0  0
   59.4411   34.8234   52.1793 H   0  0  0  0  0  0  0  0  0  0  0  0
   61.1919   32.9384   52.4335 H   0  0  0  0  0  0  0  0  0  0  0  0
   60.1903   33.4207   53.8954 H   0  0  0  0  0  0  0  0  0  0  0  0
   60.4067   31.5302   50.1067 H   0  0  0  0  0  0  0  0  0  0  0  0
  1  2  1  0
  2  3  1  0
  3  4  1  0
  4  5  1  0
  3  6  1  0
  6  7  1  0
  7  8  1  0
  8  9  1  0
  9 10  2  0
 10 11  1  0
 11 12  2  0
 12 13  1  0
 13 14  2  0
 14 15  1  0
 15 16  2  0
 16 17  1  0
 16 18  1  0
 18 19  2  0
 19 20  1  0
 20 21  2  0
 21 22  1  0
 22 23  1  0
 23 24  1  0
 24 25  1  0
 25 26  1  0
 25 27  1  0
 27 28  1  0
 28 29  1  0
 29 30  1  0
 30 31  1  0
 21 32  1  0
 32 33  2  0
 33  9  1  0
 15 10  1  0
 33 18  1  0
 31 25  1  0
  1 34  1  0
  1 35  1  0
  1 36  1  0
  2 37  1  0
  2 38  1  0
  4 39  1  0
  4 40  1  0
  5 41  1  0
  5 42  1  0
  5 43  1  0
  6 44  1  0
  6 45  1  0
  7 46  1  0
  7 47  1  0
  8 48  1  0
 11 49  1  0
 12 50  1  0
 13 51  1  0
 14 52  1  0
 17 53  1  0
 17 54  1  0
 17 55  1  0
 19 56  1  0
 20 57  1  0
 22 58  1  0
 22 59  1  0
 23 60  1  0
 23 61  1  0
 24 62  1  0
 24 63  1  0
 26 64  1  0
 26 65  1  0
 26 66  1  0
 27 67  1  0
 27 68  1  0
 28 69  1  0
 28 70  1  0
 29 71  1  0
 29 72  1  0
 30 73  1  0
 30 74  1  0
 31 75  1  0
 31 76  1  0
 32 77  1  0
M  CHG  3  16   1  22   1  25   1
M  END
>  <UniqueID>  (4) 
4

>  <SMILES>  (4) 
CCN(CC)CCNc1c2ccccc2[n+](C)c2ccc([NH2+]CC[N+]3(C)CCCCC3)cc12

>  <Energy>  (4) 
122.0930994138343

>  <Genealogy>  (4) 
CCN(CC)CCNc1c2ccccc2[n+](C)c2ccc([NH2+]CC[N+]3(C)CCCCC3)cc12 (protonated)
CCN(CC)CCNc1c2ccccc2[n+](C)c2ccc([NH2+]CC[N+]3(C)CCCCC3)cc12 (3D coordinates assigned)
CCN(CC)CCNc1c2ccccc2[n+](C)c2ccc([NH2+]CC[N+]3(C)CCCCC3)cc12 (nonaromatic ring conformer: 122.0930994138343 kcal/mol)

>  <smiles>  (4) 
CCN(CC)CCNc1c2ccccc2[n+](C)c2ccc(NCC[N+]3(C)CCCCC3)cc12

>  <score_type>  (4) 
oracle

>  <origin>  (4) 
adg

>  <m_score__min__energy>  (4) 
-4.3600000000000003

>  <m_primary>  (4) 
energy

$$$$
4:0
     RDKit          3D

 50 52  0  0  0  0  0  0  0  0999 V2000
   59.3200   34.7290   46.0550 C   0  0  0  0  0  0  0  0  0  0  0  0
   58.5470   33.4500   46.4000 C   0  0  0  0  0  0  0  0  0  0  0  0
   58.5090   32.4890   45.2760 N   0  0  0  0  0  0  0  0  0  0  0  0
   57.9340   32.9390   44.1190 C   0  0  0  0  0  0  0  0  0  0  0  0
   57.4890   32.0530   43.1530 C   0  0  0  0  0  0  0  0  0  0  0  0
   57.5360   30.6920   43.4010 C   0  0  0  0  0  0  0  0  0  0  0  0
   58.1140   30.1970   44.5900 C   0  0  0  0  0  0  0  0  0  0  0  0
   58.0850   28.8170   44.9460 C   0  0  0  0  0  0  0  0  0  0  0  0
   57.3710   27.8380   44.1360 N   0  0  0  0  0  0  0  0  0  0  0  0
   58.2800   27.0840   43.2500 C   0  0  0  0  0  0  0  0  0  0  0  0
   57.7690   25.6640   42.9590 C   0  0  0  0  0  0  0  0  0  0  0  0
   57.1360   25.0840   44.1650 N   0  0  0  0  0  0  0  0  0  0  0  0
   58.1400   24.4400   45.0320 C   0  0  0  0  0  0  0  0  0  0  0  0
   56.1180   24.0920   43.7810 C   0  0  0  0  0  0  0  0  0  0  0  0
   58.7290   28.4200   46.1530 C   0  0  0  0  0  0  0  0  0  0  0  0
   58.6750   27.0860   46.6350 C   0  0  0  0  0  0  0  0  0  0  0  0
   59.3280   26.7170   47.8090 C   0  0  0  0  0  0  0  0  0  0  0  0
   60.0530   27.6560   48.5290 C   0  0  0  0  0  0  0  0  0  0  0  0
   60.1370   28.9690   48.0750 C   0  0  0  0  0  0  0  0  0  0  0  0
   59.4890   29.3740   46.8830 C   0  0  0  0  0  0  0  0  0  0  0  0
   59.6030   30.6640   46.4260 N   0  0  0  0  0  0  0  0  0  0  0  0
   60.8120   31.4360   46.7790 C   0  0  0  0  0  0  0  0  0  0  0  0
   58.7470   31.1330   45.4530 C   0  0  0  0  0  0  0  0  0  0  0  0
   59.6255   35.2344   46.9830 H   0  0  0  0  0  0  0  0  0  0  0  0
   60.2131   34.4704   45.4673 H   0  0  0  0  0  0  0  0  0  0  0  0
   58.6758   35.3995   45.4673 H   0  0  0  0  0  0  0  0  0  0  0  0
   59.0318   32.9665   47.2610 H   0  0  0  0  0  0  0  0  0  0  0  0
   57.5101   33.7380   46.6280 H   0  0  0  0  0  0  0  0  0  0  0  0
   57.8237   34.0209   43.9539 H   0  0  0  0  0  0  0  0  0  0  0  0
   57.1006   32.4280   42.1946 H   0  0  0  0  0  0  0  0  0  0  0  0
   57.1190   29.9894   42.6645 H   0  0  0  0  0  0  0  0  0  0  0  0
   56.8650   27.1700   44.7590 H   0  0  0  0  0  0  0  0  0  0  0  0
   56.5900   28.2490   43.5840 H   0  0  0  0  0  0  0  0  0  0  0  0
   58.3765   27.6268   42.2981 H   0  0  0  0  0  0  0  0  0  0  0  0
   59.2493   26.9936   43.7621 H   0  0  0  0  0  0  0  0  0  0  0  0
   57.0292   25.7049   42.1459 H   0  0  0  0  0  0  0  0  0  0  0  0
   58.6204   25.0325   42.6652 H   0  0  0  0  0  0  0  0  0  0  0  0
   57.8764   24.6091   46.0865 H   0  0  0  0  0  0  0  0  0  0  0  0
   58.1614   23.3593   44.8281 H   0  0  0  0  0  0  0  0  0  0  0  0
   59.1312   24.8712   44.8281 H   0  0  0  0  0  0  0  0  0  0  0  0
   55.6708   23.6562   44.6866 H   0  0  0  0  0  0  0  0  0  0  0  0
   55.3345   24.5826   43.1848 H   0  0  0  0  0  0  0  0  0  0  0  0
   56.5882   23.2961   43.1848 H   0  0  0  0  0  0  0  0  0  0  0  0
   58.1077   26.3304   46.0718 H   0  0  0  0  0  0  0  0  0  0  0  0
   59.2687   25.6783   48.1663 H   0  0  0  0  0  0  0  0  0  0  0  0
   60.5616   27.3624   49.4591 H   0  0  0  0  0  0  0  0  0  0  0  0
   60.7167   29.7046   48.6520 H   0  0  0  0  0  0  0  0  0  0  0  0
   60.9032   31.4942   47.8737 H   0  0  0  0  0  0  0  0  0  0  0  0
   61.6999   30.9373   46.3631 H   0  0  0  0  0  0  0  0  0  0  0  0
   60.7332   32.4513   46.3631 H   0  0  0  0  0  0  0  0  0  0  0  0
  1  2  1  0
  2  3  1  0
  3  4  2  0
  4  5  1  0
  5  6  2  0
  6  7  1  0
  7  8  2  0
  8  9  1  0
  9 10  1  0
 10 11  1  0
 11 12  1  0
 12 13  1  0
 12 14  1  0
  8 15  1  0
 15 16  2  0
 16 17  1  0
 17 18  2  0
 18 19  1  0
 19 20  2  0
 20 21  1  0
 21 22  1  0
 21 23  2  0
 23  3  1  0
 23  7  1  0
 20 15  1  0
  1 24  1  0
  1 25  1  0
  1 26  1  0
  2 27  1  0
  2 28  1  0
  4 29  1  0
  5 30  1  0
  6 31  1  0
  9 32  1  0
  9 33  1  0
 10 34  1  0
 10 35  1  0
 11 36  1  0
 11 37  1  0
 13 38  1  0
 13 39  1  0
 13 40  1  0
 14 41  1  0
 14 42  1  0
 14 43  1  0
 16 44  1  0
 17 45  1  0
 18 46  1  0
 19 47  1  0
 22 48  1  0
 22 49  1  0
 22 50  1  0
M  CHG  3   3   1   9   1  21   1
M  END
>  <UniqueID>  (5) 
5

>  <SMILES>  (5) 
CC[n+]1cccc2c([NH2+]CCN(C)C)c3ccccc3[n+](C)c21

>  <Energy>  (5) 
93.21382507788182

>  <Genealogy>  (5) 
CC[n+]1cccc2c([NH2+]CCN(C)C)c3ccccc3[n+](C)c21 (protonated)
CC[n+]1cccc2c([NH2+]CCN(C)C)c3ccccc3[n+](C)c21 (3D coordinates assigned)
CC[n+]1cccc2c([NH2+]CCN(C)C)c3ccccc3[n+](C)c21 (optimized conformer: 93.21382507788182 kcal/mol)

>  <smiles>  (5) 
CC[n+]1cccc2c(NCCN(C)C)c3ccccc3[n+](C)c21

>  <score_type>  (5) 
oracle

>  <origin>  (5) 
adg

>  <m_score__min__energy>  (5) 
-2.6000000000000001

>  <m_primary>  (5) 
energy

$$$$
5:0
     RDKit          3D

 29 30  0  0  0  0  0  0  0  0999 V2000
   58.6850   26.1500   46.2030 C   0  0  0  0  0  0  0  0  0  0  0  0
   57.9930   27.4310   45.8350 C   0  0  0  0  0  0  0  0  0  0  0  0
   56.6230   27.6310   45.6830 C   0  0  0  0  0  0  0  0  0  0  0  0
   55.5410   26.7070   45.8530 N   0  0  0  0  0  0  0  0  0  0  0  0
   55.6590   25.2890   45.7490 C   0  0  0  0  0  0  0  0  0  0  0  0
   54.8050   24.5490   46.3050 O   0  0  0  0  0  0  0  0  0  0  0  0
   56.4990   28.9290   45.2470 C   0  0  0  0  0  0  0  0  0  0  0  0
   55.4190   29.5020   44.9440 O   0  0  0  0  0  0  0  0  0  0  0  0
   57.7170   29.4990   45.1720 N   0  0  0  0  0  0  0  0  0  0  0  0
   57.9910   30.8400   44.7230 C   0  0  0  0  0  0  0  0  0  0  0  0
   57.8210   31.1860   43.3730 C   0  0  0  0  0  0  0  0  0  0  0  0
   58.0750   32.4930   42.9450 C   0  0  0  0  0  0  0  0  0  0  0  0
   58.4920   33.4620   43.8610 C   0  0  0  0  0  0  0  0  0  0  0  0
   58.6530   33.1270   45.2080 C   0  0  0  0  0  0  0  0  0  0  0  0
   58.4000   31.8210   45.6400 C   0  0  0  0  0  0  0  0  0  0  0  0
   58.6240   28.5990   45.5490 N   0  0  0  0  0  0  0  0  0  0  0  0
   60.0690   28.8370   45.6310 C   0  0  0  0  0  0  0  0  0  0  0  0
   58.7332   26.0608   47.2983 H   0  0  0  0  0  0  0  0  0  0  0  0
   58.1241   25.2986   45.7901 H   0  0  0  0  0  0  0  0  0  0  0  0
   59.7046   26.1523   45.7901 H   0  0  0  0  0  0  0  0  0  0  0  0
   56.4924   24.8439   45.1856 H   0  0  0  0  0  0  0  0  0  0  0  0
   57.4872   30.4271   42.6500 H   0  0  0  0  0  0  0  0  0  0  0  0
   57.9462   32.7585   41.8853 H   0  0  0  0  0  0  0  0  0  0  0  0
   58.6936   34.4888   43.5218 H   0  0  0  0  0  0  0  0  0  0  0  0
   58.9790   33.8910   45.9292 H   0  0  0  0  0  0  0  0  0  0  0  0
   58.5219   31.5617   46.7020 H   0  0  0  0  0  0  0  0  0  0  0  0
   60.3730   28.8871   46.6870 H   0  0  0  0  0  0  0  0  0  0  0  0
   60.6048   28.0150   45.1338 H   0  0  0  0  0  0  0  0  0  0  0  0
   60.3129   29.7874   45.1338 H   0  0  0  0  0  0  0  0  0  0  0  0
  1  2  1  0
  2  3  2  0
  3  4  1  0
  4  5  1  0
  5  6  2  0
  3  7  1  0
  7  8  2  0
  7  9  1  0
  9 10  1  0
 10 11  2  0
 11 12  1  0
 12 13  2  0
 13 14  1  0
 14 15  2  0
  9 16  1  0
 16 17  1  0
 16  2  1  0
 15 10  1  0
  1 18  1  0
  1 19  1  0
  1 20  1  0
  5 21  1  0
 11 22  1  0
 12 23  1  0
 13 24  1  0
 14 25  1  0
 15 26  1  0
 17 27  1  0
 17 28  1  0
 17 29  1  0
M  CHG  1   4  -1
M  END
>  <UniqueID>  (6) 
6

>  <SMILES>  (6) 
Cc1c([N-]C=O)c(=O)n(-c2ccccc2)n1C

>  <Energy>  (6) 
72.78393917535358

>  <Genealogy>  (6) 
Cc1c([N-]C=O)c(=O)n(-c2ccccc2)n1C (protonated)
Cc1c([N-]C=O)c(=O)n(-c2ccccc2)n1C (3D coordinates assigned)
Cc1c([N-]C=O)c(=O)n(-c2ccccc2)n1C (optimized conformer: 72.78393917535358 kcal/mol)

>  <smiles>  (6) 
Cc1c(NC=O)c(=O)n(-c2ccccc2)n1C

>  <score_type>  (6) 
oracle

>  <origin>  (6) 
adg

>  <m_score__min__energy>  (6) 
-8.7200000000000006

>  <m_primary>  (6) 
energy

$$$$
6:0
     RDKit          3D

 65 68  0  0  0  0  0  0  0  0999 V2000
   57.4750   32.0570   42.1910 C   0  0  0  0  0  0  0  0  0  0  0  0
   58.1340   31.3220   43.3560 C   0  0  0  0  0  0  0  0  0  0  0  0
   58.4090   32.2650   44.5160 C   0  0  0  0  0  0  0  0  0  0  0  0
   58.3760   33.6420   44.2140 C   0  0  0  0  0  0  0  0  0  0  0  0
   58.8450   34.5880   45.1150 C   0  0  0  0  0  0  0  0  0  0  0  0
   59.3960   34.1840   46.3230 C   0  0  0  0  0  0  0  0  0  0  0  0
   59.4370   32.8250   46.6650 C   0  0  0  0  0  0  0  0  0  0  0  0
   60.0230   32.4410   47.8670 C   0  0  0  0  0  0  0  0  0  0  0  0
   60.1620   31.0830   48.2100 C   0  0  0  0  0  0  0  0  0  0  0  0
   60.8050   30.6470   49.4080 C   0  0  0  0  0  0  0  0  0  0  0  0
   61.4180   31.5920   50.3370 N   0  0  0  0  0  0  0  0  0  0  0  0
   62.8550   31.3240   50.5480 C   0  0  0  0  0  0  0  0  0  0  0  0
   63.7870   32.2580   49.7420 C   0  0  0  0  0  0  0  0  0  0  0  0
   63.0490   33.1800   48.8420 N   0  0  0  0  0  0  0  0  0  0  0  0
   62.6480   34.4160   49.5560 C   0  0  0  0  0  0  0  0  0  0  0  0
   63.4070   34.5930   50.8740 C   0  0  0  0  0  0  0  0  0  0  0  0
   63.7470   33.4340   47.5520 C   0  0  0  0  0  0  0  0  0  0  0  0
   62.8290   33.8550   46.3930 C   0  0  0  0  0  0  0  0  0  0  0  0
   60.8430   29.2510   49.6850 C   0  0  0  0  0  0  0  0  0  0  0  0
   61.3490   28.7370   50.9080 C   0  0  0  0  0  0  0  0  0  0  0  0
   61.3810   27.3680   51.1570 C   0  0  0  0  0  0  0  0  0  0  0  0
   60.9110   26.4750   50.2060 C   0  0  0  0  0  0  0  0  0  0  0  0
   60.4200   26.9460   48.9920 C   0  0  0  0  0  0  0  0  0  0  0  0
   60.3900   28.3330   48.7020 C   0  0  0  0  0  0  0  0  0  0  0  0
   59.9360   28.7900   47.4870 N   0  0  0  0  0  0  0  0  0  0  0  0
   59.9290   27.8680   46.3320 C   0  0  0  0  0  0  0  0  0  0  0  0
   59.6350   30.1240   47.3070 C   0  0  0  0  0  0  0  0  0  0  0  0
   58.8230   30.5420   46.2650 N   0  0  0  0  0  0  0  0  0  0  0  0
   57.6460   29.7140   45.9380 C   0  0  0  0  0  0  0  0  0  0  0  0
   58.8820   31.8450   45.8100 C   0  0  0  0  0  0  0  0  0  0  0  0
   56.7886   32.8226   42.5817 H   0  0  0  0  0  0  0  0  0  0  0  0
   58.2496   32.5385   41.5760 H   0  0  0  0  0  0  0  0  0  0  0  0
   56.9121   31.3394   41.5760 H   0  0  0  0  0  0  0  0  0  0  0  0
   57.4650   30.5184   43.6977 H   0  0  0  0  0  0  0  0  0  0  0  0
   59.0922   30.9078   43.0092 H   0  0  0  0  0  0  0  0  0  0  0  0
   57.9710   33.9727   43.2462 H   0  0  0  0  0  0  0  0  0  0  0  0
   58.7799   35.6587   44.8714 H   0  0  0  0  0  0  0  0  0  0  0  0
   59.8031   34.9347   47.0164 H   0  0  0  0  0  0  0  0  0  0  0  0
   60.3844   33.2130   48.5622 H   0  0  0  0  0  0  0  0  0  0  0  0
   60.9240   31.5440   51.2540 H   0  0  0  0  0  0  0  0  0  0  0  0
   61.2870   32.5900   50.0850 H   0  0  0  0  0  0  0  0  0  0  0  0
   63.0782   31.4498   51.6178 H   0  0  0  0  0  0  0  0  0  0  0  0
   63.0455   30.2991   50.1968 H   0  0  0  0  0  0  0  0  0  0  0  0
   64.3787   32.8578   50.4492 H   0  0  0  0  0  0  0  0  0  0  0  0
   64.4234   31.6213   49.1099 H   0  0  0  0  0  0  0  0  0  0  0  0
   62.8539   35.2817   48.9093 H   0  0  0  0  0  0  0  0  0  0  0  0
   61.5761   34.3385   49.7906 H   0  0  0  0  0  0  0  0  0  0  0  0
   62.7194   34.4326   51.7175 H   0  0  0  0  0  0  0  0  0  0  0  0
   64.2274   33.8621   50.9257 H   0  0  0  0  0  0  0  0  0  0  0  0
   63.8195   35.6114   50.9257 H   0  0  0  0  0  0  0  0  0  0  0  0
   64.4832   34.2352   47.7135 H   0  0  0  0  0  0  0  0  0  0  0  0
   64.2030   32.4784   47.2538 H   0  0  0  0  0  0  0  0  0  0  0  0
   61.8993   34.2814   46.7979 H   0  0  0  0  0  0  0  0  0  0  0  0
   63.3398   34.6088   45.7759 H   0  0  0  0  0  0  0  0  0  0  0  0
   62.5910   32.9761   45.7759 H   0  0  0  0  0  0  0  0  0  0  0  0
   61.7226   29.4337   51.6729 H   0  0  0  0  0  0  0  0  0  0  0  0
   61.7803   26.9933   52.1110 H   0  0  0  0  0  0  0  0  0  0  0  0
   60.9262   25.3944   50.4111 H   0  0  0  0  0  0  0  0  0  0  0  0
   60.0488   26.2294   48.2446 H   0  0  0  0  0  0  0  0  0  0  0  0
   59.9211   26.8288   46.6925 H   0  0  0  0  0  0  0  0  0  0  0  0
   59.0322   28.0513   45.7219 H   0  0  0  0  0  0  0  0  0  0  0  0
   60.8285   28.0377   45.7219 H   0  0  0  0  0  0  0  0  0  0  0  0
   57.1656   29.3761   46.8681 H   0  0  0  0  0  0  0  0  0  0  0  0
   56.9308   30.3090   45.3511 H   0  0  0  0  0  0  0  0  0  0  0  0
   57.9643   28.8398   45.3511 H   0  0  0  0  0  0  0  0  0  0  0  0
  1  2  1  0
  2  3  1  0
  3  4  2  0
  4  5  1  0
  5  6  2  0
  6  7  1  0
  7  8  2  0
  8  9  1  0
  9 10  2  0
 10 11  1  0
 11 12  1  0
 12 13  1  0
 13 14  1  0
 14 15  1  0
 15 16  1  0
 14 17  1  0
 17 18  1  0
 10 19  1  0
 19 20  2  0
 20 21  1  0
 21 22  2  0
 22 23  1  0
 23 24  2  0
 24 25  1  0
 25 26  1  0
 25 27  2  0
 27 28  1  0
 28 29  1  0
 28 30  2  0
 30  3  1  0
 30  7  1  0
 27  9  1  0
 24 19  1  0
  1 31  1  0
  1 32  1  0
  1 33  1  0
  2 34  1  0
  2 35  1  0
  4 36  1  0
  5 37  1  0
  6 38  1  0
  8 39  1  0
 11 40  1  0
 11 41  1  0
 12 42  1  0
 12 43  1  0
 13 44  1  0
 13 45  1  0
 15 46  1  0
 15 47  1  0
 16 48  1  0
 16 49  1  0
 16 50  1  0
 17 51  1  0
 17 52  1  0
 18 53  1  0
 18 54  1  0
 18 55  1  0
 20 56  1  0
 21 57  1  0
 22 58  1  0
 23 59  1  0
 26 60  1  0
 26 61  1  0
 26 62  1  0
 29 63  1  0
 29 64  1  0
 29 65  1  0
M  CHG  3  11   1  25   1  28   1
M  END
>  <UniqueID>  (7) 
7

>  <SMILES>  (7) 
CCc1cccc2cc3c([NH2+]CCN(CC)CC)c4ccccc4[n+](C)c3[n+](C)c12

>  <Energy>  (7) 
123.48899550616082

>  <Genealogy>  (7) 
CCc1cccc2cc3c([NH2+]CCN(CC)CC)c4ccccc4[n+](C)c3[n+](C)c12 (protonated)
CCc1cccc2cc3c([NH2+]CCN(CC)CC)c4ccccc4[n+](C)c3[n+](C)c12 (3D coordinates assigned)
CCc1cccc2cc3c([NH2+]CCN(CC)CC)c4ccccc4[n+](C)c3[n+](C)c12 (optimized conformer: 123.48899550616082 kcal/mol)

>  <smiles>  (7) 
CCc1cccc2cc3c(NCCN(CC)CC)c4ccccc4[n+](C)c3[n+](C)c12

>  <score_type>  (7) 
oracle

>  <origin>  (7) 
adg

>  <m_score__min__energy>  (7) 
-3.5

>  <m_primary>  (7) 
energy

$$$$
7:0
     RDKit          3D

 50 50  0  0  0  0  0  0  0  0999 V2000
   55.5510   30.0880   44.0540 C   0  0  0  0  0  0  0  0  0  0  0  0
   57.0090   30.1060   43.6040 C   0  0  0  0  0  0  0  0  0  0  0  0
   57.4590   31.4820   43.3420 N   0  0  0  0  0  0  0  0  0  0  0  0
   57.4120   31.9740   41.9590 C   0  0  0  0  0  0  0  0  0  0  0  0
   57.9020   32.3550   44.4150 C   0  0  0  0  0  0  0  0  0  0  0  0
   58.4530   33.6220   44.1280 C   0  0  0  0  0  0  0  0  0  0  0  0
   58.8790   34.4660   45.1570 C   0  0  0  0  0  0  0  0  0  0  0  0
   58.7660   34.0680   46.4950 C   0  0  0  0  0  0  0  0  0  0  0  0
   59.2660   34.9610   47.6060 C   0  0  0  0  0  0  0  0  0  0  0  0
   60.1480   34.2450   48.5480 N   0  0  0  0  0  0  0  0  0  0  0  0
   59.6020   34.1200   49.9130 C   0  0  0  0  0  0  0  0  0  0  0  0
   60.0890   32.8490   50.6310 C   0  0  0  0  0  0  0  0  0  0  0  0
   61.6180   32.7350   50.6320 C   0  0  0  0  0  0  0  0  0  0  0  0
   62.1450   33.0340   49.3510 O   0  0  0  0  0  0  0  0  0  0  0  0
   63.3580   32.3460   49.0940 C   0  0  0  0  0  0  0  0  0  0  0  0
   64.1950   33.1090   48.0620 C   0  0  0  0  0  0  0  0  0  0  0  0
   63.4720   33.2930   46.7220 C   0  0  0  0  0  0  0  0  0  0  0  0
   62.1020   33.7520   46.9290 N   0  0  0  0  0  0  0  0  0  0  0  0
   58.2190   32.8130   46.7920 C   0  0  0  0  0  0  0  0  0  0  0  0
   57.7890   31.9670   45.7650 C   0  0  0  0  0  0  0  0  0  0  0  0
   55.5065   30.0874   45.1531 H   0  0  0  0  0  0  0  0  0  0  0  0
   55.0367   30.9799   43.6666 H   0  0  0  0  0  0  0  0  0  0  0  0
   55.0588   29.1837   43.6666 H   0  0  0  0  0  0  0  0  0  0  0  0
   57.6355   29.6661   44.3940 H   0  0  0  0  0  0  0  0  0  0  0  0
   57.0981   29.5235   42.6751 H   0  0  0  0  0  0  0  0  0  0  0  0
   57.3074   33.0690   41.9627 H   0  0  0  0  0  0  0  0  0  0  0  0
   58.3408   31.6962   41.4392 H   0  0  0  0  0  0  0  0  0  0  0  0
   56.5526   31.5253   41.4392 H   0  0  0  0  0  0  0  0  0  0  0  0
   58.5483   33.9491   43.0821 H   0  0  0  0  0  0  0  0  0  0  0  0
   59.3062   35.4502   44.9143 H   0  0  0  0  0  0  0  0  0  0  0  0
   59.8269   35.7968   47.1624 H   0  0  0  0  0  0  0  0  0  0  0  0
   58.3913   35.3175   48.1698 H   0  0  0  0  0  0  0  0  0  0  0  0
   60.3480   33.2920   48.1650 H   0  0  0  0  0  0  0  0  0  0  0  0
   61.0640   34.7500   48.6020 H   0  0  0  0  0  0  0  0  0  0  0  0
   59.9140   34.9971   50.4989 H   0  0  0  0  0  0  0  0  0  0  0  0
   58.5070   34.0566   49.8294 H   0  0  0  0  0  0  0  0  0  0  0  0
   59.7347   32.8723   51.6721 H   0  0  0  0  0  0  0  0  0  0  0  0
   59.6856   31.9799   50.0906 H   0  0  0  0  0  0  0  0  0  0  0  0
   62.0320   33.4416   51.3663 H   0  0  0  0  0  0  0  0  0  0  0  0
   61.8948   31.7035   50.8955 H   0  0  0  0  0  0  0  0  0  0  0  0
   63.9294   32.2564   50.0297 H   0  0  0  0  0  0  0  0  0  0  0  0
   63.1250   31.3470   48.6970 H   0  0  0  0  0  0  0  0  0  0  0  0
   64.4348   34.1019   48.4702 H   0  0  0  0  0  0  0  0  0  0  0  0
   65.1004   32.5150   47.8686 H   0  0  0  0  0  0  0  0  0  0  0  0
   64.0140   34.0367   46.1193 H   0  0  0  0  0  0  0  0  0  0  0  0
   63.4436   32.3243   46.2016 H   0  0  0  0  0  0  0  0  0  0  0  0
   61.5340   32.9420   47.2700 H   0  0  0  0  0  0  0  0  0  0  0  0
   62.1170   34.4540   47.7030 H   0  0  0  0  0  0  0  0  0  0  0  0
   58.1272   32.4910   47.8398 H   0  0  0  0  0  0  0  0  0  0  0  0
   57.3572   30.9864   46.0140 H   0  0  0  0  0  0  0  0  0  0  0  0
  1  2  1  0
  2  3  1  0
  3  4  1  0
  3  5  1  0
  5  6  2  0
  6  7  1  0
  7  8  2  0
  8  9  1  0
  9 10  1  0
 10 11  1  0
 11 12  1  0
 12 13  1  0
 13 14  1  0
 14 15  1  0
 15 16  1  0
 16 17  1  0
 17 18  1  0
  8 19  1  0
 19 20  2  0
 20  5  1  0
  1 21  1  0
  1 22  1  0
  1 23  1  0
  2 24  1  0
  2 25  1  0
  4 26  1  0
  4 27  1  0
  4 28  1  0
  6 29  1  0
  7 30  1  0
  9 31  1  0
  9 32  1  0
 10 33  1  0
 10 34  1  0
 11 35  1  0
 11 36  1  0
 12 37  1  0
 12 38  1  0
 13 39  1  0
 13 40  1  0
 15 41  1  0
 15 42  1  0
 16 43  1  0
 16 44  1  0
 17 45  1  0
 17 46  1  0
 18 47  1  0
 18 48  1  0
 19 49  1  0
 20 50  1  0
M  CHG  1  10   1
M  END
>  <UniqueID>  (8) 
8

>  <SMILES>  (8) 
CCN(C)c1ccc(C[NH2+]CCCOCCCN)cc1

>  <Energy>  (8) 
43.08354779867524

>  <Genealogy>  (8) 
CCN(C)c1ccc(C[NH2+]CCCOCCCN)cc1 (protonated)
CCN(C)c1ccc(C[NH2+]CCCOCCCN)cc1 (3D coordinates assigned)
CCN(C)c1ccc(C[NH2+]CCCOCCCN)cc1 (optimized conformer: 43.08354779867524 kcal/mol)

>  <smiles>  (8) 
CCN(C)c1ccc(CNCCCOCCCN)cc1

>  <score_type>  (8) 
oracle

>  <origin>  (8) 
adg

>  <m_score__min__energy>  (8) 
-4.9900000000000002

>  <m_primary>  (8) 
energy

$$$$
8:0
     RDKit          3D

 49 51  0  0  0  0  0  0  0  0999 V2000
   56.6830   25.8700   46.1050 C   0  0  0  0  0  0  0  0  0  0  0  0
   56.9480   27.1700   45.4890 N   0  0  0  0  0  0  0  0  0  0  0  0
   58.3080   27.2020   44.9390 C   0  0  0  0  0  0  0  0  0  0  0  0
   59.0030   28.5060   45.3360 C   0  0  0  0  0  0  0  0  0  0  0  0
   58.0660   29.4370   45.9710 N   0  0  0  0  0  0  0  0  0  0  0  0
   58.5270   30.5080   46.8110 C   0  0  0  0  0  0  0  0  0  0  0  0
   59.2800   30.2030   47.9590 C   0  0  0  0  0  0  0  0  0  0  0  0
   59.3850   28.8710   48.4180 C   0  0  0  0  0  0  0  0  0  0  0  0
   60.1760   28.5560   49.5180 C   0  0  0  0  0  0  0  0  0  0  0  0
   60.8820   29.5570   50.1750 C   0  0  0  0  0  0  0  0  0  0  0  0
   60.7770   30.8820   49.7550 C   0  0  0  0  0  0  0  0  0  0  0  0
   59.9430   31.2410   48.6630 C   0  0  0  0  0  0  0  0  0  0  0  0
   59.8000   32.5540   48.2590 N   0  0  0  0  0  0  0  0  0  0  0  0
   60.2950   33.6500   49.1230 C   0  0  0  0  0  0  0  0  0  0  0  0
   59.1570   32.8500   47.0710 C   0  0  0  0  0  0  0  0  0  0  0  0
   59.2540   34.1350   46.4830 C   0  0  0  0  0  0  0  0  0  0  0  0
   58.5370   34.4570   45.3370 C   0  0  0  0  0  0  0  0  0  0  0  0
   57.6800   33.5290   44.7650 C   0  0  0  0  0  0  0  0  0  0  0  0
   57.5780   32.2310   45.2870 C   0  0  0  0  0  0  0  0  0  0  0  0
   56.5450   31.3610   44.7940 N   0  0  0  0  0  0  0  0  0  0  0  0
   56.6360   30.6580   43.5120 C   0  0  0  0  0  0  0  0  0  0  0  0
   55.8030   29.3750   43.5330 C   0  0  0  0  0  0  0  0  0  0  0  0
   55.2210   29.1860   44.7960 O   0  0  0  0  0  0  0  0  0  0  0  0
   58.4000   31.8530   46.3930 C   0  0  0  0  0  0  0  0  0  0  0  0
   56.7038   25.9721   47.2001 H   0  0  0  0  0  0  0  0  0  0  0  0
   55.6929   25.5096   45.7891 H   0  0  0  0  0  0  0  0  0  0  0  0
   57.4530   25.1508   45.7891 H   0  0  0  0  0  0  0  0  0  0  0  0
   56.2730   27.2830   44.6970 H   0  0  0  0  0  0  0  0  0  0  0  0
   58.8805   26.3495   45.3334 H   0  0  0  0  0  0  0  0  0  0  0  0
   58.2552   27.1407   43.8420 H   0  0  0  0  0  0  0  0  0  0  0  0
   59.8156   28.2785   46.0416 H   0  0  0  0  0  0  0  0  0  0  0  0
   59.3993   28.9793   44.4255 H   0  0  0  0  0  0  0  0  0  0  0  0
   57.0530   29.1840   45.9940 H   0  0  0  0  0  0  0  0  0  0  0  0
   58.8342   28.0728   47.8989 H   0  0  0  0  0  0  0  0  0  0  0  0
   60.2428   27.5152   49.8678 H   0  0  0  0  0  0  0  0  0  0  0  0
   61.5261   29.3026   51.0297 H   0  0  0  0  0  0  0  0  0  0  0  0
   61.3495   31.6623   50.2779 H   0  0  0  0  0  0  0  0  0  0  0  0
   60.1685   33.3699   50.1792 H   0  0  0  0  0  0  0  0  0  0  0  0
   61.3606   33.8274   48.9158 H   0  0  0  0  0  0  0  0  0  0  0  0
   59.7236   34.5668   48.9158 H   0  0  0  0  0  0  0  0  0  0  0  0
   59.9083   34.8911   46.9415 H   0  0  0  0  0  0  0  0  0  0  0  0
   58.6497   35.4520   44.8818 H   0  0  0  0  0  0  0  0  0  0  0  0
   57.0736   33.8138   43.8925 H   0  0  0  0  0  0  0  0  0  0  0  0
   55.6040   31.4440   45.2390 H   0  0  0  0  0  0  0  0  0  0  0  0
   56.2637   31.3161   42.7131 H   0  0  0  0  0  0  0  0  0  0  0  0
   57.6878   30.3914   43.3311 H   0  0  0  0  0  0  0  0  0  0  0  0
   55.0085   29.4471   42.7757 H   0  0  0  0  0  0  0  0  0  0  0  0
   56.4606   28.5209   43.3135 H   0  0  0  0  0  0  0  0  0  0  0  0
   55.1430   28.2060   44.9360 H   0  0  0  0  0  0  0  0  0  0  0  0
  1  2  1  0
  2  3  1  0
  3  4  1  0
  4  5  1  0
  5  6  1  0
  6  7  2  0
  7  8  1  0
  8  9  2  0
  9 10  1  0
 10 11  2  0
 11 12  1  0
 12 13  2  0
 13 14  1  0
 13 15  1  0
 15 16  2  0
 16 17  1  0
 17 18  2  0
 18 19  1  0
 19 20  1  0
 20 21  1  0
 21 22  1  0
 22 23  1  0
 19 24  2  0
 24  6  1  0
 12  7  1  0
 24 15  1  0
  1 25  1  0
  1 26  1  0
  1 27  1  0
  2 28  1  0
  3 29  1  0
  3 30  1  0
  4 31  1  0
  4 32  1  0
  5 33  1  0
  8 34  1  0
  9 35  1  0
 10 36  1  0
 11 37  1  0
 14 38  1  0
 14 39  1  0
 14 40  1  0
 16 41  1  0
 17 42  1  0
 18 43  1  0
 20 44  1  0
 21 45  1  0
 21 46  1  0
 22 47  1  0
 22 48  1  0
 23 49  1  0
M  CHG  1  13   1
M  END
>  <UniqueID>  (9) 
9

>  <SMILES>  (9) 
CNCCNc1c2ccccc2[n+](C)c2cccc(NCCO)c12

>  <Energy>  (9) 
78.42763931830012

>  <Genealogy>  (9) 
CNCCNc1c2ccccc2[n+](C)c2cccc(NCCO)c12 (3D coordinates assigned)
CNCCNc1c2ccccc2[n+](C)c2cccc(NCCO)c12 (optimized conformer: 78.42763931830012 kcal/mol)

>  <smiles>  (9) 
CNCCNc1c2ccccc2[n+](C)c2cccc(NCCO)c12

>  <score_type>  (9) 
oracle

>  <origin>  (9) 
adg

>  <m_score__min__energy>  (9) 
-6.2000000000000002

>  <m_primary>  (9) 
energy

$$$$
9:0
     RDKit          3D

 76 79  0  0  0  0  0  0  0  0999 V2000
   60.3092   26.5738   44.8480 H   0  0  0  0  0  0  0  0  0  0  0  0
   59.5880   26.6860   45.6710 C   0  0  0  0  0  0  0  0  0  0  0  0
   59.6910   27.6920   46.4770 N   0  0  0  0  0  0  0  0  0  0  0  0
   59.5160   27.5450   47.8340 O   0  0  0  0  0  0  0  0  0  0  0  0
   60.5820   27.0580   48.6370 C   0  0  0  0  0  0  0  0  0  0  0  0
   60.3947   26.0035   48.8877 H   0  0  0  0  0  0  0  0  0  0  0  0
   61.5235   27.1510   48.0757 H   0  0  0  0  0  0  0  0  0  0  0  0
   60.6910   27.8750   49.9330 C   0  0  0  0  0  0  0  0  0  0  0  0
   59.7120   27.8917   50.4343 H   0  0  0  0  0  0  0  0  0  0  0  0
   61.4426   27.4084   50.5868 H   0  0  0  0  0  0  0  0  0  0  0  0
   61.0920   29.2040   49.6470 O   0  0  0  0  0  0  0  0  0  0  0  0
   61.8310   29.7320   50.7330 C   0  0  0  0  0  0  0  0  0  0  0  0
   61.7940   29.0275   51.5770 H   0  0  0  0  0  0  0  0  0  0  0  0
   62.8755   29.8833   50.4228 H   0  0  0  0  0  0  0  0  0  0  0  0
   61.2320   31.0720   51.1630 C   0  0  0  0  0  0  0  0  0  0  0  0
   61.2127   31.1187   52.2618 H   0  0  0  0  0  0  0  0  0  0  0  0
   61.8552   31.8777   50.7476 H   0  0  0  0  0  0  0  0  0  0  0  0
   59.8530   31.2400   50.6500 N   0  0  0  0  0  0  0  0  0  0  0  0
   58.9500   30.2950   51.3280 C   0  0  0  0  0  0  0  0  0  0  0  0
   59.0550   30.4049   52.4174 H   0  0  0  0  0  0  0  0  0  0  0  0
   57.9108   30.5075   51.0365 H   0  0  0  0  0  0  0  0  0  0  0  0
   59.2095   29.2666   51.0365 H   0  0  0  0  0  0  0  0  0  0  0  0
   59.3680   32.6170   50.8680 C   0  0  0  0  0  0  0  0  0  0  0  0
   59.2984   32.8146   51.9479 H   0  0  0  0  0  0  0  0  0  0  0  0
   60.0692   33.3297   50.4093 H   0  0  0  0  0  0  0  0  0  0  0  0
   58.3749   32.7329   50.4093 H   0  0  0  0  0  0  0  0  0  0  0  0
   58.5140   25.6850   45.8410 C   0  0  0  0  0  0  0  0  0  0  0  0
   58.8640   24.3260   45.8820 C   0  0  0  0  0  0  0  0  0  0  0  0
   59.9153   24.0283   45.7550 H   0  0  0  0  0  0  0  0  0  0  0  0
   57.8860   23.3500   46.0830 C   0  0  0  0  0  0  0  0  0  0  0  0
   58.1690   22.2875   46.1152 H   0  0  0  0  0  0  0  0  0  0  0  0
   56.5510   23.7200   46.2430 C   0  0  0  0  0  0  0  0  0  0  0  0
   55.7867   22.9504   46.4265 H   0  0  0  0  0  0  0  0  0  0  0  0
   56.1820   25.0640   46.1710 C   0  0  0  0  0  0  0  0  0  0  0  0
   55.1264   25.3481   46.2939 H   0  0  0  0  0  0  0  0  0  0  0  0
   57.1520   26.0590   45.9420 C   0  0  0  0  0  0  0  0  0  0  0  0
   56.7990   27.4090   45.7600 O   0  0  0  0  0  0  0  0  0  0  0  0
   57.0770   28.2080   44.6100 C   0  0  0  0  0  0  0  0  0  0  0  0
   56.8706   27.6091   43.7107 H   0  0  0  0  0  0  0  0  0  0  0  0
   58.1322   28.5125   44.6725 H   0  0  0  0  0  0  0  0  0  0  0  0
   56.2510   29.4700   44.5450 C   0  0  0  0  0  0  0  0  0  0  0  0
   55.0370   29.3710   44.2310 O   0  0  0  0  0  0  0  0  0  0  0  0
   56.7860   30.7780   44.7960 N   0  0  0  0  0  0  0  0  0  0  0  0
   57.8170   31.1040   45.7340 C   0  0  0  0  0  0  0  0  0  0  0  0
   58.2840   30.1590   46.6550 C   0  0  0  0  0  0  0  0  0  0  0  0
   57.8281   29.1587   46.6945 H   0  0  0  0  0  0  0  0  0  0  0  0
   59.3270   30.4840   47.5230 C   0  0  0  0  0  0  0  0  0  0  0  0
   59.6693   29.7466   48.2640 H   0  0  0  0  0  0  0  0  0  0  0  0
   59.9430   31.7430   47.4590 C   0  0  0  0  0  0  0  0  0  0  0  0
   59.4580   32.7150   46.5500 C   0  0  0  0  0  0  0  0  0  0  0  0
   58.3720   32.3880   45.7150 C   0  0  0  0  0  0  0  0  0  0  0  0
   57.9556   33.1506   45.0405 H   0  0  0  0  0  0  0  0  0  0  0  0
   60.1050   33.9710   46.4910 C   0  0  0  0  0  0  0  0  0  0  0  0
   59.6550   35.0540   45.5440 C   0  0  0  0  0  0  0  0  0  0  0  0
   59.2955   35.9191   46.1205 H   0  0  0  0  0  0  0  0  0  0  0  0
   60.4999   35.3612   44.9102 H   0  0  0  0  0  0  0  0  0  0  0  0
   58.8411   34.6720   44.9102 H   0  0  0  0  0  0  0  0  0  0  0  0
   61.2150   34.2070   47.3140 C   0  0  0  0  0  0  0  0  0  0  0  0
   61.7352   35.1751   47.2678 H   0  0  0  0  0  0  0  0  0  0  0  0
   61.6640   33.2160   48.1940 C   0  0  0  0  0  0  0  0  0  0  0  0
   62.8390   33.4430   48.9970 N   0  0  0  0  0  0  0  0  0  0  0  0
   62.7320   34.1950   50.2520 C   0  0  0  0  0  0  0  0  0  0  0  0
   62.6452   35.2682   50.0267 H   0  0  0  0  0  0  0  0  0  0  0  0
   61.8417   33.8543   50.8008 H   0  0  0  0  0  0  0  0  0  0  0  0
   63.9730   33.9580   51.1150 C   0  0  0  0  0  0  0  0  0  0  0  0
   64.7863   34.6171   50.7772 H   0  0  0  0  0  0  0  0  0  0  0  0
   63.7369   34.1780   52.1666 H   0  0  0  0  0  0  0  0  0  0  0  0
   64.3780   32.6090   50.9940 O   0  0  0  0  0  0  0  0  0  0  0  0
   64.9650   32.3840   49.7220 C   0  0  0  0  0  0  0  0  0  0  0  0
   65.9696   32.8320   49.7195 H   0  0  0  0  0  0  0  0  0  0  0  0
   64.9893   31.2950   49.5684 H   0  0  0  0  0  0  0  0  0  0  0  0
   64.1590   32.9870   48.5470 C   0  0  0  0  0  0  0  0  0  0  0  0
   64.7129   33.8417   48.1314 H   0  0  0  0  0  0  0  0  0  0  0  0
   64.0200   32.2100   47.7808 H   0  0  0  0  0  0  0  0  0  0  0  0
   61.0200   32.0170   48.2490 N   0  0  0  0  0  0  0  0  0  0  0  0
   61.3680   31.2870   48.9110 H   0  0  0  0  0  0  0  0  0  0  0  0
  1  2  1  0
  2  3  2  0
  3  4  1  0
  4  5  1  0
  5  6  1  0
  5  7  1  0
  5  8  1  0
  8  9  1  0
  8 10  1  0
  8 11  1  0
 11 12  1  0
 12 13  1  0
 12 14  1  0
 12 15  1  0
 15 16  1  0
 15 17  1  0
 15 18  1  0
 18 19  1  0
 19 20  1  0
 19 21  1  0
 19 22  1  0
 18 23  1  0
 23 24  1  0
 23 25  1  0
 23 26  1  0
  2 27  1  0
 27 28  2  0
 28 29  1  0
 28 30  1  0
 30 31  1  0
 30 32  2  0
 32 33  1  0
 32 34  1  0
 34 35  1  0
 34 36  2  0
 36 37  1  0
 37 38  1  0
 38 39  1  0
 38 40  1  0
 38 41  1  0
 41 42  2  0
 41 43  1  0
 43 44  1  0
 44 45  2  0
 45 46  1  0
 45 47  1  0
 47 48  1  0
 47 49  2  0
 49 50  1  0
 50 51  2  0
 51 52  1  0
 50 53  1  0
 53 54  1  0
 54 55  1  0
 54 56  1  0
 54 57  1  0
 53 58  2  0
 58 59  1  0
 58 60  1  0
 60 61  1  0
 61 62  1  0
 62 63  1  0
 62 64  1  0
 62 65  1  0
 65 66  1  0
 65 67  1  0
 65 68  1  0
 68 69  1  0
 69 70  1  0
 69 71  1  0
 69 72  1  0
 72 73  1  0
 72 74  1  0
 60 75  2  0
 75 76  1  0
 36 27  1  0
 51 44  1  0
 72 61  1  0
 75 49  1  0
M  CHG  2  43  -1  75   1
M  END
>  <UniqueID>  (10) 
10

>  <SMILES>  (10) 
Cc1cc(N2CCOCC2)[nH+]c2ccc([N-]C(=O)COc3ccccc3/C=N/OCCOCCN(C)C)cc12

>  <Energy>  (10) 
91.69369676362652

>  <Genealogy>  (10) 
Cc1cc(N2CCOCC2)[nH+]c2ccc([N-]C(=O)COc3ccccc3C=NOCCOCCN(C)C)cc12 (protonated)
Cc1cc(N2CCOCC2)[nH+]c2ccc([N-]C(=O)COc3ccccc3/C=N/OCCOCCN(C)C)cc12 (cis-trans isomerization)
Cc1cc(N2CCOCC2)[nH+]c2ccc([N-]C(=O)COc3ccccc3/C=N/OCCOCCN(C)C)cc12 (3D coordinates assigned)
Cc1cc(N2CCOCC2)[nH+]c2ccc([N-]C(=O)COc3ccccc3/C=N/OCCOCCN(C)C)cc12 (nonaromatic ring conformer: 91.69369676362652 kcal/mol)

>  <smiles>  (10) 
Cc1cc(N2CCOCC2)nc2ccc(NC(=O)COc3ccccc3C=NOCCOCCN(C)C)cc12

>  <score_type>  (10) 
oracle

>  <origin>  (10) 
adg

>  <m_score__min__energy>  (10) 
-10.33

>  <m_primary>  (10) 
energy

$$$$
10:0
     RDKit          3D

 44 46  0  0  0  0  0  0  0  0999 V2000
   58.2990   27.0730   47.0720 C   0  0  0  0  0  0  0  0  0  0  0  0
   57.4180   27.7070   45.9880 C   0  0  0  0  0  0  0  0  0  0  0  0
   58.0650   28.8040   45.2250 N   0  0  0  0  0  0  0  0  0  0  0  0
   57.2760   29.1820   44.0400 C   0  0  0  0  0  0  0  0  0  0  0  0
   59.4790   28.5720   44.8570 C   0  0  0  0  0  0  0  0  0  0  0  0
   60.4790   29.1960   45.8520 C   0  0  0  0  0  0  0  0  0  0  0  0
   59.8410   30.0530   46.8730 N   0  0  0  0  0  0  0  0  0  0  0  0
   60.1320   31.4700   46.6820 C   0  0  0  0  0  0  0  0  0  0  0  0
   59.1850   32.3450   46.0650 C   0  0  0  0  0  0  0  0  0  0  0  0
   57.9100   31.9190   45.6100 C   0  0  0  0  0  0  0  0  0  0  0  0
   57.0160   32.8170   45.0230 C   0  0  0  0  0  0  0  0  0  0  0  0
   57.3630   34.1560   44.8730 C   0  0  0  0  0  0  0  0  0  0  0  0
   58.6040   34.6050   45.3130 C   0  0  0  0  0  0  0  0  0  0  0  0
   59.5120   33.7130   45.9080 C   0  0  0  0  0  0  0  0  0  0  0  0
   60.7440   34.1880   46.3510 C   0  0  0  0  0  0  0  0  0  0  0  0
   61.6520   33.3620   46.9380 N   0  0  0  0  0  0  0  0  0  0  0  0
   62.8410   33.9040   47.3490 C   0  0  0  0  0  0  0  0  0  0  0  0
   63.8160   33.1190   47.9540 C   0  0  0  0  0  0  0  0  0  0  0  0
   63.5790   31.7660   48.1420 C   0  0  0  0  0  0  0  0  0  0  0  0
   62.3740   31.2080   47.7270 C   0  0  0  0  0  0  0  0  0  0  0  0
   61.3840   32.0160   47.1130 C   0  0  0  0  0  0  0  0  0  0  0  0
   57.9147   27.3495   48.0649 H   0  0  0  0  0  0  0  0  0  0  0  0
   58.2824   25.9784   46.9642 H   0  0  0  0  0  0  0  0  0  0  0  0
   59.3316   27.4364   46.9642 H   0  0  0  0  0  0  0  0  0  0  0  0
   57.1295   26.9189   45.2768 H   0  0  0  0  0  0  0  0  0  0  0  0
   56.5594   28.1557   46.5090 H   0  0  0  0  0  0  0  0  0  0  0  0
   56.3272   29.6366   44.3610 H   0  0  0  0  0  0  0  0  0  0  0  0
   57.8439   29.9058   43.4370 H   0  0  0  0  0  0  0  0  0  0  0  0
   57.0678   28.2859   43.4370 H   0  0  0  0  0  0  0  0  0  0  0  0
   59.6561   27.4870   44.8182 H   0  0  0  0  0  0  0  0  0  0  0  0
   59.6453   29.0544   43.8825 H   0  0  0  0  0  0  0  0  0  0  0  0
   61.0126   28.3824   46.3651 H   0  0  0  0  0  0  0  0  0  0  0  0
   61.1558   29.8380   45.2692 H   0  0  0  0  0  0  0  0  0  0  0  0
   60.0730   29.7080   47.8250 H   0  0  0  0  0  0  0  0  0  0  0  0
   58.8060   29.9100   46.8380 H   0  0  0  0  0  0  0  0  0  0  0  0
   57.6210   30.8635   45.7216 H   0  0  0  0  0  0  0  0  0  0  0  0
   56.0330   32.4641   44.6777 H   0  0  0  0  0  0  0  0  0  0  0  0
   56.6568   34.8589   44.4070 H   0  0  0  0  0  0  0  0  0  0  0  0
   58.8759   35.6642   45.1944 H   0  0  0  0  0  0  0  0  0  0  0  0
   60.9880   35.2530   46.2237 H   0  0  0  0  0  0  0  0  0  0  0  0
   63.0274   34.9775   47.1979 H   0  0  0  0  0  0  0  0  0  0  0  0
   64.7662   33.5670   48.2803 H   0  0  0  0  0  0  0  0  0  0  0  0
   64.3429   31.1343   48.6188 H   0  0  0  0  0  0  0  0  0  0  0  0
   62.1884   30.1341   47.8761 H   0  0  0  0  0  0  0  0  0  0  0  0
  1  2  1  0
  2  3  1  0
  3  4  1  0
  3  5  1  0
  5  6  1  0
  6  7  1  0
  7  8  1  0
  8  9  2  0
  9 10  1  0
 10 11  2  0
 11 12  1  0
 12 13  2  0
 13 14  1  0
 14 15  2  0
 15 16  1  0
 16 17  2  0
 17 18  1  0
 18 19  2  0
 19 20  1  0
 20 21  2  0
 21  8  1  0
 14  9  1  0
 21 16  1  0
  1 22  1  0
  1 23  1  0
  1 24  1  0
  2 25  1  0
  2 26  1  0
  4 27  1  0
  4 28  1  0
  4 29  1  0
  5 30  1  0
  5 31  1  0
  6 32  1  0
  6 33  1  0
  7 34  1  0
  7 35  1  0
 10 36  1  0
 11 37  1  0
 12 38  1  0
 13 39  1  0
 15 40  1  0
 17 41  1  0
 18 42  1  0
 19 43  1  0
 20 44  1  0
M  CHG  2   7   1  16   1
M  END
>  <UniqueID>  (11) 
11

>  <SMILES>  (11) 
CCN(C)CC[NH2+]c1c2ccccc2c[n+]2ccccc12

>  <Energy>  (11) 
63.91353742052975

>  <Genealogy>  (11) 
CCN(C)CC[NH2+]c1c2ccccc2c[n+]2ccccc12 (protonated)
CCN(C)CC[NH2+]c1c2ccccc2c[n+]2ccccc12 (3D coordinates assigned)
CCN(C)CC[NH2+]c1c2ccccc2c[n+]2ccccc12 (optimized conformer: 63.91353742052975 kcal/mol)

>  <smiles>  (11) 
CCN(C)CCNc1c2ccccc2c[n+]2ccccc12

>  <score_type>  (11) 
oracle

>  <origin>  (11) 
adg

>  <m_score__min__energy>  (11) 
-3.6000000000000001

>  <m_primary>  (11) 
energy

$$$$
11:0
     RDKit          3D

 52 54  0  0  1  0  0  0  0  0999 V2000
   59.2260   32.8310   50.4410 C   0  0  0  0  0  0  0  0  0  0  0  0
   58.5630   32.7080   49.1100 C   0  0  0  0  0  0  0  0  0  0  0  0
   58.8830   33.6560   48.1290 N   0  0  0  0  0  0  0  0  0  0  0  0
   59.9760   34.5180   48.3870 C   0  0  0  0  0  0  0  0  0  0  0  0
   58.3510   33.5940   46.8390 C   0  0  0  0  0  0  0  0  0  0  0  0
   59.0910   32.8440   45.7900 C   0  0  0  0  0  0  0  0  0  0  0  0
   59.0930   31.4340   46.1420 N   0  0  0  0  0  0  0  0  0  0  0  0
   59.9570   30.7780   46.9250 C   0  0  0  0  0  0  0  0  0  0  0  0
   61.1160   31.1940   47.6790 C   0  0  0  0  0  0  0  0  0  0  0  0
   61.9820   32.1320   47.0940 C   0  0  0  0  0  0  0  0  0  0  0  0
   63.1010   32.5900   47.7180 C   0  0  0  0  0  0  0  0  0  0  0  0
   63.4460   32.1480   48.9780 C   0  0  0  0  0  0  0  0  0  0  0  0
   65.0170   32.7780   49.8610 Br  0  0  0  0  0  0  0  0  0  0  0  0
   62.6220   31.2330   49.5820 C   0  0  0  0  0  0  0  0  0  0  0  0
   61.4720   30.7710   48.9270 C   0  0  0  0  0  0  0  0  0  0  0  0
   59.5240   29.4800   46.9210 N   0  0  0  0  0  0  0  0  0  0  0  0
   58.4470   29.3270   46.1770 C   0  0  0  0  0  0  0  0  0  0  0  0
   57.6600   28.2300   45.8740 C   0  0  0  0  0  0  0  0  0  0  0  0
   57.9560   27.0760   46.3860 N   0  0  0  0  0  0  0  0  0  0  0  0
   57.7720   25.8270   45.7100 C   0  0  0  0  0  0  0  0  0  0  0  0
   56.3970   25.2950   46.1290 C   0  0  0  0  0  0  0  0  0  0  0  0
   55.5080   26.3210   46.3700 O   0  0  0  0  0  0  0  0  0  0  0  0
   56.6010   28.4070   45.0670 N   0  0  0  0  0  0  0  0  0  0  0  0
   56.3110   29.6290   44.5640 C   0  0  0  0  0  0  0  0  0  0  0  0
   55.1330   29.8100   43.6760 C   0  0  0  0  0  0  0  0  0  0  0  0
   57.0820   30.6920   44.8640 N   0  0  0  0  0  0  0  0  0  0  0  0
   58.1480   30.5690   45.6620 C   0  0  0  0  0  0  0  0  0  0  0  0
   58.4793   32.6925   51.2368 H   0  0  0  0  0  0  0  0  0  0  0  0
   60.0076   32.0625   50.5337 H   0  0  0  0  0  0  0  0  0  0  0  0
   59.6799   33.8287   50.5337 H   0  0  0  0  0  0  0  0  0  0  0  0
   58.8208   31.7180   48.7056 H   0  0  0  0  0  0  0  0  0  0  0  0
   57.4954   32.8739   49.3167 H   0  0  0  0  0  0  0  0  0  0  0  0
   60.1107   34.6242   49.4735 H   0  0  0  0  0  0  0  0  0  0  0  0
   60.8895   34.0946   47.9440 H   0  0  0  0  0  0  0  0  0  0  0  0
   59.7771   35.5050   47.9440 H   0  0  0  0  0  0  0  0  0  0  0  0
   57.3553   33.1339   46.9226 H   0  0  0  0  0  0  0  0  0  0  0  0
   58.3825   34.6367   46.4900 H   0  0  0  0  0  0  0  0  0  0  0  0
   58.5966   32.9823   44.8172 H   0  0  0  0  0  0  0  0  0  0  0  0
   60.1241   33.2154   45.7208 H   0  0  0  0  0  0  0  0  0  0  0  0
   61.7458   32.5124   46.0893 H   0  0  0  0  0  0  0  0  0  0  0  0
   63.7414   33.3253   47.2088 H   0  0  0  0  0  0  0  0  0  0  0  0
   62.8653   30.8590   50.5875 H   0  0  0  0  0  0  0  0  0  0  0  0
   60.8309   30.0384   49.4391 H   0  0  0  0  0  0  0  0  0  0  0  0
   57.8039   25.9776   44.6208 H   0  0  0  0  0  0  0  0  0  0  0  0
   58.5678   25.1147   45.9733 H   0  0  0  0  0  0  0  0  0  0  0  0
   55.9994   24.6598   45.3237 H   0  0  0  0  0  0  0  0  0  0  0  0
   56.5191   24.7199   47.0587 H   0  0  0  0  0  0  0  0  0  0  0  0
   55.8520   27.0530   46.9110 H   0  0  0  0  0  0  0  0  0  0  0  0
   56.0060   27.5850   44.8300 H   0  0  0  0  0  0  0  0  0  0  0  0
   54.2299   29.9488   44.2886 H   0  0  0  0  0  0  0  0  0  0  0  0
   55.2850   30.6953   43.0411 H   0  0  0  0  0  0  0  0  0  0  0  0
   55.0122   28.9199   43.0411 H   0  0  0  0  0  0  0  0  0  0  0  0
  1  2  1  0
  2  3  1  0
  3  4  1  0
  3  5  1  0
  5  6  1  0
  6  7  1  0
  7  8  1  0
  8  9  1  0
  9 10  2  0
 10 11  1  0
 11 12  2  0
 12 13  1  0
 12 14  1  0
 14 15  2  0
  8 16  2  0
 16 17  1  0
 17 18  1  0
 18 19  2  0
 19 20  1  0
 20 21  1  0
 21 22  1  0
 18 23  1  0
 23 24  1  0
 24 25  1  0
 24 26  2  0
 26 27  1  0
 27  7  1  0
 15  9  1  0
 27 17  2  0
  1 28  1  0
  1 29  1  0
  1 30  1  0
  2 31  1  0
  2 32  1  0
  4 33  1  0
  4 34  1  0
  4 35  1  0
  5 36  1  0
  5 37  1  0
  6 38  1  0
  6 39  1  0
 10 40  1  0
 11 41  1  0
 14 42  1  0
 15 43  1  0
 20 44  1  0
 20 45  1  0
 21 46  1  0
 21 47  1  0
 22 48  1  0
 23 49  1  0
 25 50  1  0
 25 51  1  0
 25 52  1  0
M  END
>  <smiles>  (12) 
CCN(C)CCn1c(-c2ccc(Br)cc2)nc2c(=NCCO)[nH]c(C)nc21

>  <score_type>  (12) 
oracle

>  <origin>  (12) 
adg

>  <m_score__min__energy>  (12) 
-8.7100000000000009

>  <m_primary>  (12) 
energy

$$$$
12:0
     RDKit          3D

 59 59  0  0  0  0  0  0  0  0999 V2000
   64.0270   33.2950   48.1610 C   0  0  0  0  0  0  0  0  0  0  0  0
   63.0540   32.3030   48.8140 C   0  0  0  0  0  0  0  0  0  0  0  0
   61.6410   32.4160   48.3560 N   0  0  0  0  0  0  0  0  0  0  0  0
   60.9060   31.1300   48.3550 C   0  0  0  0  0  0  0  0  0  0  0  0
   60.8370   30.5060   46.9620 C   0  0  0  0  0  0  0  0  0  0  0  0
   60.8620   33.4620   49.0650 C   0  0  0  0  0  0  0  0  0  0  0  0
   60.0150   34.3260   48.1200 C   0  0  0  0  0  0  0  0  0  0  0  0
   60.2160   33.8480   46.4100 S   0  0  0  0  0  0  0  0  0  0  0  0
   61.8430   33.9060   45.9960 O   0  0  0  0  0  0  0  0  0  0  0  0
   59.2750   34.8890   45.3040 C   0  0  0  0  0  0  0  0  0  0  0  0
   57.9140   34.2690   44.9620 C   0  0  0  0  0  0  0  0  0  0  0  0
   57.4090   33.2530   46.0050 C   0  0  0  0  0  0  0  0  0  0  0  0
   57.7640   31.7960   45.6600 C   0  0  0  0  0  0  0  0  0  0  0  0
   56.7360   31.1980   44.7960 N   0  0  0  0  0  0  0  0  0  0  0  0
   57.3050   30.2300   43.8450 C   0  0  0  0  0  0  0  0  0  0  0  0
   58.5460   29.5690   44.4510 C   0  0  0  0  0  0  0  0  0  0  0  0
   58.1660   28.3840   45.3030 C   0  0  0  0  0  0  0  0  0  0  0  0
   59.1350   27.7190   46.0700 C   0  0  0  0  0  0  0  0  0  0  0  0
   58.7920   26.5810   46.8020 C   0  0  0  0  0  0  0  0  0  0  0  0
   57.4830   26.0950   46.7720 C   0  0  0  0  0  0  0  0  0  0  0  0
   56.5010   26.7470   46.0170 C   0  0  0  0  0  0  0  0  0  0  0  0
   55.1990   26.2240   46.0240 O   0  0  0  0  0  0  0  0  0  0  0  0
   54.8620   24.9080   45.6010 C   0  0  0  0  0  0  0  0  0  0  0  0
   56.8490   27.8950   45.2810 C   0  0  0  0  0  0  0  0  0  0  0  0
   64.5682   33.8468   48.9437 H   0  0  0  0  0  0  0  0  0  0  0  0
   64.7461   32.7455   47.5357 H   0  0  0  0  0  0  0  0  0  0  0  0
   63.4637   34.0034   47.5357 H   0  0  0  0  0  0  0  0  0  0  0  0
   63.4046   31.2843   48.5920 H   0  0  0  0  0  0  0  0  0  0  0  0
   63.0495   32.5377   49.8887 H   0  0  0  0  0  0  0  0  0  0  0  0
   61.4167   30.4295   49.0321 H   0  0  0  0  0  0  0  0  0  0  0  0
   59.8765   31.3291   48.6873 H   0  0  0  0  0  0  0  0  0  0  0  0
   60.7165   29.4165   47.0538 H   0  0  0  0  0  0  0  0  0  0  0  0
   59.9797   30.9249   46.4147 H   0  0  0  0  0  0  0  0  0  0  0  0
   61.7651   30.7274   46.4147 H   0  0  0  0  0  0  0  0  0  0  0  0
   60.1916   32.9711   49.7858 H   0  0  0  0  0  0  0  0  0  0  0  0
   61.5830   34.1284   49.5611 H   0  0  0  0  0  0  0  0  0  0  0  0
   58.9555   34.2192   48.3959 H   0  0  0  0  0  0  0  0  0  0  0  0
   60.3511   35.3684   48.2219 H   0  0  0  0  0  0  0  0  0  0  0  0
   62.2300   33.0940   46.4070 H   0  0  0  0  0  0  0  0  0  0  0  0
   59.1115   35.8645   45.7853 H   0  0  0  0  0  0  0  0  0  0  0  0
   59.8453   35.0009   44.3701 H   0  0  0  0  0  0  0  0  0  0  0  0
   57.1747   35.0796   44.8823 H   0  0  0  0  0  0  0  0  0  0  0  0
   58.0426   33.7192   44.0180 H   0  0  0  0  0  0  0  0  0  0  0  0
   57.8578   33.5002   46.9784 H   0  0  0  0  0  0  0  0  0  0  0  0
   56.3115   33.3244   46.0232 H   0  0  0  0  0  0  0  0  0  0  0  0
   58.7314   31.7749   45.1369 H   0  0  0  0  0  0  0  0  0  0  0  0
   57.8202   31.2167   46.5934 H   0  0  0  0  0  0  0  0  0  0  0  0
   56.2770   31.9620   44.2480 H   0  0  0  0  0  0  0  0  0  0  0  0
   56.5550   29.4580   43.6183 H   0  0  0  0  0  0  0  0  0  0  0  0
   57.5900   30.7555   42.9216 H   0  0  0  0  0  0  0  0  0  0  0  0
   59.2063   29.2310   43.6388 H   0  0  0  0  0  0  0  0  0  0  0  0
   59.0609   30.3057   45.0852 H   0  0  0  0  0  0  0  0  0  0  0  0
   60.1682   28.0958   46.0944 H   0  0  0  0  0  0  0  0  0  0  0  0
   59.5548   26.0656   47.4041 H   0  0  0  0  0  0  0  0  0  0  0  0
   57.2219   25.1935   47.3457 H   0  0  0  0  0  0  0  0  0  0  0  0
   54.6987   24.2702   46.4822 H   0  0  0  0  0  0  0  0  0  0  0  0
   53.9433   24.9410   44.9969 H   0  0  0  0  0  0  0  0  0  0  0  0
   55.6835   24.4954   44.9969 H   0  0  0  0  0  0  0  0  0  0  0  0
   56.0842   28.4133   44.6840 H   0  0  0  0  0  0  0  0  0  0  0  0
  1  2  1  0
  2  3  1  0
  3  4  1  0
  4  5  1  0
  3  6  1  0
  6  7  1  0
  7  8  1  0
  8  9  1  6
  8 10  1  0
 10 11  1  0
 11 12  1  0
 12 13  1  0
 13 14  1  0
 14 15  1  0
 15 16  1  0
 16 17  1  0
 17 18  2  0
 18 19  1  0
 19 20  2  0
 20 21  1  0
 21 22  1  0
 22 23  1  0
 21 24  2  0
 24 17  1  0
  1 25  1  0
  1 26  1  0
  1 27  1  0
  2 28  1  0
  2 29  1  0
  4 30  1  0
  4 31  1  0
  5 32  1  0
  5 33  1  0
  5 34  1  0
  6 35  1  0
  6 36  1  0
  7 37  1  0
  7 38  1  0
  9 39  1  0
 10 40  1  0
 10 41  1  0
 11 42  1  0
 11 43  1  0
 12 44  1  0
 12 45  1  0
 13 46  1  0
 13 47  1  0
 14 48  1  0
 15 49  1  0
 15 50  1  0
 16 51  1  0
 16 52  1  0
 18 53  1  0
 19 54  1  0
 20 55  1  0
 23 56  1  0
 23 57  1  0
 23 58  1  0
 24 59  1  0
M  CHG  1   8   1
M  END
>  <UniqueID>  (13) 
12

>  <SMILES>  (13) 
CCN(CC)CC[S@+](O)CCCCNCCc1cccc(OC)c1

>  <Energy>  (13) 
38.920954772191536

>  <Genealogy>  (13) 
CCN(CC)CC[S+](O)CCCCNCCc1cccc(OC)c1 (protonated)
CCN(CC)CC[S@+](O)CCCCNCCc1cccc(OC)c1 (chirality)
CCN(CC)CC[S@+](O)CCCCNCCc1cccc(OC)c1 (3D coordinates assigned)
CCN(CC)CC[S@+](O)CCCCNCCc1cccc(OC)c1 (optimized conformer: 38.920954772191536 kcal/mol)

>  <smiles>  (13) 
CCN(CC)CC[S+]([O-])CCCCNCCc1cccc(OC)c1

>  <score_type>  (13) 
oracle

>  <origin>  (13) 
adg

>  <m_score__min__energy>  (13) 
-5.1799999999999997

>  <m_primary>  (13) 
energy

$$$$
13:0
     RDKit          3D

 83 87  0  0  0  0  0  0  0  0999 V2000
   65.0220   32.7060   49.6370 C   0  0  0  0  0  0  0  0  0  0  0  0
   63.9240   33.3910   48.8050 C   0  0  0  0  0  0  0  0  0  0  0  0
   63.7130   32.8350   47.4370 N   0  0  2  0  0  0  0  0  0  0  0  0
   63.3990   33.8460   46.4060 C   0  0  0  0  0  0  0  0  0  0  0  0
   62.8030   31.6630   47.3920 C   0  0  0  0  0  0  0  0  0  0  0  0
   62.0980   31.3380   48.7220 C   0  0  0  0  0  0  0  0  0  0  0  0
   60.6830   31.7080   48.6610 N   0  0  0  0  0  0  0  0  0  0  0  0
   59.9250   31.6190   47.4470 C   0  0  0  0  0  0  0  0  0  0  0  0
   59.5990   32.7640   46.6830 C   0  0  0  0  0  0  0  0  0  0  0  0
   59.9060   34.0570   47.1540 C   0  0  0  0  0  0  0  0  0  0  0  0
   59.6350   35.1810   46.3780 C   0  0  0  0  0  0  0  0  0  0  0  0
   59.0450   35.0410   45.1270 C   0  0  0  0  0  0  0  0  0  0  0  0
   58.6910   33.7780   44.6500 C   0  0  0  0  0  0  0  0  0  0  0  0
   58.9320   32.6140   45.4200 C   0  0  0  0  0  0  0  0  0  0  0  0
   58.5400   31.3580   44.9770 N   0  0  0  0  0  0  0  0  0  0  0  0
   57.7650   31.1990   43.7320 C   0  0  0  0  0  0  0  0  0  0  0  0
   58.8800   30.2660   45.7330 C   0  0  0  0  0  0  0  0  0  0  0  0
   58.6720   28.9620   45.4110 N   0  0  0  0  0  0  0  0  0  0  0  0
   59.1790   28.2610   46.4440 C   0  0  0  0  0  0  0  0  0  0  0  0
   59.2220   26.8720   46.5650 C   0  0  0  0  0  0  0  0  0  0  0  0
   59.8100   26.3240   47.7170 C   0  0  0  0  0  0  0  0  0  0  0  0
   60.3340   27.1710   48.7330 C   0  0  0  0  0  0  0  0  0  0  0  0
   60.8970   26.6670   49.9130 O   0  0  0  0  0  0  0  0  0  0  0  0
   60.8050   27.2840   51.1960 C   0  0  0  0  0  0  0  0  0  0  0  0
   62.0370   28.1920   51.4270 C   0  0  0  0  0  0  0  0  0  0  0  0
   63.1020   27.6490   52.3380 N   0  0  0  0  0  0  0  0  0  0  0  0
   62.5670   27.7750   53.7250 C   0  0  0  0  0  0  0  0  0  0  0  0
   63.3820   26.2120   52.0400 C   0  0  0  0  0  0  0  0  0  0  0  0
   64.5920   25.6470   52.8150 C   0  0  0  0  0  0  0  0  0  0  0  0
   65.8260   26.4630   52.6460 N   0  0  0  0  0  0  0  0  0  0  0  0
   66.8560   25.9520   53.5840 C   0  0  0  0  0  0  0  0  0  0  0  0
   66.3690   26.3330   51.2690 C   0  0  0  0  0  0  0  0  0  0  0  0
   65.5560   27.8890   52.9730 C   0  0  0  0  0  0  0  0  0  0  0  0
   64.3410   28.4730   52.2130 C   0  0  0  0  0  0  0  0  0  0  0  0
   60.2680   28.5700   48.5800 C   0  0  0  0  0  0  0  0  0  0  0  0
   59.7020   29.0870   47.4130 C   0  0  0  0  0  0  0  0  0  0  0  0
   59.5260   30.3810   46.9490 C   0  0  0  0  0  0  0  0  0  0  0  0
   64.8078   32.8396   50.7076 H   0  0  0  0  0  0  0  0  0  0  0  0
   65.0462   31.6323   49.3991 H   0  0  0  0  0  0  0  0  0  0  0  0
   65.9970   33.1563   49.3991 H   0  0  0  0  0  0  0  0  0  0  0  0
   62.9763   33.3026   49.3565 H   0  0  0  0  0  0  0  0  0  0  0  0
   64.2583   34.4290   48.6605 H   0  0  0  0  0  0  0  0  0  0  0  0
   64.6460   32.4480   47.1520 H   0  0  0  0  0  0  0  0  0  0  0  0
   63.1065   34.7879   46.8931 H   0  0  0  0  0  0  0  0  0  0  0  0
   64.2861   34.0178   45.7787 H   0  0  0  0  0  0  0  0  0  0  0  0
   62.5707   33.4850   45.7787 H   0  0  0  0  0  0  0  0  0  0  0  0
   62.0299   31.8596   46.6346 H   0  0  0  0  0  0  0  0  0  0  0  0
   63.4326   30.7925   47.1558 H   0  0  0  0  0  0  0  0  0  0  0  0
   62.1810   30.2593   48.9206 H   0  0  0  0  0  0  0  0  0  0  0  0
   62.5795   31.9122   49.5272 H   0  0  0  0  0  0  0  0  0  0  0  0
   60.2110   32.0670   49.5210 H   0  0  0  0  0  0  0  0  0  0  0  0
   60.3650   34.1793   48.1462 H   0  0  0  0  0  0  0  0  0  0  0  0
   59.8885   36.1825   46.7559 H   0  0  0  0  0  0  0  0  0  0  0  0
   58.8560   35.9313   44.5092 H   0  0  0  0  0  0  0  0  0  0  0  0
   58.2178   33.6853   43.6613 H   0  0  0  0  0  0  0  0  0  0  0  0
   56.7149   30.9836   43.9788 H   0  0  0  0  0  0  0  0  0  0  0  0
   57.8206   32.1273   43.1444 H   0  0  0  0  0  0  0  0  0  0  0  0
   58.1816   30.3676   43.1444 H   0  0  0  0  0  0  0  0  0  0  0  0
   58.2550   28.5470   44.5480 H   0  0  0  0  0  0  0  0  0  0  0  0
   58.8067   26.2234   45.7796 H   0  0  0  0  0  0  0  0  0  0  0  0
   59.8658   25.2317   47.8345 H   0  0  0  0  0  0  0  0  0  0  0  0
   59.8889   27.8910   51.2451 H   0  0  0  0  0  0  0  0  0  0  0  0
   60.7745   26.5062   51.9732 H   0  0  0  0  0  0  0  0  0  0  0  0
   62.4997   28.3848   50.4479 H   0  0  0  0  0  0  0  0  0  0  0  0
   61.6497   29.0900   51.9306 H   0  0  0  0  0  0  0  0  0  0  0  0
   63.3740   27.5849   54.4479 H   0  0  0  0  0  0  0  0  0  0  0  0
   62.1722   28.7907   53.8748 H   0  0  0  0  0  0  0  0  0  0  0  0
   61.7604   27.0423   53.8748 H   0  0  0  0  0  0  0  0  0  0  0  0
   62.4924   25.6217   52.3048 H   0  0  0  0  0  0  0  0  0  0  0  0
   63.6235   26.1447   50.9690 H   0  0  0  0  0  0  0  0  0  0  0  0
   64.3381   25.6136   53.8848 H   0  0  0  0  0  0  0  0  0  0  0  0
   64.8025   24.6460   52.4105 H   0  0  0  0  0  0  0  0  0  0  0  0
   66.5232   26.1171   54.6194 H   0  0  0  0  0  0  0  0  0  0  0  0
   67.0050   24.8755   53.4140 H   0  0  0  0  0  0  0  0  0  0  0  0
   67.8033   26.4846   53.4140 H   0  0  0  0  0  0  0  0  0  0  0  0
   67.4377   26.0772   51.3189 H   0  0  0  0  0  0  0  0  0  0  0  0
   65.8265   25.5393   50.7344 H   0  0  0  0  0  0  0  0  0  0  0  0
   66.2448   27.2863   50.7344 H   0  0  0  0  0  0  0  0  0  0  0  0
   65.3633   27.9689   54.0530 H   0  0  0  0  0  0  0  0  0  0  0  0
   66.4403   28.4664   52.6654 H   0  0  0  0  0  0  0  0  0  0  0  0
   64.1321   29.4768   52.6113 H   0  0  0  0  0  0  0  0  0  0  0  0
   64.6081   28.4919   51.1461 H   0  0  0  0  0  0  0  0  0  0  0  0
   60.6538   29.2400   49.3625 H   0  0  0  0  0  0  0  0  0  0  0  0
  1  2  1  0
  2  3  1  0
  3  4  1  0
  3  5  1  0
  5  6  1  0
  6  7  1  0
  7  8  1  0
  8  9  2  0
  9 10  1  0
 10 11  2  0
 11 12  1  0
 12 13  2  0
 13 14  1  0
 14 15  2  0
 15 16  1  0
 15 17  1  0
 17 18  1  0
 18 19  1  0
 19 20  2  0
 20 21  1  0
 21 22  2  0
 22 23  1  0
 23 24  1  0
 24 25  1  0
 25 26  1  0
 26 27  1  0
 26 28  1  0
 28 29  1  0
 29 30  1  0
 30 31  1  0
 30 32  1  0
 30 33  1  0
 33 34  1  0
 22 35  1  0
 35 36  2  0
 36 37  1  0
 37  8  1  0
 14  9  1  0
 37 17  2  0
 36 19  1  0
 34 26  1  0
  1 38  1  0
  1 39  1  0
  1 40  1  0
  2 41  1  0
  2 42  1  0
  3 43  1  6
  4 44  1  0
  4 45  1  0
  4 46  1  0
  5 47  1  0
  5 48  1  0
  6 49  1  0
  6 50  1  0
  7 51  1  0
 10 52  1  0
 11 53  1  0
 12 54  1  0
 13 55  1  0
 16 56  1  0
 16 57  1  0
 16 58  1  0
 18 59  1  0
 20 60  1  0
 21 61  1  0
 24 62  1  0
 24 63  1  0
 25 64  1  0
 25 65  1  0
 27 66  1  0
 27 67  1  0
 27 68  1  0
 28 69  1  0
 28 70  1  0
 29 71  1  0
 29 72  1  0
 31 73  1  0
 31 74  1  0
 31 75  1  0
 32 76  1  0
 32 77  1  0
 32 78  1  0
 33 79  1  0
 33 80  1  0
 34 81  1  0
 34 82  1  0
 35 83  1  0
M  CHG  4   3   1  15   1  26   1  30   1
M  END
>  <UniqueID>  (14) 
13

>  <SMILES>  (14) 
CC[N@H+](C)CCNc1c2ccccc2[n+](C)c2[nH]c3ccc(OCC[N+]4(C)CC[N+](C)(C)CC4)cc3c12

>  <Energy>  (14) 
172.30145563295218

>  <Genealogy>  (14) 
CC[NH+](C)CCNc1c2ccccc2[n+](C)c2[nH]c3ccc(OCC[N+]4(C)CC[N+](C)(C)CC4)cc3c12 (protonated)
CC[N@H+](C)CCNc1c2ccccc2[n+](C)c2[nH]c3ccc(OCC[N+]4(C)CC[N+](C)(C)CC4)cc3c12 (chirality)
CC[N@H+](C)CCNc1c2ccccc2[n+](C)c2[nH]c3ccc(OCC[N+]4(C)CC[N+](C)(C)CC4)cc3c12 (3D coordinates assigned)
CC[N@H+](C)CCNc1c2ccccc2[n+](C)c2[nH]c3ccc(OCC[N+]4(C)CC[N+](C)(C)CC4)cc3c12 (nonaromatic ring conformer: 172.30145563295218 kcal/mol)

>  <smiles>  (14) 
CCN(C)CCNc1c2ccccc2[n+](C)c2[nH]c3ccc(OCC[N+]4(C)CC[N+](C)(C)CC4)cc3c12

>  <score_type>  (14) 
oracle

>  <origin>  (14) 
adg

>  <m_score__min__energy>  (14) 
-3.4399999999999999

>  <m_primary>  (14) 
energy

$$$$
14:0
     RDKit          3D

 39 42  0  0  0  0  0  0  0  0999 V2000
   61.4210   34.2300   49.1530 C   0  0  0  0  0  0  0  0  0  0  0  0
   60.5150   34.7550   48.1880 O   0  0  0  0  0  0  0  0  0  0  0  0
   59.8300   33.9780   47.2430 C   0  0  0  0  0  0  0  0  0  0  0  0
   59.5990   34.5320   45.9630 C   0  0  0  0  0  0  0  0  0  0  0  0
   58.9180   33.8040   44.9710 C   0  0  0  0  0  0  0  0  0  0  0  0
   58.4840   32.5120   45.2850 C   0  0  0  0  0  0  0  0  0  0  0  0
   58.7040   31.9740   46.5270 C   0  0  0  0  0  0  0  0  0  0  0  0
   59.3690   32.6710   47.5320 C   0  0  0  0  0  0  0  0  0  0  0  0
   58.1480   30.7150   46.5440 C   0  0  0  0  0  0  0  0  0  0  0  0
   57.6010   30.5370   45.2760 C   0  0  0  0  0  0  0  0  0  0  0  0
   56.8490   29.3330   44.8560 C   0  0  0  0  0  0  0  0  0  0  0  0
   55.5900   29.3450   44.8780 O   0  0  0  0  0  0  0  0  0  0  0  0
   57.5190   28.1170   44.4950 N   0  0  0  0  0  0  0  0  0  0  0  0
   57.5730   26.9220   45.2870 C   0  0  0  0  0  0  0  0  0  0  0  0
   58.8110   26.3060   45.6170 C   0  0  0  0  0  0  0  0  0  0  0  0
   58.8370   25.1250   46.3800 C   0  0  0  0  0  0  0  0  0  0  0  0
   57.6210   24.5890   46.7900 C   0  0  0  0  0  0  0  0  0  0  0  0
   56.4360   25.1660   46.4660 C   0  0  0  0  0  0  0  0  0  0  0  0
   56.3660   26.3290   45.7040 C   0  0  0  0  0  0  0  0  0  0  0  0
   55.4010   24.4240   47.0020 O   0  0  0  0  0  0  0  0  0  0  0  0
   55.9710   23.3140   47.7090 C   0  0  0  0  0  0  0  0  0  0  0  0
   57.3900   23.4550   47.5440 O   0  0  0  0  0  0  0  0  0  0  0  0
   57.8200   31.6350   44.5000 N   0  0  0  0  0  0  0  0  0  0  0  0
   57.3840   31.8400   43.1170 C   0  0  0  0  0  0  0  0  0  0  0  0
   61.0462   34.4472   50.1641 H   0  0  0  0  0  0  0  0  0  0  0  0
   61.5080   33.1415   49.0202 H   0  0  0  0  0  0  0  0  0  0  0  0
   62.4087   34.6957   49.0202 H   0  0  0  0  0  0  0  0  0  0  0  0
   59.9573   35.5477   45.7396 H   0  0  0  0  0  0  0  0  0  0  0  0
   58.7322   34.2379   43.9774 H   0  0  0  0  0  0  0  0  0  0  0  0
   59.5315   32.2194   48.5218 H   0  0  0  0  0  0  0  0  0  0  0  0
   58.1379   30.0014   47.3811 H   0  0  0  0  0  0  0  0  0  0  0  0
   59.7542   26.7558   45.2735 H   0  0  0  0  0  0  0  0  0  0  0  0
   59.7887   24.6407   46.6441 H   0  0  0  0  0  0  0  0  0  0  0  0
   55.3956   26.7719   45.4354 H   0  0  0  0  0  0  0  0  0  0  0  0
   55.7001   23.3544   48.7744 H   0  0  0  0  0  0  0  0  0  0  0  0
   55.6052   22.3497   47.3264 H   0  0  0  0  0  0  0  0  0  0  0  0
   56.3886   32.3080   43.1119 H   0  0  0  0  0  0  0  0  0  0  0  0
   58.1001   32.4958   42.6002 H   0  0  0  0  0  0  0  0  0  0  0  0
   57.3358   30.8702   42.6002 H   0  0  0  0  0  0  0  0  0  0  0  0
  1  2  1  0
  2  3  1  0
  3  4  2  0
  4  5  1  0
  5  6  2  0
  6  7  1  0
  7  8  2  0
  7  9  1  0
  9 10  2  0
 10 11  1  0
 11 12  2  0
 11 13  1  0
 13 14  1  0
 14 15  2  0
 15 16  1  0
 16 17  2  0
 17 18  1  0
 18 19  2  0
 18 20  1  0
 20 21  1  0
 21 22  1  0
 10 23  1  0
 23 24  1  0
  8  3  1  0
 19 14  1  0
 23  6  1  0
 22 17  1  0
  1 25  1  0
  1 26  1  0
  1 27  1  0
  4 28  1  0
  5 29  1  0
  8 30  1  0
  9 31  1  0
 15 32  1  0
 16 33  1  0
 19 34  1  0
 21 35  1  0
 21 36  1  0
 24 37  1  0
 24 38  1  0
 24 39  1  0
M  CHG  1  13  -1
M  END
>  <UniqueID>  (15) 
14

>  <SMILES>  (15) 
COc1ccc2c(c1)cc(C(=O)[N-]c1ccc3c(c1)OCO3)n2C

>  <Energy>  (15) 
110.14833701090548

>  <Genealogy>  (15) 
COc1ccc2c(c1)cc(C(=O)[N-]c1ccc3c(c1)OCO3)n2C (protonated)
COc1ccc2c(c1)cc(C(=O)[N-]c1ccc3c(c1)OCO3)n2C (3D coordinates assigned)
COc1ccc2c(c1)cc(C(=O)[N-]c1ccc3c(c1)OCO3)n2C (nonaromatic ring conformer: 110.14833701090548 kcal/mol)

>  <smiles>  (15) 
COc1ccc2c(c1)cc(C(=O)Nc1ccc3c(c1)OCO3)n2C

>  <score_type>  (15) 
oracle

>  <origin>  (15) 
adg

>  <m_score__min__energy>  (15) 
-8.7599999999999998

>  <m_primary>  (15) 
energy

$$$$
15:0
     RDKit          3D

 52 54  0  0  0  0  0  0  0  0999 V2000
   54.7930   24.8750   45.6090 C   0  0  0  0  0  0  0  0  0  0  0  0
   55.0180   26.2130   45.9900 O   0  0  0  0  0  0  0  0  0  0  0  0
   56.4020   26.4840   45.9600 C   0  0  0  0  0  0  0  0  0  0  0  0
   57.0990   25.5010   45.0210 C   0  0  0  0  0  0  0  0  0  0  0  0
   57.7720   26.3320   43.5350 S   0  0  0  0  0  0  0  0  0  0  0  0
   58.2010   27.8660   44.3620 C   0  0  0  0  0  0  0  0  0  0  0  0
   59.3770   27.9420   45.1420 C   0  0  0  0  0  0  0  0  0  0  0  0
   59.7250   29.1370   45.7950 C   0  0  0  0  0  0  0  0  0  0  0  0
   58.8740   30.2350   45.6450 C   0  0  0  0  0  0  0  0  0  0  0  0
   58.9140   31.5160   46.1670 C   0  0  0  0  0  0  0  0  0  0  0  0
   59.9520   32.1140   47.0280 C   0  0  0  0  0  0  0  0  0  0  0  0
   59.6550   33.0820   47.7790 O   0  0  0  0  0  0  0  0  0  0  0  0
   61.2990   31.6280   46.9910 N   0  0  0  0  0  0  0  0  0  0  0  0
   62.2780   32.0460   47.9520 C   0  0  0  0  0  0  0  0  0  0  0  0
   63.1690   33.1010   47.6490 C   0  0  0  0  0  0  0  0  0  0  0  0
   63.0860   33.8270   46.3330 C   0  0  0  0  0  0  0  0  0  0  0  0
   64.1270   33.4890   48.5980 C   0  0  0  0  0  0  0  0  0  0  0  0
   64.1910   32.8640   49.8490 C   0  0  0  0  0  0  0  0  0  0  0  0
   65.2390   33.2710   50.8420 C   0  0  0  0  0  0  0  0  0  0  0  0
   63.3090   31.8170   50.1420 C   0  0  0  0  0  0  0  0  0  0  0  0
   62.3460   31.4090   49.2070 C   0  0  0  0  0  0  0  0  0  0  0  0
   61.4140   30.2790   49.5390 C   0  0  0  0  0  0  0  0  0  0  0  0
   57.7380   32.1190   45.7120 C   0  0  0  0  0  0  0  0  0  0  0  0
   57.2920   33.5150   45.9980 C   0  0  0  0  0  0  0  0  0  0  0  0
   57.0460   31.2760   44.9680 O   0  0  0  0  0  0  0  0  0  0  0  0
   57.7120   30.1480   44.9200 C   0  0  0  0  0  0  0  0  0  0  0  0
   57.3430   28.9780   44.2630 C   0  0  0  0  0  0  0  0  0  0  0  0
   54.6880   24.2504   46.5083 H   0  0  0  0  0  0  0  0  0  0  0  0
   53.8720   24.8141   45.0106 H   0  0  0  0  0  0  0  0  0  0  0  0
   55.6434   24.5162   45.0106 H   0  0  0  0  0  0  0  0  0  0  0  0
   56.5658   27.5109   45.6014 H   0  0  0  0  0  0  0  0  0  0  0  0
   56.8164   26.3760   46.9732 H   0  0  0  0  0  0  0  0  0  0  0  0
   57.9255   25.0177   45.5626 H   0  0  0  0  0  0  0  0  0  0  0  0
   56.3547   24.7620   44.6893 H   0  0  0  0  0  0  0  0  0  0  0  0
   60.0253   27.0587   45.2389 H   0  0  0  0  0  0  0  0  0  0  0  0
   60.6381   29.2056   46.4046 H   0  0  0  0  0  0  0  0  0  0  0  0
   61.6270   31.1180   46.1390 H   0  0  0  0  0  0  0  0  0  0  0  0
   62.9628   34.9047   46.5159 H   0  0  0  0  0  0  0  0  0  0  0  0
   64.0096   33.6555   45.7607 H   0  0  0  0  0  0  0  0  0  0  0  0
   62.2249   33.4514   45.7607 H   0  0  0  0  0  0  0  0  0  0  0  0
   64.8364   34.2941   48.3560 H   0  0  0  0  0  0  0  0  0  0  0  0
   64.8552   33.1219   51.8620 H   0  0  0  0  0  0  0  0  0  0  0  0
   66.1403   32.6575   50.6961 H   0  0  0  0  0  0  0  0  0  0  0  0
   65.4900   34.3320   50.6961 H   0  0  0  0  0  0  0  0  0  0  0  0
   63.3717   31.3089   51.1156 H   0  0  0  0  0  0  0  0  0  0  0  0
   61.3323   30.1800   50.6315 H   0  0  0  0  0  0  0  0  0  0  0  0
   60.4207   30.4862   49.1143 H   0  0  0  0  0  0  0  0  0  0  0  0
   61.8064   29.3432   49.1143 H   0  0  0  0  0  0  0  0  0  0  0  0
   57.2429   33.6686   47.0861 H   0  0  0  0  0  0  0  0  0  0  0  0
   58.0078   34.2258   45.5593 H   0  0  0  0  0  0  0  0  0  0  0  0
   56.2967   33.6791   45.5593 H   0  0  0  0  0  0  0  0  0  0  0  0
   56.4093   28.9236   43.6839 H   0  0  0  0  0  0  0  0  0  0  0  0
  1  2  1  0
  2  3  1  0
  3  4  1  0
  4  5  1  0
  5  6  1  0
  6  7  2  0
  7  8  1  0
  8  9  2  0
  9 10  1  0
 10 11  1  0
 11 12  2  0
 11 13  1  0
 13 14  1  0
 14 15  2  0
 15 16  1  0
 15 17  1  0
 17 18  2  0
 18 19  1  0
 18 20  1  0
 20 21  2  0
 21 22  1  0
 10 23  2  0
 23 24  1  0
 23 25  1  0
 25 26  1  0
 26 27  2  0
 27  6  1  0
 26  9  1  0
 21 14  1  0
  1 28  1  0
  1 29  1  0
  1 30  1  0
  3 31  1  0
  3 32  1  0
  4 33  1  0
  4 34  1  0
  7 35  1  0
  8 36  1  0
 13 37  1  0
 16 38  1  0
 16 39  1  0
 16 40  1  0
 17 41  1  0
 19 42  1  0
 19 43  1  0
 19 44  1  0
 20 45  1  0
 22 46  1  0
 22 47  1  0
 22 48  1  0
 24 49  1  0
 24 50  1  0
 24 51  1  0
 27 52  1  0
M  END
>  <UniqueID>  (16) 
15

>  <SMILES>  (16) 
COCCSc1ccc2c(C(=O)Nc3c(C)cc(C)cc3C)c(C)oc2c1

>  <Energy>  (16) 
89.21162865420573

>  <Genealogy>  (16) 
COCCSc1ccc2c(C(=O)Nc3c(C)cc(C)cc3C)c(C)oc2c1 (3D coordinates assigned)
COCCSc1ccc2c(C(=O)Nc3c(C)cc(C)cc3C)c(C)oc2c1 (optimized conformer: 89.21162865420573 kcal/mol)

>  <smiles>  (16) 
COCCSc1ccc2c(C(=O)Nc3c(C)cc(C)cc3C)c(C)oc2c1

>  <score_type>  (16) 
oracle

>  <origin>  (16) 
adg

>  <m_score__min__energy>  (16) 
-8.8499999999999996

>  <m_primary>  (16) 
energy

$$$$
16:0
     RDKit          3D

 79 82  0  0  0  0  0  0  0  0999 V2000
   56.7470   29.4490   44.6520 C   0  0  0  0  0  0  0  0  0  0  0  0
   58.2630   29.6000   44.5130 C   0  0  0  0  0  0  0  0  0  0  0  0
   58.8220   30.4320   45.6130 N   0  0  0  0  0  0  0  0  0  0  0  0
   58.6290   31.8030   45.5990 C   0  0  0  0  0  0  0  0  0  0  0  0
   58.1110   32.4820   44.4600 C   0  0  0  0  0  0  0  0  0  0  0  0
   57.8250   33.8460   44.4970 C   0  0  0  0  0  0  0  0  0  0  0  0
   58.0360   34.5690   45.6620 C   0  0  0  0  0  0  0  0  0  0  0  0
   58.5860   33.9460   46.7770 C   0  0  0  0  0  0  0  0  0  0  0  0
   58.9470   32.5790   46.7420 C   0  0  0  0  0  0  0  0  0  0  0  0
   59.6030   31.9840   47.8330 C   0  0  0  0  0  0  0  0  0  0  0  0
   60.0900   32.8170   48.9000 N   0  0  0  0  0  0  0  0  0  0  0  0
   60.9150   34.0060   48.6550 C   0  0  0  0  0  0  0  0  0  0  0  0
   62.3480   33.8110   49.1830 C   0  0  0  0  0  0  0  0  0  0  0  0
   62.8590   32.4400   48.9330 N   0  0  0  0  0  0  0  0  0  0  0  0
   63.1590   32.2060   47.4940 C   0  0  0  0  0  0  0  0  0  0  0  0
   63.4390   33.4740   46.6800 C   0  0  0  0  0  0  0  0  0  0  0  0
   63.9560   31.9870   49.8430 C   0  0  0  0  0  0  0  0  0  0  0  0
   65.2820   32.7640   49.7390 C   0  0  0  0  0  0  0  0  0  0  0  0
   59.8600   30.5900   47.8250 C   0  0  0  0  0  0  0  0  0  0  0  0
   60.4720   29.9270   48.9360 C   0  0  0  0  0  0  0  0  0  0  0  0
   60.8550   30.6420   50.0800 O   0  0  0  0  0  0  0  0  0  0  0  0
   60.9990   30.0890   51.3900 C   0  0  0  0  0  0  0  0  0  0  0  0
   59.6640   29.6930   52.0710 C   0  0  0  0  0  0  0  0  0  0  0  0
   59.0340   30.6760   53.0290 N   0  0  0  0  0  0  0  0  0  0  0  0
   59.4410   30.2920   54.4090 C   0  0  0  0  0  0  0  0  0  0  0  0
   57.5470   30.5270   52.9780 C   0  0  0  0  0  0  0  0  0  0  0  0
   56.9130   30.9520   51.6300 C   0  0  0  0  0  0  0  0  0  0  0  0
   57.7330   32.0110   50.8830 C   0  0  0  0  0  0  0  0  0  0  0  0
   58.4700   32.9110   51.8610 C   0  0  0  0  0  0  0  0  0  0  0  0
   59.4080   32.1200   52.8020 C   0  0  0  0  0  0  0  0  0  0  0  0
   60.7060   28.5480   48.8800 C   0  0  0  0  0  0  0  0  0  0  0  0
   60.3940   27.8230   47.7460 C   0  0  0  0  0  0  0  0  0  0  0  0
   59.8030   28.4470   46.6570 C   0  0  0  0  0  0  0  0  0  0  0  0
   59.4780   29.8290   46.6780 C   0  0  0  0  0  0  0  0  0  0  0  0
   56.4774   29.4221   45.7181 H   0  0  0  0  0  0  0  0  0  0  0  0
   56.2477   30.3019   44.1689 H   0  0  0  0  0  0  0  0  0  0  0  0
   56.4258   28.5144   44.1689 H   0  0  0  0  0  0  0  0  0  0  0  0
   58.7276   28.6035   44.5447 H   0  0  0  0  0  0  0  0  0  0  0  0
   58.4781   30.0968   43.5555 H   0  0  0  0  0  0  0  0  0  0  0  0
   57.9328   31.9190   43.5319 H   0  0  0  0  0  0  0  0  0  0  0  0
   57.4316   34.3494   43.6015 H   0  0  0  0  0  0  0  0  0  0  0  0
   57.7683   35.6351   45.7038 H   0  0  0  0  0  0  0  0  0  0  0  0
   58.7425   34.5246   47.6993 H   0  0  0  0  0  0  0  0  0  0  0  0
   59.8550   32.5610   49.8860 H   0  0  0  0  0  0  0  0  0  0  0  0
   60.9549   34.1976   47.5725 H   0  0  0  0  0  0  0  0  0  0  0  0
   60.4627   34.8575   49.1845 H   0  0  0  0  0  0  0  0  0  0  0  0
   63.0106   34.5322   48.6823 H   0  0  0  0  0  0  0  0  0  0  0  0
   62.3301   33.9701   50.2713 H   0  0  0  0  0  0  0  0  0  0  0  0
   62.0550   31.7930   49.1240 H   0  0  0  0  0  0  0  0  0  0  0  0
   64.0445   31.5565   47.4305 H   0  0  0  0  0  0  0  0  0  0  0  0
   62.2556   31.7531   47.0596 H   0  0  0  0  0  0  0  0  0  0  0  0
   63.6248   34.3152   47.3640 H   0  0  0  0  0  0  0  0  0  0  0  0
   64.3236   33.3148   46.0459 H   0  0  0  0  0  0  0  0  0  0  0  0
   62.5696   33.7021   46.0459 H   0  0  0  0  0  0  0  0  0  0  0  0
   63.5936   32.0762   50.8778 H   0  0  0  0  0  0  0  0  0  0  0  0
   64.1903   30.9570   49.5361 H   0  0  0  0  0  0  0  0  0  0  0  0
   65.6580   32.9844   50.7490 H   0  0  0  0  0  0  0  0  0  0  0  0
   66.0215   32.1563   49.1969 H   0  0  0  0  0  0  0  0  0  0  0  0
   65.1134   33.7062   49.1969 H   0  0  0  0  0  0  0  0  0  0  0  0
   61.6270   29.1890   51.3158 H   0  0  0  0  0  0  0  0  0  0  0  0
   61.4472   30.8761   52.0142 H   0  0  0  0  0  0  0  0  0  0  0  0
   58.9333   29.5028   51.2710 H   0  0  0  0  0  0  0  0  0  0  0  0
   59.9237   28.8279   52.6988 H   0  0  0  0  0  0  0  0  0  0  0  0
   58.8422   30.8570   55.1385 H   0  0  0  0  0  0  0  0  0  0  0  0
   59.2744   29.2144   54.5539 H   0  0  0  0  0  0  0  0  0  0  0  0
   60.5071   30.5209   54.5539 H   0  0  0  0  0  0  0  0  0  0  0  0
   57.2996   29.4704   53.1578 H   0  0  0  0  0  0  0  0  0  0  0  0
   57.1352   31.1974   53.7467 H   0  0  0  0  0  0  0  0  0  0  0  0
   56.8249   30.0622   50.9893 H   0  0  0  0  0  0  0  0  0  0  0  0
   55.9330   31.3975   51.8561 H   0  0  0  0  0  0  0  0  0  0  0  0
   58.4648   31.5085   50.2334 H   0  0  0  0  0  0  0  0  0  0  0  0
   57.0486   32.6283   50.2825 H   0  0  0  0  0  0  0  0  0  0  0  0
   59.0709   33.6346   51.2906 H   0  0  0  0  0  0  0  0  0  0  0  0
   57.7168   33.4139   52.4853 H   0  0  0  0  0  0  0  0  0  0  0  0
   60.4196   32.1442   52.3707 H   0  0  0  0  0  0  0  0  0  0  0  0
   59.3327   32.6093   53.7843 H   0  0  0  0  0  0  0  0  0  0  0  0
   61.1436   28.0354   49.7493 H   0  0  0  0  0  0  0  0  0  0  0  0
   60.6152   26.7462   47.7065 H   0  0  0  0  0  0  0  0  0  0  0  0
   59.5808   27.8569   45.7556 H   0  0  0  0  0  0  0  0  0  0  0  0
  1  2  1  0
  2  3  1  0
  3  4  2  0
  4  5  1  0
  5  6  2  0
  6  7  1  0
  7  8  2  0
  8  9  1  0
  9 10  2  0
 10 11  1  0
 11 12  1  0
 12 13  1  0
 13 14  1  0
 14 15  1  0
 15 16  1  0
 14 17  1  0
 17 18  1  0
 10 19  1  0
 19 20  2  0
 20 21  1  0
 21 22  1  0
 22 23  1  0
 23 24  1  0
 24 25  1  0
 24 26  1  0
 26 27  1  0
 27 28  1  0
 28 29  1  0
 29 30  1  0
 20 31  1  0
 31 32  2  0
 32 33  1  0
 33 34  2  0
 34  3  1  0
  9  4  1  0
 34 19  1  0
 30 24  1  0
  1 35  1  0
  1 36  1  0
  1 37  1  0
  2 38  1  0
  2 39  1  0
  5 40  1  0
  6 41  1  0
  7 42  1  0
  8 43  1  0
 11 44  1  0
 12 45  1  0
 12 46  1  0
 13 47  1  0
 13 48  1  0
 14 49  1  0
 15 50  1  0
 15 51  1  0
 16 52  1  0
 16 53  1  0
 16 54  1  0
 17 55  1  0
 17 56  1  0
 18 57  1  0
 18 58  1  0
 18 59  1  0
 22 60  1  0
 22 61  1  0
 23 62  1  0
 23 63  1  0
 25 64  1  0
 25 65  1  0
 25 66  1  0
 26 67  1  0
 26 68  1  0
 27 69  1  0
 27 70  1  0
 28 71  1  0
 28 72  1  0
 29 73  1  0
 29 74  1  0
 30 75  1  0
 30 76  1  0
 31 77  1  0
 32 78  1  0
 33 79  1  0
M  CHG  3   3   1  14   1  24   1
M  END
>  <UniqueID>  (17) 
16

>  <SMILES>  (17) 
CC[n+]1c2ccccc2c(NCC[NH+](CC)CC)c2c(OCC[N+]3(C)CCCCC3)cccc21

>  <Energy>  (17) 
137.71871241516217

>  <Genealogy>  (17) 
CC[n+]1c2ccccc2c(NCC[NH+](CC)CC)c2c(OCC[N+]3(C)CCCCC3)cccc21 (protonated)
CC[n+]1c2ccccc2c(NCC[NH+](CC)CC)c2c(OCC[N+]3(C)CCCCC3)cccc21 (3D coordinates assigned)
CC[n+]1c2ccccc2c(NCC[NH+](CC)CC)c2c(OCC[N+]3(C)CCCCC3)cccc21 (nonaromatic ring conformer: 137.71871241516217 kcal/mol)

>  <smiles>  (17) 
CCN(CC)CCNc1c2ccccc2[n+](CC)c2cccc(OCC[N+]3(C)CCCCC3)c12

>  <score_type>  (17) 
oracle

>  <origin>  (17) 
adg

>  <m_score__min__energy>  (17) 
-3.7200000000000002

>  <m_primary>  (17) 
energy

$$$$
17:0
     RDKit          3D

 71 73  0  0  0  0  0  0  0  0999 V2000
   60.4140   27.2360   48.7430 C   0  0  0  0  0  0  0  0  0  0  0  0
   59.5790   26.3530   47.8240 C   0  0  0  0  0  0  0  0  0  0  0  0
   59.2450   27.1010   46.5880 N   0  0  0  0  0  0  0  0  0  0  0  0
   58.2680   26.3910   45.7300 C   0  0  0  0  0  0  0  0  0  0  0  0
   56.8030   26.6310   46.1290 C   0  0  0  0  0  0  0  0  0  0  0  0
   60.4310   27.5750   45.8410 C   0  0  0  0  0  0  0  0  0  0  0  0
   60.6190   29.0910   46.0390 C   0  0  0  0  0  0  0  0  0  0  0  0
   59.7280   29.6410   47.0830 N   0  0  0  0  0  0  0  0  0  0  0  0
   59.0390   30.8570   46.6570 C   0  0  0  0  0  0  0  0  0  0  0  0
   58.3040   30.8690   45.4450 C   0  0  0  0  0  0  0  0  0  0  0  0
   57.8210   29.6710   44.8720 C   0  0  0  0  0  0  0  0  0  0  0  0
   57.1600   29.6780   43.6460 C   0  0  0  0  0  0  0  0  0  0  0  0
   56.9800   30.8700   42.9600 C   0  0  0  0  0  0  0  0  0  0  0  0
   57.4130   32.0690   43.5190 C   0  0  0  0  0  0  0  0  0  0  0  0
   58.0470   32.1040   44.7890 C   0  0  0  0  0  0  0  0  0  0  0  0
   58.4360   33.2950   45.3690 N   0  0  0  0  0  0  0  0  0  0  0  0
   57.9850   34.5780   44.7750 C   0  0  0  0  0  0  0  0  0  0  0  0
   59.1600   33.2930   46.5450 C   0  0  0  0  0  0  0  0  0  0  0  0
   59.7890   34.4610   47.0310 C   0  0  0  0  0  0  0  0  0  0  0  0
   60.3590   34.4980   48.2970 C   0  0  0  0  0  0  0  0  0  0  0  0
   60.2670   33.3970   49.1460 C   0  0  0  0  0  0  0  0  0  0  0  0
   60.7200   33.5110   50.5040 N   0  0  0  0  0  0  0  0  0  0  0  0
   62.1140   33.8120   50.8410 C   0  0  0  0  0  0  0  0  0  0  0  0
   63.0630   32.8480   50.1180 C   0  0  0  0  0  0  0  0  0  0  0  0
   63.6200   33.4670   48.8140 C   0  0  0  0  0  0  0  0  0  0  0  0
   62.9370   33.0120   47.5810 N   0  0  0  0  0  0  0  0  0  0  0  0
   63.0340   31.5580   47.3750 C   0  0  0  0  0  0  0  0  0  0  0  0
   63.3630   33.7540   46.3830 C   0  0  0  0  0  0  0  0  0  0  0  0
   59.7150   32.1900   48.6640 C   0  0  0  0  0  0  0  0  0  0  0  0
   59.3430   31.1650   49.6050 N   0  0  0  0  0  0  0  0  0  0  0  0
   59.7710   31.1870   50.7770 O   0  0  0  0  0  0  0  0  0  0  0  0
   58.5950   30.0890   49.1850 O   0  0  0  0  0  0  0  0  0  0  0  0
   59.3040   32.0970   47.2980 C   0  0  0  0  0  0  0  0  0  0  0  0
   60.1852   26.9940   49.7914 H   0  0  0  0  0  0  0  0  0  0  0  0
   61.4824   27.0586   48.5506 H   0  0  0  0  0  0  0  0  0  0  0  0
   60.1773   28.2928   48.5506 H   0  0  0  0  0  0  0  0  0  0  0  0
   60.1516   25.4508   47.5630 H   0  0  0  0  0  0  0  0  0  0  0  0
   58.6511   26.0628   48.3386 H   0  0  0  0  0  0  0  0  0  0  0  0
   58.4053   26.7314   44.6930 H   0  0  0  0  0  0  0  0  0  0  0  0
   58.4602   25.3144   45.8485 H   0  0  0  0  0  0  0  0  0  0  0  0
   56.7192   26.6447   47.2257 H   0  0  0  0  0  0  0  0  0  0  0  0
   56.4659   27.5963   45.7234 H   0  0  0  0  0  0  0  0  0  0  0  0
   56.1755   25.8237   45.7234 H   0  0  0  0  0  0  0  0  0  0  0  0
   61.3245   27.0480   46.2070 H   0  0  0  0  0  0  0  0  0  0  0  0
   60.2839   27.3703   44.7703 H   0  0  0  0  0  0  0  0  0  0  0  0
   61.6626   29.2820   46.3296 H   0  0  0  0  0  0  0  0  0  0  0  0
   60.3662   29.5857   45.0896 H   0  0  0  0  0  0  0  0  0  0  0  0
   59.0310   28.9190   47.3720 H   0  0  0  0  0  0  0  0  0  0  0  0
   60.3370   29.7870   47.9080 H   0  0  0  0  0  0  0  0  0  0  0  0
   57.9693   28.7186   45.4021 H   0  0  0  0  0  0  0  0  0  0  0  0
   56.7803   28.7370   43.2213 H   0  0  0  0  0  0  0  0  0  0  0  0
   56.4945   30.8678   41.9730 H   0  0  0  0  0  0  0  0  0  0  0  0
   57.2610   33.0077   42.9661 H   0  0  0  0  0  0  0  0  0  0  0  0
   57.7359   35.2866   45.5786 H   0  0  0  0  0  0  0  0  0  0  0  0
   58.7897   34.9970   44.1530 H   0  0  0  0  0  0  0  0  0  0  0  0
   57.0951   34.4013   44.1530 H   0  0  0  0  0  0  0  0  0  0  0  0
   59.8280   35.3576   46.3950 H   0  0  0  0  0  0  0  0  0  0  0  0
   60.8869   35.4031   48.6319 H   0  0  0  0  0  0  0  0  0  0  0  0
   60.0600   33.2920   51.2840 H   0  0  0  0  0  0  0  0  0  0  0  0
   62.3452   34.8435   50.5366 H   0  0  0  0  0  0  0  0  0  0  0  0
   62.2499   33.6968   51.9265 H   0  0  0  0  0  0  0  0  0  0  0  0
   63.9032   32.6066   50.7857 H   0  0  0  0  0  0  0  0  0  0  0  0
   62.4975   31.9421   49.8543 H   0  0  0  0  0  0  0  0  0  0  0  0
   63.5175   34.5602   48.8808 H   0  0  0  0  0  0  0  0  0  0  0  0
   64.6668   33.1390   48.7326 H   0  0  0  0  0  0  0  0  0  0  0  0
   63.0678   31.0509   48.3506 H   0  0  0  0  0  0  0  0  0  0  0  0
   62.1572   31.2084   46.8102 H   0  0  0  0  0  0  0  0  0  0  0  0
   63.9495   31.3280   46.8102 H   0  0  0  0  0  0  0  0  0  0  0  0
   63.8893   34.6707   46.6874 H   0  0  0  0  0  0  0  0  0  0  0  0
   64.0379   33.1257   45.7832 H   0  0  0  0  0  0  0  0  0  0  0  0
   62.4801   34.0200   45.7832 H   0  0  0  0  0  0  0  0  0  0  0  0
  1  2  1  0
  2  3  1  0
  3  4  1  0
  4  5  1  0
  3  6  1  0
  6  7  1  0
  7  8  1  0
  8  9  1  0
  9 10  2  0
 10 11  1  0
 11 12  2  0
 12 13  1  0
 13 14  2  0
 14 15  1  0
 15 16  2  0
 16 17  1  0
 16 18  1  0
 18 19  2  0
 19 20  1  0
 20 21  2  0
 21 22  1  0
 22 23  1  0
 23 24  1  0
 24 25  1  0
 25 26  1  0
 26 27  1  0
 26 28  1  0
 21 29  1  0
 29 30  1  0
 30 31  2  0
 30 32  1  0
 29 33  2  0
 33  9  1  0
 15 10  1  0
 33 18  1  0
  1 34  1  0
  1 35  1  0
  1 36  1  0
  2 37  1  0
  2 38  1  0
  4 39  1  0
  4 40  1  0
  5 41  1  0
  5 42  1  0
  5 43  1  0
  6 44  1  0
  6 45  1  0
  7 46  1  0
  7 47  1  0
  8 48  1  0
  8 49  1  0
 11 50  1  0
 12 51  1  0
 13 52  1  0
 14 53  1  0
 17 54  1  0
 17 55  1  0
 17 56  1  0
 19 57  1  0
 20 58  1  0
 22 59  1  0
 23 60  1  0
 23 61  1  0
 24 62  1  0
 24 63  1  0
 25 64  1  0
 25 65  1  0
 27 66  1  0
 27 67  1  0
 27 68  1  0
 28 69  1  0
 28 70  1  0
 28 71  1  0
M  CHG  4   8   1  16   1  30   1  32  -1
M  END
>  <UniqueID>  (18) 
17

>  <SMILES>  (18) 
CCN(CC)CC[NH2+]c1c2ccccc2[n+](C)c2ccc(NCCCN(C)C)c([N+](=O)[O-])c12

>  <Energy>  (18) 
121.74612084481828

>  <Genealogy>  (18) 
CCN(CC)CC[NH2+]c1c2ccccc2[n+](C)c2ccc(NCCCN(C)C)c([N+](=O)[O-])c12 (protonated)
CCN(CC)CC[NH2+]c1c2ccccc2[n+](C)c2ccc(NCCCN(C)C)c([N+](=O)[O-])c12 (3D coordinates assigned)
CCN(CC)CC[NH2+]c1c2ccccc2[n+](C)c2ccc(NCCCN(C)C)c([N+](=O)[O-])c12 (optimized conformer: 121.74612084481828 kcal/mol)

>  <smiles>  (18) 
CCN(CC)CCNc1c2ccccc2[n+](C)c2ccc(NCCCN(C)C)c([N+](=O)[O-])c12

>  <score_type>  (18) 
oracle

>  <origin>  (18) 
adg

>  <m_score__min__energy>  (18) 
-4.0300000000000002

>  <m_primary>  (18) 
energy

$$$$
18:0
     RDKit          3D

 18 17  0  0  0  0  0  0  0  0999 V2000
   55.5590   29.7170   46.0070 H   0  0  0  0  0  0  0  0  0  0  0  0
   55.5680   29.5940   44.9840 N   0  0  0  0  0  0  0  0  0  0  0  0
   56.6580   29.6870   44.3120 C   0  0  0  0  0  0  0  0  0  0  0  0
   56.7120   30.6810   42.8100 S   0  0  0  0  0  0  0  0  0  0  0  0
   57.7610   32.0070   43.5150 C   0  0  0  0  0  0  0  0  0  0  0  0
   58.8056   31.6623   43.5240 H   0  0  0  0  0  0  0  0  0  0  0  0
   57.6337   32.9012   42.8871 H   0  0  0  0  0  0  0  0  0  0  0  0
   57.3560   32.3830   44.9450 C   0  0  0  0  0  0  0  0  0  0  0  0
   56.3170   32.0635   45.1134 H   0  0  0  0  0  0  0  0  0  0  0  0
   58.0498   31.8784   45.6335 H   0  0  0  0  0  0  0  0  0  0  0  0
   57.4550   33.8860   45.2030 C   0  0  0  0  0  0  0  0  0  0  0  0
   57.4672   34.0719   46.2871 H   0  0  0  0  0  0  0  0  0  0  0  0
   58.3807   34.2749   44.7538 H   0  0  0  0  0  0  0  0  0  0  0  0
   56.5883   34.3930   44.7538 H   0  0  0  0  0  0  0  0  0  0  0  0
   57.8790   28.9440   44.7650 C   0  0  0  0  0  0  0  0  0  0  0  0
   58.7562   29.6028   44.6847 H   0  0  0  0  0  0  0  0  0  0  0  0
   57.7413   28.6291   45.8099 H   0  0  0  0  0  0  0  0  0  0  0  0
   58.1310   27.5010   43.7500 Cl  0  0  0  0  0  0  0  0  0  0  0  0
  1  2  1  0
  2  3  2  0
  3  4  1  0
  4  5  1  0
  5  6  1  0
  5  7  1  0
  5  8  1  0
  8  9  1  0
  8 10  1  0
  8 11  1  0
 11 12  1  0
 11 13  1  0
 11 14  1  0
  3 15  1  0
 15 16  1  0
 15 17  1  0
 15 18  1  0
M  END
>  <UniqueID>  (19) 
18

>  <SMILES>  (19) 
[H]/N=C(/CCl)SCCC

>  <Energy>  (19) 
3.094806581290735

>  <Genealogy>  (19) 
[H]/N=C(/CCl)SCCC (cis-trans isomerization)
[H]/N=C(/CCl)SCCC (3D coordinates assigned)
[H]/N=C(/CCl)SCCC (optimized conformer: 3.094806581290735 kcal/mol)

>  <smiles>  (19) 
CCCSC(=N)CCl

>  <score_type>  (19) 
oracle

>  <origin>  (19) 
adg

>  <m_score__min__energy>  (19) 
-4.1699999999999999

>  <m_primary>  (19) 
energy

$$$$
19:0
     RDKit          3D

 36 37  0  0  0  0  0  0  0  0999 V2000
   64.7370   32.0020   49.6100 C   0  0  0  0  0  0  0  0  0  0  0  0
   63.6060   32.6980   48.9150 C   0  0  0  0  0  0  0  0  0  0  0  0
   62.4320   32.9990   49.6160 C   0  0  0  0  0  0  0  0  0  0  0  0
   61.3610   33.6240   48.9600 C   0  0  0  0  0  0  0  0  0  0  0  0
   60.0920   33.8940   49.7280 C   0  0  0  0  0  0  0  0  0  0  0  0
   61.4770   33.9190   47.5800 C   0  0  0  0  0  0  0  0  0  0  0  0
   60.3700   34.6010   46.7980 C   0  0  0  0  0  0  0  0  0  0  0  0
   60.2280   34.0570   45.4350 N   0  0  0  0  0  0  0  0  0  0  0  0
   58.8750   34.2150   44.8870 C   0  0  0  0  0  0  0  0  0  0  0  0
   58.1640   32.8930   44.8170 C   0  0  0  0  0  0  0  0  0  0  0  0
   57.7590   32.2570   43.6620 C   0  0  0  0  0  0  0  0  0  0  0  0
   57.2020   31.0740   44.1060 C   0  0  0  0  0  0  0  0  0  0  0  0
   56.4550   29.7120   43.0020 Br  0  0  0  0  0  0  0  0  0  0  0  0
   57.2700   31.0030   45.4490 N   0  0  0  0  0  0  0  0  0  0  0  0
   57.8500   32.1150   45.8750 N   0  0  0  0  0  0  0  0  0  0  0  0
   58.1410   32.3860   47.2770 C   0  0  0  0  0  0  0  0  0  0  0  0
   62.6640   33.5710   46.9160 C   0  0  0  0  0  0  0  0  0  0  0  0
   63.6870   32.9750   47.5840 N   0  0  0  0  0  0  0  0  0  0  0  0
   64.6041   32.0838   50.6989 H   0  0  0  0  0  0  0  0  0  0  0  0
   64.7477   30.9408   49.3206 H   0  0  0  0  0  0  0  0  0  0  0  0
   65.6892   32.4706   49.3206 H   0  0  0  0  0  0  0  0  0  0  0  0
   62.3493   32.7450   50.6831 H   0  0  0  0  0  0  0  0  0  0  0  0
   60.3001   33.8497   50.8072 H   0  0  0  0  0  0  0  0  0  0  0  0
   59.7119   34.8931   49.4686 H   0  0  0  0  0  0  0  0  0  0  0  0
   59.3381   33.1362   49.4686 H   0  0  0  0  0  0  0  0  0  0  0  0
   59.4202   34.4612   47.3350 H   0  0  0  0  0  0  0  0  0  0  0  0
   60.6293   35.6663   46.7089 H   0  0  0  0  0  0  0  0  0  0  0  0
   60.4610   33.0360   45.4380 H   0  0  0  0  0  0  0  0  0  0  0  0
   58.3028   34.8973   45.5328 H   0  0  0  0  0  0  0  0  0  0  0  0
   58.9550   34.6240   43.8690 H   0  0  0  0  0  0  0  0  0  0  0  0
   57.8572   32.6109   42.6251 H   0  0  0  0  0  0  0  0  0  0  0  0
   57.4841   31.7742   47.9127 H   0  0  0  0  0  0  0  0  0  0  0  0
   59.1914   32.1369   47.4883 H   0  0  0  0  0  0  0  0  0  0  0  0
   57.9672   33.4514   47.4883 H   0  0  0  0  0  0  0  0  0  0  0  0
   62.7676   33.7833   45.8417 H   0  0  0  0  0  0  0  0  0  0  0  0
   64.5510   32.7260   47.0520 H   0  0  0  0  0  0  0  0  0  0  0  0
  1  2  1  0
  2  3  2  0
  3  4  1  0
  4  5  1  0
  4  6  2  0
  6  7  1  0
  7  8  1  0
  8  9  1  0
  9 10  1  0
 10 11  2  0
 11 12  1  0
 12 13  1  0
 12 14  2  0
 14 15  1  0
 15 16  1  0
  6 17  1  0
 17 18  2  0
 18  2  1  0
 15 10  1  0
  1 19  1  0
  1 20  1  0
  1 21  1  0
  3 22  1  0
  5 23  1  0
  5 24  1  0
  5 25  1  0
  7 26  1  0
  7 27  1  0
  8 28  1  0
  9 29  1  0
  9 30  1  0
 11 31  1  0
 16 32  1  0
 16 33  1  0
 16 34  1  0
 17 35  1  0
 18 36  1  0
M  CHG  1  18   1
M  END
>  <UniqueID>  (20) 
19

>  <SMILES>  (20) 
Cc1cc(C)c(CNCc2cc(Br)nn2C)c[nH+]1

>  <Energy>  (20) 
64.49427854310709

>  <Genealogy>  (20) 
Cc1cc(C)c(CNCc2cc(Br)nn2C)c[nH+]1 (protonated)
Cc1cc(C)c(CNCc2cc(Br)nn2C)c[nH+]1 (3D coordinates assigned)
Cc1cc(C)c(CNCc2cc(Br)nn2C)c[nH+]1 (optimized conformer: 64.49427854310709 kcal/mol)

>  <smiles>  (20) 
Cc1cc(C)c(CNCc2cc(Br)nn2C)cn1

>  <score_type>  (20) 
oracle

>  <origin>  (20) 
adg

>  <m_score__min__energy>  (20) 
-6.0300000000000002

>  <m_primary>  (20) 
energy

$$$$
20:0
     RDKit          3D

 41 42  0  0  0  0  0  0  0  0999 V2000
   56.3510   30.0730   43.1290 C   0  0  0  0  0  0  0  0  0  0  0  0
   57.0120   31.2160   43.8180 C   0  0  0  0  0  0  0  0  0  0  0  0
   56.7590   31.5600   45.1000 N   0  0  0  0  0  0  0  0  0  0  0  0
   57.4620   32.6590   45.4880 C   0  0  0  0  0  0  0  0  0  0  0  0
   57.2970   33.2660   46.8580 C   0  0  0  0  0  0  0  0  0  0  0  0
   58.3180   32.7480   47.8890 C   0  0  0  0  0  0  0  0  0  0  0  0
   59.3600   33.7470   48.2140 N   0  0  0  0  0  0  0  0  0  0  0  0
   60.7770   33.3050   48.1700 C   0  0  0  0  0  0  0  0  0  0  0  0
   61.5420   33.8050   49.4260 C   0  0  0  0  0  0  0  0  0  0  0  0
   62.6940   32.9280   49.9390 C   0  0  0  0  0  0  0  0  0  0  0  0
   63.9780   33.0720   49.1120 C   0  0  0  0  0  0  0  0  0  0  0  0
   63.7640   33.9060   47.8440 C   0  0  0  0  0  0  0  0  0  0  0  0
   62.9480   33.1730   46.7750 C   0  0  0  0  0  0  0  0  0  0  0  0
   61.4550   33.5420   46.7920 C   0  0  0  0  0  0  0  0  0  0  0  0
   58.2360   33.2330   44.4730 C   0  0  0  0  0  0  0  0  0  0  0  0
   59.0660   34.4730   44.5670 C   0  0  0  0  0  0  0  0  0  0  0  0
   58.0680   32.2980   43.0830 S   0  0  0  0  0  0  0  0  0  0  0  0
   55.9481   29.3763   43.8788 H   0  0  0  0  0  0  0  0  0  0  0  0
   55.5309   30.4489   42.4997 H   0  0  0  0  0  0  0  0  0  0  0  0
   57.0859   29.5496   42.4997 H   0  0  0  0  0  0  0  0  0  0  0  0
   57.4128   34.3565   46.7715 H   0  0  0  0  0  0  0  0  0  0  0  0
   56.2988   32.9788   47.2201 H   0  0  0  0  0  0  0  0  0  0  0  0
   57.7823   32.4853   48.8131 H   0  0  0  0  0  0  0  0  0  0  0  0
   58.8214   31.8751   47.4477 H   0  0  0  0  0  0  0  0  0  0  0  0
   59.1680   34.0920   49.1860 H   0  0  0  0  0  0  0  0  0  0  0  0
   60.8131   32.2078   48.2390 H   0  0  0  0  0  0  0  0  0  0  0  0
   61.9596   34.7943   49.1876 H   0  0  0  0  0  0  0  0  0  0  0  0
   60.7966   33.7973   50.2349 H   0  0  0  0  0  0  0  0  0  0  0  0
   62.9140   33.2127   50.9785 H   0  0  0  0  0  0  0  0  0  0  0  0
   62.3685   31.8804   49.8574 H   0  0  0  0  0  0  0  0  0  0  0  0
   64.7445   33.5607   49.7314 H   0  0  0  0  0  0  0  0  0  0  0  0
   64.2931   32.0646   48.8024 H   0  0  0  0  0  0  0  0  0  0  0  0
   63.2332   34.8298   48.1177 H   0  0  0  0  0  0  0  0  0  0  0  0
   64.7558   34.1132   47.4157 H   0  0  0  0  0  0  0  0  0  0  0  0
   63.3593   33.4263   45.7867 H   0  0  0  0  0  0  0  0  0  0  0  0
   63.0207   32.0966   46.9899 H   0  0  0  0  0  0  0  0  0  0  0  0
   61.3558   34.6065   46.5329 H   0  0  0  0  0  0  0  0  0  0  0  0
   60.9505   32.8887   46.0649 H   0  0  0  0  0  0  0  0  0  0  0  0
   59.2333   34.7229   45.6251 H   0  0  0  0  0  0  0  0  0  0  0  0
   60.0341   34.3046   44.0725 H   0  0  0  0  0  0  0  0  0  0  0  0
   58.5413   35.3038   44.0725 H   0  0  0  0  0  0  0  0  0  0  0  0
  1  2  1  0
  2  3  2  0
  3  4  1  0
  4  5  1  0
  5  6  1  0
  6  7  1  0
  7  8  1  0
  8  9  1  0
  9 10  1  0
 10 11  1  0
 11 12  1  0
 12 13  1  0
 13 14  1  0
  4 15  2  0
 15 16  1  0
 15 17  1  0
 17  2  1  0
 14  8  1  0
  1 18  1  0
  1 19  1  0
  1 20  1  0
  5 21  1  0
  5 22  1  0
  6 23  1  0
  6 24  1  0
  7 25  1  0
  8 26  1  0
  9 27  1  0
  9 28  1  0
 10 29  1  0
 10 30  1  0
 11 31  1  0
 11 32  1  0
 12 33  1  0
 12 34  1  0
 13 35  1  0
 13 36  1  0
 14 37  1  0
 14 38  1  0
 16 39  1  0
 16 40  1  0
 16 41  1  0
M  END
>  <UniqueID>  (21) 
20

>  <SMILES>  (21) 
Cc1nc(CCNC2CCCCCC2)c(C)s1

>  <Energy>  (21) 
73.37817861154329

>  <Genealogy>  (21) 
Cc1nc(CCNC2CCCCCC2)c(C)s1 (3D coordinates assigned)
Cc1nc(CCNC2CCCCCC2)c(C)s1 (nonaromatic ring conformer: 73.37817861154329 kcal/mol)

>  <smiles>  (21) 
Cc1nc(CCNC2CCCCCC2)c(C)s1

>  <score_type>  (21) 
oracle

>  <origin>  (21) 
adg

>  <m_score__min__energy>  (21) 
-5.0499999999999998

>  <m_primary>  (21) 
energy

$$$$
21:0
     RDKit          3D

 46 45  0  0  0  0  0  0  0  0999 V2000
   57.7940   28.1550   43.9080 C   0  0  0  0  0  0  0  0  0  0  0  0
   57.0650   28.3140   45.2420 C   0  0  0  0  0  0  0  0  0  0  0  0
   56.6700   29.7170   45.4440 N   0  0  0  0  0  0  0  0  0  0  0  0
   56.4470   30.3820   44.1490 C   0  0  0  0  0  0  0  0  0  0  0  0
   57.3800   31.5990   43.9670 C   0  0  0  0  0  0  0  0  0  0  0  0
   58.2180   31.9240   45.2450 C   0  0  0  0  0  0  0  0  0  0  0  0
   58.3630   33.3840   45.5620 N   0  0  0  0  0  0  0  0  0  0  0  0
   59.1950   34.0620   44.5290 C   0  0  0  0  0  0  0  0  0  0  0  0
   57.0330   34.0500   45.6190 C   0  0  0  0  0  0  0  0  0  0  0  0
   59.0750   33.5640   46.8720 C   0  0  0  0  0  0  0  0  0  0  0  0
   60.4920   34.2140   46.7850 C   0  0  0  0  0  0  0  0  0  0  0  0
   61.5900   33.4210   47.4220 N   0  0  0  0  0  0  0  0  0  0  0  0
   61.3350   31.9630   47.3360 C   0  0  0  0  0  0  0  0  0  0  0  0
   61.6610   33.7950   48.8560 C   0  0  0  0  0  0  0  0  0  0  0  0
   62.9010   33.7370   46.7990 C   0  0  0  0  0  0  0  0  0  0  0  0
   58.8532   27.9240   44.0943 H   0  0  0  0  0  0  0  0  0  0  0  0
   57.3353   27.3358   43.3349 H   0  0  0  0  0  0  0  0  0  0  0  0
   57.7181   29.0908   43.3349 H   0  0  0  0  0  0  0  0  0  0  0  0
   56.1659   27.6803   45.2420 H   0  0  0  0  0  0  0  0  0  0  0  0
   57.7394   28.0113   46.0566 H   0  0  0  0  0  0  0  0  0  0  0  0
   55.7700   29.7170   45.9810 H   0  0  0  0  0  0  0  0  0  0  0  0
   56.6381   29.6615   43.3401 H   0  0  0  0  0  0  0  0  0  0  0  0
   55.4068   30.7385   44.1198 H   0  0  0  0  0  0  0  0  0  0  0  0
   58.0722   31.3889   43.1383 H   0  0  0  0  0  0  0  0  0  0  0  0
   56.7441   32.4724   43.7603 H   0  0  0  0  0  0  0  0  0  0  0  0
   57.7323   31.4364   46.1031 H   0  0  0  0  0  0  0  0  0  0  0  0
   59.2342   31.5534   45.0451 H   0  0  0  0  0  0  0  0  0  0  0  0
   59.9573   34.6832   45.0220 H   0  0  0  0  0  0  0  0  0  0  0  0
   59.6884   33.3055   43.9011 H   0  0  0  0  0  0  0  0  0  0  0  0
   58.5537   34.6980   43.9011 H   0  0  0  0  0  0  0  0  0  0  0  0
   56.7409   34.1963   46.6694 H   0  0  0  0  0  0  0  0  0  0  0  0
   57.0898   35.0260   45.1149 H   0  0  0  0  0  0  0  0  0  0  0  0
   56.2855   33.4199   45.1149 H   0  0  0  0  0  0  0  0  0  0  0  0
   58.4487   34.2019   47.5129 H   0  0  0  0  0  0  0  0  0  0  0  0
   59.2322   32.5511   47.2711 H   0  0  0  0  0  0  0  0  0  0  0  0
   60.7409   34.3496   45.7221 H   0  0  0  0  0  0  0  0  0  0  0  0
   60.4318   35.1603   47.3426 H   0  0  0  0  0  0  0  0  0  0  0  0
   61.2616   31.5432   48.3501 H   0  0  0  0  0  0  0  0  0  0  0  0
   60.3924   31.7868   46.7971 H   0  0  0  0  0  0  0  0  0  0  0  0
   62.1618   31.4773   46.7971 H   0  0  0  0  0  0  0  0  0  0  0  0
   61.4916   32.9026   49.4765 H   0  0  0  0  0  0  0  0  0  0  0  0
   62.6544   34.2123   49.0773 H   0  0  0  0  0  0  0  0  0  0  0  0
   60.8896   34.5473   49.0773 H   0  0  0  0  0  0  0  0  0  0  0  0
   63.6474   33.9169   47.5867 H   0  0  0  0  0  0  0  0  0  0  0  0
   63.2236   32.8909   46.1745 H   0  0  0  0  0  0  0  0  0  0  0  0
   62.8027   34.6372   46.1745 H   0  0  0  0  0  0  0  0  0  0  0  0
  1  2  1  0
  2  3  1  0
  3  4  1  0
  4  5  1  0
  5  6  1  0
  6  7  1  0
  7  8  1  0
  7  9  1  0
  7 10  1  0
 10 11  1  0
 11 12  1  0
 12 13  1  0
 12 14  1  0
 12 15  1  0
  1 16  1  0
  1 17  1  0
  1 18  1  0
  2 19  1  0
  2 20  1  0
  3 21  1  0
  4 22  1  0
  4 23  1  0
  5 24  1  0
  5 25  1  0
  6 26  1  0
  6 27  1  0
  8 28  1  0
  8 29  1  0
  8 30  1  0
  9 31  1  0
  9 32  1  0
  9 33  1  0
 10 34  1  0
 10 35  1  0
 11 36  1  0
 11 37  1  0
 13 38  1  0
 13 39  1  0
 13 40  1  0
 14 41  1  0
 14 42  1  0
 14 43  1  0
 15 44  1  0
 15 45  1  0
 15 46  1  0
M  CHG  2   7   1  12   1
M  END
>  <UniqueID>  (22) 
21

>  <SMILES>  (22) 
CCNCCC[N+](C)(C)CC[N+](C)(C)C

>  <Energy>  (22) 
57.382045199760796

>  <Genealogy>  (22) 
CCNCCC[N+](C)(C)CC[N+](C)(C)C (3D coordinates assigned)
CCNCCC[N+](C)(C)CC[N+](C)(C)C (optimized conformer: 57.382045199760796 kcal/mol)

>  <smiles>  (22) 
CCNCCC[N+](C)(C)CC[N+](C)(C)C

>  <score_type>  (22) 
oracle

>  <origin>  (22) 
adg

>  <m_score__min__energy>  (22) 
-2.0899999999999999

>  <m_primary>  (22) 
energy

$$$$
22:0
     RDKit          3D

 59 61  0  0  0  0  0  0  0  0999 V2000
   58.9200   33.5420   51.7380 C   0  0  0  0  0  0  0  0  0  0  0  0
   60.4430   33.5140   51.6310 C   0  0  0  0  0  0  0  0  0  0  0  0
   60.8840   32.4680   50.6940 N   0  0  0  0  0  0  0  0  0  0  0  0
   60.1150   31.2190   50.8530 C   0  0  0  0  0  0  0  0  0  0  0  0
   59.4080   30.7890   49.5550 C   0  0  0  0  0  0  0  0  0  0  0  0
   60.1830   31.1670   48.3690 N   0  0  0  0  0  0  0  0  0  0  0  0
   59.6330   31.0630   47.0430 C   0  0  0  0  0  0  0  0  0  0  0  0
   59.5420   29.7940   46.4420 C   0  0  0  0  0  0  0  0  0  0  0  0
   60.2260   28.6860   46.9890 C   0  0  0  0  0  0  0  0  0  0  0  0
   60.0790   27.4140   46.4420 C   0  0  0  0  0  0  0  0  0  0  0  0
   59.2410   27.2200   45.3520 C   0  0  0  0  0  0  0  0  0  0  0  0
   58.5730   28.3010   44.7800 C   0  0  0  0  0  0  0  0  0  0  0  0
   58.7370   29.6170   45.2860 C   0  0  0  0  0  0  0  0  0  0  0  0
   58.1110   30.7030   44.7040 N   0  0  0  0  0  0  0  0  0  0  0  0
   57.4760   30.5610   43.3730 C   0  0  0  0  0  0  0  0  0  0  0  0
   58.1310   31.9350   45.3310 C   0  0  0  0  0  0  0  0  0  0  0  0
   57.2850   32.9910   44.9070 C   0  0  0  0  0  0  0  0  0  0  0  0
   57.3940   34.2630   45.4580 C   0  0  0  0  0  0  0  0  0  0  0  0
   58.3720   34.5310   46.4020 C   0  0  0  0  0  0  0  0  0  0  0  0
   59.2040   33.5120   46.8720 C   0  0  0  0  0  0  0  0  0  0  0  0
   60.5920   34.0260   47.9080 S   0  0  0  0  0  0  0  0  0  0  0  0
   61.8940   33.4560   46.7530 C   0  0  0  0  0  0  0  0  0  0  0  0
   63.0210   32.6930   47.4640 C   0  0  0  0  0  0  0  0  0  0  0  0
   62.8710   32.7110   48.9360 N   0  0  0  0  0  0  0  0  0  0  0  0
   63.3470   33.9820   49.5080 C   0  0  0  0  0  0  0  0  0  0  0  0
   63.6280   31.5940   49.5270 C   0  0  0  0  0  0  0  0  0  0  0  0
   59.0000   32.1710   46.4330 C   0  0  0  0  0  0  0  0  0  0  0  0
   58.6270   33.5474   52.7982 H   0  0  0  0  0  0  0  0  0  0  0  0
   58.5345   34.4474   51.2464 H   0  0  0  0  0  0  0  0  0  0  0  0
   58.5015   32.6514   51.2464 H   0  0  0  0  0  0  0  0  0  0  0  0
   60.7970   34.4917   51.2721 H   0  0  0  0  0  0  0  0  0  0  0  0
   60.8614   33.2953   52.6245 H   0  0  0  0  0  0  0  0  0  0  0  0
   61.8920   32.2550   50.8860 H   0  0  0  0  0  0  0  0  0  0  0  0
   60.8100   32.8210   49.7130 H   0  0  0  0  0  0  0  0  0  0  0  0
   60.8035   30.4183   51.1609 H   0  0  0  0  0  0  0  0  0  0  0  0
   59.3384   31.4004   51.6106 H   0  0  0  0  0  0  0  0  0  0  0  0
   59.2784   29.6967   49.5638 H   0  0  0  0  0  0  0  0  0  0  0  0
   58.4346   31.2991   49.5075 H   0  0  0  0  0  0  0  0  0  0  0  0
   61.1790   31.4550   48.4900 H   0  0  0  0  0  0  0  0  0  0  0  0
   60.8837   28.8299   47.8589 H   0  0  0  0  0  0  0  0  0  0  0  0
   60.6266   26.5630   46.8733 H   0  0  0  0  0  0  0  0  0  0  0  0
   59.1040   26.2098   44.9387 H   0  0  0  0  0  0  0  0  0  0  0  0
   57.9069   28.1315   43.9212 H   0  0  0  0  0  0  0  0  0  0  0  0
   56.4096   30.3225   43.4991 H   0  0  0  0  0  0  0  0  0  0  0  0
   57.5775   31.5040   42.8158 H   0  0  0  0  0  0  0  0  0  0  0  0
   57.9695   29.7510   42.8158 H   0  0  0  0  0  0  0  0  0  0  0  0
   56.5303   32.8009   44.1296 H   0  0  0  0  0  0  0  0  0  0  0  0
   56.7021   35.0583   45.1437 H   0  0  0  0  0  0  0  0  0  0  0  0
   58.4944   35.5550   46.7847 H   0  0  0  0  0  0  0  0  0  0  0  0
   61.4357   32.7917   46.0056 H   0  0  0  0  0  0  0  0  0  0  0  0
   62.3382   34.3472   46.2855 H   0  0  0  0  0  0  0  0  0  0  0  0
   63.0120   31.6481   47.1205 H   0  0  0  0  0  0  0  0  0  0  0  0
   63.9710   33.1895   47.2169 H   0  0  0  0  0  0  0  0  0  0  0  0
   63.3242   33.9212   50.6061 H   0  0  0  0  0  0  0  0  0  0  0  0
   64.3772   34.1720   49.1726 H   0  0  0  0  0  0  0  0  0  0  0  0
   62.6950   34.8020   49.1726 H   0  0  0  0  0  0  0  0  0  0  0  0
   63.5830   31.6604   50.6241 H   0  0  0  0  0  0  0  0  0  0  0  0
   63.1896   30.6399   49.1991 H   0  0  0  0  0  0  0  0  0  0  0  0
   64.6766   31.6476   49.1991 H   0  0  0  0  0  0  0  0  0  0  0  0
  1  2  1  0
  2  3  1  0
  3  4  1  0
  4  5  1  0
  5  6  1  0
  6  7  1  0
  7  8  2  0
  8  9  1  0
  9 10  2  0
 10 11  1  0
 11 12  2  0
 12 13  1  0
 13 14  2  0
 14 15  1  0
 14 16  1  0
 16 17  2  0
 17 18  1  0
 18 19  2  0
 19 20  1  0
 20 21  1  0
 21 22  1  0
 22 23  1  0
 23 24  1  0
 24 25  1  0
 24 26  1  0
 20 27  2  0
 27  7  1  0
 13  8  1  0
 27 16  1  0
  1 28  1  0
  1 29  1  0
  1 30  1  0
  2 31  1  0
  2 32  1  0
  3 33  1  0
  3 34  1  0
  4 35  1  0
  4 36  1  0
  5 37  1  0
  5 38  1  0
  6 39  1  0
  9 40  1  0
 10 41  1  0
 11 42  1  0
 12 43  1  0
 15 44  1  0
 15 45  1  0
 15 46  1  0
 17 47  1  0
 18 48  1  0
 19 49  1  0
 22 50  1  0
 22 51  1  0
 23 52  1  0
 23 53  1  0
 25 54  1  0
 25 55  1  0
 25 56  1  0
 26 57  1  0
 26 58  1  0
 26 59  1  0
M  CHG  2   3   1  14   1
M  END
>  <UniqueID>  (23) 
22

>  <SMILES>  (23) 
CC[NH2+]CCNc1c2ccccc2[n+](C)c2cccc(SCCN(C)C)c12

>  <Energy>  (23) 
83.56903021682953

>  <Genealogy>  (23) 
CC[NH2+]CCNc1c2ccccc2[n+](C)c2cccc(SCCN(C)C)c12 (protonated)
CC[NH2+]CCNc1c2ccccc2[n+](C)c2cccc(SCCN(C)C)c12 (3D coordinates assigned)
CC[NH2+]CCNc1c2ccccc2[n+](C)c2cccc(SCCN(C)C)c12 (optimized conformer: 83.56903021682953 kcal/mol)

>  <smiles>  (23) 
CCNCCNc1c2ccccc2[n+](C)c2cccc(SCCN(C)C)c12

>  <score_type>  (23) 
oracle

>  <origin>  (23) 
adg

>  <m_score__min__energy>  (23) 
-3.3900000000000001

>  <m_primary>  (23) 
energy

$$$$
