0:0
     RDKit          3D

 42 44  0  0  0  0  0  0  0  0999 V2000
   55.7950   30.3320   44.5020 O   0  0  0  0  0  0  0  0  0  0  0  0
   57.0210   30.3500   44.8000 C   0  0  0  0  0  0  0  0  0  0  0  0
   57.7570   29.0560   44.9630 C   0  0  0  0  0  0  0  0  0  0  0  0
   59.1120   29.3140   45.4300 N   0  0  0  0  0  0  0  0  0  0  0  0
   60.2060   28.8950   44.8200 N   0  0  0  0  0  0  0  0  0  0  0  0
   61.2610   29.3320   45.4910 N   0  0  0  0  0  0  0  0  0  0  0  0
   60.7580   30.0350   46.5300 C   0  0  0  0  0  0  0  0  0  0  0  0
   61.5620   30.7430   47.5620 C   0  0  0  0  0  0  0  0  0  0  0  0
   62.5720   31.6280   47.1350 C   0  0  0  0  0  0  0  0  0  0  0  0
   63.3600   32.3160   48.0590 C   0  0  0  0  0  0  0  0  0  0  0  0
   63.1570   32.1340   49.4260 C   0  0  0  0  0  0  0  0  0  0  0  0
   63.9240   32.8040   50.3210 F   0  0  0  0  0  0  0  0  0  0  0  0
   62.1610   31.2650   49.8720 C   0  0  0  0  0  0  0  0  0  0  0  0
   61.3600   30.5670   48.9570 C   0  0  0  0  0  0  0  0  0  0  0  0
   60.1230   29.5060   49.6290 Cl  0  0  0  0  0  0  0  0  0  0  0  0
   59.4080   30.0350   46.4980 N   0  0  0  0  0  0  0  0  0  0  0  0
   57.6950   31.5980   45.0110 N   0  0  0  0  0  0  0  0  0  0  0  0
   57.0150   32.8850   44.8890 C   0  0  0  0  0  0  0  0  0  0  0  0
   57.8440   33.9890   45.5800 C   0  0  0  0  0  0  0  0  0  0  0  0
   59.1050   33.5160   46.1990 N   0  0  0  0  0  0  0  0  0  0  0  0
   58.9180   32.8520   47.4950 C   0  0  0  0  0  0  0  0  0  0  0  0
   59.3530   33.8210   48.5830 C   0  0  0  0  0  0  0  0  0  0  0  0
   60.2120   34.8640   47.8890 C   0  0  0  0  0  0  0  0  0  0  0  0
   60.1040   34.5770   46.3960 C   0  0  0  0  0  0  0  0  0  0  0  0
   57.2315   28.4270   45.6967 H   0  0  0  0  0  0  0  0  0  0  0  0
   57.7997   28.5381   43.9935 H   0  0  0  0  0  0  0  0  0  0  0  0
   62.7417   31.7787   46.0587 H   0  0  0  0  0  0  0  0  0  0  0  0
   64.1433   33.0037   47.7075 H   0  0  0  0  0  0  0  0  0  0  0  0
   62.0025   31.1261   50.9516 H   0  0  0  0  0  0  0  0  0  0  0  0
   58.7240   31.5950   45.1930 H   0  0  0  0  0  0  0  0  0  0  0  0
   56.8938   33.1333   43.8243 H   0  0  0  0  0  0  0  0  0  0  0  0
   56.0288   32.8190   45.3718 H   0  0  0  0  0  0  0  0  0  0  0  0
   58.0956   34.7511   44.8277 H   0  0  0  0  0  0  0  0  0  0  0  0
   57.2220   34.3804   46.3985 H   0  0  0  0  0  0  0  0  0  0  0  0
   57.8587   32.5886   47.6307 H   0  0  0  0  0  0  0  0  0  0  0  0
   59.5146   31.9291   47.5426 H   0  0  0  0  0  0  0  0  0  0  0  0
   58.4755   34.2948   49.0472 H   0  0  0  0  0  0  0  0  0  0  0  0
   59.9062   33.3087   49.3839 H   0  0  0  0  0  0  0  0  0  0  0  0
   59.8390   35.8747   48.1112 H   0  0  0  0  0  0  0  0  0  0  0  0
   61.2560   34.8170   48.2322 H   0  0  0  0  0  0  0  0  0  0  0  0
   59.7892   35.4871   45.8644 H   0  0  0  0  0  0  0  0  0  0  0  0
   61.0793   34.2563   46.0010 H   0  0  0  0  0  0  0  0  0  0  0  0
  1  2  2  0
  2  3  1  0
  3  4  1  0
  4  5  1  0
  5  6  2  0
  6  7  1  0
  7  8  1  0
  8  9  2  0
  9 10  1  0
 10 11  2  0
 11 12  1  0
 11 13  1  0
 13 14  2  0
 14 15  1  0
  7 16  2  0
  2 17  1  0
 17 18  1  0
 18 19  1  0
 19 20  1  0
 20 21  1  0
 21 22  1  0
 22 23  1  0
 23 24  1  0
 16  4  1  0
 24 20  1  0
 14  8  1  0
  3 25  1  0
  3 26  1  0
  9 27  1  0
 10 28  1  0
 13 29  1  0
 17 30  1  0
 18 31  1  0
 18 32  1  0
 19 33  1  0
 19 34  1  0
 21 35  1  0
 21 36  1  0
 22 37  1  0
 22 38  1  0
 23 39  1  0
 23 40  1  0
 24 41  1  0
 24 42  1  0
M  END
>  <UniqueID>  (1) 
1

>  <SMILES>  (1) 
O=C(Cn1nnc(-c2ccc(F)cc2Cl)n1)NCCN1CCCC1

>  <Energy>  (1) 
85.35652596162512

>  <Genealogy>  (1) 
O=C(Cn1nnc(-c2ccc(F)cc2Cl)n1)NCCN1CCCC1 (3D coordinates assigned)
O=C(Cn1nnc(-c2ccc(F)cc2Cl)n1)NCCN1CCCC1 (nonaromatic ring conformer: 85.35652596162512 kcal/mol)

>  <smiles>  (1) 
O=C(Cn1nnc(-c2ccc(F)cc2Cl)n1)NCCN1CCCC1

>  <score_type>  (1) 
oracle

>  <origin>  (1) 
adg

>  <m_score__min__energy>  (1) 
-7.8600000000000003

>  <m_primary>  (1) 
energy

$$$$
1:0
     RDKit          3D

 22 23  0  0  0  0  0  0  0  0999 V2000
   54.7660   29.6430   43.4040 O   0  0  0  0  0  0  0  0  0  0  0  0
   55.7240   29.7200   44.2180 C   0  0  0  0  0  0  0  0  0  0  0  0
   55.8450   28.7230   45.2410 N   0  0  0  0  0  0  0  0  0  0  0  0
   57.0250   27.9670   45.5460 C   0  0  0  0  0  0  0  0  0  0  0  0
   56.8890   26.7220   46.1720 C   0  0  0  0  0  0  0  0  0  0  0  0
   58.0190   25.9510   46.4650 C   0  0  0  0  0  0  0  0  0  0  0  0
   59.2930   26.4160   46.1190 C   0  0  0  0  0  0  0  0  0  0  0  0
   60.3870   25.6670   46.4020 F   0  0  0  0  0  0  0  0  0  0  0  0
   59.4340   27.6470   45.4730 C   0  0  0  0  0  0  0  0  0  0  0  0
   58.3070   28.4190   45.1790 C   0  0  0  0  0  0  0  0  0  0  0  0
   56.6460   30.8660   44.1270 C   0  0  0  0  0  0  0  0  0  0  0  0
   57.3930   31.2410   43.0230 C   0  0  0  0  0  0  0  0  0  0  0  0
   58.1120   32.3500   43.4160 C   0  0  0  0  0  0  0  0  0  0  0  0
   57.7630   32.5760   44.7310 C   0  0  0  0  0  0  0  0  0  0  0  0
   58.4380   33.9780   45.8310 Br  0  0  0  0  0  0  0  0  0  0  0  0
   56.8940   31.6780   45.1300 O   0  0  0  0  0  0  0  0  0  0  0  0
   55.8884   26.3481   46.4348 H   0  0  0  0  0  0  0  0  0  0  0  0
   57.9062   24.9790   46.9675 H   0  0  0  0  0  0  0  0  0  0  0  0
   60.4348   28.0093   45.1952 H   0  0  0  0  0  0  0  0  0  0  0  0
   58.4216   29.3819   44.6597 H   0  0  0  0  0  0  0  0  0  0  0  0
   57.4094   30.7547   42.0365 H   0  0  0  0  0  0  0  0  0  0  0  0
   58.8178   32.9336   42.8068 H   0  0  0  0  0  0  0  0  0  0  0  0
  1  2  2  0
  2  3  1  0
  3  4  1  0
  4  5  2  0
  5  6  1  0
  6  7  2  0
  7  8  1  0
  7  9  1  0
  9 10  2  0
  2 11  1  0
 11 12  2  0
 12 13  1  0
 13 14  2  0
 14 15  1  0
 14 16  1  0
 10  4  1  0
 16 11  1  0
  5 17  1  0
  6 18  1  0
  9 19  1  0
 10 20  1  0
 12 21  1  0
 13 22  1  0
M  CHG  1   3  -1
M  END
>  <UniqueID>  (2) 
2

>  <SMILES>  (2) 
O=C([N-]c1ccc(F)cc1)c1ccc(Br)o1

>  <Energy>  (2) 
53.66875179612725

>  <Genealogy>  (2) 
O=C([N-]c1ccc(F)cc1)c1ccc(Br)o1 (protonated)
O=C([N-]c1ccc(F)cc1)c1ccc(Br)o1 (3D coordinates assigned)
O=C([N-]c1ccc(F)cc1)c1ccc(Br)o1 (optimized conformer: 53.66875179612725 kcal/mol)

>  <smiles>  (2) 
O=C(Nc1ccc(F)cc1)c1ccc(Br)o1

>  <score_type>  (2) 
oracle

>  <origin>  (2) 
adg

>  <m_score__min__energy>  (2) 
-8.5399999999999991

>  <m_primary>  (2) 
energy

$$$$
2:0
     RDKit          3D

 33 35  0  0  0  0  0  0  0  0999 V2000
   59.7220   35.6920   46.2860 C   0  0  0  0  0  0  0  0  0  0  0  0
   59.1500   35.2150   45.0910 O   0  0  0  0  0  0  0  0  0  0  0  0
   58.6960   33.9120   45.0300 C   0  0  0  0  0  0  0  0  0  0  0  0
   58.3250   33.2740   43.8700 C   0  0  0  0  0  0  0  0  0  0  0  0
   57.8850   31.9610   43.9480 C   0  0  0  0  0  0  0  0  0  0  0  0
   57.8100   31.2850   45.1410 C   0  0  0  0  0  0  0  0  0  0  0  0
   57.3410   29.9060   45.1730 C   0  0  0  0  0  0  0  0  0  0  0  0
   58.1310   28.7770   45.1320 C   0  0  0  0  0  0  0  0  0  0  0  0
   57.3080   27.6720   45.1840 C   0  0  0  0  0  0  0  0  0  0  0  0
   57.7310   26.2740   45.1650 C   0  0  0  0  0  0  0  0  0  0  0  0
   57.0310   25.3640   44.4000 C   0  0  0  0  0  0  0  0  0  0  0  0
   57.4700   24.0450   44.4140 C   0  0  0  0  0  0  0  0  0  0  0  0
   58.5720   23.6500   45.1670 C   0  0  0  0  0  0  0  0  0  0  0  0
   59.1260   21.9800   45.1830 Cl  0  0  0  0  0  0  0  0  0  0  0  0
   59.2710   24.5800   45.9360 C   0  0  0  0  0  0  0  0  0  0  0  0
   58.8230   25.8850   45.9130 C   0  0  0  0  0  0  0  0  0  0  0  0
   56.0440   28.1240   45.2520 N   0  0  0  0  0  0  0  0  0  0  0  0
   56.0760   29.4670   45.2450 N   0  0  0  0  0  0  0  0  0  0  0  0
   58.1780   31.9140   46.2990 C   0  0  0  0  0  0  0  0  0  0  0  0
   58.6150   33.2180   46.2330 C   0  0  0  0  0  0  0  0  0  0  0  0
   59.1950   35.2525   47.1457 H   0  0  0  0  0  0  0  0  0  0  0  0
   60.7841   35.4083   46.3229 H   0  0  0  0  0  0  0  0  0  0  0  0
   59.6337   36.7878   46.3229 H   0  0  0  0  0  0  0  0  0  0  0  0
   58.3760   33.7933   42.9016 H   0  0  0  0  0  0  0  0  0  0  0  0
   57.5863   31.4442   43.0240 H   0  0  0  0  0  0  0  0  0  0  0  0
   59.2291   28.7605   45.0687 H   0  0  0  0  0  0  0  0  0  0  0  0
   56.1597   25.6701   43.8024 H   0  0  0  0  0  0  0  0  0  0  0  0
   56.9330   23.2947   43.8150 H   0  0  0  0  0  0  0  0  0  0  0  0
   60.1441   24.2852   46.5366 H   0  0  0  0  0  0  0  0  0  0  0  0
   59.3542   26.6402   46.5109 H   0  0  0  0  0  0  0  0  0  0  0  0
   55.1590   27.5440   45.3040 H   0  0  0  0  0  0  0  0  0  0  0  0
   58.1258   31.3882   47.2638 H   0  0  0  0  0  0  0  0  0  0  0  0
   58.9098   33.7278   47.1621 H   0  0  0  0  0  0  0  0  0  0  0  0
  1  2  1  0
  2  3  1  0
  3  4  2  0
  4  5  1  0
  5  6  2  0
  6  7  1  0
  7  8  1  0
  8  9  2  0
  9 10  1  0
 10 11  2  0
 11 12  1  0
 12 13  2  0
 13 14  1  0
 13 15  1  0
 15 16  2  0
  9 17  1  0
 17 18  1  0
  6 19  1  0
 19 20  2  0
 20  3  1  0
 18  7  2  0
 16 10  1  0
  1 21  1  0
  1 22  1  0
  1 23  1  0
  4 24  1  0
  5 25  1  0
  8 26  1  0
 11 27  1  0
 12 28  1  0
 15 29  1  0
 16 30  1  0
 17 31  1  0
 19 32  1  0
 20 33  1  0
M  END
>  <smiles>  (3) 
COc1ccc(-c2cc(-c3ccc(Cl)cc3)[nH]n2)cc1

>  <score_type>  (3) 
oracle

>  <origin>  (3) 
adg

>  <m_score__min__energy>  (3) 
-7.25

>  <m_primary>  (3) 
energy

$$$$
3:0
     RDKit          3D

 49 52  0  0  0  0  0  0  0  0999 V2000
   58.1460   26.9020   42.6440 C   0  0  0  0  0  0  0  0  0  0  0  0
   57.4230   28.1240   42.7530 O   0  0  0  0  0  0  0  0  0  0  0  0
   57.6520   29.0950   43.7390 C   0  0  0  0  0  0  0  0  0  0  0  0
   58.4870   28.8630   44.8480 C   0  0  0  0  0  0  0  0  0  0  0  0
   58.6840   29.8640   45.8040 C   0  0  0  0  0  0  0  0  0  0  0  0
   58.0590   31.1130   45.6670 C   0  0  0  0  0  0  0  0  0  0  0  0
   58.2490   32.1390   46.6620 N   0  0  0  0  0  0  0  0  0  0  0  0
   59.2030   31.9380   47.7570 C   0  0  0  0  0  0  0  0  0  0  0  0
   59.6490   33.2890   48.3400 C   0  0  0  0  0  0  0  0  0  0  0  0
   59.7600   34.3330   47.2920 N   0  0  0  0  0  0  0  0  0  0  0  0
   60.8360   34.0650   46.3100 C   0  0  0  0  0  0  0  0  0  0  0  0
   62.1050   33.6630   46.9910 C   0  0  0  0  0  0  0  0  0  0  0  0
   62.3960   33.9540   48.2770 N   0  0  0  0  0  0  0  0  0  0  0  0
   63.6090   33.3750   48.4250 C   0  0  0  0  0  0  0  0  0  0  0  0
   64.3820   33.4060   49.6900 C   0  0  0  0  0  0  0  0  0  0  0  0
   65.6450   32.7870   49.7540 C   0  0  0  0  0  0  0  0  0  0  0  0
   66.3880   32.8080   50.9380 C   0  0  0  0  0  0  0  0  0  0  0  0
   65.8810   33.4450   52.0710 C   0  0  0  0  0  0  0  0  0  0  0  0
   64.6300   34.0630   52.0240 C   0  0  0  0  0  0  0  0  0  0  0  0
   63.8820   34.0450   50.8420 C   0  0  0  0  0  0  0  0  0  0  0  0
   64.0060   32.7730   47.2840 N   0  0  0  0  0  0  0  0  0  0  0  0
   63.0580   32.9670   46.4220 O   0  0  0  0  0  0  0  0  0  0  0  0
   58.4580   34.6030   46.6260 C   0  0  0  0  0  0  0  0  0  0  0  0
   57.4970   33.3950   46.6140 C   0  0  0  0  0  0  0  0  0  0  0  0
   57.2180   31.3380   44.5650 C   0  0  0  0  0  0  0  0  0  0  0  0
   57.0220   30.3370   43.6090 C   0  0  0  0  0  0  0  0  0  0  0  0
   58.3726   26.5190   43.6500 H   0  0  0  0  0  0  0  0  0  0  0  0
   57.5390   26.1642   42.0989 H   0  0  0  0  0  0  0  0  0  0  0  0
   59.0849   27.0789   42.0989 H   0  0  0  0  0  0  0  0  0  0  0  0
   58.9868   27.8899   44.9631 H   0  0  0  0  0  0  0  0  0  0  0  0
   59.3339   29.6710   46.6702 H   0  0  0  0  0  0  0  0  0  0  0  0
   58.7246   31.3427   48.5487 H   0  0  0  0  0  0  0  0  0  0  0  0
   60.0860   31.4112   47.3662 H   0  0  0  0  0  0  0  0  0  0  0  0
   58.9121   33.6139   49.0892 H   0  0  0  0  0  0  0  0  0  0  0  0
   60.6419   33.1539   48.7937 H   0  0  0  0  0  0  0  0  0  0  0  0
   60.5159   33.2531   45.6404 H   0  0  0  0  0  0  0  0  0  0  0  0
   61.0244   34.9873   45.7409 H   0  0  0  0  0  0  0  0  0  0  0  0
   66.0506   32.2825   48.8646 H   0  0  0  0  0  0  0  0  0  0  0  0
   67.3739   32.3216   50.9764 H   0  0  0  0  0  0  0  0  0  0  0  0
   66.4672   33.4603   53.0017 H   0  0  0  0  0  0  0  0  0  0  0  0
   64.2318   34.5650   52.9181 H   0  0  0  0  0  0  0  0  0  0  0  0
   62.8967   34.5331   50.8117 H   0  0  0  0  0  0  0  0  0  0  0  0
   64.8850   32.2460   47.0920 H   0  0  0  0  0  0  0  0  0  0  0  0
   57.9647   35.4323   47.1541 H   0  0  0  0  0  0  0  0  0  0  0  0
   58.6811   34.8429   45.5759 H   0  0  0  0  0  0  0  0  0  0  0  0
   56.8327   33.4525   47.4889 H   0  0  0  0  0  0  0  0  0  0  0  0
   56.9065   33.4202   45.6863 H   0  0  0  0  0  0  0  0  0  0  0  0
   56.7105   32.3075   44.4534 H   0  0  0  0  0  0  0  0  0  0  0  0
   56.3663   30.5279   42.7466 H   0  0  0  0  0  0  0  0  0  0  0  0
  1  2  1  0
  2  3  1  0
  3  4  2  0
  4  5  1  0
  5  6  2  0
  6  7  1  0
  7  8  1  0
  8  9  1  0
  9 10  1  0
 10 11  1  0
 11 12  1  0
 12 13  2  0
 13 14  1  0
 14 15  1  0
 15 16  2  0
 16 17  1  0
 17 18  2  0
 18 19  1  0
 19 20  2  0
 14 21  2  0
 21 22  1  0
 10 23  1  0
 23 24  1  0
  6 25  1  0
 25 26  2  0
 26  3  1  0
 24  7  1  0
 22 12  1  0
 20 15  1  0
  1 27  1  0
  1 28  1  0
  1 29  1  0
  4 30  1  0
  5 31  1  0
  8 32  1  0
  8 33  1  0
  9 34  1  0
  9 35  1  0
 11 36  1  0
 11 37  1  0
 16 38  1  0
 17 39  1  0
 18 40  1  0
 19 41  1  0
 20 42  1  0
 21 43  1  0
 23 44  1  0
 23 45  1  0
 24 46  1  0
 24 47  1  0
 25 48  1  0
 26 49  1  0
M  CHG  1  21   1
M  END
>  <UniqueID>  (4) 
3

>  <SMILES>  (4) 
COc1ccc(N2CCN(Cc3nc(-c4ccccc4)[nH+]o3)CC2)cc1

>  <Energy>  (4) 
99.23241986725495

>  <Genealogy>  (4) 
COc1ccc(N2CCN(Cc3nc(-c4ccccc4)[nH+]o3)CC2)cc1 (protonated)
COc1ccc(N2CCN(Cc3nc(-c4ccccc4)[nH+]o3)CC2)cc1 (3D coordinates assigned)
COc1ccc(N2CCN(Cc3nc(-c4ccccc4)[nH+]o3)CC2)cc1 (nonaromatic ring conformer: 99.23241986725495 kcal/mol)

>  <smiles>  (4) 
COc1ccc(N2CCN(Cc3nc(-c4ccccc4)no3)CC2)cc1

>  <score_type>  (4) 
oracle

>  <origin>  (4) 
adg

>  <m_score__min__energy>  (4) 
-6.6100000000000003

>  <m_primary>  (4) 
energy

$$$$
4:0
     RDKit          3D

 55 57  0  0  0  0  0  0  0  0999 V2000
   55.3000   30.8160   45.2440 H   0  0  0  0  0  0  0  0  0  0  0  0
   55.4870   29.9080   44.8800 O   0  0  0  0  0  0  0  0  0  0  0  0
   56.8420   29.8840   44.4960 C   0  0  1  0  0  0  0  0  0  0  0  0
   57.4782   29.4924   45.3034 H   0  0  0  0  0  0  0  0  0  0  0  0
   56.9720   28.9640   43.2660 C   0  0  0  0  0  0  0  0  0  0  0  0
   55.9641   28.6383   42.9694 H   0  0  0  0  0  0  0  0  0  0  0  0
   57.4753   29.5491   42.4822 H   0  0  0  0  0  0  0  0  0  0  0  0
   57.9990   27.4710   43.5570 S   0  0  0  0  0  0  0  0  0  0  0  0
   58.9560   28.1590   44.9120 C   0  0  0  0  0  0  0  0  0  0  0  0
   58.5060   28.0080   46.2290 C   0  0  0  0  0  0  0  0  0  0  0  0
   57.5789   27.4516   46.4314 H   0  0  0  0  0  0  0  0  0  0  0  0
   59.2310   28.5620   47.2870 C   0  0  0  0  0  0  0  0  0  0  0  0
   58.8764   28.4320   48.3201 H   0  0  0  0  0  0  0  0  0  0  0  0
   60.4100   29.2840   47.0390 C   0  0  0  0  0  0  0  0  0  0  0  0
   61.1520   29.8240   48.1480 N   0  0  0  0  0  0  0  0  0  0  0  0
   61.9340   30.4880   47.9430 H   0  0  0  0  0  0  0  0  0  0  0  0
   60.9190   29.4770   49.5230 C   0  0  0  0  0  0  0  0  0  0  0  0
   60.7350   27.9060   49.9540 S   0  0  0  0  0  0  0  0  0  0  0  0
   61.0760   30.4490   50.5640 N   0  0  0  0  0  0  0  0  0  0  0  0
   61.1160   31.7310   50.3680 C   0  0  0  0  0  0  0  0  0  0  0  0
   60.5213   32.3977   51.0097 H   0  0  0  0  0  0  0  0  0  0  0  0
   61.9510   32.3060   49.2930 C   0  0  0  0  0  0  0  0  0  0  0  0
   61.3650   32.8610   48.1420 C   0  0  0  0  0  0  0  0  0  0  0  0
   60.2698   32.8785   48.0414 H   0  0  0  0  0  0  0  0  0  0  0  0
   62.1640   33.3910   47.1240 C   0  0  0  0  0  0  0  0  0  0  0  0
   61.6969   33.8190   46.2248 H   0  0  0  0  0  0  0  0  0  0  0  0
   63.5560   33.3770   47.2490 C   0  0  0  0  0  0  0  0  0  0  0  0
   64.1839   33.8003   46.4512 H   0  0  0  0  0  0  0  0  0  0  0  0
   64.1510   32.8250   48.3880 C   0  0  0  0  0  0  0  0  0  0  0  0
   65.2468   32.8116   48.4833 H   0  0  0  0  0  0  0  0  0  0  0  0
   63.3550   32.2900   49.4060 C   0  0  0  0  0  0  0  0  0  0  0  0
   63.9570   31.7690   50.5070 F   0  0  0  0  0  0  0  0  0  0  0  0
   60.8650   29.4160   45.7130 C   0  0  0  0  0  0  0  0  0  0  0  0
   61.8027   29.9532   45.5080 H   0  0  0  0  0  0  0  0  0  0  0  0
   60.1330   28.8690   44.6560 C   0  0  0  0  0  0  0  0  0  0  0  0
   60.4831   28.9971   43.6211 H   0  0  0  0  0  0  0  0  0  0  0  0
   57.3170   31.3210   44.1900 C   0  0  0  0  0  0  0  0  0  0  0  0
   58.3977   31.3034   43.9854 H   0  0  0  0  0  0  0  0  0  0  0  0
   56.7569   31.6891   43.3178 H   0  0  0  0  0  0  0  0  0  0  0  0
   57.0580   32.2370   45.3260 N   0  0  0  0  0  0  0  0  0  0  0  0
   57.9620   31.9510   46.4770 C   0  0  0  0  0  0  0  0  0  0  0  0
   57.5104   31.1568   47.0897 H   0  0  0  0  0  0  0  0  0  0  0  0
   58.9353   31.6455   46.0656 H   0  0  0  0  0  0  0  0  0  0  0  0
   58.2010   33.1790   47.3650 C   0  0  0  0  0  0  0  0  0  0  0  0
   57.2360   33.5378   47.7523 H   0  0  0  0  0  0  0  0  0  0  0  0
   58.8626   32.8913   48.1954 H   0  0  0  0  0  0  0  0  0  0  0  0
   58.8740   34.3060   46.5650 C   0  0  0  0  0  0  0  0  0  0  0  0
   58.6018   35.2707   47.0180 H   0  0  0  0  0  0  0  0  0  0  0  0
   59.9601   34.1348   46.5973 H   0  0  0  0  0  0  0  0  0  0  0  0
   58.4470   34.3180   45.0840 C   0  0  0  0  0  0  0  0  0  0  0  0
   58.3964   35.3598   44.7346 H   0  0  0  0  0  0  0  0  0  0  0  0
   59.1886   33.7476   44.5055 H   0  0  0  0  0  0  0  0  0  0  0  0
   57.0730   33.6590   44.8910 C   0  0  0  0  0  0  0  0  0  0  0  0
   56.3288   34.2159   45.4793 H   0  0  0  0  0  0  0  0  0  0  0  0
   56.8386   33.6826   43.8165 H   0  0  0  0  0  0  0  0  0  0  0  0
  1  2  1  0
  2  3  1  0
  3  4  1  1
  3  5  1  0
  5  6  1  0
  5  7  1  0
  5  8  1  0
  8  9  1  0
  9 10  2  0
 10 11  1  0
 10 12  1  0
 12 13  1  0
 12 14  2  0
 14 15  1  0
 15 16  1  0
 15 17  1  0
 17 18  2  0
 17 19  1  0
 19 20  2  0
 20 21  1  0
 20 22  1  0
 22 23  2  0
 23 24  1  0
 23 25  1  0
 25 26  1  0
 25 27  2  0
 27 28  1  0
 27 29  1  0
 29 30  1  0
 29 31  2  0
 31 32  1  0
 14 33  1  0
 33 34  1  0
 33 35  2  0
 35 36  1  0
  3 37  1  0
 37 38  1  0
 37 39  1  0
 37 40  1  0
 40 41  1  0
 41 42  1  0
 41 43  1  0
 41 44  1  0
 44 45  1  0
 44 46  1  0
 44 47  1  0
 47 48  1  0
 47 49  1  0
 47 50  1  0
 50 51  1  0
 50 52  1  0
 50 53  1  0
 53 54  1  0
 53 55  1  0
 35  9  1  0
 53 40  1  0
 31 22  1  0
M  END
>  <UniqueID>  (5) 
4

>  <SMILES>  (5) 
O[C@@H](CSc1ccc(NC(=S)/N=C/c2ccccc2F)cc1)CN1CCCCC1

>  <Energy>  (5) 
64.16616200623747

>  <Genealogy>  (5) 
O[C@@H](CSc1ccc(NC(=S)N=Cc2ccccc2F)cc1)CN1CCCCC1 (chirality)
O[C@@H](CSc1ccc(NC(=S)/N=C/c2ccccc2F)cc1)CN1CCCCC1 (cis-trans isomerization)
O[C@@H](CSc1ccc(NC(=S)/N=C/c2ccccc2F)cc1)CN1CCCCC1 (3D coordinates assigned)
O[C@@H](CSc1ccc(NC(=S)/N=C/c2ccccc2F)cc1)CN1CCCCC1 (nonaromatic ring conformer: 64.16616200623747 kcal/mol)

>  <smiles>  (5) 
OC(CSc1ccc(NC(=S)N=Cc2ccccc2F)cc1)CN1CCCCC1

>  <score_type>  (5) 
oracle

>  <origin>  (5) 
adg

>  <m_score__min__energy>  (5) 
-8.9299999999999997

>  <m_primary>  (5) 
energy

$$$$
5:0
     RDKit          3D

 38 39  0  0  0  0  0  0  0  0999 V2000
   62.0330   30.3350   50.4950 C   0  0  0  0  0  0  0  0  0  0  0  0
   62.9910   31.0860   49.7570 O   0  0  0  0  0  0  0  0  0  0  0  0
   62.6780   31.9840   48.7230 C   0  0  0  0  0  0  0  0  0  0  0  0
   61.4330   31.9540   48.0640 C   0  0  0  0  0  0  0  0  0  0  0  0
   61.1410   32.8620   47.0310 C   0  0  0  0  0  0  0  0  0  0  0  0
   59.8260   32.8260   46.3420 C   0  0  0  0  0  0  0  0  0  0  0  0
   59.3010   33.9850   45.7440 C   0  0  0  0  0  0  0  0  0  0  0  0
   58.0560   33.9520   45.1120 C   0  0  0  0  0  0  0  0  0  0  0  0
   57.3260   32.7630   45.0600 C   0  0  0  0  0  0  0  0  0  0  0  0
   57.8390   31.5920   45.6260 C   0  0  0  0  0  0  0  0  0  0  0  0
   57.0470   30.3960   45.5670 N   0  0  0  0  0  0  0  0  0  0  0  0
   56.1920   29.9940   44.4890 C   0  0  0  0  0  0  0  0  0  0  0  0
   56.6160   30.2530   43.0830 C   0  0  0  0  0  0  0  0  0  0  0  0
   55.1380   29.3400   44.7110 O   0  0  0  0  0  0  0  0  0  0  0  0
   59.0820   31.6310   46.2850 C   0  0  0  0  0  0  0  0  0  0  0  0
   62.1160   33.7990   46.6550 C   0  0  0  0  0  0  0  0  0  0  0  0
   63.3520   33.8350   47.3020 C   0  0  0  0  0  0  0  0  0  0  0  0
   63.6360   32.9420   48.3480 C   0  0  0  0  0  0  0  0  0  0  0  0
   64.9210   32.9590   48.9940 N   0  0  0  0  0  0  0  0  0  0  0  0
   65.1140   33.2850   50.3790 C   0  0  0  0  0  0  0  0  0  0  0  0
   64.0800   33.0540   51.3410 N   0  0  0  0  0  0  0  0  0  0  0  0
   66.5910   33.7740   50.8910 S   0  0  0  0  0  0  0  0  0  0  0  0
   62.2094   30.4733   51.5719 H   0  0  0  0  0  0  0  0  0  0  0  0
   61.0206   30.6825   50.2417 H   0  0  0  0  0  0  0  0  0  0  0  0
   62.1288   29.2689   50.2417 H   0  0  0  0  0  0  0  0  0  0  0  0
   60.6793   31.2102   48.3617 H   0  0  0  0  0  0  0  0  0  0  0  0
   59.8742   34.9234   45.7741 H   0  0  0  0  0  0  0  0  0  0  0  0
   57.6493   34.8656   44.6538 H   0  0  0  0  0  0  0  0  0  0  0  0
   56.3410   32.7474   44.5706 H   0  0  0  0  0  0  0  0  0  0  0  0
   57.5547   30.8264   43.0828 H   0  0  0  0  0  0  0  0  0  0  0  0
   56.7712   29.2954   42.5645 H   0  0  0  0  0  0  0  0  0  0  0  0
   55.8348   30.8283   42.5645 H   0  0  0  0  0  0  0  0  0  0  0  0
   59.4761   30.7203   46.7598 H   0  0  0  0  0  0  0  0  0  0  0  0
   61.9041   34.5109   45.8436 H   0  0  0  0  0  0  0  0  0  0  0  0
   64.1099   34.5687   46.9902 H   0  0  0  0  0  0  0  0  0  0  0  0
   65.7640   32.7220   48.4250 H   0  0  0  0  0  0  0  0  0  0  0  0
   63.1890   32.5830   51.0720 H   0  0  0  0  0  0  0  0  0  0  0  0
   64.2270   33.2990   52.3460 H   0  0  0  0  0  0  0  0  0  0  0  0
  1  2  1  0
  2  3  1  0
  3  4  2  0
  4  5  1  0
  5  6  1  0
  6  7  2  0
  7  8  1  0
  8  9  2  0
  9 10  1  0
 10 11  1  0
 11 12  1  0
 12 13  1  0
 12 14  2  0
 10 15  2  0
  5 16  2  0
 16 17  1  0
 17 18  2  0
 18 19  1  0
 19 20  1  0
 20 21  1  0
 20 22  2  0
 18  3  1  0
 15  6  1  0
  1 23  1  0
  1 24  1  0
  1 25  1  0
  4 26  1  0
  7 27  1  0
  8 28  1  0
  9 29  1  0
 13 30  1  0
 13 31  1  0
 13 32  1  0
 15 33  1  0
 16 34  1  0
 17 35  1  0
 19 36  1  0
 21 37  1  0
 21 38  1  0
M  CHG  1  11  -1
M  END
>  <UniqueID>  (6) 
5

>  <SMILES>  (6) 
COc1cc(-c2cccc([N-]C(C)=O)c2)ccc1NC(N)=S

>  <Energy>  (6) 
47.45577649491217

>  <Genealogy>  (6) 
COc1cc(-c2cccc([N-]C(C)=O)c2)ccc1NC(N)=S (protonated)
COc1cc(-c2cccc([N-]C(C)=O)c2)ccc1NC(N)=S (3D coordinates assigned)
COc1cc(-c2cccc([N-]C(C)=O)c2)ccc1NC(N)=S (optimized conformer: 47.45577649491217 kcal/mol)

>  <smiles>  (6) 
COc1cc(-c2cccc(NC(C)=O)c2)ccc1NC(N)=S

>  <score_type>  (6) 
oracle

>  <origin>  (6) 
adg

>  <m_score__min__energy>  (6) 
-9.3200000000000003

>  <m_primary>  (6) 
energy

$$$$
6:0
     RDKit          3D

 37 39  0  0  0  0  0  0  0  0999 V2000
   55.8210   28.9760   44.4820 O   0  0  0  0  0  0  0  0  0  0  0  0
   56.5790   28.5570   45.4000 C   0  0  0  0  0  0  0  0  0  0  0  0
   56.3710   27.2550   45.9660 N   0  0  0  0  0  0  0  0  0  0  0  0
   57.0890   26.0560   45.6410 C   0  0  0  0  0  0  0  0  0  0  0  0
   58.4330   25.8660   46.0140 C   0  0  0  0  0  0  0  0  0  0  0  0
   59.1030   24.6920   45.6560 C   0  0  0  0  0  0  0  0  0  0  0  0
   60.3970   24.5120   46.0190 F   0  0  0  0  0  0  0  0  0  0  0  0
   58.4450   23.7080   44.9130 C   0  0  0  0  0  0  0  0  0  0  0  0
   57.1180   23.9010   44.5170 C   0  0  0  0  0  0  0  0  0  0  0  0
   56.2960   22.6730   43.5710 Cl  0  0  0  0  0  0  0  0  0  0  0  0
   56.4460   25.0760   44.8740 C   0  0  0  0  0  0  0  0  0  0  0  0
   57.7140   29.3920   45.8570 C   0  0  0  0  0  0  0  0  0  0  0  0
   58.0530   30.5750   45.1740 C   0  0  0  0  0  0  0  0  0  0  0  0
   59.1230   31.3630   45.6070 C   0  0  0  0  0  0  0  0  0  0  0  0
   59.8640   30.9920   46.7370 C   0  0  0  0  0  0  0  0  0  0  0  0
   61.0070   31.8070   47.1900 C   0  0  0  0  0  0  0  0  0  0  0  0
   62.2470   31.2450   47.1310 N   0  0  0  0  0  0  0  0  0  0  0  0
   63.3680   31.9170   47.4930 C   0  0  0  0  0  0  0  0  0  0  0  0
   63.2790   33.2350   47.9330 C   0  0  0  0  0  0  0  0  0  0  0  0
   62.0270   33.8420   48.0210 C   0  0  0  0  0  0  0  0  0  0  0  0
   60.8610   33.1320   47.6820 C   0  0  0  0  0  0  0  0  0  0  0  0
   59.5090   33.8090   47.8200 C   0  0  0  0  0  0  0  0  0  0  0  0
   59.5990   34.9260   48.6310 F   0  0  0  0  0  0  0  0  0  0  0  0
   59.0340   34.2250   46.5880 F   0  0  0  0  0  0  0  0  0  0  0  0
   58.6010   32.9190   48.3630 F   0  0  0  0  0  0  0  0  0  0  0  0
   59.5460   29.8040   47.4090 C   0  0  0  0  0  0  0  0  0  0  0  0
   58.4760   29.0140   46.9790 C   0  0  0  0  0  0  0  0  0  0  0  0
   58.9577   26.6433   46.5888 H   0  0  0  0  0  0  0  0  0  0  0  0
   58.9712   22.7815   44.6397 H   0  0  0  0  0  0  0  0  0  0  0  0
   55.4062   25.2307   44.5501 H   0  0  0  0  0  0  0  0  0  0  0  0
   57.4712   30.8818   44.2924 H   0  0  0  0  0  0  0  0  0  0  0  0
   59.3849   32.2794   45.0578 H   0  0  0  0  0  0  0  0  0  0  0  0
   64.3481   31.4205   47.4390 H   0  0  0  0  0  0  0  0  0  0  0  0
   64.1870   33.7915   48.2083 H   0  0  0  0  0  0  0  0  0  0  0  0
   61.9503   34.8861   48.3587 H   0  0  0  0  0  0  0  0  0  0  0  0
   60.1416   29.4916   48.2794 H   0  0  0  0  0  0  0  0  0  0  0  0
   58.2274   28.0899   47.5214 H   0  0  0  0  0  0  0  0  0  0  0  0
  1  2  2  0
  2  3  1  0
  3  4  1  0
  4  5  2  0
  5  6  1  0
  6  7  1  0
  6  8  2  0
  8  9  1  0
  9 10  1  0
  9 11  2  0
  2 12  1  0
 12 13  2  0
 13 14  1  0
 14 15  2  0
 15 16  1  0
 16 17  2  0
 17 18  1  0
 18 19  2  0
 19 20  1  0
 20 21  2  0
 21 22  1  0
 22 23  1  0
 22 24  1  0
 22 25  1  0
 15 26  1  0
 26 27  2  0
 11  4  1  0
 27 12  1  0
 21 16  1  0
  5 28  1  0
  8 29  1  0
 11 30  1  0
 13 31  1  0
 14 32  1  0
 18 33  1  0
 19 34  1  0
 20 35  1  0
 26 36  1  0
 27 37  1  0
M  CHG  1   3  -1
M  END
>  <UniqueID>  (7) 
6

>  <SMILES>  (7) 
O=C([N-]c1cc(F)cc(Cl)c1)c1ccc(-c2ncccc2C(F)(F)F)cc1

>  <Energy>  (7) 
54.54707082244775

>  <Genealogy>  (7) 
O=C([N-]c1cc(F)cc(Cl)c1)c1ccc(-c2ncccc2C(F)(F)F)cc1 (protonated)
O=C([N-]c1cc(F)cc(Cl)c1)c1ccc(-c2ncccc2C(F)(F)F)cc1 (3D coordinates assigned)
O=C([N-]c1cc(F)cc(Cl)c1)c1ccc(-c2ncccc2C(F)(F)F)cc1 (optimized conformer: 54.54707082244775 kcal/mol)

>  <smiles>  (7) 
O=C(Nc1cc(F)cc(Cl)c1)c1ccc(-c2ncccc2C(F)(F)F)cc1

>  <score_type>  (7) 
oracle

>  <origin>  (7) 
adg

>  <m_score__min__energy>  (7) 
-8.6500000000000004

>  <m_primary>  (7) 
energy

$$$$
7:0
     RDKit          3D

 27 28  0  0  0  0  0  0  0  0999 V2000
   62.2150   34.2520   49.8300 C   0  0  0  0  0  0  0  0  0  0  0  0
   61.4330   34.5290   48.6150 N   0  0  0  0  0  0  0  0  0  0  0  0
   61.9740   33.7640   47.4680 C   0  0  0  0  0  0  0  0  0  0  0  0
   60.9440   33.6010   46.3450 C   0  0  0  0  0  0  0  0  0  0  0  0
   59.7520   32.9150   46.8590 N   0  0  0  0  0  0  0  0  0  0  0  0
   58.9160   32.1620   45.9550 C   0  0  0  0  0  0  0  0  0  0  0  0
   58.1620   31.0590   46.3920 C   0  0  0  0  0  0  0  0  0  0  0  0
   57.3940   30.3780   45.5030 N   0  0  0  0  0  0  0  0  0  0  0  0
   57.3350   30.7330   44.1950 C   0  0  0  0  0  0  0  0  0  0  0  0
   56.2270   29.7200   43.0090 Br  0  0  0  0  0  0  0  0  0  0  0  0
   58.0900   31.8270   43.7480 C   0  0  0  0  0  0  0  0  0  0  0  0
   58.0720   32.3410   42.0710 Cl  0  0  0  0  0  0  0  0  0  0  0  0
   58.8590   32.5070   44.6380 N   0  0  0  0  0  0  0  0  0  0  0  0
   59.4230   33.0330   48.2860 C   0  0  0  0  0  0  0  0  0  0  0  0
   59.9790   34.3480   48.8550 C   0  0  0  0  0  0  0  0  0  0  0  0
   61.6026   34.4689   50.7176 H   0  0  0  0  0  0  0  0  0  0  0  0
   62.5137   33.1934   49.8404 H   0  0  0  0  0  0  0  0  0  0  0  0
   63.1134   34.8866   49.8404 H   0  0  0  0  0  0  0  0  0  0  0  0
   62.8513   34.2949   47.0700 H   0  0  0  0  0  0  0  0  0  0  0  0
   62.2436   32.7601   47.8280 H   0  0  0  0  0  0  0  0  0  0  0  0
   60.6588   34.5928   45.9643 H   0  0  0  0  0  0  0  0  0  0  0  0
   61.3841   33.0045   45.5323 H   0  0  0  0  0  0  0  0  0  0  0  0
   58.1939   30.7496   47.4471 H   0  0  0  0  0  0  0  0  0  0  0  0
   58.3300   33.0180   48.4088 H   0  0  0  0  0  0  0  0  0  0  0  0
   59.8749   32.1893   48.8282 H   0  0  0  0  0  0  0  0  0  0  0  0
   59.4417   35.1853   48.3856 H   0  0  0  0  0  0  0  0  0  0  0  0
   59.8323   34.3168   49.9447 H   0  0  0  0  0  0  0  0  0  0  0  0
  1  2  1  0
  2  3  1  0
  3  4  1  0
  4  5  1  0
  5  6  1  0
  6  7  2  0
  7  8  1  0
  8  9  2  0
  9 10  1  0
  9 11  1  0
 11 12  1  0
 11 13  2  0
  5 14  1  0
 14 15  1  0
 15  2  1  0
 13  6  1  0
  1 16  1  0
  1 17  1  0
  1 18  1  0
  3 19  1  0
  3 20  1  0
  4 21  1  0
  4 22  1  0
  7 23  1  0
 14 24  1  0
 14 25  1  0
 15 26  1  0
 15 27  1  0
M  END
>  <UniqueID>  (8) 
7

>  <SMILES>  (8) 
CN1CCN(c2cnc(Br)c(Cl)n2)CC1

>  <Energy>  (8) 
37.11749506891226

>  <Genealogy>  (8) 
CN1CCN(c2cnc(Br)c(Cl)n2)CC1 (3D coordinates assigned)
CN1CCN(c2cnc(Br)c(Cl)n2)CC1 (nonaromatic ring conformer: 37.11749506891226 kcal/mol)

>  <smiles>  (8) 
CN1CCN(c2cnc(Br)c(Cl)n2)CC1

>  <score_type>  (8) 
oracle

>  <origin>  (8) 
adg

>  <m_score__min__energy>  (8) 
-5.7800000000000002

>  <m_primary>  (8) 
energy

$$$$
8:0
     RDKit          3D

 25 26  0  0  0  0  0  0  0  0999 V2000
   59.1754   34.8770   45.5528 H   0  0  0  0  0  0  0  0  0  0  0  0
   58.6880   33.9060   45.3810 C   0  0  0  0  0  0  0  0  0  0  0  0
   58.4100   33.0640   46.4580 C   0  0  0  0  0  0  0  0  0  0  0  0
   58.6809   33.3716   47.4788 H   0  0  0  0  0  0  0  0  0  0  0  0
   57.7890   31.8320   46.2440 C   0  0  0  0  0  0  0  0  0  0  0  0
   57.5739   31.1739   47.0988 H   0  0  0  0  0  0  0  0  0  0  0  0
   57.4360   31.4250   44.9440 C   0  0  0  0  0  0  0  0  0  0  0  0
   56.7670   30.1110   44.7550 C   0  0  0  0  0  0  0  0  0  0  0  0
   55.5100   30.0470   44.7400 O   0  0  0  0  0  0  0  0  0  0  0  0
   57.5160   28.8850   44.7190 N   0  0  0  0  0  0  0  0  0  0  0  0
   57.2480   27.7770   45.3510 C   0  0  0  0  0  0  0  0  0  0  0  0
   58.3160   26.9890   45.8010 C   0  0  0  0  0  0  0  0  0  0  0  0
   59.3528   27.3096   45.6213 H   0  0  0  0  0  0  0  0  0  0  0  0
   58.0590   25.7960   46.4780 C   0  0  0  0  0  0  0  0  0  0  0  0
   58.8929   25.1686   46.8258 H   0  0  0  0  0  0  0  0  0  0  0  0
   56.7440   25.4020   46.7120 C   0  0  0  0  0  0  0  0  0  0  0  0
   56.5312   24.4587   47.2363 H   0  0  0  0  0  0  0  0  0  0  0  0
   55.6990   26.2170   46.2740 C   0  0  0  0  0  0  0  0  0  0  0  0
   54.6570   25.9185   46.4617 H   0  0  0  0  0  0  0  0  0  0  0  0
   55.9620   27.3790   45.6160 N   0  0  0  0  0  0  0  0  0  0  0  0
   55.1440   27.9700   45.3520 H   0  0  0  0  0  0  0  0  0  0  0  0
   57.7240   32.2820   43.8550 C   0  0  0  0  0  0  0  0  0  0  0  0
   57.3850   31.8310   42.1870 Cl  0  0  0  0  0  0  0  0  0  0  0  0
   58.3470   33.5150   44.0850 C   0  0  0  0  0  0  0  0  0  0  0  0
   58.5694   34.1805   43.2379 H   0  0  0  0  0  0  0  0  0  0  0  0
  1  2  1  0
  2  3  2  0
  3  4  1  0
  3  5  1  0
  5  6  1  0
  5  7  2  0
  7  8  1  0
  8  9  2  0
  8 10  1  0
 10 11  2  0
 11 12  1  0
 12 13  1  0
 12 14  2  0
 14 15  1  0
 14 16  1  0
 16 17  1  0
 16 18  2  0
 18 19  1  0
 18 20  1  0
 20 21  1  0
  7 22  1  0
 22 23  1  0
 22 24  2  0
 24 25  1  0
 24  2  1  0
 20 11  1  0
M  END
>  <UniqueID>  (9) 
8

>  <SMILES>  (9) 
O=C(/N=c1/cccc[nH]1)c1ccccc1Cl

>  <Energy>  (9) 
38.63256023146322

>  <Genealogy>  (9) 
O=C(/N=c1/cccc[nH]1)c1ccccc1Cl (cis-trans isomerization)
O=C(/N=c1/cccc[nH]1)c1ccccc1Cl (3D coordinates assigned)
O=C(/N=c1/cccc[nH]1)c1ccccc1Cl (optimized conformer: 38.63256023146322 kcal/mol)

>  <smiles>  (9) 
O=C(N=c1cccc[nH]1)c1ccccc1Cl

>  <score_type>  (9) 
oracle

>  <origin>  (9) 
adg

>  <m_score__min__energy>  (9) 
-6.5899999999999999

>  <m_primary>  (9) 
energy

$$$$
9:0
     RDKit          3D

 47 49  0  0  0  0  0  0  0  0999 V2000
   66.2850   33.0890   51.2110 C   0  0  0  0  0  0  0  0  0  0  0  0
   64.8940   32.8670   50.7860 N   0  0  0  0  0  0  0  0  0  0  0  0
   64.0840   34.0770   51.0390 C   0  0  0  0  0  0  0  0  0  0  0  0
   62.6870   33.9420   50.4280 C   0  0  0  0  0  0  0  0  0  0  0  0
   62.7770   33.6640   48.9890 N   0  0  0  0  0  0  0  0  0  0  0  0
   61.6330   33.8920   48.1360 C   0  0  0  0  0  0  0  0  0  0  0  0
   61.7380   33.7410   46.7420 C   0  0  0  0  0  0  0  0  0  0  0  0
   60.6270   33.9470   45.9200 C   0  0  0  0  0  0  0  0  0  0  0  0
   59.3910   34.3130   46.4760 C   0  0  0  0  0  0  0  0  0  0  0  0
   58.1710   34.4400   45.6000 C   0  0  0  0  0  0  0  0  0  0  0  0
   57.0940   33.4120   45.9760 C   0  0  0  0  0  0  0  0  0  0  0  0
   57.4270   32.0450   45.4440 C   0  0  0  0  0  0  0  0  0  0  0  0
   58.4790   31.3000   45.9810 C   0  0  0  0  0  0  0  0  0  0  0  0
   58.7050   30.0110   45.5080 C   0  0  0  0  0  0  0  0  0  0  0  0
   57.8690   29.4860   44.5220 C   0  0  0  0  0  0  0  0  0  0  0  0
   58.0650   28.3140   44.0980 O   0  0  0  0  0  0  0  0  0  0  0  0
   56.8420   30.2470   44.0300 N   0  0  0  0  0  0  0  0  0  0  0  0
   55.9320   29.7140   43.0190 C   0  0  0  0  0  0  0  0  0  0  0  0
   56.6380   31.4860   44.4870 N   0  0  0  0  0  0  0  0  0  0  0  0
   59.2840   34.4710   47.8650 C   0  0  0  0  0  0  0  0  0  0  0  0
   60.3960   34.2690   48.6870 C   0  0  0  0  0  0  0  0  0  0  0  0
   64.0730   33.2750   48.4190 C   0  0  0  0  0  0  0  0  0  0  0  0
   64.8240   32.3530   49.3910 C   0  0  0  0  0  0  0  0  0  0  0  0
   66.3358   33.0971   52.3098 H   0  0  0  0  0  0  0  0  0  0  0  0
   66.9211   32.2810   50.8205 H   0  0  0  0  0  0  0  0  0  0  0  0
   66.6380   34.0549   50.8205 H   0  0  0  0  0  0  0  0  0  0  0  0
   63.9886   34.2250   52.1248 H   0  0  0  0  0  0  0  0  0  0  0  0
   64.5871   34.9379   50.5745 H   0  0  0  0  0  0  0  0  0  0  0  0
   62.1541   33.1168   50.9230 H   0  0  0  0  0  0  0  0  0  0  0  0
   62.1435   34.8873   50.5733 H   0  0  0  0  0  0  0  0  0  0  0  0
   62.7025   33.4584   46.2950 H   0  0  0  0  0  0  0  0  0  0  0  0
   60.7214   33.8217   44.8312 H   0  0  0  0  0  0  0  0  0  0  0  0
   57.7539   35.4515   45.7137 H   0  0  0  0  0  0  0  0  0  0  0  0
   58.4746   34.2543   44.5592 H   0  0  0  0  0  0  0  0  0  0  0  0
   57.0167   33.3599   47.0720 H   0  0  0  0  0  0  0  0  0  0  0  0
   56.1405   33.7327   45.5310 H   0  0  0  0  0  0  0  0  0  0  0  0
   59.1200   31.7261   46.7668 H   0  0  0  0  0  0  0  0  0  0  0  0
   59.5357   29.4111   45.9080 H   0  0  0  0  0  0  0  0  0  0  0  0
   55.0843   29.2175   43.5139 H   0  0  0  0  0  0  0  0  0  0  0  0
   55.5593   30.5366   42.3909 H   0  0  0  0  0  0  0  0  0  0  0  0
   56.4672   28.9866   42.3909 H   0  0  0  0  0  0  0  0  0  0  0  0
   58.3193   34.7556   48.3103 H   0  0  0  0  0  0  0  0  0  0  0  0
   60.3025   34.4062   49.7744 H   0  0  0  0  0  0  0  0  0  0  0  0
   63.9080   32.7449   47.4694 H   0  0  0  0  0  0  0  0  0  0  0  0
   64.6745   34.1792   48.2444 H   0  0  0  0  0  0  0  0  0  0  0  0
   64.3133   31.3789   49.4072 H   0  0  0  0  0  0  0  0  0  0  0  0
   65.8595   32.2843   49.0263 H   0  0  0  0  0  0  0  0  0  0  0  0
  1  2  1  0
  2  3  1  0
  3  4  1  0
  4  5  1  0
  5  6  1  0
  6  7  2  0
  7  8  1  0
  8  9  2  0
  9 10  1  0
 10 11  1  0
 11 12  1  0
 12 13  1  0
 13 14  2  0
 14 15  1  0
 15 16  2  0
 15 17  1  0
 17 18  1  0
 17 19  1  0
  9 20  1  0
 20 21  2  0
  5 22  1  0
 22 23  1  0
 23  2  1  0
 21  6  1  0
 19 12  2  0
  1 24  1  0
  1 25  1  0
  1 26  1  0
  3 27  1  0
  3 28  1  0
  4 29  1  0
  4 30  1  0
  7 31  1  0
  8 32  1  0
 10 33  1  0
 10 34  1  0
 11 35  1  0
 11 36  1  0
 13 37  1  0
 14 38  1  0
 18 39  1  0
 18 40  1  0
 18 41  1  0
 20 42  1  0
 21 43  1  0
 22 44  1  0
 22 45  1  0
 23 46  1  0
 23 47  1  0
M  END
>  <UniqueID>  (10) 
9

>  <SMILES>  (10) 
CN1CCN(c2ccc(CCc3ccc(=O)n(C)n3)cc2)CC1

>  <Energy>  (10) 
53.67127924059974

>  <Genealogy>  (10) 
CN1CCN(c2ccc(CCc3ccc(=O)n(C)n3)cc2)CC1 (3D coordinates assigned)
CN1CCN(c2ccc(CCc3ccc(=O)n(C)n3)cc2)CC1 (nonaromatic ring conformer: 53.67127924059974 kcal/mol)

>  <smiles>  (10) 
CN1CCN(c2ccc(CCc3ccc(=O)n(C)n3)cc2)CC1

>  <score_type>  (10) 
oracle

>  <origin>  (10) 
adg

>  <m_score__min__energy>  (10) 
-7.6500000000000004

>  <m_primary>  (10) 
energy

$$$$
10:0
     RDKit          3D

 34 37  0  0  0  0  0  0  0  0999 V2000
   58.4900   32.9320   48.1070 C   0  0  0  0  0  0  0  0  0  0  0  0
   58.3910   33.1240   46.6360 C   0  0  0  0  0  0  0  0  0  0  0  0
   58.5620   34.2820   45.9070 C   0  0  0  0  0  0  0  0  0  0  0  0
   58.3830   34.0230   44.5800 N   0  0  0  0  0  0  0  0  0  0  0  0
   58.1010   32.7140   44.4480 C   0  0  0  0  0  0  0  0  0  0  0  0
   57.8250   31.8600   43.4000 C   0  0  0  0  0  0  0  0  0  0  0  0
   57.8010   32.3760   42.0220 C   0  0  0  0  0  0  0  0  0  0  0  0
   57.5680   30.5030   43.6520 C   0  0  0  0  0  0  0  0  0  0  0  0
   57.5740   29.9650   44.8990 C   0  0  0  0  0  0  0  0  0  0  0  0
   57.3300   28.6020   45.2940 C   0  0  0  0  0  0  0  0  0  0  0  0
   56.0570   28.1060   45.4110 N   0  0  0  0  0  0  0  0  0  0  0  0
   56.0960   26.8400   45.7830 N   0  0  0  0  0  0  0  0  0  0  0  0
   57.3470   26.4430   45.9290 C   0  0  0  0  0  0  0  0  0  0  0  0
   57.8840   25.2360   46.2970 C   0  0  0  0  0  0  0  0  0  0  0  0
   59.2590   25.0870   46.3730 C   0  0  0  0  0  0  0  0  0  0  0  0
   60.0150   26.1940   46.0660 C   0  0  0  0  0  0  0  0  0  0  0  0
   59.4680   27.4100   45.6960 C   0  0  0  0  0  0  0  0  0  0  0  0
   58.1290   27.5570   45.6210 C   0  0  0  0  0  0  0  0  0  0  0  0
   57.8530   30.8500   45.9070 N   0  0  0  0  0  0  0  0  0  0  0  0
   58.1020   32.1490   45.7060 C   0  0  0  0  0  0  0  0  0  0  0  0
   58.0442   33.7966   48.6205 H   0  0  0  0  0  0  0  0  0  0  0  0
   57.9513   32.0170   48.3944 H   0  0  0  0  0  0  0  0  0  0  0  0
   59.5478   32.8403   48.3944 H   0  0  0  0  0  0  0  0  0  0  0  0
   58.8061   35.2668   46.3320 H   0  0  0  0  0  0  0  0  0  0  0  0
   58.4440   34.6810   43.7740 H   0  0  0  0  0  0  0  0  0  0  0  0
   57.7499   33.4746   42.0427 H   0  0  0  0  0  0  0  0  0  0  0  0
   58.7148   32.0613   41.4966 H   0  0  0  0  0  0  0  0  0  0  0  0
   56.9204   31.9778   41.4966 H   0  0  0  0  0  0  0  0  0  0  0  0
   57.3514   29.8438   42.7984 H   0  0  0  0  0  0  0  0  0  0  0  0
   55.1490   28.5920   45.2460 H   0  0  0  0  0  0  0  0  0  0  0  0
   57.2240   24.3878   46.5314 H   0  0  0  0  0  0  0  0  0  0  0  0
   59.7223   24.1326   46.6639 H   0  0  0  0  0  0  0  0  0  0  0  0
   61.1105   26.1084   46.1172 H   0  0  0  0  0  0  0  0  0  0  0  0
   60.1269   28.2593   45.4623 H   0  0  0  0  0  0  0  0  0  0  0  0
  1  2  1  0
  2  3  2  0
  3  4  1  0
  4  5  1  0
  5  6  2  0
  6  7  1  0
  6  8  1  0
  8  9  2  0
  9 10  1  0
 10 11  1  0
 11 12  1  0
 12 13  2  0
 13 14  1  0
 14 15  2  0
 15 16  1  0
 16 17  2  0
 17 18  1  0
  9 19  1  0
 19 20  2  0
 20  2  1  0
 20  5  1  0
 18 10  2  0
 18 13  1  0
  1 21  1  0
  1 22  1  0
  1 23  1  0
  3 24  1  0
  4 25  1  0
  7 26  1  0
  7 27  1  0
  7 28  1  0
  8 29  1  0
 11 30  1  0
 14 31  1  0
 15 32  1  0
 16 33  1  0
 17 34  1  0
M  END
>  <smiles>  (11) 
Cc1c[nH]c2c(C)cc(-c3[nH]nc4ccccc34)nc12

>  <score_type>  (11) 
oracle

>  <origin>  (11) 
adg

>  <m_score__min__energy>  (11) 
-8.0199999999999996

>  <m_primary>  (11) 
energy

$$$$
11:0
     RDKit          3D

 33 36  0  0  0  0  0  0  0  0999 V2000
   63.7670   33.0890   46.8150 C   0  0  0  0  0  0  0  0  0  0  0  0
   62.4410   33.4160   47.4360 C   0  0  0  0  0  0  0  0  0  0  0  0
   62.3710   33.8410   48.7700 C   0  0  0  0  0  0  0  0  0  0  0  0
   61.1320   34.1020   49.3600 C   0  0  0  0  0  0  0  0  0  0  0  0
   59.9560   33.9350   48.6260 C   0  0  0  0  0  0  0  0  0  0  0  0
   60.0100   33.5130   47.2890 C   0  0  0  0  0  0  0  0  0  0  0  0
   58.8060   33.3050   46.5370 N   0  0  0  0  0  0  0  0  0  0  0  0
   58.0480   34.3870   45.8990 C   0  0  0  0  0  0  0  0  0  0  0  0
   57.0740   33.7110   44.8950 C   0  0  0  0  0  0  0  0  0  0  0  0
   57.3450   32.2640   45.0880 C   0  0  0  0  0  0  0  0  0  0  0  0
   56.6900   31.2190   44.5020 N   0  0  0  0  0  0  0  0  0  0  0  0
   57.0220   29.9390   44.8570 C   0  0  0  0  0  0  0  0  0  0  0  0
   57.9810   29.7530   45.8070 N   0  0  0  0  0  0  0  0  0  0  0  0
   58.4470   28.6320   46.3710 C   0  0  0  0  0  0  0  0  0  0  0  0
   59.3800   29.0170   47.3220 C   0  0  0  0  0  0  0  0  0  0  0  0
   59.4950   30.3680   47.3500 N   0  0  0  0  0  0  0  0  0  0  0  0
   58.6280   30.7700   46.4010 C   0  0  0  0  0  0  0  0  0  0  0  0
   58.3270   32.0740   46.0200 C   0  0  0  0  0  0  0  0  0  0  0  0
   61.2560   33.2320   46.7060 C   0  0  0  0  0  0  0  0  0  0  0  0
   64.5079   32.9063   47.6073 H   0  0  0  0  0  0  0  0  0  0  0  0
   63.6676   32.1885   46.1912 H   0  0  0  0  0  0  0  0  0  0  0  0
   64.0977   33.9325   46.1912 H   0  0  0  0  0  0  0  0  0  0  0  0
   63.2944   33.9693   49.3539 H   0  0  0  0  0  0  0  0  0  0  0  0
   61.0827   34.4400   50.4056 H   0  0  0  0  0  0  0  0  0  0  0  0
   58.9828   34.1352   49.0981 H   0  0  0  0  0  0  0  0  0  0  0  0
   57.4828   34.9520   46.6549 H   0  0  0  0  0  0  0  0  0  0  0  0
   58.7179   35.0944   45.3883 H   0  0  0  0  0  0  0  0  0  0  0  0
   56.0281   33.9527   45.1354 H   0  0  0  0  0  0  0  0  0  0  0  0
   57.2214   34.0446   43.8572 H   0  0  0  0  0  0  0  0  0  0  0  0
   56.5249   29.0787   44.3851 H   0  0  0  0  0  0  0  0  0  0  0  0
   58.1472   27.6022   46.1268 H   0  0  0  0  0  0  0  0  0  0  0  0
   59.9463   28.3249   47.9626 H   0  0  0  0  0  0  0  0  0  0  0  0
   61.3040   32.8651   45.6701 H   0  0  0  0  0  0  0  0  0  0  0  0
  1  2  1  0
  2  3  2  0
  3  4  1  0
  4  5  2  0
  5  6  1  0
  6  7  1  0
  7  8  1  0
  8  9  1  0
  9 10  1  0
 10 11  1  0
 11 12  2  0
 12 13  1  0
 13 14  1  0
 14 15  2  0
 15 16  1  0
 16 17  2  0
 17 18  1  0
  6 19  2  0
 19  2  1  0
 18  7  1  0
 18 10  2  0
 17 13  1  0
  1 20  1  0
  1 21  1  0
  1 22  1  0
  3 23  1  0
  4 24  1  0
  5 25  1  0
  8 26  1  0
  8 27  1  0
  9 28  1  0
  9 29  1  0
 12 30  1  0
 14 31  1  0
 15 32  1  0
 19 33  1  0
M  END
>  <UniqueID>  (12) 
10

>  <SMILES>  (12) 
Cc1cccc(N2CCc3ncn4ccnc4c32)c1

>  <Energy>  (12) 
93.97101855089471

>  <Genealogy>  (12) 
Cc1cccc(N2CCc3ncn4ccnc4c32)c1 (3D coordinates assigned)
Cc1cccc(N2CCc3ncn4ccnc4c32)c1 (nonaromatic ring conformer: 93.97101855089471 kcal/mol)

>  <smiles>  (12) 
Cc1cccc(N2CCc3ncn4ccnc4c32)c1

>  <score_type>  (12) 
oracle

>  <origin>  (12) 
adg

>  <m_score__min__energy>  (12) 
-6.8600000000000003

>  <m_primary>  (12) 
energy

$$$$
12:0
     RDKit          3D

 31 32  0  0  1  0  0  0  0  0999 V2000
   59.6490   33.9610   48.6560 C   0  0  0  0  0  0  0  0  0  0  0  0
   58.6890   33.1640   48.0270 O   0  0  0  0  0  0  0  0  0  0  0  0
   58.4750   33.0830   46.6580 C   0  0  0  0  0  0  0  0  0  0  0  0
   58.5930   34.2400   45.9070 C   0  0  0  0  0  0  0  0  0  0  0  0
   58.3890   34.2100   44.5380 C   0  0  0  0  0  0  0  0  0  0  0  0
   58.0620   33.0270   43.8770 C   0  0  0  0  0  0  0  0  0  0  0  0
   57.9440   31.8720   44.6260 C   0  0  0  0  0  0  0  0  0  0  0  0
   57.5970   30.5640   43.9950 C   0  0  2  0  0  0  0  0  0  0  0  0
   56.8060   30.8110   42.7090 C   0  0  0  0  0  0  0  0  0  0  0  0
   56.7400   29.7340   44.8480 C   0  0  0  0  0  0  0  0  0  0  0  0
   55.5010   29.5970   44.5970 O   0  0  0  0  0  0  0  0  0  0  0  0
   57.2390   29.0400   45.9960 N   0  0  0  0  0  0  0  0  0  0  0  0
   57.0840   27.7560   45.9980 C   0  0  0  0  0  0  0  0  0  0  0  0
   56.0460   27.0530   45.6490 N   0  0  0  0  0  0  0  0  0  0  0  0
   56.0740   25.7520   45.7180 C   0  0  0  0  0  0  0  0  0  0  0  0
   57.1940   25.1490   46.1560 N   0  0  0  0  0  0  0  0  0  0  0  0
   58.3310   26.5810   46.5070 S   0  0  0  0  0  0  0  0  0  0  0  0
   58.1520   31.9100   46.0090 C   0  0  0  0  0  0  0  0  0  0  0  0
   59.5417   33.8719   49.7471 H   0  0  0  0  0  0  0  0  0  0  0  0
   60.6542   33.6282   48.3580 H   0  0  0  0  0  0  0  0  0  0  0  0
   59.5068   35.0103   48.3580 H   0  0  0  0  0  0  0  0  0  0  0  0
   58.8503   35.1886   46.4009 H   0  0  0  0  0  0  0  0  0  0  0  0
   58.4871   35.1402   43.9591 H   0  0  0  0  0  0  0  0  0  0  0  0
   57.9023   33.0134   42.7887 H   0  0  0  0  0  0  0  0  0  0  0  0
   58.5509   30.0464   43.8154 H   0  0  0  0  0  0  0  0  0  0  0  0
   55.7843   31.1301   42.9625 H   0  0  0  0  0  0  0  0  0  0  0  0
   57.3002   31.5976   42.1199 H   0  0  0  0  0  0  0  0  0  0  0  0
   56.7648   29.8830   42.1199 H   0  0  0  0  0  0  0  0  0  0  0  0
   55.1450   27.5640   45.2960 H   0  0  0  0  0  0  0  0  0  0  0  0
   55.1970   25.1571   45.4232 H   0  0  0  0  0  0  0  0  0  0  0  0
   58.0556   30.9824   46.5923 H   0  0  0  0  0  0  0  0  0  0  0  0
  1  2  1  0
  2  3  1  0
  3  4  2  0
  4  5  1  0
  5  6  2  0
  6  7  1  0
  7  8  1  0
  8  9  1  0
  8 10  1  0
 10 11  2  0
 10 12  1  0
 12 13  2  0
 13 14  1  0
 14 15  1  0
 15 16  2  0
 16 17  1  0
  7 18  2  0
 18  3  1  0
 17 13  1  0
  1 19  1  0
  1 20  1  0
  1 21  1  0
  4 22  1  0
  5 23  1  0
  6 24  1  0
  8 25  1  6
  9 26  1  0
  9 27  1  0
  9 28  1  0
 14 29  1  0
 15 30  1  0
 18 31  1  0
M  END
>  <smiles>  (13) 
COc1cccc(C(C)C(=O)N=c2[nH]cns2)c1

>  <score_type>  (13) 
oracle

>  <origin>  (13) 
adg

>  <m_score__min__energy>  (13) 
-6.9000000000000004

>  <m_primary>  (13) 
energy

$$$$
13:0
     RDKit          3D

 26 28  0  0  0  0  0  0  0  0999 V2000
   55.8490   26.0510   46.6620 O   0  0  0  0  0  0  0  0  0  0  0  0
   56.6760   25.9230   45.7210 C   0  0  0  0  0  0  0  0  0  0  0  0
   56.2850   25.1870   44.5550 N   0  0  0  0  0  0  0  0  0  0  0  0
   56.6910   23.8510   44.2240 C   0  0  0  0  0  0  0  0  0  0  0  0
   57.8260   23.2560   44.7970 C   0  0  0  0  0  0  0  0  0  0  0  0
   58.1700   21.9450   44.4610 C   0  0  0  0  0  0  0  0  0  0  0  0
   57.3640   21.2340   43.5690 C   0  0  0  0  0  0  0  0  0  0  0  0
   56.2530   21.8160   43.0430 N   0  0  0  0  0  0  0  0  0  0  0  0
   55.9000   23.0920   43.3540 C   0  0  0  0  0  0  0  0  0  0  0  0
   57.9740   26.6220   45.7930 C   0  0  0  0  0  0  0  0  0  0  0  0
   59.3770   25.9400   46.4260 S   0  0  0  0  0  0  0  0  0  0  0  0
   60.4070   27.2090   46.0440 C   0  0  0  0  0  0  0  0  0  0  0  0
   59.6670   28.1930   45.4040 C   0  0  0  0  0  0  0  0  0  0  0  0
   58.3050   27.8740   45.2600 C   0  0  0  0  0  0  0  0  0  0  0  0
   57.3540   28.7900   44.6920 N   0  0  0  0  0  0  0  0  0  0  0  0
   57.0540   28.9670   43.3930 C   0  0  0  0  0  0  0  0  0  0  0  0
   56.1560   29.9620   43.2680 N   0  0  0  0  0  0  0  0  0  0  0  0
   55.9260   30.3850   44.5030 N   0  0  0  0  0  0  0  0  0  0  0  0
   56.6500   29.6840   45.3630 N   0  0  0  0  0  0  0  0  0  0  0  0
   58.4437   23.8219   45.5099 H   0  0  0  0  0  0  0  0  0  0  0  0
   59.0663   21.4772   44.8943 H   0  0  0  0  0  0  0  0  0  0  0  0
   57.6279   20.2027   43.2918 H   0  0  0  0  0  0  0  0  0  0  0  0
   54.9888   23.5294   42.9199 H   0  0  0  0  0  0  0  0  0  0  0  0
   61.4840   27.2531   46.2634 H   0  0  0  0  0  0  0  0  0  0  0  0
   60.1051   29.1351   45.0428 H   0  0  0  0  0  0  0  0  0  0  0  0
   57.4778   28.3872   42.5598 H   0  0  0  0  0  0  0  0  0  0  0  0
  1  2  2  0
  2  3  1  0
  3  4  1  0
  4  5  2  0
  5  6  1  0
  6  7  2  0
  7  8  1  0
  8  9  2  0
  2 10  1  0
 10 11  1  0
 11 12  1  0
 12 13  2  0
 13 14  1  0
 14 15  1  0
 15 16  1  0
 16 17  2  0
 17 18  1  0
 18 19  2  0
  9  4  1  0
 14 10  2  0
 19 15  1  0
  5 20  1  0
  6 21  1  0
  7 22  1  0
  9 23  1  0
 12 24  1  0
 13 25  1  0
 16 26  1  0
M  CHG  1   3  -1
M  END
>  <UniqueID>  (14) 
11

>  <SMILES>  (14) 
O=C([N-]c1cccnc1)c1sccc1-n1cnnn1

>  <Energy>  (14) 
104.90231248313191

>  <Genealogy>  (14) 
O=C([N-]c1cccnc1)c1sccc1-n1cnnn1 (protonated)
O=C([N-]c1cccnc1)c1sccc1-n1cnnn1 (3D coordinates assigned)
O=C([N-]c1cccnc1)c1sccc1-n1cnnn1 (optimized conformer: 104.90231248313191 kcal/mol)

>  <smiles>  (14) 
O=C(Nc1cccnc1)c1sccc1-n1cnnn1

>  <score_type>  (14) 
oracle

>  <origin>  (14) 
adg

>  <m_score__min__energy>  (14) 
-9.4399999999999995

>  <m_primary>  (14) 
energy

$$$$
14:0
     RDKit          3D

 43 47  0  0  0  0  0  0  0  0999 V2000
   62.4380   23.1760   54.7400 C   0  0  0  0  0  0  0  0  0  0  0  0
   61.4120   23.9660   55.3320 O   0  0  0  0  0  0  0  0  0  0  0  0
   60.9250   25.1660   54.7920 C   0  0  0  0  0  0  0  0  0  0  0  0
   59.7750   25.7310   55.3560 C   0  0  0  0  0  0  0  0  0  0  0  0
   59.2510   26.9250   54.8540 C   0  0  0  0  0  0  0  0  0  0  0  0
   59.8690   27.5760   53.7730 C   0  0  0  0  0  0  0  0  0  0  0  0
   59.3210   28.8450   53.2360 C   0  0  0  0  0  0  0  0  0  0  0  0
   60.1530   29.8610   52.8500 N   0  0  0  0  0  0  0  0  0  0  0  0
   59.6720   31.0440   52.3460 C   0  0  0  0  0  0  0  0  0  0  0  0
   60.4960   31.9400   52.0150 O   0  0  0  0  0  0  0  0  0  0  0  0
   58.3150   31.2530   52.2070 N   0  0  0  0  0  0  0  0  0  0  0  0
   57.7880   32.5140   51.6670 C   0  0  0  0  0  0  0  0  0  0  0  0
   57.4800   30.2400   52.5890 C   0  0  0  0  0  0  0  0  0  0  0  0
   57.9530   29.0510   53.0940 C   0  0  0  0  0  0  0  0  0  0  0  0
   56.9710   28.2180   53.3710 O   0  0  0  0  0  0  0  0  0  0  0  0
   55.8590   28.8460   53.0620 C   0  0  0  0  0  0  0  0  0  0  0  0
   54.6080   28.3470   53.1930 N   0  0  0  0  0  0  0  0  0  0  0  0
   53.5380   29.1130   52.8310 C   0  0  0  0  0  0  0  0  0  0  0  0
   53.7200   30.4250   52.3150 C   0  0  0  0  0  0  0  0  0  0  0  0
   52.5500   31.2520   51.9220 C   0  0  0  0  0  0  0  0  0  0  0  0
   51.6400   31.8830   52.7500 C   0  0  0  0  0  0  0  0  0  0  0  0
   50.7320   32.5320   51.9980 N   0  0  0  0  0  0  0  0  0  0  0  0
   51.0250   32.3390   50.7210 N   0  0  0  0  0  0  0  0  0  0  0  0
   52.1250   31.5680   50.6440 C   0  0  0  0  0  0  0  0  0  0  0  0
   55.0350   30.9290   52.1840 C   0  0  0  0  0  0  0  0  0  0  0  0
   56.0970   30.1080   52.5690 C   0  0  0  0  0  0  0  0  0  0  0  0
   61.0260   27.0120   53.2100 C   0  0  0  0  0  0  0  0  0  0  0  0
   61.5500   25.8170   53.7120 C   0  0  0  0  0  0  0  0  0  0  0  0
   63.0439   22.7095   55.5307 H   0  0  0  0  0  0  0  0  0  0  0  0
   61.9834   22.3925   54.1159 H   0  0  0  0  0  0  0  0  0  0  0  0
   63.0793   23.8157   54.1159 H   0  0  0  0  0  0  0  0  0  0  0  0
   59.2798   25.2308   56.2014 H   0  0  0  0  0  0  0  0  0  0  0  0
   58.3480   27.3586   55.3084 H   0  0  0  0  0  0  0  0  0  0  0  0
   61.1870   29.7480   52.9560 H   0  0  0  0  0  0  0  0  0  0  0  0
   57.5096   33.1803   52.4968 H   0  0  0  0  0  0  0  0  0  0  0  0
   58.5587   32.9992   51.0500 H   0  0  0  0  0  0  0  0  0  0  0  0
   56.9013   32.3065   51.0500 H   0  0  0  0  0  0  0  0  0  0  0  0
   52.5205   28.7095   52.9401 H   0  0  0  0  0  0  0  0  0  0  0  0
   51.6557   31.8584   53.8496 H   0  0  0  0  0  0  0  0  0  0  0  0
   52.6096   31.2407   49.7123 H   0  0  0  0  0  0  0  0  0  0  0  0
   55.2162   31.9398   51.7897 H   0  0  0  0  0  0  0  0  0  0  0  0
   61.5236   27.5146   52.3675 H   0  0  0  0  0  0  0  0  0  0  0  0
   62.4548   25.3836   53.2609 H   0  0  0  0  0  0  0  0  0  0  0  0
  1  2  1  0
  2  3  1  0
  3  4  2  0
  4  5  1  0
  5  6  2  0
  6  7  1  0
  7  8  2  0
  8  9  1  0
  9 10  2  0
  9 11  1  0
 11 12  1  0
 11 13  1  0
 13 14  2  0
 14 15  1  0
 15 16  1  0
 16 17  2  0
 17 18  1  0
 18 19  2  0
 19 20  1  0
 20 21  1  0
 21 22  2  0
 22 23  1  0
 23 24  1  0
 19 25  1  0
 25 26  2  0
  6 27  1  0
 27 28  2  0
 28  3  1  0
 14  7  1  0
 26 16  1  0
 26 13  1  0
 24 20  2  0
  1 29  1  0
  1 30  1  0
  1 31  1  0
  4 32  1  0
  5 33  1  0
  8 34  1  0
 12 35  1  0
 12 36  1  0
 12 37  1  0
 18 38  1  0
 21 39  1  0
 24 40  1  0
 25 41  1  0
 27 42  1  0
 28 43  1  0
M  CHG  2   8   1  23  -1
M  END
>  <UniqueID>  (15) 
12

>  <SMILES>  (15) 
COc1ccc(-c2[nH+]c(=O)n(C)c3c2oc2ncc(-c4cn[n-]c4)cc23)cc1

>  <Energy>  (15) 
136.43158263544734

>  <Genealogy>  (15) 
COc1ccc(-c2[nH+]c(=O)n(C)c3c2oc2ncc(-c4cn[n-]c4)cc23)cc1 (protonated)
COc1ccc(-c2[nH+]c(=O)n(C)c3c2oc2ncc(-c4cn[n-]c4)cc23)cc1 (3D coordinates assigned)
COc1ccc(-c2[nH+]c(=O)n(C)c3c2oc2ncc(-c4cn[n-]c4)cc23)cc1 (optimized conformer: 136.43158263544734 kcal/mol)

>  <smiles>  (15) 
COc1ccc(-c2nc(=O)n(C)c3c2oc2ncc(-c4cn[nH]c4)cc23)cc1

>  <score_type>  (15) 
oracle

>  <origin>  (15) 
adg

>  <m_score__min__energy>  (15) 
-7.6500000000000004

>  <m_primary>  (15) 
energy

$$$$
15:0
     RDKit          3D

 38 40  0  0  0  0  0  0  0  0999 V2000
   65.0310   33.0700   49.7530 C   0  0  0  0  0  0  0  0  0  0  0  0
   63.8360   33.4310   48.9200 C   0  0  0  0  0  0  0  0  0  0  0  0
   63.8570   33.2340   47.5310 C   0  0  0  0  0  0  0  0  0  0  0  0
   62.7320   33.5370   46.7580 C   0  0  0  0  0  0  0  0  0  0  0  0
   61.5650   34.0230   47.3670 C   0  0  0  0  0  0  0  0  0  0  0  0
   60.3570   34.3740   46.5420 C   0  0  0  0  0  0  0  0  0  0  0  0
   59.7440   33.1630   46.0010 N   0  0  0  0  0  0  0  0  0  0  0  0
   58.3270   33.0440   45.8020 C   0  0  0  0  0  0  0  0  0  0  0  0
   57.5760   34.0340   46.0170 O   0  0  0  0  0  0  0  0  0  0  0  0
   57.7220   31.7800   45.3460 C   0  0  0  0  0  0  0  0  0  0  0  0
   58.3080   30.5280   45.3450 C   0  0  0  0  0  0  0  0  0  0  0  0
   57.3200   29.7040   44.8340 C   0  0  0  0  0  0  0  0  0  0  0  0
   57.3910   28.2440   44.6040 C   0  0  0  0  0  0  0  0  0  0  0  0
   57.7940   27.7140   43.3620 C   0  0  0  0  0  0  0  0  0  0  0  0
   57.8530   26.3300   43.1700 C   0  0  0  0  0  0  0  0  0  0  0  0
   57.5130   25.4620   44.2100 C   0  0  0  0  0  0  0  0  0  0  0  0
   57.1130   25.9760   45.4450 C   0  0  0  0  0  0  0  0  0  0  0  0
   57.0510   27.3590   45.6430 C   0  0  0  0  0  0  0  0  0  0  0  0
   56.2630   30.4380   44.5710 O   0  0  0  0  0  0  0  0  0  0  0  0
   56.4680   31.6890   44.8660 N   0  0  0  0  0  0  0  0  0  0  0  0
   61.5410   34.2080   48.7590 C   0  0  0  0  0  0  0  0  0  0  0  0
   62.6650   33.9060   49.5310 C   0  0  0  0  0  0  0  0  0  0  0  0
   64.7719   33.1483   50.8192 H   0  0  0  0  0  0  0  0  0  0  0  0
   65.3388   32.0388   49.5252 H   0  0  0  0  0  0  0  0  0  0  0  0
   65.8582   33.7583   49.5252 H   0  0  0  0  0  0  0  0  0  0  0  0
   64.7629   32.8393   47.0478 H   0  0  0  0  0  0  0  0  0  0  0  0
   62.7619   33.3938   45.6678 H   0  0  0  0  0  0  0  0  0  0  0  0
   59.6261   34.8997   47.1740 H   0  0  0  0  0  0  0  0  0  0  0  0
   60.6682   35.0209   45.7085 H   0  0  0  0  0  0  0  0  0  0  0  0
   60.3760   32.3720   45.7450 H   0  0  0  0  0  0  0  0  0  0  0  0
   59.3209   30.2516   45.6730 H   0  0  0  0  0  0  0  0  0  0  0  0
   58.0636   28.3925   42.5392 H   0  0  0  0  0  0  0  0  0  0  0  0
   58.1680   25.9240   42.1974 H   0  0  0  0  0  0  0  0  0  0  0  0
   57.5603   24.3738   44.0562 H   0  0  0  0  0  0  0  0  0  0  0  0
   56.8461   25.2918   46.2639 H   0  0  0  0  0  0  0  0  0  0  0  0
   56.7341   27.7575   46.6181 H   0  0  0  0  0  0  0  0  0  0  0  0
   60.6318   34.5929   49.2440 H   0  0  0  0  0  0  0  0  0  0  0  0
   62.6325   34.0409   50.6222 H   0  0  0  0  0  0  0  0  0  0  0  0
  1  2  1  0
  2  3  2  0
  3  4  1  0
  4  5  2  0
  5  6  1  0
  6  7  1  0
  7  8  1  0
  8  9  2  0
  8 10  1  0
 10 11  1  0
 11 12  2  0
 12 13  1  0
 13 14  2  0
 14 15  1  0
 15 16  2  0
 16 17  1  0
 17 18  2  0
 12 19  1  0
 19 20  1  0
  5 21  1  0
 21 22  2  0
 22  2  1  0
 20 10  2  0
 18 13  1  0
  1 23  1  0
  1 24  1  0
  1 25  1  0
  3 26  1  0
  4 27  1  0
  6 28  1  0
  6 29  1  0
  7 30  1  0
 11 31  1  0
 14 32  1  0
 15 33  1  0
 16 34  1  0
 17 35  1  0
 18 36  1  0
 21 37  1  0
 22 38  1  0
M  END
>  <UniqueID>  (16) 
13

>  <SMILES>  (16) 
Cc1ccc(CNC(=O)c2cc(-c3ccccc3)on2)cc1

>  <Energy>  (16) 
67.99522133581704

>  <Genealogy>  (16) 
Cc1ccc(CNC(=O)c2cc(-c3ccccc3)on2)cc1 (3D coordinates assigned)
Cc1ccc(CNC(=O)c2cc(-c3ccccc3)on2)cc1 (optimized conformer: 67.99522133581704 kcal/mol)

>  <smiles>  (16) 
Cc1ccc(CNC(=O)c2cc(-c3ccccc3)on2)cc1

>  <score_type>  (16) 
oracle

>  <origin>  (16) 
adg

>  <m_score__min__energy>  (16) 
-8.1400000000000006

>  <m_primary>  (16) 
energy

$$$$
16:0
     RDKit          3D

 32 35  0  0  0  0  0  0  0  0999 V2000
   60.0860   34.1520   46.5360 C   0  0  0  0  0  0  0  0  0  0  0  0
   59.6030   35.1910   45.7380 C   0  0  0  0  0  0  0  0  0  0  0  0
   58.5710   34.9670   44.8830 N   0  0  0  0  0  0  0  0  0  0  0  0
   57.9820   33.7460   44.7740 C   0  0  0  0  0  0  0  0  0  0  0  0
   58.4350   32.6710   45.5570 C   0  0  0  0  0  0  0  0  0  0  0  0
   57.8070   31.3400   45.4520 C   0  0  0  0  0  0  0  0  0  0  0  0
   58.3240   30.2120   45.9790 N   0  0  0  0  0  0  0  0  0  0  0  0
   57.4000   29.2950   45.6190 C   0  0  0  0  0  0  0  0  0  0  0  0
   57.4890   27.8600   45.9560 C   0  0  0  0  0  0  0  0  0  0  0  0
   58.7370   27.2700   46.2390 C   0  0  0  0  0  0  0  0  0  0  0  0
   58.8230   25.9120   46.5650 C   0  0  0  0  0  0  0  0  0  0  0  0
   57.6650   25.1340   46.6150 C   0  0  0  0  0  0  0  0  0  0  0  0
   56.4230   25.7030   46.3090 C   0  0  0  0  0  0  0  0  0  0  0  0
   56.3300   27.0620   45.9960 C   0  0  0  0  0  0  0  0  0  0  0  0
   55.2830   24.8930   46.3220 O   0  0  0  0  0  0  0  0  0  0  0  0
   55.3900   23.4680   46.3650 C   0  0  0  0  0  0  0  0  0  0  0  0
   56.5400   23.0500   47.2910 C   0  0  0  0  0  0  0  0  0  0  0  0
   57.7260   23.7830   46.9700 O   0  0  0  0  0  0  0  0  0  0  0  0
   56.3870   29.8410   44.9150 N   0  0  0  0  0  0  0  0  0  0  0  0
   56.6750   31.1040   44.8340 O   0  0  0  0  0  0  0  0  0  0  0  0
   59.5000   32.8880   46.4440 C   0  0  0  0  0  0  0  0  0  0  0  0
   60.9205   34.3277   47.2308 H   0  0  0  0  0  0  0  0  0  0  0  0
   60.0578   36.1906   45.8015 H   0  0  0  0  0  0  0  0  0  0  0  0
   57.1487   33.5997   44.0709 H   0  0  0  0  0  0  0  0  0  0  0  0
   59.6505   27.8817   46.2034 H   0  0  0  0  0  0  0  0  0  0  0  0
   59.8014   25.4583   46.7815 H   0  0  0  0  0  0  0  0  0  0  0  0
   55.3484   27.5092   45.7803 H   0  0  0  0  0  0  0  0  0  0  0  0
   54.4476   23.0442   46.7422 H   0  0  0  0  0  0  0  0  0  0  0  0
   55.5916   23.0927   45.3509 H   0  0  0  0  0  0  0  0  0  0  0  0
   56.2583   23.2540   48.3346 H   0  0  0  0  0  0  0  0  0  0  0  0
   56.7354   21.9758   47.1572 H   0  0  0  0  0  0  0  0  0  0  0  0
   59.8735   32.0621   47.0672 H   0  0  0  0  0  0  0  0  0  0  0  0
  1  2  2  0
  2  3  1  0
  3  4  2  0
  4  5  1  0
  5  6  1  0
  6  7  2  0
  7  8  1  0
  8  9  1  0
  9 10  2  0
 10 11  1  0
 11 12  2  0
 12 13  1  0
 13 14  2  0
 13 15  1  0
 15 16  1  0
 16 17  1  0
 17 18  1  0
  8 19  2  0
 19 20  1  0
  5 21  2  0
 21  1  1  0
 20  6  1  0
 14  9  1  0
 18 12  1  0
  1 22  1  0
  2 23  1  0
  4 24  1  0
 10 25  1  0
 11 26  1  0
 14 27  1  0
 16 28  1  0
 16 29  1  0
 17 30  1  0
 17 31  1  0
 21 32  1  0
M  END
>  <UniqueID>  (17) 
14

>  <SMILES>  (17) 
c1cncc(-c2nc(-c3ccc4c(c3)OCCO4)no2)c1

>  <Energy>  (17) 
71.61364588828411

>  <Genealogy>  (17) 
c1cncc(-c2nc(-c3ccc4c(c3)OCCO4)no2)c1 (3D coordinates assigned)
c1cncc(-c2nc(-c3ccc4c(c3)OCCO4)no2)c1 (nonaromatic ring conformer: 71.61364588828411 kcal/mol)

>  <smiles>  (17) 
c1cncc(-c2nc(-c3ccc4c(c3)OCCO4)no2)c1

>  <score_type>  (17) 
oracle

>  <origin>  (17) 
adg

>  <m_score__min__energy>  (17) 
-7.5800000000000001

>  <m_primary>  (17) 
energy

$$$$
17:0
     RDKit          3D

 43 44  0  0  0  0  0  0  0  0999 V2000
   60.2240   29.9860   47.8440 C   0  0  0  0  0  0  0  0  0  0  0  0
   58.9080   29.4450   48.3910 C   0  0  0  0  0  0  0  0  0  0  0  0
   58.3650   28.4610   47.5130 O   0  0  0  0  0  0  0  0  0  0  0  0
   58.9770   27.2270   47.2580 C   0  0  0  0  0  0  0  0  0  0  0  0
   60.0490   26.9210   47.8480 O   0  0  0  0  0  0  0  0  0  0  0  0
   58.3460   26.2860   46.3030 C   0  0  0  0  0  0  0  0  0  0  0  0
   58.0890   24.9670   46.7230 C   0  0  0  0  0  0  0  0  0  0  0  0
   57.4880   24.0470   45.8610 C   0  0  0  0  0  0  0  0  0  0  0  0
   57.1390   24.4270   44.5620 C   0  0  0  0  0  0  0  0  0  0  0  0
   56.5200   23.4770   43.6740 C   0  0  0  0  0  0  0  0  0  0  0  0
   56.0230   22.7120   42.9610 N   0  0  0  0  0  0  0  0  0  0  0  0
   57.4010   25.7300   44.1240 C   0  0  0  0  0  0  0  0  0  0  0  0
   58.0060   26.6620   44.9800 C   0  0  0  0  0  0  0  0  0  0  0  0
   58.3230   27.9610   44.4650 N   0  0  0  0  0  0  0  0  0  0  0  0
   59.7120   28.4150   44.4860 C   0  0  0  0  0  0  0  0  0  0  0  0
   57.0210   29.0570   44.1110 S   0  0  0  0  0  0  0  0  0  0  0  0
   55.8150   28.7300   44.9470 O   0  0  0  0  0  0  0  0  0  0  0  0
   56.6400   28.9310   42.6630 O   0  0  0  0  0  0  0  0  0  0  0  0
   57.5300   30.7080   44.4490 C   0  0  0  0  0  0  0  0  0  0  0  0
   57.6620   31.6290   43.4010 C   0  0  0  0  0  0  0  0  0  0  0  0
   58.1340   32.9210   43.6550 C   0  0  0  0  0  0  0  0  0  0  0  0
   58.4780   33.3040   44.9600 C   0  0  0  0  0  0  0  0  0  0  0  0
   58.9750   34.6950   45.2260 C   0  0  0  0  0  0  0  0  0  0  0  0
   58.3230   32.3880   46.0120 C   0  0  0  0  0  0  0  0  0  0  0  0
   57.8620   31.0930   45.7550 C   0  0  0  0  0  0  0  0  0  0  0  0
   60.8847   30.2576   48.6805 H   0  0  0  0  0  0  0  0  0  0  0  0
   60.7099   29.2147   47.2284 H   0  0  0  0  0  0  0  0  0  0  0  0
   60.0270   30.8761   47.2284 H   0  0  0  0  0  0  0  0  0  0  0  0
   59.0860   28.9908   49.3769 H   0  0  0  0  0  0  0  0  0  0  0  0
   58.1923   30.2758   48.4778 H   0  0  0  0  0  0  0  0  0  0  0  0
   58.3648   24.6575   47.7419 H   0  0  0  0  0  0  0  0  0  0  0  0
   57.2889   23.0213   46.2051 H   0  0  0  0  0  0  0  0  0  0  0  0
   57.1302   26.0258   43.0997 H   0  0  0  0  0  0  0  0  0  0  0  0
   60.0463   28.5243   45.5283 H   0  0  0  0  0  0  0  0  0  0  0  0
   60.3466   27.6775   43.9728 H   0  0  0  0  0  0  0  0  0  0  0  0
   59.7885   29.3849   43.9728 H   0  0  0  0  0  0  0  0  0  0  0  0
   57.3936   31.3350   42.3756 H   0  0  0  0  0  0  0  0  0  0  0  0
   58.2358   33.6395   42.8283 H   0  0  0  0  0  0  0  0  0  0  0  0
   59.0346   34.8617   46.3117 H   0  0  0  0  0  0  0  0  0  0  0  0
   59.9731   34.8192   44.7807 H   0  0  0  0  0  0  0  0  0  0  0  0
   58.2816   35.4236   44.7807 H   0  0  0  0  0  0  0  0  0  0  0  0
   58.5649   32.6896   47.0418 H   0  0  0  0  0  0  0  0  0  0  0  0
   57.7596   30.3738   46.5810 H   0  0  0  0  0  0  0  0  0  0  0  0
  1  2  1  0
  2  3  1  0
  3  4  1  0
  4  5  2  0
  4  6  1  0
  6  7  2  0
  7  8  1  0
  8  9  2  0
  9 10  1  0
 10 11  3  0
  9 12  1  0
 12 13  2  0
 13 14  1  0
 14 15  1  0
 14 16  1  0
 16 17  2  0
 16 18  2  0
 16 19  1  0
 19 20  2  0
 20 21  1  0
 21 22  2  0
 22 23  1  0
 22 24  1  0
 24 25  2  0
 13  6  1  0
 25 19  1  0
  1 26  1  0
  1 27  1  0
  1 28  1  0
  2 29  1  0
  2 30  1  0
  7 31  1  0
  8 32  1  0
 12 33  1  0
 15 34  1  0
 15 35  1  0
 15 36  1  0
 20 37  1  0
 21 38  1  0
 23 39  1  0
 23 40  1  0
 23 41  1  0
 24 42  1  0
 25 43  1  0
M  END
>  <UniqueID>  (18) 
15

>  <SMILES>  (18) 
CCOC(=O)c1ccc(C#N)cc1N(C)S(=O)(=O)c1ccc(C)cc1

>  <Energy>  (18) 
43.85209787422004

>  <Genealogy>  (18) 
CCOC(=O)c1ccc(C#N)cc1N(C)S(=O)(=O)c1ccc(C)cc1 (3D coordinates assigned)
CCOC(=O)c1ccc(C#N)cc1N(C)S(=O)(=O)c1ccc(C)cc1 (optimized conformer: 43.85209787422004 kcal/mol)

>  <smiles>  (18) 
CCOC(=O)c1ccc(C#N)cc1N(C)S(=O)(=O)c1ccc(C)cc1

>  <score_type>  (18) 
oracle

>  <origin>  (18) 
adg

>  <m_score__min__energy>  (18) 
-8.2400000000000002

>  <m_primary>  (18) 
energy

$$$$
18:0
     RDKit          3D

 38 38  0  0  0  0  0  0  0  0999 V2000
   61.6730   33.7840   46.7500 C   0  0  0  0  0  0  0  0  0  0  0  0
   60.2430   34.1940   47.0910 C   0  0  0  0  0  0  0  0  0  0  0  0
   59.6730   35.1450   46.0270 C   0  0  0  0  0  0  0  0  0  0  0  0
   58.7880   34.4170   45.0020 C   0  0  0  0  0  0  0  0  0  0  0  0
   58.6410   32.9160   45.3060 C   0  0  0  0  0  0  0  0  0  0  0  0
   57.3720   32.3110   44.6650 C   0  0  0  0  0  0  0  0  0  0  0  0
   57.6520   31.5390   43.3600 C   0  0  0  0  0  0  0  0  0  0  0  0
   56.6130   30.4530   43.0410 C   0  0  0  0  0  0  0  0  0  0  0  0
   56.4590   29.4680   44.1700 C   0  0  0  0  0  0  0  0  0  0  0  0
   55.4560   29.4990   44.8670 O   0  0  0  0  0  0  0  0  0  0  0  0
   57.5120   28.4280   44.4340 C   0  0  0  0  0  0  0  0  0  0  0  0
   58.5850   28.9900   45.3200 C   0  0  0  0  0  0  0  0  0  0  0  0
   59.9490   28.9520   44.9940 C   0  0  0  0  0  0  0  0  0  0  0  0
   60.7690   29.4860   45.9780 C   0  0  0  0  0  0  0  0  0  0  0  0
   59.7940   29.9880   47.2520 S   0  0  0  0  0  0  0  0  0  0  0  0
   58.3260   29.5380   46.5710 C   0  0  0  0  0  0  0  0  0  0  0  0
   62.2393   33.6216   47.6789 H   0  0  0  0  0  0  0  0  0  0  0  0
   61.6576   32.8541   46.1626 H   0  0  0  0  0  0  0  0  0  0  0  0
   62.1527   34.5808   46.1626 H   0  0  0  0  0  0  0  0  0  0  0  0
   59.6134   33.2935   47.1426 H   0  0  0  0  0  0  0  0  0  0  0  0
   60.2500   34.7160   48.0592 H   0  0  0  0  0  0  0  0  0  0  0  0
   59.0703   35.9161   46.5292 H   0  0  0  0  0  0  0  0  0  0  0  0
   60.5214   35.5862   45.4833 H   0  0  0  0  0  0  0  0  0  0  0  0
   57.7890   34.8773   45.0095 H   0  0  0  0  0  0  0  0  0  0  0  0
   59.2714   34.5115   44.0184 H   0  0  0  0  0  0  0  0  0  0  0  0
   59.5223   32.3874   44.9137 H   0  0  0  0  0  0  0  0  0  0  0  0
   58.5562   32.7996   46.3965 H   0  0  0  0  0  0  0  0  0  0  0  0
   56.9126   31.6198   45.3870 H   0  0  0  0  0  0  0  0  0  0  0  0
   56.7069   33.1491   44.4095 H   0  0  0  0  0  0  0  0  0  0  0  0
   57.6662   32.2590   42.5285 H   0  0  0  0  0  0  0  0  0  0  0  0
   58.6164   31.0272   43.4938 H   0  0  0  0  0  0  0  0  0  0  0  0
   55.6417   30.9348   42.8555 H   0  0  0  0  0  0  0  0  0  0  0  0
   56.9603   29.9014   42.1549 H   0  0  0  0  0  0  0  0  0  0  0  0
   57.0501   27.5606   44.9282 H   0  0  0  0  0  0  0  0  0  0  0  0
   57.9606   28.1207   43.4778 H   0  0  0  0  0  0  0  0  0  0  0  0
   60.3317   28.5386   44.0492 H   0  0  0  0  0  0  0  0  0  0  0  0
   61.8651   29.5667   45.9323 H   0  0  0  0  0  0  0  0  0  0  0  0
   57.3348   29.6561   47.0332 H   0  0  0  0  0  0  0  0  0  0  0  0
  1  2  1  0
  2  3  1  0
  3  4  1  0
  4  5  1  0
  5  6  1  0
  6  7  1  0
  7  8  1  0
  8  9  1  0
  9 10  2  0
  9 11  1  0
 11 12  1  0
 12 13  1  0
 13 14  2  0
 14 15  1  0
 15 16  1  0
 16 12  2  0
  1 17  1  0
  1 18  1  0
  1 19  1  0
  2 20  1  0
  2 21  1  0
  3 22  1  0
  3 23  1  0
  4 24  1  0
  4 25  1  0
  5 26  1  0
  5 27  1  0
  6 28  1  0
  6 29  1  0
  7 30  1  0
  7 31  1  0
  8 32  1  0
  8 33  1  0
 11 34  1  0
 11 35  1  0
 13 36  1  0
 14 37  1  0
 16 38  1  0
M  END
>  <UniqueID>  (19) 
16

>  <SMILES>  (19) 
CCCCCCCCC(=O)Cc1ccsc1

>  <Energy>  (19) 
46.934346325720576

>  <Genealogy>  (19) 
CCCCCCCCC(=O)Cc1ccsc1 (3D coordinates assigned)
CCCCCCCCC(=O)Cc1ccsc1 (optimized conformer: 46.934346325720576 kcal/mol)

>  <smiles>  (19) 
CCCCCCCCC(=O)Cc1ccsc1

>  <score_type>  (19) 
oracle

>  <origin>  (19) 
adg

>  <m_score__min__energy>  (19) 
-5.9900000000000002

>  <m_primary>  (19) 
energy

$$$$
19:0
     RDKit          3D

 49 51  0  0  0  0  0  0  0  0999 V2000
   59.8880   29.2840   49.0860 C   0  0  0  0  0  0  0  0  0  0  0  0
   59.3420   30.5370   49.6880 C   0  0  0  0  0  0  0  0  0  0  0  0
   58.1890   30.5330   50.1980 O   0  0  0  0  0  0  0  0  0  0  0  0
   60.1140   31.7440   49.6500 N   0  0  0  0  0  0  0  0  0  0  0  0
   59.6610   32.9920   50.2630 C   0  0  0  0  0  0  0  0  0  0  0  0
   60.4910   34.1800   49.7660 C   0  0  0  0  0  0  0  0  0  0  0  0
   61.1700   33.8500   48.5120 N   0  0  0  0  0  0  0  0  0  0  0  0
   62.3760   33.3020   48.4750 N   0  0  0  0  0  0  0  0  0  0  0  0
   62.7020   33.1090   47.1840 C   0  0  0  0  0  0  0  0  0  0  0  0
   61.6710   33.5430   46.3750 C   0  0  0  0  0  0  0  0  0  0  0  0
   60.6980   33.9920   47.2520 C   0  0  0  0  0  0  0  0  0  0  0  0
   59.3850   34.6510   46.8690 C   0  0  0  0  0  0  0  0  0  0  0  0
   59.2870   34.8040   45.3350 C   0  0  0  0  0  0  0  0  0  0  0  0
   58.9260   33.4790   44.6450 C   0  0  0  0  0  0  0  0  0  0  0  0
   57.8290   32.7880   45.3400 N   0  0  0  0  0  0  0  0  0  0  0  0
   57.6370   31.3810   45.1290 C   0  0  0  0  0  0  0  0  0  0  0  0
   56.5080   30.9590   44.4950 N   0  0  0  0  0  0  0  0  0  0  0  0
   56.2480   29.6440   44.2760 C   0  0  0  0  0  0  0  0  0  0  0  0
   57.1500   28.6730   44.7070 C   0  0  0  0  0  0  0  0  0  0  0  0
   58.3250   29.0700   45.3470 C   0  0  0  0  0  0  0  0  0  0  0  0
   58.5950   30.4320   45.5480 C   0  0  0  0  0  0  0  0  0  0  0  0
   59.8800   30.8370   46.2160 C   0  0  0  0  0  0  0  0  0  0  0  0
   57.1390   33.4490   46.4510 C   0  0  0  0  0  0  0  0  0  0  0  0
   58.1560   33.9260   47.4950 C   0  0  0  0  0  0  0  0  0  0  0  0
   60.1890   28.5932   49.8873 H   0  0  0  0  0  0  0  0  0  0  0  0
   59.1152   28.8092   48.4636 H   0  0  0  0  0  0  0  0  0  0  0  0
   60.7619   29.5268   48.4636 H   0  0  0  0  0  0  0  0  0  0  0  0
   61.0240   31.7450   49.1370 H   0  0  0  0  0  0  0  0  0  0  0  0
   58.6048   33.1575   50.0040 H   0  0  0  0  0  0  0  0  0  0  0  0
   59.7820   32.9113   51.3533 H   0  0  0  0  0  0  0  0  0  0  0  0
   59.8262   35.0406   49.6007 H   0  0  0  0  0  0  0  0  0  0  0  0
   61.2494   34.4229   50.5248 H   0  0  0  0  0  0  0  0  0  0  0  0
   63.6463   32.6719   46.8274 H   0  0  0  0  0  0  0  0  0  0  0  0
   61.6312   33.5341   45.2758 H   0  0  0  0  0  0  0  0  0  0  0  0
   59.3690   35.6638   47.2980 H   0  0  0  0  0  0  0  0  0  0  0  0
   58.5117   35.5486   45.1014 H   0  0  0  0  0  0  0  0  0  0  0  0
   60.2714   35.1234   44.9623 H   0  0  0  0  0  0  0  0  0  0  0  0
   58.6174   33.6879   43.6100 H   0  0  0  0  0  0  0  0  0  0  0  0
   59.8118   32.8272   44.6668 H   0  0  0  0  0  0  0  0  0  0  0  0
   55.3247   29.3452   43.7580 H   0  0  0  0  0  0  0  0  0  0  0  0
   56.9383   27.6059   44.5446 H   0  0  0  0  0  0  0  0  0  0  0  0
   59.0422   28.3121   45.6952 H   0  0  0  0  0  0  0  0  0  0  0  0
   59.7539   30.7973   47.3080 H   0  0  0  0  0  0  0  0  0  0  0  0
   60.6830   30.1484   45.9143 H   0  0  0  0  0  0  0  0  0  0  0  0
   60.1430   31.8616   45.9143 H   0  0  0  0  0  0  0  0  0  0  0  0
   56.5783   34.3143   46.0677 H   0  0  0  0  0  0  0  0  0  0  0  0
   56.4485   32.7339   46.9220 H   0  0  0  0  0  0  0  0  0  0  0  0
   57.6518   34.6222   48.1814 H   0  0  0  0  0  0  0  0  0  0  0  0
   58.5334   33.0332   48.0151 H   0  0  0  0  0  0  0  0  0  0  0  0
  1  2  1  0
  2  3  2  0
  2  4  1  0
  4  5  1  0
  5  6  1  0
  6  7  1  0
  7  8  1  0
  8  9  2  0
  9 10  1  0
 10 11  2  0
 11 12  1  0
 12 13  1  0
 13 14  1  0
 14 15  1  0
 15 16  1  0
 16 17  2  0
 17 18  1  0
 18 19  2  0
 19 20  1  0
 20 21  2  0
 21 22  1  0
 15 23  1  0
 23 24  1  0
 11  7  1  0
 24 12  1  0
 21 16  1  0
  1 25  1  0
  1 26  1  0
  1 27  1  0
  4 28  1  0
  5 29  1  0
  5 30  1  0
  6 31  1  0
  6 32  1  0
  9 33  1  0
 10 34  1  0
 12 35  1  0
 13 36  1  0
 13 37  1  0
 14 38  1  0
 14 39  1  0
 18 40  1  0
 19 41  1  0
 20 42  1  0
 22 43  1  0
 22 44  1  0
 22 45  1  0
 23 46  1  0
 23 47  1  0
 24 48  1  0
 24 49  1  0
M  END
>  <UniqueID>  (20) 
17

>  <SMILES>  (20) 
CC(=O)NCCn1nccc1C1CCN(c2ncccc2C)CC1

>  <Energy>  (20) 
81.1103379365557

>  <Genealogy>  (20) 
CC(=O)NCCn1nccc1C1CCN(c2ncccc2C)CC1 (3D coordinates assigned)
CC(=O)NCCn1nccc1C1CCN(c2ncccc2C)CC1 (nonaromatic ring conformer: 81.1103379365557 kcal/mol)

>  <smiles>  (20) 
CC(=O)NCCn1nccc1C1CCN(c2ncccc2C)CC1

>  <score_type>  (20) 
oracle

>  <origin>  (20) 
adg

>  <m_score__min__energy>  (20) 
-8

>  <m_primary>  (20) 
energy

$$$$
20:0
     RDKit          3D

 36 38  0  0  0  0  0  0  0  0999 V2000
   58.8230   34.2340   46.4440 C   0  0  0  0  0  0  0  0  0  0  0  0
   57.9480   34.5660   45.4830 C   0  0  0  0  0  0  0  0  0  0  0  0
   57.4210   33.5440   44.5040 C   0  0  0  0  0  0  0  0  0  0  0  0
   58.3550   32.4070   44.3440 N   0  0  2  0  0  0  0  0  0  0  0  0
   57.8340   31.3810   43.4080 C   0  0  0  0  0  0  0  0  0  0  0  0
   57.1270   30.2310   44.0860 C   0  0  0  0  0  0  0  0  0  0  0  0
   55.7630   30.1120   44.3040 C   0  0  0  0  0  0  0  0  0  0  0  0
   55.5140   29.0010   44.9670 O   0  0  0  0  0  0  0  0  0  0  0  0
   56.6540   28.3960   45.2010 C   0  0  0  0  0  0  0  0  0  0  0  0
   57.6950   29.1100   44.6580 C   0  0  0  0  0  0  0  0  0  0  0  0
   59.1420   28.7700   44.8670 C   0  0  0  0  0  0  0  0  0  0  0  0
   59.2900   27.2990   45.2990 C   0  0  0  0  0  0  0  0  0  0  0  0
   58.2780   26.9250   46.4010 C   0  0  0  0  0  0  0  0  0  0  0  0
   56.8230   27.0930   45.9210 C   0  0  0  0  0  0  0  0  0  0  0  0
   58.7110   31.8410   45.6630 C   0  0  0  0  0  0  0  0  0  0  0  0
   59.4730   32.8770   46.5030 C   0  0  0  0  0  0  0  0  0  0  0  0
   59.0740   34.9778   47.2146 H   0  0  0  0  0  0  0  0  0  0  0  0
   57.6058   35.6086   45.4061 H   0  0  0  0  0  0  0  0  0  0  0  0
   56.4560   33.1638   44.8704 H   0  0  0  0  0  0  0  0  0  0  0  0
   57.3059   34.0336   43.5257 H   0  0  0  0  0  0  0  0  0  0  0  0
   59.2330   32.7780   43.9070 H   0  0  0  0  0  0  0  0  0  0  0  0
   57.1243   31.8671   42.7225 H   0  0  0  0  0  0  0  0  0  0  0  0
   58.7042   30.9557   42.8865 H   0  0  0  0  0  0  0  0  0  0  0  0
   55.0035   30.8358   43.9734 H   0  0  0  0  0  0  0  0  0  0  0  0
   59.6912   28.9290   43.9273 H   0  0  0  0  0  0  0  0  0  0  0  0
   59.5505   29.4172   45.6572 H   0  0  0  0  0  0  0  0  0  0  0  0
   59.1216   26.6520   44.4255 H   0  0  0  0  0  0  0  0  0  0  0  0
   60.3039   27.1598   45.7022 H   0  0  0  0  0  0  0  0  0  0  0  0
   58.4386   25.8762   46.6912 H   0  0  0  0  0  0  0  0  0  0  0  0
   58.4369   27.5996   47.2552 H   0  0  0  0  0  0  0  0  0  0  0  0
   56.5692   26.2676   45.2396 H   0  0  0  0  0  0  0  0  0  0  0  0
   56.1566   27.0816   46.7961 H   0  0  0  0  0  0  0  0  0  0  0  0
   57.7917   31.5505   46.1927 H   0  0  0  0  0  0  0  0  0  0  0  0
   59.3544   30.9617   45.5118 H   0  0  0  0  0  0  0  0  0  0  0  0
   59.4964   32.5389   47.5495 H   0  0  0  0  0  0  0  0  0  0  0  0
   60.4898   32.9675   46.0932 H   0  0  0  0  0  0  0  0  0  0  0  0
  1  2  2  0
  2  3  1  0
  3  4  1  0
  4  5  1  0
  5  6  1  0
  6  7  2  0
  7  8  1  0
  8  9  1  0
  9 10  2  0
 10 11  1  0
 11 12  1  0
 12 13  1  0
 13 14  1  0
  4 15  1  0
 15 16  1  0
 16  1  1  0
 10  6  1  0
 14  9  1  0
  1 17  1  0
  2 18  1  0
  3 19  1  0
  3 20  1  0
  4 21  1  6
  5 22  1  0
  5 23  1  0
  7 24  1  0
 11 25  1  0
 11 26  1  0
 12 27  1  0
 12 28  1  0
 13 29  1  0
 13 30  1  0
 14 31  1  0
 14 32  1  0
 15 33  1  0
 15 34  1  0
 16 35  1  0
 16 36  1  0
M  CHG  1   4   1
M  END
>  <UniqueID>  (21) 
18

>  <SMILES>  (21) 
C1=CC[N@H+](Cc2coc3c2CCCC3)CC1

>  <Energy>  (21) 
65.81158298809743

>  <Genealogy>  (21) 
C1=CC[NH+](Cc2coc3c2CCCC3)CC1 (protonated)
C1=CC[N@H+](Cc2coc3c2CCCC3)CC1 (chirality)
C1=CC[N@H+](Cc2coc3c2CCCC3)CC1 (3D coordinates assigned)
C1=CC[N@H+](Cc2coc3c2CCCC3)CC1 (nonaromatic ring conformer: 65.81158298809743 kcal/mol)

>  <smiles>  (21) 
C1=CCN(Cc2coc3c2CCCC3)CC1

>  <score_type>  (21) 
oracle

>  <origin>  (21) 
adg

>  <m_score__min__energy>  (21) 
-5.7300000000000004

>  <m_primary>  (21) 
energy

$$$$
21:0
     RDKit          3D

 34 37  0  0  0  0  0  0  0  0999 V2000
   53.8953   24.5981   45.9616 H   0  0  0  0  0  0  0  0  0  0  0  0
   54.7910   24.3280   45.3830 C   0  0  0  0  0  0  0  0  0  0  0  0
   54.8090   23.1440   44.6390 C   0  0  0  0  0  0  0  0  0  0  0  0
   53.9337   22.4779   44.6520 H   0  0  0  0  0  0  0  0  0  0  0  0
   55.9320   22.8000   43.8780 C   0  0  0  0  0  0  0  0  0  0  0  0
   55.9020   21.6000   43.1510 O   0  0  0  0  0  0  0  0  0  0  0  0
   57.0270   20.7460   42.9640 C   0  0  0  0  0  0  0  0  0  0  0  0
   57.4249   20.4439   43.9440 H   0  0  0  0  0  0  0  0  0  0  0  0
   56.7193   19.8520   42.4018 H   0  0  0  0  0  0  0  0  0  0  0  0
   57.8054   21.2827   42.4018 H   0  0  0  0  0  0  0  0  0  0  0  0
   57.0430   23.6650   43.8620 C   0  0  0  0  0  0  0  0  0  0  0  0
   57.9285   23.4092   43.2616 H   0  0  0  0  0  0  0  0  0  0  0  0
   57.0240   24.8480   44.6070 C   0  0  0  0  0  0  0  0  0  0  0  0
   57.8874   25.5289   44.5760 H   0  0  0  0  0  0  0  0  0  0  0  0
   55.9080   25.1700   45.3940 C   0  0  0  0  0  0  0  0  0  0  0  0
   55.8500   26.4090   46.1150 N   0  0  0  0  0  0  0  0  0  0  0  0
   56.6240   27.4490   45.9750 C   0  0  0  0  0  0  0  0  0  0  0  0
   56.1990   28.4850   45.1910 N   0  0  0  0  0  0  0  0  0  0  0  0
   56.9470   29.6140   44.9980 C   0  0  0  0  0  0  0  0  0  0  0  0
   56.4760   30.6470   44.1830 C   0  0  0  0  0  0  0  0  0  0  0  0
   55.4981   30.5548   43.6878 H   0  0  0  0  0  0  0  0  0  0  0  0
   57.2490   31.7990   43.9970 C   0  0  0  0  0  0  0  0  0  0  0  0
   56.8776   32.6100   43.3533 H   0  0  0  0  0  0  0  0  0  0  0  0
   58.4930   31.9230   44.6270 C   0  0  0  0  0  0  0  0  0  0  0  0
   59.0939   32.8321   44.4772 H   0  0  0  0  0  0  0  0  0  0  0  0
   58.9760   30.8970   45.4460 C   0  0  0  0  0  0  0  0  0  0  0  0
   59.9540   30.9976   45.9394 H   0  0  0  0  0  0  0  0  0  0  0  0
   58.2060   29.7380   45.6350 C   0  0  0  0  0  0  0  0  0  0  0  0
   58.6020   28.7020   46.4220 N   0  0  0  0  0  0  0  0  0  0  0  0
   57.8730   27.5980   46.6090 C   0  0  0  0  0  0  0  0  0  0  0  0
   58.4860   26.7780   47.4880 N   0  0  0  0  0  0  0  0  0  0  0  0
   59.6110   27.4100   47.8160 N   0  0  0  0  0  0  0  0  0  0  0  0
   59.6790   28.5680   47.1710 N   0  0  0  0  0  0  0  0  0  0  0  0
   60.4580   29.2560   47.2700 H   0  0  0  0  0  0  0  0  0  0  0  0
  1  2  1  0
  2  3  2  0
  3  4  1  0
  3  5  1  0
  5  6  1  0
  6  7  1  0
  7  8  1  0
  7  9  1  0
  7 10  1  0
  5 11  2  0
 11 12  1  0
 11 13  1  0
 13 14  1  0
 13 15  2  0
 15 16  1  0
 16 17  2  0
 17 18  1  0
 18 19  1  0
 19 20  2  0
 20 21  1  0
 20 22  1  0
 22 23  1  0
 22 24  2  0
 24 25  1  0
 24 26  1  0
 26 27  1  0
 26 28  2  0
 28 29  1  0
 29 30  1  0
 30 31  2  0
 31 32  1  0
 32 33  2  0
 33 34  1  0
 15  2  1  0
 30 17  1  0
 28 19  1  0
 33 29  1  0
M  CHG  2  18  -1  33   1
M  END
>  <UniqueID>  (22) 
19

>  <SMILES>  (22) 
COc1ccc(/N=c2/[n-]c3ccccc3n3[nH+]nnc23)cc1

>  <Energy>  (22) 
101.92420601764314

>  <Genealogy>  (22) 
COc1ccc(N=c2[n-]c3ccccc3n3[nH+]nnc23)cc1 (protonated)
COc1ccc(/N=c2/[n-]c3ccccc3n3[nH+]nnc23)cc1 (cis-trans isomerization)
COc1ccc(/N=c2/[n-]c3ccccc3n3[nH+]nnc23)cc1 (3D coordinates assigned)
COc1ccc(/N=c2/[n-]c3ccccc3n3[nH+]nnc23)cc1 (optimized conformer: 101.92420601764314 kcal/mol)

>  <smiles>  (22) 
COc1ccc(N=c2[nH]c3ccccc3n3nnnc23)cc1

>  <score_type>  (22) 
oracle

>  <origin>  (22) 
adg

>  <m_score__min__energy>  (22) 
-7.8399999999999999

>  <m_primary>  (22) 
energy

$$$$
22:0
     RDKit          3D

 39 40  0  0  0  0  0  0  0  0999 V2000
   58.1350   26.7880   43.5090 C   0  0  0  0  0  0  0  0  0  0  0  0
   58.1670   28.2140   43.9720 C   0  0  0  0  0  0  0  0  0  0  0  0
   59.3480   28.7690   44.4720 C   0  0  0  0  0  0  0  0  0  0  0  0
   59.3510   30.0860   44.9340 C   0  0  0  0  0  0  0  0  0  0  0  0
   58.2110   30.8410   44.9060 N   0  0  0  0  0  0  0  0  0  0  0  0
   58.2570   32.2160   45.4300 C   0  0  0  0  0  0  0  0  0  0  0  0
   58.2210   32.2040   46.9600 C   0  0  0  0  0  0  0  0  0  0  0  0
   59.5780   32.4330   47.5000 N   0  0  0  0  0  0  0  0  0  0  0  0
   59.6860   33.5640   48.4470 C   0  0  0  0  0  0  0  0  0  0  0  0
   60.8140   34.5540   48.0960 C   0  0  0  0  0  0  0  0  0  0  0  0
   62.2230   33.9450   48.1690 C   0  0  0  0  0  0  0  0  0  0  0  0
   62.3970   32.5840   47.4760 C   0  0  0  0  0  0  0  0  0  0  0  0
   61.7810   31.4040   48.2430 C   0  0  0  0  0  0  0  0  0  0  0  0
   60.2900   31.2020   47.9090 C   0  0  0  0  0  0  0  0  0  0  0  0
   57.0330   30.2990   44.4510 C   0  0  0  0  0  0  0  0  0  0  0  0
   55.9690   30.9750   44.4540 O   0  0  0  0  0  0  0  0  0  0  0  0
   56.9970   28.9820   43.9800 C   0  0  0  0  0  0  0  0  0  0  0  0
   58.1200   26.1192   44.3822 H   0  0  0  0  0  0  0  0  0  0  0  0
   57.2328   26.6195   42.9026 H   0  0  0  0  0  0  0  0  0  0  0  0
   59.0287   26.5792   42.9026 H   0  0  0  0  0  0  0  0  0  0  0  0
   60.2707   28.1709   44.5013 H   0  0  0  0  0  0  0  0  0  0  0  0
   60.2819   30.5222   45.3255 H   0  0  0  0  0  0  0  0  0  0  0  0
   59.1846   32.7018   45.0928 H   0  0  0  0  0  0  0  0  0  0  0  0
   57.3834   32.7702   45.0563 H   0  0  0  0  0  0  0  0  0  0  0  0
   57.5489   32.9993   47.3147 H   0  0  0  0  0  0  0  0  0  0  0  0
   57.8559   31.2253   47.3047 H   0  0  0  0  0  0  0  0  0  0  0  0
   58.7311   34.1101   48.4476 H   0  0  0  0  0  0  0  0  0  0  0  0
   59.9239   33.1387   49.4332 H   0  0  0  0  0  0  0  0  0  0  0  0
   60.6475   34.9197   47.0720 H   0  0  0  0  0  0  0  0  0  0  0  0
   60.7756   35.3596   48.8440 H   0  0  0  0  0  0  0  0  0  0  0  0
   62.9224   34.6540   47.7020 H   0  0  0  0  0  0  0  0  0  0  0  0
   62.4172   33.7651   49.2367 H   0  0  0  0  0  0  0  0  0  0  0  0
   61.9214   32.6378   46.4856 H   0  0  0  0  0  0  0  0  0  0  0  0
   63.4790   32.3940   47.4192 H   0  0  0  0  0  0  0  0  0  0  0  0
   62.3293   30.4871   47.9809 H   0  0  0  0  0  0  0  0  0  0  0  0
   61.8575   31.6253   49.3178 H   0  0  0  0  0  0  0  0  0  0  0  0
   60.2181   30.4748   47.0868 H   0  0  0  0  0  0  0  0  0  0  0  0
   59.8073   30.8557   48.8348 H   0  0  0  0  0  0  0  0  0  0  0  0
   56.0520   28.5515   43.6171 H   0  0  0  0  0  0  0  0  0  0  0  0
  1  2  1  0
  2  3  1  0
  3  4  2  0
  4  5  1  0
  5  6  1  0
  6  7  1  0
  7  8  1  0
  8  9  1  0
  9 10  1  0
 10 11  1  0
 11 12  1  0
 12 13  1  0
 13 14  1  0
  5 15  1  0
 15 16  2  0
 15 17  1  0
 17  2  2  0
 14  8  1  0
  1 18  1  0
  1 19  1  0
  1 20  1  0
  3 21  1  0
  4 22  1  0
  6 23  1  0
  6 24  1  0
  7 25  1  0
  7 26  1  0
  9 27  1  0
  9 28  1  0
 10 29  1  0
 10 30  1  0
 11 31  1  0
 11 32  1  0
 12 33  1  0
 12 34  1  0
 13 35  1  0
 13 36  1  0
 14 37  1  0
 14 38  1  0
 17 39  1  0
M  END
>  <UniqueID>  (23) 
20

>  <SMILES>  (23) 
Cc1ccn(CCN2CCCCCC2)c(=O)c1

>  <Energy>  (23) 
47.44692114350792

>  <Genealogy>  (23) 
Cc1ccn(CCN2CCCCCC2)c(=O)c1 (3D coordinates assigned)
Cc1ccn(CCN2CCCCCC2)c(=O)c1 (nonaromatic ring conformer: 47.44692114350792 kcal/mol)

>  <smiles>  (23) 
Cc1ccn(CCN2CCCCCC2)c(=O)c1

>  <score_type>  (23) 
oracle

>  <origin>  (23) 
adg

>  <m_score__min__energy>  (23) 
-4.3600000000000003

>  <m_primary>  (23) 
energy

$$$$
23:0
     RDKit          3D

 49 53  0  0  0  0  0  0  0  0999 V2000
   56.9310   33.4920   46.3900 O   0  0  0  0  0  0  0  0  0  0  0  0
   58.1270   33.0920   46.4180 C   0  0  0  0  0  0  0  0  0  0  0  0
   58.5740   32.0550   45.5380 N   0  0  0  0  0  0  0  0  0  0  0  0
   57.7820   31.3620   44.5620 C   0  0  0  0  0  0  0  0  0  0  0  0
   57.7650   31.8430   43.2460 C   0  0  0  0  0  0  0  0  0  0  0  0
   57.0230   31.1850   42.2600 C   0  0  0  0  0  0  0  0  0  0  0  0
   56.3030   30.0310   42.5810 C   0  0  0  0  0  0  0  0  0  0  0  0
   56.3320   29.5300   43.8840 C   0  0  0  0  0  0  0  0  0  0  0  0
   57.0730   30.1870   44.8730 C   0  0  0  0  0  0  0  0  0  0  0  0
   59.1080   33.7400   47.3540 C   0  0  2  0  0  0  0  0  0  0  0  0
   60.2180   34.5020   46.5750 C   0  0  0  0  0  0  0  0  0  0  0  0
   61.4560   33.7520   46.9240 C   0  0  0  0  0  0  0  0  0  0  0  0
   62.7450   33.9530   46.4280 C   0  0  0  0  0  0  0  0  0  0  0  0
   63.7700   33.0940   46.8570 C   0  0  0  0  0  0  0  0  0  0  0  0
   63.4860   32.0470   47.7530 C   0  0  0  0  0  0  0  0  0  0  0  0
   62.1810   31.8610   48.2350 C   0  0  0  0  0  0  0  0  0  0  0  0
   61.1830   32.7530   47.8200 C   0  0  0  0  0  0  0  0  0  0  0  0
   59.8010   32.7230   48.1530 N   0  0  0  0  0  0  0  0  0  0  0  0
   59.1870   32.0090   49.2400 C   0  0  0  0  0  0  0  0  0  0  0  0
   58.3170   32.5880   49.9470 O   0  0  0  0  0  0  0  0  0  0  0  0
   59.6270   30.6450   49.6120 C   0  0  0  0  0  0  0  0  0  0  0  0
   59.9080   30.3860   50.9600 C   0  0  0  0  0  0  0  0  0  0  0  0
   60.2880   29.1070   51.3620 C   0  0  0  0  0  0  0  0  0  0  0  0
   60.3900   28.1030   50.4530 N   0  0  0  0  0  0  0  0  0  0  0  0
   60.1380   28.3100   49.1280 C   0  0  0  0  0  0  0  0  0  0  0  0
   60.2710   27.2510   48.2150 C   0  0  0  0  0  0  0  0  0  0  0  0
   60.0410   27.4600   46.8550 C   0  0  0  0  0  0  0  0  0  0  0  0
   59.6830   28.7270   46.3920 C   0  0  0  0  0  0  0  0  0  0  0  0
   59.5450   29.7900   47.2860 C   0  0  0  0  0  0  0  0  0  0  0  0
   59.7520   29.5960   48.6680 C   0  0  0  0  0  0  0  0  0  0  0  0
   58.3394   32.7446   42.9866 H   0  0  0  0  0  0  0  0  0  0  0  0
   57.0061   31.5757   41.2319 H   0  0  0  0  0  0  0  0  0  0  0  0
   55.7135   29.5174   41.8072 H   0  0  0  0  0  0  0  0  0  0  0  0
   55.7713   28.6171   44.1337 H   0  0  0  0  0  0  0  0  0  0  0  0
   57.1012   29.7838   45.8961 H   0  0  0  0  0  0  0  0  0  0  0  0
   58.5280   34.4303   47.9841 H   0  0  0  0  0  0  0  0  0  0  0  0
   60.0309   34.4717   45.4915 H   0  0  0  0  0  0  0  0  0  0  0  0
   60.2726   35.5692   46.8361 H   0  0  0  0  0  0  0  0  0  0  0  0
   62.9535   34.7660   45.7170 H   0  0  0  0  0  0  0  0  0  0  0  0
   64.7972   33.2401   46.4917 H   0  0  0  0  0  0  0  0  0  0  0  0
   64.2908   31.3709   48.0774 H   0  0  0  0  0  0  0  0  0  0  0  0
   61.9471   31.0346   48.9223 H   0  0  0  0  0  0  0  0  0  0  0  0
   59.8285   31.1938   51.7024 H   0  0  0  0  0  0  0  0  0  0  0  0
   60.5066   28.9094   52.4218 H   0  0  0  0  0  0  0  0  0  0  0  0
   60.6770   27.1560   50.7920 H   0  0  0  0  0  0  0  0  0  0  0  0
   60.5580   26.2517   48.5742 H   0  0  0  0  0  0  0  0  0  0  0  0
   60.1420   26.6248   46.1464 H   0  0  0  0  0  0  0  0  0  0  0  0
   59.5088   28.8886   45.3180 H   0  0  0  0  0  0  0  0  0  0  0  0
   59.2726   30.7872   46.9099 H   0  0  0  0  0  0  0  0  0  0  0  0
  1  2  2  0
  2  3  1  0
  3  4  1  0
  4  5  2  0
  5  6  1  0
  6  7  2  0
  7  8  1  0
  8  9  2  0
  2 10  1  0
 10 11  1  0
 11 12  1  0
 12 13  2  0
 13 14  1  0
 14 15  2  0
 15 16  1  0
 16 17  2  0
 17 18  1  0
 18 19  1  0
 19 20  2  0
 19 21  1  0
 21 22  2  0
 22 23  1  0
 23 24  2  0
 24 25  1  0
 25 26  2  0
 26 27  1  0
 27 28  2  0
 28 29  1  0
 29 30  2  0
  9  4  1  0
 18 10  1  0
 30 21  1  0
 17 12  1  0
 30 25  1  0
  5 31  1  0
  6 32  1  0
  7 33  1  0
  8 34  1  0
  9 35  1  0
 10 36  1  1
 11 37  1  0
 11 38  1  0
 13 39  1  0
 14 40  1  0
 15 41  1  0
 16 42  1  0
 22 43  1  0
 23 44  1  0
 24 45  1  0
 26 46  1  0
 27 47  1  0
 28 48  1  0
 29 49  1  0
M  CHG  2   3  -1  24   1
M  END
>  <UniqueID>  (24) 
21

>  <SMILES>  (24) 
O=C([N-]c1ccccc1)[C@@H]1Cc2ccccc2N1C(=O)c1cc[nH+]c2ccccc12

>  <Energy>  (24) 
85.97648636502929

>  <Genealogy>  (24) 
O=C([N-]c1ccccc1)C1Cc2ccccc2N1C(=O)c1cc[nH+]c2ccccc12 (protonated)
O=C([N-]c1ccccc1)[C@@H]1Cc2ccccc2N1C(=O)c1cc[nH+]c2ccccc12 (chirality)
O=C([N-]c1ccccc1)[C@@H]1Cc2ccccc2N1C(=O)c1cc[nH+]c2ccccc12 (3D coordinates assigned)
O=C([N-]c1ccccc1)[C@@H]1Cc2ccccc2N1C(=O)c1cc[nH+]c2ccccc12 (nonaromatic ring conformer: 85.97648636502929 kcal/mol)

>  <smiles>  (24) 
O=C(Nc1ccccc1)C1Cc2ccccc2N1C(=O)c1ccnc2ccccc12

>  <score_type>  (24) 
oracle

>  <origin>  (24) 
adg

>  <m_score__min__energy>  (24) 
-8.8000000000000007

>  <m_primary>  (24) 
energy

$$$$
24:0
     RDKit          3D

 28 29  0  0  0  0  0  0  0  0999 V2000
   57.1220   28.0440   45.4020 C   0  0  0  0  0  0  0  0  0  0  0  0
   55.9200   28.7800   45.2120 O   0  0  0  0  0  0  0  0  0  0  0  0
   55.7410   29.6750   44.1520 C   0  0  0  0  0  0  0  0  0  0  0  0
   54.7730   29.5270   43.3560 O   0  0  0  0  0  0  0  0  0  0  0  0
   56.6920   30.7950   43.9680 C   0  0  0  0  0  0  0  0  0  0  0  0
   57.0430   31.2250   42.6780 C   0  0  0  0  0  0  0  0  0  0  0  0
   57.9410   32.2770   42.5230 C   0  0  0  0  0  0  0  0  0  0  0  0
   58.4860   32.8970   43.6450 C   0  0  0  0  0  0  0  0  0  0  0  0
   58.1230   32.4550   44.9280 C   0  0  0  0  0  0  0  0  0  0  0  0
   58.6880   33.1120   46.1340 C   0  0  0  0  0  0  0  0  0  0  0  0
   59.2960   34.3780   46.0450 C   0  0  0  0  0  0  0  0  0  0  0  0
   59.8270   34.9890   47.1850 C   0  0  0  0  0  0  0  0  0  0  0  0
   59.7580   34.3460   48.4220 C   0  0  0  0  0  0  0  0  0  0  0  0
   59.1570   33.0890   48.5230 C   0  0  0  0  0  0  0  0  0  0  0  0
   58.6250   32.4730   47.3860 C   0  0  0  0  0  0  0  0  0  0  0  0
   57.2390   31.4190   45.0550 N   0  0  0  0  0  0  0  0  0  0  0  0
   57.3137   27.9266   46.4788 H   0  0  0  0  0  0  0  0  0  0  0  0
   57.0220   27.0521   44.9371 H   0  0  0  0  0  0  0  0  0  0  0  0
   57.9600   28.5840   44.9371 H   0  0  0  0  0  0  0  0  0  0  0  0
   56.6104   30.7328   41.7945 H   0  0  0  0  0  0  0  0  0  0  0  0
   58.2201   32.6185   41.5153 H   0  0  0  0  0  0  0  0  0  0  0  0
   59.1968   33.7282   43.5270 H   0  0  0  0  0  0  0  0  0  0  0  0
   59.3538   34.8898   45.0730 H   0  0  0  0  0  0  0  0  0  0  0  0
   60.3003   35.9789   47.1069 H   0  0  0  0  0  0  0  0  0  0  0  0
   60.1768   34.8290   49.3172 H   0  0  0  0  0  0  0  0  0  0  0  0
   59.1022   32.5831   49.4982 H   0  0  0  0  0  0  0  0  0  0  0  0
   58.1542   31.4825   47.4709 H   0  0  0  0  0  0  0  0  0  0  0  0
   56.9930   31.0800   46.0120 H   0  0  0  0  0  0  0  0  0  0  0  0
  1  2  1  0
  2  3  1  0
  3  4  2  0
  3  5  1  0
  5  6  2  0
  6  7  1  0
  7  8  2  0
  8  9  1  0
  9 10  1  0
 10 11  2  0
 11 12  1  0
 12 13  2  0
 13 14  1  0
 14 15  2  0
  9 16  2  0
 16  5  1  0
 15 10  1  0
  1 17  1  0
  1 18  1  0
  1 19  1  0
  6 20  1  0
  7 21  1  0
  8 22  1  0
 11 23  1  0
 12 24  1  0
 13 25  1  0
 14 26  1  0
 15 27  1  0
 16 28  1  0
M  CHG  1  16   1
M  END
>  <UniqueID>  (25) 
22

>  <SMILES>  (25) 
COC(=O)c1cccc(-c2ccccc2)[nH+]1

>  <Energy>  (25) 
32.01136218595545

>  <Genealogy>  (25) 
COC(=O)c1cccc(-c2ccccc2)[nH+]1 (protonated)
COC(=O)c1cccc(-c2ccccc2)[nH+]1 (3D coordinates assigned)
COC(=O)c1cccc(-c2ccccc2)[nH+]1 (optimized conformer: 32.01136218595545 kcal/mol)

>  <smiles>  (25) 
COC(=O)c1cccc(-c2ccccc2)n1

>  <score_type>  (25) 
oracle

>  <origin>  (25) 
adg

>  <m_score__min__energy>  (25) 
-5.1500000000000004

>  <m_primary>  (25) 
energy

$$$$
25:0
     RDKit          3D

 52 54  0  0  0  0  0  0  0  0999 V2000
   58.0730   26.7410   42.6370 C   0  0  0  0  0  0  0  0  0  0  0  0
   58.3600   27.6940   43.7510 C   0  0  0  0  0  0  0  0  0  0  0  0
   59.2720   27.4750   44.6800 O   0  0  0  0  0  0  0  0  0  0  0  0
   59.2580   28.4980   45.5000 C   0  0  0  0  0  0  0  0  0  0  0  0
   60.0480   28.6850   46.6300 C   0  0  0  0  0  0  0  0  0  0  0  0
   59.8600   29.8600   47.3770 C   0  0  0  0  0  0  0  0  0  0  0  0
   58.8970   30.8140   46.9840 C   0  0  0  0  0  0  0  0  0  0  0  0
   58.1040   30.6030   45.8290 C   0  0  0  0  0  0  0  0  0  0  0  0
   57.1350   31.5160   45.3850 O   0  0  0  0  0  0  0  0  0  0  0  0
   57.3870   32.6650   44.5780 C   0  0  0  0  0  0  0  0  0  0  0  0
   57.4370   33.9460   45.4260 C   0  0  0  0  0  0  0  0  0  0  0  0
   58.8590   34.3310   45.8780 C   0  0  0  0  0  0  0  0  0  0  0  0
   59.1470   34.0330   47.3600 C   0  0  0  0  0  0  0  0  0  0  0  0
   60.5560   33.6400   47.5700 N   0  0  0  0  0  0  0  0  0  0  0  0
   61.1320   34.2750   48.7700 C   0  0  0  0  0  0  0  0  0  0  0  0
   62.4670   33.6030   49.1370 C   0  0  0  0  0  0  0  0  0  0  0  0
   63.2220   33.0430   47.9050 C   0  0  0  0  0  0  0  0  0  0  0  0
   62.9390   31.5460   47.6940 C   0  0  0  0  0  0  0  0  0  0  0  0
   62.8900   33.8590   46.6410 C   0  0  0  0  0  0  0  0  0  0  0  0
   61.3700   33.9520   46.3730 C   0  0  0  0  0  0  0  0  0  0  0  0
   58.3220   29.4230   45.1110 C   0  0  0  0  0  0  0  0  0  0  0  0
   57.7240   28.9160   43.9730 C   0  0  0  0  0  0  0  0  0  0  0  0
   56.6170   29.5340   43.1760 C   0  0  0  0  0  0  0  0  0  0  0  0
   57.7795   25.7666   43.0545 H   0  0  0  0  0  0  0  0  0  0  0  0
   57.2541   27.1363   42.0181 H   0  0  0  0  0  0  0  0  0  0  0  0
   58.9741   26.6184   42.0181 H   0  0  0  0  0  0  0  0  0  0  0  0
   60.7963   27.9363   46.9291 H   0  0  0  0  0  0  0  0  0  0  0  0
   60.4686   30.0379   48.2759 H   0  0  0  0  0  0  0  0  0  0  0  0
   58.7610   31.7289   47.5793 H   0  0  0  0  0  0  0  0  0  0  0  0
   58.3517   32.5375   44.0651 H   0  0  0  0  0  0  0  0  0  0  0  0
   56.5680   32.7633   43.8503 H   0  0  0  0  0  0  0  0  0  0  0  0
   57.0253   34.7739   44.8301 H   0  0  0  0  0  0  0  0  0  0  0  0
   56.8500   33.7537   46.3362 H   0  0  0  0  0  0  0  0  0  0  0  0
   59.5803   33.7698   45.2658 H   0  0  0  0  0  0  0  0  0  0  0  0
   58.9502   35.4196   45.7488 H   0  0  0  0  0  0  0  0  0  0  0  0
   58.9352   34.9346   47.9535 H   0  0  0  0  0  0  0  0  0  0  0  0
   58.5051   33.1970   47.6748 H   0  0  0  0  0  0  0  0  0  0  0  0
   61.3056   35.3424   48.5686 H   0  0  0  0  0  0  0  0  0  0  0  0
   60.4298   34.1609   49.6090 H   0  0  0  0  0  0  0  0  0  0  0  0
   63.1086   34.3460   49.6333 H   0  0  0  0  0  0  0  0  0  0  0  0
   62.2371   32.7530   49.7963 H   0  0  0  0  0  0  0  0  0  0  0  0
   64.2995   33.1430   48.1026 H   0  0  0  0  0  0  0  0  0  0  0  0
   62.8451   31.0493   48.6710 H   0  0  0  0  0  0  0  0  0  0  0  0
   62.0022   31.4259   47.1301 H   0  0  0  0  0  0  0  0  0  0  0  0
   63.7673   31.0922   47.1301 H   0  0  0  0  0  0  0  0  0  0  0  0
   63.2885   34.8768   46.7644 H   0  0  0  0  0  0  0  0  0  0  0  0
   63.3477   33.3442   45.7834 H   0  0  0  0  0  0  0  0  0  0  0  0
   61.1331   34.9745   46.0437 H   0  0  0  0  0  0  0  0  0  0  0  0
   61.1236   33.2074   45.6017 H   0  0  0  0  0  0  0  0  0  0  0  0
   55.8640   29.9544   43.8589 H   0  0  0  0  0  0  0  0  0  0  0  0
   57.0247   30.3350   42.5418 H   0  0  0  0  0  0  0  0  0  0  0  0
   56.1491   28.7666   42.5418 H   0  0  0  0  0  0  0  0  0  0  0  0
  1  2  1  0
  2  3  1  0
  3  4  1  0
  4  5  2  0
  5  6  1  0
  6  7  2  0
  7  8  1  0
  8  9  1  0
  9 10  1  0
 10 11  1  0
 11 12  1  0
 12 13  1  0
 13 14  1  0
 14 15  1  0
 15 16  1  0
 16 17  1  0
 17 18  1  0
 17 19  1  0
 19 20  1  0
  8 21  2  0
 21 22  1  0
 22 23  1  0
 22  2  2  0
 21  4  1  0
 20 14  1  0
  1 24  1  0
  1 25  1  0
  1 26  1  0
  5 27  1  0
  6 28  1  0
  7 29  1  0
 10 30  1  0
 10 31  1  0
 11 32  1  0
 11 33  1  0
 12 34  1  0
 12 35  1  0
 13 36  1  0
 13 37  1  0
 15 38  1  0
 15 39  1  0
 16 40  1  0
 16 41  1  0
 17 42  1  0
 18 43  1  0
 18 44  1  0
 18 45  1  0
 19 46  1  0
 19 47  1  0
 20 48  1  0
 20 49  1  0
 23 50  1  0
 23 51  1  0
 23 52  1  0
M  END
>  <UniqueID>  (26) 
23

>  <SMILES>  (26) 
Cc1oc2cccc(OCCCCN3CCC(C)CC3)c2c1C

>  <Energy>  (26) 
83.9556320496031

>  <Genealogy>  (26) 
Cc1oc2cccc(OCCCCN3CCC(C)CC3)c2c1C (3D coordinates assigned)
Cc1oc2cccc(OCCCCN3CCC(C)CC3)c2c1C (nonaromatic ring conformer: 83.9556320496031 kcal/mol)

>  <smiles>  (26) 
Cc1oc2cccc(OCCCCN3CCC(C)CC3)c2c1C

>  <score_type>  (26) 
oracle

>  <origin>  (26) 
adg

>  <m_score__min__energy>  (26) 
-7.9299999999999997

>  <m_primary>  (26) 
energy

$$$$
26:0
     RDKit          3D

 31 33  0  0  0  0  0  0  0  0999 V2000
   59.2510   31.8480   47.4950 C   0  0  0  0  0  0  0  0  0  0  0  0
   58.5480   32.7560   46.5280 C   0  0  0  0  0  0  0  0  0  0  0  0
   57.7640   32.3770   45.4460 C   0  0  0  0  0  0  0  0  0  0  0  0
   57.4100   31.0290   44.9610 C   0  0  0  0  0  0  0  0  0  0  0  0
   57.6960   29.9040   45.6520 N   0  0  0  0  0  0  0  0  0  0  0  0
   57.2750   28.7750   45.0160 C   0  0  0  0  0  0  0  0  0  0  0  0
   57.5200   27.4300   45.5910 C   0  0  0  0  0  0  0  0  0  0  0  0
   58.8450   26.9770   45.7240 C   0  0  0  0  0  0  0  0  0  0  0  0
   59.1140   25.7120   46.2540 C   0  0  0  0  0  0  0  0  0  0  0  0
   58.0650   24.8880   46.6660 C   0  0  0  0  0  0  0  0  0  0  0  0
   56.7460   25.3310   46.5580 C   0  0  0  0  0  0  0  0  0  0  0  0
   56.4670   26.5990   46.0330 C   0  0  0  0  0  0  0  0  0  0  0  0
   55.1440   27.0260   45.9860 O   0  0  0  0  0  0  0  0  0  0  0  0
   56.6560   28.9990   43.7850 C   0  0  0  0  0  0  0  0  0  0  0  0
   56.6320   30.6570   43.5160 S   0  0  0  0  0  0  0  0  0  0  0  0
   57.3510   33.5670   44.8760 C   0  0  0  0  0  0  0  0  0  0  0  0
   57.8570   34.6010   45.5740 N   0  0  0  0  0  0  0  0  0  0  0  0
   58.5770   34.1070   46.5680 N   0  0  0  0  0  0  0  0  0  0  0  0
   59.2800   34.9420   47.5360 C   0  0  0  0  0  0  0  0  0  0  0  0
   59.0137   32.1544   48.5245 H   0  0  0  0  0  0  0  0  0  0  0  0
   58.9170   30.8123   47.3345 H   0  0  0  0  0  0  0  0  0  0  0  0
   60.3374   31.9120   47.3345 H   0  0  0  0  0  0  0  0  0  0  0  0
   59.6767   27.6239   45.4081 H   0  0  0  0  0  0  0  0  0  0  0  0
   60.1538   25.3651   46.3466 H   0  0  0  0  0  0  0  0  0  0  0  0
   58.2781   23.8896   47.0757 H   0  0  0  0  0  0  0  0  0  0  0  0
   55.9216   24.6811   46.8868 H   0  0  0  0  0  0  0  0  0  0  0  0
   56.2553   28.2273   43.1112 H   0  0  0  0  0  0  0  0  0  0  0  0
   56.7076   33.6554   43.9882 H   0  0  0  0  0  0  0  0  0  0  0  0
   59.0135   34.6255   48.5552 H   0  0  0  0  0  0  0  0  0  0  0  0
   60.3653   34.8366   47.3913 H   0  0  0  0  0  0  0  0  0  0  0  0
   58.9912   35.9935   47.3913 H   0  0  0  0  0  0  0  0  0  0  0  0
  1  2  1  0
  2  3  2  0
  3  4  1  0
  4  5  2  0
  5  6  1  0
  6  7  1  0
  7  8  2  0
  8  9  1  0
  9 10  2  0
 10 11  1  0
 11 12  2  0
 12 13  1  0
  6 14  2  0
 14 15  1  0
  3 16  1  0
 16 17  2  0
 17 18  1  0
 18 19  1  0
 18  2  1  0
 15  4  1  0
 12  7  1  0
  1 20  1  0
  1 21  1  0
  1 22  1  0
  8 23  1  0
  9 24  1  0
 10 25  1  0
 11 26  1  0
 14 27  1  0
 16 28  1  0
 19 29  1  0
 19 30  1  0
 19 31  1  0
M  CHG  1  13  -1
M  END
>  <UniqueID>  (27) 
24

>  <SMILES>  (27) 
Cc1c(-c2nc(-c3ccccc3[O-])cs2)cnn1C

>  <Energy>  (27) 
97.57549769517527

>  <Genealogy>  (27) 
Cc1c(-c2nc(-c3ccccc3[O-])cs2)cnn1C (protonated)
Cc1c(-c2nc(-c3ccccc3[O-])cs2)cnn1C (3D coordinates assigned)
Cc1c(-c2nc(-c3ccccc3[O-])cs2)cnn1C (optimized conformer: 97.57549769517527 kcal/mol)

>  <smiles>  (27) 
Cc1c(-c2nc(-c3ccccc3O)cs2)cnn1C

>  <score_type>  (27) 
oracle

>  <origin>  (27) 
adg

>  <m_score__min__energy>  (27) 
-10.949999999999999

>  <m_primary>  (27) 
energy

$$$$
27:0
     RDKit          3D

 55 59  0  0  0  0  0  0  0  0999 V2000
   60.8470   29.9220   46.9710 O   0  0  0  0  0  0  0  0  0  0  0  0
   61.0420   30.0100   48.2130 C   0  0  0  0  0  0  0  0  0  0  0  0
   60.6110   28.9520   49.0840 N   0  0  0  0  0  0  0  0  0  0  0  0
   59.7950   27.8270   48.6140 C   0  0  0  0  0  0  0  0  0  0  0  0
   58.5920   28.3530   47.7960 C   0  0  0  0  0  0  0  0  0  0  0  0
   58.1270   27.3140   46.7670 C   0  0  0  0  0  0  0  0  0  0  0  0
   59.2000   26.9520   45.8070 N   0  0  0  0  0  0  0  0  0  0  0  0
   58.9950   27.4650   44.4330 C   0  0  0  0  0  0  0  0  0  0  0  0
   58.3280   28.8260   44.3800 C   0  0  0  0  0  0  0  0  0  0  0  0
   56.9450   28.9390   44.1480 C   0  0  0  0  0  0  0  0  0  0  0  0
   56.3350   30.1960   44.1070 C   0  0  0  0  0  0  0  0  0  0  0  0
   57.0990   31.3520   44.2810 C   0  0  0  0  0  0  0  0  0  0  0  0
   58.4780   31.2520   44.4860 C   0  0  0  0  0  0  0  0  0  0  0  0
   59.0920   29.9970   44.5270 C   0  0  0  0  0  0  0  0  0  0  0  0
   60.5840   27.1280   46.3060 C   0  0  0  0  0  0  0  0  0  0  0  0
   60.6720   26.8410   47.8080 C   0  0  0  0  0  0  0  0  0  0  0  0
   61.6930   31.2190   48.7640 C   0  0  0  0  0  0  0  0  0  0  0  0
   62.7880   31.1910   49.6560 C   0  0  0  0  0  0  0  0  0  0  0  0
   62.9720   32.5160   49.9500 C   0  0  0  0  0  0  0  0  0  0  0  0
   63.7860   33.2450   50.6630 O   0  0  0  0  0  0  0  0  0  0  0  0
   63.4020   34.5050   50.4600 C   0  0  0  0  0  0  0  0  0  0  0  0
   62.3030   34.5670   49.5810 C   0  0  0  0  0  0  0  0  0  0  0  0
   62.0840   33.2410   49.3130 C   0  0  0  0  0  0  0  0  0  0  0  0
   61.2620   32.5060   48.5520 N   0  0  0  0  0  0  0  0  0  0  0  0
   60.2460   32.9970   47.6620 C   0  0  0  0  0  0  0  0  0  0  0  0
   58.8930   32.7290   47.9210 C   0  0  0  0  0  0  0  0  0  0  0  0
   57.9010   33.2230   47.0680 C   0  0  0  0  0  0  0  0  0  0  0  0
   58.2520   33.9940   45.9560 C   0  0  0  0  0  0  0  0  0  0  0  0
   57.0080   34.6140   44.8870 Cl  0  0  0  0  0  0  0  0  0  0  0  0
   59.5990   34.2750   45.6990 C   0  0  0  0  0  0  0  0  0  0  0  0
   60.5920   33.7830   46.5510 C   0  0  0  0  0  0  0  0  0  0  0  0
   60.7600   29.0560   50.1130 H   0  0  0  0  0  0  0  0  0  0  0  0
   59.3878   27.2743   49.4735 H   0  0  0  0  0  0  0  0  0  0  0  0
   57.7614   28.5762   48.4817 H   0  0  0  0  0  0  0  0  0  0  0  0
   58.9047   29.2607   47.2591 H   0  0  0  0  0  0  0  0  0  0  0  0
   57.8084   26.4061   47.3002 H   0  0  0  0  0  0  0  0  0  0  0  0
   57.2981   27.7554   46.1942 H   0  0  0  0  0  0  0  0  0  0  0  0
   59.9760   27.5404   43.9412 H   0  0  0  0  0  0  0  0  0  0  0  0
   58.3219   26.7588   43.9249 H   0  0  0  0  0  0  0  0  0  0  0  0
   56.3400   28.0326   43.9980 H   0  0  0  0  0  0  0  0  0  0  0  0
   55.2510   30.2748   43.9373 H   0  0  0  0  0  0  0  0  0  0  0  0
   56.6161   32.3400   44.2567 H   0  0  0  0  0  0  0  0  0  0  0  0
   59.0812   32.1627   44.6153 H   0  0  0  0  0  0  0  0  0  0  0  0
   60.1796   29.9251   44.6752 H   0  0  0  0  0  0  0  0  0  0  0  0
   61.2497   26.4363   45.7689 H   0  0  0  0  0  0  0  0  0  0  0  0
   60.8868   28.1711   46.1324 H   0  0  0  0  0  0  0  0  0  0  0  0
   60.3267   25.8142   47.9987 H   0  0  0  0  0  0  0  0  0  0  0  0
   61.7179   26.9618   48.1267 H   0  0  0  0  0  0  0  0  0  0  0  0
   63.3526   30.3213   50.0232 H   0  0  0  0  0  0  0  0  0  0  0  0
   63.8810   35.3824   50.9191 H   0  0  0  0  0  0  0  0  0  0  0  0
   61.7621   35.4490   49.2075 H   0  0  0  0  0  0  0  0  0  0  0  0
   58.6117   32.1281   48.7983 H   0  0  0  0  0  0  0  0  0  0  0  0
   56.8425   33.0045   47.2725 H   0  0  0  0  0  0  0  0  0  0  0  0
   59.8764   34.8836   44.8257 H   0  0  0  0  0  0  0  0  0  0  0  0
   61.6489   34.0125   46.3503 H   0  0  0  0  0  0  0  0  0  0  0  0
  1  2  2  0
  2  3  1  0
  3  4  1  0
  4  5  1  0
  5  6  1  0
  6  7  1  0
  7  8  1  0
  8  9  1  0
  9 10  2  0
 10 11  1  0
 11 12  2  0
 12 13  1  0
 13 14  2  0
  7 15  1  0
 15 16  1  0
  2 17  1  0
 17 18  2  0
 18 19  1  0
 19 20  1  0
 20 21  1  0
 21 22  2  0
 22 23  1  0
 23 24  1  0
 24 25  1  0
 25 26  2  0
 26 27  1  0
 27 28  2  0
 28 29  1  0
 28 30  1  0
 30 31  2  0
 16  4  1  0
 24 17  1  0
 31 25  1  0
 14  9  1  0
 23 19  2  0
  3 32  1  0
  4 33  1  0
  5 34  1  0
  5 35  1  0
  6 36  1  0
  6 37  1  0
  8 38  1  0
  8 39  1  0
 10 40  1  0
 11 41  1  0
 12 42  1  0
 13 43  1  0
 14 44  1  0
 15 45  1  0
 15 46  1  0
 16 47  1  0
 16 48  1  0
 18 49  1  0
 21 50  1  0
 22 51  1  0
 26 52  1  0
 27 53  1  0
 30 54  1  0
 31 55  1  0
M  END
>  <UniqueID>  (28) 
25

>  <SMILES>  (28) 
O=C(NC1CCN(Cc2ccccc2)CC1)c1cc2occc2n1-c1ccc(Cl)cc1

>  <Energy>  (28) 
161.23388178822518

>  <Genealogy>  (28) 
O=C(NC1CCN(Cc2ccccc2)CC1)c1cc2occc2n1-c1ccc(Cl)cc1 (3D coordinates assigned)
O=C(NC1CCN(Cc2ccccc2)CC1)c1cc2occc2n1-c1ccc(Cl)cc1 (nonaromatic ring conformer: 161.23388178822518 kcal/mol)

>  <smiles>  (28) 
O=C(NC1CCN(Cc2ccccc2)CC1)c1cc2occc2n1-c1ccc(Cl)cc1

>  <score_type>  (28) 
oracle

>  <origin>  (28) 
adg

>  <m_score__min__energy>  (28) 
-8.6799999999999997

>  <m_primary>  (28) 
energy

$$$$
28:0
     RDKit          3D

 44 45  0  0  0  0  0  0  0  0999 V2000
   57.7850   27.8360   43.3440 C   0  0  0  0  0  0  0  0  0  0  0  0
   57.0210   29.0130   43.1120 O   0  0  0  0  0  0  0  0  0  0  0  0
   56.4060   29.7260   44.1440 C   0  0  0  0  0  0  0  0  0  0  0  0
   55.3890   29.2570   44.7270 O   0  0  0  0  0  0  0  0  0  0  0  0
   56.9380   31.0900   44.5160 C   0  0  2  0  0  0  0  0  0  0  0  0
   57.6660   31.7940   43.3840 C   0  0  0  0  0  0  0  0  0  0  0  0
   57.2800   31.5990   41.9450 C   0  0  0  0  0  0  0  0  0  0  0  0
   58.5230   32.7330   43.6590 N   0  0  0  0  0  0  0  0  0  0  0  0
   58.9090   33.1020   44.9930 C   0  0  0  0  0  0  0  0  0  0  0  0
   59.7280   34.3500   45.1620 C   0  0  0  0  0  0  0  0  0  0  0  0
   58.5260   32.3450   46.0470 C   0  0  0  0  0  0  0  0  0  0  0  0
   58.8070   32.7470   47.4470 C   0  0  0  0  0  0  0  0  0  0  0  0
   58.4350   33.8770   47.8630 O   0  0  0  0  0  0  0  0  0  0  0  0
   59.4530   31.8420   48.3480 N   0  0  0  0  0  0  0  0  0  0  0  0
   60.8720   31.5390   48.1580 C   0  0  0  0  0  0  0  0  0  0  0  0
   58.7230   31.3640   49.5210 C   0  0  0  0  0  0  0  0  0  0  0  0
   57.8080   31.0300   45.8030 C   0  0  2  0  0  0  0  0  0  0  0  0
   58.7950   29.8690   45.8190 C   0  0  0  0  0  0  0  0  0  0  0  0
   59.7980   29.7380   44.8410 C   0  0  0  0  0  0  0  0  0  0  0  0
   60.6790   28.6560   44.8940 C   0  0  0  0  0  0  0  0  0  0  0  0
   60.5690   27.7320   45.8840 N   0  0  0  0  0  0  0  0  0  0  0  0
   59.6090   27.8270   46.8410 C   0  0  0  0  0  0  0  0  0  0  0  0
   58.7050   28.8910   46.8250 C   0  0  0  0  0  0  0  0  0  0  0  0
   57.8899   27.6745   44.4270 H   0  0  0  0  0  0  0  0  0  0  0  0
   57.2747   26.9726   42.8922 H   0  0  0  0  0  0  0  0  0  0  0  0
   58.7814   27.9506   42.8922 H   0  0  0  0  0  0  0  0  0  0  0  0
   56.0520   31.7068   44.7272 H   0  0  0  0  0  0  0  0  0  0  0  0
   56.2993   31.1036   41.8923 H   0  0  0  0  0  0  0  0  0  0  0  0
   57.2241   32.5770   41.4446 H   0  0  0  0  0  0  0  0  0  0  0  0
   58.0340   30.9737   41.4446 H   0  0  0  0  0  0  0  0  0  0  0  0
   59.8639   34.5571   46.2338 H   0  0  0  0  0  0  0  0  0  0  0  0
   60.7108   34.2106   44.6880 H   0  0  0  0  0  0  0  0  0  0  0  0
   59.2090   35.1961   44.6880 H   0  0  0  0  0  0  0  0  0  0  0  0
   61.3592   31.4350   49.1387 H   0  0  0  0  0  0  0  0  0  0  0  0
   60.9742   30.5988   47.5962 H   0  0  0  0  0  0  0  0  0  0  0  0
   61.3493   32.3555   47.5962 H   0  0  0  0  0  0  0  0  0  0  0  0
   59.2361   31.7000   50.4342 H   0  0  0  0  0  0  0  0  0  0  0  0
   57.6998   31.7676   49.5057 H   0  0  0  0  0  0  0  0  0  0  0  0
   58.6838   30.2648   49.5057 H   0  0  0  0  0  0  0  0  0  0  0  0
   57.1030   30.8503   46.6281 H   0  0  0  0  0  0  0  0  0  0  0  0
   59.8877   30.4847   44.0382 H   0  0  0  0  0  0  0  0  0  0  0  0
   61.4649   28.5513   44.1315 H   0  0  0  0  0  0  0  0  0  0  0  0
   59.5439   27.0637   47.6304 H   0  0  0  0  0  0  0  0  0  0  0  0
   57.9249   28.9638   47.5971 H   0  0  0  0  0  0  0  0  0  0  0  0
  1  2  1  0
  2  3  1  0
  3  4  2  0
  3  5  1  0
  5  6  1  0
  6  7  1  0
  6  8  2  0
  8  9  1  0
  9 10  1  0
  9 11  2  0
 11 12  1  0
 12 13  2  0
 12 14  1  0
 14 15  1  0
 14 16  1  0
 11 17  1  0
 17 18  1  0
 18 19  2  0
 19 20  1  0
 20 21  2  0
 21 22  1  0
 22 23  2  0
 17  5  1  0
 23 18  1  0
  1 24  1  0
  1 25  1  0
  1 26  1  0
  5 27  1  1
  7 28  1  0
  7 29  1  0
  7 30  1  0
 10 31  1  0
 10 32  1  0
 10 33  1  0
 15 34  1  0
 15 35  1  0
 15 36  1  0
 16 37  1  0
 16 38  1  0
 16 39  1  0
 17 40  1  1
 19 41  1  0
 20 42  1  0
 22 43  1  0
 23 44  1  0
M  END
>  <UniqueID>  (29) 
26

>  <SMILES>  (29) 
COC(=O)[C@@H]1C(C)=NC(C)=C(C(=O)N(C)C)[C@@H]1c1ccncc1

>  <Energy>  (29) 
51.287426451677064

>  <Genealogy>  (29) 
COC(=O)[C@@H]1C(C)=NC(C)=C(C(=O)N(C)C)[C@@H]1c1ccncc1 (chirality)
COC(=O)[C@@H]1C(C)=NC(C)=C(C(=O)N(C)C)[C@@H]1c1ccncc1 (3D coordinates assigned)
COC(=O)[C@@H]1C(C)=NC(C)=C(C(=O)N(C)C)[C@@H]1c1ccncc1 (nonaromatic ring conformer: 51.287426451677064 kcal/mol)

>  <smiles>  (29) 
COC(=O)C1C(C)=NC(C)=C(C(=O)N(C)C)C1c1ccncc1

>  <score_type>  (29) 
oracle

>  <origin>  (29) 
adg

>  <m_score__min__energy>  (29) 
-6.8499999999999996

>  <m_primary>  (29) 
energy

$$$$
29:0
     RDKit          3D

 38 40  0  0  0  0  0  0  0  0999 V2000
   57.4580   32.0100   41.3180 C   0  0  0  0  0  0  0  0  0  0  0  0
   57.7580   32.3450   42.6300 N   0  0  0  0  0  0  0  0  0  0  0  0
   58.0490   32.6690   43.8980 C   0  0  0  0  0  0  0  0  0  0  0  0
   58.5010   33.8220   44.4870 C   0  0  0  0  0  0  0  0  0  0  0  0
   58.7540   33.9650   45.8290 C   0  0  0  0  0  0  0  0  0  0  0  0
   58.5510   32.9120   46.6440 C   0  0  0  0  0  0  0  0  0  0  0  0
   58.1070   31.7290   46.1640 C   0  0  0  0  0  0  0  0  0  0  0  0
   57.8590   31.5950   44.8340 C   0  0  0  0  0  0  0  0  0  0  0  0
   57.3950   30.3340   44.3730 N   0  0  0  0  0  0  0  0  0  0  0  0
   55.9900   30.0440   44.1300 C   0  0  0  0  0  0  0  0  0  0  0  0
   58.3920   29.2790   44.1300 C   0  0  0  0  0  0  0  0  0  0  0  0
   58.1810   28.1010   45.0020 C   0  0  0  0  0  0  0  0  0  0  0  0
   58.8650   28.1080   46.2190 C   0  0  0  0  0  0  0  0  0  0  0  0
   58.7540   27.0680   47.1260 C   0  0  0  0  0  0  0  0  0  0  0  0
   57.9240   26.0050   46.7720 C   0  0  0  0  0  0  0  0  0  0  0  0
   57.2590   26.0250   45.5600 C   0  0  0  0  0  0  0  0  0  0  0  0
   57.3870   27.0630   44.6840 N   0  0  0  0  0  0  0  0  0  0  0  0
   58.8780   33.3130   47.9220 O   0  0  0  0  0  0  0  0  0  0  0  0
   59.6010   34.5250   47.8630 C   0  0  0  0  0  0  0  0  0  0  0  0
   59.2140   35.0560   46.5930 O   0  0  0  0  0  0  0  0  0  0  0  0
   56.7242   31.1906   41.3074 H   0  0  0  0  0  0  0  0  0  0  0  0
   57.0369   32.8860   40.8030 H   0  0  0  0  0  0  0  0  0  0  0  0
   58.3750   31.6877   40.8030 H   0  0  0  0  0  0  0  0  0  0  0  0
   58.5940   31.2870   42.6610 H   0  0  0  0  0  0  0  0  0  0  0  0
   58.6730   34.6938   43.8386 H   0  0  0  0  0  0  0  0  0  0  0  0
   57.9473   30.8801   46.8451 H   0  0  0  0  0  0  0  0  0  0  0  0
   55.4663   29.9359   45.0913 H   0  0  0  0  0  0  0  0  0  0  0  0
   55.5392   30.8680   43.5575 H   0  0  0  0  0  0  0  0  0  0  0  0
   55.9023   29.1088   43.5575 H   0  0  0  0  0  0  0  0  0  0  0  0
   58.3217   28.9598   43.0797 H   0  0  0  0  0  0  0  0  0  0  0  0
   59.3855   29.6937   44.3558 H   0  0  0  0  0  0  0  0  0  0  0  0
   59.5105   28.9642   46.4642 H   0  0  0  0  0  0  0  0  0  0  0  0
   59.2963   27.0797   48.0830 H   0  0  0  0  0  0  0  0  0  0  0  0
   57.7986   25.1523   47.4555 H   0  0  0  0  0  0  0  0  0  0  0  0
   56.6077   25.1793   45.2943 H   0  0  0  0  0  0  0  0  0  0  0  0
   56.8730   27.0620   43.7590 H   0  0  0  0  0  0  0  0  0  0  0  0
   59.3112   35.2007   48.6812 H   0  0  0  0  0  0  0  0  0  0  0  0
   60.6878   34.3924   47.9696 H   0  0  0  0  0  0  0  0  0  0  0  0
  1  2  1  0
  2  3  1  0
  3  4  2  0
  4  5  1  0
  5  6  2  0
  6  7  1  0
  7  8  2  0
  8  9  1  0
  9 10  1  0
  9 11  1  0
 11 12  1  0
 12 13  2  0
 13 14  1  0
 14 15  2  0
 15 16  1  0
 16 17  2  0
  6 18  1  0
 18 19  1  0
 19 20  1  0
  8  3  1  0
 17 12  1  0
 20  5  1  0
  1 21  1  0
  1 22  1  0
  1 23  1  0
  2 24  1  0
  4 25  1  0
  7 26  1  0
 10 27  1  0
 10 28  1  0
 10 29  1  0
 11 30  1  0
 11 31  1  0
 13 32  1  0
 14 33  1  0
 15 34  1  0
 16 35  1  0
 17 36  1  0
 19 37  1  0
 19 38  1  0
M  CHG  1  17   1
M  END
>  <UniqueID>  (30) 
27

>  <SMILES>  (30) 
CNc1cc2c(cc1N(C)Cc1cccc[nH+]1)OCO2

>  <Energy>  (30) 
239.52262112221777

>  <Genealogy>  (30) 
CNc1cc2c(cc1N(C)Cc1cccc[nH+]1)OCO2 (protonated)
CNc1cc2c(cc1N(C)Cc1cccc[nH+]1)OCO2 (3D coordinates assigned)
CNc1cc2c(cc1N(C)Cc1cccc[nH+]1)OCO2 (nonaromatic ring conformer: 239.52262112221777 kcal/mol)

>  <smiles>  (30) 
CNc1cc2c(cc1N(C)Cc1ccccn1)OCO2

>  <score_type>  (30) 
oracle

>  <origin>  (30) 
adg

>  <m_score__min__energy>  (30) 
-4.5099999999999998

>  <m_primary>  (30) 
energy

$$$$
30:0
     RDKit          3D

 40 43  0  0  0  0  0  0  0  0999 V2000
   56.2560   21.7510   47.9570 C   0  0  0  0  0  0  0  0  0  0  0  0
   57.4010   21.8470   47.1040 O   0  0  0  0  0  0  0  0  0  0  0  0
   57.3930   22.8600   46.1550 C   0  0  0  0  0  0  0  0  0  0  0  0
   57.7750   24.1610   46.4450 C   0  0  0  0  0  0  0  0  0  0  0  0
   57.7570   25.1390   45.4890 C   0  0  0  0  0  0  0  0  0  0  0  0
   58.1470   26.5270   45.7310 C   0  0  0  0  0  0  0  0  0  0  0  0
   58.6480   26.8120   46.9830 C   0  0  0  0  0  0  0  0  0  0  0  0
   59.0260   28.0940   47.2570 C   0  0  0  0  0  0  0  0  0  0  0  0
   58.9020   29.0850   46.2780 C   0  0  0  0  0  0  0  0  0  0  0  0
   58.4140   28.8480   45.0290 C   0  0  0  0  0  0  0  0  0  0  0  0
   58.2160   29.7350   43.9780 N   0  0  0  0  0  0  0  0  0  0  0  0
   57.2930   31.1700   43.9370 S   0  0  0  0  0  0  0  0  0  0  0  0
   55.9060   30.8750   44.4980 O   0  0  0  0  0  0  0  0  0  0  0  0
   57.0270   31.5690   42.4870 O   0  0  0  0  0  0  0  0  0  0  0  0
   57.9670   32.5170   44.8090 C   0  0  0  0  0  0  0  0  0  0  0  0
   58.4060   33.7600   44.4630 C   0  0  0  0  0  0  0  0  0  0  0  0
   58.8250   34.5860   45.4220 C   0  0  0  0  0  0  0  0  0  0  0  0
   58.8080   34.1750   46.7160 C   0  0  0  0  0  0  0  0  0  0  0  0
   58.1600   32.4970   46.6680 S   0  0  0  0  0  0  0  0  0  0  0  0
   58.0310   27.5080   44.7810 C   0  0  0  0  0  0  0  0  0  0  0  0
   57.3480   24.7700   44.2500 N   0  0  0  0  0  0  0  0  0  0  0  0
   56.9710   23.5110   43.9380 C   0  0  0  0  0  0  0  0  0  0  0  0
   56.5380   22.9510   42.7780 N   0  0  0  0  0  0  0  0  0  0  0  0
   56.2920   21.6730   42.9960 N   0  0  0  0  0  0  0  0  0  0  0  0
   56.5510   21.3420   44.2870 C   0  0  0  0  0  0  0  0  0  0  0  0
   56.9760   22.4970   44.8780 C   0  0  0  0  0  0  0  0  0  0  0  0
   56.5786   21.7781   49.0083 H   0  0  0  0  0  0  0  0  0  0  0  0
   55.5796   22.5956   47.7592 H   0  0  0  0  0  0  0  0  0  0  0  0
   55.7297   20.8056   47.7592 H   0  0  0  0  0  0  0  0  0  0  0  0
   58.0994   24.4119   47.4657 H   0  0  0  0  0  0  0  0  0  0  0  0
   58.7410   26.0235   47.7443 H   0  0  0  0  0  0  0  0  0  0  0  0
   59.4286   28.3483   48.2486 H   0  0  0  0  0  0  0  0  0  0  0  0
   59.2149   30.1090   46.5300 H   0  0  0  0  0  0  0  0  0  0  0  0
   58.7210   29.4850   43.0580 H   0  0  0  0  0  0  0  0  0  0  0  0
   58.4145   34.0766   43.4096 H   0  0  0  0  0  0  0  0  0  0  0  0
   59.1824   35.5945   45.1664 H   0  0  0  0  0  0  0  0  0  0  0  0
   59.1226   34.7450   47.6026 H   0  0  0  0  0  0  0  0  0  0  0  0
   57.6266   27.2452   43.7924 H   0  0  0  0  0  0  0  0  0  0  0  0
   56.4450   23.5200   41.9070 H   0  0  0  0  0  0  0  0  0  0  0  0
   56.4417   20.3534   44.7569 H   0  0  0  0  0  0  0  0  0  0  0  0
  1  2  1  0
  2  3  1  0
  3  4  2  0
  4  5  1  0
  5  6  1  0
  6  7  2  0
  7  8  1  0
  8  9  2  0
  9 10  1  0
 10 11  1  0
 11 12  1  0
 12 13  2  0
 12 14  2  0
 12 15  1  0
 15 16  2  0
 16 17  1  0
 17 18  2  0
 18 19  1  0
 10 20  2  0
  5 21  2  0
 21 22  1  0
 22 23  1  0
 23 24  1  0
 24 25  2  0
 25 26  1  0
 26  3  1  0
 20  6  1  0
 26 22  2  0
 19 15  1  0
  1 27  1  0
  1 28  1  0
  1 29  1  0
  4 30  1  0
  7 31  1  0
  8 32  1  0
  9 33  1  0
 11 34  1  0
 16 35  1  0
 17 36  1  0
 18 37  1  0
 20 38  1  0
 23 39  1  0
 25 40  1  0
M  END
>  <smiles>  (31) 
COc1cc(-c2cccc(NS(=O)(=O)c3cccs3)c2)nc2[nH]ncc12

>  <score_type>  (31) 
oracle

>  <origin>  (31) 
adg

>  <m_score__min__energy>  (31) 
-9.8699999999999992

>  <m_primary>  (31) 
energy

$$$$
31:0
     RDKit          3D

 46 48  0  0  0  0  0  0  0  0999 V2000
   59.3590   35.1910   45.2620 C   0  0  0  0  0  0  0  0  0  0  0  0
   59.1630   33.8490   44.5540 C   0  0  0  0  0  0  0  0  0  0  0  0
   57.8650   33.2420   44.9000 N   0  0  0  0  0  0  0  0  0  0  0  0
   57.0750   33.8390   45.9960 C   0  0  0  0  0  0  0  0  0  0  0  0
   57.4830   33.2440   47.3510 C   0  0  0  0  0  0  0  0  0  0  0  0
   58.4220   32.1850   47.1400 O   0  0  0  0  0  0  0  0  0  0  0  0
   59.8110   32.2410   47.3620 C   0  0  0  0  0  0  0  0  0  0  0  0
   60.4540   33.4070   47.8410 C   0  0  0  0  0  0  0  0  0  0  0  0
   61.8450   33.4480   47.9660 C   0  0  0  0  0  0  0  0  0  0  0  0
   62.6110   32.3360   47.6270 C   0  0  0  0  0  0  0  0  0  0  0  0
   61.9870   31.1690   47.1790 C   0  0  0  0  0  0  0  0  0  0  0  0
   60.5880   31.0990   47.0600 C   0  0  0  0  0  0  0  0  0  0  0  0
   59.9510   29.8410   46.5820 C   0  0  0  0  0  0  0  0  0  0  0  0
   59.0300   29.1530   47.3990 C   0  0  0  0  0  0  0  0  0  0  0  0
   58.4200   27.9800   46.9420 C   0  0  0  0  0  0  0  0  0  0  0  0
   58.7250   27.4780   45.6710 C   0  0  0  0  0  0  0  0  0  0  0  0
   59.6400   28.1500   44.8530 C   0  0  0  0  0  0  0  0  0  0  0  0
   60.2500   29.3260   45.3030 C   0  0  0  0  0  0  0  0  0  0  0  0
   57.4440   32.0130   44.2520 C   0  0  0  0  0  0  0  0  0  0  0  0
   57.4110   31.9490   42.8930 N   0  0  0  0  0  0  0  0  0  0  0  0
   57.0060   30.8290   42.2430 C   0  0  0  0  0  0  0  0  0  0  0  0
   56.6110   29.7100   42.9750 C   0  0  0  0  0  0  0  0  0  0  0  0
   56.6450   29.7800   44.3660 C   0  0  0  0  0  0  0  0  0  0  0  0
   57.0520   30.9210   44.9820 N   0  0  0  0  0  0  0  0  0  0  0  0
   59.3366   35.0377   46.3510 H   0  0  0  0  0  0  0  0  0  0  0  0
   60.3294   35.6203   44.9720 H   0  0  0  0  0  0  0  0  0  0  0  0
   58.5519   35.8799   44.9720 H   0  0  0  0  0  0  0  0  0  0  0  0
   59.2046   34.0088   43.4665 H   0  0  0  0  0  0  0  0  0  0  0  0
   59.9618   33.1663   44.8795 H   0  0  0  0  0  0  0  0  0  0  0  0
   57.2463   34.9254   46.0133 H   0  0  0  0  0  0  0  0  0  0  0  0
   56.0109   33.6210   45.8220 H   0  0  0  0  0  0  0  0  0  0  0  0
   57.9448   34.0261   47.9715 H   0  0  0  0  0  0  0  0  0  0  0  0
   56.5928   32.8500   47.8631 H   0  0  0  0  0  0  0  0  0  0  0  0
   59.8546   34.2871   48.1168 H   0  0  0  0  0  0  0  0  0  0  0  0
   62.3361   34.3612   48.3332 H   0  0  0  0  0  0  0  0  0  0  0  0
   63.7070   32.3762   47.7118 H   0  0  0  0  0  0  0  0  0  0  0  0
   62.5985   30.2933   46.9159 H   0  0  0  0  0  0  0  0  0  0  0  0
   58.7902   29.5405   48.4002 H   0  0  0  0  0  0  0  0  0  0  0  0
   57.6991   27.4508   47.5826 H   0  0  0  0  0  0  0  0  0  0  0  0
   58.2449   26.5545   45.3152 H   0  0  0  0  0  0  0  0  0  0  0  0
   59.8799   27.7534   43.8554 H   0  0  0  0  0  0  0  0  0  0  0  0
   60.9670   29.8522   44.6557 H   0  0  0  0  0  0  0  0  0  0  0  0
   56.9894   30.8039   41.1434 H   0  0  0  0  0  0  0  0  0  0  0  0
   56.2801   28.7928   42.4658 H   0  0  0  0  0  0  0  0  0  0  0  0
   56.3418   28.9100   44.9669 H   0  0  0  0  0  0  0  0  0  0  0  0
   57.0180   30.9470   46.0270 H   0  0  0  0  0  0  0  0  0  0  0  0
  1  2  1  0
  2  3  1  0
  3  4  1  0
  4  5  1  0
  5  6  1  0
  6  7  1  0
  7  8  2  0
  8  9  1  0
  9 10  2  0
 10 11  1  0
 11 12  2  0
 12 13  1  0
 13 14  2  0
 14 15  1  0
 15 16  2  0
 16 17  1  0
 17 18  2  0
  3 19  1  0
 19 20  2  0
 20 21  1  0
 21 22  2  0
 22 23  1  0
 23 24  2  0
 12  7  1  0
 18 13  1  0
 24 19  1  0
  1 25  1  0
  1 26  1  0
  1 27  1  0
  2 28  1  0
  2 29  1  0
  4 30  1  0
  4 31  1  0
  5 32  1  0
  5 33  1  0
  8 34  1  0
  9 35  1  0
 10 36  1  0
 11 37  1  0
 14 38  1  0
 15 39  1  0
 16 40  1  0
 17 41  1  0
 18 42  1  0
 21 43  1  0
 22 44  1  0
 23 45  1  0
 24 46  1  0
M  CHG  1  24   1
M  END
>  <UniqueID>  (32) 
28

>  <SMILES>  (32) 
CCN(CCOc1ccccc1-c1ccccc1)c1nccc[nH+]1

>  <Energy>  (32) 
53.85726579041715

>  <Genealogy>  (32) 
CCN(CCOc1ccccc1-c1ccccc1)c1nccc[nH+]1 (protonated)
CCN(CCOc1ccccc1-c1ccccc1)c1nccc[nH+]1 (3D coordinates assigned)
CCN(CCOc1ccccc1-c1ccccc1)c1nccc[nH+]1 (optimized conformer: 53.85726579041715 kcal/mol)

>  <smiles>  (32) 
CCN(CCOc1ccccc1-c1ccccc1)c1ncccn1

>  <score_type>  (32) 
oracle

>  <origin>  (32) 
adg

>  <m_score__min__energy>  (32) 
-5.5199999999999996

>  <m_primary>  (32) 
energy

$$$$
32:0
     RDKit          3D

 37 39  0  0  0  0  0  0  0  0999 V2000
   56.5200   30.0940   43.2570 C   0  0  0  0  0  0  0  0  0  0  0  0
   56.4000   30.7450   44.5170 O   0  0  0  0  0  0  0  0  0  0  0  0
   57.4010   31.5400   45.0960 C   0  0  0  0  0  0  0  0  0  0  0  0
   58.4100   31.0050   45.9170 C   0  0  0  0  0  0  0  0  0  0  0  0
   59.3840   31.8390   46.4730 C   0  0  0  0  0  0  0  0  0  0  0  0
   59.3620   33.2240   46.2300 C   0  0  0  0  0  0  0  0  0  0  0  0
   60.3940   34.1220   46.7990 C   0  0  0  0  0  0  0  0  0  0  0  0
   60.1230   35.3410   46.9660 O   0  0  0  0  0  0  0  0  0  0  0  0
   61.7260   33.6310   47.2070 C   0  0  0  0  0  0  0  0  0  0  0  0
   62.1000   33.2350   48.4760 C   0  0  0  0  0  0  0  0  0  0  0  0
   63.3760   32.8150   48.3840 N   0  0  0  0  0  0  0  0  0  0  0  0
   64.2040   32.3030   49.4490 C   0  0  0  0  0  0  0  0  0  0  0  0
   63.7210   31.3020   50.3080 C   0  0  0  0  0  0  0  0  0  0  0  0
   64.5220   30.8090   51.3400 C   0  0  0  0  0  0  0  0  0  0  0  0
   65.8120   31.3070   51.5290 C   0  0  0  0  0  0  0  0  0  0  0  0
   66.3180   32.3100   50.6840 C   0  0  0  0  0  0  0  0  0  0  0  0
   67.6510   32.8200   50.8800 N   0  0  0  0  0  0  0  0  0  0  0  0
   68.4030   32.3220   51.7430 O   0  0  0  0  0  0  0  0  0  0  0  0
   68.1180   33.8660   50.1170 O   0  0  0  0  0  0  0  0  0  0  0  0
   65.5050   32.8030   49.6460 C   0  0  0  0  0  0  0  0  0  0  0  0
   63.7500   32.9480   47.1190 N   0  0  0  0  0  0  0  0  0  0  0  0
   62.7700   33.4380   46.3760 N   0  0  0  0  0  0  0  0  0  0  0  0
   58.3610   33.7510   45.3970 C   0  0  0  0  0  0  0  0  0  0  0  0
   57.3880   32.9160   44.8410 C   0  0  0  0  0  0  0  0  0  0  0  0
   56.7173   29.0234   43.4148 H   0  0  0  0  0  0  0  0  0  0  0  0
   55.5844   30.2149   42.6912 H   0  0  0  0  0  0  0  0  0  0  0  0
   57.3510   30.5405   42.6912 H   0  0  0  0  0  0  0  0  0  0  0  0
   58.4326   29.9246   46.1225 H   0  0  0  0  0  0  0  0  0  0  0  0
   60.1742   31.4086   47.1058 H   0  0  0  0  0  0  0  0  0  0  0  0
   61.4781   33.2581   49.3831 H   0  0  0  0  0  0  0  0  0  0  0  0
   62.7053   30.9040   50.1668 H   0  0  0  0  0  0  0  0  0  0  0  0
   64.1346   30.0247   52.0069 H   0  0  0  0  0  0  0  0  0  0  0  0
   66.4365   30.9123   52.3440 H   0  0  0  0  0  0  0  0  0  0  0  0
   65.8913   33.5890   48.9804 H   0  0  0  0  0  0  0  0  0  0  0  0
   64.6980   32.7210   46.7450 H   0  0  0  0  0  0  0  0  0  0  0  0
   58.3429   34.8294   45.1807 H   0  0  0  0  0  0  0  0  0  0  0  0
   56.6053   33.3440   44.1974 H   0  0  0  0  0  0  0  0  0  0  0  0
  1  2  1  0
  2  3  1  0
  3  4  2  0
  4  5  1  0
  5  6  2  0
  6  7  1  0
  7  8  2  0
  7  9  1  0
  9 10  2  0
 10 11  1  0
 11 12  1  0
 12 13  2  0
 13 14  1  0
 14 15  2  0
 15 16  1  0
 16 17  1  0
 17 18  2  0
 17 19  1  0
 16 20  2  0
 11 21  1  0
 21 22  2  0
  6 23  1  0
 23 24  2  0
 24  3  1  0
 22  9  1  0
 20 12  1  0
  1 25  1  0
  1 26  1  0
  1 27  1  0
  4 28  1  0
  5 29  1  0
 10 30  1  0
 13 31  1  0
 14 32  1  0
 15 33  1  0
 20 34  1  0
 21 35  1  0
 23 36  1  0
 24 37  1  0
M  CHG  3  17   1  19  -1  21   1
M  END
>  <UniqueID>  (33) 
29

>  <SMILES>  (33) 
COc1ccc(C(=O)c2cn(-c3cccc([N+](=O)[O-])c3)[nH+]n2)cc1

>  <Energy>  (33) 
82.46364295861409

>  <Genealogy>  (33) 
COc1ccc(C(=O)c2cn(-c3cccc([N+](=O)[O-])c3)[nH+]n2)cc1 (protonated)
COc1ccc(C(=O)c2cn(-c3cccc([N+](=O)[O-])c3)[nH+]n2)cc1 (3D coordinates assigned)
COc1ccc(C(=O)c2cn(-c3cccc([N+](=O)[O-])c3)[nH+]n2)cc1 (optimized conformer: 82.46364295861409 kcal/mol)

>  <smiles>  (33) 
COc1ccc(C(=O)c2cn(-c3cccc([N+](=O)[O-])c3)nn2)cc1

>  <score_type>  (33) 
oracle

>  <origin>  (33) 
adg

>  <m_score__min__energy>  (33) 
-7.3899999999999997

>  <m_primary>  (33) 
energy

$$$$
33:0
     RDKit          3D

 43 46  0  0  1  0  0  0  0  0999 V2000
   57.3640   21.5380   43.4170 C   0  0  0  0  0  0  0  0  0  0  0  0
   58.0590   21.7720   44.6260 O   0  0  0  0  0  0  0  0  0  0  0  0
   57.9660   23.0410   45.1810 C   0  0  0  0  0  0  0  0  0  0  0  0
   59.0590   23.7660   45.6060 C   0  0  0  0  0  0  0  0  0  0  0  0
   58.9600   25.0270   46.1570 C   0  0  0  0  0  0  0  0  0  0  0  0
   57.6790   25.5870   46.2850 C   0  0  0  0  0  0  0  0  0  0  0  0
   57.5460   26.8670   46.7880 N   0  0  0  0  0  0  0  0  0  0  0  0
   57.4000   27.9750   46.2130 C   0  0  0  0  0  0  0  0  0  0  0  0
   56.4930   28.1340   45.2340 N   0  0  0  0  0  0  0  0  0  0  0  0
   56.3440   29.3260   44.6260 C   0  0  0  0  0  0  0  0  0  0  0  0
   57.0830   30.4010   44.9610 N   0  0  0  0  0  0  0  0  0  0  0  0
   57.9920   30.2290   45.9480 C   0  0  0  0  0  0  0  0  0  0  0  0
   58.1770   29.0290   46.5960 C   0  0  0  0  0  0  0  0  0  0  0  0
   59.1490   29.1850   47.5210 C   0  0  0  0  0  0  0  0  0  0  0  0
   59.5360   30.4920   47.4130 N   0  0  0  0  0  0  0  0  0  0  0  0
   58.8510   31.1150   46.4780 N   0  0  0  0  0  0  0  0  0  0  0  0
   59.0530   32.4880   46.1570 C   0  0  0  0  0  0  0  0  0  0  0  0
   60.1170   33.2250   46.6380 C   0  0  0  0  0  0  0  0  0  0  0  0
   60.2400   34.5610   46.2750 C   0  0  0  0  0  0  0  0  0  0  0  0
   59.2810   35.1120   45.4350 C   0  0  0  0  0  0  0  0  0  0  0  0
   58.2140   34.3870   44.9480 C   0  0  0  0  0  0  0  0  0  0  0  0
   58.0990   33.0610   45.3120 C   0  0  0  0  0  0  0  0  0  0  0  0
   56.5480   24.8900   45.8680 C   0  0  0  0  0  0  0  0  0  0  0  0
   55.3240   25.4920   46.0200 O   0  0  0  0  0  0  0  0  0  0  0  0
   54.1130   24.9070   45.6210 C   0  0  0  0  0  0  0  0  0  0  0  0
   56.7130   23.6390   45.3280 C   0  0  0  0  0  0  0  0  0  0  0  0
   56.3434   21.1944   43.6414 H   0  0  0  0  0  0  0  0  0  0  0  0
   57.3174   22.4700   42.8346 H   0  0  0  0  0  0  0  0  0  0  0  0
   57.8906   20.7676   42.8346 H   0  0  0  0  0  0  0  0  0  0  0  0
   60.0579   23.3175   45.5007 H   0  0  0  0  0  0  0  0  0  0  0  0
   59.8552   25.5755   46.4852 H   0  0  0  0  0  0  0  0  0  0  0  0
   55.9120   27.3000   44.9650 H   0  0  0  0  0  0  0  0  0  0  0  0
   55.5930   29.4253   43.8284 H   0  0  0  0  0  0  0  0  0  0  0  0
   59.5437   28.4252   48.2116 H   0  0  0  0  0  0  0  0  0  0  0  0
   60.8601   32.7593   47.3020 H   0  0  0  0  0  0  0  0  0  0  0  0
   61.0788   35.1688   46.6450 H   0  0  0  0  0  0  0  0  0  0  0  0
   59.3765   36.1692   45.1466 H   0  0  0  0  0  0  0  0  0  0  0  0
   57.4717   34.8549   44.2847 H   0  0  0  0  0  0  0  0  0  0  0  0
   57.2591   32.4570   44.9382 H   0  0  0  0  0  0  0  0  0  0  0  0
   53.5309   24.6258   46.5110 H   0  0  0  0  0  0  0  0  0  0  0  0
   53.5386   25.6270   45.0196 H   0  0  0  0  0  0  0  0  0  0  0  0
   54.3199   24.0095   45.0196 H   0  0  0  0  0  0  0  0  0  0  0  0
   55.8219   23.0851   44.9976 H   0  0  0  0  0  0  0  0  0  0  0  0
  1  2  1  0
  2  3  1  0
  3  4  2  0
  4  5  1  0
  5  6  2  0
  6  7  1  0
  7  8  2  0
  8  9  1  0
  9 10  1  0
 10 11  2  0
 11 12  1  0
 12 13  2  0
 13 14  1  0
 14 15  2  0
 15 16  1  0
 16 17  1  0
 17 18  2  0
 18 19  1  0
 19 20  2  0
 20 21  1  0
 21 22  2  0
  6 23  1  0
 23 24  1  0
 24 25  1  0
 23 26  2  0
 26  3  1  0
 13  8  1  0
 22 17  1  0
 16 12  1  0
  1 27  1  0
  1 28  1  0
  1 29  1  0
  4 30  1  0
  5 31  1  0
  9 32  1  0
 10 33  1  0
 14 34  1  0
 18 35  1  0
 19 36  1  0
 20 37  1  0
 21 38  1  0
 22 39  1  0
 25 40  1  0
 25 41  1  0
 25 42  1  0
 26 43  1  0
M  END
>  <smiles>  (34) 
COc1ccc(N=c2[nH]cnc3c2cnn3-c2ccccc2)c(OC)c1

>  <score_type>  (34) 
oracle

>  <origin>  (34) 
adg

>  <m_score__min__energy>  (34) 
-8.3900000000000006

>  <m_primary>  (34) 
energy

$$$$
34:0
     RDKit          3D

 46 49  0  0  0  0  0  0  0  0999 V2000
   58.9220   23.3320   45.3470 C   0  0  0  0  0  0  0  0  0  0  0  0
   59.5620   24.5690   45.9740 C   0  0  0  0  0  0  0  0  0  0  0  0
   58.5440   25.5940   46.2690 N   0  0  0  0  0  0  0  0  0  0  0  0
   57.1660   25.1280   46.4990 C   0  0  0  0  0  0  0  0  0  0  0  0
   56.1530   26.1590   46.0020 C   0  0  0  0  0  0  0  0  0  0  0  0
   58.8870   27.0100   46.3280 C   0  0  0  0  0  0  0  0  0  0  0  0
   59.5550   27.6440   45.2550 C   0  0  0  0  0  0  0  0  0  0  0  0
   59.8850   29.0000   45.3150 C   0  0  0  0  0  0  0  0  0  0  0  0
   59.5670   29.7530   46.4470 C   0  0  0  0  0  0  0  0  0  0  0  0
   59.8900   31.1490   46.4980 N   0  0  0  0  0  0  0  0  0  0  0  0
   60.9600   31.6920   47.1260 C   0  0  0  0  0  0  0  0  0  0  0  0
   61.9400   31.0330   47.8750 C   0  0  0  0  0  0  0  0  0  0  0  0
   62.9760   31.8040   48.4330 C   0  0  0  0  0  0  0  0  0  0  0  0
   63.0180   33.2020   48.2330 C   0  0  0  0  0  0  0  0  0  0  0  0
   62.0250   33.8440   47.4710 C   0  0  0  0  0  0  0  0  0  0  0  0
   61.0110   33.0560   46.9320 C   0  0  0  0  0  0  0  0  0  0  0  0
   59.9250   33.3750   46.1490 C   0  0  0  0  0  0  0  0  0  0  0  0
   59.4870   34.6010   45.6530 C   0  0  0  0  0  0  0  0  0  0  0  0
   58.3150   34.6160   44.8810 C   0  0  0  0  0  0  0  0  0  0  0  0
   57.6080   33.4220   44.6300 C   0  0  0  0  0  0  0  0  0  0  0  0
   58.0640   32.1900   45.1400 C   0  0  0  0  0  0  0  0  0  0  0  0
   57.1050   30.7480   44.8400 Cl  0  0  0  0  0  0  0  0  0  0  0  0
   59.2510   32.1900   45.8990 C   0  0  0  0  0  0  0  0  0  0  0  0
   58.8940   29.1490   47.5120 C   0  0  0  0  0  0  0  0  0  0  0  0
   58.5620   27.7930   47.4580 C   0  0  0  0  0  0  0  0  0  0  0  0
   58.5727   22.6569   46.1422 H   0  0  0  0  0  0  0  0  0  0  0  0
   58.0685   23.6368   44.7236 H   0  0  0  0  0  0  0  0  0  0  0  0
   59.6639   22.8114   44.7236 H   0  0  0  0  0  0  0  0  0  0  0  0
   60.0642   24.2802   46.9091 H   0  0  0  0  0  0  0  0  0  0  0  0
   60.2883   24.9887   45.2624 H   0  0  0  0  0  0  0  0  0  0  0  0
   57.0109   24.1816   45.9602 H   0  0  0  0  0  0  0  0  0  0  0  0
   57.0192   24.9827   47.5794 H   0  0  0  0  0  0  0  0  0  0  0  0
   55.6736   26.6469   46.8635 H   0  0  0  0  0  0  0  0  0  0  0  0
   56.6688   26.9155   45.3924 H   0  0  0  0  0  0  0  0  0  0  0  0
   55.3875   25.6566   45.3924 H   0  0  0  0  0  0  0  0  0  0  0  0
   59.8186   27.0610   44.3602 H   0  0  0  0  0  0  0  0  0  0  0  0
   60.3977   29.4768   44.4666 H   0  0  0  0  0  0  0  0  0  0  0  0
   61.9019   29.9437   48.0235 H   0  0  0  0  0  0  0  0  0  0  0  0
   63.7597   31.3145   49.0298 H   0  0  0  0  0  0  0  0  0  0  0  0
   63.8331   33.7927   48.6764 H   0  0  0  0  0  0  0  0  0  0  0  0
   62.0486   34.9314   47.3065 H   0  0  0  0  0  0  0  0  0  0  0  0
   60.0421   35.5278   45.8599 H   0  0  0  0  0  0  0  0  0  0  0  0
   57.9451   35.5663   44.4686 H   0  0  0  0  0  0  0  0  0  0  0  0
   56.6880   33.4527   44.0279 H   0  0  0  0  0  0  0  0  0  0  0  0
   58.6243   29.7438   48.3971 H   0  0  0  0  0  0  0  0  0  0  0  0
   58.0401   27.3284   48.3075 H   0  0  0  0  0  0  0  0  0  0  0  0
  1  2  1  0
  2  3  1  0
  3  4  1  0
  4  5  1  0
  3  6  1  0
  6  7  2  0
  7  8  1  0
  8  9  2  0
  9 10  1  0
 10 11  1  0
 11 12  2  0
 12 13  1  0
 13 14  2  0
 14 15  1  0
 15 16  2  0
 16 17  1  0
 17 18  2  0
 18 19  1  0
 19 20  2  0
 20 21  1  0
 21 22  1  0
 21 23  2  0
  9 24  1  0
 24 25  2  0
 25  6  1  0
 23 10  1  0
 16 11  1  0
 23 17  1  0
  1 26  1  0
  1 27  1  0
  1 28  1  0
  2 29  1  0
  2 30  1  0
  4 31  1  0
  4 32  1  0
  5 33  1  0
  5 34  1  0
  5 35  1  0
  7 36  1  0
  8 37  1  0
 12 38  1  0
 13 39  1  0
 14 40  1  0
 15 41  1  0
 18 42  1  0
 19 43  1  0
 20 44  1  0
 24 45  1  0
 25 46  1  0
M  END
>  <UniqueID>  (35) 
30

>  <SMILES>  (35) 
CCN(CC)c1ccc(-n2c3ccccc3c3cccc(Cl)c32)cc1

>  <Energy>  (35) 
99.73123294852716

>  <Genealogy>  (35) 
CCN(CC)c1ccc(-n2c3ccccc3c3cccc(Cl)c32)cc1 (3D coordinates assigned)
CCN(CC)c1ccc(-n2c3ccccc3c3cccc(Cl)c32)cc1 (optimized conformer: 99.73123294852716 kcal/mol)

>  <smiles>  (35) 
CCN(CC)c1ccc(-n2c3ccccc3c3cccc(Cl)c32)cc1

>  <score_type>  (35) 
oracle

>  <origin>  (35) 
adg

>  <m_score__min__energy>  (35) 
-7.6600000000000001

>  <m_primary>  (35) 
energy

$$$$
35:0
     RDKit          3D

 43 46  0  0  0  0  0  0  0  0999 V2000
   63.7320   33.4300   47.1000 C   0  0  0  0  0  0  0  0  0  0  0  0
   63.3960   31.9420   47.1450 C   0  0  0  0  0  0  0  0  0  0  0  0
   62.2470   31.6250   48.1130 C   0  0  0  0  0  0  0  0  0  0  0  0
   60.9930   31.3610   47.3900 N   0  0  0  0  0  0  0  0  0  0  0  0
   60.4940   30.0770   47.3660 C   0  0  0  0  0  0  0  0  0  0  0  0
   59.2830   29.7770   46.6950 C   0  0  0  0  0  0  0  0  0  0  0  0
   58.7210   28.4970   46.6280 C   0  0  0  0  0  0  0  0  0  0  0  0
   59.3140   27.5290   47.1830 O   0  0  0  0  0  0  0  0  0  0  0  0
   57.5330   28.2970   45.9600 N   0  0  0  0  0  0  0  0  0  0  0  0
   56.9600   26.9380   45.8730 C   0  0  0  0  0  0  0  0  0  0  0  0
   57.9030   26.0240   45.0810 C   0  0  0  0  0  0  0  0  0  0  0  0
   57.2540   25.1730   44.0000 C   0  0  0  0  0  0  0  0  0  0  0  0
   58.0710   26.3970   43.6170 C   0  0  0  0  0  0  0  0  0  0  0  0
   56.8970   29.3440   45.3250 C   0  0  0  0  0  0  0  0  0  0  0  0
   55.8260   29.1510   44.6890 O   0  0  0  0  0  0  0  0  0  0  0  0
   57.4060   30.6030   45.3670 N   0  0  0  0  0  0  0  0  0  0  0  0
   58.5580   30.8640   46.0210 C   0  0  0  0  0  0  0  0  0  0  0  0
   59.1120   32.1280   46.0930 C   0  0  0  0  0  0  0  0  0  0  0  0
   58.7120   33.3500   45.5960 C   0  0  0  0  0  0  0  0  0  0  0  0
   59.6360   34.2600   45.9840 N   0  0  0  0  0  0  0  0  0  0  0  0
   59.6430   35.6710   45.6210 C   0  0  0  0  0  0  0  0  0  0  0  0
   60.6000   33.6630   46.6780 N   0  0  0  0  0  0  0  0  0  0  0  0
   60.2870   32.3540   46.7590 C   0  0  0  0  0  0  0  0  0  0  0  0
   63.8195   33.8173   48.1258 H   0  0  0  0  0  0  0  0  0  0  0  0
   64.6854   33.5748   46.5709 H   0  0  0  0  0  0  0  0  0  0  0  0
   62.9333   33.9704   46.5709 H   0  0  0  0  0  0  0  0  0  0  0  0
   63.1062   31.6156   46.1353 H   0  0  0  0  0  0  0  0  0  0  0  0
   64.2895   31.4094   47.5028 H   0  0  0  0  0  0  0  0  0  0  0  0
   62.5126   30.7367   48.7050 H   0  0  0  0  0  0  0  0  0  0  0  0
   62.0934   32.4973   48.7653 H   0  0  0  0  0  0  0  0  0  0  0  0
   61.0444   29.2725   47.8757 H   0  0  0  0  0  0  0  0  0  0  0  0
   56.8258   26.5331   46.8869 H   0  0  0  0  0  0  0  0  0  0  0  0
   55.9878   26.9868   45.3606 H   0  0  0  0  0  0  0  0  0  0  0  0
   58.5804   25.8189   45.9231 H   0  0  0  0  0  0  0  0  0  0  0  0
   57.6402   24.1652   43.7874 H   0  0  0  0  0  0  0  0  0  0  0  0
   56.2313   24.8244   43.7936 H   0  0  0  0  0  0  0  0  0  0  0  0
   59.0482   26.2746   43.1270 H   0  0  0  0  0  0  0  0  0  0  0  0
   57.8839   27.3007   43.0184 H   0  0  0  0  0  0  0  0  0  0  0  0
   57.8112   33.5484   44.9967 H   0  0  0  0  0  0  0  0  0  0  0  0
   59.6460   36.2845   46.5340 H   0  0  0  0  0  0  0  0  0  0  0  0
   60.5423   35.8925   45.0274 H   0  0  0  0  0  0  0  0  0  0  0  0
   58.7460   35.9014   45.0274 H   0  0  0  0  0  0  0  0  0  0  0  0
   61.4320   34.1540   47.0730 H   0  0  0  0  0  0  0  0  0  0  0  0
  1  2  1  0
  2  3  1  0
  3  4  1  0
  4  5  1  0
  5  6  2  0
  6  7  1  0
  7  8  2  0
  7  9  1  0
  9 10  1  0
 10 11  1  0
 11 12  1  0
 12 13  1  0
  9 14  1  0
 14 15  2  0
 14 16  1  0
 16 17  2  0
 17 18  1  0
 18 19  2  0
 19 20  1  0
 20 21  1  0
 20 22  1  0
 22 23  2  0
 23  4  1  0
 17  6  1  0
 23 18  1  0
 13 11  1  0
  1 24  1  0
  1 25  1  0
  1 26  1  0
  2 27  1  0
  2 28  1  0
  3 29  1  0
  3 30  1  0
  5 31  1  0
 10 32  1  0
 10 33  1  0
 11 34  1  0
 12 35  1  0
 12 36  1  0
 13 37  1  0
 13 38  1  0
 19 39  1  0
 21 40  1  0
 21 41  1  0
 21 42  1  0
 22 43  1  0
M  CHG  1  22   1
M  END
>  <UniqueID>  (36) 
31

>  <SMILES>  (36) 
CCCn1cc2c(=O)n(CC3CC3)c(=O)nc-2c2cn(C)[nH+]c21

>  <Energy>  (36) 
350.52796665169103

>  <Genealogy>  (36) 
CCCn1cc2c(=O)n(CC3CC3)c(=O)nc-2c2cn(C)[nH+]c21 (protonated)
CCCn1cc2c(=O)n(CC3CC3)c(=O)nc-2c2cn(C)[nH+]c21 (3D coordinates assigned)
CCCn1cc2c(=O)n(CC3CC3)c(=O)nc-2c2cn(C)[nH+]c21 (nonaromatic ring conformer: 350.52796665169103 kcal/mol)

>  <smiles>  (36) 
CCCn1cc2c(=O)n(CC3CC3)c(=O)nc-2c2cn(C)nc21

>  <score_type>  (36) 
oracle

>  <origin>  (36) 
adg

>  <m_score__min__energy>  (36) 
-5.6600000000000001

>  <m_primary>  (36) 
energy

$$$$
36:0
     RDKit          3D

 32 33  0  0  0  0  0  0  0  0999 V2000
   61.1980   34.2020   48.8500 C   0  0  0  0  0  0  0  0  0  0  0  0
   59.6890   33.9960   48.8080 C   0  0  0  0  0  0  0  0  0  0  0  0
   59.2050   33.9450   47.3930 C   0  0  0  0  0  0  0  0  0  0  0  0
   59.6820   34.7100   46.3480 C   0  0  0  0  0  0  0  0  0  0  0  0
   58.9310   34.3510   45.2490 C   0  0  0  0  0  0  0  0  0  0  0  0
   58.0420   33.3910   45.6980 C   0  0  0  0  0  0  0  0  0  0  0  0
   57.0120   32.6790   44.8620 C   0  0  0  0  0  0  0  0  0  0  0  0
   57.0460   31.2090   45.0220 N   0  0  0  0  0  0  0  0  0  0  0  0
   58.4100   30.6480   44.8980 C   0  0  0  0  0  0  0  0  0  0  0  0
   58.3590   29.1240   44.7270 C   0  0  0  0  0  0  0  0  0  0  0  0
   57.6150   28.7200   43.5160 N   0  0  0  0  0  0  0  0  0  0  0  0
   56.6230   29.7110   43.0600 C   0  0  0  0  0  0  0  0  0  0  0  0
   56.0130   30.4920   44.2330 C   0  0  0  0  0  0  0  0  0  0  0  0
   58.2250   33.1740   46.9810 O   0  0  0  0  0  0  0  0  0  0  0  0
   61.5328   34.2477   49.8968 H   0  0  0  0  0  0  0  0  0  0  0  0
   61.6968   33.3636   48.3418 H   0  0  0  0  0  0  0  0  0  0  0  0
   61.4538   35.1434   48.3418 H   0  0  0  0  0  0  0  0  0  0  0  0
   59.4389   33.0498   49.3102 H   0  0  0  0  0  0  0  0  0  0  0  0
   59.2011   34.8384   49.3202 H   0  0  0  0  0  0  0  0  0  0  0  0
   60.4931   35.4522   46.3844 H   0  0  0  0  0  0  0  0  0  0  0  0
   59.0203   34.7463   44.2264 H   0  0  0  0  0  0  0  0  0  0  0  0
   56.0147   33.0394   45.1543 H   0  0  0  0  0  0  0  0  0  0  0  0
   57.2383   32.8982   43.8081 H   0  0  0  0  0  0  0  0  0  0  0  0
   58.9046   31.0928   44.0219 H   0  0  0  0  0  0  0  0  0  0  0  0
   58.9718   30.8813   45.8145 H   0  0  0  0  0  0  0  0  0  0  0  0
   59.3878   28.7416   44.6541 H   0  0  0  0  0  0  0  0  0  0  0  0
   57.8355   28.7050   45.5989 H   0  0  0  0  0  0  0  0  0  0  0  0
   58.3000   28.5690   42.7380 H   0  0  0  0  0  0  0  0  0  0  0  0
   57.1160   30.4201   42.3787 H   0  0  0  0  0  0  0  0  0  0  0  0
   55.8110   29.1712   42.5509 H   0  0  0  0  0  0  0  0  0  0  0  0
   55.2964   31.2262   43.8362 H   0  0  0  0  0  0  0  0  0  0  0  0
   55.5169   29.7710   44.8993 H   0  0  0  0  0  0  0  0  0  0  0  0
  1  2  1  0
  2  3  1  0
  3  4  2  0
  4  5  1  0
  5  6  2  0
  6  7  1  0
  7  8  1  0
  8  9  1  0
  9 10  1  0
 10 11  1  0
 11 12  1  0
 12 13  1  0
  6 14  1  0
 14  3  1  0
 13  8  1  0
  1 15  1  0
  1 16  1  0
  1 17  1  0
  2 18  1  0
  2 19  1  0
  4 20  1  0
  5 21  1  0
  7 22  1  0
  7 23  1  0
  9 24  1  0
  9 25  1  0
 10 26  1  0
 10 27  1  0
 11 28  1  0
 12 29  1  0
 12 30  1  0
 13 31  1  0
 13 32  1  0
M  END
>  <UniqueID>  (37) 
32

>  <SMILES>  (37) 
CCc1ccc(CN2CCNCC2)o1

>  <Energy>  (37) 
63.47567931252787

>  <Genealogy>  (37) 
CCc1ccc(CN2CCNCC2)o1 (3D coordinates assigned)
CCc1ccc(CN2CCNCC2)o1 (nonaromatic ring conformer: 63.47567931252787 kcal/mol)

>  <smiles>  (37) 
CCc1ccc(CN2CCNCC2)o1

>  <score_type>  (37) 
oracle

>  <origin>  (37) 
adg

>  <m_score__min__energy>  (37) 
-5.7300000000000004

>  <m_primary>  (37) 
energy

$$$$
37:0
     RDKit          3D

 50 54  0  0  0  0  0  0  0  0999 V2000
   56.4116   22.9975   41.9706 H   0  0  0  0  0  0  0  0  0  0  0  0
   56.3050   23.4190   42.9810 C   0  0  0  0  0  0  0  0  0  0  0  0
   55.3100   22.9410   43.8350 C   0  0  0  0  0  0  0  0  0  0  0  0
   54.6280   22.1485   43.4932 H   0  0  0  0  0  0  0  0  0  0  0  0
   55.1780   23.4660   45.1220 C   0  0  0  0  0  0  0  0  0  0  0  0
   54.3976   23.0793   45.7939 H   0  0  0  0  0  0  0  0  0  0  0  0
   56.0410   24.4900   45.5640 C   0  0  0  0  0  0  0  0  0  0  0  0
   55.9480   25.0350   46.8550 O   0  0  0  0  0  0  0  0  0  0  0  0
   56.9200   24.8500   47.8790 C   0  0  0  0  0  0  0  0  0  0  0  0
   56.4376   24.9418   48.8633 H   0  0  0  0  0  0  0  0  0  0  0  0
   57.3687   23.8503   47.7824 H   0  0  0  0  0  0  0  0  0  0  0  0
   57.7045   25.6149   47.7824 H   0  0  0  0  0  0  0  0  0  0  0  0
   57.0210   24.9920   44.6920 C   0  0  0  0  0  0  0  0  0  0  0  0
   57.9230   26.0050   45.1640 N   0  0  0  0  0  0  0  0  0  0  0  0
   57.7470   27.2920   45.0930 C   0  0  0  0  0  0  0  0  0  0  0  0
   57.9210   28.3970   46.3810 S   0  0  0  0  0  0  0  0  0  0  0  0
   57.5910   29.6990   45.3760 C   0  0  0  0  0  0  0  0  0  0  0  0
   57.5390   31.0100   45.7150 N   0  0  0  0  0  0  0  0  0  0  0  0
   57.2600   31.9450   44.7580 C   0  0  0  0  0  0  0  0  0  0  0  0
   57.1600   33.3890   45.1490 C   0  0  0  0  0  0  0  0  0  0  0  0
   56.2868   33.5301   45.8029 H   0  0  0  0  0  0  0  0  0  0  0  0
   57.0492   34.0026   44.2428 H   0  0  0  0  0  0  0  0  0  0  0  0
   58.4000   33.8070   45.8790 C   0  0  0  0  0  0  0  0  0  0  0  0
   59.4620   34.5350   45.3500 C   0  0  0  0  0  0  0  0  0  0  0  0
   59.4898   34.9553   44.3338 H   0  0  0  0  0  0  0  0  0  0  0  0
   60.4550   34.6530   46.2610 N   0  0  0  0  0  0  0  0  0  0  0  0
   61.3680   35.1410   46.1300 H   0  0  0  0  0  0  0  0  0  0  0  0
   60.0320   33.9950   47.3550 C   0  0  0  0  0  0  0  0  0  0  0  0
   60.7220   33.8220   48.5530 C   0  0  0  0  0  0  0  0  0  0  0  0
   61.7222   34.2559   48.6987 H   0  0  0  0  0  0  0  0  0  0  0  0
   60.1010   33.0760   49.5700 C   0  0  0  0  0  0  0  0  0  0  0  0
   60.6202   32.9231   50.5276 H   0  0  0  0  0  0  0  0  0  0  0  0
   58.8080   32.5170   49.3730 C   0  0  0  0  0  0  0  0  0  0  0  0
   58.1580   31.7660   50.3630 O   0  0  0  0  0  0  0  0  0  0  0  0
   58.1860   32.0750   51.7530 C   0  0  0  0  0  0  0  0  0  0  0  0
   58.1019   31.1465   52.3368 H   0  0  0  0  0  0  0  0  0  0  0  0
   59.1334   32.5775   51.9979 H   0  0  0  0  0  0  0  0  0  0  0  0
   57.3444   32.7396   51.9979 H   0  0  0  0  0  0  0  0  0  0  0  0
   58.1440   32.7140   48.1460 C   0  0  0  0  0  0  0  0  0  0  0  0
   57.1448   32.2888   47.9708 H   0  0  0  0  0  0  0  0  0  0  0  0
   58.7860   33.4620   47.1590 C   0  0  0  0  0  0  0  0  0  0  0  0
   57.0150   31.5400   43.4230 C   0  0  0  0  0  0  0  0  0  0  0  0
   56.7796   32.2907   42.6542 H   0  0  0  0  0  0  0  0  0  0  0  0
   57.0730   30.1790   43.0820 C   0  0  0  0  0  0  0  0  0  0  0  0
   56.8919   29.8477   42.0488 H   0  0  0  0  0  0  0  0  0  0  0  0
   57.3660   29.2590   44.0870 C   0  0  0  0  0  0  0  0  0  0  0  0
   57.4580   27.9150   43.9230 N   0  0  0  0  0  0  0  0  0  0  0  0
   57.3250   27.4220   43.0110 H   0  0  0  0  0  0  0  0  0  0  0  0
   57.1650   24.4320   43.4090 C   0  0  0  0  0  0  0  0  0  0  0  0
   57.9593   24.7943   42.7399 H   0  0  0  0  0  0  0  0  0  0  0  0
  1  2  1  0
  2  3  2  0
  3  4  1  0
  3  5  1  0
  5  6  1  0
  5  7  2  0
  7  8  1  0
  8  9  1  0
  9 10  1  0
  9 11  1  0
  9 12  1  0
  7 13  1  0
 13 14  1  0
 14 15  2  0
 15 16  1  0
 16 17  1  0
 17 18  2  0
 18 19  1  0
 19 20  1  0
 20 21  1  0
 20 22  1  0
 20 23  1  0
 23 24  2  0
 24 25  1  0
 24 26  1  0
 26 27  1  0
 26 28  1  0
 28 29  2  0
 29 30  1  0
 29 31  1  0
 31 32  1  0
 31 33  2  0
 33 34  1  0
 34 35  1  0
 35 36  1  0
 35 37  1  0
 35 38  1  0
 33 39  1  0
 39 40  1  0
 39 41  2  0
 19 42  2  0
 42 43  1  0
 42 44  1  0
 44 45  1  0
 44 46  2  0
 46 47  1  0
 47 48  1  0
 13 49  2  0
 49 50  1  0
 49  2  1  0
 47 15  1  0
 46 17  1  0
 41 23  1  0
 41 28  1  0
M  END
>  <UniqueID>  (38) 
33

>  <SMILES>  (38) 
COc1ccc2[nH]cc(Cc3ccc4[nH]/c(=N/c5ccccc5OC)sc4n3)c2c1

>  <Energy>  (38) 
129.75076607253322

>  <Genealogy>  (38) 
COc1ccc2[nH]cc(Cc3ccc4[nH]/c(=N/c5ccccc5OC)sc4n3)c2c1 (cis-trans isomerization)
COc1ccc2[nH]cc(Cc3ccc4[nH]/c(=N/c5ccccc5OC)sc4n3)c2c1 (3D coordinates assigned)
COc1ccc2[nH]cc(Cc3ccc4[nH]/c(=N/c5ccccc5OC)sc4n3)c2c1 (optimized conformer: 129.75076607253322 kcal/mol)

>  <smiles>  (38) 
COc1ccc2[nH]cc(Cc3ccc4[nH]c(=Nc5ccccc5OC)sc4n3)c2c1

>  <score_type>  (38) 
oracle

>  <origin>  (38) 
adg

>  <m_score__min__energy>  (38) 
-8.9700000000000006

>  <m_primary>  (38) 
energy

$$$$
38:0
     RDKit          3D

 40 42  0  0  1  0  0  0  0  0999 V2000
   50.5670   32.7370   52.7900 C   0  0  0  0  0  0  0  0  0  0  0  0
   51.0490   32.7040   51.4610 O   0  0  0  0  0  0  0  0  0  0  0  0
   51.6530   31.5730   50.9320 C   0  0  0  0  0  0  0  0  0  0  0  0
   51.3210   31.1340   49.8020 O   0  0  0  0  0  0  0  0  0  0  0  0
   52.6930   30.9170   51.7480 C   0  0  0  0  0  0  0  0  0  0  0  0
   52.4000   30.3180   52.9580 C   0  0  0  0  0  0  0  0  0  0  0  0
   53.3530   29.6960   53.7400 C   0  0  0  0  0  0  0  0  0  0  0  0
   54.6490   29.6880   53.2700 C   0  0  0  0  0  0  0  0  0  0  0  0
   55.0080   30.2740   52.0610 C   0  0  0  0  0  0  0  0  0  0  0  0
   56.3600   30.2310   51.6340 N   0  0  0  0  0  0  0  0  0  0  0  0
   57.0830   31.2800   51.5880 C   0  0  0  0  0  0  0  0  0  0  0  0
   56.9930   32.2880   52.5170 C   0  0  0  0  0  0  0  0  0  0  0  0
   57.8190   33.3780   52.3750 C   0  0  0  0  0  0  0  0  0  0  0  0
   58.7020   33.4800   51.3620 N   0  0  0  0  0  0  0  0  0  0  0  0
   58.7800   32.4760   50.4490 C   0  0  0  0  0  0  0  0  0  0  0  0
   59.5870   32.5040   49.4680 N   0  0  0  0  0  0  0  0  0  0  0  0
   59.2030   33.1670   48.2700 C   0  0  0  0  0  0  0  0  0  0  0  0
   59.9810   34.2690   47.9100 C   0  0  0  0  0  0  0  0  0  0  0  0
   59.6570   34.9550   46.7550 C   0  0  0  0  0  0  0  0  0  0  0  0
   58.5840   34.5720   45.9540 C   0  0  0  0  0  0  0  0  0  0  0  0
   57.8260   33.4670   46.3400 C   0  0  0  0  0  0  0  0  0  0  0  0
   56.7630   33.0410   45.6000 F   0  0  0  0  0  0  0  0  0  0  0  0
   58.1280   32.7550   47.4990 C   0  0  0  0  0  0  0  0  0  0  0  0
   57.9670   31.4060   50.5920 N   0  0  0  0  0  0  0  0  0  0  0  0
   54.0090   30.8730   51.3370 C   0  0  0  0  0  0  0  0  0  0  0  0
   51.4144   32.6790   53.4889 H   0  0  0  0  0  0  0  0  0  0  0  0
   50.0172   33.6749   52.9574 H   0  0  0  0  0  0  0  0  0  0  0  0
   49.8945   31.8828   52.9574 H   0  0  0  0  0  0  0  0  0  0  0  0
   51.3597   30.3375   53.3148 H   0  0  0  0  0  0  0  0  0  0  0  0
   53.0889   29.2261   54.6989 H   0  0  0  0  0  0  0  0  0  0  0  0
   55.4282   29.1999   53.8738 H   0  0  0  0  0  0  0  0  0  0  0  0
   56.2795   32.2248   53.3518 H   0  0  0  0  0  0  0  0  0  0  0  0
   57.7571   34.1926   53.1116 H   0  0  0  0  0  0  0  0  0  0  0  0
   59.3210   34.3250   51.2780 H   0  0  0  0  0  0  0  0  0  0  0  0
   60.8323   34.5839   48.5314 H   0  0  0  0  0  0  0  0  0  0  0  0
   60.2618   35.8255   46.4609 H   0  0  0  0  0  0  0  0  0  0  0  0
   58.3399   35.1288   45.0373 H   0  0  0  0  0  0  0  0  0  0  0  0
   57.5255   31.8839   47.7957 H   0  0  0  0  0  0  0  0  0  0  0  0
   58.0380   30.6320   49.8750 H   0  0  0  0  0  0  0  0  0  0  0  0
   54.2711   31.3433   50.3777 H   0  0  0  0  0  0  0  0  0  0  0  0
  1  2  1  0
  2  3  1  0
  3  4  2  0
  3  5  1  0
  5  6  2  0
  6  7  1  0
  7  8  2  0
  8  9  1  0
  9 10  1  0
 10 11  2  0
 11 12  1  0
 12 13  2  0
 13 14  1  0
 14 15  1  0
 15 16  2  0
 16 17  1  0
 17 18  2  0
 18 19  1  0
 19 20  2  0
 20 21  1  0
 21 22  1  0
 21 23  2  0
 15 24  1  0
  9 25  2  0
 25  5  1  0
 24 11  1  0
 23 17  1  0
  1 26  1  0
  1 27  1  0
  1 28  1  0
  6 29  1  0
  7 30  1  0
  8 31  1  0
 12 32  1  0
 13 33  1  0
 14 34  1  0
 18 35  1  0
 19 36  1  0
 20 37  1  0
 23 38  1  0
 24 39  1  0
 25 40  1  0
M  END
>  <smiles>  (39) 
COC(=O)c1cccc(N=c2cc[nH]c(=Nc3cccc(F)c3)[nH]2)c1

>  <score_type>  (39) 
oracle

>  <origin>  (39) 
adg

>  <m_score__min__energy>  (39) 
-8.2300000000000004

>  <m_primary>  (39) 
energy

$$$$
39:0
     RDKit          3D

 46 49  0  0  0  0  0  0  0  0999 V2000
   55.5890   30.0470   44.4660 C   0  0  0  0  0  0  0  0  0  0  0  0
   57.0710   29.9600   44.6910 C   0  0  0  0  0  0  0  0  0  0  0  0
   58.0400   30.9530   44.4650 C   0  0  0  0  0  0  0  0  0  0  0  0
   57.8820   32.2140   43.8680 O   0  0  0  0  0  0  0  0  0  0  0  0
   57.3960   33.3940   44.5070 C   0  0  0  0  0  0  0  0  0  0  0  0
   57.8430   33.4830   45.9820 C   0  0  0  0  0  0  0  0  0  0  0  0
   59.2070   32.9280   46.2130 N   0  0  0  0  0  0  0  0  0  0  0  0
   59.2240   32.0300   47.3920 C   0  0  0  0  0  0  0  0  0  0  0  0
   58.9710   32.7830   48.7130 C   0  0  0  0  0  0  0  0  0  0  0  0
   59.6480   34.1640   48.7500 C   0  0  0  0  0  0  0  0  0  0  0  0
   60.7760   34.2650   47.7250 C   0  0  0  0  0  0  0  0  0  0  0  0
   60.2570   33.9890   46.2970 C   0  0  0  0  0  0  0  0  0  0  0  0
   59.2170   30.5500   44.8970 O   0  0  0  0  0  0  0  0  0  0  0  0
   59.0810   29.3410   45.3780 C   0  0  0  0  0  0  0  0  0  0  0  0
   60.0820   28.5460   45.9310 C   0  0  0  0  0  0  0  0  0  0  0  0
   59.7350   27.2670   46.3950 C   0  0  0  0  0  0  0  0  0  0  0  0
   58.4020   26.8110   46.2940 C   0  0  0  0  0  0  0  0  0  0  0  0
   58.0320   25.5390   46.7420 C   0  0  0  0  0  0  0  0  0  0  0  0
   56.7070   25.1260   46.6160 C   0  0  0  0  0  0  0  0  0  0  0  0
   55.7750   25.9970   46.0410 C   0  0  0  0  0  0  0  0  0  0  0  0
   54.5740   25.6400   45.9170 O   0  0  0  0  0  0  0  0  0  0  0  0
   56.1490   27.2030   45.6220 O   0  0  0  0  0  0  0  0  0  0  0  0
   57.4000   27.6410   45.7240 C   0  0  0  0  0  0  0  0  0  0  0  0
   57.7780   28.9150   45.2750 C   0  0  0  0  0  0  0  0  0  0  0  0
   55.0720   30.0774   45.4364 H   0  0  0  0  0  0  0  0  0  0  0  0
   55.3573   30.9603   43.8984 H   0  0  0  0  0  0  0  0  0  0  0  0
   55.2520   29.1671   43.8984 H   0  0  0  0  0  0  0  0  0  0  0  0
   57.7785   34.2727   43.9670 H   0  0  0  0  0  0  0  0  0  0  0  0
   56.2967   33.3606   44.4881 H   0  0  0  0  0  0  0  0  0  0  0  0
   57.8388   34.5401   46.2861 H   0  0  0  0  0  0  0  0  0  0  0  0
   57.1388   32.8815   46.5755 H   0  0  0  0  0  0  0  0  0  0  0  0
   59.4470   32.3150   45.3980 H   0  0  0  0  0  0  0  0  0  0  0  0
   58.4415   31.2673   47.2655 H   0  0  0  0  0  0  0  0  0  0  0  0
   60.2248   31.5775   47.4523 H   0  0  0  0  0  0  0  0  0  0  0  0
   57.8867   32.9195   48.8378 H   0  0  0  0  0  0  0  0  0  0  0  0
   59.4022   32.1804   49.5260 H   0  0  0  0  0  0  0  0  0  0  0  0
   58.8960   34.9362   48.5305 H   0  0  0  0  0  0  0  0  0  0  0  0
   60.0792   34.3090   49.7515 H   0  0  0  0  0  0  0  0  0  0  0  0
   61.2051   35.2772   47.7618 H   0  0  0  0  0  0  0  0  0  0  0  0
   61.5393   33.5119   47.9706 H   0  0  0  0  0  0  0  0  0  0  0  0
   59.8341   34.9231   45.8987 H   0  0  0  0  0  0  0  0  0  0  0  0
   61.1173   33.6243   45.7166 H   0  0  0  0  0  0  0  0  0  0  0  0
   61.1174   28.9106   46.0024 H   0  0  0  0  0  0  0  0  0  0  0  0
   60.5041   26.6178   46.8388 H   0  0  0  0  0  0  0  0  0  0  0  0
   58.7810   24.8697   47.1904 H   0  0  0  0  0  0  0  0  0  0  0  0
   56.3981   24.1292   46.9637 H   0  0  0  0  0  0  0  0  0  0  0  0
  1  2  1  0
  2  3  2  0
  3  4  1  0
  4  5  1  0
  5  6  1  0
  6  7  1  0
  7  8  1  0
  8  9  1  0
  9 10  1  0
 10 11  1  0
 11 12  1  0
  3 13  1  0
 13 14  1  0
 14 15  2  0
 15 16  1  0
 16 17  2  0
 17 18  1  0
 18 19  2  0
 19 20  1  0
 20 21  2  0
 20 22  1  0
 22 23  1  0
 23 24  2  0
 24  2  1  0
 12  7  1  0
 24 14  1  0
 23 17  1  0
  1 25  1  0
  1 26  1  0
  1 27  1  0
  5 28  1  0
  5 29  1  0
  6 30  1  0
  6 31  1  0
  7 32  1  0
  8 33  1  0
  8 34  1  0
  9 35  1  0
  9 36  1  0
 10 37  1  0
 10 38  1  0
 11 39  1  0
 11 40  1  0
 12 41  1  0
 12 42  1  0
 15 43  1  0
 16 44  1  0
 18 45  1  0
 19 46  1  0
M  CHG  1   7   1
M  END
>  <UniqueID>  (40) 
34

>  <SMILES>  (40) 
Cc1c(OCC[NH+]2CCCCC2)oc2ccc3ccc(=O)oc3c12

>  <Energy>  (40) 
100.24242941492588

>  <Genealogy>  (40) 
Cc1c(OCC[NH+]2CCCCC2)oc2ccc3ccc(=O)oc3c12 (protonated)
Cc1c(OCC[NH+]2CCCCC2)oc2ccc3ccc(=O)oc3c12 (3D coordinates assigned)
Cc1c(OCC[NH+]2CCCCC2)oc2ccc3ccc(=O)oc3c12 (nonaromatic ring conformer: 100.24242941492588 kcal/mol)

>  <smiles>  (40) 
Cc1c(OCCN2CCCCC2)oc2ccc3ccc(=O)oc3c12

>  <score_type>  (40) 
oracle

>  <origin>  (40) 
adg

>  <m_score__min__energy>  (40) 
-6.5599999999999996

>  <m_primary>  (40) 
energy

$$$$
40:0
     RDKit          3D

 41 43  0  0  0  0  0  0  0  0999 V2000
   56.2220   30.8780   44.6500 O   0  0  0  0  0  0  0  0  0  0  0  0
   57.2160   31.6300   44.8420 C   0  0  0  0  0  0  0  0  0  0  0  0
   56.9900   33.0520   45.2500 C   0  0  0  0  0  0  0  0  0  0  0  0
   58.2920   33.6780   45.6310 C   0  0  0  0  0  0  0  0  0  0  0  0
   58.8590   34.7910   45.0530 C   0  0  0  0  0  0  0  0  0  0  0  0
   60.0260   34.9710   45.6190 O   0  0  0  0  0  0  0  0  0  0  0  0
   60.1870   34.0080   46.5010 C   0  0  0  0  0  0  0  0  0  0  0  0
   61.4010   33.8480   47.3260 C   0  0  0  0  0  0  0  0  0  0  0  0
   62.6220   33.4730   46.7380 C   0  0  0  0  0  0  0  0  0  0  0  0
   63.7740   33.3490   47.5210 C   0  0  0  0  0  0  0  0  0  0  0  0
   63.7170   33.6000   48.8950 C   0  0  0  0  0  0  0  0  0  0  0  0
   62.5090   33.9740   49.4880 C   0  0  0  0  0  0  0  0  0  0  0  0
   62.4560   34.2190   50.8200 F   0  0  0  0  0  0  0  0  0  0  0  0
   61.3550   34.1000   48.7080 C   0  0  0  0  0  0  0  0  0  0  0  0
   59.1330   33.1650   46.5490 N   0  0  0  0  0  0  0  0  0  0  0  0
   58.5510   31.1160   44.7270 N   0  0  0  0  0  0  0  0  0  0  0  0
   58.8390   29.7060   44.4670 C   0  0  0  0  0  0  0  0  0  0  0  0
   60.0820   29.2520   45.2400 C   0  0  0  0  0  0  0  0  0  0  0  0
   60.0460   29.6970   46.6810 C   0  0  0  0  0  0  0  0  0  0  0  0
   58.9050   29.4630   47.4690 C   0  0  0  0  0  0  0  0  0  0  0  0
   58.8720   29.8820   48.8020 C   0  0  0  0  0  0  0  0  0  0  0  0
   59.9780   30.5240   49.3630 C   0  0  0  0  0  0  0  0  0  0  0  0
   61.1190   30.7530   48.5900 C   0  0  0  0  0  0  0  0  0  0  0  0
   61.1510   30.3540   47.2510 C   0  0  0  0  0  0  0  0  0  0  0  0
   56.5486   33.6080   44.4098 H   0  0  0  0  0  0  0  0  0  0  0  0
   56.3057   33.0803   46.1108 H   0  0  0  0  0  0  0  0  0  0  0  0
   58.4145   35.4136   44.2626 H   0  0  0  0  0  0  0  0  0  0  0  0
   62.6712   33.2762   45.6569 H   0  0  0  0  0  0  0  0  0  0  0  0
   64.7258   33.0537   47.0553 H   0  0  0  0  0  0  0  0  0  0  0  0
   64.6241   33.5029   49.5096 H   0  0  0  0  0  0  0  0  0  0  0  0
   60.4064   34.3979   49.1786 H   0  0  0  0  0  0  0  0  0  0  0  0
   59.3550   31.7540   44.9240 H   0  0  0  0  0  0  0  0  0  0  0  0
   57.9775   29.0983   44.7808 H   0  0  0  0  0  0  0  0  0  0  0  0
   59.0271   29.5776   43.3908 H   0  0  0  0  0  0  0  0  0  0  0  0
   60.1380   28.1539   45.2089 H   0  0  0  0  0  0  0  0  0  0  0  0
   60.9627   29.7093   44.7654 H   0  0  0  0  0  0  0  0  0  0  0  0
   58.0353   28.9483   47.0347 H   0  0  0  0  0  0  0  0  0  0  0  0
   57.9728   29.7057   49.4106 H   0  0  0  0  0  0  0  0  0  0  0  0
   59.9508   30.8494   50.4134 H   0  0  0  0  0  0  0  0  0  0  0  0
   61.9939   31.2484   49.0362 H   0  0  0  0  0  0  0  0  0  0  0  0
   62.0439   30.5546   46.6407 H   0  0  0  0  0  0  0  0  0  0  0  0
  1  2  2  0
  2  3  1  0
  3  4  1  0
  4  5  2  0
  5  6  1  0
  6  7  1  0
  7  8  1  0
  8  9  2  0
  9 10  1  0
 10 11  2  0
 11 12  1  0
 12 13  1  0
 12 14  2  0
  7 15  2  0
  2 16  1  0
 16 17  1  0
 17 18  1  0
 18 19  1  0
 19 20  2  0
 20 21  1  0
 21 22  2  0
 22 23  1  0
 23 24  2  0
 15  4  1  0
 24 19  1  0
 14  8  1  0
  3 25  1  0
  3 26  1  0
  5 27  1  0
  9 28  1  0
 10 29  1  0
 11 30  1  0
 14 31  1  0
 16 32  1  0
 17 33  1  0
 17 34  1  0
 18 35  1  0
 18 36  1  0
 20 37  1  0
 21 38  1  0
 22 39  1  0
 23 40  1  0
 24 41  1  0
M  END
>  <UniqueID>  (41) 
35

>  <SMILES>  (41) 
O=C(Cc1coc(-c2cccc(F)c2)n1)NCCc1ccccc1

>  <Energy>  (41) 
61.634237212810156

>  <Genealogy>  (41) 
O=C(Cc1coc(-c2cccc(F)c2)n1)NCCc1ccccc1 (3D coordinates assigned)
O=C(Cc1coc(-c2cccc(F)c2)n1)NCCc1ccccc1 (optimized conformer: 61.634237212810156 kcal/mol)

>  <smiles>  (41) 
O=C(Cc1coc(-c2cccc(F)c2)n1)NCCc1ccccc1

>  <score_type>  (41) 
oracle

>  <origin>  (41) 
adg

>  <m_score__min__energy>  (41) 
-7.5499999999999998

>  <m_primary>  (41) 
energy

$$$$
41:0
     RDKit          3D

 39 41  0  0  0  0  0  0  0  0999 V2000
   66.0230   32.7710   50.1010 C   0  0  0  0  0  0  0  0  0  0  0  0
   64.9770   33.4540   49.4210 O   0  0  0  0  0  0  0  0  0  0  0  0
   63.8500   32.8270   48.8670 C   0  0  0  0  0  0  0  0  0  0  0  0
   63.2580   31.7770   49.5740 C   0  0  0  0  0  0  0  0  0  0  0  0
   62.1370   31.1180   49.0640 C   0  0  0  0  0  0  0  0  0  0  0  0
   61.5870   31.5050   47.8320 C   0  0  0  0  0  0  0  0  0  0  0  0
   60.4230   30.7850   47.2800 C   0  0  0  0  0  0  0  0  0  0  0  0
   60.0400   30.8620   45.9870 N   0  0  0  0  0  0  0  0  0  0  0  0
   58.9960   30.0130   45.9260 C   0  0  0  0  0  0  0  0  0  0  0  0
   58.2170   29.7150   44.6820 C   0  0  0  0  0  0  0  0  0  0  0  0
   56.8060   30.8650   44.4790 S   0  0  0  0  0  0  0  0  0  0  0  0
   57.7540   32.3020   43.8510 C   0  0  0  0  0  0  0  0  0  0  0  0
   58.2320   33.1800   44.9770 C   0  0  0  0  0  0  0  0  0  0  0  0
   59.1780   34.1920   44.7400 C   0  0  0  0  0  0  0  0  0  0  0  0
   59.6500   34.9770   45.7970 C   0  0  0  0  0  0  0  0  0  0  0  0
   59.1740   34.7650   47.0940 C   0  0  0  0  0  0  0  0  0  0  0  0
   58.2200   33.7730   47.3350 C   0  0  0  0  0  0  0  0  0  0  0  0
   57.7460   32.9860   46.2810 C   0  0  0  0  0  0  0  0  0  0  0  0
   58.7620   29.4810   47.1720 C   0  0  0  0  0  0  0  0  0  0  0  0
   59.6630   29.9740   47.9840 O   0  0  0  0  0  0  0  0  0  0  0  0
   62.1790   32.5600   47.1190 C   0  0  0  0  0  0  0  0  0  0  0  0
   63.3020   33.2170   47.6310 C   0  0  0  0  0  0  0  0  0  0  0  0
   65.8775   32.8660   51.1872 H   0  0  0  0  0  0  0  0  0  0  0  0
   66.0092   31.7074   49.8209 H   0  0  0  0  0  0  0  0  0  0  0  0
   66.9913   33.2114   49.8209 H   0  0  0  0  0  0  0  0  0  0  0  0
   63.6789   31.4664   50.5417 H   0  0  0  0  0  0  0  0  0  0  0  0
   61.6830   30.2917   49.6307 H   0  0  0  0  0  0  0  0  0  0  0  0
   58.8833   29.8103   43.8120 H   0  0  0  0  0  0  0  0  0  0  0  0
   57.8191   28.6926   44.7616 H   0  0  0  0  0  0  0  0  0  0  0  0
   58.6252   31.9371   43.2872 H   0  0  0  0  0  0  0  0  0  0  0  0
   57.0921   32.8975   43.2050 H   0  0  0  0  0  0  0  0  0  0  0  0
   59.5486   34.3674   43.7193 H   0  0  0  0  0  0  0  0  0  0  0  0
   60.3967   35.7622   45.6074 H   0  0  0  0  0  0  0  0  0  0  0  0
   59.5505   35.3793   47.9252 H   0  0  0  0  0  0  0  0  0  0  0  0
   57.8415   33.6110   48.3550 H   0  0  0  0  0  0  0  0  0  0  0  0
   56.9891   32.2114   46.4735 H   0  0  0  0  0  0  0  0  0  0  0  0
   57.9644   28.7716   47.4378 H   0  0  0  0  0  0  0  0  0  0  0  0
   61.7568   32.8713   46.1521 H   0  0  0  0  0  0  0  0  0  0  0  0
   63.7590   34.0422   47.0652 H   0  0  0  0  0  0  0  0  0  0  0  0
  1  2  1  0
  2  3  1  0
  3  4  2  0
  4  5  1  0
  5  6  2  0
  6  7  1  0
  7  8  2  0
  8  9  1  0
  9 10  1  0
 10 11  1  0
 11 12  1  0
 12 13  1  0
 13 14  2  0
 14 15  1  0
 15 16  2  0
 16 17  1  0
 17 18  2  0
  9 19  2  0
 19 20  1  0
  6 21  1  0
 21 22  2  0
 22  3  1  0
 20  7  1  0
 18 13  1  0
  1 23  1  0
  1 24  1  0
  1 25  1  0
  4 26  1  0
  5 27  1  0
 10 28  1  0
 10 29  1  0
 12 30  1  0
 12 31  1  0
 14 32  1  0
 15 33  1  0
 16 34  1  0
 17 35  1  0
 18 36  1  0
 19 37  1  0
 21 38  1  0
 22 39  1  0
M  END
>  <UniqueID>  (42) 
36

>  <SMILES>  (42) 
COc1ccc(-c2nc(CSCc3ccccc3)co2)cc1

>  <Energy>  (42) 
62.78579833813325

>  <Genealogy>  (42) 
COc1ccc(-c2nc(CSCc3ccccc3)co2)cc1 (3D coordinates assigned)
COc1ccc(-c2nc(CSCc3ccccc3)co2)cc1 (optimized conformer: 62.78579833813325 kcal/mol)

>  <smiles>  (42) 
COc1ccc(-c2nc(CSCc3ccccc3)co2)cc1

>  <score_type>  (42) 
oracle

>  <origin>  (42) 
adg

>  <m_score__min__energy>  (42) 
-7.2599999999999998

>  <m_primary>  (42) 
energy

$$$$
42:0
     RDKit          3D

 56 60  0  0  0  0  0  0  0  0999 V2000
   61.7360   33.8260   46.4440 C   0  0  0  0  0  0  0  0  0  0  0  0
   60.2320   33.8710   46.4570 C   0  0  0  0  0  0  0  0  0  0  0  0
   59.5720   34.3230   45.3010 C   0  0  0  0  0  0  0  0  0  0  0  0
   58.1790   34.3130   45.2260 C   0  0  0  0  0  0  0  0  0  0  0  0
   57.4260   33.8410   46.2970 C   0  0  0  0  0  0  0  0  0  0  0  0
   58.0620   33.4060   47.4600 C   0  0  0  0  0  0  0  0  0  0  0  0
   59.4640   33.4670   47.5860 C   0  0  0  0  0  0  0  0  0  0  0  0
   60.0810   32.9530   48.8760 C   0  0  0  0  0  0  0  0  0  0  0  0
   59.3420   31.8300   49.4910 N   0  0  0  0  0  0  0  0  0  0  0  0
   59.1640   30.6060   48.9090 C   0  0  0  0  0  0  0  0  0  0  0  0
   59.5530   30.2410   47.5330 C   0  0  0  0  0  0  0  0  0  0  0  0
   60.5840   29.5420   47.3370 O   0  0  0  0  0  0  0  0  0  0  0  0
   58.7670   30.6920   46.4200 N   0  0  0  0  0  0  0  0  0  0  0  0
   58.8480   30.0500   45.1120 C   0  0  0  0  0  0  0  0  0  0  0  0
   57.4710   29.7260   44.6220 C   0  0  0  0  0  0  0  0  0  0  0  0
   56.8500   30.2610   43.5140 C   0  0  0  0  0  0  0  0  0  0  0  0
   55.5620   29.7670   43.5390 C   0  0  0  0  0  0  0  0  0  0  0  0
   55.4010   28.9960   44.5930 O   0  0  0  0  0  0  0  0  0  0  0  0
   56.5260   28.9570   45.2690 C   0  0  0  0  0  0  0  0  0  0  0  0
   58.5730   29.7130   49.7840 C   0  0  0  0  0  0  0  0  0  0  0  0
   58.3390   30.4310   50.9270 C   0  0  0  0  0  0  0  0  0  0  0  0
   57.7540   29.9930   52.1080 C   0  0  0  0  0  0  0  0  0  0  0  0
   57.5990   30.9150   53.1660 C   0  0  0  0  0  0  0  0  0  0  0  0
   56.9930   30.5540   54.5120 C   0  0  0  0  0  0  0  0  0  0  0  0
   55.5630   30.0310   54.5160 C   0  0  0  0  0  0  0  0  0  0  0  0
   56.7230   29.0800   54.7840 C   0  0  0  0  0  0  0  0  0  0  0  0
   58.0100   32.2520   52.9710 C   0  0  0  0  0  0  0  0  0  0  0  0
   58.5750   32.6920   51.7500 C   0  0  0  0  0  0  0  0  0  0  0  0
   58.8950   34.1520   51.6220 C   0  0  0  0  0  0  0  0  0  0  0  0
   58.7800   31.7240   50.7330 C   0  0  0  0  0  0  0  0  0  0  0  0
   62.1114   33.8148   47.4779 H   0  0  0  0  0  0  0  0  0  0  0  0
   62.0712   32.9174   45.9223 H   0  0  0  0  0  0  0  0  0  0  0  0
   62.1249   34.7129   45.9223 H   0  0  0  0  0  0  0  0  0  0  0  0
   60.1603   34.6885   44.4464 H   0  0  0  0  0  0  0  0  0  0  0  0
   57.6751   34.6787   44.3191 H   0  0  0  0  0  0  0  0  0  0  0  0
   56.3287   33.8109   46.2265 H   0  0  0  0  0  0  0  0  0  0  0  0
   57.4600   33.0095   48.2909 H   0  0  0  0  0  0  0  0  0  0  0  0
   61.1051   32.6154   48.6589 H   0  0  0  0  0  0  0  0  0  0  0  0
   60.0523   33.7845   49.5956 H   0  0  0  0  0  0  0  0  0  0  0  0
   57.9930   31.3740   46.5850 H   0  0  0  0  0  0  0  0  0  0  0  0
   59.3384   30.7306   44.4005 H   0  0  0  0  0  0  0  0  0  0  0  0
   59.4316   29.1216   45.1978 H   0  0  0  0  0  0  0  0  0  0  0  0
   57.2888   30.9390   42.7671 H   0  0  0  0  0  0  0  0  0  0  0  0
   54.7862   29.9850   42.7902 H   0  0  0  0  0  0  0  0  0  0  0  0
   56.6891   28.3995   46.2031 H   0  0  0  0  0  0  0  0  0  0  0  0
   58.3406   28.6534   49.6014 H   0  0  0  0  0  0  0  0  0  0  0  0
   57.4189   28.9509   52.2167 H   0  0  0  0  0  0  0  0  0  0  0  0
   57.5296   31.3568   55.0388 H   0  0  0  0  0  0  0  0  0  0  0  0
   54.8786   30.3073   55.3316 H   0  0  0  0  0  0  0  0  0  0  0  0
   54.7244   30.0539   53.8045 H   0  0  0  0  0  0  0  0  0  0  0  0
   56.8761   28.6698   55.7931 H   0  0  0  0  0  0  0  0  0  0  0  0
   57.0689   28.1320   54.3463 H   0  0  0  0  0  0  0  0  0  0  0  0
   57.8874   32.9731   53.7926 H   0  0  0  0  0  0  0  0  0  0  0  0
   58.9922   34.5953   52.6240 H   0  0  0  0  0  0  0  0  0  0  0  0
   59.8411   34.2734   51.0741 H   0  0  0  0  0  0  0  0  0  0  0  0
   58.0864   34.6579   51.0741 H   0  0  0  0  0  0  0  0  0  0  0  0
  1  2  1  0
  2  3  2  0
  3  4  1  0
  4  5  2  0
  5  6  1  0
  6  7  2  0
  7  8  1  0
  8  9  1  0
  9 10  1  0
 10 11  1  0
 11 12  2  0
 11 13  1  0
 13 14  1  0
 14 15  1  0
 15 16  1  0
 16 17  2  0
 17 18  1  0
 18 19  1  0
 10 20  2  0
 20 21  1  0
 21 22  2  0
 22 23  1  0
 23 24  1  0
 24 25  1  0
 25 26  1  0
 23 27  2  0
 27 28  1  0
 28 29  1  0
 28 30  2  0
  7  2  1  0
 30  9  1  0
 19 15  2  0
 30 21  1  0
 26 24  1  0
  1 31  1  0
  1 32  1  0
  1 33  1  0
  3 34  1  0
  4 35  1  0
  5 36  1  0
  6 37  1  0
  8 38  1  0
  8 39  1  0
 13 40  1  0
 14 41  1  0
 14 42  1  0
 16 43  1  0
 17 44  1  0
 19 45  1  0
 20 46  1  0
 22 47  1  0
 24 48  1  0
 25 49  1  0
 25 50  1  0
 26 51  1  0
 26 52  1  0
 27 53  1  0
 29 54  1  0
 29 55  1  0
 29 56  1  0
M  END
>  <UniqueID>  (43) 
37

>  <SMILES>  (43) 
Cc1ccccc1Cn1c(C(=O)NCc2ccoc2)cc2cc(C3CC3)cc(C)c21

>  <Energy>  (43) 
395.75029047663276

>  <Genealogy>  (43) 
Cc1ccccc1Cn1c(C(=O)NCc2ccoc2)cc2cc(C3CC3)cc(C)c21 (3D coordinates assigned)
Cc1ccccc1Cn1c(C(=O)NCc2ccoc2)cc2cc(C3CC3)cc(C)c21 (nonaromatic ring conformer: 395.75029047663276 kcal/mol)

>  <smiles>  (43) 
Cc1ccccc1Cn1c(C(=O)NCc2ccoc2)cc2cc(C3CC3)cc(C)c21

>  <score_type>  (43) 
oracle

>  <origin>  (43) 
adg

>  <m_score__min__energy>  (43) 
-9.0099999999999998

>  <m_primary>  (43) 
energy

$$$$
43:0
     RDKit          3D

 35 38  0  0  0  0  0  0  0  0999 V2000
   56.6440   30.5240   42.5780 C   0  0  0  0  0  0  0  0  0  0  0  0
   57.4190   31.6010   42.1360 C   0  0  0  0  0  0  0  0  0  0  0  0
   58.0990   32.4000   43.0610 C   0  0  0  0  0  0  0  0  0  0  0  0
   58.0150   32.1200   44.4360 C   0  0  0  0  0  0  0  0  0  0  0  0
   58.7320   32.9660   45.4190 C   0  0  0  0  0  0  0  0  0  0  0  0
   58.5950   34.3620   45.3210 C   0  0  0  0  0  0  0  0  0  0  0  0
   59.3230   35.2090   46.1570 C   0  0  0  0  0  0  0  0  0  0  0  0
   60.2000   34.6750   47.1000 C   0  0  0  0  0  0  0  0  0  0  0  0
   60.3400   33.2920   47.2220 C   0  0  0  0  0  0  0  0  0  0  0  0
   59.5980   32.4200   46.4060 C   0  0  0  0  0  0  0  0  0  0  0  0
   59.7310   30.9630   46.6370 C   0  0  0  0  0  0  0  0  0  0  0  0
   59.6410   30.3100   47.8600 C   0  0  0  0  0  0  0  0  0  0  0  0
   59.8660   29.0110   47.6250 N   0  0  0  0  0  0  0  0  0  0  0  0
   59.8890   27.9600   48.4840 C   0  0  0  0  0  0  0  0  0  0  0  0
   60.1630   26.6880   47.9620 C   0  0  0  0  0  0  0  0  0  0  0  0
   60.4060   26.5410   46.5820 C   0  0  0  0  0  0  0  0  0  0  0  0
   60.3750   27.6600   45.7330 C   0  0  0  0  0  0  0  0  0  0  0  0
   60.0950   28.8990   46.3060 C   0  0  0  0  0  0  0  0  0  0  0  0
   60.0320   30.0770   45.6540 N   0  0  0  0  0  0  0  0  0  0  0  0
   57.2210   31.0450   44.8710 C   0  0  0  0  0  0  0  0  0  0  0  0
   56.5430   30.2490   43.9440 C   0  0  0  0  0  0  0  0  0  0  0  0
   56.1136   29.8930   41.8496 H   0  0  0  0  0  0  0  0  0  0  0  0
   57.4938   31.8198   41.0606 H   0  0  0  0  0  0  0  0  0  0  0  0
   58.7019   33.2509   42.7111 H   0  0  0  0  0  0  0  0  0  0  0  0
   57.9068   34.7906   44.5776 H   0  0  0  0  0  0  0  0  0  0  0  0
   59.2049   36.2993   46.0720 H   0  0  0  0  0  0  0  0  0  0  0  0
   60.7827   35.3451   47.7491 H   0  0  0  0  0  0  0  0  0  0  0  0
   61.0386   32.8794   47.9648 H   0  0  0  0  0  0  0  0  0  0  0  0
   59.4260   30.7718   48.8350 H   0  0  0  0  0  0  0  0  0  0  0  0
   59.6983   28.1022   49.5580 H   0  0  0  0  0  0  0  0  0  0  0  0
   60.1881   25.8108   48.6253 H   0  0  0  0  0  0  0  0  0  0  0  0
   60.6211   25.5452   46.1672 H   0  0  0  0  0  0  0  0  0  0  0  0
   60.5651   27.5615   44.6540 H   0  0  0  0  0  0  0  0  0  0  0  0
   57.1329   30.8293   45.9460 H   0  0  0  0  0  0  0  0  0  0  0  0
   55.9289   29.4047   44.2903 H   0  0  0  0  0  0  0  0  0  0  0  0
  1  2  2  0
  2  3  1  0
  3  4  2  0
  4  5  1  0
  5  6  2  0
  6  7  1  0
  7  8  2  0
  8  9  1  0
  9 10  2  0
 10 11  1  0
 11 12  2  0
 12 13  1  0
 13 14  1  0
 14 15  2  0
 15 16  1  0
 16 17  2  0
 17 18  1  0
 18 19  2  0
  4 20  1  0
 20 21  2  0
 21  1  1  0
 10  5  1  0
 19 11  1  0
 18 13  1  0
  1 22  1  0
  2 23  1  0
  3 24  1  0
  6 25  1  0
  7 26  1  0
  8 27  1  0
  9 28  1  0
 12 29  1  0
 14 30  1  0
 15 31  1  0
 16 32  1  0
 17 33  1  0
 20 34  1  0
 21 35  1  0
M  END
>  <UniqueID>  (44) 
38

>  <SMILES>  (44) 
c1ccc(-c2ccccc2-c2cn3ccccc3n2)cc1

>  <Energy>  (44) 
85.42810260075535

>  <Genealogy>  (44) 
c1ccc(-c2ccccc2-c2cn3ccccc3n2)cc1 (3D coordinates assigned)
c1ccc(-c2ccccc2-c2cn3ccccc3n2)cc1 (optimized conformer: 85.42810260075535 kcal/mol)

>  <smiles>  (44) 
c1ccc(-c2ccccc2-c2cn3ccccc3n2)cc1

>  <score_type>  (44) 
oracle

>  <origin>  (44) 
adg

>  <m_score__min__energy>  (44) 
-7.4100000000000001

>  <m_primary>  (44) 
energy

$$$$
44:0
     RDKit          3D

 42 44  0  0  0  0  0  0  0  0999 V2000
   53.2470   23.7070   44.5920 C   0  0  0  0  0  0  0  0  0  0  0  0
   54.0700   22.6660   45.2000 N   0  0  0  0  0  0  0  0  0  0  0  0
   55.7220   22.8620   44.7050 S   0  0  0  0  0  0  0  0  0  0  0  0
   55.8470   22.5010   43.2520 O   0  0  0  0  0  0  0  0  0  0  0  0
   56.6050   21.9410   45.5010 O   0  0  0  0  0  0  0  0  0  0  0  0
   56.2340   24.5330   44.9270 C   0  0  0  0  0  0  0  0  0  0  0  0
   57.3650   25.0310   44.2700 C   0  0  0  0  0  0  0  0  0  0  0  0
   57.7630   26.3540   44.4700 C   0  0  0  0  0  0  0  0  0  0  0  0
   57.0270   27.1780   45.3420 C   0  0  0  0  0  0  0  0  0  0  0  0
   57.4060   28.5930   45.5860 C   0  0  0  0  0  0  0  0  0  0  0  0
   58.1930   28.9610   46.6940 C   0  0  0  0  0  0  0  0  0  0  0  0
   58.5330   30.3000   46.9090 C   0  0  0  0  0  0  0  0  0  0  0  0
   58.0940   31.2990   46.0260 C   0  0  0  0  0  0  0  0  0  0  0  0
   58.4360   32.6800   46.2590 N   0  0  0  0  0  0  0  0  0  0  0  0
   59.1690   33.0650   47.4720 C   0  0  0  0  0  0  0  0  0  0  0  0
   59.7680   34.4710   47.3190 C   0  0  0  0  0  0  0  0  0  0  0  0
   60.2980   34.6580   45.9620 N   0  0  0  0  0  0  0  0  0  0  0  0
   59.2430   34.6050   44.9290 C   0  0  0  0  0  0  0  0  0  0  0  0
   58.0330   33.7300   45.3160 C   0  0  0  0  0  0  0  0  0  0  0  0
   57.2920   30.9370   44.9330 C   0  0  0  0  0  0  0  0  0  0  0  0
   56.9510   29.6000   44.7160 C   0  0  0  0  0  0  0  0  0  0  0  0
   55.9280   26.6650   45.9640 N   0  0  0  0  0  0  0  0  0  0  0  0
   55.5220   25.3790   45.7830 C   0  0  0  0  0  0  0  0  0  0  0  0
   52.7724   24.3074   45.3821 H   0  0  0  0  0  0  0  0  0  0  0  0
   53.8788   24.3561   43.9678 H   0  0  0  0  0  0  0  0  0  0  0  0
   52.4697   23.2421   43.9678 H   0  0  0  0  0  0  0  0  0  0  0  0
   57.9405   24.3797   43.5958 H   0  0  0  0  0  0  0  0  0  0  0  0
   58.6470   26.7504   43.9490 H   0  0  0  0  0  0  0  0  0  0  0  0
   58.5429   28.1894   47.3956 H   0  0  0  0  0  0  0  0  0  0  0  0
   59.1500   30.5730   47.7778 H   0  0  0  0  0  0  0  0  0  0  0  0
   58.4792   33.0573   48.3288 H   0  0  0  0  0  0  0  0  0  0  0  0
   59.9865   32.3473   47.6348 H   0  0  0  0  0  0  0  0  0  0  0  0
   58.9857   35.2207   47.5089 H   0  0  0  0  0  0  0  0  0  0  0  0
   60.5889   34.5892   48.0416 H   0  0  0  0  0  0  0  0  0  0  0  0
   60.9970   33.9000   45.7710 H   0  0  0  0  0  0  0  0  0  0  0  0
   58.8855   35.6291   44.7461 H   0  0  0  0  0  0  0  0  0  0  0  0
   59.6939   34.1492   44.0351 H   0  0  0  0  0  0  0  0  0  0  0  0
   57.2649   34.3622   45.7854 H   0  0  0  0  0  0  0  0  0  0  0  0
   57.6325   33.2564   44.4075 H   0  0  0  0  0  0  0  0  0  0  0  0
   56.9291   31.7120   44.2418 H   0  0  0  0  0  0  0  0  0  0  0  0
   56.3201   29.3319   43.8557 H   0  0  0  0  0  0  0  0  0  0  0  0
   54.6325   25.0044   46.3107 H   0  0  0  0  0  0  0  0  0  0  0  0
  1  2  1  0
  2  3  1  0
  3  4  2  0
  3  5  2  0
  3  6  1  0
  6  7  2  0
  7  8  1  0
  8  9  2  0
  9 10  1  0
 10 11  2  0
 11 12  1  0
 12 13  2  0
 13 14  1  0
 14 15  1  0
 15 16  1  0
 16 17  1  0
 17 18  1  0
 18 19  1  0
 13 20  1  0
 20 21  2  0
  9 22  1  0
 22 23  2  0
 23  6  1  0
 21 10  1  0
 19 14  1  0
  1 24  1  0
  1 25  1  0
  1 26  1  0
  7 27  1  0
  8 28  1  0
 11 29  1  0
 12 30  1  0
 15 31  1  0
 15 32  1  0
 16 33  1  0
 16 34  1  0
 17 35  1  0
 18 36  1  0
 18 37  1  0
 19 38  1  0
 19 39  1  0
 20 40  1  0
 21 41  1  0
 23 42  1  0
M  CHG  1   2  -1
M  END
>  <UniqueID>  (45) 
39

>  <SMILES>  (45) 
C[N-]S(=O)(=O)c1ccc(-c2ccc(N3CCNCC3)cc2)nc1

>  <Energy>  (45) 
54.42067858669689

>  <Genealogy>  (45) 
C[N-]S(=O)(=O)c1ccc(-c2ccc(N3CCNCC3)cc2)nc1 (protonated)
C[N-]S(=O)(=O)c1ccc(-c2ccc(N3CCNCC3)cc2)nc1 (3D coordinates assigned)
C[N-]S(=O)(=O)c1ccc(-c2ccc(N3CCNCC3)cc2)nc1 (nonaromatic ring conformer: 54.42067858669689 kcal/mol)

>  <smiles>  (45) 
CNS(=O)(=O)c1ccc(-c2ccc(N3CCNCC3)cc2)nc1

>  <score_type>  (45) 
oracle

>  <origin>  (45) 
adg

>  <m_score__min__energy>  (45) 
-8.75

>  <m_primary>  (45) 
energy

$$$$
45:0
     RDKit          3D

 48 50  0  0  0  0  0  0  0  0999 V2000
   52.9378   25.3657   45.4503 H   0  0  0  0  0  0  0  0  0  0  0  0
   53.8030   24.7050   45.6080 C   0  0  0  0  0  0  0  0  0  0  0  0
   54.9940   25.2180   46.0100 N   0  0  0  0  0  0  0  0  0  0  0  0
   56.0860   24.4310   46.2210 C   0  0  0  0  0  0  0  0  0  0  0  0
   57.2970   25.0150   46.6180 O   0  0  0  0  0  0  0  0  0  0  0  0
   57.9230   26.1080   46.0020 C   0  0  0  0  0  0  0  0  0  0  0  0
   59.1320   26.5670   46.5360 C   0  0  0  0  0  0  0  0  0  0  0  0
   59.5716   26.0610   47.4082 H   0  0  0  0  0  0  0  0  0  0  0  0
   59.7840   27.6640   45.9680 C   0  0  0  0  0  0  0  0  0  0  0  0
   60.7358   28.0162   46.3923 H   0  0  0  0  0  0  0  0  0  0  0  0
   59.2310   28.3150   44.8630 C   0  0  0  0  0  0  0  0  0  0  0  0
   59.7507   29.1767   44.4186 H   0  0  0  0  0  0  0  0  0  0  0  0
   58.0130   27.8740   44.3160 C   0  0  0  0  0  0  0  0  0  0  0  0
   57.4170   28.5730   43.2060 N   0  0  0  0  0  0  0  0  0  0  0  0
   58.1680   29.0080   42.6200 H   0  0  0  0  0  0  0  0  0  0  0  0
   56.8900   27.8970   42.6040 H   0  0  0  0  0  0  0  0  0  0  0  0
   56.5060   29.6160   43.6980 C   0  0  0  0  0  0  0  0  0  0  0  0
   55.6289   29.6722   43.0366 H   0  0  0  0  0  0  0  0  0  0  0  0
   56.1930   29.3616   44.7214 H   0  0  0  0  0  0  0  0  0  0  0  0
   57.1950   30.9470   43.7180 C   0  0  0  0  0  0  0  0  0  0  0  0
   57.6800   31.6520   42.6330 C   0  0  0  0  0  0  0  0  0  0  0  0
   57.6767   31.3013   41.5904 H   0  0  0  0  0  0  0  0  0  0  0  0
   58.1580   32.8390   43.0580 N   0  0  0  0  0  0  0  0  0  0  0  0
   57.9650   32.9030   44.3660 N   0  0  0  0  0  0  0  0  0  0  0  0
   58.4000   34.0160   45.1980 C   0  0  0  0  0  0  0  0  0  0  0  0
   58.2938   33.7443   46.2586 H   0  0  0  0  0  0  0  0  0  0  0  0
   59.4539   34.2453   44.9820 H   0  0  0  0  0  0  0  0  0  0  0  0
   57.7809   34.8992   44.9820 H   0  0  0  0  0  0  0  0  0  0  0  0
   57.3870   31.7700   44.8060 C   0  0  0  0  0  0  0  0  0  0  0  0
   57.1164   31.5420   45.8475 H   0  0  0  0  0  0  0  0  0  0  0  0
   57.3540   26.7790   44.9040 C   0  0  0  0  0  0  0  0  0  0  0  0
   56.3861   26.4447   44.5021 H   0  0  0  0  0  0  0  0  0  0  0  0
   55.9760   23.0320   45.9910 C   0  0  0  0  0  0  0  0  0  0  0  0
   56.9550   22.1810   46.1410 N   0  0  0  0  0  0  0  0  0  0  0  0
   57.8380   21.5790   45.1410 C   0  0  0  0  0  0  0  0  0  0  0  0
   57.8202   20.4853   45.2569 H   0  0  0  0  0  0  0  0  0  0  0  0
   58.8565   21.9655   45.2938 H   0  0  0  0  0  0  0  0  0  0  0  0
   57.3860   21.9400   43.7240 C   0  0  0  0  0  0  0  0  0  0  0  0
   58.2107   21.7638   43.0177 H   0  0  0  0  0  0  0  0  0  0  0  0
   57.0976   23.0008   43.6849 H   0  0  0  0  0  0  0  0  0  0  0  0
   56.2830   21.1330   43.3740 O   0  0  0  0  0  0  0  0  0  0  0  0
   56.2610   19.9880   44.1960 C   0  0  0  0  0  0  0  0  0  0  0  0
   56.2669   20.2948   45.2523 H   0  0  0  0  0  0  0  0  0  0  0  0
   55.3515   19.4051   43.9885 H   0  0  0  0  0  0  0  0  0  0  0  0
   57.1475   19.3706   43.9885 H   0  0  0  0  0  0  0  0  0  0  0  0
   54.7710   22.5400   45.5910 N   0  0  0  0  0  0  0  0  0  0  0  0
   53.6890   23.3360   45.3980 C   0  0  0  0  0  0  0  0  0  0  0  0
   52.7304   22.9015   45.0782 H   0  0  0  0  0  0  0  0  0  0  0  0
  1  2  1  0
  2  3  1  0
  3  4  2  0
  4  5  1  0
  5  6  1  0
  6  7  2  0
  7  8  1  0
  7  9  1  0
  9 10  1  0
  9 11  2  0
 11 12  1  0
 11 13  1  0
 13 14  1  0
 14 15  1  0
 14 16  1  0
 14 17  1  0
 17 18  1  0
 17 19  1  0
 17 20  1  0
 20 21  1  0
 21 22  1  0
 21 23  2  0
 23 24  1  0
 24 25  1  0
 25 26  1  0
 25 27  1  0
 25 28  1  0
 24 29  1  0
 29 30  1  0
 13 31  2  0
 31 32  1  0
  4 33  1  0
 33 34  2  0
 34 35  1  0
 35 36  1  0
 35 37  1  0
 35 38  1  0
 38 39  1  0
 38 40  1  0
 38 41  1  0
 41 42  1  0
 42 43  1  0
 42 44  1  0
 42 45  1  0
 33 46  1  0
 46 47  1  0
 47 48  1  0
 47  2  2  0
 31  6  1  0
 29 20  2  0
M  CHG  2  14   1  46  -1
M  END
>  <UniqueID>  (46) 
40

>  <SMILES>  (46) 
COCC/N=c1/[n-]ccnc1Oc1cccc([NH2+]Cc2cnn(C)c2)c1

>  <Energy>  (46) 
88.37010822830949

>  <Genealogy>  (46) 
COCCN=c1[n-]ccnc1Oc1cccc([NH2+]Cc2cnn(C)c2)c1 (protonated)
COCC/N=c1/[n-]ccnc1Oc1cccc([NH2+]Cc2cnn(C)c2)c1 (cis-trans isomerization)
COCC/N=c1/[n-]ccnc1Oc1cccc([NH2+]Cc2cnn(C)c2)c1 (3D coordinates assigned)
COCC/N=c1/[n-]ccnc1Oc1cccc([NH2+]Cc2cnn(C)c2)c1 (optimized conformer: 88.37010822830949 kcal/mol)

>  <smiles>  (46) 
COCCN=c1[nH]ccnc1Oc1cccc(NCc2cnn(C)c2)c1

>  <score_type>  (46) 
oracle

>  <origin>  (46) 
adg

>  <m_score__min__energy>  (46) 
-8.1999999999999993

>  <m_primary>  (46) 
energy

$$$$
46:0
     RDKit          3D

 37 39  0  0  1  0  0  0  0  0999 V2000
   63.3820   33.8190   46.6520 C   0  0  0  0  0  0  0  0  0  0  0  0
   62.7120   32.8560   47.6090 C   0  0  0  0  0  0  0  0  0  0  0  0
   61.4030   33.5000   48.0620 C   0  0  0  0  0  0  0  0  0  0  0  0
   60.3050   32.7630   47.4350 N   0  0  0  0  0  0  0  0  0  0  0  0
   59.9320   31.4800   47.7130 C   0  0  0  0  0  0  0  0  0  0  0  0
   58.8700   31.1550   46.9200 N   0  0  0  0  0  0  0  0  0  0  0  0
   58.5660   32.2110   46.1450 C   0  0  0  0  0  0  0  0  0  0  0  0
   57.6030   32.4310   45.1820 C   0  0  0  0  0  0  0  0  0  0  0  0
   56.7760   31.4910   44.8930 N   0  0  0  0  0  0  0  0  0  0  0  0
   57.0570   30.4860   43.8980 C   0  0  0  0  0  0  0  0  0  0  0  0
   57.7390   29.3400   44.5880 C   0  0  0  0  0  0  0  0  0  0  0  0
   57.0250   28.3760   45.2750 C   0  0  0  0  0  0  0  0  0  0  0  0
   57.7190   27.3490   45.8880 C   0  0  0  0  0  0  0  0  0  0  0  0
   59.1020   27.2910   45.8100 C   0  0  0  0  0  0  0  0  0  0  0  0
   59.8180   28.2590   45.1190 C   0  0  0  0  0  0  0  0  0  0  0  0
   59.1330   29.2940   44.5020 C   0  0  0  0  0  0  0  0  0  0  0  0
   57.5320   33.6170   44.5530 N   0  0  0  0  0  0  0  0  0  0  0  0
   58.4170   34.6010   44.8730 C   0  0  0  0  0  0  0  0  0  0  0  0
   59.3720   34.4010   45.8200 N   0  0  0  0  0  0  0  0  0  0  0  0
   59.4600   33.2080   46.4670 C   0  0  0  0  0  0  0  0  0  0  0  0
   63.9187   34.5904   47.2238 H   0  0  0  0  0  0  0  0  0  0  0  0
   64.0943   33.2702   46.0184 H   0  0  0  0  0  0  0  0  0  0  0  0
   62.6198   34.2961   46.0184 H   0  0  0  0  0  0  0  0  0  0  0  0
   62.5059   31.9027   47.1004 H   0  0  0  0  0  0  0  0  0  0  0  0
   63.3626   32.6495   48.4716 H   0  0  0  0  0  0  0  0  0  0  0  0
   61.3161   33.4421   49.1570 H   0  0  0  0  0  0  0  0  0  0  0  0
   61.3730   34.5598   47.7688 H   0  0  0  0  0  0  0  0  0  0  0  0
   60.4076   30.8188   48.4523 H   0  0  0  0  0  0  0  0  0  0  0  0
   56.1191   30.1418   43.4377 H   0  0  0  0  0  0  0  0  0  0  0  0
   57.7000   30.8969   43.1057 H   0  0  0  0  0  0  0  0  0  0  0  0
   55.9276   28.4249   45.3328 H   0  0  0  0  0  0  0  0  0  0  0  0
   57.1700   26.5728   46.4413 H   0  0  0  0  0  0  0  0  0  0  0  0
   59.6392   26.4669   46.3023 H   0  0  0  0  0  0  0  0  0  0  0  0
   60.9152   28.2053   45.0618 H   0  0  0  0  0  0  0  0  0  0  0  0
   59.6813   30.0716   43.9500 H   0  0  0  0  0  0  0  0  0  0  0  0
   56.7970   33.7780   43.8200 H   0  0  0  0  0  0  0  0  0  0  0  0
   58.3586   35.5713   44.3582 H   0  0  0  0  0  0  0  0  0  0  0  0
  1  2  1  0
  2  3  1  0
  3  4  1  0
  4  5  1  0
  5  6  2  0
  6  7  1  0
  7  8  1  0
  8  9  2  0
  9 10  1  0
 10 11  1  0
 11 12  2  0
 12 13  1  0
 13 14  2  0
 14 15  1  0
 15 16  2  0
  8 17  1  0
 17 18  1  0
 18 19  2  0
 19 20  1  0
 20  4  1  0
 20  7  2  0
 16 11  1  0
  1 21  1  0
  1 22  1  0
  1 23  1  0
  2 24  1  0
  2 25  1  0
  3 26  1  0
  3 27  1  0
  5 28  1  0
 10 29  1  0
 10 30  1  0
 12 31  1  0
 13 32  1  0
 14 33  1  0
 15 34  1  0
 16 35  1  0
 17 36  1  0
 18 37  1  0
M  END
>  <smiles>  (47) 
CCCn1cnc2c(=NCc3ccccc3)[nH]cnc21

>  <score_type>  (47) 
oracle

>  <origin>  (47) 
adg

>  <m_score__min__energy>  (47) 
-6.5700000000000003

>  <m_primary>  (47) 
energy

$$$$
47:0
     RDKit          3D

 58 60  0  0  0  0  0  0  0  0999 V2000
   60.7270   26.2970   46.4060 C   0  0  0  0  0  0  0  0  0  0  0  0
   60.3670   27.7230   46.8140 C   0  0  0  0  0  0  0  0  0  0  0  0
   59.7910   27.8030   48.2320 C   0  0  0  0  0  0  0  0  0  0  0  0
   59.8670   29.1970   48.7500 N   0  0  0  0  0  0  0  0  0  0  0  0
   59.6790   29.2320   50.2210 C   0  0  0  0  0  0  0  0  0  0  0  0
   58.4200   30.0230   50.6120 C   0  0  0  0  0  0  0  0  0  0  0  0
   58.5920   31.5240   50.3970 C   0  0  0  0  0  0  0  0  0  0  0  0
   61.1350   29.8660   48.3520 C   0  0  0  0  0  0  0  0  0  0  0  0
   60.9230   31.3660   48.0860 C   0  0  0  0  0  0  0  0  0  0  0  0
   59.9640   31.6390   46.9640 C   0  0  0  0  0  0  0  0  0  0  0  0
   59.1700   30.6990   46.3120 C   0  0  0  0  0  0  0  0  0  0  0  0
   58.4260   31.3030   45.3590 N   0  0  0  0  0  0  0  0  0  0  0  0
   57.2940   30.5190   44.3070 S   0  0  0  0  0  0  0  0  0  0  0  0
   57.5520   30.9300   42.8840 O   0  0  0  0  0  0  0  0  0  0  0  0
   55.8970   30.9380   44.6740 O   0  0  0  0  0  0  0  0  0  0  0  0
   57.4820   28.7760   44.4460 C   0  0  0  0  0  0  0  0  0  0  0  0
   57.9940   28.0220   43.3800 C   0  0  0  0  0  0  0  0  0  0  0  0
   58.1270   26.6350   43.5020 C   0  0  0  0  0  0  0  0  0  0  0  0
   57.7610   25.9910   44.6940 C   0  0  0  0  0  0  0  0  0  0  0  0
   57.8710   24.4990   44.8100 C   0  0  0  0  0  0  0  0  0  0  0  0
   57.2270   26.7460   45.7500 C   0  0  0  0  0  0  0  0  0  0  0  0
   57.0930   28.1320   45.6270 C   0  0  0  0  0  0  0  0  0  0  0  0
   58.7200   32.6170   45.4120 C   0  0  0  0  0  0  0  0  0  0  0  0
   58.1930   33.6500   44.6340 C   0  0  0  0  0  0  0  0  0  0  0  0
   58.6490   34.9580   44.8780 C   0  0  0  0  0  0  0  0  0  0  0  0
   59.6070   35.2050   45.8830 C   0  0  0  0  0  0  0  0  0  0  0  0
   60.1200   34.1490   46.6560 C   0  0  0  0  0  0  0  0  0  0  0  0
   59.6550   32.8600   46.3890 C   0  0  0  0  0  0  0  0  0  0  0  0
   60.8813   25.6856   47.3073 H   0  0  0  0  0  0  0  0  0  0  0  0
   59.9087   25.8690   45.8083 H   0  0  0  0  0  0  0  0  0  0  0  0
   61.6504   26.3087   45.8083 H   0  0  0  0  0  0  0  0  0  0  0  0
   61.2747   28.3426   46.7670 H   0  0  0  0  0  0  0  0  0  0  0  0
   59.5935   28.0829   46.1196 H   0  0  0  0  0  0  0  0  0  0  0  0
   58.7394   27.4808   48.2139 H   0  0  0  0  0  0  0  0  0  0  0  0
   60.3784   27.1469   48.8912 H   0  0  0  0  0  0  0  0  0  0  0  0
   59.5830   28.2014   50.5932 H   0  0  0  0  0  0  0  0  0  0  0  0
   60.5515   29.7313   50.6676 H   0  0  0  0  0  0  0  0  0  0  0  0
   57.5766   29.6718   49.9994 H   0  0  0  0  0  0  0  0  0  0  0  0
   58.2345   29.8545   51.6831 H   0  0  0  0  0  0  0  0  0  0  0  0
   58.6500   32.0298   51.3721 H   0  0  0  0  0  0  0  0  0  0  0  0
   59.5173   31.7098   49.8320 H   0  0  0  0  0  0  0  0  0  0  0  0
   57.7327   31.9143   49.8320 H   0  0  0  0  0  0  0  0  0  0  0  0
   61.8708   29.7472   49.1610 H   0  0  0  0  0  0  0  0  0  0  0  0
   61.4944   29.3988   47.4233 H   0  0  0  0  0  0  0  0  0  0  0  0
   60.5304   31.8312   49.0022 H   0  0  0  0  0  0  0  0  0  0  0  0
   61.8964   31.7862   47.7929 H   0  0  0  0  0  0  0  0  0  0  0  0
   59.1511   29.6229   46.5392 H   0  0  0  0  0  0  0  0  0  0  0  0
   58.2914   28.5222   42.4465 H   0  0  0  0  0  0  0  0  0  0  0  0
   58.5202   26.0464   42.6600 H   0  0  0  0  0  0  0  0  0  0  0  0
   57.8920   24.2144   45.8723 H   0  0  0  0  0  0  0  0  0  0  0  0
   57.0051   24.0284   44.3214 H   0  0  0  0  0  0  0  0  0  0  0  0
   58.7965   24.1605   44.3214 H   0  0  0  0  0  0  0  0  0  0  0  0
   56.9129   26.2452   46.6776 H   0  0  0  0  0  0  0  0  0  0  0  0
   56.6805   28.7189   46.4609 H   0  0  0  0  0  0  0  0  0  0  0  0
   57.4442   33.4470   43.8542 H   0  0  0  0  0  0  0  0  0  0  0  0
   58.2557   35.7939   44.2809 H   0  0  0  0  0  0  0  0  0  0  0  0
   59.9557   36.2325   46.0635 H   0  0  0  0  0  0  0  0  0  0  0  0
   60.8636   34.3323   47.4456 H   0  0  0  0  0  0  0  0  0  0  0  0
  1  2  1  0
  2  3  1  0
  3  4  1  0
  4  5  1  0
  5  6  1  0
  6  7  1  0
  4  8  1  0
  8  9  1  0
  9 10  1  0
 10 11  2  0
 11 12  1  0
 12 13  1  0
 13 14  2  0
 13 15  2  0
 13 16  1  0
 16 17  2  0
 17 18  1  0
 18 19  2  0
 19 20  1  0
 19 21  1  0
 21 22  2  0
 12 23  1  0
 23 24  2  0
 24 25  1  0
 25 26  2  0
 26 27  1  0
 27 28  2  0
 28 10  1  0
 22 16  1  0
 28 23  1  0
  1 29  1  0
  1 30  1  0
  1 31  1  0
  2 32  1  0
  2 33  1  0
  3 34  1  0
  3 35  1  0
  5 36  1  0
  5 37  1  0
  6 38  1  0
  6 39  1  0
  7 40  1  0
  7 41  1  0
  7 42  1  0
  8 43  1  0
  8 44  1  0
  9 45  1  0
  9 46  1  0
 11 47  1  0
 17 48  1  0
 18 49  1  0
 20 50  1  0
 20 51  1  0
 20 52  1  0
 21 53  1  0
 22 54  1  0
 24 55  1  0
 25 56  1  0
 26 57  1  0
 27 58  1  0
M  END
>  <UniqueID>  (48) 
41

>  <SMILES>  (48) 
CCCN(CCC)CCc1cn(S(=O)(=O)c2ccc(C)cc2)c2ccccc12

>  <Energy>  (48) 
87.0973973328579

>  <Genealogy>  (48) 
CCCN(CCC)CCc1cn(S(=O)(=O)c2ccc(C)cc2)c2ccccc12 (3D coordinates assigned)
CCCN(CCC)CCc1cn(S(=O)(=O)c2ccc(C)cc2)c2ccccc12 (optimized conformer: 87.0973973328579 kcal/mol)

>  <smiles>  (48) 
CCCN(CCC)CCc1cn(S(=O)(=O)c2ccc(C)cc2)c2ccccc12

>  <score_type>  (48) 
oracle

>  <origin>  (48) 
adg

>  <m_score__min__energy>  (48) 
-8.6699999999999999

>  <m_primary>  (48) 
energy

$$$$
48:0
     RDKit          3D

 42 44  0  0  0  0  0  0  0  0999 V2000
   59.3150   23.4270   45.5930 C   0  0  0  0  0  0  0  0  0  0  0  0
   59.4990   24.7840   45.9840 O   0  0  0  0  0  0  0  0  0  0  0  0
   58.5620   25.8070   45.7680 C   0  0  0  0  0  0  0  0  0  0  0  0
   58.9360   27.0960   45.3470 C   0  0  0  0  0  0  0  0  0  0  0  0
   57.9640   28.0920   45.1530 C   0  0  0  0  0  0  0  0  0  0  0  0
   58.3220   29.4100   44.7040 N   0  0  0  0  0  0  0  0  0  0  0  0
   57.4040   30.5120   44.6320 C   0  0  0  0  0  0  0  0  0  0  0  0
   56.1660   30.3280   44.7780 O   0  0  0  0  0  0  0  0  0  0  0  0
   57.9060   31.8820   44.2890 C   0  0  0  0  0  0  0  0  0  0  0  0
   58.4130   32.5550   45.4950 N   0  0  0  0  0  0  0  0  0  0  0  0
   57.8290   33.7240   45.9000 C   0  0  0  0  0  0  0  0  0  0  0  0
   58.2510   34.3580   47.0220 N   0  0  0  0  0  0  0  0  0  0  0  0
   59.2560   33.8540   47.7780 C   0  0  0  0  0  0  0  0  0  0  0  0
   59.6720   34.5300   48.9320 C   0  0  0  0  0  0  0  0  0  0  0  0
   60.7060   34.0080   49.7140 C   0  0  0  0  0  0  0  0  0  0  0  0
   61.3270   32.8100   49.3480 C   0  0  0  0  0  0  0  0  0  0  0  0
   60.9180   32.1290   48.1970 C   0  0  0  0  0  0  0  0  0  0  0  0
   59.8780   32.6470   47.4030 C   0  0  0  0  0  0  0  0  0  0  0  0
   59.4270   32.0020   46.2370 C   0  0  0  0  0  0  0  0  0  0  0  0
   59.9560   30.9130   45.8770 O   0  0  0  0  0  0  0  0  0  0  0  0
   56.6110   27.7790   45.3480 C   0  0  0  0  0  0  0  0  0  0  0  0
   56.2270   26.4930   45.7700 C   0  0  0  0  0  0  0  0  0  0  0  0
   54.8860   26.1420   45.9900 O   0  0  0  0  0  0  0  0  0  0  0  0
   54.3000   24.9090   45.5850 C   0  0  0  0  0  0  0  0  0  0  0  0
   57.2090   25.5200   45.9820 C   0  0  0  0  0  0  0  0  0  0  0  0
   59.2294   22.7955   46.4896 H   0  0  0  0  0  0  0  0  0  0  0  0
   58.3968   23.3394   44.9937 H   0  0  0  0  0  0  0  0  0  0  0  0
   60.1768   23.0980   44.9937 H   0  0  0  0  0  0  0  0  0  0  0  0
   59.9968   27.3259   45.1684 H   0  0  0  0  0  0  0  0  0  0  0  0
   59.2830   29.5510   44.3170 H   0  0  0  0  0  0  0  0  0  0  0  0
   58.7181   31.7972   43.5519 H   0  0  0  0  0  0  0  0  0  0  0  0
   57.0780   32.4727   43.8700 H   0  0  0  0  0  0  0  0  0  0  0  0
   57.0075   34.1547   45.3086 H   0  0  0  0  0  0  0  0  0  0  0  0
   59.1846   35.4722   49.2230 H   0  0  0  0  0  0  0  0  0  0  0  0
   61.0320   34.5408   50.6194 H   0  0  0  0  0  0  0  0  0  0  0  0
   62.1395   32.4020   49.9671 H   0  0  0  0  0  0  0  0  0  0  0  0
   61.4099   31.1873   47.9120 H   0  0  0  0  0  0  0  0  0  0  0  0
   55.8430   28.5459   45.1694 H   0  0  0  0  0  0  0  0  0  0  0  0
   54.0225   24.3251   46.4750 H   0  0  0  0  0  0  0  0  0  0  0  0
   53.4012   25.1102   44.9836 H   0  0  0  0  0  0  0  0  0  0  0  0
   55.0236   24.3392   44.9836 H   0  0  0  0  0  0  0  0  0  0  0  0
   56.9141   24.5161   46.3214 H   0  0  0  0  0  0  0  0  0  0  0  0
  1  2  1  0
  2  3  1  0
  3  4  2  0
  4  5  1  0
  5  6  1  0
  6  7  1  0
  7  8  2  0
  7  9  1  0
  9 10  1  0
 10 11  1  0
 11 12  2  0
 12 13  1  0
 13 14  2  0
 14 15  1  0
 15 16  2  0
 16 17  1  0
 17 18  2  0
 18 19  1  0
 19 20  2  0
  5 21  2  0
 21 22  1  0
 22 23  1  0
 23 24  1  0
 22 25  2  0
 25  3  1  0
 19 10  1  0
 18 13  1  0
  1 26  1  0
  1 27  1  0
  1 28  1  0
  4 29  1  0
  6 30  1  0
  9 31  1  0
  9 32  1  0
 11 33  1  0
 14 34  1  0
 15 35  1  0
 16 36  1  0
 17 37  1  0
 21 38  1  0
 24 39  1  0
 24 40  1  0
 24 41  1  0
 25 42  1  0
M  END
>  <UniqueID>  (49) 
42

>  <SMILES>  (49) 
COc1cc(NC(=O)Cn2cnc3ccccc3c2=O)cc(OC)c1

>  <Energy>  (49) 
51.31081115728374

>  <Genealogy>  (49) 
COc1cc(NC(=O)Cn2cnc3ccccc3c2=O)cc(OC)c1 (3D coordinates assigned)
COc1cc(NC(=O)Cn2cnc3ccccc3c2=O)cc(OC)c1 (optimized conformer: 51.31081115728374 kcal/mol)

>  <smiles>  (49) 
COc1cc(NC(=O)Cn2cnc3ccccc3c2=O)cc(OC)c1

>  <score_type>  (49) 
oracle

>  <origin>  (49) 
adg

>  <m_score__min__energy>  (49) 
-7.29

>  <m_primary>  (49) 
energy

$$$$
