0:0
     RDKit          3D

 35 37  0  0  0  0  0  0  0  0999 V2000
   57.8689   32.1974   42.7031 H   0  0  0  0  0  0  0  0  0  0  0  0
   57.7230   32.0210   43.7790 C   0  0  0  0  0  0  0  0  0  0  0  0
   57.8910   30.6560   44.3050 C   0  0  0  0  0  0  0  0  0  0  0  0
   59.0460   30.0800   44.4790 N   0  0  0  0  0  0  0  0  0  0  0  0
   58.7730   28.7770   44.9950 C   0  0  0  0  0  0  0  0  0  0  0  0
   59.7040   27.7970   45.3340 C   0  0  0  0  0  0  0  0  0  0  0  0
   60.7827   27.9784   45.2178 H   0  0  0  0  0  0  0  0  0  0  0  0
   59.2270   26.5690   45.8290 C   0  0  0  0  0  0  0  0  0  0  0  0
   59.9391   25.7776   46.1056 H   0  0  0  0  0  0  0  0  0  0  0  0
   57.8380   26.3460   45.9730 C   0  0  0  0  0  0  0  0  0  0  0  0
   57.2080   24.6740   46.6450 Br  0  0  0  0  0  0  0  0  0  0  0  0
   56.9170   27.3510   45.6220 C   0  0  0  0  0  0  0  0  0  0  0  0
   55.8336   27.1927   45.7273 H   0  0  0  0  0  0  0  0  0  0  0  0
   57.4260   28.5520   45.1370 C   0  0  0  0  0  0  0  0  0  0  0  0
   56.7910   29.7690   44.6930 C   0  0  0  0  0  0  0  0  0  0  0  0
   55.5570   30.0140   44.6480 O   0  0  0  0  0  0  0  0  0  0  0  0
   57.3990   33.0540   44.5650 C   0  0  0  0  0  0  0  0  0  0  0  0
   56.5708   33.7123   44.2638 H   0  0  0  0  0  0  0  0  0  0  0  0
   58.1180   33.3400   45.8260 C   0  0  0  0  0  0  0  0  0  0  0  0
   57.9550   32.4370   46.8870 C   0  0  0  0  0  0  0  0  0  0  0  0
   57.3246   31.5459   46.7506 H   0  0  0  0  0  0  0  0  0  0  0  0
   58.5830   32.6560   48.1130 C   0  0  0  0  0  0  0  0  0  0  0  0
   58.4301   31.9474   48.9404 H   0  0  0  0  0  0  0  0  0  0  0  0
   59.4070   33.7730   48.2960 C   0  0  0  0  0  0  0  0  0  0  0  0
   60.0410   34.0350   49.6300 C   0  0  0  0  0  0  0  0  0  0  0  0
   59.3436   33.7468   50.4304 H   0  0  0  0  0  0  0  0  0  0  0  0
   60.9652   33.4451   49.7189 H   0  0  0  0  0  0  0  0  0  0  0  0
   60.2791   35.1052   49.7189 H   0  0  0  0  0  0  0  0  0  0  0  0
   59.5870   34.6760   47.2390 C   0  0  0  0  0  0  0  0  0  0  0  0
   60.2134   35.5679   47.3879 H   0  0  0  0  0  0  0  0  0  0  0  0
   58.9780   34.4570   45.9920 C   0  0  0  0  0  0  0  0  0  0  0  0
   59.2650   35.4260   44.8720 C   0  0  0  0  0  0  0  0  0  0  0  0
   59.5534   36.3998   45.2945 H   0  0  0  0  0  0  0  0  0  0  0  0
   60.0866   35.0373   44.2524 H   0  0  0  0  0  0  0  0  0  0  0  0
   58.3643   35.5474   44.2524 H   0  0  0  0  0  0  0  0  0  0  0  0
  1  2  1  0
  2  3  1  0
  3  4  2  0
  4  5  1  0
  5  6  2  0
  6  7  1  0
  6  8  1  0
  8  9  1  0
  8 10  2  0
 10 11  1  0
 10 12  1  0
 12 13  1  0
 12 14  2  0
 14 15  1  0
 15 16  2  0
  2 17  2  0
 17 18  1  0
 17 19  1  0
 19 20  2  0
 20 21  1  0
 20 22  1  0
 22 23  1  0
 22 24  2  0
 24 25  1  0
 25 26  1  0
 25 27  1  0
 25 28  1  0
 24 29  1  0
 29 30  1  0
 29 31  2  0
 31 32  1  0
 32 33  1  0
 32 34  1  0
 32 35  1  0
 15  3  1  0
 31 19  1  0
 14  5  1  0
M  END
>  <UniqueID>  (1) 
1

>  <SMILES>  (1) 
Cc1ccc(/C=C/C2=Nc3ccc(Br)cc3C2=O)c(C)c1

>  <Energy>  (1) 
74.11641348261931

>  <Genealogy>  (1) 
Cc1ccc(/C=C/C2=Nc3ccc(Br)cc3C2=O)c(C)c1 (cis-trans isomerization)
Cc1ccc(/C=C/C2=Nc3ccc(Br)cc3C2=O)c(C)c1 (3D coordinates assigned)
Cc1ccc(/C=C/C2=Nc3ccc(Br)cc3C2=O)c(C)c1 (nonaromatic ring conformer: 74.11641348261931 kcal/mol)

>  <smiles>  (1) 
Cc1ccc(C=CC2=Nc3ccc(Br)cc3C2=O)c(C)c1

>  <score_type>  (1) 
oracle

>  <origin>  (1) 
adg

>  <m_score__min__energy>  (1) 
-8.6400000000000006

>  <m_primary>  (1) 
energy

$$$$
1:0
     RDKit          3D

 35 37  0  0  0  0  0  0  0  0999 V2000
   56.6230   23.6130   43.1740 C   0  0  0  0  0  0  0  0  0  0  0  0
   57.1140   24.1990   44.3750 O   0  0  0  0  0  0  0  0  0  0  0  0
   57.3150   25.5750   44.5640 C   0  0  0  0  0  0  0  0  0  0  0  0
   58.1170   26.3380   43.6970 C   0  0  0  0  0  0  0  0  0  0  0  0
   58.2940   27.7060   43.9160 C   0  0  0  0  0  0  0  0  0  0  0  0
   57.6740   28.3390   45.0040 C   0  0  0  0  0  0  0  0  0  0  0  0
   57.8640   29.7900   45.2350 C   0  0  0  0  0  0  0  0  0  0  0  0
   58.9750   30.3050   45.8280 N   0  0  0  0  0  0  0  0  0  0  0  0
   58.7250   31.6210   45.8310 C   0  0  0  0  0  0  0  0  0  0  0  0
   59.5370   32.6420   46.3190 C   0  0  0  0  0  0  0  0  0  0  0  0
   59.0600   33.9680   46.2210 C   0  0  0  0  0  0  0  0  0  0  0  0
   59.9090   35.1090   46.6940 C   0  0  0  0  0  0  0  0  0  0  0  0
   57.8040   34.2220   45.6110 C   0  0  0  0  0  0  0  0  0  0  0  0
   57.0150   33.1620   45.1290 C   0  0  0  0  0  0  0  0  0  0  0  0
   57.5160   31.8700   45.2620 C   0  0  0  0  0  0  0  0  0  0  0  0
   56.9430   30.7230   44.8710 N   0  0  0  0  0  0  0  0  0  0  0  0
   56.8730   27.5770   45.8710 C   0  0  0  0  0  0  0  0  0  0  0  0
   56.6890   26.1970   45.6550 C   0  0  0  0  0  0  0  0  0  0  0  0
   55.8940   25.4090   46.5040 O   0  0  0  0  0  0  0  0  0  0  0  0
   56.3770   24.3240   47.2880 C   0  0  0  0  0  0  0  0  0  0  0  0
   55.9347   22.7915   43.4216 H   0  0  0  0  0  0  0  0  0  0  0  0
   56.0891   24.3742   42.5862 H   0  0  0  0  0  0  0  0  0  0  0  0
   57.4659   23.2206   42.5862 H   0  0  0  0  0  0  0  0  0  0  0  0
   58.6085   25.8540   42.8401 H   0  0  0  0  0  0  0  0  0  0  0  0
   58.9242   28.2916   43.2304 H   0  0  0  0  0  0  0  0  0  0  0  0
   60.5178   32.4229   46.7662 H   0  0  0  0  0  0  0  0  0  0  0  0
   59.9213   35.1256   47.7938 H   0  0  0  0  0  0  0  0  0  0  0  0
   60.9349   34.9833   46.3177 H   0  0  0  0  0  0  0  0  0  0  0  0
   59.4938   36.0556   46.3177 H   0  0  0  0  0  0  0  0  0  0  0  0
   57.4443   35.2570   45.5143 H   0  0  0  0  0  0  0  0  0  0  0  0
   56.0360   33.3475   44.6631 H   0  0  0  0  0  0  0  0  0  0  0  0
   56.3841   28.0633   46.7280 H   0  0  0  0  0  0  0  0  0  0  0  0
   56.2691   24.5664   48.3555 H   0  0  0  0  0  0  0  0  0  0  0  0
   55.7971   23.4182   47.0572 H   0  0  0  0  0  0  0  0  0  0  0  0
   57.4381   24.1487   47.0572 H   0  0  0  0  0  0  0  0  0  0  0  0
  1  2  1  0
  2  3  1  0
  3  4  2  0
  4  5  1  0
  5  6  2  0
  6  7  1  0
  7  8  2  0
  8  9  1  0
  9 10  2  0
 10 11  1  0
 11 12  1  0
 11 13  2  0
 13 14  1  0
 14 15  2  0
 15 16  1  0
  6 17  1  0
 17 18  2  0
 18 19  1  0
 19 20  1  0
 18  3  1  0
 16  7  1  0
 15  9  1  0
  1 21  1  0
  1 22  1  0
  1 23  1  0
  4 24  1  0
  5 25  1  0
 10 26  1  0
 12 27  1  0
 12 28  1  0
 12 29  1  0
 13 30  1  0
 14 31  1  0
 17 32  1  0
 20 33  1  0
 20 34  1  0
 20 35  1  0
M  CHG  1  16  -1
M  END
>  <UniqueID>  (2) 
2

>  <SMILES>  (2) 
COc1ccc(-c2nc3cc(C)ccc3[n-]2)cc1OC

>  <Energy>  (2) 
70.87477274686708

>  <Genealogy>  (2) 
COc1ccc(-c2nc3cc(C)ccc3[n-]2)cc1OC (protonated)
COc1ccc(-c2nc3cc(C)ccc3[n-]2)cc1OC (3D coordinates assigned)
COc1ccc(-c2nc3cc(C)ccc3[n-]2)cc1OC (optimized conformer: 70.87477274686708 kcal/mol)

>  <smiles>  (2) 
COc1ccc(-c2nc3cc(C)ccc3[nH]2)cc1OC

>  <score_type>  (2) 
oracle

>  <origin>  (2) 
adg

>  <m_score__min__energy>  (2) 
-7.8799999999999999

>  <m_primary>  (2) 
energy

$$$$
2:0
     RDKit          3D

 56 59  0  0  0  0  0  0  0  0999 V2000
   57.7540   32.0400   51.5210 C   0  0  0  0  0  0  0  0  0  0  0  0
   58.8470   32.7730   50.7610 C   0  0  0  0  0  0  0  0  0  0  0  0
   58.5900   32.6940   49.3620 O   0  0  0  0  0  0  0  0  0  0  0  0
   59.2650   33.4820   48.4230 C   0  0  0  0  0  0  0  0  0  0  0  0
   60.3380   34.0660   48.7450 O   0  0  0  0  0  0  0  0  0  0  0  0
   58.7300   33.6230   47.0940 N   0  0  0  0  0  0  0  0  0  0  0  0
   59.4180   34.4420   46.0820 C   0  0  0  0  0  0  0  0  0  0  0  0
   59.3920   33.7390   44.7170 C   0  0  0  0  0  0  0  0  0  0  0  0
   58.0810   33.1400   44.4330 N   0  0  0  0  0  0  0  0  0  0  0  0
   57.9180   32.3660   43.2290 C   0  0  0  0  0  0  0  0  0  0  0  0
   58.5620   32.6860   42.1930 O   0  0  0  0  0  0  0  0  0  0  0  0
   56.9990   31.1760   43.1780 C   0  0  0  0  0  0  0  0  0  0  0  0
   57.3060   30.2410   44.2590 N   0  0  0  0  0  0  0  0  0  0  0  0
   56.3820   29.4120   44.9430 C   0  0  0  0  0  0  0  0  0  0  0  0
   55.1330   29.5620   44.8870 O   0  0  0  0  0  0  0  0  0  0  0  0
   57.0080   28.3710   45.6800 N   0  0  0  0  0  0  0  0  0  0  0  0
   58.4540   28.4520   45.4560 C   0  0  2  0  0  0  0  0  0  0  0  0
   58.9470   27.1830   44.7270 C   0  0  0  0  0  0  0  0  0  0  0  0
   59.0910   26.0110   45.6950 C   0  0  0  0  0  0  0  0  0  0  0  0
   60.1470   26.3310   46.7530 C   0  0  0  0  0  0  0  0  0  0  0  0
   59.9070   27.6640   47.4200 C   0  0  0  0  0  0  0  0  0  0  0  0
   60.5120   27.9100   48.6640 C   0  0  0  0  0  0  0  0  0  0  0  0
   60.3510   29.1410   49.3000 C   0  0  0  0  0  0  0  0  0  0  0  0
   59.5880   30.1410   48.7020 C   0  0  0  0  0  0  0  0  0  0  0  0
   58.9900   29.9200   47.4600 C   0  0  0  0  0  0  0  0  0  0  0  0
   59.1630   28.6930   46.7860 C   0  0  0  0  0  0  0  0  0  0  0  0
   58.5700   29.6430   44.5330 C   0  0  0  0  0  0  0  0  0  0  0  0
   59.6530   30.0640   44.0440 O   0  0  0  0  0  0  0  0  0  0  0  0
   56.9680   33.3550   45.3670 C   0  0  0  0  0  0  0  0  0  0  0  0
   57.4230   33.0180   46.7890 C   0  0  0  0  0  0  0  0  0  0  0  0
   57.9210   32.1520   52.6025 H   0  0  0  0  0  0  0  0  0  0  0  0
   56.7747   32.4646   51.2553 H   0  0  0  0  0  0  0  0  0  0  0  0
   57.7752   30.9728   51.2553 H   0  0  0  0  0  0  0  0  0  0  0  0
   58.8644   33.8282   51.0712 H   0  0  0  0  0  0  0  0  0  0  0  0
   59.8198   32.3091   50.9810 H   0  0  0  0  0  0  0  0  0  0  0  0
   58.9122   35.4152   45.9982 H   0  0  0  0  0  0  0  0  0  0  0  0
   60.4643   34.5853   46.3899 H   0  0  0  0  0  0  0  0  0  0  0  0
   59.6235   34.4755   43.9334 H   0  0  0  0  0  0  0  0  0  0  0  0
   60.1385   32.9313   44.7358 H   0  0  0  0  0  0  0  0  0  0  0  0
   55.9587   31.5182   43.2808 H   0  0  0  0  0  0  0  0  0  0  0  0
   57.1377   30.6623   42.2153 H   0  0  0  0  0  0  0  0  0  0  0  0
   56.5120   27.6640   46.2670 H   0  0  0  0  0  0  0  0  0  0  0  0
   58.2225   26.9147   43.9440 H   0  0  0  0  0  0  0  0  0  0  0  0
   59.9328   27.3947   44.2872 H   0  0  0  0  0  0  0  0  0  0  0  0
   58.1256   25.8260   46.1887 H   0  0  0  0  0  0  0  0  0  0  0  0
   59.4018   25.1170   45.1346 H   0  0  0  0  0  0  0  0  0  0  0  0
   60.1282   25.5433   47.5206 H   0  0  0  0  0  0  0  0  0  0  0  0
   61.1235   26.3789   46.2489 H   0  0  0  0  0  0  0  0  0  0  0  0
   61.1178   27.1251   49.1405 H   0  0  0  0  0  0  0  0  0  0  0  0
   60.8272   29.3221   50.2749 H   0  0  0  0  0  0  0  0  0  0  0  0
   59.4562   31.1078   49.2098 H   0  0  0  0  0  0  0  0  0  0  0  0
   58.3776   30.7109   47.0023 H   0  0  0  0  0  0  0  0  0  0  0  0
   56.6507   34.4073   45.3232 H   0  0  0  0  0  0  0  0  0  0  0  0
   56.1248   32.7059   45.0883 H   0  0  0  0  0  0  0  0  0  0  0  0
   56.6775   33.3986   47.5027 H   0  0  0  0  0  0  0  0  0  0  0  0
   57.5205   31.9254   46.8707 H   0  0  0  0  0  0  0  0  0  0  0  0
  1  2  1  0
  2  3  1  0
  3  4  1  0
  4  5  2  0
  4  6  1  0
  6  7  1  0
  7  8  1  0
  8  9  1  0
  9 10  1  0
 10 11  2  0
 10 12  1  0
 12 13  1  0
 13 14  1  0
 14 15  2  0
 14 16  1  0
 17 16  1  1
 17 18  1  0
 18 19  1  0
 19 20  1  0
 20 21  1  0
 21 22  2  0
 22 23  1  0
 23 24  2  0
 24 25  1  0
 25 26  2  0
 17 27  1  0
 27 28  2  0
  9 29  1  0
 29 30  1  0
 30  6  1  0
 27 13  1  0
 26 17  1  0
 26 21  1  0
  1 31  1  0
  1 32  1  0
  1 33  1  0
  2 34  1  0
  2 35  1  0
  7 36  1  0
  7 37  1  0
  8 38  1  0
  8 39  1  0
 12 40  1  0
 12 41  1  0
 16 42  1  0
 18 43  1  0
 18 44  1  0
 19 45  1  0
 19 46  1  0
 20 47  1  0
 20 48  1  0
 22 49  1  0
 23 50  1  0
 24 51  1  0
 25 52  1  0
 29 53  1  0
 29 54  1  0
 30 55  1  0
 30 56  1  0
M  END
>  <UniqueID>  (3) 
3

>  <SMILES>  (3) 
CCOC(=O)N1CCN(C(=O)CN2C(=O)N[C@@]3(CCCc4ccccc43)C2=O)CC1

>  <Energy>  (3) 
73.59561201448294

>  <Genealogy>  (3) 
CCOC(=O)N1CCN(C(=O)CN2C(=O)N[C@@]3(CCCc4ccccc43)C2=O)CC1 (chirality)
CCOC(=O)N1CCN(C(=O)CN2C(=O)N[C@@]3(CCCc4ccccc43)C2=O)CC1 (3D coordinates assigned)
CCOC(=O)N1CCN(C(=O)CN2C(=O)N[C@@]3(CCCc4ccccc43)C2=O)CC1 (nonaromatic ring conformer: 73.59561201448294 kcal/mol)

>  <smiles>  (3) 
CCOC(=O)N1CCN(C(=O)CN2C(=O)NC3(CCCc4ccccc43)C2=O)CC1

>  <score_type>  (3) 
oracle

>  <origin>  (3) 
adg

>  <m_score__min__energy>  (3) 
-8.2599999999999998

>  <m_primary>  (3) 
energy

$$$$
3:0
     RDKit          3D

 33 34  0  0  1  0  0  0  0  0999 V2000
   55.9410   23.9600   46.7320 C   0  0  0  0  0  0  0  0  0  0  0  0
   55.5100   24.8430   45.5950 C   0  0  0  0  0  0  0  0  0  0  0  0
   55.4720   26.2250   45.9630 N   0  0  0  0  0  0  0  0  0  0  0  0
   56.4590   27.0100   45.6480 C   0  0  0  0  0  0  0  0  0  0  0  0
   57.7710   26.5790   45.6960 C   0  0  0  0  0  0  0  0  0  0  0  0
   58.7380   27.5010   45.3400 C   0  0  0  0  0  0  0  0  0  0  0  0
   58.3920   28.7510   44.9670 N   0  0  0  0  0  0  0  0  0  0  0  0
   57.0920   29.1310   44.9340 C   0  0  0  0  0  0  0  0  0  0  0  0
   56.7240   30.3180   44.5840 N   0  0  0  0  0  0  0  0  0  0  0  0
   57.4800   31.4490   44.9980 C   0  0  0  0  0  0  0  0  0  0  0  0
   58.1640   31.4670   46.2180 C   0  0  0  0  0  0  0  0  0  0  0  0
   58.8860   32.6150   46.5550 C   0  0  0  0  0  0  0  0  0  0  0  0
   58.9040   33.6940   45.6800 C   0  0  0  0  0  0  0  0  0  0  0  0
   59.6600   34.9360   46.0010 C   0  0  0  0  0  0  0  0  0  0  0  0
   58.2250   33.6700   44.4780 C   0  0  0  0  0  0  0  0  0  0  0  0
   57.5130   32.5370   44.1430 C   0  0  0  0  0  0  0  0  0  0  0  0
   56.1430   28.2620   45.2730 N   0  0  0  0  0  0  0  0  0  0  0  0
   55.7020   24.4497   47.6875 H   0  0  0  0  0  0  0  0  0  0  0  0
   55.4111   22.9980   46.6704 H   0  0  0  0  0  0  0  0  0  0  0  0
   57.0254   23.7859   46.6704 H   0  0  0  0  0  0  0  0  0  0  0  0
   56.2182   24.7183   44.7626 H   0  0  0  0  0  0  0  0  0  0  0  0
   54.4916   24.5445   45.3054 H   0  0  0  0  0  0  0  0  0  0  0  0
   58.0326   25.5552   46.0017 H   0  0  0  0  0  0  0  0  0  0  0  0
   59.7994   27.2129   45.3610 H   0  0  0  0  0  0  0  0  0  0  0  0
   59.1340   29.4380   44.7000 H   0  0  0  0  0  0  0  0  0  0  0  0
   58.1343   30.6001   46.8945 H   0  0  0  0  0  0  0  0  0  0  0  0
   59.4362   32.6640   47.5063 H   0  0  0  0  0  0  0  0  0  0  0  0
   59.7299   35.0509   47.0927 H   0  0  0  0  0  0  0  0  0  0  0  0
   60.6715   34.8703   45.5737 H   0  0  0  0  0  0  0  0  0  0  0  0
   59.1371   35.8043   45.5737 H   0  0  0  0  0  0  0  0  0  0  0  0
   58.2513   34.5368   43.8013 H   0  0  0  0  0  0  0  0  0  0  0  0
   56.9671   32.4979   43.1888 H   0  0  0  0  0  0  0  0  0  0  0  0
   55.1390   28.5560   45.2470 H   0  0  0  0  0  0  0  0  0  0  0  0
  1  2  1  0
  2  3  1  0
  3  4  2  0
  4  5  1  0
  5  6  2  0
  6  7  1  0
  7  8  1  0
  8  9  2  0
  9 10  1  0
 10 11  2  0
 11 12  1  0
 12 13  2  0
 13 14  1  0
 13 15  1  0
 15 16  2  0
  8 17  1  0
 17  4  1  0
 16 10  1  0
  1 18  1  0
  1 19  1  0
  1 20  1  0
  2 21  1  0
  2 22  1  0
  5 23  1  0
  6 24  1  0
  7 25  1  0
 11 26  1  0
 12 27  1  0
 14 28  1  0
 14 29  1  0
 14 30  1  0
 15 31  1  0
 16 32  1  0
 17 33  1  0
M  END
>  <smiles>  (4) 
CCN=c1cc[nH]c(=Nc2ccc(C)cc2)[nH]1

>  <score_type>  (4) 
oracle

>  <origin>  (4) 
adg

>  <m_score__min__energy>  (4) 
-6.7400000000000002

>  <m_primary>  (4) 
energy

$$$$
4:0
     RDKit          3D

 34 35  0  0  1  0  0  0  0  0999 V2000
   55.9340   24.2110   44.3800 C   0  0  0  0  0  0  0  0  0  0  0  0
   55.2770   24.3370   45.7600 C   0  0  0  0  0  0  0  0  0  0  0  0
   55.0560   25.7400   45.9830 N   0  0  0  0  0  0  0  0  0  0  0  0
   56.0490   26.5560   46.0090 C   0  0  0  0  0  0  0  0  0  0  0  0
   57.1930   26.1060   46.6650 C   0  0  0  0  0  0  0  0  0  0  0  0
   58.3060   26.9270   46.7360 C   0  0  0  0  0  0  0  0  0  0  0  0
   59.5600   26.5140   47.4180 C   0  0  0  0  0  0  0  0  0  0  0  0
   58.2070   28.1460   46.1470 N   0  0  0  0  0  0  0  0  0  0  0  0
   57.0910   28.5570   45.5200 C   0  0  0  0  0  0  0  0  0  0  0  0
   57.1160   29.8580   44.9440 N   0  0  0  0  0  0  0  0  0  0  0  0
   57.3740   30.9580   45.6360 N   0  0  0  0  0  0  0  0  0  0  0  0
   57.3300   32.0370   44.8520 C   0  0  0  0  0  0  0  0  0  0  0  0
   57.5700   33.4360   45.2950 C   0  0  0  0  0  0  0  0  0  0  0  0
   57.0270   31.6030   43.5780 C   0  0  0  0  0  0  0  0  0  0  0  0
   56.8950   30.2230   43.6630 C   0  0  0  0  0  0  0  0  0  0  0  0
   56.5730   29.2540   42.5850 C   0  0  0  0  0  0  0  0  0  0  0  0
   56.0130   27.7760   45.4450 N   0  0  0  0  0  0  0  0  0  0  0  0
   57.0076   24.0051   44.5025 H   0  0  0  0  0  0  0  0  0  0  0  0
   55.4637   23.3867   43.8239 H   0  0  0  0  0  0  0  0  0  0  0  0
   55.8020   25.1508   43.8239 H   0  0  0  0  0  0  0  0  0  0  0  0
   54.3200   23.7948   45.7757 H   0  0  0  0  0  0  0  0  0  0  0  0
   55.9165   23.9064   46.5447 H   0  0  0  0  0  0  0  0  0  0  0  0
   57.2119   25.1061   47.1231 H   0  0  0  0  0  0  0  0  0  0  0  0
   59.4173   26.5610   48.5077 H   0  0  0  0  0  0  0  0  0  0  0  0
   59.8145   25.4846   47.1256 H   0  0  0  0  0  0  0  0  0  0  0  0
   60.3764   27.1907   47.1256 H   0  0  0  0  0  0  0  0  0  0  0  0
   57.5769   33.4765   46.3942 H   0  0  0  0  0  0  0  0  0  0  0  0
   58.5405   33.7814   44.9092 H   0  0  0  0  0  0  0  0  0  0  0  0
   56.7701   34.0851   44.9092 H   0  0  0  0  0  0  0  0  0  0  0  0
   56.9130   32.2241   42.6773 H   0  0  0  0  0  0  0  0  0  0  0  0
   56.2561   28.3002   43.0320 H   0  0  0  0  0  0  0  0  0  0  0  0
   55.7599   29.6552   41.9622 H   0  0  0  0  0  0  0  0  0  0  0  0
   57.4645   29.0887   41.9622 H   0  0  0  0  0  0  0  0  0  0  0  0
   55.1410   28.0770   44.9640 H   0  0  0  0  0  0  0  0  0  0  0  0
  1  2  1  0
  2  3  1  0
  3  4  2  0
  4  5  1  0
  5  6  2  0
  6  7  1  0
  6  8  1  0
  8  9  2  0
  9 10  1  0
 10 11  1  0
 11 12  2  0
 12 13  1  0
 12 14  1  0
 14 15  2  0
 15 16  1  0
  9 17  1  0
 17  4  1  0
 15 10  1  0
  1 18  1  0
  1 19  1  0
  1 20  1  0
  2 21  1  0
  2 22  1  0
  5 23  1  0
  7 24  1  0
  7 25  1  0
  7 26  1  0
 13 27  1  0
 13 28  1  0
 13 29  1  0
 14 30  1  0
 16 31  1  0
 16 32  1  0
 16 33  1  0
 17 34  1  0
M  END
>  <smiles>  (5) 
CCN=c1cc(C)nc(-n2nc(C)cc2C)[nH]1

>  <score_type>  (5) 
oracle

>  <origin>  (5) 
adg

>  <m_score__min__energy>  (5) 
-6.7599999999999998

>  <m_primary>  (5) 
energy

$$$$
5:0
     RDKit          3D

 32 34  0  0  0  0  0  0  0  0999 V2000
   65.0840   32.8610   49.7140 C   0  0  0  0  0  0  0  0  0  0  0  0
   64.4660   33.4640   48.5820 O   0  0  0  0  0  0  0  0  0  0  0  0
   63.0840   33.4670   48.3420 C   0  0  0  0  0  0  0  0  0  0  0  0
   62.1450   33.8020   49.3350 C   0  0  0  0  0  0  0  0  0  0  0  0
   60.7770   33.7900   49.0460 C   0  0  0  0  0  0  0  0  0  0  0  0
   60.3230   33.4360   47.7650 C   0  0  0  0  0  0  0  0  0  0  0  0
   58.8460   33.4410   47.4520 C   0  0  1  0  0  0  0  0  0  0  0  0
   58.5310   34.5650   46.4890 C   0  0  0  0  0  0  0  0  0  0  0  0
   58.2090   34.3370   45.2140 C   0  0  0  0  0  0  0  0  0  0  0  0
   58.0610   32.9640   44.7090 C   0  0  0  0  0  0  0  0  0  0  0  0
   57.7790   32.7150   43.3590 C   0  0  0  0  0  0  0  0  0  0  0  0
   57.6170   31.4000   42.9110 C   0  0  0  0  0  0  0  0  0  0  0  0
   57.7290   30.3340   43.8090 C   0  0  0  0  0  0  0  0  0  0  0  0
   58.0050   30.5780   45.1600 C   0  0  0  0  0  0  0  0  0  0  0  0
   58.1600   29.1070   46.3730 Br  0  0  0  0  0  0  0  0  0  0  0  0
   58.1760   31.8950   45.6090 C   0  0  0  0  0  0  0  0  0  0  0  0
   58.4510   32.1530   46.9570 O   0  0  0  0  0  0  0  0  0  0  0  0
   61.2640   33.1120   46.7730 C   0  0  0  0  0  0  0  0  0  0  0  0
   62.6310   33.1240   47.0630 C   0  0  0  0  0  0  0  0  0  0  0  0
   64.6530   33.2816   50.6345 H   0  0  0  0  0  0  0  0  0  0  0  0
   64.9110   31.7749   49.6911 H   0  0  0  0  0  0  0  0  0  0  0  0
   66.1655   33.0606   49.6911 H   0  0  0  0  0  0  0  0  0  0  0  0
   62.4889   34.0747   50.3437 H   0  0  0  0  0  0  0  0  0  0  0  0
   60.0513   34.0597   49.8274 H   0  0  0  0  0  0  0  0  0  0  0  0
   58.2620   33.6274   48.3653 H   0  0  0  0  0  0  0  0  0  0  0  0
   58.5686   35.6029   46.8513 H   0  0  0  0  0  0  0  0  0  0  0  0
   58.0525   35.1864   44.5328 H   0  0  0  0  0  0  0  0  0  0  0  0
   57.6852   33.5529   42.6525 H   0  0  0  0  0  0  0  0  0  0  0  0
   57.4011   31.2040   41.8504 H   0  0  0  0  0  0  0  0  0  0  0  0
   57.6000   29.3011   43.4533 H   0  0  0  0  0  0  0  0  0  0  0  0
   60.9224   32.8472   45.7615 H   0  0  0  0  0  0  0  0  0  0  0  0
   63.3571   32.8617   46.2794 H   0  0  0  0  0  0  0  0  0  0  0  0
  1  2  1  0
  2  3  1  0
  3  4  2  0
  4  5  1  0
  5  6  2  0
  6  7  1  0
  7  8  1  0
  8  9  2  0
  9 10  1  0
 10 11  2  0
 11 12  1  0
 12 13  2  0
 13 14  1  0
 14 15  1  0
 14 16  2  0
 16 17  1  0
  6 18  1  0
 18 19  2  0
 19  3  1  0
 17  7  1  0
 16 10  1  0
  1 20  1  0
  1 21  1  0
  1 22  1  0
  4 23  1  0
  5 24  1  0
  7 25  1  1
  8 26  1  0
  9 27  1  0
 11 28  1  0
 12 29  1  0
 13 30  1  0
 18 31  1  0
 19 32  1  0
M  END
>  <UniqueID>  (6) 
4

>  <SMILES>  (6) 
COc1ccc([C@H]2C=Cc3cccc(Br)c3O2)cc1

>  <Energy>  (6) 
36.168358363624186

>  <Genealogy>  (6) 
COc1ccc([C@H]2C=Cc3cccc(Br)c3O2)cc1 (chirality)
COc1ccc([C@H]2C=Cc3cccc(Br)c3O2)cc1 (3D coordinates assigned)
COc1ccc([C@H]2C=Cc3cccc(Br)c3O2)cc1 (nonaromatic ring conformer: 36.168358363624186 kcal/mol)

>  <smiles>  (6) 
COc1ccc(C2C=Cc3cccc(Br)c3O2)cc1

>  <score_type>  (6) 
oracle

>  <origin>  (6) 
adg

>  <m_score__min__energy>  (6) 
-7.1500000000000004

>  <m_primary>  (6) 
energy

$$$$
6:0
     RDKit          3D

 53 56  0  0  0  0  0  0  0  0999 V2000
   57.9440   32.3190   41.8470 C   0  0  0  0  0  0  0  0  0  0  0  0
   57.3110   32.2560   43.1210 O   0  0  0  0  0  0  0  0  0  0  0  0
   57.7440   32.9550   44.2570 C   0  0  0  0  0  0  0  0  0  0  0  0
   57.0570   32.9020   45.4850 C   0  0  0  0  0  0  0  0  0  0  0  0
   57.5310   33.6150   46.5900 C   0  0  0  0  0  0  0  0  0  0  0  0
   58.7000   34.3940   46.4860 C   0  0  0  0  0  0  0  0  0  0  0  0
   59.2150   35.1250   47.5650 O   0  0  0  0  0  0  0  0  0  0  0  0
   60.0300   34.5720   48.5960 C   0  0  0  0  0  0  0  0  0  0  0  0
   59.8140   33.0870   48.6710 C   0  0  0  0  0  0  0  0  0  0  0  0
   59.0970   32.6250   49.6000 O   0  0  0  0  0  0  0  0  0  0  0  0
   60.4150   32.1900   47.7130 N   0  0  0  0  0  0  0  0  0  0  0  0
   61.7160   32.5230   47.1160 C   0  0  0  0  0  0  0  0  0  0  0  0
   62.7980   32.4790   48.1630 C   0  0  0  0  0  0  0  0  0  0  0  0
   62.7080   31.5880   49.2420 C   0  0  0  0  0  0  0  0  0  0  0  0
   63.7330   31.5300   50.1880 C   0  0  0  0  0  0  0  0  0  0  0  0
   64.8440   32.3630   50.0430 C   0  0  0  0  0  0  0  0  0  0  0  0
   64.9210   33.2180   48.9900 N   0  0  0  0  0  0  0  0  0  0  0  0
   63.9350   33.2930   48.0550 C   0  0  0  0  0  0  0  0  0  0  0  0
   59.6930   31.0420   47.2310 C   0  0  0  0  0  0  0  0  0  0  0  0
   59.3720   30.8550   45.9260 N   0  0  0  0  0  0  0  0  0  0  0  0
   58.7160   29.6810   45.7380 C   0  0  0  0  0  0  0  0  0  0  0  0
   58.2620   29.2120   44.5050 C   0  0  0  0  0  0  0  0  0  0  0  0
   57.5990   27.9730   44.4550 C   0  0  0  0  0  0  0  0  0  0  0  0
   57.3980   27.2110   45.6360 C   0  0  0  0  0  0  0  0  0  0  0  0
   56.7430   25.9710   45.6260 O   0  0  0  0  0  0  0  0  0  0  0  0
   56.7310   25.0610   46.7210 C   0  0  0  0  0  0  0  0  0  0  0  0
   57.8690   27.7020   46.8670 C   0  0  0  0  0  0  0  0  0  0  0  0
   58.5190   28.9330   46.8870 C   0  0  0  0  0  0  0  0  0  0  0  0
   59.1820   29.7460   48.2000 S   0  0  0  0  0  0  0  0  0  0  0  0
   59.3780   34.4450   45.2630 C   0  0  0  0  0  0  0  0  0  0  0  0
   58.9040   33.7320   44.1570 C   0  0  0  0  0  0  0  0  0  0  0  0
   59.0303   32.4271   41.9823 H   0  0  0  0  0  0  0  0  0  0  0  0
   57.7343   31.3955   41.2873 H   0  0  0  0  0  0  0  0  0  0  0  0
   57.5564   33.1830   41.2873 H   0  0  0  0  0  0  0  0  0  0  0  0
   56.1430   32.2967   45.5752 H   0  0  0  0  0  0  0  0  0  0  0  0
   56.9883   33.5675   47.5456 H   0  0  0  0  0  0  0  0  0  0  0  0
   61.0880   34.7769   48.3752 H   0  0  0  0  0  0  0  0  0  0  0  0
   59.7584   35.0286   49.5592 H   0  0  0  0  0  0  0  0  0  0  0  0
   61.9482   31.7965   46.3234 H   0  0  0  0  0  0  0  0  0  0  0  0
   61.6671   33.5378   46.6943 H   0  0  0  0  0  0  0  0  0  0  0  0
   61.8291   30.9343   49.3431 H   0  0  0  0  0  0  0  0  0  0  0  0
   63.6660   30.8355   51.0384 H   0  0  0  0  0  0  0  0  0  0  0  0
   65.6579   32.3270   50.7821 H   0  0  0  0  0  0  0  0  0  0  0  0
   64.0300   33.9938   47.2125 H   0  0  0  0  0  0  0  0  0  0  0  0
   59.6240   31.5140   45.1560 H   0  0  0  0  0  0  0  0  0  0  0  0
   58.4197   29.8004   43.5891 H   0  0  0  0  0  0  0  0  0  0  0  0
   57.2324   27.5902   43.4911 H   0  0  0  0  0  0  0  0  0  0  0  0
   56.7384   25.6242   47.6659 H   0  0  0  0  0  0  0  0  0  0  0  0
   55.8246   24.4397   46.6715 H   0  0  0  0  0  0  0  0  0  0  0  0
   57.6207   24.4161   46.6715 H   0  0  0  0  0  0  0  0  0  0  0  0
   57.7269   27.1261   47.7934 H   0  0  0  0  0  0  0  0  0  0  0  0
   60.2914   35.0509   45.1706 H   0  0  0  0  0  0  0  0  0  0  0  0
   59.4468   33.7822   43.2016 H   0  0  0  0  0  0  0  0  0  0  0  0
  1  2  1  0
  2  3  1  0
  3  4  2  0
  4  5  1  0
  5  6  2  0
  6  7  1  0
  7  8  1  0
  8  9  1  0
  9 10  2  0
  9 11  1  0
 11 12  1  0
 12 13  1  0
 13 14  2  0
 14 15  1  0
 15 16  2  0
 16 17  1  0
 17 18  2  0
 11 19  1  0
 19 20  2  0
 20 21  1  0
 21 22  2  0
 22 23  1  0
 23 24  2  0
 24 25  1  0
 25 26  1  0
 24 27  1  0
 27 28  2  0
 28 29  1  0
  6 30  1  0
 30 31  2  0
 31  3  1  0
 18 13  1  0
 29 19  1  0
 28 21  1  0
  1 32  1  0
  1 33  1  0
  1 34  1  0
  4 35  1  0
  5 36  1  0
  8 37  1  0
  8 38  1  0
 12 39  1  0
 12 40  1  0
 14 41  1  0
 15 42  1  0
 16 43  1  0
 18 44  1  0
 20 45  1  0
 22 46  1  0
 23 47  1  0
 26 48  1  0
 26 49  1  0
 26 50  1  0
 27 51  1  0
 30 52  1  0
 31 53  1  0
M  CHG  1  20   1
M  END
>  <UniqueID>  (7) 
5

>  <SMILES>  (7) 
COc1ccc(OCC(=O)N(Cc2cccnc2)c2[nH+]c3ccc(OC)cc3s2)cc1

>  <Energy>  (7) 
93.41980893625971

>  <Genealogy>  (7) 
COc1ccc(OCC(=O)N(Cc2cccnc2)c2[nH+]c3ccc(OC)cc3s2)cc1 (protonated)
COc1ccc(OCC(=O)N(Cc2cccnc2)c2[nH+]c3ccc(OC)cc3s2)cc1 (3D coordinates assigned)
COc1ccc(OCC(=O)N(Cc2cccnc2)c2[nH+]c3ccc(OC)cc3s2)cc1 (optimized conformer: 93.41980893625971 kcal/mol)

>  <smiles>  (7) 
COc1ccc(OCC(=O)N(Cc2cccnc2)c2nc3ccc(OC)cc3s2)cc1

>  <score_type>  (7) 
oracle

>  <origin>  (7) 
adg

>  <m_score__min__energy>  (7) 
-6.3099999999999996

>  <m_primary>  (7) 
energy

$$$$
7:0
     RDKit          3D

 56 60  0  0  0  0  0  0  0  0999 V2000
   57.4240   32.1130   52.6880 C   0  0  0  0  0  0  0  0  0  0  0  0
   58.1270   33.2370   53.1290 C   0  0  0  0  0  0  0  0  0  0  0  0
   58.9830   33.9150   52.2550 C   0  0  0  0  0  0  0  0  0  0  0  0
   59.1330   33.4770   50.9250 C   0  0  0  0  0  0  0  0  0  0  0  0
   60.0190   34.1450   50.0110 N   0  0  0  0  0  0  0  0  0  0  0  0
   61.1360   33.5050   49.3790 C   0  0  0  0  0  0  0  0  0  0  0  0
   61.1410   32.8970   48.1290 C   0  0  0  0  0  0  0  0  0  0  0  0
   59.9780   32.6280   47.2550 C   0  0  0  0  0  0  0  0  0  0  0  0
   59.0060   33.6070   47.0040 C   0  0  0  0  0  0  0  0  0  0  0  0
   57.9150   33.3190   46.1830 C   0  0  0  0  0  0  0  0  0  0  0  0
   57.7920   32.0390   45.6130 C   0  0  0  0  0  0  0  0  0  0  0  0
   56.7200   31.6870   44.7750 O   0  0  0  0  0  0  0  0  0  0  0  0
   56.8020   30.8420   43.6260 C   0  0  0  0  0  0  0  0  0  0  0  0
   56.5980   29.3740   44.0170 C   0  0  0  0  0  0  0  0  0  0  0  0
   57.7900   28.8600   44.7300 N   0  0  0  0  0  0  0  0  0  0  0  0
   58.5030   27.8480   43.9330 C   0  0  0  0  0  0  0  0  0  0  0  0
   58.0220   26.4680   44.3700 C   0  0  0  0  0  0  0  0  0  0  0  0
   57.2010   26.6980   45.6240 C   0  0  0  0  0  0  0  0  0  0  0  0
   57.4150   28.1610   45.9680 C   0  0  0  0  0  0  0  0  0  0  0  0
   58.7360   31.0970   45.8870 N   0  0  0  0  0  0  0  0  0  0  0  0
   59.8060   31.3580   46.6870 C   0  0  0  0  0  0  0  0  0  0  0  0
   62.4140   32.5670   47.7950 N   0  0  0  0  0  0  0  0  0  0  0  0
   63.1440   32.9930   48.8470 C   0  0  0  0  0  0  0  0  0  0  0  0
   64.5300   32.9090   48.9580 C   0  0  0  0  0  0  0  0  0  0  0  0
   65.1290   33.4610   50.1020 C   0  0  0  0  0  0  0  0  0  0  0  0
   64.3400   34.0880   51.0840 C   0  0  0  0  0  0  0  0  0  0  0  0
   62.9480   34.1480   50.9190 C   0  0  0  0  0  0  0  0  0  0  0  0
   62.4070   33.5720   49.8120 N   0  0  0  0  0  0  0  0  0  0  0  0
   58.4330   32.3380   50.4980 C   0  0  0  0  0  0  0  0  0  0  0  0
   57.5790   31.6620   51.3750 C   0  0  0  0  0  0  0  0  0  0  0  0
   56.7481   31.5829   53.3751 H   0  0  0  0  0  0  0  0  0  0  0  0
   58.0072   33.5890   54.1643 H   0  0  0  0  0  0  0  0  0  0  0  0
   59.5416   34.7944   52.6081 H   0  0  0  0  0  0  0  0  0  0  0  0
   59.8000   35.1280   49.7310 H   0  0  0  0  0  0  0  0  0  0  0  0
   59.1038   34.6052   47.4557 H   0  0  0  0  0  0  0  0  0  0  0  0
   57.1553   34.0889   45.9827 H   0  0  0  0  0  0  0  0  0  0  0  0
   56.0239   31.1353   42.9059 H   0  0  0  0  0  0  0  0  0  0  0  0
   57.7997   30.9527   43.1763 H   0  0  0  0  0  0  0  0  0  0  0  0
   55.7194   29.2924   44.6738 H   0  0  0  0  0  0  0  0  0  0  0  0
   56.4437   28.7795   43.1045 H   0  0  0  0  0  0  0  0  0  0  0  0
   58.2870   27.9961   42.8646 H   0  0  0  0  0  0  0  0  0  0  0  0
   59.5881   27.9381   44.0893 H   0  0  0  0  0  0  0  0  0  0  0  0
   57.4024   26.0112   43.5843 H   0  0  0  0  0  0  0  0  0  0  0  0
   58.8637   25.7845   44.5553 H   0  0  0  0  0  0  0  0  0  0  0  0
   56.1367   26.4972   45.4320 H   0  0  0  0  0  0  0  0  0  0  0  0
   57.5031   26.0311   46.4449 H   0  0  0  0  0  0  0  0  0  0  0  0
   56.4873   28.5901   46.3744 H   0  0  0  0  0  0  0  0  0  0  0  0
   58.2054   28.2675   46.7256 H   0  0  0  0  0  0  0  0  0  0  0  0
   58.6400   30.1440   45.4710 H   0  0  0  0  0  0  0  0  0  0  0  0
   60.5418   30.5658   46.8894 H   0  0  0  0  0  0  0  0  0  0  0  0
   65.1349   32.4266   48.1760 H   0  0  0  0  0  0  0  0  0  0  0  0
   66.2199   33.4029   50.2310 H   0  0  0  0  0  0  0  0  0  0  0  0
   64.8114   34.5282   51.9751 H   0  0  0  0  0  0  0  0  0  0  0  0
   62.3116   34.6472   51.6645 H   0  0  0  0  0  0  0  0  0  0  0  0
   58.5569   31.9748   49.4671 H   0  0  0  0  0  0  0  0  0  0  0  0
   57.0286   30.7741   51.0306 H   0  0  0  0  0  0  0  0  0  0  0  0
  1  2  2  0
  2  3  1  0
  3  4  2  0
  4  5  1  0
  5  6  1  0
  6  7  2  0
  7  8  1  0
  8  9  2  0
  9 10  1  0
 10 11  2  0
 11 12  1  0
 12 13  1  0
 13 14  1  0
 14 15  1  0
 15 16  1  0
 16 17  1  0
 17 18  1  0
 18 19  1  0
 11 20  1  0
 20 21  2  0
  7 22  1  0
 22 23  2  0
 23 24  1  0
 24 25  2  0
 25 26  1  0
 26 27  2  0
 27 28  1  0
  4 29  1  0
 29 30  2  0
 30  1  1  0
 28  6  1  0
 21  8  1  0
 28 23  1  0
 19 15  1  0
  1 31  1  0
  2 32  1  0
  3 33  1  0
  5 34  1  0
  9 35  1  0
 10 36  1  0
 13 37  1  0
 13 38  1  0
 14 39  1  0
 14 40  1  0
 16 41  1  0
 16 42  1  0
 17 43  1  0
 17 44  1  0
 18 45  1  0
 18 46  1  0
 19 47  1  0
 19 48  1  0
 20 49  1  0
 21 50  1  0
 24 51  1  0
 25 52  1  0
 26 53  1  0
 27 54  1  0
 29 55  1  0
 30 56  1  0
M  CHG  1  20   1
M  END
>  <UniqueID>  (8) 
6

>  <SMILES>  (8) 
c1ccc(Nc2c(-c3ccc(OCCN4CCCC4)[nH+]c3)nc3ccccn23)cc1

>  <Energy>  (8) 
108.34895252666348

>  <Genealogy>  (8) 
c1ccc(Nc2c(-c3ccc(OCCN4CCCC4)[nH+]c3)nc3ccccn23)cc1 (protonated)
c1ccc(Nc2c(-c3ccc(OCCN4CCCC4)[nH+]c3)nc3ccccn23)cc1 (3D coordinates assigned)
c1ccc(Nc2c(-c3ccc(OCCN4CCCC4)[nH+]c3)nc3ccccn23)cc1 (nonaromatic ring conformer: 108.34895252666348 kcal/mol)

>  <smiles>  (8) 
c1ccc(Nc2c(-c3ccc(OCCN4CCCC4)nc3)nc3ccccn23)cc1

>  <score_type>  (8) 
oracle

>  <origin>  (8) 
adg

>  <m_score__min__energy>  (8) 
-6.9800000000000004

>  <m_primary>  (8) 
energy

$$$$
8:0
     RDKit          3D

 66 69  0  0  0  0  0  0  0  0999 V2000
   61.3960   30.8330   47.3790 C   0  0  0  0  0  0  0  0  0  0  0  0
   60.6110   30.4010   48.4860 O   0  0  0  0  0  0  0  0  0  0  0  0
   60.6570   29.1130   49.0420 C   0  0  0  0  0  0  0  0  0  0  0  0
   61.1780   28.8790   50.3310 C   0  0  0  0  0  0  0  0  0  0  0  0
   61.2320   27.5820   50.8470 C   0  0  0  0  0  0  0  0  0  0  0  0
   60.7710   26.5060   50.0880 C   0  0  0  0  0  0  0  0  0  0  0  0
   60.2500   26.7240   48.8120 C   0  0  0  0  0  0  0  0  0  0  0  0
   60.1830   28.0230   48.2820 C   0  0  0  0  0  0  0  0  0  0  0  0
   59.6390   28.2250   46.9660 N   0  0  0  0  0  0  0  0  0  0  0  0
   58.2440   28.6460   46.7930 C   0  0  0  0  0  0  0  0  0  0  0  0
   57.5880   27.9260   45.5960 C   0  0  0  0  0  0  0  0  0  0  0  0
   58.5490   27.4950   44.5450 N   0  0  0  0  0  0  0  0  0  0  0  0
   57.9130   27.4200   43.2090 C   0  0  0  0  0  0  0  0  0  0  0  0
   57.0200   28.6400   42.9400 C   0  0  0  0  0  0  0  0  0  0  0  0
   57.6480   29.8710   43.4190 N   0  0  0  0  0  0  0  0  0  0  0  0
   56.9690   30.7850   44.2950 C   0  0  0  0  0  0  0  0  0  0  0  0
   55.7310   30.6520   44.4980 O   0  0  0  0  0  0  0  0  0  0  0  0
   57.7020   31.8870   44.9640 C   0  0  0  0  0  0  0  0  0  0  0  0
   58.0950   31.7590   46.3070 C   0  0  0  0  0  0  0  0  0  0  0  0
   58.8070   32.7830   46.9390 C   0  0  0  0  0  0  0  0  0  0  0  0
   59.1440   33.9500   46.2380 C   0  0  0  0  0  0  0  0  0  0  0  0
   59.9460   35.0280   46.9140 C   0  0  0  0  0  0  0  0  0  0  0  0
   60.7240   34.4610   48.0150 N   0  0  0  0  0  0  0  0  0  0  0  0
   60.2500   34.3340   49.2450 N   0  0  0  0  0  0  0  0  0  0  0  0
   61.1890   33.7030   49.9760 C   0  0  0  0  0  0  0  0  0  0  0  0
   61.0560   33.4180   51.4350 C   0  0  0  0  0  0  0  0  0  0  0  0
   62.2960   33.4270   49.1950 C   0  0  0  0  0  0  0  0  0  0  0  0
   61.9610   33.9200   47.9510 C   0  0  0  0  0  0  0  0  0  0  0  0
   62.7970   33.8020   46.7140 C   0  0  0  0  0  0  0  0  0  0  0  0
   58.7600   34.0790   44.8960 C   0  0  0  0  0  0  0  0  0  0  0  0
   58.0460   33.0580   44.2630 C   0  0  0  0  0  0  0  0  0  0  0  0
   59.7450   28.3580   44.5060 C   0  0  0  0  0  0  0  0  0  0  0  0
   60.5320   28.1730   45.8030 C   0  0  0  0  0  0  0  0  0  0  0  0
   62.3043   31.3329   47.7465 H   0  0  0  0  0  0  0  0  0  0  0  0
   61.6780   29.9630   46.7678 H   0  0  0  0  0  0  0  0  0  0  0  0
   60.8120   31.5368   46.7678 H   0  0  0  0  0  0  0  0  0  0  0  0
   61.5442   29.7229   50.9341 H   0  0  0  0  0  0  0  0  0  0  0  0
   61.6390   27.4087   51.8541 H   0  0  0  0  0  0  0  0  0  0  0  0
   60.8182   25.4854   50.4956 H   0  0  0  0  0  0  0  0  0  0  0  0
   59.8891   25.8722   48.2168 H   0  0  0  0  0  0  0  0  0  0  0  0
   57.6812   28.4074   47.7075 H   0  0  0  0  0  0  0  0  0  0  0  0
   58.2284   29.7287   46.5993 H   0  0  0  0  0  0  0  0  0  0  0  0
   57.0659   27.0343   45.9732 H   0  0  0  0  0  0  0  0  0  0  0  0
   56.9068   28.6500   45.1251 H   0  0  0  0  0  0  0  0  0  0  0  0
   58.6993   27.3766   42.4410 H   0  0  0  0  0  0  0  0  0  0  0  0
   57.2835   26.5185   43.1772 H   0  0  0  0  0  0  0  0  0  0  0  0
   56.8445   28.7245   41.8574 H   0  0  0  0  0  0  0  0  0  0  0  0
   56.0701   28.5017   43.4772 H   0  0  0  0  0  0  0  0  0  0  0  0
   58.5400   30.1740   42.9690 H   0  0  0  0  0  0  0  0  0  0  0  0
   57.8405   30.8461   46.8655 H   0  0  0  0  0  0  0  0  0  0  0  0
   59.1046   32.6726   47.9922 H   0  0  0  0  0  0  0  0  0  0  0  0
   60.6295   35.4851   46.1833 H   0  0  0  0  0  0  0  0  0  0  0  0
   59.2602   35.7898   47.3131 H   0  0  0  0  0  0  0  0  0  0  0  0
   61.4520   34.2667   52.0120 H   0  0  0  0  0  0  0  0  0  0  0  0
   59.9951   33.2684   51.6842 H   0  0  0  0  0  0  0  0  0  0  0  0
   61.6228   32.5088   51.6842 H   0  0  0  0  0  0  0  0  0  0  0  0
   63.2293   32.9288   49.4964 H   0  0  0  0  0  0  0  0  0  0  0  0
   63.8499   33.6534   46.9958 H   0  0  0  0  0  0  0  0  0  0  0  0
   62.4521   32.9436   46.1188 H   0  0  0  0  0  0  0  0  0  0  0  0
   62.7031   34.7223   46.1188 H   0  0  0  0  0  0  0  0  0  0  0  0
   59.0224   34.9897   44.3376 H   0  0  0  0  0  0  0  0  0  0  0  0
   57.7507   33.1703   43.2093 H   0  0  0  0  0  0  0  0  0  0  0  0
   60.3748   28.0776   43.6488 H   0  0  0  0  0  0  0  0  0  0  0  0
   59.4419   29.4102   44.4011 H   0  0  0  0  0  0  0  0  0  0  0  0
   61.0392   27.1971   45.7811 H   0  0  0  0  0  0  0  0  0  0  0  0
   61.2687   28.9855   45.8874 H   0  0  0  0  0  0  0  0  0  0  0  0
  1  2  1  0
  2  3  1  0
  3  4  2  0
  4  5  1  0
  5  6  2  0
  6  7  1  0
  7  8  2  0
  8  9  1  0
  9 10  1  0
 10 11  1  0
 11 12  1  0
 12 13  1  0
 13 14  1  0
 14 15  1  0
 15 16  1  0
 16 17  2  0
 16 18  1  0
 18 19  2  0
 19 20  1  0
 20 21  2  0
 21 22  1  0
 22 23  1  0
 23 24  1  0
 24 25  2  0
 25 26  1  0
 25 27  1  0
 27 28  2  0
 28 29  1  0
 21 30  1  0
 30 31  2  0
 12 32  1  0
 32 33  1  0
  8  3  1  0
 33  9  1  0
 31 18  1  0
 28 23  1  0
  1 34  1  0
  1 35  1  0
  1 36  1  0
  4 37  1  0
  5 38  1  0
  6 39  1  0
  7 40  1  0
 10 41  1  0
 10 42  1  0
 11 43  1  0
 11 44  1  0
 13 45  1  0
 13 46  1  0
 14 47  1  0
 14 48  1  0
 15 49  1  0
 19 50  1  0
 20 51  1  0
 22 52  1  0
 22 53  1  0
 26 54  1  0
 26 55  1  0
 26 56  1  0
 27 57  1  0
 29 58  1  0
 29 59  1  0
 29 60  1  0
 30 61  1  0
 31 62  1  0
 32 63  1  0
 32 64  1  0
 33 65  1  0
 33 66  1  0
M  END
>  <UniqueID>  (9) 
7

>  <SMILES>  (9) 
COc1ccccc1N1CCN(CCNC(=O)c2ccc(Cn3nc(C)cc3C)cc2)CC1

>  <Energy>  (9) 
104.59732644534913

>  <Genealogy>  (9) 
COc1ccccc1N1CCN(CCNC(=O)c2ccc(Cn3nc(C)cc3C)cc2)CC1 (3D coordinates assigned)
COc1ccccc1N1CCN(CCNC(=O)c2ccc(Cn3nc(C)cc3C)cc2)CC1 (nonaromatic ring conformer: 104.59732644534913 kcal/mol)

>  <smiles>  (9) 
COc1ccccc1N1CCN(CCNC(=O)c2ccc(Cn3nc(C)cc3C)cc2)CC1

>  <score_type>  (9) 
oracle

>  <origin>  (9) 
adg

>  <m_score__min__energy>  (9) 
-8.8200000000000003

>  <m_primary>  (9) 
energy

$$$$
9:0
     RDKit          3D

 52 55  0  0  0  0  0  0  0  0999 V2000
   57.0740   29.8450   52.3820 C   0  0  0  0  0  0  0  0  0  0  0  0
   57.4270   30.1010   51.0270 O   0  0  0  0  0  0  0  0  0  0  0  0
   58.4820   30.9370   50.6250 C   0  0  0  0  0  0  0  0  0  0  0  0
   58.2750   32.2890   50.2840 C   0  0  0  0  0  0  0  0  0  0  0  0
   59.3500   33.0940   49.9030 C   0  0  0  0  0  0  0  0  0  0  0  0
   60.6460   32.5630   49.8390 C   0  0  0  0  0  0  0  0  0  0  0  0
   61.8090   33.4300   49.4300 C   0  0  0  0  0  0  0  0  0  0  0  0
   62.1420   33.2140   48.0250 N   0  0  0  0  0  0  0  0  0  0  0  0
   61.9140   31.9780   47.3350 C   0  0  0  0  0  0  0  0  0  0  0  0
   62.8750   31.1890   47.1260 O   0  0  0  0  0  0  0  0  0  0  0  0
   60.5730   31.6560   46.7940 C   0  0  0  0  0  0  0  0  0  0  0  0
   60.1940   30.3470   46.7610 N   0  0  0  0  0  0  0  0  0  0  0  0
   59.0320   29.9480   46.2300 N   0  0  0  0  0  0  0  0  0  0  0  0
   58.7090   28.5440   46.2470 C   0  0  0  0  0  0  0  0  0  0  0  0
   58.5320   27.8670   47.4670 C   0  0  0  0  0  0  0  0  0  0  0  0
   58.2150   26.5040   47.4740 C   0  0  0  0  0  0  0  0  0  0  0  0
   58.0740   25.8110   46.2660 C   0  0  0  0  0  0  0  0  0  0  0  0
   57.6460   23.9500   46.2750 Br  0  0  0  0  0  0  0  0  0  0  0  0
   58.2460   26.4830   45.0500 C   0  0  0  0  0  0  0  0  0  0  0  0
   58.5570   27.8460   45.0400 C   0  0  0  0  0  0  0  0  0  0  0  0
   58.1530   30.8550   45.7050 C   0  0  0  0  0  0  0  0  0  0  0  0
   57.0520   30.4640   45.2210 O   0  0  0  0  0  0  0  0  0  0  0  0
   58.4640   32.2230   45.7280 C   0  0  0  0  0  0  0  0  0  0  0  0
   57.5650   33.1830   45.2160 C   0  0  0  0  0  0  0  0  0  0  0  0
   57.8700   34.5430   45.2880 C   0  0  0  0  0  0  0  0  0  0  0  0
   59.0560   34.9630   45.8790 C   0  0  0  0  0  0  0  0  0  0  0  0
   59.9580   34.0250   46.3910 C   0  0  0  0  0  0  0  0  0  0  0  0
   59.6880   32.6420   46.2980 C   0  0  0  0  0  0  0  0  0  0  0  0
   60.8520   31.2130   50.1550 C   0  0  0  0  0  0  0  0  0  0  0  0
   59.7780   30.3990   50.5670 C   0  0  0  0  0  0  0  0  0  0  0  0
   59.9610   29.0510   50.9300 O   0  0  0  0  0  0  0  0  0  0  0  0
   60.7610   28.1250   50.2000 C   0  0  0  0  0  0  0  0  0  0  0  0
   57.7823   30.3586   53.0487 H   0  0  0  0  0  0  0  0  0  0  0  0
   56.0562   30.2163   52.5722 H   0  0  0  0  0  0  0  0  0  0  0  0
   57.1108   28.7622   52.5722 H   0  0  0  0  0  0  0  0  0  0  0  0
   57.2603   32.7123   50.3183 H   0  0  0  0  0  0  0  0  0  0  0  0
   59.1792   34.1512   49.6515 H   0  0  0  0  0  0  0  0  0  0  0  0
   61.5425   34.4866   49.5800 H   0  0  0  0  0  0  0  0  0  0  0  0
   62.6815   33.1664   50.0458 H   0  0  0  0  0  0  0  0  0  0  0  0
   60.8540   29.6250   47.1300 H   0  0  0  0  0  0  0  0  0  0  0  0
   58.6429   28.4098   48.4173 H   0  0  0  0  0  0  0  0  0  0  0  0
   58.0765   25.9768   48.4295 H   0  0  0  0  0  0  0  0  0  0  0  0
   58.1363   25.9378   44.1009 H   0  0  0  0  0  0  0  0  0  0  0  0
   58.6829   28.3726   44.0825 H   0  0  0  0  0  0  0  0  0  0  0  0
   56.6193   32.8577   44.7580 H   0  0  0  0  0  0  0  0  0  0  0  0
   57.1699   35.2846   44.8759 H   0  0  0  0  0  0  0  0  0  0  0  0
   59.2858   36.0368   45.9442 H   0  0  0  0  0  0  0  0  0  0  0  0
   60.8867   34.3677   46.8707 H   0  0  0  0  0  0  0  0  0  0  0  0
   61.8624   30.7846   50.0806 H   0  0  0  0  0  0  0  0  0  0  0  0
   61.3142   27.4847   50.9028 H   0  0  0  0  0  0  0  0  0  0  0  0
   60.1136   27.5006   49.5668 H   0  0  0  0  0  0  0  0  0  0  0  0
   61.4728   28.6749   49.5668 H   0  0  0  0  0  0  0  0  0  0  0  0
  1  2  1  0
  2  3  1  0
  3  4  2  0
  4  5  1  0
  5  6  2  0
  6  7  1  0
  7  8  1  0
  8  9  1  0
  9 10  2  0
  9 11  1  0
 11 12  2  0
 12 13  1  0
 13 14  1  0
 14 15  2  0
 15 16  1  0
 16 17  2  0
 17 18  1  0
 17 19  1  0
 19 20  2  0
 13 21  1  0
 21 22  2  0
 21 23  1  0
 23 24  2  0
 24 25  1  0
 25 26  2  0
 26 27  1  0
 27 28  2  0
  6 29  1  0
 29 30  2  0
 30 31  1  0
 31 32  1  0
 30  3  1  0
 28 11  1  0
 20 14  1  0
 28 23  1  0
  1 33  1  0
  1 34  1  0
  1 35  1  0
  4 36  1  0
  5 37  1  0
  7 38  1  0
  7 39  1  0
 12 40  1  0
 15 41  1  0
 16 42  1  0
 19 43  1  0
 20 44  1  0
 24 45  1  0
 25 46  1  0
 26 47  1  0
 27 48  1  0
 29 49  1  0
 32 50  1  0
 32 51  1  0
 32 52  1  0
M  CHG  2   8  -1  12   1
M  END
>  <UniqueID>  (10) 
8

>  <SMILES>  (10) 
COc1ccc(C[N-]C(=O)c2[nH+]n(-c3ccc(Br)cc3)c(=O)c3ccccc23)cc1OC

>  <Energy>  (10) 
72.38093561274783

>  <Genealogy>  (10) 
COc1ccc(C[N-]C(=O)c2[nH+]n(-c3ccc(Br)cc3)c(=O)c3ccccc23)cc1OC (protonated)
COc1ccc(C[N-]C(=O)c2[nH+]n(-c3ccc(Br)cc3)c(=O)c3ccccc23)cc1OC (3D coordinates assigned)
COc1ccc(C[N-]C(=O)c2[nH+]n(-c3ccc(Br)cc3)c(=O)c3ccccc23)cc1OC (optimized conformer: 72.38093561274783 kcal/mol)

>  <smiles>  (10) 
COc1ccc(CNC(=O)c2nn(-c3ccc(Br)cc3)c(=O)c3ccccc23)cc1OC

>  <score_type>  (10) 
oracle

>  <origin>  (10) 
adg

>  <m_score__min__energy>  (10) 
-9.3900000000000006

>  <m_primary>  (10) 
energy

$$$$
10:0
     RDKit          3D

 35 38  0  0  0  0  0  0  0  0999 V2000
   63.7430   33.4960   46.7570 C   0  0  0  0  0  0  0  0  0  0  0  0
   63.1330   32.7250   48.2880 S   0  0  0  0  0  0  0  0  0  0  0  0
   61.6290   32.1250   47.5210 C   0  0  0  0  0  0  0  0  0  0  0  0
   61.2340   30.7950   47.6890 C   0  0  0  0  0  0  0  0  0  0  0  0
   60.0610   30.3420   47.0850 C   0  0  0  0  0  0  0  0  0  0  0  0
   59.2980   31.2160   46.2910 C   0  0  0  0  0  0  0  0  0  0  0  0
   59.7060   32.5700   46.1960 C   0  0  0  0  0  0  0  0  0  0  0  0
   60.8560   32.9790   46.8000 N   0  0  0  0  0  0  0  0  0  0  0  0
   58.8880   33.4870   45.4950 C   0  0  0  0  0  0  0  0  0  0  0  0
   59.2680   34.9330   45.3840 C   0  0  0  0  0  0  0  0  0  0  0  0
   57.7130   33.0640   44.9440 N   0  0  0  0  0  0  0  0  0  0  0  0
   57.3630   31.7600   45.0410 C   0  0  0  0  0  0  0  0  0  0  0  0
   56.2450   31.2240   44.5260 N   0  0  0  0  0  0  0  0  0  0  0  0
   56.3080   29.9260   44.7960 N   0  0  0  0  0  0  0  0  0  0  0  0
   57.4590   29.7010   45.4710 C   0  0  0  0  0  0  0  0  0  0  0  0
   57.9400   28.3400   45.7520 C   0  0  0  0  0  0  0  0  0  0  0  0
   58.0970   27.4120   44.7080 C   0  0  0  0  0  0  0  0  0  0  0  0
   58.5130   26.1070   44.9860 C   0  0  0  0  0  0  0  0  0  0  0  0
   58.7550   25.7150   46.3060 C   0  0  0  0  0  0  0  0  0  0  0  0
   58.5750   26.6260   47.3510 C   0  0  0  0  0  0  0  0  0  0  0  0
   58.1590   27.9330   47.0760 C   0  0  0  0  0  0  0  0  0  0  0  0
   58.1420   30.8560   45.6540 N   0  0  0  0  0  0  0  0  0  0  0  0
   64.4074   34.3357   47.0088 H   0  0  0  0  0  0  0  0  0  0  0  0
   64.2996   32.7519   46.1683 H   0  0  0  0  0  0  0  0  0  0  0  0
   62.8908   33.8665   46.1683 H   0  0  0  0  0  0  0  0  0  0  0  0
   61.8448   30.1090   48.2943 H   0  0  0  0  0  0  0  0  0  0  0  0
   59.7334   29.3020   47.2298 H   0  0  0  0  0  0  0  0  0  0  0  0
   59.3805   35.3609   46.3911 H   0  0  0  0  0  0  0  0  0  0  0  0
   60.2198   35.0212   44.8397 H   0  0  0  0  0  0  0  0  0  0  0  0
   58.4825   35.4778   44.8397 H   0  0  0  0  0  0  0  0  0  0  0  0
   57.8921   27.7135   43.6702 H   0  0  0  0  0  0  0  0  0  0  0  0
   58.6502   25.3875   44.1653 H   0  0  0  0  0  0  0  0  0  0  0  0
   59.0873   24.6890   46.5225 H   0  0  0  0  0  0  0  0  0  0  0  0
   58.7605   26.3150   48.3897 H   0  0  0  0  0  0  0  0  0  0  0  0
   58.0032   28.6438   47.9009 H   0  0  0  0  0  0  0  0  0  0  0  0
  1  2  1  0
  2  3  1  0
  3  4  2  0
  4  5  1  0
  5  6  2  0
  6  7  1  0
  7  8  2  0
  7  9  1  0
  9 10  1  0
  9 11  2  0
 11 12  1  0
 12 13  2  0
 13 14  1  0
 14 15  2  0
 15 16  1  0
 16 17  2  0
 17 18  1  0
 18 19  2  0
 19 20  1  0
 20 21  2  0
 15 22  1  0
  8  3  1  0
 22 12  1  0
 22  6  1  0
 21 16  1  0
  1 23  1  0
  1 24  1  0
  1 25  1  0
  4 26  1  0
  5 27  1  0
 10 28  1  0
 10 29  1  0
 10 30  1  0
 17 31  1  0
 18 32  1  0
 19 33  1  0
 20 34  1  0
 21 35  1  0
M  END
>  <UniqueID>  (11) 
9

>  <SMILES>  (11) 
CSc1ccc2c(n1)c(C)nc1nnc(-c3ccccc3)n12

>  <Energy>  (11) 
90.62081888077175

>  <Genealogy>  (11) 
CSc1ccc2c(n1)c(C)nc1nnc(-c3ccccc3)n12 (3D coordinates assigned)
CSc1ccc2c(n1)c(C)nc1nnc(-c3ccccc3)n12 (optimized conformer: 90.62081888077175 kcal/mol)

>  <smiles>  (11) 
CSc1ccc2c(n1)c(C)nc1nnc(-c3ccccc3)n12

>  <score_type>  (11) 
oracle

>  <origin>  (11) 
adg

>  <m_score__min__energy>  (11) 
-8.1400000000000006

>  <m_primary>  (11) 
energy

$$$$
11:0
     RDKit          3D

 51 52  0  0  0  0  0  0  0  0999 V2000
   57.3710   24.7690   44.7100 C   0  0  0  0  0  0  0  0  0  0  0  0
   57.7620   24.7840   46.4910 S   0  0  0  0  0  0  0  0  0  0  0  0
   57.4040   26.5570   46.7680 C   0  0  0  0  0  0  0  0  0  0  0  0
   58.6940   27.3820   46.8190 C   0  0  0  0  0  0  0  0  0  0  0  0
   58.5850   28.6940   46.0150 C   0  0  2  0  0  0  0  0  0  0  0  0
   58.1740   29.7830   46.8960 N   0  0  0  0  0  0  0  0  0  0  0  0
   58.9230   30.2190   48.0370 C   0  0  0  0  0  0  0  0  0  0  0  0
   58.9760   29.4910   49.0660 O   0  0  0  0  0  0  0  0  0  0  0  0
   59.6320   31.5190   48.0080 C   0  0  0  0  0  0  0  0  0  0  0  0
   58.9730   32.7010   48.3880 C   0  0  0  0  0  0  0  0  0  0  0  0
   59.6430   33.9260   48.3570 C   0  0  0  0  0  0  0  0  0  0  0  0
   60.9780   33.9870   47.9580 C   0  0  0  0  0  0  0  0  0  0  0  0
   61.6660   32.8180   47.5970 C   0  0  0  0  0  0  0  0  0  0  0  0
   63.0950   32.8980   47.1200 C   0  0  0  0  0  0  0  0  0  0  0  0
   63.1650   33.7480   46.0330 F   0  0  0  0  0  0  0  0  0  0  0  0
   63.5630   31.6490   46.7460 F   0  0  0  0  0  0  0  0  0  0  0  0
   63.9150   33.3830   48.1250 F   0  0  0  0  0  0  0  0  0  0  0  0
   60.9790   31.5900   47.6020 C   0  0  0  0  0  0  0  0  0  0  0  0
   57.5930   28.5940   44.8850 C   0  0  0  0  0  0  0  0  0  0  0  0
   57.7700   27.7250   43.9890 O   0  0  0  0  0  0  0  0  0  0  0  0
   56.4790   29.4960   44.8050 N   0  0  0  0  0  0  0  0  0  0  0  0
   55.8210   29.8170   43.5380 C   0  0  0  0  0  0  0  0  0  0  0  0
   56.6940   30.7550   42.6840 C   0  0  0  0  0  0  0  0  0  0  0  0
   57.9980   31.1580   43.3820 C   0  0  0  0  0  0  0  0  0  0  0  0
   57.7890   32.2640   44.3120 N   0  0  0  0  0  0  0  0  0  0  0  0
   58.4600   33.4300   44.3190 C   0  0  0  0  0  0  0  0  0  0  0  0
   57.9990   34.1870   45.3730 C   0  0  0  0  0  0  0  0  0  0  0  0
   57.0330   33.4030   45.9740 C   0  0  0  0  0  0  0  0  0  0  0  0
   56.9190   32.2360   45.3090 N   0  0  0  0  0  0  0  0  0  0  0  0
   56.2802   24.7271   44.5744 H   0  0  0  0  0  0  0  0  0  0  0  0
   57.7640   25.6829   44.2406 H   0  0  0  0  0  0  0  0  0  0  0  0
   57.8329   23.8879   44.2406 H   0  0  0  0  0  0  0  0  0  0  0  0
   56.7731   26.9281   45.9468 H   0  0  0  0  0  0  0  0  0  0  0  0
   56.8861   26.6609   47.7329 H   0  0  0  0  0  0  0  0  0  0  0  0
   58.9148   27.6279   47.8682 H   0  0  0  0  0  0  0  0  0  0  0  0
   59.4961   26.7785   46.3691 H   0  0  0  0  0  0  0  0  0  0  0  0
   59.5790   28.8894   45.5863 H   0  0  0  0  0  0  0  0  0  0  0  0
   57.9226   32.6609   48.7120 H   0  0  0  0  0  0  0  0  0  0  0  0
   59.1157   34.8463   48.6484 H   0  0  0  0  0  0  0  0  0  0  0  0
   61.4950   34.9574   47.9260 H   0  0  0  0  0  0  0  0  0  0  0  0
   61.5000   30.6745   47.2851 H   0  0  0  0  0  0  0  0  0  0  0  0
   56.3020   30.1380   45.6090 H   0  0  0  0  0  0  0  0  0  0  0  0
   55.6413   28.8861   42.9802 H   0  0  0  0  0  0  0  0  0  0  0  0
   54.8704   30.3256   43.7562 H   0  0  0  0  0  0  0  0  0  0  0  0
   56.9436   30.2422   41.7434 H   0  0  0  0  0  0  0  0  0  0  0  0
   56.1161   31.6744   42.5088 H   0  0  0  0  0  0  0  0  0  0  0  0
   58.3877   30.2926   43.9380 H   0  0  0  0  0  0  0  0  0  0  0  0
   58.7136   31.4849   42.6132 H   0  0  0  0  0  0  0  0  0  0  0  0
   59.2425   33.7276   43.6054 H   0  0  0  0  0  0  0  0  0  0  0  0
   58.3274   35.1937   45.6707 H   0  0  0  0  0  0  0  0  0  0  0  0
   56.4465   33.6877   46.8600 H   0  0  0  0  0  0  0  0  0  0  0  0
  1  2  1  0
  2  3  1  0
  3  4  1  0
  4  5  1  0
  5  6  1  0
  6  7  1  0
  7  8  2  0
  7  9  1  0
  9 10  2  0
 10 11  1  0
 11 12  2  0
 12 13  1  0
 13 14  1  0
 14 15  1  0
 14 16  1  0
 14 17  1  0
 13 18  2  0
  5 19  1  0
 19 20  2  0
 19 21  1  0
 21 22  1  0
 22 23  1  0
 23 24  1  0
 24 25  1  0
 25 26  1  0
 26 27  2  0
 27 28  1  0
 28 29  2  0
 18  9  1  0
 29 25  1  0
  1 30  1  0
  1 31  1  0
  1 32  1  0
  3 33  1  0
  3 34  1  0
  4 35  1  0
  4 36  1  0
  5 37  1  6
 10 38  1  0
 11 39  1  0
 12 40  1  0
 18 41  1  0
 21 42  1  0
 22 43  1  0
 22 44  1  0
 23 45  1  0
 23 46  1  0
 24 47  1  0
 24 48  1  0
 26 49  1  0
 27 50  1  0
 28 51  1  0
M  CHG  1   6  -1
M  END
>  <UniqueID>  (12) 
10

>  <SMILES>  (12) 
CSCC[C@H]([N-]C(=O)c1cccc(C(F)(F)F)c1)C(=O)NCCCn1cccn1

>  <Energy>  (12) 
66.78862632312475

>  <Genealogy>  (12) 
CSCCC([N-]C(=O)c1cccc(C(F)(F)F)c1)C(=O)NCCCn1cccn1 (protonated)
CSCC[C@H]([N-]C(=O)c1cccc(C(F)(F)F)c1)C(=O)NCCCn1cccn1 (chirality)
CSCC[C@H]([N-]C(=O)c1cccc(C(F)(F)F)c1)C(=O)NCCCn1cccn1 (3D coordinates assigned)
CSCC[C@H]([N-]C(=O)c1cccc(C(F)(F)F)c1)C(=O)NCCCn1cccn1 (optimized conformer: 66.78862632312475 kcal/mol)

>  <smiles>  (12) 
CSCCC(NC(=O)c1cccc(C(F)(F)F)c1)C(=O)NCCCn1cccn1

>  <score_type>  (12) 
oracle

>  <origin>  (12) 
adg

>  <m_score__min__energy>  (12) 
-8.3599999999999994

>  <m_primary>  (12) 
energy

$$$$
12:0
     RDKit          3D

 46 50  0  0  1  0  0  0  0  0999 V2000
   55.4110   28.8990   53.7670 C   0  0  0  0  0  0  0  0  0  0  0  0
   56.6520   29.5580   53.7790 O   0  0  0  0  0  0  0  0  0  0  0  0
   57.1620   30.2430   52.6810 C   0  0  0  0  0  0  0  0  0  0  0  0
   57.1540   31.6370   52.6970 C   0  0  0  0  0  0  0  0  0  0  0  0
   57.6630   32.3040   51.6030 C   0  0  0  0  0  0  0  0  0  0  0  0
   58.1700   31.6620   50.5140 C   0  0  0  0  0  0  0  0  0  0  0  0
   58.7160   32.2990   49.3390 C   0  0  0  0  0  0  0  0  0  0  0  0
   59.7910   33.1540   49.4110 C   0  0  0  0  0  0  0  0  0  0  0  0
   60.3300   33.7770   48.2840 C   0  0  0  0  0  0  0  0  0  0  0  0
   61.3520   34.5810   48.4100 N   0  0  0  0  0  0  0  0  0  0  0  0
   62.7070   34.1040   48.3780 C   0  0  0  0  0  0  0  0  0  0  0  0
   63.2250   33.8250   46.9470 C   0  0  0  0  0  0  0  0  0  0  0  0
   63.0770   32.7360   47.9930 C   0  0  0  0  0  0  0  0  0  0  0  0
   59.7690   33.5230   47.0890 N   0  0  0  0  0  0  0  0  0  0  0  0
   60.1000   33.9890   45.9020 N   0  0  0  0  0  0  0  0  0  0  0  0
   59.2620   33.4650   44.9880 C   0  0  0  0  0  0  0  0  0  0  0  0
   58.3890   32.6460   45.6710 C   0  0  0  0  0  0  0  0  0  0  0  0
   57.4060   31.9390   45.1540 C   0  0  0  0  0  0  0  0  0  0  0  0
   57.5290   30.5350   44.7800 C   0  0  0  0  0  0  0  0  0  0  0  0
   58.6940   29.9370   44.4250 N   0  0  0  0  0  0  0  0  0  0  0  0
   58.4620   28.6470   44.1420 C   0  0  0  0  0  0  0  0  0  0  0  0
   59.3670   27.8240   43.7750 O   0  0  0  0  0  0  0  0  0  0  0  0
   57.1420   28.3990   44.3140 N   0  0  0  0  0  0  0  0  0  0  0  0
   56.5730   29.5510   44.7020 C   0  0  0  0  0  0  0  0  0  0  0  0
   55.2210   29.7320   44.9880 O   0  0  0  0  0  0  0  0  0  0  0  0
   58.7200   32.6900   47.0150 C   0  0  0  0  0  0  0  0  0  0  0  0
   58.2000   32.0880   48.1020 N   0  0  0  0  0  0  0  0  0  0  0  0
   58.1530   30.2610   50.5520 C   0  0  0  0  0  0  0  0  0  0  0  0
   57.6600   29.6010   51.6130 N   0  0  0  0  0  0  0  0  0  0  0  0
   55.0794   28.7229   54.8009 H   0  0  0  0  0  0  0  0  0  0  0  0
   54.6699   29.5224   53.2453 H   0  0  0  0  0  0  0  0  0  0  0  0
   55.5123   27.9359   53.2453 H   0  0  0  0  0  0  0  0  0  0  0  0
   56.7525   32.1898   53.5591 H   0  0  0  0  0  0  0  0  0  0  0  0
   57.6595   33.4040   51.6100 H   0  0  0  0  0  0  0  0  0  0  0  0
   60.2430   33.3544   50.3936 H   0  0  0  0  0  0  0  0  0  0  0  0
   62.9780   34.6971   49.2639 H   0  0  0  0  0  0  0  0  0  0  0  0
   62.5398   33.8693   46.0876 H   0  0  0  0  0  0  0  0  0  0  0  0
   64.0348   34.2065   46.3077 H   0  0  0  0  0  0  0  0  0  0  0  0
   62.2927   31.9736   47.8762 H   0  0  0  0  0  0  0  0  0  0  0  0
   63.7601   31.9830   48.4130 H   0  0  0  0  0  0  0  0  0  0  0  0
   59.2721   33.6541   43.9044 H   0  0  0  0  0  0  0  0  0  0  0  0
   56.4373   32.4354   44.9952 H   0  0  0  0  0  0  0  0  0  0  0  0
   59.6500   30.4000   44.3710 H   0  0  0  0  0  0  0  0  0  0  0  0
   56.6550   27.4880   44.1710 H   0  0  0  0  0  0  0  0  0  0  0  0
   54.7350   28.9650   45.4750 H   0  0  0  0  0  0  0  0  0  0  0  0
   58.5502   29.6922   49.6983 H   0  0  0  0  0  0  0  0  0  0  0  0
  1  2  1  0
  2  3  1  0
  3  4  2  0
  4  5  1  0
  5  6  2  0
  6  7  1  0
  7  8  2  0
  8  9  1  0
  9 10  2  0
 10 11  1  0
 11 12  1  0
 12 13  1  0
  9 14  1  0
 14 15  1  0
 15 16  2  0
 16 17  1  0
 17 18  2  0
 18 19  1  0
 19 20  1  0
 20 21  1  0
 21 22  2  0
 21 23  1  0
 23 24  1  0
 24 25  1  0
 17 26  1  0
 26 27  2  0
  6 28  1  0
 28 29  2  0
 29  3  1  0
 27  7  1  0
 13 11  1  0
 26 14  1  0
 24 19  2  0
  1 30  1  0
  1 31  1  0
  1 32  1  0
  4 33  1  0
  5 34  1  0
  8 35  1  0
 11 36  1  0
 12 37  1  0
 12 38  1  0
 13 39  1  0
 13 40  1  0
 16 41  1  0
 18 42  1  0
 20 43  1  0
 23 44  1  0
 25 45  1  0
 28 46  1  0
M  END
>  <smiles>  (13) 
COc1ccc(-c2cc(=NC3CC3)n3ncc(=Cc4[nH]c(=O)[nH]c4O)c3n2)cn1

>  <score_type>  (13) 
oracle

>  <origin>  (13) 
adg

>  <m_score__min__energy>  (13) 
-8.8599999999999994

>  <m_primary>  (13) 
energy

$$$$
13:0
     RDKit          3D

 42 44  0  0  1  0  0  0  0  0999 V2000
   62.2850   32.5330   47.2270 C   0  0  0  0  0  0  0  0  0  0  0  0
   61.5290   31.4130   46.7480 O   0  0  0  0  0  0  0  0  0  0  0  0
   60.6280   30.7260   47.5280 C   0  0  0  0  0  0  0  0  0  0  0  0
   60.3610   31.2050   48.7930 C   0  0  0  0  0  0  0  0  0  0  0  0
   59.4670   30.5540   49.6180 C   0  0  0  0  0  0  0  0  0  0  0  0
   58.7950   29.4060   49.2360 C   0  0  0  0  0  0  0  0  0  0  0  0
   59.0660   28.9210   47.9570 C   0  0  0  0  0  0  0  0  0  0  0  0
   59.9720   29.5770   47.1180 C   0  0  0  0  0  0  0  0  0  0  0  0
   60.2740   29.0760   45.7500 C   0  0  0  0  0  0  0  0  0  0  0  0
   59.0550   28.4750   45.2360 N   0  0  0  0  0  0  0  0  0  0  0  0
   58.2420   29.2040   44.5270 C   0  0  0  0  0  0  0  0  0  0  0  0
   58.4980   30.5220   44.4760 N   0  0  0  0  0  0  0  0  0  0  0  0
   57.7290   31.3780   43.7760 C   0  0  0  0  0  0  0  0  0  0  0  0
   58.0070   32.8350   43.7150 C   0  0  0  0  0  0  0  0  0  0  0  0
   58.3510   33.3770   45.0590 C   0  0  0  0  0  0  0  0  0  0  0  0
   59.2800   34.4000   45.1120 C   0  0  0  0  0  0  0  0  0  0  0  0
   59.6430   34.9450   46.3250 C   0  0  0  0  0  0  0  0  0  0  0  0
   59.0660   34.4590   47.4960 C   0  0  0  0  0  0  0  0  0  0  0  0
   58.1300   33.4340   47.4770 C   0  0  0  0  0  0  0  0  0  0  0  0
   57.7900   32.9070   46.2260 C   0  0  0  0  0  0  0  0  0  0  0  0
   56.6420   30.8470   43.0920 C   0  0  0  0  0  0  0  0  0  0  0  0
   56.3700   29.4760   43.1410 C   0  0  0  0  0  0  0  0  0  0  0  0
   57.1920   28.6800   43.8690 N   0  0  0  0  0  0  0  0  0  0  0  0
   62.2845   32.5322   48.3270 H   0  0  0  0  0  0  0  0  0  0  0  0
   63.3197   32.4606   46.8608 H   0  0  0  0  0  0  0  0  0  0  0  0
   61.8309   33.4655   46.8608 H   0  0  0  0  0  0  0  0  0  0  0  0
   60.8659   32.1155   49.1481 H   0  0  0  0  0  0  0  0  0  0  0  0
   59.2806   30.9646   50.6213 H   0  0  0  0  0  0  0  0  0  0  0  0
   58.0837   28.9020   49.9068 H   0  0  0  0  0  0  0  0  0  0  0  0
   58.5604   28.0103   47.6035 H   0  0  0  0  0  0  0  0  0  0  0  0
   60.5855   29.9095   45.1032 H   0  0  0  0  0  0  0  0  0  0  0  0
   61.0925   28.3415   45.7740 H   0  0  0  0  0  0  0  0  0  0  0  0
   58.8506   33.0105   43.0312 H   0  0  0  0  0  0  0  0  0  0  0  0
   57.1018   33.3464   43.3556 H   0  0  0  0  0  0  0  0  0  0  0  0
   59.7307   34.7800   44.1833 H   0  0  0  0  0  0  0  0  0  0  0  0
   60.3830   35.7578   46.3679 H   0  0  0  0  0  0  0  0  0  0  0  0
   59.3596   34.8987   48.4606 H   0  0  0  0  0  0  0  0  0  0  0  0
   57.6760   33.0531   48.4037 H   0  0  0  0  0  0  0  0  0  0  0  0
   57.0524   32.0927   46.1729 H   0  0  0  0  0  0  0  0  0  0  0  0
   55.9894   31.5113   42.5065 H   0  0  0  0  0  0  0  0  0  0  0  0
   55.5095   29.0532   42.6017 H   0  0  0  0  0  0  0  0  0  0  0  0
   57.0190   27.6340   43.9310 H   0  0  0  0  0  0  0  0  0  0  0  0
  1  2  1  0
  2  3  1  0
  3  4  2  0
  4  5  1  0
  5  6  2  0
  6  7  1  0
  7  8  2  0
  8  9  1  0
  9 10  1  0
 10 11  2  0
 11 12  1  0
 12 13  2  0
 13 14  1  0
 14 15  1  0
 15 16  2  0
 16 17  1  0
 17 18  2  0
 18 19  1  0
 19 20  2  0
 13 21  1  0
 21 22  2  0
 22 23  1  0
  8  3  1  0
 23 11  1  0
 20 15  1  0
  1 24  1  0
  1 25  1  0
  1 26  1  0
  4 27  1  0
  5 28  1  0
  6 29  1  0
  7 30  1  0
  9 31  1  0
  9 32  1  0
 14 33  1  0
 14 34  1  0
 16 35  1  0
 17 36  1  0
 18 37  1  0
 19 38  1  0
 20 39  1  0
 21 40  1  0
 22 41  1  0
 23 42  1  0
M  END
>  <smiles>  (14) 
COc1ccccc1CN=c1nc(Cc2ccccc2)cc[nH]1

>  <score_type>  (14) 
oracle

>  <origin>  (14) 
adg

>  <m_score__min__energy>  (14) 
-8.5099999999999998

>  <m_primary>  (14) 
energy

$$$$
14:0
     RDKit          3D

 59 62  0  0  0  0  0  0  0  0999 V2000
   55.9150   20.9750   45.2980 C   0  0  0  0  0  0  0  0  0  0  0  0
   55.7050   22.3830   45.3200 O   0  0  0  0  0  0  0  0  0  0  0  0
   56.7090   23.3470   45.5190 C   0  0  0  0  0  0  0  0  0  0  0  0
   58.0710   22.9950   45.4290 C   0  0  0  0  0  0  0  0  0  0  0  0
   59.0660   23.9500   45.6200 C   0  0  0  0  0  0  0  0  0  0  0  0
   58.7240   25.2690   45.9000 C   0  0  0  0  0  0  0  0  0  0  0  0
   57.3770   25.6530   46.0000 C   0  0  0  0  0  0  0  0  0  0  0  0
   57.0540   27.0950   46.3250 C   0  0  0  0  0  0  0  0  0  0  0  0
   57.2880   27.9610   45.1600 N   0  0  0  0  0  0  0  0  0  0  0  0
   57.8150   27.3760   43.9220 C   0  0  0  0  0  0  0  0  0  0  0  0
   56.9060   29.3520   45.1980 C   0  0  0  0  0  0  0  0  0  0  0  0
   55.7440   29.6950   44.8480 O   0  0  0  0  0  0  0  0  0  0  0  0
   57.8470   30.4060   45.6340 C   0  0  0  0  0  0  0  0  0  0  0  0
   57.6350   31.7210   45.1980 C   0  0  0  0  0  0  0  0  0  0  0  0
   58.5370   32.7340   45.5430 C   0  0  0  0  0  0  0  0  0  0  0  0
   58.3460   34.0510   45.1060 C   0  0  0  0  0  0  0  0  0  0  0  0
   59.2600   35.0440   45.4600 C   0  0  0  0  0  0  0  0  0  0  0  0
   60.3720   34.7310   46.2470 C   0  0  0  0  0  0  0  0  0  0  0  0
   60.5810   33.4160   46.6950 C   0  0  0  0  0  0  0  0  0  0  0  0
   61.7770   33.0920   47.5480 C   0  0  0  0  0  0  0  0  0  0  0  0
   59.6560   32.4130   46.3430 C   0  0  0  0  0  0  0  0  0  0  0  0
   59.8240   31.1340   46.7800 N   0  0  0  0  0  0  0  0  0  0  0  0
   58.9520   30.1360   46.4760 C   0  0  0  0  0  0  0  0  0  0  0  0
   59.2040   28.8590   46.9990 O   0  0  0  0  0  0  0  0  0  0  0  0
   59.6730   28.5940   48.2930 C   0  0  0  0  0  0  0  0  0  0  0  0
   59.4360   29.5390   49.2960 C   0  0  0  0  0  0  0  0  0  0  0  0
   59.8960   29.3180   50.5980 C   0  0  0  0  0  0  0  0  0  0  0  0
   60.5850   28.1430   50.9060 C   0  0  0  0  0  0  0  0  0  0  0  0
   61.0310   27.9310   52.1690 F   0  0  0  0  0  0  0  0  0  0  0  0
   60.8090   27.1830   49.9150 C   0  0  0  0  0  0  0  0  0  0  0  0
   60.3500   27.4020   48.6120 C   0  0  0  0  0  0  0  0  0  0  0  0
   56.3550   24.6920   45.8130 C   0  0  0  0  0  0  0  0  0  0  0  0
   55.0190   25.1320   45.9310 O   0  0  0  0  0  0  0  0  0  0  0  0
   53.8530   24.4530   45.4760 C   0  0  0  0  0  0  0  0  0  0  0  0
   55.9714   20.5965   46.3293 H   0  0  0  0  0  0  0  0  0  0  0  0
   55.0796   20.4878   44.7739 H   0  0  0  0  0  0  0  0  0  0  0  0
   56.8562   20.7528   44.7739 H   0  0  0  0  0  0  0  0  0  0  0  0
   58.3507   21.9549   45.2055 H   0  0  0  0  0  0  0  0  0  0  0  0
   60.1250   23.6608   45.5493 H   0  0  0  0  0  0  0  0  0  0  0  0
   59.5163   26.0183   46.0445 H   0  0  0  0  0  0  0  0  0  0  0  0
   55.9976   27.1691   46.6224 H   0  0  0  0  0  0  0  0  0  0  0  0
   57.7083   27.4253   47.1452 H   0  0  0  0  0  0  0  0  0  0  0  0
   58.5324   26.5796   44.1692 H   0  0  0  0  0  0  0  0  0  0  0  0
   56.9865   26.9537   43.3343 H   0  0  0  0  0  0  0  0  0  0  0  0
   58.3211   28.1560   43.3343 H   0  0  0  0  0  0  0  0  0  0  0  0
   56.7553   31.9581   44.5816 H   0  0  0  0  0  0  0  0  0  0  0  0
   57.4748   34.3026   44.4833 H   0  0  0  0  0  0  0  0  0  0  0  0
   59.1048   36.0780   45.1182 H   0  0  0  0  0  0  0  0  0  0  0  0
   61.0888   35.5203   46.5176 H   0  0  0  0  0  0  0  0  0  0  0  0
   61.5009   33.1668   48.6102 H   0  0  0  0  0  0  0  0  0  0  0  0
   62.1175   32.0692   47.3288 H   0  0  0  0  0  0  0  0  0  0  0  0
   62.5872   33.8030   47.3288 H   0  0  0  0  0  0  0  0  0  0  0  0
   58.8848   30.4611   49.0596 H   0  0  0  0  0  0  0  0  0  0  0  0
   59.7150   30.0701   51.3800 H   0  0  0  0  0  0  0  0  0  0  0  0
   61.3464   26.2550   50.1599 H   0  0  0  0  0  0  0  0  0  0  0  0
   60.5184   26.6414   47.8354 H   0  0  0  0  0  0  0  0  0  0  0  0
   53.2664   24.1114   46.3416 H   0  0  0  0  0  0  0  0  0  0  0  0
   53.2440   25.1377   44.8675 H   0  0  0  0  0  0  0  0  0  0  0  0
   54.1479   23.5854   44.8675 H   0  0  0  0  0  0  0  0  0  0  0  0
  1  2  1  0
  2  3  1  0
  3  4  2  0
  4  5  1  0
  5  6  2  0
  6  7  1  0
  7  8  1  0
  8  9  1  0
  9 10  1  0
  9 11  1  0
 11 12  2  0
 11 13  1  0
 13 14  2  0
 14 15  1  0
 15 16  2  0
 16 17  1  0
 17 18  2  0
 18 19  1  0
 19 20  1  0
 19 21  2  0
 21 22  1  0
 22 23  2  0
 23 24  1  0
 24 25  1  0
 25 26  2  0
 26 27  1  0
 27 28  2  0
 28 29  1  0
 28 30  1  0
 30 31  2  0
  7 32  2  0
 32 33  1  0
 33 34  1  0
 32  3  1  0
 23 13  1  0
 31 25  1  0
 21 15  1  0
  1 35  1  0
  1 36  1  0
  1 37  1  0
  4 38  1  0
  5 39  1  0
  6 40  1  0
  8 41  1  0
  8 42  1  0
 10 43  1  0
 10 44  1  0
 10 45  1  0
 14 46  1  0
 16 47  1  0
 17 48  1  0
 18 49  1  0
 20 50  1  0
 20 51  1  0
 20 52  1  0
 26 53  1  0
 27 54  1  0
 30 55  1  0
 31 56  1  0
 34 57  1  0
 34 58  1  0
 34 59  1  0
M  END
>  <UniqueID>  (15) 
11

>  <SMILES>  (15) 
COc1cccc(CN(C)C(=O)c2cc3cccc(C)c3nc2Oc2ccc(F)cc2)c1OC

>  <Energy>  (15) 
79.71661829995956

>  <Genealogy>  (15) 
COc1cccc(CN(C)C(=O)c2cc3cccc(C)c3nc2Oc2ccc(F)cc2)c1OC (3D coordinates assigned)
COc1cccc(CN(C)C(=O)c2cc3cccc(C)c3nc2Oc2ccc(F)cc2)c1OC (optimized conformer: 79.71661829995956 kcal/mol)

>  <smiles>  (15) 
COc1cccc(CN(C)C(=O)c2cc3cccc(C)c3nc2Oc2ccc(F)cc2)c1OC

>  <score_type>  (15) 
oracle

>  <origin>  (15) 
adg

>  <m_score__min__energy>  (15) 
-8.5700000000000003

>  <m_primary>  (15) 
energy

$$$$
15:0
     RDKit          3D

 51 52  0  0  0  0  0  0  0  0999 V2000
   57.0280   26.6470   45.6850 C   0  0  0  0  0  0  0  0  0  0  0  0
   56.1790   27.7430   45.3630 O   0  0  0  0  0  0  0  0  0  0  0  0
   56.6330   29.0430   45.0940 C   0  0  0  0  0  0  0  0  0  0  0  0
   57.5330   29.6320   45.9900 C   0  0  0  0  0  0  0  0  0  0  0  0
   58.0150   30.9260   45.7670 C   0  0  0  0  0  0  0  0  0  0  0  0
   57.6070   31.6460   44.6340 C   0  0  0  0  0  0  0  0  0  0  0  0
   58.0920   33.0560   44.4140 C   0  0  0  0  0  0  0  0  0  0  0  0
   57.8880   33.9170   45.6660 C   0  0  0  0  0  0  0  0  0  0  0  0
   59.1500   34.5930   46.0480 N   0  0  0  0  0  0  0  0  0  0  0  0
   60.3540   33.8310   45.6610 C   0  0  0  0  0  0  0  0  0  0  0  0
   60.5890   32.6300   46.5900 C   0  0  0  0  0  0  0  0  0  0  0  0
   60.7060   33.0830   47.9910 N   0  0  0  0  0  0  0  0  0  0  0  0
   61.0970   32.0010   48.9360 C   0  0  0  0  0  0  0  0  0  0  0  0
   62.6170   31.7960   49.1600 C   0  0  0  0  0  0  0  0  0  0  0  0
   63.4230   32.9300   48.6620 N   0  0  0  0  0  0  0  0  0  0  0  0
   64.6550   33.0680   49.4540 C   0  0  0  0  0  0  0  0  0  0  0  0
   63.7680   32.7550   47.2400 C   0  0  0  0  0  0  0  0  0  0  0  0
   59.4870   33.8040   48.4140 C   0  0  0  0  0  0  0  0  0  0  0  0
   59.1930   34.9910   47.4730 C   0  0  0  0  0  0  0  0  0  0  0  0
   56.6970   31.0640   43.7390 C   0  0  0  0  0  0  0  0  0  0  0  0
   56.2150   29.7710   43.9630 C   0  0  0  0  0  0  0  0  0  0  0  0
   57.1030   26.5501   46.7782 H   0  0  0  0  0  0  0  0  0  0  0  0
   56.6085   25.7219   45.2629 H   0  0  0  0  0  0  0  0  0  0  0  0
   58.0286   26.8219   45.2629 H   0  0  0  0  0  0  0  0  0  0  0  0
   57.8640   29.0723   46.8772 H   0  0  0  0  0  0  0  0  0  0  0  0
   58.7162   31.3806   46.4822 H   0  0  0  0  0  0  0  0  0  0  0  0
   59.1635   33.0318   44.1664 H   0  0  0  0  0  0  0  0  0  0  0  0
   57.5121   33.4981   43.5904 H   0  0  0  0  0  0  0  0  0  0  0  0
   57.1193   34.6766   45.4606 H   0  0  0  0  0  0  0  0  0  0  0  0
   57.5702   33.2668   46.4944 H   0  0  0  0  0  0  0  0  0  0  0  0
   60.2291   33.4659   44.6309 H   0  0  0  0  0  0  0  0  0  0  0  0
   61.2234   34.5004   45.7391 H   0  0  0  0  0  0  0  0  0  0  0  0
   59.7427   31.9327   46.5032 H   0  0  0  0  0  0  0  0  0  0  0  0
   61.5222   32.1270   46.2967 H   0  0  0  0  0  0  0  0  0  0  0  0
   61.4910   33.7790   48.0270 H   0  0  0  0  0  0  0  0  0  0  0  0
   60.6429   32.2288   49.9116 H   0  0  0  0  0  0  0  0  0  0  0  0
   60.7418   31.0680   48.4742 H   0  0  0  0  0  0  0  0  0  0  0  0
   62.8016   31.6792   50.2381 H   0  0  0  0  0  0  0  0  0  0  0  0
   62.9188   30.9003   48.5972 H   0  0  0  0  0  0  0  0  0  0  0  0
   64.4072   33.0402   50.5254 H   0  0  0  0  0  0  0  0  0  0  0  0
   65.3395   32.2409   49.2144 H   0  0  0  0  0  0  0  0  0  0  0  0
   65.1395   34.0260   49.2144 H   0  0  0  0  0  0  0  0  0  0  0  0
   64.7463   32.2588   47.1584 H   0  0  0  0  0  0  0  0  0  0  0  0
   63.0013   32.1368   46.7501 H   0  0  0  0  0  0  0  0  0  0  0  0
   63.8139   33.7388   46.7501 H   0  0  0  0  0  0  0  0  0  0  0  0
   58.6337   33.1101   48.3953 H   0  0  0  0  0  0  0  0  0  0  0  0
   59.6446   34.1931   49.4308 H   0  0  0  0  0  0  0  0  0  0  0  0
   58.2198   35.4246   47.7468 H   0  0  0  0  0  0  0  0  0  0  0  0
   60.0098   35.7184   47.5904 H   0  0  0  0  0  0  0  0  0  0  0  0
   56.3609   31.6279   42.8564 H   0  0  0  0  0  0  0  0  0  0  0  0
   55.5062   29.3202   43.2529 H   0  0  0  0  0  0  0  0  0  0  0  0
  1  2  1  0
  2  3  1  0
  3  4  2  0
  4  5  1  0
  5  6  2  0
  6  7  1  0
  7  8  1  0
  8  9  1  0
  9 10  1  0
 10 11  1  0
 11 12  1  0
 12 13  1  0
 13 14  1  0
 14 15  1  0
 15 16  1  0
 15 17  1  0
 12 18  1  0
 18 19  1  0
  6 20  1  0
 20 21  2  0
 21  3  1  0
 19  9  1  0
  1 22  1  0
  1 23  1  0
  1 24  1  0
  4 25  1  0
  5 26  1  0
  7 27  1  0
  7 28  1  0
  8 29  1  0
  8 30  1  0
 10 31  1  0
 10 32  1  0
 11 33  1  0
 11 34  1  0
 12 35  1  0
 13 36  1  0
 13 37  1  0
 14 38  1  0
 14 39  1  0
 16 40  1  0
 16 41  1  0
 16 42  1  0
 17 43  1  0
 17 44  1  0
 17 45  1  0
 18 46  1  0
 18 47  1  0
 19 48  1  0
 19 49  1  0
 20 50  1  0
 21 51  1  0
M  CHG  1  12   1
M  END
>  <UniqueID>  (16) 
12

>  <SMILES>  (16) 
COc1ccc(CCN2CC[NH+](CCN(C)C)CC2)cc1

>  <Energy>  (16) 
55.712754215060336

>  <Genealogy>  (16) 
COc1ccc(CCN2CC[NH+](CCN(C)C)CC2)cc1 (protonated)
COc1ccc(CCN2CC[NH+](CCN(C)C)CC2)cc1 (3D coordinates assigned)
COc1ccc(CCN2CC[NH+](CCN(C)C)CC2)cc1 (nonaromatic ring conformer: 55.712754215060336 kcal/mol)

>  <smiles>  (16) 
COc1ccc(CCN2CCN(CCN(C)C)CC2)cc1

>  <score_type>  (16) 
oracle

>  <origin>  (16) 
adg

>  <m_score__min__energy>  (16) 
-5.5999999999999996

>  <m_primary>  (16) 
energy

$$$$
16:0
     RDKit          3D

 57 59  0  0  0  0  0  0  0  0999 V2000
   57.1850   30.5300   43.9150 C   0  0  0  0  0  0  0  0  0  0  0  0
   56.9920   31.4300   45.0030 O   0  0  0  0  0  0  0  0  0  0  0  0
   57.8270   32.5230   45.2950 C   0  0  0  0  0  0  0  0  0  0  0  0
   57.7530   33.7220   44.5550 C   0  0  0  0  0  0  0  0  0  0  0  0
   58.5840   34.8000   44.8650 C   0  0  0  0  0  0  0  0  0  0  0  0
   59.4970   34.7000   45.9130 C   0  0  0  0  0  0  0  0  0  0  0  0
   59.5840   33.5200   46.6560 C   0  0  0  0  0  0  0  0  0  0  0  0
   58.7570   32.4210   46.3580 C   0  0  0  0  0  0  0  0  0  0  0  0
   58.8700   31.1840   47.1690 C   0  0  0  0  0  0  0  0  0  0  0  0
   59.0650   31.1850   48.5080 N   0  0  0  0  0  0  0  0  0  0  0  0
   59.1020   29.8760   48.8250 C   0  0  0  0  0  0  0  0  0  0  0  0
   59.2620   29.3660   50.2240 C   0  0  0  0  0  0  0  0  0  0  0  0
   58.2340   30.2940   51.3550 S   0  0  0  0  0  0  0  0  0  0  0  0
   57.4790   31.3430   50.5860 O   0  0  0  0  0  0  0  0  0  0  0  0
   57.2480   29.3650   52.0070 O   0  0  0  0  0  0  0  0  0  0  0  0
   59.2220   31.0780   52.6240 C   0  0  0  0  0  0  0  0  0  0  0  0
   59.8660   32.3290   52.1050 C   0  0  0  0  0  0  0  0  0  0  0  0
   60.3620   33.1550   52.9190 O   0  0  0  0  0  0  0  0  0  0  0  0
   59.9080   32.5880   50.6940 N   0  0  0  0  0  0  0  0  0  0  0  0
   60.6200   33.7270   50.1120 C   0  0  0  0  0  0  0  0  0  0  0  0
   62.0730   33.3400   49.7630 C   0  0  0  0  0  0  0  0  0  0  0  0
   62.6090   34.1950   48.5810 C   0  0  0  0  0  0  0  0  0  0  0  0
   63.7610   33.4910   47.8530 C   0  0  0  0  0  0  0  0  0  0  0  0
   63.3120   32.1500   47.2380 C   0  0  0  0  0  0  0  0  0  0  0  0
   62.1420   31.4890   47.9980 C   0  0  0  0  0  0  0  0  0  0  0  0
   62.1910   31.8130   49.4960 C   0  0  0  0  0  0  0  0  0  0  0  0
   58.9290   29.1320   47.6740 C   0  0  0  0  0  0  0  0  0  0  0  0
   58.9150   27.6440   47.5370 C   0  0  0  0  0  0  0  0  0  0  0  0
   58.7890   29.9660   46.6750 O   0  0  0  0  0  0  0  0  0  0  0  0
   57.4007   29.5243   44.3049 H   0  0  0  0  0  0  0  0  0  0  0  0
   56.2735   30.4972   43.3002 H   0  0  0  0  0  0  0  0  0  0  0  0
   58.0298   30.8738   43.3002 H   0  0  0  0  0  0  0  0  0  0  0  0
   57.0343   33.8081   43.7267 H   0  0  0  0  0  0  0  0  0  0  0  0
   58.5180   35.7299   44.2811 H   0  0  0  0  0  0  0  0  0  0  0  0
   60.1501   35.5512   46.1556 H   0  0  0  0  0  0  0  0  0  0  0  0
   60.3064   33.4492   47.4825 H   0  0  0  0  0  0  0  0  0  0  0  0
   58.9704   28.3059   50.2576 H   0  0  0  0  0  0  0  0  0  0  0  0
   60.3137   29.4817   50.5250 H   0  0  0  0  0  0  0  0  0  0  0  0
   58.5760   31.3328   53.4771 H   0  0  0  0  0  0  0  0  0  0  0  0
   60.0124   30.3793   52.9355 H   0  0  0  0  0  0  0  0  0  0  0  0
   59.4610   31.9080   50.0370 H   0  0  0  0  0  0  0  0  0  0  0  0
   60.1016   34.0476   49.1963 H   0  0  0  0  0  0  0  0  0  0  0  0
   60.6382   34.5460   50.8461 H   0  0  0  0  0  0  0  0  0  0  0  0
   62.7121   33.5627   50.6301 H   0  0  0  0  0  0  0  0  0  0  0  0
   61.7904   34.3713   47.8677 H   0  0  0  0  0  0  0  0  0  0  0  0
   62.9872   35.1449   48.9867 H   0  0  0  0  0  0  0  0  0  0  0  0
   64.1285   34.1464   47.0496 H   0  0  0  0  0  0  0  0  0  0  0  0
   64.5543   33.2835   48.5863 H   0  0  0  0  0  0  0  0  0  0  0  0
   62.9959   32.3307   46.2000 H   0  0  0  0  0  0  0  0  0  0  0  0
   64.1683   31.4621   47.2977 H   0  0  0  0  0  0  0  0  0  0  0  0
   61.1924   31.8581   47.5833 H   0  0  0  0  0  0  0  0  0  0  0  0
   62.2242   30.3987   47.8777 H   0  0  0  0  0  0  0  0  0  0  0  0
   61.3585   31.2987   49.9985 H   0  0  0  0  0  0  0  0  0  0  0  0
   63.1612   31.4725   49.8869 H   0  0  0  0  0  0  0  0  0  0  0  0
   58.9107   27.1838   48.5361 H   0  0  0  0  0  0  0  0  0  0  0  0
   58.0139   27.3349   46.9870 H   0  0  0  0  0  0  0  0  0  0  0  0
   59.8101   27.3180   46.9870 H   0  0  0  0  0  0  0  0  0  0  0  0
  1  2  1  0
  2  3  1  0
  3  4  2  0
  4  5  1  0
  5  6  2  0
  6  7  1  0
  7  8  2  0
  8  9  1  0
  9 10  2  0
 10 11  1  0
 11 12  1  0
 12 13  1  0
 13 14  2  0
 13 15  2  0
 13 16  1  0
 16 17  1  0
 17 18  2  0
 17 19  1  0
 19 20  1  0
 20 21  1  0
 21 22  1  0
 22 23  1  0
 23 24  1  0
 24 25  1  0
 25 26  1  0
 11 27  2  0
 27 28  1  0
 27 29  1  0
  8  3  1  0
 29  9  1  0
 26 21  1  0
  1 30  1  0
  1 31  1  0
  1 32  1  0
  4 33  1  0
  5 34  1  0
  6 35  1  0
  7 36  1  0
 12 37  1  0
 12 38  1  0
 16 39  1  0
 16 40  1  0
 19 41  1  0
 20 42  1  0
 20 43  1  0
 21 44  1  0
 22 45  1  0
 22 46  1  0
 23 47  1  0
 23 48  1  0
 24 49  1  0
 24 50  1  0
 25 51  1  0
 25 52  1  0
 26 53  1  0
 26 54  1  0
 28 55  1  0
 28 56  1  0
 28 57  1  0
M  END
>  <UniqueID>  (17) 
13

>  <SMILES>  (17) 
COc1ccccc1-c1nc(CS(=O)(=O)CC(=O)NCC2CCCCC2)c(C)o1

>  <Energy>  (17) 
76.14960883006526

>  <Genealogy>  (17) 
COc1ccccc1-c1nc(CS(=O)(=O)CC(=O)NCC2CCCCC2)c(C)o1 (3D coordinates assigned)
COc1ccccc1-c1nc(CS(=O)(=O)CC(=O)NCC2CCCCC2)c(C)o1 (nonaromatic ring conformer: 76.14960883006526 kcal/mol)

>  <smiles>  (17) 
COc1ccccc1-c1nc(CS(=O)(=O)CC(=O)NCC2CCCCC2)c(C)o1

>  <score_type>  (17) 
oracle

>  <origin>  (17) 
adg

>  <m_score__min__energy>  (17) 
-8.6500000000000004

>  <m_primary>  (17) 
energy

$$$$
17:0
     RDKit          3D

 37 39  0  0  0  0  0  0  0  0999 V2000
   59.0780   23.1090   45.2400 C   0  0  0  0  0  0  0  0  0  0  0  0
   59.3120   24.2620   46.0420 O   0  0  0  0  0  0  0  0  0  0  0  0
   58.8260   25.5450   45.7450 C   0  0  0  0  0  0  0  0  0  0  0  0
   57.4600   25.8030   45.5270 C   0  0  0  0  0  0  0  0  0  0  0  0
   57.0250   27.0990   45.2350 C   0  0  0  0  0  0  0  0  0  0  0  0
   57.9450   28.1580   45.1560 C   0  0  0  0  0  0  0  0  0  0  0  0
   57.4840   29.5280   44.8480 C   0  0  0  0  0  0  0  0  0  0  0  0
   56.2320   29.9820   45.0710 N   0  0  0  0  0  0  0  0  0  0  0  0
   56.2480   31.2430   44.6710 N   0  0  0  0  0  0  0  0  0  0  0  0
   57.4550   31.5310   44.2160 N   0  0  0  0  0  0  0  0  0  0  0  0
   57.8670   32.8500   43.7560 C   0  0  0  0  0  0  0  0  0  0  0  0
   58.8190   33.4540   44.7410 C   0  0  0  0  0  0  0  0  0  0  0  0
   59.2210   34.6370   44.5690 O   0  0  0  0  0  0  0  0  0  0  0  0
   59.2720   32.6810   45.8630 N   0  0  0  0  0  0  0  0  0  0  0  0
   59.9660   33.2310   46.9960 C   0  0  0  0  0  0  0  0  0  0  0  0
   61.3650   33.1790   47.0430 C   0  0  0  0  0  0  0  0  0  0  0  0
   62.0490   33.6870   48.1500 C   0  0  0  0  0  0  0  0  0  0  0  0
   61.3240   34.2290   49.2110 C   0  0  0  0  0  0  0  0  0  0  0  0
   59.9650   34.2490   49.1660 N   0  0  0  0  0  0  0  0  0  0  0  0
   59.2760   33.7650   48.0990 C   0  0  0  0  0  0  0  0  0  0  0  0
   58.2650   30.4920   44.3190 N   0  0  0  0  0  0  0  0  0  0  0  0
   59.3080   27.8970   45.3740 C   0  0  0  0  0  0  0  0  0  0  0  0
   59.7410   26.6000   45.6660 C   0  0  0  0  0  0  0  0  0  0  0  0
   58.9016   22.2396   45.8904 H   0  0  0  0  0  0  0  0  0  0  0  0
   58.1956   23.2770   44.6050 H   0  0  0  0  0  0  0  0  0  0  0  0
   59.9560   22.9197   44.6050 H   0  0  0  0  0  0  0  0  0  0  0  0
   56.7312   24.9812   45.5866 H   0  0  0  0  0  0  0  0  0  0  0  0
   55.9552   27.2910   45.0659 H   0  0  0  0  0  0  0  0  0  0  0  0
   58.3623   32.7579   42.7782 H   0  0  0  0  0  0  0  0  0  0  0  0
   56.9815   33.4959   43.6625 H   0  0  0  0  0  0  0  0  0  0  0  0
   59.1490   31.6430   45.8190 H   0  0  0  0  0  0  0  0  0  0  0  0
   61.9262   32.7372   46.2064 H   0  0  0  0  0  0  0  0  0  0  0  0
   63.1481   33.6598   48.1845 H   0  0  0  0  0  0  0  0  0  0  0  0
   61.8515   34.6403   50.0843 H   0  0  0  0  0  0  0  0  0  0  0  0
   58.1763   33.7910   48.0982 H   0  0  0  0  0  0  0  0  0  0  0  0
   60.0385   28.7173   45.3147 H   0  0  0  0  0  0  0  0  0  0  0  0
   60.8108   26.4076   45.8351 H   0  0  0  0  0  0  0  0  0  0  0  0
  1  2  1  0
  2  3  1  0
  3  4  2  0
  4  5  1  0
  5  6  2  0
  6  7  1  0
  7  8  1  0
  8  9  2  0
  9 10  1  0
 10 11  1  0
 11 12  1  0
 12 13  2  0
 12 14  1  0
 14 15  1  0
 15 16  2  0
 16 17  1  0
 17 18  2  0
 18 19  1  0
 19 20  2  0
 10 21  1  0
  6 22  1  0
 22 23  2  0
 23  3  1  0
 21  7  2  0
 20 15  1  0
  1 24  1  0
  1 25  1  0
  1 26  1  0
  4 27  1  0
  5 28  1  0
 11 29  1  0
 11 30  1  0
 14 31  1  0
 16 32  1  0
 17 33  1  0
 18 34  1  0
 20 35  1  0
 22 36  1  0
 23 37  1  0
M  END
>  <UniqueID>  (18) 
14

>  <SMILES>  (18) 
COc1ccc(-c2nnn(CC(=O)Nc3cccnc3)n2)cc1

>  <Energy>  (18) 
79.35190976487617

>  <Genealogy>  (18) 
COc1ccc(-c2nnn(CC(=O)Nc3cccnc3)n2)cc1 (3D coordinates assigned)
COc1ccc(-c2nnn(CC(=O)Nc3cccnc3)n2)cc1 (optimized conformer: 79.35190976487617 kcal/mol)

>  <smiles>  (18) 
COc1ccc(-c2nnn(CC(=O)Nc3cccnc3)n2)cc1

>  <score_type>  (18) 
oracle

>  <origin>  (18) 
adg

>  <m_score__min__energy>  (18) 
-7.2699999999999996

>  <m_primary>  (18) 
energy

$$$$
18:0
     RDKit          3D

 21 22  0  0  0  0  0  0  0  0999 V2000
   61.2500   34.1930   49.0120 C   0  0  0  0  0  0  0  0  0  0  0  0
   60.0360   34.6480   48.4230 O   0  0  0  0  0  0  0  0  0  0  0  0
   59.5270   34.1930   47.1950 C   0  0  0  0  0  0  0  0  0  0  0  0
   59.7380   34.9000   45.9940 C   0  0  0  0  0  0  0  0  0  0  0  0
   59.2180   34.4210   44.7880 C   0  0  0  0  0  0  0  0  0  0  0  0
   58.4830   33.2310   44.7670 C   0  0  0  0  0  0  0  0  0  0  0  0
   57.9500   32.7240   43.5770 C   0  0  0  0  0  0  0  0  0  0  0  0
   57.2250   31.5340   43.6030 C   0  0  0  0  0  0  0  0  0  0  0  0
   57.0470   30.8760   44.8250 C   0  0  0  0  0  0  0  0  0  0  0  0
   56.3960   29.8010   44.8710 O   0  0  0  0  0  0  0  0  0  0  0  0
   57.5650   31.3810   45.9420 O   0  0  0  0  0  0  0  0  0  0  0  0
   58.2660   32.5130   45.9640 C   0  0  0  0  0  0  0  0  0  0  0  0
   58.7880   32.9980   47.1710 C   0  0  0  0  0  0  0  0  0  0  0  0
   58.5180   32.1040   48.6640 Cl  0  0  0  0  0  0  0  0  0  0  0  0
   61.1609   34.2264   50.1079 H   0  0  0  0  0  0  0  0  0  0  0  0
   61.4482   33.1596   48.6916 H   0  0  0  0  0  0  0  0  0  0  0  0
   62.0786   34.8416   48.6916 H   0  0  0  0  0  0  0  0  0  0  0  0
   60.3162   35.8357   46.0058 H   0  0  0  0  0  0  0  0  0  0  0  0
   59.3868   34.9798   43.8557 H   0  0  0  0  0  0  0  0  0  0  0  0
   58.1019   33.2602   42.6286 H   0  0  0  0  0  0  0  0  0  0  0  0
   56.7995   31.1186   42.6776 H   0  0  0  0  0  0  0  0  0  0  0  0
  1  2  1  0
  2  3  1  0
  3  4  2  0
  4  5  1  0
  5  6  2  0
  6  7  1  0
  7  8  2  0
  8  9  1  0
  9 10  2  0
  9 11  1  0
 11 12  1  0
 12 13  2  0
 13 14  1  0
 13  3  1  0
 12  6  1  0
  1 15  1  0
  1 16  1  0
  1 17  1  0
  4 18  1  0
  5 19  1  0
  7 20  1  0
  8 21  1  0
M  END
>  <UniqueID>  (19) 
15

>  <SMILES>  (19) 
COc1ccc2ccc(=O)oc2c1Cl

>  <Energy>  (19) 
25.832850464839257

>  <Genealogy>  (19) 
COc1ccc2ccc(=O)oc2c1Cl (3D coordinates assigned)
COc1ccc2ccc(=O)oc2c1Cl (optimized conformer: 25.832850464839257 kcal/mol)

>  <smiles>  (19) 
COc1ccc2ccc(=O)oc2c1Cl

>  <score_type>  (19) 
oracle

>  <origin>  (19) 
adg

>  <m_score__min__energy>  (19) 
-5.6799999999999997

>  <m_primary>  (19) 
energy

$$$$
19:0
     RDKit          3D

 50 53  0  0  0  0  0  0  0  0999 V2000
   55.5160   29.7100   43.4700 C   0  0  0  0  0  0  0  0  0  0  0  0
   56.6670   30.3100   44.2130 C   0  0  0  0  0  0  0  0  0  0  0  0
   57.8620   29.6070   44.3490 C   0  0  0  0  0  0  0  0  0  0  0  0
   58.9410   30.1660   45.0540 C   0  0  0  0  0  0  0  0  0  0  0  0
   60.1970   29.3360   45.1660 C   0  0  0  0  0  0  0  0  0  0  0  0
   58.7980   31.4720   45.6260 C   0  0  0  0  0  0  0  0  0  0  0  0
   57.5550   32.1270   45.4600 C   0  0  0  0  0  0  0  0  0  0  0  0
   57.3470   33.3900   46.0010 C   0  0  0  0  0  0  0  0  0  0  0  0
   58.3620   34.0150   46.7110 C   0  0  0  0  0  0  0  0  0  0  0  0
   59.5800   33.4100   46.8870 N   0  0  0  0  0  0  0  0  0  0  0  0
   60.5680   34.0540   47.5950 C   0  0  0  0  0  0  0  0  0  0  0  0
   60.3580   35.2000   48.0870 O   0  0  0  0  0  0  0  0  0  0  0  0
   61.8280   33.4520   47.7840 C   0  0  0  0  0  0  0  0  0  0  0  0
   62.9200   34.1840   48.5400 C   0  0  0  0  0  0  0  0  0  0  0  0
   62.9170   33.7730   49.9780 C   0  0  0  0  0  0  0  0  0  0  0  0
   62.7400   34.6350   50.8810 O   0  0  0  0  0  0  0  0  0  0  0  0
   63.0630   32.3910   50.3150 N   0  0  0  0  0  0  0  0  0  0  0  0
   62.1400   31.6910   51.1950 C   0  0  0  0  0  0  0  0  0  0  0  0
   60.9930   31.1480   50.3870 C   0  0  0  0  0  0  0  0  0  0  0  0
   61.1320   29.9130   49.7290 C   0  0  0  0  0  0  0  0  0  0  0  0
   60.0850   29.4010   48.9570 C   0  0  0  0  0  0  0  0  0  0  0  0
   58.8940   30.1210   48.8260 C   0  0  0  0  0  0  0  0  0  0  0  0
   58.7500   31.3580   49.4590 C   0  0  0  0  0  0  0  0  0  0  0  0
   59.7950   31.8810   50.2330 C   0  0  0  0  0  0  0  0  0  0  0  0
   59.5680   33.4600   50.9880 Cl  0  0  0  0  0  0  0  0  0  0  0  0
   62.0440   32.1900   47.2040 C   0  0  0  0  0  0  0  0  0  0  0  0
   63.3490   31.4570   47.3200 C   0  0  0  0  0  0  0  0  0  0  0  0
   61.0380   31.5910   46.5260 N   0  0  0  0  0  0  0  0  0  0  0  0
   59.8180   32.1580   46.3540 C   0  0  0  0  0  0  0  0  0  0  0  0
   56.5430   31.5380   44.7710 N   0  0  0  0  0  0  0  0  0  0  0  0
   54.7770   29.3247   44.1879 H   0  0  0  0  0  0  0  0  0  0  0  0
   55.0471   30.4784   42.8378 H   0  0  0  0  0  0  0  0  0  0  0  0
   55.8774   28.8856   42.8378 H   0  0  0  0  0  0  0  0  0  0  0  0
   57.9614   28.6072   43.9012 H   0  0  0  0  0  0  0  0  0  0  0  0
   60.4379   29.1768   46.2274 H   0  0  0  0  0  0  0  0  0  0  0  0
   60.0390   28.3639   44.6761 H   0  0  0  0  0  0  0  0  0  0  0  0
   61.0293   29.8625   44.6761 H   0  0  0  0  0  0  0  0  0  0  0  0
   56.3785   33.8938   45.8664 H   0  0  0  0  0  0  0  0  0  0  0  0
   58.1868   35.0126   47.1400 H   0  0  0  0  0  0  0  0  0  0  0  0
   63.8960   33.9409   48.0946 H   0  0  0  0  0  0  0  0  0  0  0  0
   62.7372   35.2668   48.4757 H   0  0  0  0  0  0  0  0  0  0  0  0
   62.6644   30.8612   51.6914 H   0  0  0  0  0  0  0  0  0  0  0  0
   61.7565   32.3883   51.9545 H   0  0  0  0  0  0  0  0  0  0  0  0
   62.0702   29.3464   49.8223 H   0  0  0  0  0  0  0  0  0  0  0  0
   60.1985   28.4304   48.4520 H   0  0  0  0  0  0  0  0  0  0  0  0
   58.0690   29.7130   48.2236 H   0  0  0  0  0  0  0  0  0  0  0  0
   57.8130   31.9237   49.3496 H   0  0  0  0  0  0  0  0  0  0  0  0
   63.5979   31.3172   48.3823 H   0  0  0  0  0  0  0  0  0  0  0  0
   63.2628   30.4753   46.8313 H   0  0  0  0  0  0  0  0  0  0  0  0
   64.1425   32.0414   46.8313 H   0  0  0  0  0  0  0  0  0  0  0  0
  1  2  1  0
  2  3  2  0
  3  4  1  0
  4  5  1  0
  4  6  2  0
  6  7  1  0
  7  8  1  0
  8  9  2  0
  9 10  1  0
 10 11  1  0
 11 12  2  0
 11 13  1  0
 13 14  1  0
 14 15  1  0
 15 16  2  0
 15 17  1  0
 17 18  1  0
 18 19  1  0
 19 20  2  0
 20 21  1  0
 21 22  2  0
 22 23  1  0
 23 24  2  0
 24 25  1  0
 13 26  2  0
 26 27  1  0
 26 28  1  0
 28 29  2  0
  7 30  2  0
 30  2  1  0
 29  6  1  0
 29 10  1  0
 24 19  1  0
  1 31  1  0
  1 32  1  0
  1 33  1  0
  3 34  1  0
  5 35  1  0
  5 36  1  0
  5 37  1  0
  8 38  1  0
  9 39  1  0
 14 40  1  0
 14 41  1  0
 18 42  1  0
 18 43  1  0
 20 44  1  0
 21 45  1  0
 22 46  1  0
 23 47  1  0
 27 48  1  0
 27 49  1  0
 27 50  1  0
M  CHG  1  17  -1
M  END
>  <UniqueID>  (20) 
16

>  <SMILES>  (20) 
Cc1cc(C)c2c(ccn3c(=O)c(CC(=O)[N-]Cc4ccccc4Cl)c(C)nc23)n1

>  <Energy>  (20) 
65.38259561132432

>  <Genealogy>  (20) 
Cc1cc(C)c2c(ccn3c(=O)c(CC(=O)[N-]Cc4ccccc4Cl)c(C)nc23)n1 (protonated)
Cc1cc(C)c2c(ccn3c(=O)c(CC(=O)[N-]Cc4ccccc4Cl)c(C)nc23)n1 (3D coordinates assigned)
Cc1cc(C)c2c(ccn3c(=O)c(CC(=O)[N-]Cc4ccccc4Cl)c(C)nc23)n1 (optimized conformer: 65.38259561132432 kcal/mol)

>  <smiles>  (20) 
Cc1cc(C)c2c(ccn3c(=O)c(CC(=O)NCc4ccccc4Cl)c(C)nc23)n1

>  <score_type>  (20) 
oracle

>  <origin>  (20) 
adg

>  <m_score__min__energy>  (20) 
-10.92

>  <m_primary>  (20) 
energy

$$$$
20:0
     RDKit          3D

 45 47  0  0  0  0  0  0  0  0999 V2000
   63.4080   33.6760   47.1380 C   0  0  0  0  0  0  0  0  0  0  0  0
   63.1120   32.9160   48.3060 O   0  0  0  0  0  0  0  0  0  0  0  0
   62.2870   31.7820   48.3230 C   0  0  0  0  0  0  0  0  0  0  0  0
   61.7420   31.3350   47.1130 C   0  0  0  0  0  0  0  0  0  0  0  0
   60.9110   30.2120   47.0800 C   0  0  0  0  0  0  0  0  0  0  0  0
   60.6110   29.5260   48.2620 C   0  0  0  0  0  0  0  0  0  0  0  0
   59.5420   28.0840   48.2160 S   0  0  0  0  0  0  0  0  0  0  0  0
   58.1730   28.9210   47.3410 C   0  0  0  0  0  0  0  0  0  0  0  0
   57.9980   28.3360   45.9780 C   0  0  0  0  0  0  0  0  0  0  0  0
   58.9370   27.6720   45.4600 O   0  0  0  0  0  0  0  0  0  0  0  0
   56.7630   28.5170   45.2780 N   0  0  0  0  0  0  0  0  0  0  0  0
   56.6650   29.0360   43.9160 C   0  0  0  0  0  0  0  0  0  0  0  0
   56.0730   30.4490   43.8990 C   0  0  0  0  0  0  0  0  0  0  0  0
   57.0670   31.4760   44.3420 C   0  0  0  0  0  0  0  0  0  0  0  0
   57.4170   31.6630   45.6320 N   0  0  0  0  0  0  0  0  0  0  0  0
   58.2730   32.7090   45.7950 C   0  0  0  0  0  0  0  0  0  0  0  0
   58.7710   33.0920   47.1410 C   0  0  0  0  0  0  0  0  0  0  0  0
   58.4500   32.3400   48.2890 C   0  0  0  0  0  0  0  0  0  0  0  0
   58.9470   32.7120   49.5420 C   0  0  0  0  0  0  0  0  0  0  0  0
   59.7700   33.8340   49.6670 C   0  0  0  0  0  0  0  0  0  0  0  0
   60.0980   34.5850   48.5380 C   0  0  0  0  0  0  0  0  0  0  0  0
   59.6040   34.2200   47.2830 C   0  0  0  0  0  0  0  0  0  0  0  0
   58.6090   33.3670   44.6070 C   0  0  0  0  0  0  0  0  0  0  0  0
   57.7970   32.6100   43.3430 S   0  0  0  0  0  0  0  0  0  0  0  0
   61.1610   29.9580   49.4740 C   0  0  0  0  0  0  0  0  0  0  0  0
   61.9920   31.0810   49.5090 C   0  0  0  0  0  0  0  0  0  0  0  0
   63.7928   34.6639   47.4311 H   0  0  0  0  0  0  0  0  0  0  0  0
   64.1668   33.1495   46.5405 H   0  0  0  0  0  0  0  0  0  0  0  0
   62.4930   33.8014   46.5405 H   0  0  0  0  0  0  0  0  0  0  0  0
   61.9699   31.8724   46.1806 H   0  0  0  0  0  0  0  0  0  0  0  0
   60.4921   29.8668   46.1233 H   0  0  0  0  0  0  0  0  0  0  0  0
   57.2429   28.7921   47.9139 H   0  0  0  0  0  0  0  0  0  0  0  0
   58.4095   29.9910   47.2447 H   0  0  0  0  0  0  0  0  0  0  0  0
   57.6701   29.0634   43.4700 H   0  0  0  0  0  0  0  0  0  0  0  0
   56.0010   28.3748   43.3399 H   0  0  0  0  0  0  0  0  0  0  0  0
   55.7488   30.6864   42.8750 H   0  0  0  0  0  0  0  0  0  0  0  0
   55.2247   30.4716   44.5989 H   0  0  0  0  0  0  0  0  0  0  0  0
   57.8040   31.4543   48.1987 H   0  0  0  0  0  0  0  0  0  0  0  0
   58.6891   32.1193   50.4321 H   0  0  0  0  0  0  0  0  0  0  0  0
   60.1588   34.1248   50.6541 H   0  0  0  0  0  0  0  0  0  0  0  0
   60.7476   35.4673   48.6361 H   0  0  0  0  0  0  0  0  0  0  0  0
   59.8675   34.8181   46.3982 H   0  0  0  0  0  0  0  0  0  0  0  0
   59.2861   34.2291   44.5154 H   0  0  0  0  0  0  0  0  0  0  0  0
   60.9385   29.4117   50.4025 H   0  0  0  0  0  0  0  0  0  0  0  0
   62.4172   31.4188   50.4656 H   0  0  0  0  0  0  0  0  0  0  0  0
  1  2  1  0
  2  3  1  0
  3  4  2  0
  4  5  1  0
  5  6  2  0
  6  7  1  0
  7  8  1  0
  8  9  1  0
  9 10  2  0
  9 11  1  0
 11 12  1  0
 12 13  1  0
 13 14  1  0
 14 15  2  0
 15 16  1  0
 16 17  1  0
 17 18  2  0
 18 19  1  0
 19 20  2  0
 20 21  1  0
 21 22  2  0
 16 23  2  0
 23 24  1  0
  6 25  1  0
 25 26  2  0
 26  3  1  0
 24 14  1  0
 22 17  1  0
  1 27  1  0
  1 28  1  0
  1 29  1  0
  4 30  1  0
  5 31  1  0
  8 32  1  0
  8 33  1  0
 12 34  1  0
 12 35  1  0
 13 36  1  0
 13 37  1  0
 18 38  1  0
 19 39  1  0
 20 40  1  0
 21 41  1  0
 22 42  1  0
 23 43  1  0
 25 44  1  0
 26 45  1  0
M  CHG  1  11  -1
M  END
>  <UniqueID>  (21) 
17

>  <SMILES>  (21) 
COc1ccc(SCC(=O)[N-]CCc2nc(-c3ccccc3)cs2)cc1

>  <Energy>  (21) 
65.21628070902335

>  <Genealogy>  (21) 
COc1ccc(SCC(=O)[N-]CCc2nc(-c3ccccc3)cs2)cc1 (protonated)
COc1ccc(SCC(=O)[N-]CCc2nc(-c3ccccc3)cs2)cc1 (3D coordinates assigned)
COc1ccc(SCC(=O)[N-]CCc2nc(-c3ccccc3)cs2)cc1 (optimized conformer: 65.21628070902335 kcal/mol)

>  <smiles>  (21) 
COc1ccc(SCC(=O)NCCc2nc(-c3ccccc3)cs2)cc1

>  <score_type>  (21) 
oracle

>  <origin>  (21) 
adg

>  <m_score__min__energy>  (21) 
-10.710000000000001

>  <m_primary>  (21) 
energy

$$$$
21:0
     RDKit          3D

 34 35  0  0  0  0  0  0  0  0999 V2000
   55.2260   29.5330   44.9070 N   0  0  0  0  0  0  0  0  0  0  0  0
   56.3280   29.3550   43.9680 C   0  0  0  0  0  0  0  0  0  0  0  0
   56.8160   30.7150   43.4700 C   0  0  0  0  0  0  0  0  0  0  0  0
   57.0420   31.9130   44.8430 S   0  0  0  0  0  0  0  0  0  0  0  0
   58.8050   31.6160   45.3300 C   0  0  0  0  0  0  0  0  0  0  0  0
   59.4110   32.6600   46.2670 C   0  0  0  0  0  0  0  0  0  0  0  0
   58.7690   33.9090   46.4030 C   0  0  0  0  0  0  0  0  0  0  0  0
   59.2610   34.8760   47.2830 C   0  0  0  0  0  0  0  0  0  0  0  0
   60.3820   34.6040   48.0660 C   0  0  0  0  0  0  0  0  0  0  0  0
   61.0040   33.3580   47.9810 C   0  0  0  0  0  0  0  0  0  0  0  0
   60.5170   32.3850   47.1030 C   0  0  0  0  0  0  0  0  0  0  0  0
   59.0410   30.1750   45.7590 C   0  0  0  0  0  0  0  0  0  0  0  0
   59.7330   29.3070   44.8930 C   0  0  0  0  0  0  0  0  0  0  0  0
   59.9330   27.9680   45.2390 C   0  0  0  0  0  0  0  0  0  0  0  0
   59.4380   27.4760   46.4470 C   0  0  0  0  0  0  0  0  0  0  0  0
   58.7370   28.3200   47.3120 C   0  0  0  0  0  0  0  0  0  0  0  0
   58.5340   29.6600   46.9700 C   0  0  0  0  0  0  0  0  0  0  0  0
   55.6310   29.7130   45.8550 H   0  0  0  0  0  0  0  0  0  0  0  0
   54.7140   30.4030   44.6350 H   0  0  0  0  0  0  0  0  0  0  0  0
   57.1551   28.8335   44.4718 H   0  0  0  0  0  0  0  0  0  0  0  0
   55.9791   28.7608   43.1106 H   0  0  0  0  0  0  0  0  0  0  0  0
   57.7787   30.5797   42.9553 H   0  0  0  0  0  0  0  0  0  0  0  0
   56.0529   31.1201   42.7892 H   0  0  0  0  0  0  0  0  0  0  0  0
   59.3874   31.7666   44.4090 H   0  0  0  0  0  0  0  0  0  0  0  0
   57.8691   34.1242   45.8082 H   0  0  0  0  0  0  0  0  0  0  0  0
   58.7630   35.8539   47.3583 H   0  0  0  0  0  0  0  0  0  0  0  0
   60.7755   35.3706   48.7498 H   0  0  0  0  0  0  0  0  0  0  0  0
   61.8815   33.1402   48.6076 H   0  0  0  0  0  0  0  0  0  0  0  0
   60.9987   31.3969   47.0625 H   0  0  0  0  0  0  0  0  0  0  0  0
   60.1196   29.6862   43.9356 H   0  0  0  0  0  0  0  0  0  0  0  0
   60.4816   27.3008   44.5578 H   0  0  0  0  0  0  0  0  0  0  0  0
   59.5998   26.4224   46.7187 H   0  0  0  0  0  0  0  0  0  0  0  0
   58.3446   27.9298   48.2627 H   0  0  0  0  0  0  0  0  0  0  0  0
   57.9743   30.3181   47.6509 H   0  0  0  0  0  0  0  0  0  0  0  0
  1  2  1  0
  2  3  1  0
  3  4  1  0
  4  5  1  0
  5  6  1  0
  6  7  2  0
  7  8  1  0
  8  9  2  0
  9 10  1  0
 10 11  2  0
  5 12  1  0
 12 13  2  0
 13 14  1  0
 14 15  2  0
 15 16  1  0
 16 17  2  0
 11  6  1  0
 17 12  1  0
  1 18  1  0
  1 19  1  0
  2 20  1  0
  2 21  1  0
  3 22  1  0
  3 23  1  0
  5 24  1  0
  7 25  1  0
  8 26  1  0
  9 27  1  0
 10 28  1  0
 11 29  1  0
 13 30  1  0
 14 31  1  0
 15 32  1  0
 16 33  1  0
 17 34  1  0
M  END
>  <UniqueID>  (22) 
18

>  <SMILES>  (22) 
NCCSC(c1ccccc1)c1ccccc1

>  <Energy>  (22) 
37.7834763664857

>  <Genealogy>  (22) 
NCCSC(c1ccccc1)c1ccccc1 (3D coordinates assigned)
NCCSC(c1ccccc1)c1ccccc1 (optimized conformer: 37.7834763664857 kcal/mol)

>  <smiles>  (22) 
NCCSC(c1ccccc1)c1ccccc1

>  <score_type>  (22) 
oracle

>  <origin>  (22) 
adg

>  <m_score__min__energy>  (22) 
-7.2300000000000004

>  <m_primary>  (22) 
energy

$$$$
22:0
     RDKit          3D

 36 36  0  0  0  0  0  0  0  0999 V2000
   54.6530   24.9680   45.5930 C   0  0  0  0  0  0  0  0  0  0  0  0
   55.2540   26.1810   45.9930 O   0  0  0  0  0  0  0  0  0  0  0  0
   56.4530   25.9280   46.7000 C   0  0  0  0  0  0  0  0  0  0  0  0
   57.6060   26.7270   46.0870 C   0  0  0  0  0  0  0  0  0  0  0  0
   57.0980   27.7190   45.1420 N   0  0  0  0  0  0  0  0  0  0  0  0
   57.7260   28.9950   44.9530 C   0  0  0  0  0  0  0  0  0  0  0  0
   58.6860   29.3430   45.6940 O   0  0  0  0  0  0  0  0  0  0  0  0
   57.1980   29.9500   43.9180 C   0  0  0  0  0  0  0  0  0  0  0  0
   56.7170   31.2810   44.5140 C   0  0  0  0  0  0  0  0  0  0  0  0
   57.7700   32.7060   44.0400 S   0  0  0  0  0  0  0  0  0  0  0  0
   58.3730   33.0780   45.6970 C   0  0  0  0  0  0  0  0  0  0  0  0
   58.1100   32.1670   46.7310 C   0  0  0  0  0  0  0  0  0  0  0  0
   58.5590   32.4210   48.0280 C   0  0  0  0  0  0  0  0  0  0  0  0
   59.2540   33.5990   48.3090 C   0  0  0  0  0  0  0  0  0  0  0  0
   59.4920   34.5300   47.2960 C   0  0  0  0  0  0  0  0  0  0  0  0
   59.0630   34.2790   45.9820 C   0  0  0  0  0  0  0  0  0  0  0  0
   59.2620   35.3390   44.9310 C   0  0  0  0  0  0  0  0  0  0  0  0
   54.3664   24.3896   46.4837 H   0  0  0  0  0  0  0  0  0  0  0  0
   53.7573   25.1833   44.9918 H   0  0  0  0  0  0  0  0  0  0  0  0
   55.3669   24.3858   44.9918 H   0  0  0  0  0  0  0  0  0  0  0  0
   56.3243   26.2241   47.7516 H   0  0  0  0  0  0  0  0  0  0  0  0
   56.6868   24.8549   46.6383 H   0  0  0  0  0  0  0  0  0  0  0  0
   58.1568   27.2403   46.8889 H   0  0  0  0  0  0  0  0  0  0  0  0
   58.2721   26.0348   45.5511 H   0  0  0  0  0  0  0  0  0  0  0  0
   56.2930   27.4510   44.5310 H   0  0  0  0  0  0  0  0  0  0  0  0
   57.9996   30.1600   43.1946 H   0  0  0  0  0  0  0  0  0  0  0  0
   56.3290   29.4708   43.4434 H   0  0  0  0  0  0  0  0  0  0  0  0
   55.6921   31.4714   44.1629 H   0  0  0  0  0  0  0  0  0  0  0  0
   56.7674   31.1866   45.6088 H   0  0  0  0  0  0  0  0  0  0  0  0
   57.5463   31.2467   46.5182 H   0  0  0  0  0  0  0  0  0  0  0  0
   58.3652   31.6927   48.8293 H   0  0  0  0  0  0  0  0  0  0  0  0
   59.6145   33.7938   49.3298 H   0  0  0  0  0  0  0  0  0  0  0  0
   60.0193   35.4669   47.5285 H   0  0  0  0  0  0  0  0  0  0  0  0
   59.4440   36.3085   45.4179 H   0  0  0  0  0  0  0  0  0  0  0  0
   60.1264   35.0757   44.3037 H   0  0  0  0  0  0  0  0  0  0  0  0
   58.3610   35.4071   44.3037 H   0  0  0  0  0  0  0  0  0  0  0  0
  1  2  1  0
  2  3  1  0
  3  4  1  0
  4  5  1  0
  5  6  1  0
  6  7  2  0
  6  8  1  0
  8  9  1  0
  9 10  1  0
 10 11  1  0
 11 12  2  0
 12 13  1  0
 13 14  2  0
 14 15  1  0
 15 16  2  0
 16 17  1  0
 16 11  1  0
  1 18  1  0
  1 19  1  0
  1 20  1  0
  3 21  1  0
  3 22  1  0
  4 23  1  0
  4 24  1  0
  5 25  1  0
  8 26  1  0
  8 27  1  0
  9 28  1  0
  9 29  1  0
 12 30  1  0
 13 31  1  0
 14 32  1  0
 15 33  1  0
 17 34  1  0
 17 35  1  0
 17 36  1  0
M  END
>  <UniqueID>  (23) 
19

>  <SMILES>  (23) 
COCCNC(=O)CCSc1ccccc1C

>  <Energy>  (23) 
25.449220718524742

>  <Genealogy>  (23) 
COCCNC(=O)CCSc1ccccc1C (3D coordinates assigned)
COCCNC(=O)CCSc1ccccc1C (optimized conformer: 25.449220718524742 kcal/mol)

>  <smiles>  (23) 
COCCNC(=O)CCSc1ccccc1C

>  <score_type>  (23) 
oracle

>  <origin>  (23) 
adg

>  <m_score__min__energy>  (23) 
-6.0899999999999999

>  <m_primary>  (23) 
energy

$$$$
23:0
     RDKit          3D

 47 49  0  0  0  0  0  0  0  0999 V2000
   58.8910   31.1560   48.9900 C   0  0  0  0  0  0  0  0  0  0  0  0
   59.3500   30.5100   47.7150 C   0  0  0  0  0  0  0  0  0  0  0  0
   60.7160   30.2820   47.4930 C   0  0  0  0  0  0  0  0  0  0  0  0
   61.1480   29.7260   46.2870 C   0  0  0  0  0  0  0  0  0  0  0  0
   60.2220   29.3990   45.2940 C   0  0  0  0  0  0  0  0  0  0  0  0
   58.8470   29.6130   45.5010 C   0  0  0  0  0  0  0  0  0  0  0  0
   57.8840   29.2700   44.4800 N   0  0  0  0  0  0  0  0  0  0  0  0
   57.7820   27.8840   44.0110 C   0  0  0  0  0  0  0  0  0  0  0  0
   56.9410   30.2430   43.9820 C   0  0  0  0  0  0  0  0  0  0  0  0
   55.9680   30.5960   44.7030 O   0  0  0  0  0  0  0  0  0  0  0  0
   57.1440   30.9370   42.6600 C   0  0  0  0  0  0  0  0  0  0  0  0
   57.7510   32.3300   42.8560 C   0  0  0  0  0  0  0  0  0  0  0  0
   58.5060   32.4010   44.1060 N   0  0  0  0  0  0  0  0  0  0  0  0
   58.3210   33.4630   45.0560 C   0  0  0  0  0  0  0  0  0  0  0  0
   57.3550   34.2640   44.9210 O   0  0  0  0  0  0  0  0  0  0  0  0
   59.2680   33.6350   46.1780 C   0  0  0  0  0  0  0  0  0  0  0  0
   58.8540   34.2080   47.3930 C   0  0  0  0  0  0  0  0  0  0  0  0
   59.7840   34.4060   48.4160 C   0  0  0  0  0  0  0  0  0  0  0  0
   61.1210   34.0380   48.2250 C   0  0  0  0  0  0  0  0  0  0  0  0
   62.0820   34.2340   49.2270 C   0  0  0  0  0  0  0  0  0  0  0  0
   63.4120   33.8630   49.0010 C   0  0  0  0  0  0  0  0  0  0  0  0
   63.7860   33.2930   47.7790 C   0  0  0  0  0  0  0  0  0  0  0  0
   62.8330   33.0910   46.7760 C   0  0  0  0  0  0  0  0  0  0  0  0
   61.5010   33.4610   46.9930 C   0  0  0  0  0  0  0  0  0  0  0  0
   60.5730   33.2790   46.0170 N   0  0  0  0  0  0  0  0  0  0  0  0
   58.4240   30.1950   46.7090 C   0  0  0  0  0  0  0  0  0  0  0  0
   59.2891   30.5958   49.8489 H   0  0  0  0  0  0  0  0  0  0  0  0
   59.2560   32.1930   49.0277 H   0  0  0  0  0  0  0  0  0  0  0  0
   57.7916   31.1526   49.0277 H   0  0  0  0  0  0  0  0  0  0  0  0
   61.4490   30.5418   48.2709 H   0  0  0  0  0  0  0  0  0  0  0  0
   62.2199   29.5452   46.1188 H   0  0  0  0  0  0  0  0  0  0  0  0
   60.5705   28.9708   44.3426 H   0  0  0  0  0  0  0  0  0  0  0  0
   57.7322   27.2068   44.8764 H   0  0  0  0  0  0  0  0  0  0  0  0
   56.8729   27.7688   43.4024 H   0  0  0  0  0  0  0  0  0  0  0  0
   58.6644   27.6370   43.4024 H   0  0  0  0  0  0  0  0  0  0  0  0
   57.8219   30.3340   42.0380 H   0  0  0  0  0  0  0  0  0  0  0  0
   56.1656   31.0480   42.1697 H   0  0  0  0  0  0  0  0  0  0  0  0
   58.4254   32.5501   42.0153 H   0  0  0  0  0  0  0  0  0  0  0  0
   56.9343   33.0657   42.8974 H   0  0  0  0  0  0  0  0  0  0  0  0
   59.2020   31.6480   44.3000 H   0  0  0  0  0  0  0  0  0  0  0  0
   57.8030   34.4989   47.5373 H   0  0  0  0  0  0  0  0  0  0  0  0
   59.4662   34.8506   49.3706 H   0  0  0  0  0  0  0  0  0  0  0  0
   61.7906   34.6790   50.1898 H   0  0  0  0  0  0  0  0  0  0  0  0
   64.1660   34.0199   49.7864 H   0  0  0  0  0  0  0  0  0  0  0  0
   64.8330   33.0029   47.6069 H   0  0  0  0  0  0  0  0  0  0  0  0
   63.1301   32.6415   45.8170 H   0  0  0  0  0  0  0  0  0  0  0  0
   57.3560   30.4056   46.8670 H   0  0  0  0  0  0  0  0  0  0  0  0
  1  2  1  0
  2  3  2  0
  3  4  1  0
  4  5  2  0
  5  6  1  0
  6  7  1  0
  7  8  1  0
  7  9  1  0
  9 10  2  0
  9 11  1  0
 11 12  1  0
 12 13  1  0
 13 14  1  0
 14 15  2  0
 14 16  1  0
 16 17  2  0
 17 18  1  0
 18 19  2  0
 19 20  1  0
 20 21  2  0
 21 22  1  0
 22 23  2  0
 23 24  1  0
 24 25  2  0
  6 26  2  0
 26  2  1  0
 25 16  1  0
 24 19  1  0
  1 27  1  0
  1 28  1  0
  1 29  1  0
  3 30  1  0
  4 31  1  0
  5 32  1  0
  8 33  1  0
  8 34  1  0
  8 35  1  0
 11 36  1  0
 11 37  1  0
 12 38  1  0
 12 39  1  0
 13 40  1  0
 17 41  1  0
 18 42  1  0
 20 43  1  0
 21 44  1  0
 22 45  1  0
 23 46  1  0
 26 47  1  0
M  END
>  <UniqueID>  (24) 
20

>  <SMILES>  (24) 
Cc1cccc(N(C)C(=O)CCNC(=O)c2ccc3ccccc3n2)c1

>  <Energy>  (24) 
48.97979441574579

>  <Genealogy>  (24) 
Cc1cccc(N(C)C(=O)CCNC(=O)c2ccc3ccccc3n2)c1 (3D coordinates assigned)
Cc1cccc(N(C)C(=O)CCNC(=O)c2ccc3ccccc3n2)c1 (optimized conformer: 48.97979441574579 kcal/mol)

>  <smiles>  (24) 
Cc1cccc(N(C)C(=O)CCNC(=O)c2ccc3ccccc3n2)c1

>  <score_type>  (24) 
oracle

>  <origin>  (24) 
adg

>  <m_score__min__energy>  (24) 
-8.2200000000000006

>  <m_primary>  (24) 
energy

$$$$
24:0
     RDKit          3D

 43 45  0  0  0  0  0  0  0  0999 V2000
   56.6630   26.5040   46.0030 C   0  0  0  0  0  0  0  0  0  0  0  0
   55.8800   27.6280   45.6170 O   0  0  0  0  0  0  0  0  0  0  0  0
   56.4110   28.8540   45.1880 C   0  0  0  0  0  0  0  0  0  0  0  0
   57.5480   29.3510   45.8370 C   0  0  0  0  0  0  0  0  0  0  0  0
   58.1150   30.5670   45.4460 C   0  0  0  0  0  0  0  0  0  0  0  0
   57.5500   31.3060   44.3930 C   0  0  0  0  0  0  0  0  0  0  0  0
   58.1390   32.6330   43.9890 C   0  0  0  0  0  0  0  0  0  0  0  0
   57.3890   33.8240   44.6170 C   0  0  0  0  0  0  0  0  0  0  0  0
   58.0580   34.3920   45.8000 N   0  0  0  0  0  0  0  0  0  0  0  0
   59.4790   34.6690   45.5640 C   0  0  0  0  0  0  0  0  0  0  0  0
   60.2620   34.3680   46.8120 C   0  0  0  0  0  0  0  0  0  0  0  0
   59.6720   34.5360   48.0770 C   0  0  0  0  0  0  0  0  0  0  0  0
   60.3840   34.2140   49.2380 C   0  0  0  0  0  0  0  0  0  0  0  0
   61.6830   33.7080   49.1390 C   0  0  0  0  0  0  0  0  0  0  0  0
   62.2820   33.5500   47.8820 C   0  0  0  0  0  0  0  0  0  0  0  0
   61.5690   33.8580   46.7210 C   0  0  0  0  0  0  0  0  0  0  0  0
   63.5970   33.0790   47.8110 O   0  0  0  0  0  0  0  0  0  0  0  0
   64.4250   33.0230   48.9750 C   0  0  0  0  0  0  0  0  0  0  0  0
   63.6020   32.5800   50.1920 C   0  0  0  0  0  0  0  0  0  0  0  0
   62.4010   33.3500   50.2850 O   0  0  0  0  0  0  0  0  0  0  0  0
   56.4090   30.8120   43.7430 C   0  0  0  0  0  0  0  0  0  0  0  0
   55.8440   29.5950   44.1340 C   0  0  0  0  0  0  0  0  0  0  0  0
   56.7039   26.4452   47.1007 H   0  0  0  0  0  0  0  0  0  0  0  0
   56.2082   25.5856   45.6033 H   0  0  0  0  0  0  0  0  0  0  0  0
   57.6821   26.6124   45.6033 H   0  0  0  0  0  0  0  0  0  0  0  0
   57.9987   28.7793   46.6617 H   0  0  0  0  0  0  0  0  0  0  0  0
   59.0074   30.9472   45.9648 H   0  0  0  0  0  0  0  0  0  0  0  0
   59.1897   32.6665   44.3130 H   0  0  0  0  0  0  0  0  0  0  0  0
   58.0515   32.7201   42.8959 H   0  0  0  0  0  0  0  0  0  0  0  0
   57.2968   34.6147   43.8579 H   0  0  0  0  0  0  0  0  0  0  0  0
   56.4121   33.4459   44.9526 H   0  0  0  0  0  0  0  0  0  0  0  0
   57.9580   33.7420   46.6150 H   0  0  0  0  0  0  0  0  0  0  0  0
   59.8440   34.0373   44.7408 H   0  0  0  0  0  0  0  0  0  0  0  0
   59.6068   35.7285   45.2974 H   0  0  0  0  0  0  0  0  0  0  0  0
   58.6451   34.9227   48.1546 H   0  0  0  0  0  0  0  0  0  0  0  0
   59.9224   34.3588   50.2259 H   0  0  0  0  0  0  0  0  0  0  0  0
   62.0304   33.7014   45.7348 H   0  0  0  0  0  0  0  0  0  0  0  0
   65.2400   32.3037   48.8065 H   0  0  0  0  0  0  0  0  0  0  0  0
   64.8398   34.0233   49.1680 H   0  0  0  0  0  0  0  0  0  0  0  0
   63.3438   31.5158   50.0877 H   0  0  0  0  0  0  0  0  0  0  0  0
   64.1983   32.7352   51.1032 H   0  0  0  0  0  0  0  0  0  0  0  0
   55.9565   31.3859   42.9209 H   0  0  0  0  0  0  0  0  0  0  0  0
   54.9517   29.2142   43.6155 H   0  0  0  0  0  0  0  0  0  0  0  0
  1  2  1  0
  2  3  1  0
  3  4  2  0
  4  5  1  0
  5  6  2  0
  6  7  1  0
  7  8  1  0
  8  9  1  0
  9 10  1  0
 10 11  1  0
 11 12  2  0
 12 13  1  0
 13 14  2  0
 14 15  1  0
 15 16  2  0
 15 17  1  0
 17 18  1  0
 18 19  1  0
 19 20  1  0
  6 21  1  0
 21 22  2  0
 22  3  1  0
 16 11  1  0
 20 14  1  0
  1 23  1  0
  1 24  1  0
  1 25  1  0
  4 26  1  0
  5 27  1  0
  7 28  1  0
  7 29  1  0
  8 30  1  0
  8 31  1  0
  9 32  1  0
 10 33  1  0
 10 34  1  0
 12 35  1  0
 13 36  1  0
 16 37  1  0
 18 38  1  0
 18 39  1  0
 19 40  1  0
 19 41  1  0
 21 42  1  0
 22 43  1  0
M  END
>  <UniqueID>  (25) 
21

>  <SMILES>  (25) 
COc1ccc(CCNCc2ccc3c(c2)OCCO3)cc1

>  <Energy>  (25) 
42.27879542151135

>  <Genealogy>  (25) 
COc1ccc(CCNCc2ccc3c(c2)OCCO3)cc1 (3D coordinates assigned)
COc1ccc(CCNCc2ccc3c(c2)OCCO3)cc1 (nonaromatic ring conformer: 42.27879542151135 kcal/mol)

>  <smiles>  (25) 
COc1ccc(CCNCc2ccc3c(c2)OCCO3)cc1

>  <score_type>  (25) 
oracle

>  <origin>  (25) 
adg

>  <m_score__min__energy>  (25) 
-7.0800000000000001

>  <m_primary>  (25) 
energy

$$$$
25:0
     RDKit          3D

 40 42  0  0  0  0  0  0  0  0999 V2000
   63.1410   33.7910   46.7230 C   0  0  0  0  0  0  0  0  0  0  0  0
   63.4960   32.4470   47.1600 N   0  0  0  0  0  0  0  0  0  0  0  0
   62.5350   31.5590   47.7430 C   0  0  0  0  0  0  0  0  0  0  0  0
   62.3240   31.3570   49.0890 C   0  0  0  0  0  0  0  0  0  0  0  0
   61.3420   30.4470   49.2380 N   0  0  0  0  0  0  0  0  0  0  0  0
   60.9370   30.0800   48.0280 N   0  0  0  0  0  0  0  0  0  0  0  0
   59.8850   29.0900   47.7740 C   0  0  2  0  0  0  0  0  0  0  0  0
   60.3890   28.0050   46.7820 C   0  0  0  0  0  0  0  0  0  0  0  0
   59.6110   27.9690   45.4590 C   0  0  0  0  0  0  0  0  0  0  0  0
   59.3960   29.3800   44.9050 C   0  0  0  0  0  0  0  0  0  0  0  0
   58.7640   30.2600   45.9020 N   0  0  0  0  0  0  0  0  0  0  0  0
   58.0800   31.4540   45.4780 C   0  0  0  0  0  0  0  0  0  0  0  0
   56.9700   31.3520   44.8860 O   0  0  0  0  0  0  0  0  0  0  0  0
   58.6380   32.8000   45.7410 C   0  0  0  0  0  0  0  0  0  0  0  0
   58.7600   33.7440   44.7080 C   0  0  0  0  0  0  0  0  0  0  0  0
   59.2680   35.0140   44.9930 C   0  0  0  0  0  0  0  0  0  0  0  0
   59.6430   35.3360   46.2970 C   0  0  0  0  0  0  0  0  0  0  0  0
   59.5010   34.3780   47.3030 C   0  0  0  0  0  0  0  0  0  0  0  0
   59.0060   33.1470   47.0060 N   0  0  0  0  0  0  0  0  0  0  0  0
   58.6070   29.7980   47.2890 C   0  0  0  0  0  0  0  0  0  0  0  0
   61.6440   30.7380   47.0880 C   0  0  0  0  0  0  0  0  0  0  0  0
   62.9722   34.4299   47.6024 H   0  0  0  0  0  0  0  0  0  0  0  0
   63.9597   34.2082   46.1184 H   0  0  0  0  0  0  0  0  0  0  0  0
   62.2230   33.7495   46.1184 H   0  0  0  0  0  0  0  0  0  0  0  0
   64.4820   32.1190   47.0430 H   0  0  0  0  0  0  0  0  0  0  0  0
   62.8667   31.8554   49.9058 H   0  0  0  0  0  0  0  0  0  0  0  0
   59.6320   28.5671   48.7081 H   0  0  0  0  0  0  0  0  0  0  0  0
   61.4471   28.2046   46.5573 H   0  0  0  0  0  0  0  0  0  0  0  0
   60.2400   27.0301   47.2691 H   0  0  0  0  0  0  0  0  0  0  0  0
   60.1783   27.3779   44.7250 H   0  0  0  0  0  0  0  0  0  0  0  0
   58.6270   27.5142   45.6457 H   0  0  0  0  0  0  0  0  0  0  0  0
   60.3699   29.8044   44.6198 H   0  0  0  0  0  0  0  0  0  0  0  0
   58.7289   29.3108   44.0331 H   0  0  0  0  0  0  0  0  0  0  0  0
   58.4579   33.4853   43.6824 H   0  0  0  0  0  0  0  0  0  0  0  0
   59.3720   35.7587   44.1901 H   0  0  0  0  0  0  0  0  0  0  0  0
   60.0458   36.3326   46.5303 H   0  0  0  0  0  0  0  0  0  0  0  0
   59.7898   34.6195   48.3366 H   0  0  0  0  0  0  0  0  0  0  0  0
   58.4053   30.6634   47.9373 H   0  0  0  0  0  0  0  0  0  0  0  0
   57.7698   29.0858   47.3322 H   0  0  0  0  0  0  0  0  0  0  0  0
   61.5304   30.6378   45.9985 H   0  0  0  0  0  0  0  0  0  0  0  0
  1  2  1  0
  2  3  1  0
  3  4  1  0
  4  5  2  0
  5  6  1  0
  6  7  1  0
  7  8  1  0
  8  9  1  0
  9 10  1  0
 10 11  1  0
 11 12  1  0
 12 13  2  0
 12 14  1  0
 14 15  2  0
 15 16  1  0
 16 17  2  0
 17 18  1  0
 18 19  2  0
 11 20  1  0
  6 21  1  0
 21  3  2  0
 20  7  1  0
 19 14  1  0
  1 22  1  0
  1 23  1  0
  1 24  1  0
  2 25  1  0
  4 26  1  0
  7 27  1  1
  8 28  1  0
  8 29  1  0
  9 30  1  0
  9 31  1  0
 10 32  1  0
 10 33  1  0
 15 34  1  0
 16 35  1  0
 17 36  1  0
 18 37  1  0
 20 38  1  0
 20 39  1  0
 21 40  1  0
M  END
>  <UniqueID>  (26) 
22

>  <SMILES>  (26) 
CNc1cnn([C@@H]2CCCN(C(=O)c3ccccn3)C2)c1

>  <Energy>  (26) 
74.33383237451405

>  <Genealogy>  (26) 
CNc1cnn([C@@H]2CCCN(C(=O)c3ccccn3)C2)c1 (chirality)
CNc1cnn([C@@H]2CCCN(C(=O)c3ccccn3)C2)c1 (3D coordinates assigned)
CNc1cnn([C@@H]2CCCN(C(=O)c3ccccn3)C2)c1 (nonaromatic ring conformer: 74.33383237451405 kcal/mol)

>  <smiles>  (26) 
CNc1cnn(C2CCCN(C(=O)c3ccccn3)C2)c1

>  <score_type>  (26) 
oracle

>  <origin>  (26) 
adg

>  <m_score__min__energy>  (26) 
-7.04

>  <m_primary>  (26) 
energy

$$$$
26:0
     RDKit          3D

 31 33  0  0  0  0  0  0  0  0999 V2000
   54.8210   29.3580   43.8440 O   0  0  0  0  0  0  0  0  0  0  0  0
   55.9040   29.6220   44.4280 C   0  0  0  0  0  0  0  0  0  0  0  0
   56.7330   28.5890   44.8710 C   0  0  0  0  0  0  0  0  0  0  0  0
   57.9270   28.9020   45.5210 C   0  0  0  0  0  0  0  0  0  0  0  0
   58.2810   30.2400   45.7340 C   0  0  0  0  0  0  0  0  0  0  0  0
   57.4290   31.2530   45.2500 C   0  0  0  0  0  0  0  0  0  0  0  0
   56.2640   30.9170   44.6300 N   0  0  0  0  0  0  0  0  0  0  0  0
   57.7340   32.7090   45.4980 C   0  0  0  0  0  0  0  0  0  0  0  0
   59.1640   32.9360   45.7660 N   0  0  0  0  0  0  0  0  0  0  0  0
   59.6490   32.0450   46.8390 C   0  0  2  0  0  0  0  0  0  0  0  0
   61.0510   32.4280   47.2800 C   0  0  0  0  0  0  0  0  0  0  0  0
   61.6970   31.6940   48.2910 C   0  0  0  0  0  0  0  0  0  0  0  0
   62.9900   32.0350   48.6990 C   0  0  0  0  0  0  0  0  0  0  0  0
   63.6540   33.1080   48.1010 C   0  0  0  0  0  0  0  0  0  0  0  0
   64.9080   33.4370   48.4980 F   0  0  0  0  0  0  0  0  0  0  0  0
   63.0260   33.8430   47.0920 C   0  0  0  0  0  0  0  0  0  0  0  0
   61.7330   33.5060   46.6810 C   0  0  0  0  0  0  0  0  0  0  0  0
   59.6020   30.5750   46.3790 C   0  0  0  0  0  0  0  0  0  0  0  0
   56.4473   27.5392   44.7090 H   0  0  0  0  0  0  0  0  0  0  0  0
   58.5915   28.0965   45.8668 H   0  0  0  0  0  0  0  0  0  0  0  0
   57.4429   33.2890   44.6098 H   0  0  0  0  0  0  0  0  0  0  0  0
   57.1676   33.0281   46.3853 H   0  0  0  0  0  0  0  0  0  0  0  0
   59.7030   32.7790   44.8820 H   0  0  0  0  0  0  0  0  0  0  0  0
   59.2870   33.9340   46.0580 H   0  0  0  0  0  0  0  0  0  0  0  0
   58.9829   32.1611   47.7066 H   0  0  0  0  0  0  0  0  0  0  0  0
   61.1811   30.8455   48.7641 H   0  0  0  0  0  0  0  0  0  0  0  0
   63.4854   31.4567   49.4929 H   0  0  0  0  0  0  0  0  0  0  0  0
   63.5497   34.6877   46.6206 H   0  0  0  0  0  0  0  0  0  0  0  0
   61.2445   34.0864   45.8844 H   0  0  0  0  0  0  0  0  0  0  0  0
   60.4090   30.4020   45.6517 H   0  0  0  0  0  0  0  0  0  0  0  0
   59.7273   29.9325   47.2630 H   0  0  0  0  0  0  0  0  0  0  0  0
  1  2  2  0
  2  3  1  0
  3  4  2  0
  4  5  1  0
  5  6  2  0
  6  7  1  0
  6  8  1  0
  8  9  1  0
  9 10  1  0
 10 11  1  0
 11 12  2  0
 12 13  1  0
 13 14  2  0
 14 15  1  0
 14 16  1  0
 16 17  2  0
 10 18  1  0
  7  2  1  0
 17 11  1  0
 18  5  1  0
  3 19  1  0
  4 20  1  0
  8 21  1  0
  8 22  1  0
  9 23  1  0
  9 24  1  0
 10 25  1  1
 12 26  1  0
 13 27  1  0
 16 28  1  0
 17 29  1  0
 18 30  1  0
 18 31  1  0
M  CHG  2   7  -1   9   1
M  END
>  <UniqueID>  (27) 
23

>  <SMILES>  (27) 
O=c1ccc2c([n-]1)C[NH2+][C@H](c1ccc(F)cc1)C2

>  <Energy>  (27) 
37.31170001192218

>  <Genealogy>  (27) 
O=c1ccc2c([n-]1)C[NH2+]C(c1ccc(F)cc1)C2 (protonated)
O=c1ccc2c([n-]1)C[NH2+][C@H](c1ccc(F)cc1)C2 (chirality)
O=c1ccc2c([n-]1)C[NH2+][C@H](c1ccc(F)cc1)C2 (3D coordinates assigned)
O=c1ccc2c([n-]1)C[NH2+][C@H](c1ccc(F)cc1)C2 (nonaromatic ring conformer: 37.31170001192218 kcal/mol)

>  <smiles>  (27) 
O=c1ccc2c([nH]1)CNC(c1ccc(F)cc1)C2

>  <score_type>  (27) 
oracle

>  <origin>  (27) 
adg

>  <m_score__min__energy>  (27) 
-6.4699999999999998

>  <m_primary>  (27) 
energy

$$$$
27:0
     RDKit          3D

 28 30  0  0  0  0  0  0  0  0999 V2000
   56.9410   27.1290   45.7230 C   0  0  0  0  0  0  0  0  0  0  0  0
   56.1080   28.1900   45.2680 O   0  0  0  0  0  0  0  0  0  0  0  0
   56.6220   29.4050   44.8050 C   0  0  0  0  0  0  0  0  0  0  0  0
   57.2310   30.2670   45.6530 N   0  0  0  0  0  0  0  0  0  0  0  0
   57.7260   31.4500   45.2090 C   0  0  0  0  0  0  0  0  0  0  0  0
   58.3470   32.3330   46.1160 C   0  0  0  0  0  0  0  0  0  0  0  0
   58.5130   31.9710   47.5720 C   0  0  0  0  0  0  0  0  0  0  0  0
   59.9500   31.7620   48.0360 C   0  0  0  0  0  0  0  0  0  0  0  0
   59.2080   33.0260   48.4230 C   0  0  0  0  0  0  0  0  0  0  0  0
   58.8980   33.5230   45.6280 C   0  0  0  0  0  0  0  0  0  0  0  0
   58.7820   33.8440   44.2790 C   0  0  0  0  0  0  0  0  0  0  0  0
   58.1340   32.9650   43.4140 C   0  0  0  0  0  0  0  0  0  0  0  0
   57.6190   31.7790   43.8750 N   0  0  0  0  0  0  0  0  0  0  0  0
   56.9990   30.9020   43.0230 C   0  0  0  0  0  0  0  0  0  0  0  0
   56.8790   31.1680   41.7940 O   0  0  0  0  0  0  0  0  0  0  0  0
   56.5070   29.7250   43.4930 N   0  0  0  0  0  0  0  0  0  0  0  0
   56.9509   27.1164   46.8229 H   0  0  0  0  0  0  0  0  0  0  0  0
   56.5515   26.1707   45.3488 H   0  0  0  0  0  0  0  0  0  0  0  0
   57.9643   27.2800   45.3488 H   0  0  0  0  0  0  0  0  0  0  0  0
   57.5790   31.3947   47.6456 H   0  0  0  0  0  0  0  0  0  0  0  0
   60.1764   31.0022   48.7986 H   0  0  0  0  0  0  0  0  0  0  0  0
   60.9045   31.5439   47.5346 H   0  0  0  0  0  0  0  0  0  0  0  0
   58.8967   33.1827   49.4663 H   0  0  0  0  0  0  0  0  0  0  0  0
   59.4025   34.1036   48.3183 H   0  0  0  0  0  0  0  0  0  0  0  0
   59.4236   34.2058   46.3118 H   0  0  0  0  0  0  0  0  0  0  0  0
   59.1999   34.7873   43.8974 H   0  0  0  0  0  0  0  0  0  0  0  0
   58.0339   33.2242   42.3497 H   0  0  0  0  0  0  0  0  0  0  0  0
   56.0350   29.0580   42.8400 H   0  0  0  0  0  0  0  0  0  0  0  0
  1  2  1  0
  2  3  1  0
  3  4  1  0
  4  5  2  0
  5  6  1  0
  6  7  1  0
  7  8  1  0
  8  9  1  0
  6 10  2  0
 10 11  1  0
 11 12  2  0
 12 13  1  0
 13 14  1  0
 14 15  2  0
 14 16  1  0
 16  3  2  0
 13  5  1  0
  9  7  1  0
  1 17  1  0
  1 18  1  0
  1 19  1  0
  7 20  1  0
  8 21  1  0
  8 22  1  0
  9 23  1  0
  9 24  1  0
 10 25  1  0
 11 26  1  0
 12 27  1  0
 16 28  1  0
M  CHG  1  16   1
M  END
>  <UniqueID>  (28) 
24

>  <SMILES>  (28) 
COc1nc2c(C3CC3)cccn2c(=O)[nH+]1

>  <Energy>  (28) 
296.09896715512303

>  <Genealogy>  (28) 
COc1nc2c(C3CC3)cccn2c(=O)[nH+]1 (protonated)
COc1nc2c(C3CC3)cccn2c(=O)[nH+]1 (3D coordinates assigned)
COc1nc2c(C3CC3)cccn2c(=O)[nH+]1 (nonaromatic ring conformer: 296.09896715512303 kcal/mol)

>  <smiles>  (28) 
COc1nc(=O)n2cccc(C3CC3)c2n1

>  <score_type>  (28) 
oracle

>  <origin>  (28) 
adg

>  <m_score__min__energy>  (28) 
-4.4900000000000002

>  <m_primary>  (28) 
energy

$$$$
28:0
     RDKit          3D

 40 43  0  0  0  0  0  0  0  0999 V2000
   65.6300   32.9820   50.3750 C   0  0  0  0  0  0  0  0  0  0  0  0
   64.1900   33.4620   50.5200 C   0  0  0  0  0  0  0  0  0  0  0  0
   63.5370   33.5040   49.2140 N   0  0  0  0  0  0  0  0  0  0  0  0
   64.1590   33.4380   48.0120 C   0  0  0  0  0  0  0  0  0  0  0  0
   63.2330   33.5250   46.9810 C   0  0  0  0  0  0  0  0  0  0  0  0
   62.0130   33.6570   47.6060 C   0  0  0  0  0  0  0  0  0  0  0  0
   62.2210   33.6690   48.9620 C   0  0  0  0  0  0  0  0  0  0  0  0
   61.0850   33.6810   49.9700 C   0  0  0  0  0  0  0  0  0  0  0  0
   59.7650   34.2790   49.3900 C   0  0  0  0  0  0  0  0  0  0  0  0
   59.6130   34.0060   47.9120 C   0  0  0  0  0  0  0  0  0  0  0  0
   58.5320   34.1740   47.0770 C   0  0  0  0  0  0  0  0  0  0  0  0
   58.9670   34.0060   45.8060 N   0  0  0  0  0  0  0  0  0  0  0  0
   58.1590   34.1800   44.6030 C   0  0  0  0  0  0  0  0  0  0  0  0
   57.7110   32.8390   44.0930 C   0  0  0  0  0  0  0  0  0  0  0  0
   57.7550   32.5540   42.7190 C   0  0  0  0  0  0  0  0  0  0  0  0
   57.2980   31.3220   42.2410 C   0  0  0  0  0  0  0  0  0  0  0  0
   56.7850   30.3720   43.1290 C   0  0  0  0  0  0  0  0  0  0  0  0
   56.7220   30.6550   44.4960 C   0  0  0  0  0  0  0  0  0  0  0  0
   57.1770   31.8870   44.9780 C   0  0  0  0  0  0  0  0  0  0  0  0
   60.2760   33.7880   45.7870 N   0  0  0  0  0  0  0  0  0  0  0  0
   60.6700   33.7860   47.0720 C   0  0  0  0  0  0  0  0  0  0  0  0
   66.0698   32.8354   51.3725 H   0  0  0  0  0  0  0  0  0  0  0  0
   65.6455   32.0301   49.8239 H   0  0  0  0  0  0  0  0  0  0  0  0
   66.2135   33.7342   49.8239 H   0  0  0  0  0  0  0  0  0  0  0  0
   63.6417   32.7719   51.1781 H   0  0  0  0  0  0  0  0  0  0  0  0
   64.1912   34.4733   50.9528 H   0  0  0  0  0  0  0  0  0  0  0  0
   65.2448   33.3306   47.8726 H   0  0  0  0  0  0  0  0  0  0  0  0
   63.4310   33.4950   45.8994 H   0  0  0  0  0  0  0  0  0  0  0  0
   60.8904   32.6473   50.2919 H   0  0  0  0  0  0  0  0  0  0  0  0
   61.3957   34.3196   50.8101 H   0  0  0  0  0  0  0  0  0  0  0  0
   58.9112   33.8335   49.9217 H   0  0  0  0  0  0  0  0  0  0  0  0
   59.8000   35.3696   49.5290 H   0  0  0  0  0  0  0  0  0  0  0  0
   57.5015   34.4032   47.3862 H   0  0  0  0  0  0  0  0  0  0  0  0
   57.2775   34.7936   44.8406 H   0  0  0  0  0  0  0  0  0  0  0  0
   58.7609   34.6802   43.8301 H   0  0  0  0  0  0  0  0  0  0  0  0
   58.1503   33.3023   42.0163 H   0  0  0  0  0  0  0  0  0  0  0  0
   57.3422   31.1000   41.1645 H   0  0  0  0  0  0  0  0  0  0  0  0
   56.4308   29.4014   42.7516 H   0  0  0  0  0  0  0  0  0  0  0  0
   56.3144   29.9085   45.1936 H   0  0  0  0  0  0  0  0  0  0  0  0
   57.1166   32.1112   46.0532 H   0  0  0  0  0  0  0  0  0  0  0  0
  1  2  1  0
  2  3  1  0
  3  4  1  0
  4  5  2  0
  5  6  1  0
  6  7  2  0
  7  8  1  0
  8  9  1  0
  9 10  1  0
 10 11  2  0
 11 12  1  0
 12 13  1  0
 13 14  1  0
 14 15  2  0
 15 16  1  0
 16 17  2  0
 17 18  1  0
 18 19  2  0
 12 20  1  0
 20 21  2  0
  7  3  1  0
 21 10  1  0
 21  6  1  0
 19 14  1  0
  1 22  1  0
  1 23  1  0
  1 24  1  0
  2 25  1  0
  2 26  1  0
  4 27  1  0
  5 28  1  0
  8 29  1  0
  8 30  1  0
  9 31  1  0
  9 32  1  0
 11 33  1  0
 13 34  1  0
 13 35  1  0
 15 36  1  0
 16 37  1  0
 17 38  1  0
 18 39  1  0
 19 40  1  0
M  END
>  <UniqueID>  (29) 
25

>  <SMILES>  (29) 
CCn1ccc2c1CCc1cn(Cc3ccccc3)nc1-2

>  <Energy>  (29) 
103.70326408724023

>  <Genealogy>  (29) 
CCn1ccc2c1CCc1cn(Cc3ccccc3)nc1-2 (3D coordinates assigned)
CCn1ccc2c1CCc1cn(Cc3ccccc3)nc1-2 (nonaromatic ring conformer: 103.70326408724023 kcal/mol)

>  <smiles>  (29) 
CCn1ccc2c1CCc1cn(Cc3ccccc3)nc1-2

>  <score_type>  (29) 
oracle

>  <origin>  (29) 
adg

>  <m_score__min__energy>  (29) 
-7.5899999999999999

>  <m_primary>  (29) 
energy

$$$$
29:0
     RDKit          3D

 50 52  0  0  0  0  0  0  0  0999 V2000
   57.6699   34.2025   43.9821 H   0  0  0  0  0  0  0  0  0  0  0  0
   57.8090   33.3420   44.6530 C   0  0  0  0  0  0  0  0  0  0  0  0
   58.3170   33.5340   45.9370 C   0  0  0  0  0  0  0  0  0  0  0  0
   58.5646   34.5480   46.2840 H   0  0  0  0  0  0  0  0  0  0  0  0
   58.5120   32.4390   46.7840 C   0  0  0  0  0  0  0  0  0  0  0  0
   58.9224   32.5970   47.7923 H   0  0  0  0  0  0  0  0  0  0  0  0
   58.1880   31.1340   46.3590 C   0  0  0  0  0  0  0  0  0  0  0  0
   57.6420   30.9590   45.0700 C   0  0  0  0  0  0  0  0  0  0  0  0
   57.4770   32.0580   44.2190 C   0  0  0  0  0  0  0  0  0  0  0  0
   57.0835   31.9087   43.2027 H   0  0  0  0  0  0  0  0  0  0  0  0
   57.1390   29.3420   44.4790 S   0  0  0  0  0  0  0  0  0  0  0  0
   58.6020   28.4500   45.1210 C   0  0  0  0  0  0  0  0  0  0  0  0
   58.4500   26.9730   44.7190 C   0  0  0  0  0  0  0  0  0  0  0  0
   58.3860   26.3513   45.6242 H   0  0  0  0  0  0  0  0  0  0  0  0
   57.5342   26.8477   44.1227 H   0  0  0  0  0  0  0  0  0  0  0  0
   59.3211   26.6638   44.1227 H   0  0  0  0  0  0  0  0  0  0  0  0
   59.9130   28.9900   44.5070 C   0  0  0  0  0  0  0  0  0  0  0  0
   60.6052   29.2751   45.3130 H   0  0  0  0  0  0  0  0  0  0  0  0
   60.3756   28.2092   43.8854 H   0  0  0  0  0  0  0  0  0  0  0  0
   59.6915   29.8701   43.8854 H   0  0  0  0  0  0  0  0  0  0  0  0
   58.6050   28.5540   46.6640 C   0  0  0  0  0  0  0  0  0  0  0  0
   59.5357   28.0982   47.0328 H   0  0  0  0  0  0  0  0  0  0  0  0
   57.6946   28.0385   47.0038 H   0  0  0  0  0  0  0  0  0  0  0  0
   58.5200   29.9680   47.2250 C   0  0  0  0  0  0  0  0  0  0  0  0
   58.6860   30.1880   48.5020 N   0  0  0  0  0  0  0  0  0  0  0  0
   59.6610   29.5600   49.3950 C   0  0  0  0  0  0  0  0  0  0  0  0
   59.8996   28.5555   49.0155 H   0  0  0  0  0  0  0  0  0  0  0  0
   59.2223   29.5013   50.4020 H   0  0  0  0  0  0  0  0  0  0  0  0
   60.9600   30.3880   49.4770 C   0  0  0  0  0  0  0  0  0  0  0  0
   61.7971   29.7579   49.1420 H   0  0  0  0  0  0  0  0  0  0  0  0
   61.0750   30.7099   50.5226 H   0  0  0  0  0  0  0  0  0  0  0  0
   60.9300   31.6160   48.6400 N   0  0  0  0  0  0  0  0  0  0  0  0
   59.9270   31.8370   48.4340 H   0  0  0  0  0  0  0  0  0  0  0  0
   61.5130   32.7810   49.3600 C   0  0  0  0  0  0  0  0  0  0  0  0
   62.3260   32.4270   50.0109 H   0  0  0  0  0  0  0  0  0  0  0  0
   60.7135   33.2545   49.9487 H   0  0  0  0  0  0  0  0  0  0  0  0
   62.0740   33.8270   48.3890 C   0  0  0  0  0  0  0  0  0  0  0  0
   62.4319   34.6948   48.9625 H   0  0  0  0  0  0  0  0  0  0  0  0
   61.2740   34.1264   47.6959 H   0  0  0  0  0  0  0  0  0  0  0  0
   63.1970   33.2710   47.6010 N   0  0  0  0  0  0  0  0  0  0  0  0
   63.3970   34.0540   46.3700 C   0  0  0  0  0  0  0  0  0  0  0  0
   63.6614   35.0890   46.6326 H   0  0  0  0  0  0  0  0  0  0  0  0
   64.2097   33.6067   45.7789 H   0  0  0  0  0  0  0  0  0  0  0  0
   62.4693   34.0512   45.7789 H   0  0  0  0  0  0  0  0  0  0  0  0
   63.0530   31.8240   47.3050 C   0  0  0  0  0  0  0  0  0  0  0  0
   63.6105   31.2511   48.0606 H   0  0  0  0  0  0  0  0  0  0  0  0
   63.4482   31.6463   46.2940 H   0  0  0  0  0  0  0  0  0  0  0  0
   61.5840   31.3680   47.3230 C   0  0  0  0  0  0  0  0  0  0  0  0
   61.5456   30.2902   47.1065 H   0  0  0  0  0  0  0  0  0  0  0  0
   61.0418   31.9502   46.5634 H   0  0  0  0  0  0  0  0  0  0  0  0
  1  2  1  0
  2  3  2  0
  3  4  1  0
  3  5  1  0
  5  6  1  0
  5  7  2  0
  7  8  1  0
  8  9  2  0
  9 10  1  0
  8 11  1  0
 11 12  1  0
 12 13  1  0
 13 14  1  0
 13 15  1  0
 13 16  1  0
 12 17  1  0
 17 18  1  0
 17 19  1  0
 17 20  1  0
 12 21  1  0
 21 22  1  0
 21 23  1  0
 21 24  1  0
 24 25  2  0
 25 26  1  0
 26 27  1  0
 26 28  1  0
 26 29  1  0
 29 30  1  0
 29 31  1  0
 29 32  1  0
 32 33  1  0
 32 34  1  0
 34 35  1  0
 34 36  1  0
 34 37  1  0
 37 38  1  0
 37 39  1  0
 37 40  1  0
 40 41  1  0
 41 42  1  0
 41 43  1  0
 41 44  1  0
 40 45  1  0
 45 46  1  0
 45 47  1  0
 45 48  1  0
 48 49  1  0
 48 50  1  0
  9  2  1  0
 48 32  1  0
 24  7  1  0
M  CHG  1  32   1
M  END
>  <UniqueID>  (30) 
26

>  <SMILES>  (30) 
CN1CC[NH+](CC/N=C2\CC(C)(C)Sc3ccccc32)CC1

>  <Energy>  (30) 
68.17181917105769

>  <Genealogy>  (30) 
CN1CC[NH+](CCN=C2CC(C)(C)Sc3ccccc32)CC1 (protonated)
CN1CC[NH+](CC/N=C2\CC(C)(C)Sc3ccccc32)CC1 (cis-trans isomerization)
CN1CC[NH+](CC/N=C2\CC(C)(C)Sc3ccccc32)CC1 (3D coordinates assigned)
CN1CC[NH+](CC/N=C2\CC(C)(C)Sc3ccccc32)CC1 (nonaromatic ring conformer: 68.17181917105769 kcal/mol)

>  <smiles>  (30) 
CN1CCN(CCN=C2CC(C)(C)Sc3ccccc32)CC1

>  <score_type>  (30) 
oracle

>  <origin>  (30) 
adg

>  <m_score__min__energy>  (30) 
-6.0999999999999996

>  <m_primary>  (30) 
energy

$$$$
30:0
     RDKit          3D

 28 29  0  0  0  0  0  0  0  0999 V2000
   58.5740   33.9870   46.7390 C   0  0  0  0  0  0  0  0  0  0  0  0
   58.2770   33.8090   44.9540 S   0  0  0  0  0  0  0  0  0  0  0  0
   57.7740   32.0980   45.0960 C   0  0  0  0  0  0  0  0  0  0  0  0
   56.6460   31.5970   44.5630 N   0  0  0  0  0  0  0  0  0  0  0  0
   56.6300   30.3120   44.8810 N   0  0  0  0  0  0  0  0  0  0  0  0
   57.7490   30.0820   45.5960 C   0  0  0  0  0  0  0  0  0  0  0  0
   58.1310   28.7690   46.1530 C   0  0  0  0  0  0  0  0  0  0  0  0
   59.2390   28.6610   47.0070 C   0  0  0  0  0  0  0  0  0  0  0  0
   59.5980   27.4240   47.5440 C   0  0  0  0  0  0  0  0  0  0  0  0
   58.8610   26.2800   47.2280 C   0  0  0  0  0  0  0  0  0  0  0  0
   57.7610   26.3640   46.3560 C   0  0  0  0  0  0  0  0  0  0  0  0
   56.9700   25.2060   46.0330 N   0  0  0  0  0  0  0  0  0  0  0  0
   55.5650   25.2460   45.7430 C   0  0  0  0  0  0  0  0  0  0  0  0
   54.8770   24.0230   45.2280 C   0  0  0  0  0  0  0  0  0  0  0  0
   54.8840   26.2770   45.9960 O   0  0  0  0  0  0  0  0  0  0  0  0
   57.3920   27.6140   45.8380 C   0  0  0  0  0  0  0  0  0  0  0  0
   58.4560   31.1780   45.7320 O   0  0  0  0  0  0  0  0  0  0  0  0
   57.7606   33.4995   47.2964 H   0  0  0  0  0  0  0  0  0  0  0  0
   59.5322   33.5142   47.0002 H   0  0  0  0  0  0  0  0  0  0  0  0
   58.6088   35.0550   47.0002 H   0  0  0  0  0  0  0  0  0  0  0  0
   59.8280   29.5564   47.2546 H   0  0  0  0  0  0  0  0  0  0  0  0
   60.4640   27.3495   48.2182 H   0  0  0  0  0  0  0  0  0  0  0  0
   59.1423   25.3096   47.6631 H   0  0  0  0  0  0  0  0  0  0  0  0
   57.4260   24.2680   46.0920 H   0  0  0  0  0  0  0  0  0  0  0  0
   54.5330   23.4116   46.0753 H   0  0  0  0  0  0  0  0  0  0  0  0
   54.0130   24.3191   44.6149 H   0  0  0  0  0  0  0  0  0  0  0  0
   55.5786   23.4383   44.6149 H   0  0  0  0  0  0  0  0  0  0  0  0
   56.5153   27.6922   45.1783 H   0  0  0  0  0  0  0  0  0  0  0  0
  1  2  1  0
  2  3  1  0
  3  4  2  0
  4  5  1  0
  5  6  2  0
  6  7  1  0
  7  8  2  0
  8  9  1  0
  9 10  2  0
 10 11  1  0
 11 12  1  0
 12 13  1  0
 13 14  1  0
 13 15  2  0
 11 16  2  0
  6 17  1  0
 17  3  1  0
 16  7  1  0
  1 18  1  0
  1 19  1  0
  1 20  1  0
  8 21  1  0
  9 22  1  0
 10 23  1  0
 12 24  1  0
 14 25  1  0
 14 26  1  0
 14 27  1  0
 16 28  1  0
M  END
>  <UniqueID>  (31) 
27

>  <SMILES>  (31) 
CSc1nnc(-c2cccc(NC(C)=O)c2)o1

>  <Energy>  (31) 
60.54692446671202

>  <Genealogy>  (31) 
CSc1nnc(-c2cccc(NC(C)=O)c2)o1 (3D coordinates assigned)
CSc1nnc(-c2cccc(NC(C)=O)c2)o1 (optimized conformer: 60.54692446671202 kcal/mol)

>  <smiles>  (31) 
CSc1nnc(-c2cccc(NC(C)=O)c2)o1

>  <score_type>  (31) 
oracle

>  <origin>  (31) 
adg

>  <m_score__min__energy>  (31) 
-6.9199999999999999

>  <m_primary>  (31) 
energy

$$$$
31:0
     RDKit          3D

 48 50  0  0  0  0  0  0  0  0999 V2000
   55.3960   29.7250   43.7750 C   0  0  0  0  0  0  0  0  0  0  0  0
   56.2780   29.9740   44.8620 O   0  0  0  0  0  0  0  0  0  0  0  0
   57.5370   29.3730   44.9710 C   0  0  0  0  0  0  0  0  0  0  0  0
   57.6690   28.0230   44.8410 N   0  0  0  0  0  0  0  0  0  0  0  0
   58.8720   27.4110   44.9710 C   0  0  0  0  0  0  0  0  0  0  0  0
   60.0030   28.1770   45.2510 C   0  0  0  0  0  0  0  0  0  0  0  0
   59.8860   29.5240   45.3820 N   0  0  0  0  0  0  0  0  0  0  0  0
   58.6810   30.1510   45.2390 C   0  0  0  0  0  0  0  0  0  0  0  0
   58.5950   31.6240   45.3830 C   0  0  0  0  0  0  0  0  0  0  0  0
   57.9810   32.4090   44.3940 C   0  0  0  0  0  0  0  0  0  0  0  0
   57.9120   33.7970   44.5370 C   0  0  0  0  0  0  0  0  0  0  0  0
   58.4700   34.4150   45.6580 C   0  0  0  0  0  0  0  0  0  0  0  0
   59.1140   33.6500   46.6450 C   0  0  0  0  0  0  0  0  0  0  0  0
   59.7310   34.3280   47.8520 C   0  0  0  0  0  0  0  0  0  0  0  0
   61.0670   33.7980   48.2170 N   0  0  0  0  0  0  0  0  0  0  0  0
   61.8390   33.3400   47.0440 C   0  0  0  0  0  0  0  0  0  0  0  0
   63.2940   33.8500   47.0290 C   0  0  0  0  0  0  0  0  0  0  0  0
   64.2090   33.2250   48.0970 C   0  0  0  0  0  0  0  0  0  0  0  0
   63.5550   33.0210   49.4090 N   0  0  0  0  0  0  0  0  0  0  0  0
   64.4800   32.7890   50.5310 C   0  0  0  0  0  0  0  0  0  0  0  0
   62.3960   32.1070   49.4040 C   0  0  0  0  0  0  0  0  0  0  0  0
   61.0360   32.8120   49.3150 C   0  0  0  0  0  0  0  0  0  0  0  0
   59.1600   32.2530   46.5060 C   0  0  0  0  0  0  0  0  0  0  0  0
   54.4055   29.4454   44.1632 H   0  0  0  0  0  0  0  0  0  0  0  0
   55.3060   30.6329   43.1604 H   0  0  0  0  0  0  0  0  0  0  0  0
   55.7941   28.9041   43.1604 H   0  0  0  0  0  0  0  0  0  0  0  0
   58.9549   26.3201   44.8566 H   0  0  0  0  0  0  0  0  0  0  0  0
   60.9843   27.6933   45.3651 H   0  0  0  0  0  0  0  0  0  0  0  0
   60.7480   30.0810   45.5760 H   0  0  0  0  0  0  0  0  0  0  0  0
   57.5521   31.9287   43.5021 H   0  0  0  0  0  0  0  0  0  0  0  0
   57.4171   34.4043   43.7649 H   0  0  0  0  0  0  0  0  0  0  0  0
   58.4050   35.5075   45.7690 H   0  0  0  0  0  0  0  0  0  0  0  0
   59.8313   35.4014   47.6335 H   0  0  0  0  0  0  0  0  0  0  0  0
   59.0645   34.1331   48.7051 H   0  0  0  0  0  0  0  0  0  0  0  0
   61.8554   32.2401   47.0456 H   0  0  0  0  0  0  0  0  0  0  0  0
   61.3435   33.7481   46.1507 H   0  0  0  0  0  0  0  0  0  0  0  0
   63.7231   33.6307   46.0402 H   0  0  0  0  0  0  0  0  0  0  0  0
   63.2469   34.9258   47.2533 H   0  0  0  0  0  0  0  0  0  0  0  0
   64.5540   32.2481   47.7274 H   0  0  0  0  0  0  0  0  0  0  0  0
   65.0347   33.9331   48.2609 H   0  0  0  0  0  0  0  0  0  0  0  0
   63.9439   32.9235   51.4820 H   0  0  0  0  0  0  0  0  0  0  0  0
   64.8751   31.7640   50.4746 H   0  0  0  0  0  0  0  0  0  0  0  0
   65.3121   33.5063   50.4746 H   0  0  0  0  0  0  0  0  0  0  0  0
   62.4921   31.4336   48.5396 H   0  0  0  0  0  0  0  0  0  0  0  0
   62.4117   31.5733   50.3657 H   0  0  0  0  0  0  0  0  0  0  0  0
   60.2492   32.0687   49.1189 H   0  0  0  0  0  0  0  0  0  0  0  0
   60.8249   33.3254   50.2647 H   0  0  0  0  0  0  0  0  0  0  0  0
   59.6435   31.6445   47.2845 H   0  0  0  0  0  0  0  0  0  0  0  0
  1  2  1  0
  2  3  1  0
  3  4  2  0
  4  5  1  0
  5  6  2  0
  6  7  1  0
  7  8  2  0
  8  9  1  0
  9 10  2  0
 10 11  1  0
 11 12  2  0
 12 13  1  0
 13 14  1  0
 14 15  1  0
 15 16  1  0
 16 17  1  0
 17 18  1  0
 18 19  1  0
 19 20  1  0
 19 21  1  0
 21 22  1  0
 13 23  2  0
  8  3  1  0
 23  9  1  0
 22 15  1  0
  1 24  1  0
  1 25  1  0
  1 26  1  0
  5 27  1  0
  6 28  1  0
  7 29  1  0
 10 30  1  0
 11 31  1  0
 12 32  1  0
 14 33  1  0
 14 34  1  0
 16 35  1  0
 16 36  1  0
 17 37  1  0
 17 38  1  0
 18 39  1  0
 18 40  1  0
 20 41  1  0
 20 42  1  0
 20 43  1  0
 21 44  1  0
 21 45  1  0
 22 46  1  0
 22 47  1  0
 23 48  1  0
M  CHG  1   7   1
M  END
>  <UniqueID>  (32) 
28

>  <SMILES>  (32) 
COc1ncc[nH+]c1-c1cccc(CN2CCCN(C)CC2)c1

>  <Energy>  (32) 
69.9129717751287

>  <Genealogy>  (32) 
COc1ncc[nH+]c1-c1cccc(CN2CCCN(C)CC2)c1 (protonated)
COc1ncc[nH+]c1-c1cccc(CN2CCCN(C)CC2)c1 (3D coordinates assigned)
COc1ncc[nH+]c1-c1cccc(CN2CCCN(C)CC2)c1 (nonaromatic ring conformer: 69.9129717751287 kcal/mol)

>  <smiles>  (32) 
COc1nccnc1-c1cccc(CN2CCCN(C)CC2)c1

>  <score_type>  (32) 
oracle

>  <origin>  (32) 
adg

>  <m_score__min__energy>  (32) 
-4.79

>  <m_primary>  (32) 
energy

$$$$
32:0
     RDKit          3D

 29 32  0  0  0  0  0  0  0  0999 V2000
   59.1090   34.9670   44.8710 C   0  0  0  0  0  0  0  0  0  0  0  0
   58.7440   33.5350   44.6700 C   0  0  0  0  0  0  0  0  0  0  0  0
   58.4650   32.9850   43.4690 N   0  0  0  0  0  0  0  0  0  0  0  0
   58.0910   31.7090   43.5320 N   0  0  0  0  0  0  0  0  0  0  0  0
   58.0520   31.2150   44.7940 C   0  0  0  0  0  0  0  0  0  0  0  0
   57.6540   29.8140   45.1070 C   0  0  0  0  0  0  0  0  0  0  0  0
   56.2980   29.4480   44.9960 C   0  0  0  0  0  0  0  0  0  0  0  0
   55.8940   28.2120   45.2650 O   0  0  0  0  0  0  0  0  0  0  0  0
   56.7310   27.2600   45.6490 C   0  0  0  0  0  0  0  0  0  0  0  0
   56.2740   25.9740   45.9240 C   0  0  0  0  0  0  0  0  0  0  0  0
   57.1140   24.9840   46.3180 C   0  0  0  0  0  0  0  0  0  0  0  0
   58.4820   25.1940   46.4720 C   0  0  0  0  0  0  0  0  0  0  0  0
   58.9890   26.4800   46.2050 C   0  0  0  0  0  0  0  0  0  0  0  0
   58.1160   27.5230   45.7920 C   0  0  0  0  0  0  0  0  0  0  0  0
   58.5760   28.8210   45.5140 C   0  0  0  0  0  0  0  0  0  0  0  0
   59.8030   29.0880   45.6280 O   0  0  0  0  0  0  0  0  0  0  0  0
   56.3950   23.8220   46.5190 O   0  0  0  0  0  0  0  0  0  0  0  0
   55.0170   24.0990   46.2330 C   0  0  0  0  0  0  0  0  0  0  0  0
   54.9840   25.4830   45.8570 O   0  0  0  0  0  0  0  0  0  0  0  0
   58.4960   32.4170   45.9010 S   0  0  0  0  0  0  0  0  0  0  0  0
   59.1642   35.1836   45.9480 H   0  0  0  0  0  0  0  0  0  0  0  0
   60.0863   35.1650   44.4066 H   0  0  0  0  0  0  0  0  0  0  0  0
   58.3457   35.6086   44.4066 H   0  0  0  0  0  0  0  0  0  0  0  0
   58.5270   33.5030   42.5640 H   0  0  0  0  0  0  0  0  0  0  0  0
   55.5601   30.2003   44.6806 H   0  0  0  0  0  0  0  0  0  0  0  0
   59.1471   24.3788   46.7929 H   0  0  0  0  0  0  0  0  0  0  0  0
   60.0652   26.6785   46.3165 H   0  0  0  0  0  0  0  0  0  0  0  0
   54.6591   23.4660   45.4076 H   0  0  0  0  0  0  0  0  0  0  0  0
   54.3672   23.8908   47.0958 H   0  0  0  0  0  0  0  0  0  0  0  0
  1  2  1  0
  2  3  2  0
  3  4  1  0
  4  5  2  0
  5  6  1  0
  6  7  2  0
  7  8  1  0
  8  9  1  0
  9 10  2  0
 10 11  1  0
 11 12  2  0
 12 13  1  0
 13 14  2  0
 14 15  1  0
 15 16  2  0
 11 17  1  0
 17 18  1  0
 18 19  1  0
  5 20  1  0
 20  2  1  0
 15  6  1  0
 14  9  1  0
 19 10  1  0
  1 21  1  0
  1 22  1  0
  1 23  1  0
  3 24  1  0
  7 25  1  0
 12 26  1  0
 13 27  1  0
 18 28  1  0
 18 29  1  0
M  CHG  1   3   1
M  END
>  <UniqueID>  (33) 
29

>  <SMILES>  (33) 
Cc1[nH+]nc(-c2coc3c4c(ccc3c2=O)OCO4)s1

>  <Energy>  (33) 
101.27340450965761

>  <Genealogy>  (33) 
Cc1[nH+]nc(-c2coc3c4c(ccc3c2=O)OCO4)s1 (protonated)
Cc1[nH+]nc(-c2coc3c4c(ccc3c2=O)OCO4)s1 (3D coordinates assigned)
Cc1[nH+]nc(-c2coc3c4c(ccc3c2=O)OCO4)s1 (nonaromatic ring conformer: 101.27340450965761 kcal/mol)

>  <smiles>  (33) 
Cc1nnc(-c2coc3c4c(ccc3c2=O)OCO4)s1

>  <score_type>  (33) 
oracle

>  <origin>  (33) 
adg

>  <m_score__min__energy>  (33) 
-5.6500000000000004

>  <m_primary>  (33) 
energy

$$$$
33:0
     RDKit          3D

 49 51  0  0  0  0  0  0  0  0999 V2000
   55.1420   26.3890   46.9430 H   0  0  0  0  0  0  0  0  0  0  0  0
   55.5160   26.6700   46.0090 N   0  0  0  0  0  0  0  0  0  0  0  0
   56.7710   26.9210   45.7990 C   0  0  0  0  0  0  0  0  0  0  0  0
   57.2210   28.2760   45.3930 C   0  0  0  0  0  0  0  0  0  0  0  0
   58.4390   28.8010   45.8620 C   0  0  0  0  0  0  0  0  0  0  0  0
   59.0700   28.2006   46.5338 H   0  0  0  0  0  0  0  0  0  0  0  0
   58.8530   30.0810   45.4800 C   0  0  0  0  0  0  0  0  0  0  0  0
   59.8069   30.4815   45.8538 H   0  0  0  0  0  0  0  0  0  0  0  0
   58.0590   30.8570   44.6230 C   0  0  0  0  0  0  0  0  0  0  0  0
   58.5030   32.2430   44.2330 C   0  0  0  0  0  0  0  0  0  0  0  0
   59.5642   32.3657   44.4954 H   0  0  0  0  0  0  0  0  0  0  0  0
   58.3517   32.3625   43.1500 H   0  0  0  0  0  0  0  0  0  0  0  0
   57.7110   33.2820   44.9310 N   0  0  0  0  0  0  0  0  0  0  0  0
   58.3110   34.6340   44.8470 C   0  0  0  0  0  0  0  0  0  0  0  0
   58.4920   34.8782   43.7898 H   0  0  0  0  0  0  0  0  0  0  0  0
   57.6099   35.3483   45.3033 H   0  0  0  0  0  0  0  0  0  0  0  0
   59.6410   34.7160   45.6110 C   0  0  0  0  0  0  0  0  0  0  0  0
   60.4454   34.3140   44.9775 H   0  0  0  0  0  0  0  0  0  0  0  0
   59.8379   35.7690   45.8609 H   0  0  0  0  0  0  0  0  0  0  0  0
   59.5790   33.9420   46.8580 N   0  0  0  0  0  0  0  0  0  0  0  0
   60.7840   33.5730   47.5680 C   0  0  0  0  0  0  0  0  0  0  0  0
   61.7110   32.7780   46.9610 N   0  0  0  0  0  0  0  0  0  0  0  0
   62.8650   32.4030   47.5710 C   0  0  0  0  0  0  0  0  0  0  0  0
   63.5803   31.7575   47.0403 H   0  0  0  0  0  0  0  0  0  0  0  0
   63.1490   32.8360   48.8770 C   0  0  0  0  0  0  0  0  0  0  0  0
   64.4080   32.4430   49.5590 C   0  0  0  0  0  0  0  0  0  0  0  0
   64.4080   31.3420   50.4770 N   0  0  0  0  0  0  0  0  0  0  0  0
   65.2930   31.0250   50.9310 H   0  0  0  0  0  0  0  0  0  0  0  0
   63.5180   30.8680   50.7490 H   0  0  0  0  0  0  0  0  0  0  0  0
   65.5160   33.0820   49.3290 N   0  0  0  0  0  0  0  0  0  0  0  0
   66.0020   33.6010   50.0940 H   0  0  0  0  0  0  0  0  0  0  0  0
   65.9680   33.0790   48.3880 H   0  0  0  0  0  0  0  0  0  0  0  0
   62.2130   33.6570   49.5220 C   0  0  0  0  0  0  0  0  0  0  0  0
   62.4099   34.0121   50.5443 H   0  0  0  0  0  0  0  0  0  0  0  0
   61.0340   34.0260   48.8750 C   0  0  0  0  0  0  0  0  0  0  0  0
   60.3023   34.6693   49.3856 H   0  0  0  0  0  0  0  0  0  0  0  0
   58.2540   33.6040   47.3950 C   0  0  0  0  0  0  0  0  0  0  0  0
   58.3759   32.9404   48.2638 H   0  0  0  0  0  0  0  0  0  0  0  0
   57.7465   34.5340   47.6908 H   0  0  0  0  0  0  0  0  0  0  0  0
   57.3950   32.8900   46.3300 C   0  0  0  0  0  0  0  0  0  0  0  0
   57.5532   31.8059   46.4289 H   0  0  0  0  0  0  0  0  0  0  0  0
   56.3517   33.1862   46.5139 H   0  0  0  0  0  0  0  0  0  0  0  0
   56.8410   30.3390   44.1570 C   0  0  0  0  0  0  0  0  0  0  0  0
   56.2098   30.9423   43.4879 H   0  0  0  0  0  0  0  0  0  0  0  0
   56.4260   29.0600   44.5390 C   0  0  0  0  0  0  0  0  0  0  0  0
   55.4692   28.6637   44.1682 H   0  0  0  0  0  0  0  0  0  0  0  0
   57.7240   25.8690   45.9760 N   0  0  0  0  0  0  0  0  0  0  0  0
   58.7300   26.0040   45.7330 H   0  0  0  0  0  0  0  0  0  0  0  0
   57.4140   24.9270   46.3030 H   0  0  0  0  0  0  0  0  0  0  0  0
  1  2  1  0
  2  3  2  0
  3  4  1  0
  4  5  2  0
  5  6  1  0
  5  7  1  0
  7  8  1  0
  7  9  2  0
  9 10  1  0
 10 11  1  0
 10 12  1  0
 10 13  1  0
 13 14  1  0
 14 15  1  0
 14 16  1  0
 14 17  1  0
 17 18  1  0
 17 19  1  0
 17 20  1  0
 20 21  1  0
 21 22  2  0
 22 23  1  0
 23 24  1  0
 23 25  2  0
 25 26  1  0
 26 27  1  0
 27 28  1  0
 27 29  1  0
 26 30  2  0
 30 31  1  0
 30 32  1  0
 25 33  1  0
 33 34  1  0
 33 35  2  0
 35 36  1  0
 20 37  1  0
 37 38  1  0
 37 39  1  0
 37 40  1  0
 40 41  1  0
 40 42  1  0
  9 43  1  0
 43 44  1  0
 43 45  2  0
 45 46  1  0
  3 47  1  0
 47 48  1  0
 47 49  1  0
 45  4  1  0
 40 13  1  0
 35 21  1  0
M  CHG  1  30   1
M  END
>  <UniqueID>  (34) 
30

>  <SMILES>  (34) 
[H]/N=C(/N)c1ccc(CN2CCN(c3ccc(C(N)=[NH2+])cn3)CC2)cc1

>  <Energy>  (34) 
66.48692317354481

>  <Genealogy>  (34) 
N=C(N)c1ccc(CN2CCN(c3ccc(C(N)=[NH2+])cn3)CC2)cc1 (protonated)
[H]/N=C(/N)c1ccc(CN2CCN(c3ccc(C(N)=[NH2+])cn3)CC2)cc1 (cis-trans isomerization)
[H]/N=C(/N)c1ccc(CN2CCN(c3ccc(C(N)=[NH2+])cn3)CC2)cc1 (3D coordinates assigned)
[H]/N=C(/N)c1ccc(CN2CCN(c3ccc(C(N)=[NH2+])cn3)CC2)cc1 (nonaromatic ring conformer: 66.48692317354481 kcal/mol)

>  <smiles>  (34) 
N=C(N)c1ccc(CN2CCN(c3ccc(C(=N)N)cn3)CC2)cc1

>  <score_type>  (34) 
oracle

>  <origin>  (34) 
adg

>  <m_score__min__energy>  (34) 
-6.7400000000000002

>  <m_primary>  (34) 
energy

$$$$
34:0
     RDKit          3D

 50 53  0  0  1  0  0  0  0  0999 V2000
   56.8260   21.0390   43.0550 C   0  0  0  0  0  0  0  0  0  0  0  0
   56.1370   22.1730   43.5320 O   0  0  0  0  0  0  0  0  0  0  0  0
   56.7580   23.3040   44.0270 C   0  0  0  0  0  0  0  0  0  0  0  0
   57.0060   24.3340   43.1390 C   0  0  0  0  0  0  0  0  0  0  0  0
   57.6220   25.4830   43.5760 C   0  0  0  0  0  0  0  0  0  0  0  0
   58.0070   25.6470   44.8970 C   0  0  0  0  0  0  0  0  0  0  0  0
   58.6390   26.8760   45.2340 N   0  0  0  0  0  0  0  0  0  0  0  0
   59.8710   27.0690   45.6470 N   0  0  0  0  0  0  0  0  0  0  0  0
   60.1300   28.3900   45.8770 C   0  0  0  0  0  0  0  0  0  0  0  0
   58.9670   29.0280   45.5790 C   0  0  0  0  0  0  0  0  0  0  0  0
   58.5840   30.3190   45.5990 C   0  0  0  0  0  0  0  0  0  0  0  0
   59.3610   31.2410   45.9690 N   0  0  0  0  0  0  0  0  0  0  0  0
   59.7240   31.5050   47.3350 C   0  0  0  0  0  0  0  0  0  0  0  0
   58.4910   32.2910   47.8680 C   0  0  0  0  0  0  0  0  0  0  0  0
   58.2200   33.4070   47.0840 N   0  0  0  0  0  0  0  0  0  0  0  0
   57.0450   33.4800   46.3150 C   0  0  0  0  0  0  0  0  0  0  0  0
   57.3890   34.1190   44.9660 C   0  0  0  0  0  0  0  0  0  0  0  0
   58.8890   34.1870   44.7520 C   0  0  0  0  0  0  0  0  0  0  0  0
   59.6020   34.9540   45.8480 C   0  0  0  0  0  0  0  0  0  0  0  0
   59.0050   34.5740   47.2020 C   0  0  0  0  0  0  0  0  0  0  0  0
   57.3270   30.6580   45.2340 N   0  0  0  0  0  0  0  0  0  0  0  0
   56.4590   29.7060   44.8500 C   0  0  0  0  0  0  0  0  0  0  0  0
   56.7810   28.4010   44.8100 N   0  0  0  0  0  0  0  0  0  0  0  0
   58.0470   28.0730   45.1790 C   0  0  0  0  0  0  0  0  0  0  0  0
   57.7700   24.6360   45.7900 C   0  0  0  0  0  0  0  0  0  0  0  0
   57.1420   23.4710   45.3360 C   0  0  0  0  0  0  0  0  0  0  0  0
   57.1873   20.4443   43.9069 H   0  0  0  0  0  0  0  0  0  0  0  0
   56.1465   20.4277   42.4430 H   0  0  0  0  0  0  0  0  0  0  0  0
   57.6817   21.3604   42.4430 H   0  0  0  0  0  0  0  0  0  0  0  0
   56.7109   24.2345   42.0840 H   0  0  0  0  0  0  0  0  0  0  0  0
   57.8143   26.2937   42.8578 H   0  0  0  0  0  0  0  0  0  0  0  0
   61.0716   28.8387   46.2262 H   0  0  0  0  0  0  0  0  0  0  0  0
   59.8709   30.5695   47.8948 H   0  0  0  0  0  0  0  0  0  0  0  0
   60.6712   32.0549   47.4376 H   0  0  0  0  0  0  0  0  0  0  0  0
   57.6137   31.6275   47.8606 H   0  0  0  0  0  0  0  0  0  0  0  0
   58.7149   32.6329   48.8893 H   0  0  0  0  0  0  0  0  0  0  0  0
   56.6422   32.4690   46.1552 H   0  0  0  0  0  0  0  0  0  0  0  0
   56.2884   34.0839   46.8373 H   0  0  0  0  0  0  0  0  0  0  0  0
   56.9395   33.5192   44.1609 H   0  0  0  0  0  0  0  0  0  0  0  0
   56.9914   35.1446   44.9574 H   0  0  0  0  0  0  0  0  0  0  0  0
   59.2872   33.1620   44.7235 H   0  0  0  0  0  0  0  0  0  0  0  0
   59.0658   34.7186   43.8053 H   0  0  0  0  0  0  0  0  0  0  0  0
   60.6728   34.7027   45.8352 H   0  0  0  0  0  0  0  0  0  0  0  0
   59.4785   36.0343   45.6814 H   0  0  0  0  0  0  0  0  0  0  0  0
   59.8193   34.3920   47.9188 H   0  0  0  0  0  0  0  0  0  0  0  0
   58.3677   35.3983   47.5548 H   0  0  0  0  0  0  0  0  0  0  0  0
   55.4427   30.0072   44.5562 H   0  0  0  0  0  0  0  0  0  0  0  0
   56.0860   27.6830   44.5080 H   0  0  0  0  0  0  0  0  0  0  0  0
   58.0677   24.7379   46.8440 H   0  0  0  0  0  0  0  0  0  0  0  0
   56.9486   22.6593   46.0528 H   0  0  0  0  0  0  0  0  0  0  0  0
  1  2  1  0
  2  3  1  0
  3  4  2  0
  4  5  1  0
  5  6  2  0
  6  7  1  0
  7  8  1  0
  8  9  2  0
  9 10  1  0
 10 11  1  0
 11 12  2  0
 12 13  1  0
 13 14  1  0
 14 15  1  0
 15 16  1  0
 16 17  1  0
 17 18  1  0
 18 19  1  0
 19 20  1  0
 11 21  1  0
 21 22  2  0
 22 23  1  0
 23 24  1  0
  6 25  1  0
 25 26  2  0
 26  3  1  0
 24  7  1  0
 24 10  2  0
 20 15  1  0
  1 27  1  0
  1 28  1  0
  1 29  1  0
  4 30  1  0
  5 31  1  0
  9 32  1  0
 13 33  1  0
 13 34  1  0
 14 35  1  0
 14 36  1  0
 16 37  1  0
 16 38  1  0
 17 39  1  0
 17 40  1  0
 18 41  1  0
 18 42  1  0
 19 43  1  0
 19 44  1  0
 20 45  1  0
 20 46  1  0
 22 47  1  0
 23 48  1  0
 25 49  1  0
 26 50  1  0
M  END
>  <smiles>  (35) 
COc1ccc(-n2ncc3c(=NCCN4CCCCC4)nc[nH]c32)cc1

>  <score_type>  (35) 
oracle

>  <origin>  (35) 
adg

>  <m_score__min__energy>  (35) 
-8.2200000000000006

>  <m_primary>  (35) 
energy

$$$$
35:0
     RDKit          3D

 35 36  0  0  0  0  0  0  0  0999 V2000
   60.4450   28.0150   45.6160 C   0  0  0  0  0  0  0  0  0  0  0  0
   59.1780   28.3580   44.9070 C   0  0  0  0  0  0  0  0  0  0  0  0
   58.3910   27.5080   44.1520 C   0  0  0  0  0  0  0  0  0  0  0  0
   57.4010   28.2310   43.5960 N   0  0  0  0  0  0  0  0  0  0  0  0
   57.5450   29.4970   43.9560 N   0  0  0  0  0  0  0  0  0  0  0  0
   56.6740   30.5850   43.5190 C   0  0  0  0  0  0  0  0  0  0  0  0
   57.3970   31.5360   42.5550 C   0  0  0  0  0  0  0  0  0  0  0  0
   58.1300   32.6950   43.2640 C   0  0  0  0  0  0  0  0  0  0  0  0
   57.3830   33.2580   44.4850 C   0  0  0  0  0  0  0  0  0  0  0  0
   58.2970   33.4830   45.6640 C   0  0  0  0  0  0  0  0  0  0  0  0
   58.2020   32.6610   46.8000 C   0  0  0  0  0  0  0  0  0  0  0  0
   59.0380   32.8770   47.8980 C   0  0  0  0  0  0  0  0  0  0  0  0
   59.9760   33.9150   47.8730 C   0  0  0  0  0  0  0  0  0  0  0  0
   61.0250   34.1850   49.2530 Cl  0  0  0  0  0  0  0  0  0  0  0  0
   60.0770   34.7360   46.7450 C   0  0  0  0  0  0  0  0  0  0  0  0
   59.2420   34.5220   45.6450 C   0  0  0  0  0  0  0  0  0  0  0  0
   58.6240   29.6140   44.7550 C   0  0  0  0  0  0  0  0  0  0  0  0
   60.2806   28.0595   46.7027 H   0  0  0  0  0  0  0  0  0  0  0  0
   60.7596   26.9994   45.3340 H   0  0  0  0  0  0  0  0  0  0  0  0
   61.2290   28.7332   45.3340 H   0  0  0  0  0  0  0  0  0  0  0  0
   58.5472   26.4263   44.0271 H   0  0  0  0  0  0  0  0  0  0  0  0
   56.6510   27.8690   42.9670 H   0  0  0  0  0  0  0  0  0  0  0  0
   55.7980   30.1579   43.0089 H   0  0  0  0  0  0  0  0  0  0  0  0
   56.3707   31.1601   44.4063 H   0  0  0  0  0  0  0  0  0  0  0  0
   58.1357   30.9556   41.9828 H   0  0  0  0  0  0  0  0  0  0  0  0
   56.6286   31.9869   41.9099 H   0  0  0  0  0  0  0  0  0  0  0  0
   59.1120   32.3293   43.5985 H   0  0  0  0  0  0  0  0  0  0  0  0
   58.2074   33.5145   42.5343 H   0  0  0  0  0  0  0  0  0  0  0  0
   56.9230   34.2175   44.2063 H   0  0  0  0  0  0  0  0  0  0  0  0
   56.6245   32.5197   44.7843 H   0  0  0  0  0  0  0  0  0  0  0  0
   57.4660   31.8439   46.8246 H   0  0  0  0  0  0  0  0  0  0  0  0
   58.9588   32.2299   48.7840 H   0  0  0  0  0  0  0  0  0  0  0  0
   60.8149   35.5515   46.7237 H   0  0  0  0  0  0  0  0  0  0  0  0
   59.3252   35.1702   44.7602 H   0  0  0  0  0  0  0  0  0  0  0  0
   58.9974   30.5451   45.2063 H   0  0  0  0  0  0  0  0  0  0  0  0
  1  2  1  0
  2  3  1  0
  3  4  2  0
  4  5  1  0
  5  6  1  0
  6  7  1  0
  7  8  1  0
  8  9  1  0
  9 10  1  0
 10 11  2  0
 11 12  1  0
 12 13  2  0
 13 14  1  0
 13 15  1  0
 15 16  2  0
  5 17  1  0
 17  2  2  0
 16 10  1  0
  1 18  1  0
  1 19  1  0
  1 20  1  0
  3 21  1  0
  4 22  1  0
  6 23  1  0
  6 24  1  0
  7 25  1  0
  7 26  1  0
  8 27  1  0
  8 28  1  0
  9 29  1  0
  9 30  1  0
 11 31  1  0
 12 32  1  0
 15 33  1  0
 16 34  1  0
 17 35  1  0
M  CHG  1   4   1
M  END
>  <UniqueID>  (36) 
31

>  <SMILES>  (36) 
Cc1c[nH+]n(CCCCc2ccc(Cl)cc2)c1

>  <Energy>  (36) 
57.98094857263543

>  <Genealogy>  (36) 
Cc1c[nH+]n(CCCCc2ccc(Cl)cc2)c1 (protonated)
Cc1c[nH+]n(CCCCc2ccc(Cl)cc2)c1 (3D coordinates assigned)
Cc1c[nH+]n(CCCCc2ccc(Cl)cc2)c1 (optimized conformer: 57.98094857263543 kcal/mol)

>  <smiles>  (36) 
Cc1cnn(CCCCc2ccc(Cl)cc2)c1

>  <score_type>  (36) 
oracle

>  <origin>  (36) 
adg

>  <m_score__min__energy>  (36) 
-5.7000000000000002

>  <m_primary>  (36) 
energy

$$$$
36:0
     RDKit          3D

 49 52  0  0  0  0  0  0  0  0999 V2000
   55.9800   29.8880   43.4620 C   0  0  0  0  0  0  0  0  0  0  0  0
   57.3850   30.3240   43.5130 N   0  0  0  0  0  0  0  0  0  0  0  0
   57.5930   31.7870   43.4920 C   0  0  0  0  0  0  0  0  0  0  0  0
   57.6850   32.4200   44.8560 C   0  0  0  0  0  0  0  0  0  0  0  0
   58.8360   32.6140   45.5230 N   0  0  0  0  0  0  0  0  0  0  0  0
   58.4310   33.2770   46.6210 C   0  0  0  0  0  0  0  0  0  0  0  0
   59.3530   33.8100   47.6720 C   0  0  0  0  0  0  0  0  0  0  0  0
   60.7060   33.1520   47.5910 C   0  0  0  0  0  0  0  0  0  0  0  0
   61.8170   33.9230   47.2020 C   0  0  0  0  0  0  0  0  0  0  0  0
   63.0760   33.3350   47.0660 C   0  0  0  0  0  0  0  0  0  0  0  0
   63.2430   31.9740   47.3230 C   0  0  0  0  0  0  0  0  0  0  0  0
   62.1590   31.2040   47.7480 C   0  0  0  0  0  0  0  0  0  0  0  0
   60.8920   31.7820   47.8910 C   0  0  0  0  0  0  0  0  0  0  0  0
   59.4590   30.6570   48.4930 Br  0  0  0  0  0  0  0  0  0  0  0  0
   57.0970   33.4660   46.6290 N   0  0  0  0  0  0  0  0  0  0  0  0
   56.6750   32.9280   45.5210 O   0  0  0  0  0  0  0  0  0  0  0  0
   58.2300   29.5690   44.4620 C   0  0  0  0  0  0  0  0  0  0  0  0
   57.8020   28.1410   44.6650 C   0  0  0  0  0  0  0  0  0  0  0  0
   57.2110   27.6330   45.8160 C   0  0  0  0  0  0  0  0  0  0  0  0
   57.0170   26.2480   45.7770 C   0  0  0  0  0  0  0  0  0  0  0  0
   57.4500   25.6600   44.5910 C   0  0  0  0  0  0  0  0  0  0  0  0
   57.4090   24.2200   44.2600 C   0  0  0  0  0  0  0  0  0  0  0  0
   56.4830   23.7350   43.3190 C   0  0  0  0  0  0  0  0  0  0  0  0
   56.4440   22.3730   43.0020 C   0  0  0  0  0  0  0  0  0  0  0  0
   57.3350   21.4870   43.6120 C   0  0  0  0  0  0  0  0  0  0  0  0
   58.2670   21.9600   44.5390 C   0  0  0  0  0  0  0  0  0  0  0  0
   58.3030   23.3190   44.8660 C   0  0  0  0  0  0  0  0  0  0  0  0
   58.0860   26.8670   43.6040 S   0  0  0  0  0  0  0  0  0  0  0  0
   55.5957   29.7687   44.4858 H   0  0  0  0  0  0  0  0  0  0  0  0
   55.3810   30.6425   42.9311 H   0  0  0  0  0  0  0  0  0  0  0  0
   55.9134   28.9269   42.9311 H   0  0  0  0  0  0  0  0  0  0  0  0
   58.5288   31.9942   42.9523 H   0  0  0  0  0  0  0  0  0  0  0  0
   56.7106   32.2235   43.0012 H   0  0  0  0  0  0  0  0  0  0  0  0
   59.8060   32.3550   45.2360 H   0  0  0  0  0  0  0  0  0  0  0  0
   59.4717   34.8942   47.5295 H   0  0  0  0  0  0  0  0  0  0  0  0
   58.9186   33.5951   48.6595 H   0  0  0  0  0  0  0  0  0  0  0  0
   61.6926   34.9977   47.0034 H   0  0  0  0  0  0  0  0  0  0  0  0
   63.9370   33.9454   46.7559 H   0  0  0  0  0  0  0  0  0  0  0  0
   64.2301   31.5071   47.1906 H   0  0  0  0  0  0  0  0  0  0  0  0
   62.3012   30.1365   47.9719 H   0  0  0  0  0  0  0  0  0  0  0  0
   59.2620   29.5693   44.0812 H   0  0  0  0  0  0  0  0  0  0  0  0
   58.1363   30.0695   45.4371 H   0  0  0  0  0  0  0  0  0  0  0  0
   56.9239   28.2589   46.6738 H   0  0  0  0  0  0  0  0  0  0  0  0
   56.5661   25.6786   46.6031 H   0  0  0  0  0  0  0  0  0  0  0  0
   55.7855   24.4306   42.8295 H   0  0  0  0  0  0  0  0  0  0  0  0
   55.7110   21.9995   42.2717 H   0  0  0  0  0  0  0  0  0  0  0  0
   57.3028   20.4162   43.3623 H   0  0  0  0  0  0  0  0  0  0  0  0
   58.9735   21.2623   45.0123 H   0  0  0  0  0  0  0  0  0  0  0  0
   59.0345   23.6855   45.6012 H   0  0  0  0  0  0  0  0  0  0  0  0
  1  2  1  0
  2  3  1  0
  3  4  1  0
  4  5  2  0
  5  6  1  0
  6  7  1  0
  7  8  1  0
  8  9  2  0
  9 10  1  0
 10 11  2  0
 11 12  1  0
 12 13  2  0
 13 14  1  0
  6 15  2  0
 15 16  1  0
  2 17  1  0
 17 18  1  0
 18 19  2  0
 19 20  1  0
 20 21  2  0
 21 22  1  0
 22 23  2  0
 23 24  1  0
 24 25  2  0
 25 26  1  0
 26 27  2  0
 21 28  1  0
 16  4  1  0
 28 18  1  0
 13  8  1  0
 27 22  1  0
  1 29  1  0
  1 30  1  0
  1 31  1  0
  3 32  1  0
  3 33  1  0
  5 34  1  0
  7 35  1  0
  7 36  1  0
  9 37  1  0
 10 38  1  0
 11 39  1  0
 12 40  1  0
 17 41  1  0
 17 42  1  0
 19 43  1  0
 20 44  1  0
 23 45  1  0
 24 46  1  0
 25 47  1  0
 26 48  1  0
 27 49  1  0
M  CHG  1   5   1
M  END
>  <UniqueID>  (37) 
32

>  <SMILES>  (37) 
CN(Cc1[nH+]c(Cc2ccccc2Br)no1)Cc1ccc(-c2ccccc2)s1

>  <Energy>  (37) 
115.05020031341084

>  <Genealogy>  (37) 
CN(Cc1[nH+]c(Cc2ccccc2Br)no1)Cc1ccc(-c2ccccc2)s1 (protonated)
CN(Cc1[nH+]c(Cc2ccccc2Br)no1)Cc1ccc(-c2ccccc2)s1 (3D coordinates assigned)
CN(Cc1[nH+]c(Cc2ccccc2Br)no1)Cc1ccc(-c2ccccc2)s1 (optimized conformer: 115.05020031341084 kcal/mol)

>  <smiles>  (37) 
CN(Cc1nc(Cc2ccccc2Br)no1)Cc1ccc(-c2ccccc2)s1

>  <score_type>  (37) 
oracle

>  <origin>  (37) 
adg

>  <m_score__min__energy>  (37) 
-8.6400000000000006

>  <m_primary>  (37) 
energy

$$$$
37:0
     RDKit          3D

 40 42  0  0  0  0  0  0  0  0999 V2000
   61.1060   28.8870   44.8740 C   0  0  0  0  0  0  0  0  0  0  0  0
   60.1670   28.8430   45.9420 O   0  0  0  0  0  0  0  0  0  0  0  0
   59.1340   27.8980   46.0590 C   0  0  0  0  0  0  0  0  0  0  0  0
   59.1570   26.8990   47.0490 C   0  0  0  0  0  0  0  0  0  0  0  0
   58.1290   25.9590   47.1340 C   0  0  0  0  0  0  0  0  0  0  0  0
   57.0430   26.0080   46.2450 C   0  0  0  0  0  0  0  0  0  0  0  0
   55.9560   24.9970   46.2910 C   0  0  0  0  0  0  0  0  0  0  0  0
   56.1140   23.7700   46.9600 C   0  0  0  0  0  0  0  0  0  0  0  0
   55.0610   22.8520   46.9710 C   0  0  0  0  0  0  0  0  0  0  0  0
   53.8640   23.1580   46.3240 C   0  0  0  0  0  0  0  0  0  0  0  0
   53.7340   24.3870   45.6760 C   0  0  0  0  0  0  0  0  0  0  0  0
   54.7690   25.2670   45.6760 N   0  0  0  0  0  0  0  0  0  0  0  0
   57.0120   27.0160   45.2680 C   0  0  0  0  0  0  0  0  0  0  0  0
   58.0590   27.9490   45.1520 C   0  0  0  0  0  0  0  0  0  0  0  0
   58.0430   28.9480   44.1130 N   0  0  0  0  0  0  0  0  0  0  0  0
   56.9130   30.2650   44.0770 S   0  0  0  0  0  0  0  0  0  0  0  0
   56.5380   30.5520   42.6500 O   0  0  0  0  0  0  0  0  0  0  0  0
   55.6760   29.8830   44.8400 O   0  0  0  0  0  0  0  0  0  0  0  0
   57.6250   31.6880   44.8350 C   0  0  0  0  0  0  0  0  0  0  0  0
   57.6890   32.9090   44.1480 C   0  0  0  0  0  0  0  0  0  0  0  0
   58.3080   34.0160   44.7380 C   0  0  0  0  0  0  0  0  0  0  0  0
   58.8640   33.9080   46.0170 C   0  0  0  0  0  0  0  0  0  0  0  0
   59.6480   35.2950   46.7530 Cl  0  0  0  0  0  0  0  0  0  0  0  0
   58.7960   32.6940   46.7080 C   0  0  0  0  0  0  0  0  0  0  0  0
   58.1790   31.5860   46.1180 C   0  0  0  0  0  0  0  0  0  0  0  0
   62.1256   28.9348   45.2840 H   0  0  0  0  0  0  0  0  0  0  0  0
   61.0012   27.9830   44.2562 H   0  0  0  0  0  0  0  0  0  0  0  0
   60.9171   29.7773   44.2562 H   0  0  0  0  0  0  0  0  0  0  0  0
   59.9930   26.8583   47.7628 H   0  0  0  0  0  0  0  0  0  0  0  0
   58.1697   25.1737   47.9032 H   0  0  0  0  0  0  0  0  0  0  0  0
   57.0595   23.5350   47.4707 H   0  0  0  0  0  0  0  0  0  0  0  0
   55.1759   21.8887   47.4895 H   0  0  0  0  0  0  0  0  0  0  0  0
   53.0318   22.4387   46.3245 H   0  0  0  0  0  0  0  0  0  0  0  0
   52.7939   24.6431   45.1654 H   0  0  0  0  0  0  0  0  0  0  0  0
   56.1546   27.0774   44.5816 H   0  0  0  0  0  0  0  0  0  0  0  0
   58.6470   28.8260   43.2700 H   0  0  0  0  0  0  0  0  0  0  0  0
   57.2513   32.9964   43.1426 H   0  0  0  0  0  0  0  0  0  0  0  0
   58.3576   34.9719   44.1959 H   0  0  0  0  0  0  0  0  0  0  0  0
   59.2280   32.6104   47.7162 H   0  0  0  0  0  0  0  0  0  0  0  0
   58.1285   30.6317   46.6628 H   0  0  0  0  0  0  0  0  0  0  0  0
  1  2  1  0
  2  3  1  0
  3  4  2  0
  4  5  1  0
  5  6  2  0
  6  7  1  0
  7  8  2  0
  8  9  1  0
  9 10  2  0
 10 11  1  0
 11 12  2  0
  6 13  1  0
 13 14  2  0
 14 15  1  0
 15 16  1  0
 16 17  2  0
 16 18  2  0
 16 19  1  0
 19 20  2  0
 20 21  1  0
 21 22  2  0
 22 23  1  0
 22 24  1  0
 24 25  2  0
 14  3  1  0
 25 19  1  0
 12  7  1  0
  1 26  1  0
  1 27  1  0
  1 28  1  0
  4 29  1  0
  5 30  1  0
  8 31  1  0
  9 32  1  0
 10 33  1  0
 11 34  1  0
 13 35  1  0
 15 36  1  0
 20 37  1  0
 21 38  1  0
 24 39  1  0
 25 40  1  0
M  END
>  <UniqueID>  (38) 
33

>  <SMILES>  (38) 
COc1ccc(-c2ccccn2)cc1NS(=O)(=O)c1ccc(Cl)cc1

>  <Energy>  (38) 
49.30306399812286

>  <Genealogy>  (38) 
COc1ccc(-c2ccccn2)cc1NS(=O)(=O)c1ccc(Cl)cc1 (3D coordinates assigned)
COc1ccc(-c2ccccn2)cc1NS(=O)(=O)c1ccc(Cl)cc1 (optimized conformer: 49.30306399812286 kcal/mol)

>  <smiles>  (38) 
COc1ccc(-c2ccccn2)cc1NS(=O)(=O)c1ccc(Cl)cc1

>  <score_type>  (38) 
oracle

>  <origin>  (38) 
adg

>  <m_score__min__energy>  (38) 
-9.0299999999999994

>  <m_primary>  (38) 
energy

$$$$
38:0
     RDKit          3D

 47 50  0  0  0  0  0  0  0  0999 V2000
   56.3310   30.8000   52.2890 C   0  0  0  0  0  0  0  0  0  0  0  0
   57.0700   30.1960   51.2330 O   0  0  0  0  0  0  0  0  0  0  0  0
   58.1670   30.7910   50.5930 C   0  0  0  0  0  0  0  0  0  0  0  0
   59.1480   30.0370   49.9190 C   0  0  0  0  0  0  0  0  0  0  0  0
   60.2250   30.6770   49.2980 C   0  0  0  0  0  0  0  0  0  0  0  0
   60.3450   32.0750   49.3470 C   0  0  0  0  0  0  0  0  0  0  0  0
   61.4860   32.7510   48.6860 C   0  0  0  0  0  0  0  0  0  0  0  0
   62.6680   32.9410   49.4250 C   0  0  0  0  0  0  0  0  0  0  0  0
   63.8040   33.4840   48.8230 C   0  0  0  0  0  0  0  0  0  0  0  0
   63.7790   33.8380   47.4760 C   0  0  0  0  0  0  0  0  0  0  0  0
   62.6120   33.6710   46.7290 C   0  0  0  0  0  0  0  0  0  0  0  0
   61.4500   33.1470   47.3230 C   0  0  0  0  0  0  0  0  0  0  0  0
   60.2210   33.0620   46.5010 C   0  0  0  0  0  0  0  0  0  0  0  0
   59.4730   31.9430   46.3900 N   0  0  0  0  0  0  0  0  0  0  0  0
   58.5120   32.3420   45.5280 C   0  0  0  0  0  0  0  0  0  0  0  0
   57.3960   31.4570   45.0520 C   0  0  0  0  0  0  0  0  0  0  0  0
   57.4460   31.2920   43.5260 C   0  0  0  0  0  0  0  0  0  0  0  0
   56.2750   30.4210   43.0200 C   0  0  0  0  0  0  0  0  0  0  0  0
   55.7320   29.5030   44.0400 N   0  0  0  0  0  0  0  0  0  0  0  0
   56.7850   28.9710   44.9150 C   0  0  0  0  0  0  0  0  0  0  0  0
   57.4500   30.0830   45.7520 C   0  0  0  0  0  0  0  0  0  0  0  0
   58.6870   33.5840   45.1450 O   0  0  0  0  0  0  0  0  0  0  0  0
   59.7410   34.0580   45.7310 N   0  0  0  0  0  0  0  0  0  0  0  0
   59.3580   32.8250   50.0080 C   0  0  0  0  0  0  0  0  0  0  0  0
   58.2830   32.1850   50.6290 C   0  0  0  0  0  0  0  0  0  0  0  0
   56.7364   30.4687   53.2564 H   0  0  0  0  0  0  0  0  0  0  0  0
   56.4111   31.8945   52.2133 H   0  0  0  0  0  0  0  0  0  0  0  0
   55.2744   30.5036   52.2133 H   0  0  0  0  0  0  0  0  0  0  0  0
   59.0663   28.9407   49.8812 H   0  0  0  0  0  0  0  0  0  0  0  0
   60.9829   30.0815   48.7678 H   0  0  0  0  0  0  0  0  0  0  0  0
   62.6971   32.6588   50.4878 H   0  0  0  0  0  0  0  0  0  0  0  0
   64.7204   33.6326   49.4130 H   0  0  0  0  0  0  0  0  0  0  0  0
   64.6810   34.2501   47.0000 H   0  0  0  0  0  0  0  0  0  0  0  0
   62.6010   33.9519   45.6655 H   0  0  0  0  0  0  0  0  0  0  0  0
   56.4421   31.9378   45.3144 H   0  0  0  0  0  0  0  0  0  0  0  0
   57.3845   32.2844   43.0555 H   0  0  0  0  0  0  0  0  0  0  0  0
   58.3904   30.7947   43.2600 H   0  0  0  0  0  0  0  0  0  0  0  0
   55.4657   31.0874   42.6870 H   0  0  0  0  0  0  0  0  0  0  0  0
   56.6688   29.7970   42.2042 H   0  0  0  0  0  0  0  0  0  0  0  0
   55.0330   30.0150   44.6280 H   0  0  0  0  0  0  0  0  0  0  0  0
   56.3414   28.2298   45.5960 H   0  0  0  0  0  0  0  0  0  0  0  0
   57.5576   28.5122   44.2805 H   0  0  0  0  0  0  0  0  0  0  0  0
   56.9290   30.1578   46.7179 H   0  0  0  0  0  0  0  0  0  0  0  0
   58.5086   29.8154   45.8851 H   0  0  0  0  0  0  0  0  0  0  0  0
   60.1350   35.0120   45.5840 H   0  0  0  0  0  0  0  0  0  0  0  0
   59.4322   33.9221   50.0366 H   0  0  0  0  0  0  0  0  0  0  0  0
   57.5208   32.7821   51.1510 H   0  0  0  0  0  0  0  0  0  0  0  0
  1  2  1  0
  2  3  1  0
  3  4  2  0
  4  5  1  0
  5  6  2  0
  6  7  1  0
  7  8  2  0
  8  9  1  0
  9 10  2  0
 10 11  1  0
 11 12  2  0
 12 13  1  0
 13 14  1  0
 14 15  2  0
 15 16  1  0
 16 17  1  0
 17 18  1  0
 18 19  1  0
 19 20  1  0
 20 21  1  0
 15 22  1  0
 22 23  1  0
  6 24  1  0
 24 25  2  0
 25  3  1  0
 12  7  1  0
 23 13  2  0
 21 16  1  0
  1 26  1  0
  1 27  1  0
  1 28  1  0
  4 29  1  0
  5 30  1  0
  8 31  1  0
  9 32  1  0
 10 33  1  0
 11 34  1  0
 16 35  1  0
 17 36  1  0
 17 37  1  0
 18 38  1  0
 18 39  1  0
 19 40  1  0
 20 41  1  0
 20 42  1  0
 21 43  1  0
 21 44  1  0
 23 45  1  0
 24 46  1  0
 25 47  1  0
M  CHG  1  23   1
M  END
>  <UniqueID>  (39) 
34

>  <SMILES>  (39) 
COc1ccc(-c2ccccc2-c2nc(C3CCNCC3)o[nH+]2)cc1

>  <Energy>  (39) 
98.07816008729782

>  <Genealogy>  (39) 
COc1ccc(-c2ccccc2-c2nc(C3CCNCC3)o[nH+]2)cc1 (protonated)
COc1ccc(-c2ccccc2-c2nc(C3CCNCC3)o[nH+]2)cc1 (3D coordinates assigned)
COc1ccc(-c2ccccc2-c2nc(C3CCNCC3)o[nH+]2)cc1 (nonaromatic ring conformer: 98.07816008729782 kcal/mol)

>  <smiles>  (39) 
COc1ccc(-c2ccccc2-c2noc(C3CCNCC3)n2)cc1

>  <score_type>  (39) 
oracle

>  <origin>  (39) 
adg

>  <m_score__min__energy>  (39) 
-6.8799999999999999

>  <m_primary>  (39) 
energy

$$$$
39:0
     RDKit          3D

 35 37  0  0  0  0  0  0  0  0999 V2000
   59.3890   27.4060   47.6300 C   0  0  0  0  0  0  0  0  0  0  0  0
   59.3150   28.8670   47.2990 C   0  0  0  0  0  0  0  0  0  0  0  0
   59.2920   29.2900   45.9620 C   0  0  0  0  0  0  0  0  0  0  0  0
   59.2580   30.6520   45.6540 C   0  0  0  0  0  0  0  0  0  0  0  0
   59.2600   31.6110   46.6780 C   0  0  0  0  0  0  0  0  0  0  0  0
   59.2170   33.0130   46.3620 N   0  0  0  0  0  0  0  0  0  0  0  0
   58.2890   33.6670   45.6250 C   0  0  0  0  0  0  0  0  0  0  0  0
   57.0420   33.0550   45.0700 C   0  0  0  0  0  0  0  0  0  0  0  0
   58.6290   34.9560   45.4290 N   0  0  0  0  0  0  0  0  0  0  0  0
   59.7940   35.1280   46.0310 N   0  0  0  0  0  0  0  0  0  0  0  0
   60.1550   33.9600   46.5960 C   0  0  0  0  0  0  0  0  0  0  0  0
   61.3920   33.7810   47.3890 C   0  0  0  0  0  0  0  0  0  0  0  0
   61.3910   33.9740   48.7830 C   0  0  0  0  0  0  0  0  0  0  0  0
   62.5670   33.8070   49.5190 C   0  0  0  0  0  0  0  0  0  0  0  0
   63.7560   33.4590   48.8720 C   0  0  0  0  0  0  0  0  0  0  0  0
   64.8960   33.2980   49.5880 F   0  0  0  0  0  0  0  0  0  0  0  0
   63.7700   33.2820   47.4860 C   0  0  0  0  0  0  0  0  0  0  0  0
   62.5950   33.4480   46.7460 C   0  0  0  0  0  0  0  0  0  0  0  0
   59.3030   31.1880   48.0150 C   0  0  0  0  0  0  0  0  0  0  0  0
   59.3360   29.8250   48.3240 C   0  0  0  0  0  0  0  0  0  0  0  0
   59.3955   27.2774   48.7224 H   0  0  0  0  0  0  0  0  0  0  0  0
   58.5159   26.8891   47.2052 H   0  0  0  0  0  0  0  0  0  0  0  0
   60.3099   26.9800   47.2052 H   0  0  0  0  0  0  0  0  0  0  0  0
   59.3008   28.5457   45.1521 H   0  0  0  0  0  0  0  0  0  0  0  0
   59.2295   30.9745   44.6027 H   0  0  0  0  0  0  0  0  0  0  0  0
   56.3909   32.7355   45.8970 H   0  0  0  0  0  0  0  0  0  0  0  0
   56.5133   33.7960   44.4524 H   0  0  0  0  0  0  0  0  0  0  0  0
   57.3047   32.1835   44.4524 H   0  0  0  0  0  0  0  0  0  0  0  0
   60.3130   36.0320   46.0650 H   0  0  0  0  0  0  0  0  0  0  0  0
   60.4600   34.2577   49.2957 H   0  0  0  0  0  0  0  0  0  0  0  0
   62.5570   33.9497   50.6097 H   0  0  0  0  0  0  0  0  0  0  0  0
   64.7065   33.0117   46.9763 H   0  0  0  0  0  0  0  0  0  0  0  0
   62.6133   33.3170   45.6540 H   0  0  0  0  0  0  0  0  0  0  0  0
   59.3108   31.9328   48.8245 H   0  0  0  0  0  0  0  0  0  0  0  0
   59.3786   29.5023   49.3747 H   0  0  0  0  0  0  0  0  0  0  0  0
  1  2  1  0
  2  3  2  0
  3  4  1  0
  4  5  2  0
  5  6  1  0
  6  7  1  0
  7  8  1  0
  7  9  2  0
  9 10  1  0
 10 11  2  0
 11 12  1  0
 12 13  2  0
 13 14  1  0
 14 15  2  0
 15 16  1  0
 15 17  1  0
 17 18  2  0
  5 19  1  0
 19 20  2  0
 20  2  1  0
 11  6  1  0
 18 12  1  0
  1 21  1  0
  1 22  1  0
  1 23  1  0
  3 24  1  0
  4 25  1  0
  8 26  1  0
  8 27  1  0
  8 28  1  0
 10 29  1  0
 13 30  1  0
 14 31  1  0
 17 32  1  0
 18 33  1  0
 19 34  1  0
 20 35  1  0
M  CHG  1  10   1
M  END
>  <UniqueID>  (40) 
35

>  <SMILES>  (40) 
Cc1ccc(-n2c(C)n[nH+]c2-c2ccc(F)cc2)cc1

>  <Energy>  (40) 
80.2117067230957

>  <Genealogy>  (40) 
Cc1ccc(-n2c(C)n[nH+]c2-c2ccc(F)cc2)cc1 (protonated)
Cc1ccc(-n2c(C)n[nH+]c2-c2ccc(F)cc2)cc1 (3D coordinates assigned)
Cc1ccc(-n2c(C)n[nH+]c2-c2ccc(F)cc2)cc1 (optimized conformer: 80.2117067230957 kcal/mol)

>  <smiles>  (40) 
Cc1ccc(-n2c(C)nnc2-c2ccc(F)cc2)cc1

>  <score_type>  (40) 
oracle

>  <origin>  (40) 
adg

>  <m_score__min__energy>  (40) 
-5.21

>  <m_primary>  (40) 
energy

$$$$
40:0
     RDKit          3D

 36 37  0  0  0  0  0  0  0  0999 V2000
   59.6370   33.7620   48.8300 C   0  0  0  0  0  0  0  0  0  0  0  0
   59.2400   33.8340   47.3850 C   0  0  0  0  0  0  0  0  0  0  0  0
   59.6500   34.9170   46.5940 C   0  0  0  0  0  0  0  0  0  0  0  0
   59.2600   34.9950   45.2550 C   0  0  0  0  0  0  0  0  0  0  0  0
   58.4410   34.0060   44.7030 C   0  0  0  0  0  0  0  0  0  0  0  0
   57.9890   32.9350   45.4930 C   0  0  0  0  0  0  0  0  0  0  0  0
   57.1730   31.8830   44.9460 N   0  0  0  0  0  0  0  0  0  0  0  0
   57.5030   31.1310   43.7620 C   0  0  0  0  0  0  0  0  0  0  0  0
   58.3930   31.5530   42.9750 O   0  0  0  0  0  0  0  0  0  0  0  0
   56.8000   29.8350   43.4270 C   0  0  2  0  0  0  0  0  0  0  0  0
   55.4160   29.7020   44.0700 C   0  0  0  0  0  0  0  0  0  0  0  0
   57.8440   28.3550   43.7480 S   0  0  0  0  0  0  0  0  0  0  0  0
   58.6960   28.9360   45.2220 C   0  0  0  0  0  0  0  0  0  0  0  0
   60.0230   29.3760   45.1320 C   0  0  0  0  0  0  0  0  0  0  0  0
   60.6900   29.8320   46.2730 C   0  0  0  0  0  0  0  0  0  0  0  0
   60.0410   29.8260   47.5110 C   0  0  0  0  0  0  0  0  0  0  0  0
   58.7290   29.3530   47.6110 C   0  0  0  0  0  0  0  0  0  0  0  0
   58.0600   28.8980   46.4700 C   0  0  0  0  0  0  0  0  0  0  0  0
   58.4040   32.8520   46.8320 C   0  0  0  0  0  0  0  0  0  0  0  0
   58.7512   33.9227   49.4621 H   0  0  0  0  0  0  0  0  0  0  0  0
   60.0652   32.7716   49.0437 H   0  0  0  0  0  0  0  0  0  0  0  0
   60.3857   34.5390   49.0437 H   0  0  0  0  0  0  0  0  0  0  0  0
   60.2801   35.7068   47.0290 H   0  0  0  0  0  0  0  0  0  0  0  0
   59.5983   35.8370   44.6333 H   0  0  0  0  0  0  0  0  0  0  0  0
   58.1485   34.0662   43.6443 H   0  0  0  0  0  0  0  0  0  0  0  0
   56.2660   31.6900   45.4250 H   0  0  0  0  0  0  0  0  0  0  0  0
   56.6283   29.8806   42.3414 H   0  0  0  0  0  0  0  0  0  0  0  0
   55.5181   29.7118   45.1652 H   0  0  0  0  0  0  0  0  0  0  0  0
   54.7821   30.5434   43.7533 H   0  0  0  0  0  0  0  0  0  0  0  0
   54.9540   28.7553   43.7533 H   0  0  0  0  0  0  0  0  0  0  0  0
   60.5411   29.3627   44.1618 H   0  0  0  0  0  0  0  0  0  0  0  0
   61.7254   30.1955   46.1965 H   0  0  0  0  0  0  0  0  0  0  0  0
   60.5627   30.1936   48.4070 H   0  0  0  0  0  0  0  0  0  0  0  0
   58.2227   29.3387   48.5875 H   0  0  0  0  0  0  0  0  0  0  0  0
   57.0340   28.5101   46.5525 H   0  0  0  0  0  0  0  0  0  0  0  0
   58.0702   32.0083   47.4539 H   0  0  0  0  0  0  0  0  0  0  0  0
  1  2  1  0
  2  3  2  0
  3  4  1  0
  4  5  2  0
  5  6  1  0
  6  7  1  0
  7  8  1  0
  8  9  2  0
  8 10  1  0
 10 11  1  0
 10 12  1  0
 12 13  1  0
 13 14  2  0
 14 15  1  0
 15 16  2  0
 16 17  1  0
 17 18  2  0
  6 19  2  0
 19  2  1  0
 18 13  1  0
  1 20  1  0
  1 21  1  0
  1 22  1  0
  3 23  1  0
  4 24  1  0
  5 25  1  0
  7 26  1  0
 10 27  1  6
 11 28  1  0
 11 29  1  0
 11 30  1  0
 14 31  1  0
 15 32  1  0
 16 33  1  0
 17 34  1  0
 18 35  1  0
 19 36  1  0
M  END
>  <UniqueID>  (41) 
36

>  <SMILES>  (41) 
Cc1cccc(NC(=O)[C@H](C)Sc2ccccc2)c1

>  <Energy>  (41) 
33.77387721921912

>  <Genealogy>  (41) 
Cc1cccc(NC(=O)[C@H](C)Sc2ccccc2)c1 (chirality)
Cc1cccc(NC(=O)[C@H](C)Sc2ccccc2)c1 (3D coordinates assigned)
Cc1cccc(NC(=O)[C@H](C)Sc2ccccc2)c1 (optimized conformer: 33.77387721921912 kcal/mol)

>  <smiles>  (41) 
Cc1cccc(NC(=O)C(C)Sc2ccccc2)c1

>  <score_type>  (41) 
oracle

>  <origin>  (41) 
adg

>  <m_score__min__energy>  (41) 
-7.1900000000000004

>  <m_primary>  (41) 
energy

$$$$
41:0
     RDKit          3D

 33 35  0  0  0  0  0  0  0  0999 V2000
   58.6090   29.8030   49.8310 C   0  0  0  0  0  0  0  0  0  0  0  0
   58.8270   31.2390   50.1890 C   0  0  0  0  0  0  0  0  0  0  0  0
   58.7590   31.6530   51.5230 C   0  0  0  0  0  0  0  0  0  0  0  0
   58.9840   33.0010   51.8150 C   0  0  0  0  0  0  0  0  0  0  0  0
   58.9420   33.4890   53.2280 C   0  0  0  0  0  0  0  0  0  0  0  0
   59.2730   33.8670   50.8080 N   0  0  0  0  0  0  0  0  0  0  0  0
   59.3290   33.4540   49.5110 C   0  0  0  0  0  0  0  0  0  0  0  0
   59.6240   34.2790   48.5510 N   0  0  0  0  0  0  0  0  0  0  0  0
   59.2390   34.1640   47.1720 C   0  0  0  0  0  0  0  0  0  0  0  0
   58.6050   33.1010   46.6260 N   0  0  0  0  0  0  0  0  0  0  0  0
   58.4340   33.2290   45.2780 C   0  0  0  0  0  0  0  0  0  0  0  0
   57.7520   32.1790   44.4780 C   0  0  0  0  0  0  0  0  0  0  0  0
   57.7310   32.2030   43.0700 C   0  0  0  0  0  0  0  0  0  0  0  0
   57.0700   31.1880   42.3750 C   0  0  0  0  0  0  0  0  0  0  0  0
   56.4410   30.1590   43.0750 C   0  0  0  0  0  0  0  0  0  0  0  0
   56.4820   30.1600   44.4690 C   0  0  0  0  0  0  0  0  0  0  0  0
   57.1280   31.1570   45.1300 N   0  0  0  0  0  0  0  0  0  0  0  0
   58.9590   34.4140   44.7470 C   0  0  0  0  0  0  0  0  0  0  0  0
   59.6530   35.2920   46.0040 S   0  0  0  0  0  0  0  0  0  0  0  0
   59.1160   32.1450   49.2180 N   0  0  0  0  0  0  0  0  0  0  0  0
   58.5183   29.2056   50.7502 H   0  0  0  0  0  0  0  0  0  0  0  0
   57.6862   29.7085   49.2398 H   0  0  0  0  0  0  0  0  0  0  0  0
   59.4622   29.4389   49.2398 H   0  0  0  0  0  0  0  0  0  0  0  0
   58.5335   30.9339   52.3243 H   0  0  0  0  0  0  0  0  0  0  0  0
   59.0157   32.6324   53.9141 H   0  0  0  0  0  0  0  0  0  0  0  0
   59.7845   34.1738   53.4046 H   0  0  0  0  0  0  0  0  0  0  0  0
   57.9949   34.0198   53.4046 H   0  0  0  0  0  0  0  0  0  0  0  0
   58.3250   32.2490   47.1590 H   0  0  0  0  0  0  0  0  0  0  0  0
   58.2314   33.0150   42.5220 H   0  0  0  0  0  0  0  0  0  0  0  0
   57.0455   31.2002   41.2753 H   0  0  0  0  0  0  0  0  0  0  0  0
   55.9187   29.3561   42.5341 H   0  0  0  0  0  0  0  0  0  0  0  0
   55.9914   29.3537   45.0340 H   0  0  0  0  0  0  0  0  0  0  0  0
   58.9238   34.7183   43.6905 H   0  0  0  0  0  0  0  0  0  0  0  0
  1  2  1  0
  2  3  1  0
  3  4  2  0
  4  5  1  0
  4  6  1  0
  6  7  1  0
  7  8  2  3
  8  9  1  0
  9 10  2  0
 10 11  1  0
 11 12  1  0
 12 13  2  0
 13 14  1  0
 14 15  2  0
 15 16  1  0
 16 17  2  0
 11 18  2  0
 18 19  1  0
  7 20  1  0
 20  2  2  0
 19  9  1  0
 17 12  1  0
  1 21  1  0
  1 22  1  0
  1 23  1  0
  3 24  1  0
  5 25  1  0
  5 26  1  0
  5 27  1  0
 10 28  1  0
 13 29  1  0
 14 30  1  0
 15 31  1  0
 16 32  1  0
 18 33  1  0
M  CHG  2   6  -1  10   1
M  END
>  <UniqueID>  (42) 
37

>  <SMILES>  (42) 
Cc1cc(C)[n-]c(=Nc2[nH+]c(-c3ccccn3)cs2)n1

>  <Energy>  (42) 
70.17551279805093

>  <Genealogy>  (42) 
Cc1cc(C)[n-]c(=Nc2[nH+]c(-c3ccccn3)cs2)n1 (protonated)
Cc1cc(C)[n-]c(=Nc2[nH+]c(-c3ccccn3)cs2)n1 (3D coordinates assigned)
Cc1cc(C)[n-]c(=Nc2[nH+]c(-c3ccccn3)cs2)n1 (optimized conformer: 70.17551279805093 kcal/mol)

>  <smiles>  (42) 
Cc1cc(C)[nH]c(=Nc2nc(-c3ccccn3)cs2)n1

>  <score_type>  (42) 
oracle

>  <origin>  (42) 
adg

>  <m_score__min__energy>  (42) 
-6.3200000000000003

>  <m_primary>  (42) 
energy

$$$$
42:0
     RDKit          3D

 31 33  0  0  0  0  0  0  0  0999 V2000
   56.9110   23.1750   43.9940 C   0  0  0  0  0  0  0  0  0  0  0  0
   57.2190   24.0370   45.0850 O   0  0  0  0  0  0  0  0  0  0  0  0
   57.2970   25.4340   44.9930 C   0  0  0  0  0  0  0  0  0  0  0  0
   56.9320   26.2830   46.0550 C   0  0  0  0  0  0  0  0  0  0  0  0
   57.0280   27.6710   45.9130 C   0  0  0  0  0  0  0  0  0  0  0  0
   57.4790   28.2400   44.7090 C   0  0  0  0  0  0  0  0  0  0  0  0
   57.5780   29.7160   44.5910 C   0  0  0  0  0  0  0  0  0  0  0  0
   57.4350   30.3720   43.3540 C   0  0  0  0  0  0  0  0  0  0  0  0
   57.5370   31.7630   43.3020 C   0  0  0  0  0  0  0  0  0  0  0  0
   57.4100   32.3550   42.1960 O   0  0  0  0  0  0  0  0  0  0  0  0
   57.7760   32.4820   44.4820 C   0  0  0  0  0  0  0  0  0  0  0  0
   57.8910   33.8840   44.5010 C   0  0  0  0  0  0  0  0  0  0  0  0
   58.1240   34.5520   45.7070 C   0  0  0  0  0  0  0  0  0  0  0  0
   58.2430   33.8320   46.8980 C   0  0  0  0  0  0  0  0  0  0  0  0
   58.1320   32.4380   46.8910 C   0  0  0  0  0  0  0  0  0  0  0  0
   57.8990   31.7590   45.6900 C   0  0  0  0  0  0  0  0  0  0  0  0
   57.7950   30.4330   45.6930 O   0  0  0  0  0  0  0  0  0  0  0  0
   57.8550   27.3850   43.6560 C   0  0  0  0  0  0  0  0  0  0  0  0
   57.7590   25.9970   43.8000 C   0  0  0  0  0  0  0  0  0  0  0  0
   56.5644   22.2049   44.3797 H   0  0  0  0  0  0  0  0  0  0  0  0
   56.1196   23.6293   43.3798 H   0  0  0  0  0  0  0  0  0  0  0  0
   57.8111   23.0249   43.3798 H   0  0  0  0  0  0  0  0  0  0  0  0
   56.5698   25.8529   47.0004 H   0  0  0  0  0  0  0  0  0  0  0  0
   56.7477   28.3245   46.7522 H   0  0  0  0  0  0  0  0  0  0  0  0
   57.2448   29.7942   42.4375 H   0  0  0  0  0  0  0  0  0  0  0  0
   57.7975   34.4555   43.5658 H   0  0  0  0  0  0  0  0  0  0  0  0
   58.2139   35.6483   45.7179 H   0  0  0  0  0  0  0  0  0  0  0  0
   58.4245   34.3630   47.8441 H   0  0  0  0  0  0  0  0  0  0  0  0
   58.2280   31.8746   47.8309 H   0  0  0  0  0  0  0  0  0  0  0  0
   58.2271   27.8115   42.7128 H   0  0  0  0  0  0  0  0  0  0  0  0
   58.0501   25.3418   42.9658 H   0  0  0  0  0  0  0  0  0  0  0  0
  1  2  1  0
  2  3  1  0
  3  4  2  0
  4  5  1  0
  5  6  2  0
  6  7  1  0
  7  8  2  0
  8  9  1  0
  9 10  2  0
  9 11  1  0
 11 12  2  0
 12 13  1  0
 13 14  2  0
 14 15  1  0
 15 16  2  0
 16 17  1  0
  6 18  1  0
 18 19  2  0
 19  3  1  0
 17  7  1  0
 16 11  1  0
  1 20  1  0
  1 21  1  0
  1 22  1  0
  4 23  1  0
  5 24  1  0
  8 25  1  0
 12 26  1  0
 13 27  1  0
 14 28  1  0
 15 29  1  0
 18 30  1  0
 19 31  1  0
M  END
>  <UniqueID>  (43) 
38

>  <SMILES>  (43) 
COc1ccc(-c2cc(=O)c3ccccc3o2)cc1

>  <Energy>  (43) 
41.87605023035987

>  <Genealogy>  (43) 
COc1ccc(-c2cc(=O)c3ccccc3o2)cc1 (3D coordinates assigned)
COc1ccc(-c2cc(=O)c3ccccc3o2)cc1 (optimized conformer: 41.87605023035987 kcal/mol)

>  <smiles>  (43) 
COc1ccc(-c2cc(=O)c3ccccc3o2)cc1

>  <score_type>  (43) 
oracle

>  <origin>  (43) 
adg

>  <m_score__min__energy>  (43) 
-6.2400000000000002

>  <m_primary>  (43) 
energy

$$$$
43:0
     RDKit          3D

 34 34  0  0  0  0  0  0  0  0999 V2000
   60.9490   28.9120   45.1920 C   0  0  0  0  0  0  0  0  0  0  0  0
   60.4790   27.7140   45.8000 O   0  0  0  0  0  0  0  0  0  0  0  0
   59.1290   27.3350   45.8660 C   0  0  0  0  0  0  0  0  0  0  0  0
   58.8200   26.0630   46.3560 C   0  0  0  0  0  0  0  0  0  0  0  0
   57.4950   25.6320   46.4290 C   0  0  0  0  0  0  0  0  0  0  0  0
   56.4460   26.4770   46.0190 C   0  0  0  0  0  0  0  0  0  0  0  0
   55.1060   26.0590   46.0320 O   0  0  0  0  0  0  0  0  0  0  0  0
   54.6520   24.7910   45.5690 C   0  0  0  0  0  0  0  0  0  0  0  0
   56.7510   27.7740   45.5640 C   0  0  0  0  0  0  0  0  0  0  0  0
   55.7180   28.6660   45.1280 N   0  0  0  0  0  0  0  0  0  0  0  0
   55.9170   29.8400   44.3290 C   0  0  0  0  0  0  0  0  0  0  0  0
   55.1470   30.8220   44.4980 O   0  0  0  0  0  0  0  0  0  0  0  0
   56.9110   29.8650   43.1940 C   0  0  0  0  0  0  0  0  0  0  0  0
   57.9400   30.9050   43.4070 N   0  0  0  0  0  0  0  0  0  0  0  0
   57.8650   31.4140   44.7860 C   0  0  0  0  0  0  0  0  0  0  0  0
   57.7610   32.0200   42.4610 C   0  0  0  0  0  0  0  0  0  0  0  0
   58.0850   28.1860   45.4620 C   0  0  0  0  0  0  0  0  0  0  0  0
   61.2319   29.6330   45.9731 H   0  0  0  0  0  0  0  0  0  0  0  0
   61.8253   28.6864   44.5665 H   0  0  0  0  0  0  0  0  0  0  0  0
   60.1531   29.3424   44.5665 H   0  0  0  0  0  0  0  0  0  0  0  0
   59.6291   25.3954   46.6872 H   0  0  0  0  0  0  0  0  0  0  0  0
   57.2683   24.6251   46.8095 H   0  0  0  0  0  0  0  0  0  0  0  0
   54.4215   24.1471   46.4306 H   0  0  0  0  0  0  0  0  0  0  0  0
   53.7464   24.9260   44.9594 H   0  0  0  0  0  0  0  0  0  0  0  0
   55.4375   24.3205   44.9594 H   0  0  0  0  0  0  0  0  0  0  0  0
   57.4021   28.8831   43.1255 H   0  0  0  0  0  0  0  0  0  0  0  0
   56.3713   30.0946   42.2634 H   0  0  0  0  0  0  0  0  0  0  0  0
   57.9880   30.5795   45.4921 H   0  0  0  0  0  0  0  0  0  0  0  0
   58.6641   32.1524   44.9483 H   0  0  0  0  0  0  0  0  0  0  0  0
   56.8869   31.8905   44.9483 H   0  0  0  0  0  0  0  0  0  0  0  0
   57.6109   32.9551   43.0205 H   0  0  0  0  0  0  0  0  0  0  0  0
   58.6560   32.1111   41.8280 H   0  0  0  0  0  0  0  0  0  0  0  0
   56.8824   31.8264   41.8280 H   0  0  0  0  0  0  0  0  0  0  0  0
   58.3185   29.1839   45.0624 H   0  0  0  0  0  0  0  0  0  0  0  0
  1  2  1  0
  2  3  1  0
  3  4  2  0
  4  5  1  0
  5  6  2  0
  6  7  1  0
  7  8  1  0
  6  9  1  0
  9 10  1  0
 10 11  1  0
 11 12  2  0
 11 13  1  0
 13 14  1  0
 14 15  1  0
 14 16  1  0
  9 17  2  0
 17  3  1  0
  1 18  1  0
  1 19  1  0
  1 20  1  0
  4 21  1  0
  5 22  1  0
  8 23  1  0
  8 24  1  0
  8 25  1  0
 13 26  1  0
 13 27  1  0
 15 28  1  0
 15 29  1  0
 15 30  1  0
 16 31  1  0
 16 32  1  0
 16 33  1  0
 17 34  1  0
M  CHG  1  10  -1
M  END
>  <UniqueID>  (44) 
39

>  <SMILES>  (44) 
COc1ccc(OC)c([N-]C(=O)CN(C)C)c1

>  <Energy>  (44) 
36.29651255500535

>  <Genealogy>  (44) 
COc1ccc(OC)c([N-]C(=O)CN(C)C)c1 (protonated)
COc1ccc(OC)c([N-]C(=O)CN(C)C)c1 (3D coordinates assigned)
COc1ccc(OC)c([N-]C(=O)CN(C)C)c1 (optimized conformer: 36.29651255500535 kcal/mol)

>  <smiles>  (44) 
COc1ccc(OC)c(NC(=O)CN(C)C)c1

>  <score_type>  (44) 
oracle

>  <origin>  (44) 
adg

>  <m_score__min__energy>  (44) 
-8.0099999999999998

>  <m_primary>  (44) 
energy

$$$$
44:0
     RDKit          3D

 44 46  0  0  0  0  0  0  0  0999 V2000
   52.9170   23.7420   45.6090 C   0  0  0  0  0  0  0  0  0  0  0  0
   54.1870   24.4490   45.2590 C   0  0  0  0  0  0  0  0  0  0  0  0
   54.3940   25.5750   45.6830 O   0  0  0  0  0  0  0  0  0  0  0  0
   55.4290   23.6440   44.2380 S   0  0  0  0  0  0  0  0  0  0  0  0
   56.4330   23.0460   45.6450 C   0  0  0  0  0  0  0  0  0  0  0  0
   57.1600   24.1790   46.3180 C   0  0  0  0  0  0  0  0  0  0  0  0
   57.5710   24.0020   47.4970 O   0  0  0  0  0  0  0  0  0  0  0  0
   57.3850   25.4950   45.6550 C   0  0  0  0  0  0  0  0  0  0  0  0
   57.8350   25.5840   44.3240 C   0  0  0  0  0  0  0  0  0  0  0  0
   58.0320   26.8290   43.7220 C   0  0  0  0  0  0  0  0  0  0  0  0
   57.7910   28.0140   44.4310 C   0  0  0  0  0  0  0  0  0  0  0  0
   58.0090   29.2780   43.7770 N   0  0  0  0  0  0  0  0  0  0  0  0
   56.9420   30.6390   43.9200 S   0  0  0  0  0  0  0  0  0  0  0  0
   56.6680   31.2010   42.5530 O   0  0  0  0  0  0  0  0  0  0  0  0
   55.6450   30.1850   44.5290 O   0  0  0  0  0  0  0  0  0  0  0  0
   57.6940   31.8910   44.9050 C   0  0  0  0  0  0  0  0  0  0  0  0
   57.8070   33.1940   44.4050 C   0  0  0  0  0  0  0  0  0  0  0  0
   58.4130   34.1940   45.1690 C   0  0  0  0  0  0  0  0  0  0  0  0
   58.9120   33.9010   46.4460 C   0  0  0  0  0  0  0  0  0  0  0  0
   59.5250   34.8970   47.2210 C   0  0  0  0  0  0  0  0  0  0  0  0
   60.0200   34.5910   48.4930 C   0  0  0  0  0  0  0  0  0  0  0  0
   59.9080   33.2930   48.9980 C   0  0  0  0  0  0  0  0  0  0  0  0
   59.2990   32.2920   48.2360 C   0  0  0  0  0  0  0  0  0  0  0  0
   58.7970   32.5860   46.9580 C   0  0  0  0  0  0  0  0  0  0  0  0
   58.1850   31.5890   46.1830 C   0  0  0  0  0  0  0  0  0  0  0  0
   57.3390   27.9300   45.7590 C   0  0  0  0  0  0  0  0  0  0  0  0
   57.1420   26.6850   46.3630 C   0  0  0  0  0  0  0  0  0  0  0  0
   52.8177   23.6867   46.7031 H   0  0  0  0  0  0  0  0  0  0  0  0
   52.0626   24.2943   45.1907 H   0  0  0  0  0  0  0  0  0  0  0  0
   52.9363   22.7248   45.1907 H   0  0  0  0  0  0  0  0  0  0  0  0
   55.7709   22.5600   46.3768 H   0  0  0  0  0  0  0  0  0  0  0  0
   57.1786   22.3337   45.2619 H   0  0  0  0  0  0  0  0  0  0  0  0
   58.0332   24.6649   43.7530 H   0  0  0  0  0  0  0  0  0  0  0  0
   58.3802   26.8801   42.6798 H   0  0  0  0  0  0  0  0  0  0  0  0
   58.8880   29.4230   43.2330 H   0  0  0  0  0  0  0  0  0  0  0  0
   57.4162   33.4315   43.4046 H   0  0  0  0  0  0  0  0  0  0  0  0
   58.4990   35.2145   44.7675 H   0  0  0  0  0  0  0  0  0  0  0  0
   59.6165   35.9202   46.8277 H   0  0  0  0  0  0  0  0  0  0  0  0
   60.4991   35.3750   49.0978 H   0  0  0  0  0  0  0  0  0  0  0  0
   60.3004   33.0582   49.9985 H   0  0  0  0  0  0  0  0  0  0  0  0
   59.2128   31.2718   48.6383 H   0  0  0  0  0  0  0  0  0  0  0  0
   58.0902   30.5673   46.5795 H   0  0  0  0  0  0  0  0  0  0  0  0
   57.1389   28.8504   46.3271 H   0  0  0  0  0  0  0  0  0  0  0  0
   56.7926   26.6357   47.4049 H   0  0  0  0  0  0  0  0  0  0  0  0
  1  2  1  0
  2  3  2  0
  2  4  1  0
  4  5  1  0
  5  6  1  0
  6  7  2  0
  6  8  1  0
  8  9  2  0
  9 10  1  0
 10 11  2  0
 11 12  1  0
 12 13  1  0
 13 14  2  0
 13 15  2  0
 13 16  1  0
 16 17  2  0
 17 18  1  0
 18 19  2  0
 19 20  1  0
 20 21  2  0
 21 22  1  0
 22 23  2  0
 23 24  1  0
 24 25  2  0
 11 26  1  0
 26 27  2  0
 27  8  1  0
 25 16  1  0
 24 19  1  0
  1 28  1  0
  1 29  1  0
  1 30  1  0
  5 31  1  0
  5 32  1  0
  9 33  1  0
 10 34  1  0
 12 35  1  0
 17 36  1  0
 18 37  1  0
 20 38  1  0
 21 39  1  0
 22 40  1  0
 23 41  1  0
 25 42  1  0
 26 43  1  0
 27 44  1  0
M  END
>  <UniqueID>  (45) 
40

>  <SMILES>  (45) 
CC(=O)SCC(=O)c1ccc(NS(=O)(=O)c2ccc3ccccc3c2)cc1

>  <Energy>  (45) 
46.633651223048794

>  <Genealogy>  (45) 
CC(=O)SCC(=O)c1ccc(NS(=O)(=O)c2ccc3ccccc3c2)cc1 (3D coordinates assigned)
CC(=O)SCC(=O)c1ccc(NS(=O)(=O)c2ccc3ccccc3c2)cc1 (optimized conformer: 46.633651223048794 kcal/mol)

>  <smiles>  (45) 
CC(=O)SCC(=O)c1ccc(NS(=O)(=O)c2ccc3ccccc3c2)cc1

>  <score_type>  (45) 
oracle

>  <origin>  (45) 
adg

>  <m_score__min__energy>  (45) 
-10.140000000000001

>  <m_primary>  (45) 
energy

$$$$
45:0
     RDKit          3D

 42 44  0  0  0  0  0  0  0  0999 V2000
   55.6100   30.0880   43.8320 C   0  0  0  0  0  0  0  0  0  0  0  0
   56.5300   30.3970   44.8740 O   0  0  0  0  0  0  0  0  0  0  0  0
   57.8060   29.8260   45.0080 C   0  0  0  0  0  0  0  0  0  0  0  0
   58.1440   28.6100   44.3790 C   0  0  0  0  0  0  0  0  0  0  0  0
   59.4280   28.0790   44.5130 C   0  0  0  0  0  0  0  0  0  0  0  0
   60.3870   28.7490   45.2720 C   0  0  0  0  0  0  0  0  0  0  0  0
   60.0650   29.9510   45.9020 C   0  0  0  0  0  0  0  0  0  0  0  0
   58.7770   30.4980   45.7800 C   0  0  0  0  0  0  0  0  0  0  0  0
   58.4560   31.7260   46.4600 N   0  0  0  0  0  0  0  0  0  0  0  0
   58.9790   31.9860   47.8050 C   0  0  0  0  0  0  0  0  0  0  0  0
   59.1680   33.4960   48.0290 C   0  0  0  0  0  0  0  0  0  0  0  0
   59.6040   34.1880   46.7930 N   0  0  0  0  0  0  0  0  0  0  0  0
   60.9600   33.7910   46.3470 C   0  0  0  0  0  0  0  0  0  0  0  0
   61.8110   33.3470   47.5090 C   0  0  0  0  0  0  0  0  0  0  0  0
   62.0930   34.2200   48.5700 C   0  0  0  0  0  0  0  0  0  0  0  0
   62.8980   33.7940   49.6280 C   0  0  0  0  0  0  0  0  0  0  0  0
   63.4150   32.4970   49.6160 C   0  0  0  0  0  0  0  0  0  0  0  0
   63.1360   31.6630   48.5800 N   0  0  0  0  0  0  0  0  0  0  0  0
   62.3550   32.0540   47.5370 C   0  0  0  0  0  0  0  0  0  0  0  0
   58.6040   34.0730   45.6980 C   0  0  0  0  0  0  0  0  0  0  0  0
   57.7360   32.8000   45.7710 C   0  0  0  0  0  0  0  0  0  0  0  0
   54.6537   29.7668   44.2705 H   0  0  0  0  0  0  0  0  0  0  0  0
   55.4468   30.9807   43.2103 H   0  0  0  0  0  0  0  0  0  0  0  0
   56.0188   29.2778   43.2103 H   0  0  0  0  0  0  0  0  0  0  0  0
   57.3916   28.0769   43.7793 H   0  0  0  0  0  0  0  0  0  0  0  0
   59.6839   27.1301   44.0189 H   0  0  0  0  0  0  0  0  0  0  0  0
   61.3986   28.3291   45.3740 H   0  0  0  0  0  0  0  0  0  0  0  0
   60.8259   30.4748   46.4992 H   0  0  0  0  0  0  0  0  0  0  0  0
   58.2703   31.5957   48.5503 H   0  0  0  0  0  0  0  0  0  0  0  0
   59.9537   31.4869   47.9094 H   0  0  0  0  0  0  0  0  0  0  0  0
   58.2125   33.9286   48.3606 H   0  0  0  0  0  0  0  0  0  0  0  0
   59.9505   33.6323   48.7900 H   0  0  0  0  0  0  0  0  0  0  0  0
   60.8727   32.9618   45.6295 H   0  0  0  0  0  0  0  0  0  0  0  0
   61.4402   34.6626   45.8783 H   0  0  0  0  0  0  0  0  0  0  0  0
   61.6801   35.2396   48.5684 H   0  0  0  0  0  0  0  0  0  0  0  0
   63.1229   34.4736   50.4632 H   0  0  0  0  0  0  0  0  0  0  0  0
   64.0485   32.1501   50.4457 H   0  0  0  0  0  0  0  0  0  0  0  0
   62.1494   31.3545   46.7133 H   0  0  0  0  0  0  0  0  0  0  0  0
   57.9390   34.9480   45.7438 H   0  0  0  0  0  0  0  0  0  0  0  0
   59.1691   34.0188   44.7558 H   0  0  0  0  0  0  0  0  0  0  0  0
   56.8096   33.0247   46.3199 H   0  0  0  0  0  0  0  0  0  0  0  0
   57.5008   32.4710   44.7480 H   0  0  0  0  0  0  0  0  0  0  0  0
  1  2  1  0
  2  3  1  0
  3  4  2  0
  4  5  1  0
  5  6  2  0
  6  7  1  0
  7  8  2  0
  8  9  1  0
  9 10  1  0
 10 11  1  0
 11 12  1  0
 12 13  1  0
 13 14  1  0
 14 15  2  0
 15 16  1  0
 16 17  2  0
 17 18  1  0
 18 19  2  0
 12 20  1  0
 20 21  1  0
  8  3  1  0
 21  9  1  0
 19 14  1  0
  1 22  1  0
  1 23  1  0
  1 24  1  0
  4 25  1  0
  5 26  1  0
  6 27  1  0
  7 28  1  0
 10 29  1  0
 10 30  1  0
 11 31  1  0
 11 32  1  0
 13 33  1  0
 13 34  1  0
 15 35  1  0
 16 36  1  0
 17 37  1  0
 19 38  1  0
 20 39  1  0
 20 40  1  0
 21 41  1  0
 21 42  1  0
M  END
>  <UniqueID>  (46) 
41

>  <SMILES>  (46) 
COc1ccccc1N1CCN(Cc2cccnc2)CC1

>  <Energy>  (46) 
56.975542901873546

>  <Genealogy>  (46) 
COc1ccccc1N1CCN(Cc2cccnc2)CC1 (3D coordinates assigned)
COc1ccccc1N1CCN(Cc2cccnc2)CC1 (nonaromatic ring conformer: 56.975542901873546 kcal/mol)

>  <smiles>  (46) 
COc1ccccc1N1CCN(Cc2cccnc2)CC1

>  <score_type>  (46) 
oracle

>  <origin>  (46) 
adg

>  <m_score__min__energy>  (46) 
-6.9500000000000002

>  <m_primary>  (46) 
energy

$$$$
46:0
     RDKit          3D

 34 36  0  0  0  0  0  0  0  0999 V2000
   60.7160   26.5770   46.8770 C   0  0  0  0  0  0  0  0  0  0  0  0
   59.9880   27.8310   46.5110 C   0  0  0  0  0  0  0  0  0  0  0  0
   60.4050   29.0660   47.0200 C   0  0  0  0  0  0  0  0  0  0  0  0
   59.7020   30.2250   46.6840 C   0  0  0  0  0  0  0  0  0  0  0  0
   58.5860   30.1430   45.8370 C   0  0  0  0  0  0  0  0  0  0  0  0
   57.8320   31.2650   45.4510 C   0  0  0  0  0  0  0  0  0  0  0  0
   58.2050   32.5890   45.8470 N   0  0  0  0  0  0  0  0  0  0  0  0
   58.8250   33.5320   44.9330 C   0  0  0  0  0  0  0  0  0  0  0  0
   59.4620   34.5990   45.8150 C   0  0  0  0  0  0  0  0  0  0  0  0
   58.8660   34.4060   47.2080 C   0  0  0  0  0  0  0  0  0  0  0  0
   58.3380   32.9790   47.2390 C   0  0  0  0  0  0  0  0  0  0  0  0
   56.7300   31.0920   44.6750 N   0  0  0  0  0  0  0  0  0  0  0  0
   56.3440   29.8610   44.2470 C   0  0  0  0  0  0  0  0  0  0  0  0
   55.1370   29.7260   43.3740 C   0  0  0  0  0  0  0  0  0  0  0  0
   57.0760   28.7630   44.5820 N   0  0  0  0  0  0  0  0  0  0  0  0
   58.1800   28.8770   45.3690 C   0  0  0  0  0  0  0  0  0  0  0  0
   58.8860   27.7660   45.7130 N   0  0  0  0  0  0  0  0  0  0  0  0
   60.7671   26.4890   47.9723 H   0  0  0  0  0  0  0  0  0  0  0  0
   60.1815   25.7089   46.4640 H   0  0  0  0  0  0  0  0  0  0  0  0
   61.7350   26.6107   46.4640 H   0  0  0  0  0  0  0  0  0  0  0  0
   61.2821   29.1236   47.6814 H   0  0  0  0  0  0  0  0  0  0  0  0
   60.0220   31.1992   47.0820 H   0  0  0  0  0  0  0  0  0  0  0  0
   59.5910   33.0296   44.3241 H   0  0  0  0  0  0  0  0  0  0  0  0
   58.0925   33.9645   44.2355 H   0  0  0  0  0  0  0  0  0  0  0  0
   60.5538   34.4680   45.8451 H   0  0  0  0  0  0  0  0  0  0  0  0
   59.2649   35.6102   45.4295 H   0  0  0  0  0  0  0  0  0  0  0  0
   59.6391   34.5452   47.9781 H   0  0  0  0  0  0  0  0  0  0  0  0
   58.0697   35.1368   47.4125 H   0  0  0  0  0  0  0  0  0  0  0  0
   59.0467   32.3172   47.7584 H   0  0  0  0  0  0  0  0  0  0  0  0
   57.3818   32.9073   47.7779 H   0  0  0  0  0  0  0  0  0  0  0  0
   54.2396   29.6256   44.0021 H   0  0  0  0  0  0  0  0  0  0  0  0
   55.0421   30.6191   42.7389 H   0  0  0  0  0  0  0  0  0  0  0  0
   55.2417   28.8340   42.7389 H   0  0  0  0  0  0  0  0  0  0  0  0
   56.7830   27.8200   44.2390 H   0  0  0  0  0  0  0  0  0  0  0  0
  1  2  1  0
  2  3  2  0
  3  4  1  0
  4  5  2  0
  5  6  1  0
  6  7  1  0
  7  8  1  0
  8  9  1  0
  9 10  1  0
 10 11  1  0
  6 12  2  0
 12 13  1  0
 13 14  1  0
 13 15  2  0
 15 16  1  0
 16 17  2  0
 17  2  1  0
 16  5  1  0
 11  7  1  0
  1 18  1  0
  1 19  1  0
  1 20  1  0
  3 21  1  0
  4 22  1  0
  8 23  1  0
  8 24  1  0
  9 25  1  0
  9 26  1  0
 10 27  1  0
 10 28  1  0
 11 29  1  0
 11 30  1  0
 14 31  1  0
 14 32  1  0
 14 33  1  0
 15 34  1  0
M  CHG  1  15   1
M  END
>  <UniqueID>  (47) 
42

>  <SMILES>  (47) 
Cc1ccc2c(N3CCCC3)nc(C)[nH+]c2n1

>  <Energy>  (47) 
42.23073854295633

>  <Genealogy>  (47) 
Cc1ccc2c(N3CCCC3)nc(C)[nH+]c2n1 (protonated)
Cc1ccc2c(N3CCCC3)nc(C)[nH+]c2n1 (3D coordinates assigned)
Cc1ccc2c(N3CCCC3)nc(C)[nH+]c2n1 (nonaromatic ring conformer: 42.23073854295633 kcal/mol)

>  <smiles>  (47) 
Cc1ccc2c(N3CCCC3)nc(C)nc2n1

>  <score_type>  (47) 
oracle

>  <origin>  (47) 
adg

>  <m_score__min__energy>  (47) 
-5.1500000000000004

>  <m_primary>  (47) 
energy

$$$$
47:0
     RDKit          3D

 48 50  0  0  0  0  0  0  0  0999 V2000
   63.7940   33.2660   46.7170 C   0  0  0  0  0  0  0  0  0  0  0  0
   63.5270   33.8850   48.0870 C   0  0  0  0  0  0  0  0  0  0  0  0
   62.1690   33.5770   48.5630 N   0  0  0  0  0  0  0  0  0  0  0  0
   61.5090   34.3740   49.6100 C   0  0  0  0  0  0  0  0  0  0  0  0
   59.9940   34.1690   49.6090 C   0  0  0  0  0  0  0  0  0  0  0  0
   61.5620   32.3390   48.1610 C   0  0  0  0  0  0  0  0  0  0  0  0
   60.8100   32.2830   46.9810 C   0  0  0  0  0  0  0  0  0  0  0  0
   60.2210   31.0820   46.5760 C   0  0  0  0  0  0  0  0  0  0  0  0
   60.3770   29.9160   47.3450 C   0  0  0  0  0  0  0  0  0  0  0  0
   59.7850   28.6700   46.9290 N   0  0  0  0  0  0  0  0  0  0  0  0
   59.3950   28.3280   45.5650 C   0  0  0  0  0  0  0  0  0  0  0  0
   58.6620   26.9600   45.6760 C   0  0  2  0  0  0  0  0  0  0  0  0
   57.1930   27.0560   45.2550 C   0  0  0  0  0  0  0  0  0  0  0  0
   57.0340   28.1280   44.2820 N   0  0  0  0  0  0  0  0  0  0  0  0
   56.3530   29.3750   44.4830 C   0  0  0  0  0  0  0  0  0  0  0  0
   55.1570   29.3430   44.8720 O   0  0  0  0  0  0  0  0  0  0  0  0
   56.9870   30.6960   44.2990 C   0  0  0  0  0  0  0  0  0  0  0  0
   57.4620   31.2610   43.1250 C   0  0  0  0  0  0  0  0  0  0  0  0
   57.9290   32.5120   43.4690 C   0  0  0  0  0  0  0  0  0  0  0  0
   57.7030   32.6370   44.8220 C   0  0  0  0  0  0  0  0  0  0  0  0
   58.1300   34.1610   45.8830 Br  0  0  0  0  0  0  0  0  0  0  0  0
   57.1400   31.5480   45.2890 O   0  0  0  0  0  0  0  0  0  0  0  0
   58.7520   26.5950   47.0500 O   0  0  0  0  0  0  0  0  0  0  0  0
   59.3960   27.5860   47.7530 C   0  0  0  0  0  0  0  0  0  0  0  0
   59.6580   27.5000   48.9810 O   0  0  0  0  0  0  0  0  0  0  0  0
   61.1490   29.9730   48.5200 C   0  0  0  0  0  0  0  0  0  0  0  0
   61.7320   31.1770   48.9310 C   0  0  0  0  0  0  0  0  0  0  0  0
   62.6710   31.2100   50.4190 Cl  0  0  0  0  0  0  0  0  0  0  0  0
   64.2267   32.2629   46.8459 H   0  0  0  0  0  0  0  0  0  0  0  0
   62.8491   33.1888   46.1591 H   0  0  0  0  0  0  0  0  0  0  0  0
   64.4985   33.9003   46.1591 H   0  0  0  0  0  0  0  0  0  0  0  0
   64.2570   33.4871   48.8073 H   0  0  0  0  0  0  0  0  0  0  0  0
   63.6213   34.9772   47.9964 H   0  0  0  0  0  0  0  0  0  0  0  0
   61.9082   34.0745   50.5903 H   0  0  0  0  0  0  0  0  0  0  0  0
   61.7105   35.4366   49.4090 H   0  0  0  0  0  0  0  0  0  0  0  0
   59.6300   34.1197   50.6459 H   0  0  0  0  0  0  0  0  0  0  0  0
   59.5105   35.0099   49.0902 H   0  0  0  0  0  0  0  0  0  0  0  0
   59.7514   33.2298   49.0902 H   0  0  0  0  0  0  0  0  0  0  0  0
   60.6823   33.1887   46.3699 H   0  0  0  0  0  0  0  0  0  0  0  0
   59.6308   31.0491   45.6483 H   0  0  0  0  0  0  0  0  0  0  0  0
   58.7207   29.0938   45.1540 H   0  0  0  0  0  0  0  0  0  0  0  0
   60.2637   28.2734   44.8924 H   0  0  0  0  0  0  0  0  0  0  0  0
   59.1221   26.2180   45.0069 H   0  0  0  0  0  0  0  0  0  0  0  0
   56.8779   26.1030   44.8049 H   0  0  0  0  0  0  0  0  0  0  0  0
   56.5725   27.2684   46.1381 H   0  0  0  0  0  0  0  0  0  0  0  0
   57.4655   30.8046   42.1242 H   0  0  0  0  0  0  0  0  0  0  0  0
   58.3873   33.2562   42.8011 H   0  0  0  0  0  0  0  0  0  0  0  0
   61.2955   29.0633   49.1207 H   0  0  0  0  0  0  0  0  0  0  0  0
  1  2  1  0
  2  3  1  0
  3  4  1  0
  4  5  1  0
  3  6  1  0
  6  7  2  0
  7  8  1  0
  8  9  2  0
  9 10  1  0
 10 11  1  0
 11 12  1  0
 12 13  1  0
 13 14  1  0
 14 15  1  0
 15 16  2  0
 15 17  1  0
 17 18  2  0
 18 19  1  0
 19 20  2  0
 20 21  1  0
 20 22  1  0
 12 23  1  0
 23 24  1  0
 24 25  2  0
  9 26  1  0
 26 27  2  0
 27 28  1  0
 27  6  1  0
 24 10  1  0
 22 17  1  0
  1 29  1  0
  1 30  1  0
  1 31  1  0
  2 32  1  0
  2 33  1  0
  4 34  1  0
  4 35  1  0
  5 36  1  0
  5 37  1  0
  5 38  1  0
  7 39  1  0
  8 40  1  0
 11 41  1  0
 11 42  1  0
 12 43  1  6
 13 44  1  0
 13 45  1  0
 18 46  1  0
 19 47  1  0
 26 48  1  0
M  CHG  1  14  -1
M  END
>  <UniqueID>  (48) 
43

>  <SMILES>  (48) 
CCN(CC)c1ccc(N2C[C@H](C[N-]C(=O)c3ccc(Br)o3)OC2=O)cc1Cl

>  <Energy>  (48) 
95.28399077757203

>  <Genealogy>  (48) 
CCN(CC)c1ccc(N2CC(C[N-]C(=O)c3ccc(Br)o3)OC2=O)cc1Cl (protonated)
CCN(CC)c1ccc(N2C[C@H](C[N-]C(=O)c3ccc(Br)o3)OC2=O)cc1Cl (chirality)
CCN(CC)c1ccc(N2C[C@H](C[N-]C(=O)c3ccc(Br)o3)OC2=O)cc1Cl (3D coordinates assigned)
CCN(CC)c1ccc(N2C[C@H](C[N-]C(=O)c3ccc(Br)o3)OC2=O)cc1Cl (nonaromatic ring conformer: 95.28399077757203 kcal/mol)

>  <smiles>  (48) 
CCN(CC)c1ccc(N2CC(CNC(=O)c3ccc(Br)o3)OC2=O)cc1Cl

>  <score_type>  (48) 
oracle

>  <origin>  (48) 
adg

>  <m_score__min__energy>  (48) 
-9.8000000000000007

>  <m_primary>  (48) 
energy

$$$$
