0:0
     RDKit          3D

 59 61  0  0  0  0  0  0  0  0999 V2000
   59.6640   33.9070   49.8430 C   0  0  0  0  0  0  0  0  0  0  0  0
   59.0680   33.0570   48.8680 O   0  0  0  0  0  0  0  0  0  0  0  0
   58.7330   33.4530   47.5620 C   0  0  0  0  0  0  0  0  0  0  0  0
   57.4000   33.4560   47.1060 C   0  0  0  0  0  0  0  0  0  0  0  0
   57.1000   33.8400   45.7970 C   0  0  0  0  0  0  0  0  0  0  0  0
   58.1230   34.2190   44.9270 C   0  0  0  0  0  0  0  0  0  0  0  0
   59.4480   34.2220   45.3650 C   0  0  0  0  0  0  0  0  0  0  0  0
   59.7640   33.8550   46.6840 C   0  0  0  0  0  0  0  0  0  0  0  0
   61.2060   33.8340   47.1230 C   0  0  0  0  0  0  0  0  0  0  0  0
   61.8530   32.4900   46.7850 C   0  0  0  0  0  0  0  0  0  0  0  0
   61.1300   31.4020   47.4440 N   0  0  0  0  0  0  0  0  0  0  0  0
   61.4090   30.8910   48.6670 C   0  0  0  0  0  0  0  0  0  0  0  0
   60.5560   29.8310   48.9480 C   0  0  0  0  0  0  0  0  0  0  0  0
   60.5020   29.0410   50.2220 C   0  0  0  0  0  0  0  0  0  0  0  0
   59.2860   29.4650   51.0650 C   0  0  0  0  0  0  0  0  0  0  0  0
   59.1180   30.9380   51.1160 N   0  0  0  0  0  0  0  0  0  0  0  0
   60.0290   31.5570   52.0970 C   0  0  0  0  0  0  0  0  0  0  0  0
   57.7250   31.2710   51.4610 C   0  0  0  0  0  0  0  0  0  0  0  0
   59.7290   29.7080   47.8470 C   0  0  0  0  0  0  0  0  0  0  0  0
   58.6860   28.8250   47.5840 C   0  0  0  0  0  0  0  0  0  0  0  0
   58.0150   28.9320   46.3420 C   0  0  0  0  0  0  0  0  0  0  0  0
   56.9520   28.0810   46.0000 O   0  0  0  0  0  0  0  0  0  0  0  0
   57.1030   26.7130   45.6360 C   0  0  0  0  0  0  0  0  0  0  0  0
   58.4120   29.9190   45.4050 C   0  0  0  0  0  0  0  0  0  0  0  0
   57.7250   29.9880   44.1830 O   0  0  0  0  0  0  0  0  0  0  0  0
   57.5530   31.1790   43.4220 C   0  0  0  0  0  0  0  0  0  0  0  0
   59.4760   30.8020   45.7120 C   0  0  0  0  0  0  0  0  0  0  0  0
   60.1100   30.6680   46.9490 C   0  0  0  0  0  0  0  0  0  0  0  0
   59.4098   33.5445   50.8500 H   0  0  0  0  0  0  0  0  0  0  0  0
   60.7566   33.9009   49.7160 H   0  0  0  0  0  0  0  0  0  0  0  0
   59.2859   34.9321   49.7160 H   0  0  0  0  0  0  0  0  0  0  0  0
   56.5897   33.1538   47.7857 H   0  0  0  0  0  0  0  0  0  0  0  0
   56.0557   33.8436   45.4514 H   0  0  0  0  0  0  0  0  0  0  0  0
   57.8848   34.5157   43.8949 H   0  0  0  0  0  0  0  0  0  0  0  0
   60.2512   34.5139   44.6724 H   0  0  0  0  0  0  0  0  0  0  0  0
   61.7523   34.6378   46.6078 H   0  0  0  0  0  0  0  0  0  0  0  0
   61.2469   33.9829   48.2121 H   0  0  0  0  0  0  0  0  0  0  0  0
   61.8259   32.3372   45.6960 H   0  0  0  0  0  0  0  0  0  0  0  0
   62.8950   32.4942   47.1375 H   0  0  0  0  0  0  0  0  0  0  0  0
   62.1964   31.2614   49.3399 H   0  0  0  0  0  0  0  0  0  0  0  0
   60.4209   27.9707   49.9816 H   0  0  0  0  0  0  0  0  0  0  0  0
   61.4194   29.2304   50.7985 H   0  0  0  0  0  0  0  0  0  0  0  0
   58.3802   29.0213   50.6262 H   0  0  0  0  0  0  0  0  0  0  0  0
   59.4514   29.1109   52.0932 H   0  0  0  0  0  0  0  0  0  0  0  0
   59.3180   31.3450   50.1710 H   0  0  0  0  0  0  0  0  0  0  0  0
   59.6849   31.3232   53.1153 H   0  0  0  0  0  0  0  0  0  0  0  0
   61.0455   31.1618   51.9537 H   0  0  0  0  0  0  0  0  0  0  0  0
   60.0360   32.6476   51.9537 H   0  0  0  0  0  0  0  0  0  0  0  0
   57.6145   31.2974   52.5551 H   0  0  0  0  0  0  0  0  0  0  0  0
   57.4690   32.2556   51.0427 H   0  0  0  0  0  0  0  0  0  0  0  0
   57.0514   30.5086   51.0427 H   0  0  0  0  0  0  0  0  0  0  0  0
   58.3908   28.0641   48.3215 H   0  0  0  0  0  0  0  0  0  0  0  0
   57.1710   26.0971   46.5449 H   0  0  0  0  0  0  0  0  0  0  0  0
   56.2346   26.3939   45.0409 H   0  0  0  0  0  0  0  0  0  0  0  0
   58.0201   26.5910   45.0409 H   0  0  0  0  0  0  0  0  0  0  0  0
   57.4295   32.0343   44.1026 H   0  0  0  0  0  0  0  0  0  0  0  0
   58.4372   31.3398   42.7878 H   0  0  0  0  0  0  0  0  0  0  0  0
   56.6594   31.0830   42.7878 H   0  0  0  0  0  0  0  0  0  0  0  0
   59.7945   31.5730   44.9950 H   0  0  0  0  0  0  0  0  0  0  0  0
  1  2  1  0
  2  3  1  0
  3  4  2  0
  4  5  1  0
  5  6  2  0
  6  7  1  0
  7  8  2  0
  8  9  1  0
  9 10  1  0
 10 11  1  0
 11 12  1  0
 12 13  2  0
 13 14  1  0
 14 15  1  0
 15 16  1  0
 16 17  1  0
 16 18  1  0
 13 19  1  0
 19 20  2  0
 20 21  1  0
 21 22  1  0
 22 23  1  0
 21 24  2  0
 24 25  1  0
 25 26  1  0
 24 27  1  0
 27 28  2  0
  8  3  1  0
 28 11  1  0
 28 19  1  0
  1 29  1  0
  1 30  1  0
  1 31  1  0
  4 32  1  0
  5 33  1  0
  6 34  1  0
  7 35  1  0
  9 36  1  0
  9 37  1  0
 10 38  1  0
 10 39  1  0
 12 40  1  0
 14 41  1  0
 14 42  1  0
 15 43  1  0
 15 44  1  0
 16 45  1  0
 17 46  1  0
 17 47  1  0
 17 48  1  0
 18 49  1  0
 18 50  1  0
 18 51  1  0
 20 52  1  0
 23 53  1  0
 23 54  1  0
 23 55  1  0
 26 56  1  0
 26 57  1  0
 26 58  1  0
 27 59  1  0
M  CHG  1  16   1
M  END
>  <UniqueID>  (1) 
1

>  <SMILES>  (1) 
COc1ccccc1CCn1cc(CC[NH+](C)C)c2cc(OC)c(OC)cc21

>  <Energy>  (1) 
86.46396474610859

>  <Genealogy>  (1) 
COc1ccccc1CCn1cc(CC[NH+](C)C)c2cc(OC)c(OC)cc21 (protonated)
COc1ccccc1CCn1cc(CC[NH+](C)C)c2cc(OC)c(OC)cc21 (3D coordinates assigned)
COc1ccccc1CCn1cc(CC[NH+](C)C)c2cc(OC)c(OC)cc21 (optimized conformer: 86.46396474610859 kcal/mol)

>  <smiles>  (1) 
COc1ccccc1CCn1cc(CCN(C)C)c2cc(OC)c(OC)cc21

>  <score_type>  (1) 
oracle

>  <origin>  (1) 
adg

>  <m_score__min__energy>  (1) 
-5.9400000000000004

>  <m_primary>  (1) 
energy

$$$$
1:0
     RDKit          3D

 60 62  0  0  0  0  0  0  0  0999 V2000
   64.4880   35.6790   52.3700 C   0  0  0  0  0  0  0  0  0  0  0  0
   64.5200   34.6660   51.3720 O   0  0  0  0  0  0  0  0  0  0  0  0
   65.4650   33.6290   51.3120 C   0  0  0  0  0  0  0  0  0  0  0  0
   66.6550   33.6700   52.0690 C   0  0  0  0  0  0  0  0  0  0  0  0
   67.5760   32.6130   52.0110 C   0  0  0  0  0  0  0  0  0  0  0  0
   68.8230   32.6430   52.8460 C   0  0  0  0  0  0  0  0  0  0  0  0
   67.2950   31.4960   51.2160 C   0  0  0  0  0  0  0  0  0  0  0  0
   66.1230   31.4460   50.4600 C   0  0  0  0  0  0  0  0  0  0  0  0
   65.2070   32.5100   50.4910 C   0  0  0  0  0  0  0  0  0  0  0  0
   63.9770   32.4350   49.6640 C   0  0  0  0  0  0  0  0  0  0  0  0
   62.8970   31.6390   50.0650 C   0  0  0  0  0  0  0  0  0  0  0  0
   61.7720   31.5680   49.3050 N   0  0  0  0  0  0  0  0  0  0  0  0
   61.6520   32.2530   48.1330 C   0  0  0  0  0  0  0  0  0  0  0  0
   60.3950   32.1360   47.3570 C   0  0  0  0  0  0  0  0  0  0  0  0
   59.4400   33.1790   47.3910 C   0  0  0  0  0  0  0  0  0  0  0  0
   59.6670   34.4120   48.2280 C   0  0  0  0  0  0  0  0  0  0  0  0
   58.2590   33.0620   46.6390 C   0  0  0  0  0  0  0  0  0  0  0  0
   58.0090   31.9150   45.8680 C   0  0  0  0  0  0  0  0  0  0  0  0
   56.8440   31.7530   45.0990 O   0  0  0  0  0  0  0  0  0  0  0  0
   56.7560   31.0490   43.8590 C   0  0  0  0  0  0  0  0  0  0  0  0
   56.1820   29.6360   44.0710 C   0  0  2  0  0  0  0  0  0  0  0  0
   55.2610   29.6300   45.1340 O   0  0  0  0  0  0  0  0  0  0  0  0
   57.3040   28.6150   44.3190 C   0  0  0  0  0  0  0  0  0  0  0  0
   56.9540   27.7470   45.3630 O   0  0  0  0  0  0  0  0  0  0  0  0
   58.9510   30.8840   45.8520 C   0  0  0  0  0  0  0  0  0  0  0  0
   60.1400   30.9770   46.5910 C   0  0  0  0  0  0  0  0  0  0  0  0
   61.1170   29.8290   46.5670 C   0  0  0  0  0  0  0  0  0  0  0  0
   62.7170   33.0590   47.6780 C   0  0  0  0  0  0  0  0  0  0  0  0
   62.6210   33.8370   46.3910 C   0  0  0  0  0  0  0  0  0  0  0  0
   63.8790   33.1410   48.4570 C   0  0  0  0  0  0  0  0  0  0  0  0
   64.5027   35.2128   53.3662 H   0  0  0  0  0  0  0  0  0  0  0  0
   65.3660   36.3321   52.2578 H   0  0  0  0  0  0  0  0  0  0  0  0
   63.5706   36.2754   52.2578 H   0  0  0  0  0  0  0  0  0  0  0  0
   66.8627   34.5389   52.7108 H   0  0  0  0  0  0  0  0  0  0  0  0
   68.5509   32.6365   53.9118 H   0  0  0  0  0  0  0  0  0  0  0  0
   69.4376   31.7594   52.6191 H   0  0  0  0  0  0  0  0  0  0  0  0
   69.3944   33.5552   52.6191 H   0  0  0  0  0  0  0  0  0  0  0  0
   68.0014   30.6533   51.1869 H   0  0  0  0  0  0  0  0  0  0  0  0
   65.9149   30.5655   49.8344 H   0  0  0  0  0  0  0  0  0  0  0  0
   62.9593   31.0666   51.0023 H   0  0  0  0  0  0  0  0  0  0  0  0
   60.9820   30.9700   49.6370 H   0  0  0  0  0  0  0  0  0  0  0  0
   59.6180   34.1456   49.2941 H   0  0  0  0  0  0  0  0  0  0  0  0
   60.6576   34.8325   48.0003 H   0  0  0  0  0  0  0  0  0  0  0  0
   58.8910   35.1577   48.0003 H   0  0  0  0  0  0  0  0  0  0  0  0
   57.5217   33.8781   46.6543 H   0  0  0  0  0  0  0  0  0  0  0  0
   56.0995   31.6058   43.1742 H   0  0  0  0  0  0  0  0  0  0  0  0
   57.7661   30.9586   43.4329 H   0  0  0  0  0  0  0  0  0  0  0  0
   55.6539   29.3422   43.1519 H   0  0  0  0  0  0  0  0  0  0  0  0
   55.7780   29.6900   45.9800 H   0  0  0  0  0  0  0  0  0  0  0  0
   57.4710   28.0304   43.4023 H   0  0  0  0  0  0  0  0  0  0  0  0
   58.2218   29.1542   44.5963 H   0  0  0  0  0  0  0  0  0  0  0  0
   55.9940   27.5260   45.2400 H   0  0  0  0  0  0  0  0  0  0  0  0
   58.7575   29.9840   45.2499 H   0  0  0  0  0  0  0  0  0  0  0  0
   61.3653   29.5372   47.5981 H   0  0  0  0  0  0  0  0  0  0  0  0
   60.6653   28.9740   46.0427 H   0  0  0  0  0  0  0  0  0  0  0  0
   62.0332   30.1382   46.0427 H   0  0  0  0  0  0  0  0  0  0  0  0
   62.4892   34.9054   46.6173 H   0  0  0  0  0  0  0  0  0  0  0  0
   63.5433   33.6968   45.8081 H   0  0  0  0  0  0  0  0  0  0  0  0
   61.7605   33.4768   45.8081 H   0  0  0  0  0  0  0  0  0  0  0  0
   64.7203   33.7639   48.1189 H   0  0  0  0  0  0  0  0  0  0  0  0
  1  2  1  0
  2  3  1  0
  3  4  2  0
  4  5  1  0
  5  6  1  0
  5  7  2  0
  7  8  1  0
  8  9  2  0
  9 10  1  0
 10 11  2  0
 11 12  1  0
 12 13  2  0
 13 14  1  0
 14 15  2  0
 15 16  1  0
 15 17  1  0
 17 18  2  0
 18 19  1  0
 19 20  1  0
 20 21  1  0
 21 22  1  0
 21 23  1  0
 23 24  1  0
 18 25  1  0
 25 26  2  0
 26 27  1  0
 13 28  1  0
 28 29  1  0
 28 30  2  0
  9  3  1  0
 30 10  1  0
 26 14  1  0
  1 31  1  0
  1 32  1  0
  1 33  1  0
  4 34  1  0
  6 35  1  0
  6 36  1  0
  6 37  1  0
  7 38  1  0
  8 39  1  0
 11 40  1  0
 12 41  1  0
 16 42  1  0
 16 43  1  0
 16 44  1  0
 17 45  1  0
 20 46  1  0
 20 47  1  0
 21 48  1  6
 22 49  1  0
 23 50  1  0
 23 51  1  0
 24 52  1  0
 25 53  1  0
 27 54  1  0
 27 55  1  0
 27 56  1  0
 29 57  1  0
 29 58  1  0
 29 59  1  0
 30 60  1  0
M  CHG  1  12   1
M  END
>  <UniqueID>  (2) 
2

>  <SMILES>  (2) 
COc1cc(C)ccc1-c1c[nH+]c(-c2c(C)cc(OC[C@H](O)CO)cc2C)c(C)c1

>  <Energy>  (2) 
72.00981070532256

>  <Genealogy>  (2) 
COc1cc(C)ccc1-c1c[nH+]c(-c2c(C)cc(OCC(O)CO)cc2C)c(C)c1 (protonated)
COc1cc(C)ccc1-c1c[nH+]c(-c2c(C)cc(OC[C@H](O)CO)cc2C)c(C)c1 (chirality)
COc1cc(C)ccc1-c1c[nH+]c(-c2c(C)cc(OC[C@H](O)CO)cc2C)c(C)c1 (3D coordinates assigned)
COc1cc(C)ccc1-c1c[nH+]c(-c2c(C)cc(OC[C@H](O)CO)cc2C)c(C)c1 (optimized conformer: 72.00981070532256 kcal/mol)

>  <smiles>  (2) 
COc1cc(C)ccc1-c1cnc(-c2c(C)cc(OCC(O)CO)cc2C)c(C)c1

>  <score_type>  (2) 
oracle

>  <origin>  (2) 
adg

>  <m_score__min__energy>  (2) 
-7.3399999999999999

>  <m_primary>  (2) 
energy

$$$$
2:0
     RDKit          3D

 36 38  0  0  0  0  0  0  0  0999 V2000
   59.1130   36.0070   47.0790 H   0  0  0  0  0  0  0  0  0  0  0  0
   59.3800   34.9990   47.0260 N   0  0  0  0  0  0  0  0  0  0  0  0
   60.4520   34.4880   47.5520 O   0  0  0  0  0  0  0  0  0  0  0  0
   60.5140   33.1960   47.3170 C   0  0  0  0  0  0  0  0  0  0  0  0
   61.6220   32.3090   47.8010 C   0  0  0  0  0  0  0  0  0  0  0  0
   60.9940   31.4266   47.9934 H   0  0  0  0  0  0  0  0  0  0  0  0
   62.7320   33.0240   48.5560 C   0  0  0  0  0  0  0  0  0  0  0  0
   62.6432   34.0979   48.7771 H   0  0  0  0  0  0  0  0  0  0  0  0
   63.2438   32.8681   49.5171 H   0  0  0  0  0  0  0  0  0  0  0  0
   62.9640   32.5600   47.1300 C   0  0  0  0  0  0  0  0  0  0  0  0
   63.0432   33.2976   46.3178 H   0  0  0  0  0  0  0  0  0  0  0  0
   63.7134   31.9287   46.6301 H   0  0  0  0  0  0  0  0  0  0  0  0
   59.3910   32.8220   46.5860 C   0  0  0  0  0  0  0  0  0  0  0  0
   59.0230   31.4700   46.1110 C   0  0  0  0  0  0  0  0  0  0  0  0
   57.7570   31.2080   45.6950 N   0  0  0  0  0  0  0  0  0  0  0  0
   57.4120   29.9660   45.2630 C   0  0  0  0  0  0  0  0  0  0  0  0
   56.2000   29.7060   44.8730 N   0  0  0  0  0  0  0  0  0  0  0  0
   55.7540   29.6970   43.4800 C   0  0  0  0  0  0  0  0  0  0  0  0
   54.7337   30.1045   43.4248 H   0  0  0  0  0  0  0  0  0  0  0  0
   55.7717   28.6614   43.1095 H   0  0  0  0  0  0  0  0  0  0  0  0
   56.6800   30.5450   42.6120 C   0  0  0  0  0  0  0  0  0  0  0  0
   57.3374   31.1470   43.2566 H   0  0  0  0  0  0  0  0  0  0  0  0
   57.2916   29.8872   41.9769 H   0  0  0  0  0  0  0  0  0  0  0  0
   56.0784   31.2119   41.9769 H   0  0  0  0  0  0  0  0  0  0  0  0
   58.3430   28.9790   45.2500 N   0  0  0  0  0  0  0  0  0  0  0  0
   59.6140   29.2350   45.6520 C   0  0  0  0  0  0  0  0  0  0  0  0
   60.6290   28.1410   45.6690 C   0  0  0  0  0  0  0  0  0  0  0  0
   60.8703   27.8809   46.7102 H   0  0  0  0  0  0  0  0  0  0  0  0
   60.2240   27.2570   45.1547 H   0  0  0  0  0  0  0  0  0  0  0  0
   61.5408   28.4788   45.1547 H   0  0  0  0  0  0  0  0  0  0  0  0
   59.9470   30.4750   46.0920 N   0  0  0  0  0  0  0  0  0  0  0  0
   58.6940   34.0120   46.4200 C   0  0  0  0  0  0  0  0  0  0  0  0
   57.3950   34.2170   45.7060 C   0  0  0  0  0  0  0  0  0  0  0  0
   56.5879   34.3444   46.4425 H   0  0  0  0  0  0  0  0  0  0  0  0
   57.4611   35.1158   45.0753 H   0  0  0  0  0  0  0  0  0  0  0  0
   57.1811   33.3415   45.0753 H   0  0  0  0  0  0  0  0  0  0  0  0
  1  2  1  0
  2  3  1  0
  3  4  1  0
  4  5  1  0
  5  6  1  0
  5  7  1  0
  7  8  1  0
  7  9  1  0
  7 10  1  0
 10 11  1  0
 10 12  1  0
  4 13  2  0
 13 14  1  0
 14 15  2  0
 15 16  1  0
 16 17  2  0
 17 18  1  0
 18 19  1  0
 18 20  1  0
 18 21  1  0
 21 22  1  0
 21 23  1  0
 21 24  1  0
 16 25  1  0
 25 26  2  0
 26 27  1  0
 27 28  1  0
 27 29  1  0
 27 30  1  0
 26 31  1  0
 13 32  1  0
 32 33  1  0
 33 34  1  0
 33 35  1  0
 33 36  1  0
 32  2  2  0
 10  5  1  0
 31 14  1  0
M  CHG  2   2   1  31  -1
M  END
>  <UniqueID>  (3) 
3

>  <SMILES>  (3) 
CC/N=c1/nc(C)[n-]c(-c2c(C)[nH+]oc2C2CC2)n1

>  <Energy>  (3) 
325.861900519536

>  <Genealogy>  (3) 
CCN=c1nc(C)[n-]c(-c2c(C)[nH+]oc2C2CC2)n1 (protonated)
CC/N=c1/nc(C)[n-]c(-c2c(C)[nH+]oc2C2CC2)n1 (cis-trans isomerization)
CC/N=c1/nc(C)[n-]c(-c2c(C)[nH+]oc2C2CC2)n1 (3D coordinates assigned)
CC/N=c1/nc(C)[n-]c(-c2c(C)[nH+]oc2C2CC2)n1 (nonaromatic ring conformer: 325.861900519536 kcal/mol)

>  <smiles>  (3) 
CCN=c1nc(C)[nH]c(-c2c(C)noc2C2CC2)n1

>  <score_type>  (3) 
oracle

>  <origin>  (3) 
adg

>  <m_score__min__energy>  (3) 
-6.6900000000000004

>  <m_primary>  (3) 
energy

$$$$
3:0
     RDKit          3D

 49 51  0  0  0  0  0  0  0  0999 V2000
   59.4810   33.3380   50.5210 C   0  0  0  0  0  0  0  0  0  0  0  0
   60.5480   34.1950   50.1260 O   0  0  0  0  0  0  0  0  0  0  0  0
   61.8440   33.7600   49.8080 C   0  0  0  0  0  0  0  0  0  0  0  0
   62.9060   33.8540   50.7310 C   0  0  0  0  0  0  0  0  0  0  0  0
   64.1910   33.4440   50.3750 C   0  0  0  0  0  0  0  0  0  0  0  0
   64.4360   32.9360   49.0990 C   0  0  0  0  0  0  0  0  0  0  0  0
   63.3930   32.8320   48.1760 C   0  0  0  0  0  0  0  0  0  0  0  0
   62.0920   33.2340   48.5230 C   0  0  0  0  0  0  0  0  0  0  0  0
   61.0270   33.1050   47.5630 N   0  0  0  0  0  0  0  0  0  0  0  0
   60.4150   31.7880   47.3380 C   0  0  0  0  0  0  0  0  0  0  0  0
   59.6760   31.7270   45.9960 C   0  0  0  0  0  0  0  0  0  0  0  0
   58.7990   32.8970   45.8310 N   0  0  0  0  0  0  0  0  0  0  0  0
   57.5360   32.7920   45.1430 C   0  0  0  0  0  0  0  0  0  0  0  0
   56.6490   33.6690   45.3320 O   0  0  0  0  0  0  0  0  0  0  0  0
   57.2330   31.6400   44.2190 C   0  0  0  0  0  0  0  0  0  0  0  0
   56.4420   30.6610   44.8700 O   0  0  0  0  0  0  0  0  0  0  0  0
   56.7810   29.3590   44.4270 C   0  0  0  0  0  0  0  0  0  0  0  0
   57.9970   28.8540   45.1550 C   0  0  0  0  0  0  0  0  0  0  0  0
   59.2320   28.7420   44.4940 C   0  0  0  0  0  0  0  0  0  0  0  0
   60.3610   28.2880   45.1840 C   0  0  0  0  0  0  0  0  0  0  0  0
   60.2660   27.9490   46.5360 C   0  0  0  0  0  0  0  0  0  0  0  0
   59.0440   28.0630   47.2020 C   0  0  0  0  0  0  0  0  0  0  0  0
   57.9110   28.5170   46.5160 C   0  0  0  0  0  0  0  0  0  0  0  0
   59.2420   34.2220   46.2920 C   0  0  0  0  0  0  0  0  0  0  0  0
   60.7260   34.2260   46.6650 C   0  0  0  0  0  0  0  0  0  0  0  0
   59.4306   33.2975   51.6191 H   0  0  0  0  0  0  0  0  0  0  0  0
   58.5318   33.7276   50.1245 H   0  0  0  0  0  0  0  0  0  0  0  0
   59.6566   32.3271   50.1245 H   0  0  0  0  0  0  0  0  0  0  0  0
   62.7198   34.2535   51.7389 H   0  0  0  0  0  0  0  0  0  0  0  0
   65.0129   33.5214   51.1020 H   0  0  0  0  0  0  0  0  0  0  0  0
   65.4511   32.6172   48.8197 H   0  0  0  0  0  0  0  0  0  0  0  0
   63.5913   32.4326   47.1704 H   0  0  0  0  0  0  0  0  0  0  0  0
   61.2047   31.0222   47.3451 H   0  0  0  0  0  0  0  0  0  0  0  0
   59.6840   31.6084   48.1401 H   0  0  0  0  0  0  0  0  0  0  0  0
   60.4122   31.7096   45.1789 H   0  0  0  0  0  0  0  0  0  0  0  0
   59.0589   30.8167   45.9734 H   0  0  0  0  0  0  0  0  0  0  0  0
   56.6881   32.0169   43.3409 H   0  0  0  0  0  0  0  0  0  0  0  0
   58.1828   31.1766   43.9137 H   0  0  0  0  0  0  0  0  0  0  0  0
   55.9368   28.6803   44.6185 H   0  0  0  0  0  0  0  0  0  0  0  0
   57.0014   29.3961   43.3499 H   0  0  0  0  0  0  0  0  0  0  0  0
   59.3112   29.0122   43.4306 H   0  0  0  0  0  0  0  0  0  0  0  0
   61.3247   28.1978   44.6614 H   0  0  0  0  0  0  0  0  0  0  0  0
   61.1550   27.5918   47.0765 H   0  0  0  0  0  0  0  0  0  0  0  0
   58.9714   27.7959   48.2666 H   0  0  0  0  0  0  0  0  0  0  0  0
   56.9507   28.6101   47.0444 H   0  0  0  0  0  0  0  0  0  0  0  0
   59.0749   34.9533   45.4875 H   0  0  0  0  0  0  0  0  0  0  0  0
   58.6627   34.4834   47.1898 H   0  0  0  0  0  0  0  0  0  0  0  0
   61.3305   34.1314   45.7508 H   0  0  0  0  0  0  0  0  0  0  0  0
   60.9642   35.1697   47.1775 H   0  0  0  0  0  0  0  0  0  0  0  0
  1  2  1  0
  2  3  1  0
  3  4  2  0
  4  5  1  0
  5  6  2  0
  6  7  1  0
  7  8  2  0
  8  9  1  0
  9 10  1  0
 10 11  1  0
 11 12  1  0
 12 13  1  0
 13 14  2  0
 13 15  1  0
 15 16  1  0
 16 17  1  0
 17 18  1  0
 18 19  2  0
 19 20  1  0
 20 21  2  0
 21 22  1  0
 22 23  2  0
 12 24  1  0
 24 25  1  0
  8  3  1  0
 25  9  1  0
 23 18  1  0
  1 26  1  0
  1 27  1  0
  1 28  1  0
  4 29  1  0
  5 30  1  0
  6 31  1  0
  7 32  1  0
 10 33  1  0
 10 34  1  0
 11 35  1  0
 11 36  1  0
 15 37  1  0
 15 38  1  0
 17 39  1  0
 17 40  1  0
 19 41  1  0
 20 42  1  0
 21 43  1  0
 22 44  1  0
 23 45  1  0
 24 46  1  0
 24 47  1  0
 25 48  1  0
 25 49  1  0
M  END
>  <UniqueID>  (4) 
4

>  <SMILES>  (4) 
COc1ccccc1N1CCN(C(=O)COCc2ccccc2)CC1

>  <Energy>  (4) 
57.36478653535153

>  <Genealogy>  (4) 
COc1ccccc1N1CCN(C(=O)COCc2ccccc2)CC1 (3D coordinates assigned)
COc1ccccc1N1CCN(C(=O)COCc2ccccc2)CC1 (nonaromatic ring conformer: 57.36478653535153 kcal/mol)

>  <smiles>  (4) 
COc1ccccc1N1CCN(C(=O)COCc2ccccc2)CC1

>  <score_type>  (4) 
oracle

>  <origin>  (4) 
adg

>  <m_score__min__energy>  (4) 
-7.0999999999999996

>  <m_primary>  (4) 
energy

$$$$
4:0
     RDKit          3D

 51 54  0  0  0  0  0  0  0  0999 V2000
   60.0340   34.2170   48.4860 C   0  0  0  0  0  0  0  0  0  0  0  0
   58.7760   34.2090   47.8200 O   0  0  0  0  0  0  0  0  0  0  0  0
   58.5530   33.6530   46.5520 C   0  0  0  0  0  0  0  0  0  0  0  0
   58.9920   34.3630   45.4300 C   0  0  0  0  0  0  0  0  0  0  0  0
   58.7890   33.8540   44.1450 C   0  0  0  0  0  0  0  0  0  0  0  0
   58.1490   32.6260   43.9700 C   0  0  0  0  0  0  0  0  0  0  0  0
   57.7100   31.8890   45.0850 C   0  0  0  0  0  0  0  0  0  0  0  0
   57.0050   30.5630   44.9000 C   0  0  1  0  0  0  0  0  0  0  0  0
   56.3290   30.4670   43.5260 C   0  0  0  0  0  0  0  0  0  0  0  0
   56.7840   29.1410   42.9410 C   0  0  0  0  0  0  0  0  0  0  0  0
   57.4630   28.4170   44.0870 C   0  0  0  0  0  0  0  0  0  0  0  0
   57.9700   29.4560   44.9870 N   0  0  0  0  0  0  0  0  0  0  0  0
   58.1380   28.9720   46.3710 C   0  0  0  0  0  0  0  0  0  0  0  0
   59.3340   29.6270   47.0060 C   0  0  0  0  0  0  0  0  0  0  0  0
   60.3920   30.1000   46.2180 C   0  0  0  0  0  0  0  0  0  0  0  0
   61.4850   30.7370   46.8110 C   0  0  0  0  0  0  0  0  0  0  0  0
   61.5340   30.9210   48.2050 C   0  0  0  0  0  0  0  0  0  0  0  0
   62.6940   31.6010   48.8360 C   0  0  0  0  0  0  0  0  0  0  0  0
   63.3780   32.6290   48.1600 C   0  0  0  0  0  0  0  0  0  0  0  0
   64.4700   33.2660   48.7570 C   0  0  0  0  0  0  0  0  0  0  0  0
   64.8900   32.8870   50.0340 C   0  0  0  0  0  0  0  0  0  0  0  0
   64.2200   31.8700   50.7160 C   0  0  0  0  0  0  0  0  0  0  0  0
   63.1280   31.2280   50.1230 C   0  0  0  0  0  0  0  0  0  0  0  0
   60.4650   30.4540   48.9900 C   0  0  0  0  0  0  0  0  0  0  0  0
   59.3740   29.8150   48.3950 C   0  0  0  0  0  0  0  0  0  0  0  0
   57.9060   32.4130   46.3740 C   0  0  0  0  0  0  0  0  0  0  0  0
   59.8728   34.2160   49.5741 H   0  0  0  0  0  0  0  0  0  0  0  0
   60.6064   33.3225   48.1993 H   0  0  0  0  0  0  0  0  0  0  0  0
   60.5950   35.1187   48.1993 H   0  0  0  0  0  0  0  0  0  0  0  0
   59.5009   35.3294   45.5603 H   0  0  0  0  0  0  0  0  0  0  0  0
   59.1344   34.4224   43.2689 H   0  0  0  0  0  0  0  0  0  0  0  0
   57.9871   32.2327   42.9556 H   0  0  0  0  0  0  0  0  0  0  0  0
   56.2472   30.4948   45.6944 H   0  0  0  0  0  0  0  0  0  0  0  0
   55.2345   30.4840   43.6341 H   0  0  0  0  0  0  0  0  0  0  0  0
   56.6004   31.3133   42.8779 H   0  0  0  0  0  0  0  0  0  0  0  0
   55.9218   28.5636   42.5760 H   0  0  0  0  0  0  0  0  0  0  0  0
   57.4581   29.2784   42.0827 H   0  0  0  0  0  0  0  0  0  0  0  0
   56.7408   27.7760   44.6138 H   0  0  0  0  0  0  0  0  0  0  0  0
   58.2757   27.7698   43.7255 H   0  0  0  0  0  0  0  0  0  0  0  0
   57.2374   29.2160   46.9536 H   0  0  0  0  0  0  0  0  0  0  0  0
   58.2900   27.8827   46.3555 H   0  0  0  0  0  0  0  0  0  0  0  0
   60.3617   29.9690   45.1262 H   0  0  0  0  0  0  0  0  0  0  0  0
   62.3134   31.0973   46.1833 H   0  0  0  0  0  0  0  0  0  0  0  0
   63.0509   32.9333   47.1548 H   0  0  0  0  0  0  0  0  0  0  0  0
   64.9993   34.0670   48.2201 H   0  0  0  0  0  0  0  0  0  0  0  0
   65.7489   33.3900   50.5023 H   0  0  0  0  0  0  0  0  0  0  0  0
   64.5515   31.5728   51.7219 H   0  0  0  0  0  0  0  0  0  0  0  0
   62.6048   30.4266   50.6652 H   0  0  0  0  0  0  0  0  0  0  0  0
   60.4877   30.5928   50.0810 H   0  0  0  0  0  0  0  0  0  0  0  0
   58.5421   29.4575   49.0196 H   0  0  0  0  0  0  0  0  0  0  0  0
   57.5519   31.8514   47.2510 H   0  0  0  0  0  0  0  0  0  0  0  0
  1  2  1  0
  2  3  1  0
  3  4  2  0
  4  5  1  0
  5  6  2  0
  6  7  1  0
  7  8  1  0
  8  9  1  0
  9 10  1  0
 10 11  1  0
 11 12  1  0
 12 13  1  0
 13 14  1  0
 14 15  2  0
 15 16  1  0
 16 17  2  0
 17 18  1  0
 18 19  2  0
 19 20  1  0
 20 21  2  0
 21 22  1  0
 22 23  2  0
 17 24  1  0
 24 25  2  0
  7 26  2  0
 26  3  1  0
 12  8  1  0
 25 14  1  0
 23 18  1  0
  1 27  1  0
  1 28  1  0
  1 29  1  0
  4 30  1  0
  5 31  1  0
  6 32  1  0
  8 33  1  1
  9 34  1  0
  9 35  1  0
 10 36  1  0
 10 37  1  0
 11 38  1  0
 11 39  1  0
 13 40  1  0
 13 41  1  0
 15 42  1  0
 16 43  1  0
 19 44  1  0
 20 45  1  0
 21 46  1  0
 22 47  1  0
 23 48  1  0
 24 49  1  0
 25 50  1  0
 26 51  1  0
M  END
>  <UniqueID>  (5) 
5

>  <SMILES>  (5) 
COc1cccc([C@H]2CCCN2Cc2ccc(-c3ccccc3)cc2)c1

>  <Energy>  (5) 
60.796810589884295

>  <Genealogy>  (5) 
COc1cccc([C@H]2CCCN2Cc2ccc(-c3ccccc3)cc2)c1 (chirality)
COc1cccc([C@H]2CCCN2Cc2ccc(-c3ccccc3)cc2)c1 (3D coordinates assigned)
COc1cccc([C@H]2CCCN2Cc2ccc(-c3ccccc3)cc2)c1 (nonaromatic ring conformer: 60.796810589884295 kcal/mol)

>  <smiles>  (5) 
COc1cccc(C2CCCN2Cc2ccc(-c3ccccc3)cc2)c1

>  <score_type>  (5) 
oracle

>  <origin>  (5) 
adg

>  <m_score__min__energy>  (5) 
-8.6600000000000001

>  <m_primary>  (5) 
energy

$$$$
5:0
     RDKit          3D

 28 29  0  0  0  0  0  0  0  0999 V2000
   60.5590   28.4730   49.1840 C   0  0  0  0  0  0  0  0  0  0  0  0
   59.5080   27.8730   48.6210 C   0  0  0  0  0  0  0  0  0  0  0  0
   59.6930   26.7440   47.6450 C   0  0  0  0  0  0  0  0  0  0  0  0
   58.7450   26.8650   46.5260 N   0  0  0  0  0  0  0  0  0  0  0  0
   58.1860   25.6490   45.9440 C   0  0  0  0  0  0  0  0  0  0  0  0
   56.8360   25.3700   46.5770 C   0  0  0  0  0  0  0  0  0  0  0  0
   55.7560   26.2600   46.0480 C   0  0  0  0  0  0  0  0  0  0  0  0
   54.5860   25.7970   45.9970 O   0  0  0  0  0  0  0  0  0  0  0  0
   55.9600   27.6170   45.6290 N   0  0  0  0  0  0  0  0  0  0  0  0
   57.1110   28.4750   45.5150 C   0  0  0  0  0  0  0  0  0  0  0  0
   56.8770   29.7390   44.9520 C   0  0  0  0  0  0  0  0  0  0  0  0
   57.9050   30.6730   44.8170 C   0  0  0  0  0  0  0  0  0  0  0  0
   57.5800   32.2440   44.1090 Cl  0  0  0  0  0  0  0  0  0  0  0  0
   59.1900   30.3540   45.2480 C   0  0  0  0  0  0  0  0  0  0  0  0
   59.4480   29.1060   45.8100 C   0  0  0  0  0  0  0  0  0  0  0  0
   58.4220   28.1470   45.9570 C   0  0  0  0  0  0  0  0  0  0  0  0
   60.4055   29.2974   49.8959 H   0  0  0  0  0  0  0  0  0  0  0  0
   61.5786   28.1431   48.9360 H   0  0  0  0  0  0  0  0  0  0  0  0
   58.4918   28.2092   48.8746 H   0  0  0  0  0  0  0  0  0  0  0  0
   60.7203   26.7702   47.2527 H   0  0  0  0  0  0  0  0  0  0  0  0
   59.5079   25.7924   48.1648 H   0  0  0  0  0  0  0  0  0  0  0  0
   58.0634   25.7827   44.8591 H   0  0  0  0  0  0  0  0  0  0  0  0
   58.8643   24.8034   46.1307 H   0  0  0  0  0  0  0  0  0  0  0  0
   56.5614   24.3243   46.3740 H   0  0  0  0  0  0  0  0  0  0  0  0
   56.9281   25.5640   47.6558 H   0  0  0  0  0  0  0  0  0  0  0  0
   55.8640   29.9985   44.6106 H   0  0  0  0  0  0  0  0  0  0  0  0
   60.0023   31.0885   45.1445 H   0  0  0  0  0  0  0  0  0  0  0  0
   60.4674   28.8635   46.1447 H   0  0  0  0  0  0  0  0  0  0  0  0
  1  2  2  0
  2  3  1  0
  3  4  1  0
  4  5  1  0
  5  6  1  0
  6  7  1  0
  7  8  2  0
  7  9  1  0
  9 10  1  0
 10 11  2  0
 11 12  1  0
 12 13  1  0
 12 14  2  0
 14 15  1  0
 15 16  2  0
 16  4  1  0
 16 10  1  0
  1 17  1  0
  1 18  1  0
  2 19  1  0
  3 20  1  0
  3 21  1  0
  5 22  1  0
  5 23  1  0
  6 24  1  0
  6 25  1  0
 11 26  1  0
 14 27  1  0
 15 28  1  0
M  CHG  1   9  -1
M  END
>  <UniqueID>  (6) 
6

>  <SMILES>  (6) 
C=CCN1CCC(=O)[N-]c2cc(Cl)ccc21

>  <Energy>  (6) 
35.693538466750226

>  <Genealogy>  (6) 
C=CCN1CCC(=O)[N-]c2cc(Cl)ccc21 (protonated)
C=CCN1CCC(=O)[N-]c2cc(Cl)ccc21 (3D coordinates assigned)
C=CCN1CCC(=O)[N-]c2cc(Cl)ccc21 (nonaromatic ring conformer: 35.693538466750226 kcal/mol)

>  <smiles>  (6) 
C=CCN1CCC(=O)Nc2cc(Cl)ccc21

>  <score_type>  (6) 
oracle

>  <origin>  (6) 
adg

>  <m_score__min__energy>  (6) 
-6.2300000000000004

>  <m_primary>  (6) 
energy

$$$$
6:0
     RDKit          3D

 47 49  0  0  0  0  0  0  0  0999 V2000
   66.9890   34.5300   52.6620 C   0  0  0  0  0  0  0  0  0  0  0  0
   65.8220   33.7250   52.5350 O   0  0  0  0  0  0  0  0  0  0  0  0
   65.0370   33.6460   51.3760 C   0  0  0  0  0  0  0  0  0  0  0  0
   63.8140   34.3320   51.2430 C   0  0  0  0  0  0  0  0  0  0  0  0
   63.0550   34.2000   50.0770 C   0  0  0  0  0  0  0  0  0  0  0  0
   63.4980   33.3750   49.0340 C   0  0  0  0  0  0  0  0  0  0  0  0
   62.5020   33.1510   47.5920 S   0  0  0  0  0  0  0  0  0  0  0  0
   63.1430   33.8690   46.4370 O   0  0  0  0  0  0  0  0  0  0  0  0
   62.4480   31.6870   47.2540 O   0  0  0  0  0  0  0  0  0  0  0  0
   60.8740   33.7580   47.8200 N   0  0  0  0  0  0  0  0  0  0  0  0
   60.4690   34.6130   46.6750 C   0  0  0  0  0  0  0  0  0  0  0  0
   58.9690   34.5450   46.3890 C   0  0  0  0  0  0  0  0  0  0  0  0
   58.6130   33.1530   46.0950 N   0  0  0  0  0  0  0  0  0  0  0  0
   57.7420   32.8380   44.9870 C   0  0  0  0  0  0  0  0  0  0  0  0
   57.0140   33.7420   44.4910 O   0  0  0  0  0  0  0  0  0  0  0  0
   57.7280   31.4630   44.3600 C   0  0  2  0  0  0  0  0  0  0  0  0
   57.4570   31.5420   42.8620 C   0  0  0  0  0  0  0  0  0  0  0  0
   56.6410   30.3170   42.6050 C   0  0  0  0  0  0  0  0  0  0  0  0
   55.9670   30.0750   43.9380 C   0  0  0  0  0  0  0  0  0  0  0  0
   56.7390   30.6560   44.9650 O   0  0  0  0  0  0  0  0  0  0  0  0
   59.1840   32.0890   46.9320 C   0  0  0  0  0  0  0  0  0  0  0  0
   59.9280   32.6590   48.1530 C   0  0  0  0  0  0  0  0  0  0  0  0
   64.7270   32.7120   49.1560 C   0  0  0  0  0  0  0  0  0  0  0  0
   65.4880   32.8460   50.3200 C   0  0  0  0  0  0  0  0  0  0  0  0
   67.2134   34.6848   53.7277 H   0  0  0  0  0  0  0  0  0  0  0  0
   67.8377   34.0243   52.1782 H   0  0  0  0  0  0  0  0  0  0  0  0
   66.8177   35.5030   52.1782 H   0  0  0  0  0  0  0  0  0  0  0  0
   63.4548   34.9744   52.0605 H   0  0  0  0  0  0  0  0  0  0  0  0
   62.1054   34.7462   49.9773 H   0  0  0  0  0  0  0  0  0  0  0  0
   60.9230   34.3760   48.6640 H   0  0  0  0  0  0  0  0  0  0  0  0
   60.7369   35.6554   46.9022 H   0  0  0  0  0  0  0  0  0  0  0  0
   60.9944   34.2430   45.7822 H   0  0  0  0  0  0  0  0  0  0  0  0
   58.4076   34.8936   47.2684 H   0  0  0  0  0  0  0  0  0  0  0  0
   58.7199   35.1866   45.5309 H   0  0  0  0  0  0  0  0  0  0  0  0
   58.7207   31.0169   44.5195 H   0  0  0  0  0  0  0  0  0  0  0  0
   56.8941   32.4526   42.6092 H   0  0  0  0  0  0  0  0  0  0  0  0
   58.3743   31.5877   42.2566 H   0  0  0  0  0  0  0  0  0  0  0  0
   55.8990   30.4946   41.8127 H   0  0  0  0  0  0  0  0  0  0  0  0
   57.2389   29.4612   42.2585 H   0  0  0  0  0  0  0  0  0  0  0  0
   54.9650   30.5288   43.9305 H   0  0  0  0  0  0  0  0  0  0  0  0
   55.8768   28.9928   44.1133 H   0  0  0  0  0  0  0  0  0  0  0  0
   58.3705   31.4371   47.2832 H   0  0  0  0  0  0  0  0  0  0  0  0
   59.9070   31.5262   46.3233 H   0  0  0  0  0  0  0  0  0  0  0  0
   59.1829   33.0461   48.8636 H   0  0  0  0  0  0  0  0  0  0  0  0
   60.5261   31.8383   48.5758 H   0  0  0  0  0  0  0  0  0  0  0  0
   65.0940   32.0833   48.3314 H   0  0  0  0  0  0  0  0  0  0  0  0
   66.4493   32.3185   50.4071 H   0  0  0  0  0  0  0  0  0  0  0  0
  1  2  1  0
  2  3  1  0
  3  4  2  0
  4  5  1  0
  5  6  2  0
  6  7  1  0
  7  8  2  0
  7  9  2  0
  7 10  1  0
 10 11  1  0
 11 12  1  0
 12 13  1  0
 13 14  1  0
 14 15  2  0
 14 16  1  0
 16 17  1  0
 17 18  1  0
 18 19  1  0
 19 20  1  0
 13 21  1  0
 21 22  1  0
  6 23  1  0
 23 24  2  0
 24  3  1  0
 22 10  1  0
 20 16  1  0
  1 25  1  0
  1 26  1  0
  1 27  1  0
  4 28  1  0
  5 29  1  0
 10 30  1  0
 11 31  1  0
 11 32  1  0
 12 33  1  0
 12 34  1  0
 16 35  1  6
 17 36  1  0
 17 37  1  0
 18 38  1  0
 18 39  1  0
 19 40  1  0
 19 41  1  0
 21 42  1  0
 21 43  1  0
 22 44  1  0
 22 45  1  0
 23 46  1  0
 24 47  1  0
M  CHG  1  10   1
M  END
>  <UniqueID>  (7) 
7

>  <SMILES>  (7) 
COc1ccc(S(=O)(=O)[NH+]2CCN(C(=O)[C@@H]3CCCO3)CC2)cc1

>  <Energy>  (7) 
49.97956373464498

>  <Genealogy>  (7) 
COc1ccc(S(=O)(=O)[NH+]2CCN(C(=O)C3CCCO3)CC2)cc1 (protonated)
COc1ccc(S(=O)(=O)[NH+]2CCN(C(=O)[C@@H]3CCCO3)CC2)cc1 (chirality)
COc1ccc(S(=O)(=O)[NH+]2CCN(C(=O)[C@@H]3CCCO3)CC2)cc1 (3D coordinates assigned)
COc1ccc(S(=O)(=O)[NH+]2CCN(C(=O)[C@@H]3CCCO3)CC2)cc1 (nonaromatic ring conformer: 49.97956373464498 kcal/mol)

>  <smiles>  (7) 
COc1ccc(S(=O)(=O)N2CCN(C(=O)C3CCCO3)CC2)cc1

>  <score_type>  (7) 
oracle

>  <origin>  (7) 
adg

>  <m_score__min__energy>  (7) 
-6.5199999999999996

>  <m_primary>  (7) 
energy

$$$$
7:0
     RDKit          3D

 40 43  0  0  0  0  0  0  0  0999 V2000
   64.6290   33.8170   50.8050 N   0  0  0  0  0  0  0  0  0  0  0  0
   59.5080   33.0400   48.2500 C   0  0  0  0  0  0  0  0  0  0  0  0
   62.5080   33.5780   50.0110 N   0  0  0  0  0  0  0  0  0  0  0  0
   61.6740   33.2660   49.0050 C   0  0  0  0  0  0  0  0  0  0  0  0
   62.1910   32.8810   47.7850 C   0  0  0  0  0  0  0  0  0  0  0  0
   63.5480   32.8050   47.5630 C   0  0  0  0  0  0  0  0  0  0  0  0
   64.3520   33.1320   48.6150 N   0  0  0  0  0  0  0  0  0  0  0  0
   61.3350   32.5600   46.7460 C   0  0  0  0  0  0  0  0  0  0  0  0
   59.9750   32.6480   47.0080 C   0  0  0  0  0  0  0  0  0  0  0  0
   59.0760   32.3070   45.9090 C   0  0  0  0  0  0  0  0  0  0  0  0
   58.5980   31.0310   45.6970 C   0  0  0  0  0  0  0  0  0  0  0  0
   57.7480   30.7240   44.6530 C   0  0  0  0  0  0  0  0  0  0  0  0
   57.3740   31.7530   43.7970 C   0  0  0  0  0  0  0  0  0  0  0  0
   57.8270   33.0470   43.9680 C   0  0  0  0  0  0  0  0  0  0  0  0
   58.6690   33.3020   45.0190 C   0  0  0  0  0  0  0  0  0  0  0  0
   59.2690   34.9360   45.2720 Cl  0  0  0  0  0  0  0  0  0  0  0  0
   63.8360   33.5080   49.8070 C   0  0  0  0  0  0  0  0  0  0  0  0
   58.2700   33.0930   48.4020 O   0  0  0  0  0  0  0  0  0  0  0  0
   60.3580   33.3500   49.2520 N   0  0  0  0  0  0  0  0  0  0  0  0
   59.8510   33.7620   50.5560 C   0  0  0  0  0  0  0  0  0  0  0  0
   58.9270   32.7590   51.1500 C   0  0  0  0  0  0  0  0  0  0  0  0
   57.9240   33.0840   52.0360 C   0  0  0  0  0  0  0  0  0  0  0  0
   57.1310   32.0640   52.5200 C   0  0  0  0  0  0  0  0  0  0  0  0
   57.2990   30.7400   52.1580 C   0  0  0  0  0  0  0  0  0  0  0  0
   58.3290   30.4690   51.2580 C   0  0  0  0  0  0  0  0  0  0  0  0
   59.0990   31.4690   50.7910 N   0  0  0  0  0  0  0  0  0  0  0  0
   64.3760   33.4830   51.7630 H   0  0  0  0  0  0  0  0  0  0  0  0
   63.9607   32.4975   46.5908 H   0  0  0  0  0  0  0  0  0  0  0  0
   65.3840   33.0810   48.4690 H   0  0  0  0  0  0  0  0  0  0  0  0
   61.7140   32.2503   45.7609 H   0  0  0  0  0  0  0  0  0  0  0  0
   58.9049   30.2288   46.3843 H   0  0  0  0  0  0  0  0  0  0  0  0
   57.3790   29.6986   44.5037 H   0  0  0  0  0  0  0  0  0  0  0  0
   56.6974   31.5307   42.9587 H   0  0  0  0  0  0  0  0  0  0  0  0
   57.5208   33.8493   43.2806 H   0  0  0  0  0  0  0  0  0  0  0  0
   60.7030   33.9038   51.2371 H   0  0  0  0  0  0  0  0  0  0  0  0
   59.2861   34.6954   50.4156 H   0  0  0  0  0  0  0  0  0  0  0  0
   57.7600   34.1258   52.3485 H   0  0  0  0  0  0  0  0  0  0  0  0
   56.3271   32.3159   53.2273 H   0  0  0  0  0  0  0  0  0  0  0  0
   56.6547   29.9434   52.5585 H   0  0  0  0  0  0  0  0  0  0  0  0
   58.5125   29.4355   50.9290 H   0  0  0  0  0  0  0  0  0  0  0  0
  1  2  2  3
  2  3  1  0
  3  4  2  0
  4  5  1  0
  5  6  2  0
  6  7  1  0
  5  8  1  0
  8  9  2  0
  9 10  1  0
 10 11  2  0
 11 12  1  0
 12 13  2  0
 13 14  1  0
 14 15  2  0
 15 16  1  0
  9 17  1  0
 17 18  2  0
 17 19  1  0
 19 20  1  0
 20 21  1  0
 21 22  2  0
 22 23  1  0
 23 24  2  0
 24 25  1  0
 25 26  2  0
  7  2  1  0
 15 10  1  0
 26 21  1  0
 19  4  1  0
  1 27  1  0
  6 28  1  0
  7 29  1  0
  8 30  1  0
 11 31  1  0
 12 32  1  0
 13 33  1  0
 14 34  1  0
 20 35  1  0
 20 36  1  0
 22 37  1  0
 23 38  1  0
 24 39  1  0
 25 40  1  0
M  END
>  <smiles>  (8) 
N=c1nc2c(c[nH]1)cc(-c1ccccc1Cl)c(=O)n2Cc1ccccn1

>  <score_type>  (8) 
oracle

>  <origin>  (8) 
adg

>  <m_score__min__energy>  (8) 
-8.1999999999999993

>  <m_primary>  (8) 
energy

$$$$
8:0
     RDKit          3D

 53 54  0  0  0  0  0  0  0  0999 V2000
   62.7780   30.8610   50.6090 C   0  0  0  0  0  0  0  0  0  0  0  0
   63.5140   31.6990   49.5560 C   0  0  0  0  0  0  0  0  0  0  0  0
   62.5770   32.4490   48.6750 N   0  0  0  0  0  0  0  0  0  0  0  0
   63.0620   32.4280   47.2680 C   0  0  0  0  0  0  0  0  0  0  0  0
   63.3730   33.8340   46.7410 C   0  0  0  0  0  0  0  0  0  0  0  0
   62.4400   33.8530   49.1490 C   0  0  0  0  0  0  0  0  0  0  0  0
   60.9800   34.2160   49.4900 C   0  0  0  0  0  0  0  0  0  0  0  0
   60.0420   33.4100   48.7040 N   0  0  0  0  0  0  0  0  0  0  0  0
   59.5110   33.7580   47.4070 C   0  0  0  0  0  0  0  0  0  0  0  0
   59.9530   34.9510   46.8110 C   0  0  0  0  0  0  0  0  0  0  0  0
   59.4830   35.3430   45.5560 C   0  0  0  0  0  0  0  0  0  0  0  0
   58.5650   34.5460   44.8760 C   0  0  0  0  0  0  0  0  0  0  0  0
   58.1250   33.3490   45.4420 C   0  0  0  0  0  0  0  0  0  0  0  0
   58.6060   32.9280   46.6970 C   0  0  0  0  0  0  0  0  0  0  0  0
   58.1800   31.7110   47.2470 O   0  0  0  0  0  0  0  0  0  0  0  0
   58.8280   30.4780   47.0770 C   0  0  0  0  0  0  0  0  0  0  0  0
   58.5350   29.7200   45.9390 C   0  0  0  0  0  0  0  0  0  0  0  0
   59.1560   28.4900   45.7280 C   0  0  0  0  0  0  0  0  0  0  0  0
   60.0630   27.9860   46.6680 C   0  0  0  0  0  0  0  0  0  0  0  0
   60.7620   26.6830   46.4180 C   0  0  0  0  0  0  0  0  0  0  0  0
   60.3600   28.7400   47.8140 C   0  0  0  0  0  0  0  0  0  0  0  0
   59.7320   29.9820   48.0390 C   0  0  0  0  0  0  0  0  0  0  0  0
   59.9670   30.7310   49.2030 O   0  0  0  0  0  0  0  0  0  0  0  0
   59.2590   30.5700   50.4270 C   0  0  0  0  0  0  0  0  0  0  0  0
   63.0719   31.1956   51.6148 H   0  0  0  0  0  0  0  0  0  0  0  0
   61.6923   30.9859   50.4837 H   0  0  0  0  0  0  0  0  0  0  0  0
   63.0420   29.8005   50.4837 H   0  0  0  0  0  0  0  0  0  0  0  0
   64.1682   32.4183   50.0704 H   0  0  0  0  0  0  0  0  0  0  0  0
   64.0932   31.0108   48.9229 H   0  0  0  0  0  0  0  0  0  0  0  0
   61.6370   31.9870   48.7150 H   0  0  0  0  0  0  0  0  0  0  0  0
   63.9777   31.8205   47.2181 H   0  0  0  0  0  0  0  0  0  0  0  0
   62.2639   32.0019   46.6423 H   0  0  0  0  0  0  0  0  0  0  0  0
   63.5243   34.5182   47.5889 H   0  0  0  0  0  0  0  0  0  0  0  0
   64.2858   33.8022   46.1280 H   0  0  0  0  0  0  0  0  0  0  0  0
   62.5319   34.1902   46.1280 H   0  0  0  0  0  0  0  0  0  0  0  0
   63.0568   33.9838   50.0504 H   0  0  0  0  0  0  0  0  0  0  0  0
   62.7706   34.5163   48.3362 H   0  0  0  0  0  0  0  0  0  0  0  0
   60.8039   34.0317   50.5601 H   0  0  0  0  0  0  0  0  0  0  0  0
   60.8172   35.2771   49.2502 H   0  0  0  0  0  0  0  0  0  0  0  0
   59.8510   32.4460   49.0620 H   0  0  0  0  0  0  0  0  0  0  0  0
   60.6794   35.5851   47.3404 H   0  0  0  0  0  0  0  0  0  0  0  0
   59.8377   36.2812   45.1043 H   0  0  0  0  0  0  0  0  0  0  0  0
   58.1867   34.8605   43.8921 H   0  0  0  0  0  0  0  0  0  0  0  0
   57.3949   32.7277   44.9025 H   0  0  0  0  0  0  0  0  0  0  0  0
   57.8085   30.0975   45.2043 H   0  0  0  0  0  0  0  0  0  0  0  0
   58.9324   27.9127   44.8188 H   0  0  0  0  0  0  0  0  0  0  0  0
   61.0146   26.2121   47.3795 H   0  0  0  0  0  0  0  0  0  0  0  0
   60.1006   26.0160   45.8456 H   0  0  0  0  0  0  0  0  0  0  0  0
   61.6835   26.8652   45.8456 H   0  0  0  0  0  0  0  0  0  0  0  0
   61.0896   28.3583   48.5434 H   0  0  0  0  0  0  0  0  0  0  0  0
   59.9463   30.7263   51.2715 H   0  0  0  0  0  0  0  0  0  0  0  0
   58.4426   31.3054   50.4778 H   0  0  0  0  0  0  0  0  0  0  0  0
   58.8409   29.5538   50.4778 H   0  0  0  0  0  0  0  0  0  0  0  0
  1  2  1  0
  2  3  1  0
  3  4  1  0
  4  5  1  0
  3  6  1  0
  6  7  1  0
  7  8  1  0
  8  9  1  0
  9 10  2  0
 10 11  1  0
 11 12  2  0
 12 13  1  0
 13 14  2  0
 14 15  1  0
 15 16  1  0
 16 17  2  0
 17 18  1  0
 18 19  2  0
 19 20  1  0
 19 21  1  0
 21 22  2  0
 22 23  1  0
 23 24  1  0
 14  9  1  0
 22 16  1  0
  1 25  1  0
  1 26  1  0
  1 27  1  0
  2 28  1  0
  2 29  1  0
  3 30  1  0
  4 31  1  0
  4 32  1  0
  5 33  1  0
  5 34  1  0
  5 35  1  0
  6 36  1  0
  6 37  1  0
  7 38  1  0
  7 39  1  0
  8 40  1  0
 10 41  1  0
 11 42  1  0
 12 43  1  0
 13 44  1  0
 17 45  1  0
 18 46  1  0
 20 47  1  0
 20 48  1  0
 20 49  1  0
 21 50  1  0
 24 51  1  0
 24 52  1  0
 24 53  1  0
M  CHG  1   3   1
M  END
>  <UniqueID>  (9) 
8

>  <SMILES>  (9) 
CC[NH+](CC)CCNc1ccccc1Oc1ccc(C)cc1OC

>  <Energy>  (9) 
60.40609093445708

>  <Genealogy>  (9) 
CC[NH+](CC)CCNc1ccccc1Oc1ccc(C)cc1OC (protonated)
CC[NH+](CC)CCNc1ccccc1Oc1ccc(C)cc1OC (3D coordinates assigned)
CC[NH+](CC)CCNc1ccccc1Oc1ccc(C)cc1OC (optimized conformer: 60.40609093445708 kcal/mol)

>  <smiles>  (9) 
CCN(CC)CCNc1ccccc1Oc1ccc(C)cc1OC

>  <score_type>  (9) 
oracle

>  <origin>  (9) 
adg

>  <m_score__min__energy>  (9) 
-4.3399999999999999

>  <m_primary>  (9) 
energy

$$$$
9:0
     RDKit          3D

 28 29  0  0  0  0  0  0  0  0999 V2000
   56.2820   22.2800   42.6810 C   0  0  0  0  0  0  0  0  0  0  0  0
   57.3790   21.9260   43.3540 C   0  0  0  0  0  0  0  0  0  0  0  0
   57.2840   21.1170   44.6160 C   0  0  0  0  0  0  0  0  0  0  0  0
   56.5910   21.8790   45.6520 N   0  0  0  0  0  0  0  0  0  0  0  0
   56.7760   23.2950   45.8300 C   0  0  0  0  0  0  0  0  0  0  0  0
   55.6660   24.1600   45.7910 C   0  0  0  0  0  0  0  0  0  0  0  0
   54.3340   23.6310   45.6010 C   0  0  0  0  0  0  0  0  0  0  0  0
   53.2680   23.2080   45.4490 N   0  0  0  0  0  0  0  0  0  0  0  0
   55.8450   25.5030   45.9620 N   0  0  0  0  0  0  0  0  0  0  0  0
   54.7450   26.3360   45.9330 O   0  0  0  0  0  0  0  0  0  0  0  0
   57.0920   26.0230   46.1640 C   0  0  0  0  0  0  0  0  0  0  0  0
   57.2820   27.4070   46.3440 C   0  0  0  0  0  0  0  0  0  0  0  0
   58.5640   27.9250   46.5410 C   0  0  0  0  0  0  0  0  0  0  0  0
   58.7890   29.6500   46.7650 Cl  0  0  0  0  0  0  0  0  0  0  0  0
   59.6680   27.0710   46.5610 C   0  0  0  0  0  0  0  0  0  0  0  0
   59.4970   25.6960   46.3830 C   0  0  0  0  0  0  0  0  0  0  0  0
   58.2110   25.1570   46.1860 C   0  0  0  0  0  0  0  0  0  0  0  0
   58.0270   23.8140   46.0100 N   0  0  0  0  0  0  0  0  0  0  0  0
   59.1220   22.9770   45.9600 O   0  0  0  0  0  0  0  0  0  0  0  0
   56.3700   22.8726   41.7585 H   0  0  0  0  0  0  0  0  0  0  0  0
   55.2900   21.9791   43.0489 H   0  0  0  0  0  0  0  0  0  0  0  0
   58.3670   22.2312   42.9789 H   0  0  0  0  0  0  0  0  0  0  0  0
   56.7273   20.1903   44.4127 H   0  0  0  0  0  0  0  0  0  0  0  0
   58.2988   20.8761   44.9655 H   0  0  0  0  0  0  0  0  0  0  0  0
   56.0740   21.3380   46.3830 H   0  0  0  0  0  0  0  0  0  0  0  0
   56.4152   28.0841   46.3293 H   0  0  0  0  0  0  0  0  0  0  0  0
   60.6762   27.4822   46.7175 H   0  0  0  0  0  0  0  0  0  0  0  0
   60.3724   25.0301   46.3968 H   0  0  0  0  0  0  0  0  0  0  0  0
  1  2  2  0
  2  3  1  0
  3  4  1  0
  4  5  1  0
  5  6  2  0
  6  7  1  0
  7  8  3  0
  6  9  1  0
  9 10  1  0
  9 11  2  0
 11 12  1  0
 12 13  2  0
 13 14  1  0
 13 15  1  0
 15 16  2  0
 16 17  1  0
 17 18  2  0
 18 19  1  0
 18  5  1  0
 17 11  1  0
  1 20  1  0
  1 21  1  0
  2 22  1  0
  3 23  1  0
  3 24  1  0
  4 25  1  0
 12 26  1  0
 15 27  1  0
 16 28  1  0
M  CHG  4   9   1  10  -1  18   1  19  -1
M  END
>  <UniqueID>  (10) 
9

>  <SMILES>  (10) 
C=CCNc1c(C#N)[n+]([O-])c2cc(Cl)ccc2[n+]1[O-]

>  <Energy>  (10) 
36.868805328119564

>  <Genealogy>  (10) 
C=CCNc1c(C#N)[n+]([O-])c2cc(Cl)ccc2[n+]1[O-] (3D coordinates assigned)
C=CCNc1c(C#N)[n+]([O-])c2cc(Cl)ccc2[n+]1[O-] (optimized conformer: 36.868805328119564 kcal/mol)

>  <smiles>  (10) 
C=CCNc1c(C#N)[n+]([O-])c2cc(Cl)ccc2[n+]1[O-]

>  <score_type>  (10) 
oracle

>  <origin>  (10) 
adg

>  <m_score__min__energy>  (10) 
-6.4100000000000001

>  <m_primary>  (10) 
energy

$$$$
10:0
     RDKit          3D

 50 52  0  0  0  0  0  0  0  0999 V2000
   64.0730   33.4290   48.6240 C   0  0  0  0  0  0  0  0  0  0  0  0
   63.7990   32.7790   47.3270 N   0  0  2  0  0  0  0  0  0  0  0  0
   63.0710   33.6650   46.3950 C   0  0  0  0  0  0  0  0  0  0  0  0
   61.6670   34.0290   46.9020 C   0  0  0  0  0  0  0  0  0  0  0  0
   60.9390   32.8530   47.5090 C   0  0  0  0  0  0  0  0  0  0  0  0
   61.6320   31.6720   47.8520 C   0  0  0  0  0  0  0  0  0  0  0  0
   60.9430   30.6150   48.4660 C   0  0  0  0  0  0  0  0  0  0  0  0
   59.5900   30.7420   48.7770 C   0  0  0  0  0  0  0  0  0  0  0  0
   58.9100   31.9240   48.4810 C   0  0  0  0  0  0  0  0  0  0  0  0
   59.5820   32.9920   47.8610 C   0  0  0  0  0  0  0  0  0  0  0  0
   58.9280   34.2030   47.5920 O   0  0  0  0  0  0  0  0  0  0  0  0
   58.4380   34.5920   46.3070 C   0  0  0  0  0  0  0  0  0  0  0  0
   57.2730   33.6920   45.8730 C   0  0  0  0  0  0  0  0  0  0  0  0
   57.6330   32.7870   44.6850 C   0  0  0  0  0  0  0  0  0  0  0  0
   57.0360   31.4470   44.8630 N   0  0  0  0  0  0  0  0  0  0  0  0
   56.6900   30.8500   43.5490 C   0  0  0  0  0  0  0  0  0  0  0  0
   56.4710   29.3370   43.6550 C   0  0  0  0  0  0  0  0  0  0  0  0
   57.7550   28.6220   44.1100 C   0  0  0  0  0  0  0  0  0  0  0  0
   58.6840   29.5370   44.9260 C   0  0  0  0  0  0  0  0  0  0  0  0
   57.8770   30.5700   45.7260 C   0  0  0  0  0  0  0  0  0  0  0  0
   63.0900   31.4930   47.4950 C   0  0  0  0  0  0  0  0  0  0  0  0
   63.7872   32.7509   49.4416 H   0  0  0  0  0  0  0  0  0  0  0  0
   65.1456   33.6613   48.6984 H   0  0  0  0  0  0  0  0  0  0  0  0
   63.4904   34.3591   48.6984 H   0  0  0  0  0  0  0  0  0  0  0  0
   64.7280   32.5680   46.8910 H   0  0  0  0  0  0  0  0  0  0  0  0
   63.6498   34.5913   46.2647 H   0  0  0  0  0  0  0  0  0  0  0  0
   62.9525   33.1240   45.4446 H   0  0  0  0  0  0  0  0  0  0  0  0
   61.7622   34.8151   47.6655 H   0  0  0  0  0  0  0  0  0  0  0  0
   61.0807   34.3692   46.0357 H   0  0  0  0  0  0  0  0  0  0  0  0
   61.4734   29.6810   48.7033 H   0  0  0  0  0  0  0  0  0  0  0  0
   59.0570   29.9081   49.2571 H   0  0  0  0  0  0  0  0  0  0  0  0
   57.8438   32.0206   48.7338 H   0  0  0  0  0  0  0  0  0  0  0  0
   58.0903   35.6345   46.3540 H   0  0  0  0  0  0  0  0  0  0  0  0
   59.2523   34.4928   45.5741 H   0  0  0  0  0  0  0  0  0  0  0  0
   56.9829   33.0575   46.7234 H   0  0  0  0  0  0  0  0  0  0  0  0
   56.4487   34.3467   45.5538 H   0  0  0  0  0  0  0  0  0  0  0  0
   57.2483   33.2356   43.7572 H   0  0  0  0  0  0  0  0  0  0  0  0
   58.7270   32.6872   44.6293 H   0  0  0  0  0  0  0  0  0  0  0  0
   55.7673   31.3187   43.1762 H   0  0  0  0  0  0  0  0  0  0  0  0
   57.5284   31.0281   42.8595 H   0  0  0  0  0  0  0  0  0  0  0  0
   55.6721   29.1399   44.3850 H   0  0  0  0  0  0  0  0  0  0  0  0
   56.1909   28.9542   42.6625 H   0  0  0  0  0  0  0  0  0  0  0  0
   57.4760   27.7585   44.7317 H   0  0  0  0  0  0  0  0  0  0  0  0
   58.3016   28.3121   43.2071 H   0  0  0  0  0  0  0  0  0  0  0  0
   59.2724   28.9223   45.6231 H   0  0  0  0  0  0  0  0  0  0  0  0
   59.3465   30.0730   44.2304 H   0  0  0  0  0  0  0  0  0  0  0  0
   57.2202   30.0347   46.4275 H   0  0  0  0  0  0  0  0  0  0  0  0
   58.5970   31.2163   46.2494 H   0  0  0  0  0  0  0  0  0  0  0  0
   63.5811   30.9227   48.2972 H   0  0  0  0  0  0  0  0  0  0  0  0
   63.1333   30.9620   46.5326 H   0  0  0  0  0  0  0  0  0  0  0  0
  1  2  1  0
  2  3  1  0
  3  4  1  0
  4  5  1  0
  5  6  2  0
  6  7  1  0
  7  8  2  0
  8  9  1  0
  9 10  2  0
 10 11  1  0
 11 12  1  0
 12 13  1  0
 13 14  1  0
 14 15  1  0
 15 16  1  0
 16 17  1  0
 17 18  1  0
 18 19  1  0
 19 20  1  0
  6 21  1  0
 21  2  1  0
 10  5  1  0
 20 15  1  0
  1 22  1  0
  1 23  1  0
  1 24  1  0
  2 25  1  6
  3 26  1  0
  3 27  1  0
  4 28  1  0
  4 29  1  0
  7 30  1  0
  8 31  1  0
  9 32  1  0
 12 33  1  0
 12 34  1  0
 13 35  1  0
 13 36  1  0
 14 37  1  0
 14 38  1  0
 16 39  1  0
 16 40  1  0
 17 41  1  0
 17 42  1  0
 18 43  1  0
 18 44  1  0
 19 45  1  0
 19 46  1  0
 20 47  1  0
 20 48  1  0
 21 49  1  0
 21 50  1  0
M  CHG  1   2   1
M  END
>  <UniqueID>  (11) 
10

>  <SMILES>  (11) 
C[N@@H+]1CCc2c(cccc2OCCCN2CCCCC2)C1

>  <Energy>  (11) 
60.460622910322485

>  <Genealogy>  (11) 
C[NH+]1CCc2c(cccc2OCCCN2CCCCC2)C1 (protonated)
C[N@@H+]1CCc2c(cccc2OCCCN2CCCCC2)C1 (chirality)
C[N@@H+]1CCc2c(cccc2OCCCN2CCCCC2)C1 (3D coordinates assigned)
C[N@@H+]1CCc2c(cccc2OCCCN2CCCCC2)C1 (nonaromatic ring conformer: 60.460622910322485 kcal/mol)

>  <smiles>  (11) 
CN1CCc2c(cccc2OCCCN2CCCCC2)C1

>  <score_type>  (11) 
oracle

>  <origin>  (11) 
adg

>  <m_score__min__energy>  (11) 
-6.4500000000000002

>  <m_primary>  (11) 
energy

$$$$
11:0
     RDKit          3D

 41 44  0  0  0  0  0  0  0  0999 V2000
   63.1850   34.1240   46.3540 N   0  0  0  0  0  0  0  0  0  0  0  0
   62.4780   33.8100   47.2150 C   0  0  0  0  0  0  0  0  0  0  0  0
   61.5990   33.4140   48.2930 C   0  0  0  0  0  0  0  0  0  0  0  0
   62.0950   33.1790   49.5950 C   0  0  0  0  0  0  0  0  0  0  0  0
   63.5410   33.1890   49.9240 C   0  0  0  0  0  0  0  0  0  0  0  0
   64.5180   32.3520   49.4120 C   0  0  0  0  0  0  0  0  0  0  0  0
   65.6900   32.7180   50.0380 C   0  0  0  0  0  0  0  0  0  0  0  0
   65.3610   33.7460   50.8970 C   0  0  0  0  0  0  0  0  0  0  0  0
   64.0760   34.0000   50.8100 O   0  0  0  0  0  0  0  0  0  0  0  0
   61.1860   32.9460   50.6360 C   0  0  0  0  0  0  0  0  0  0  0  0
   59.8080   32.9140   50.3800 C   0  0  0  0  0  0  0  0  0  0  0  0
   58.8290   32.6560   51.4640 C   0  0  0  0  0  0  0  0  0  0  0  0
   59.0740   32.6300   52.8280 C   0  0  0  0  0  0  0  0  0  0  0  0
   57.8610   32.3550   53.4230 C   0  0  0  0  0  0  0  0  0  0  0  0
   56.9510   32.2310   52.3950 C   0  0  0  0  0  0  0  0  0  0  0  0
   57.5560   32.4160   51.2450 O   0  0  0  0  0  0  0  0  0  0  0  0
   59.3600   33.1150   49.1080 N   0  0  0  0  0  0  0  0  0  0  0  0
   60.2080   33.3610   48.0690 C   0  0  0  0  0  0  0  0  0  0  0  0
   59.6600   33.5810   46.7580 N   0  0  0  0  0  0  0  0  0  0  0  0
   59.1990   32.4500   45.9470 C   0  0  0  0  0  0  0  0  0  0  0  0
   57.8530   32.7730   45.2630 C   0  0  0  0  0  0  0  0  0  0  0  0
   57.6370   34.2090   44.9880 N   0  0  0  0  0  0  0  0  0  0  0  0
   58.8900   34.9660   44.8730 C   0  0  0  0  0  0  0  0  0  0  0  0
   59.6510   34.9360   46.2030 C   0  0  0  0  0  0  0  0  0  0  0  0
   64.3860   31.5591   48.6611 H   0  0  0  0  0  0  0  0  0  0  0  0
   66.6867   32.2789   49.8838 H   0  0  0  0  0  0  0  0  0  0  0  0
   66.0679   34.2728   51.5548 H   0  0  0  0  0  0  0  0  0  0  0  0
   61.5559   32.7873   51.6597 H   0  0  0  0  0  0  0  0  0  0  0  0
   60.0377   32.7948   53.3320 H   0  0  0  0  0  0  0  0  0  0  0  0
   57.6601   32.2548   54.4999 H   0  0  0  0  0  0  0  0  0  0  0  0
   55.8805   32.0105   52.5195 H   0  0  0  0  0  0  0  0  0  0  0  0
   58.3350   33.0770   48.9110 H   0  0  0  0  0  0  0  0  0  0  0  0
   59.9513   32.2303   45.1752 H   0  0  0  0  0  0  0  0  0  0  0  0
   59.0580   31.5804   46.6057 H   0  0  0  0  0  0  0  0  0  0  0  0
   57.8138   32.2300   44.3072 H   0  0  0  0  0  0  0  0  0  0  0  0
   57.0629   32.4653   45.9638 H   0  0  0  0  0  0  0  0  0  0  0  0
   57.0720   34.6210   45.7690 H   0  0  0  0  0  0  0  0  0  0  0  0
   59.5148   34.5171   44.0868 H   0  0  0  0  0  0  0  0  0  0  0  0
   58.6562   36.0099   44.6169 H   0  0  0  0  0  0  0  0  0  0  0  0
   60.6870   35.2652   46.0348 H   0  0  0  0  0  0  0  0  0  0  0  0
   59.1502   35.6088   46.9148 H   0  0  0  0  0  0  0  0  0  0  0  0
  1  2  3  0
  2  3  1  0
  3  4  2  0
  4  5  1  0
  5  6  2  0
  6  7  1  0
  7  8  2  0
  8  9  1  0
  4 10  1  0
 10 11  2  0
 11 12  1  0
 12 13  2  0
 13 14  1  0
 14 15  2  0
 15 16  1  0
 11 17  1  0
 17 18  2  0
 18 19  1  0
 19 20  1  0
 20 21  1  0
 21 22  1  0
 22 23  1  0
 23 24  1  0
 18  3  1  0
 24 19  1  0
  9  5  1  0
 16 12  1  0
  6 25  1  0
  7 26  1  0
  8 27  1  0
 10 28  1  0
 13 29  1  0
 14 30  1  0
 15 31  1  0
 17 32  1  0
 20 33  1  0
 20 34  1  0
 21 35  1  0
 21 36  1  0
 22 37  1  0
 23 38  1  0
 23 39  1  0
 24 40  1  0
 24 41  1  0
M  CHG  1  17   1
M  END
>  <UniqueID>  (12) 
11

>  <SMILES>  (12) 
N#Cc1c(-c2ccco2)cc(-c2ccco2)[nH+]c1N1CCNCC1

>  <Energy>  (12) 
111.93021568563412

>  <Genealogy>  (12) 
N#Cc1c(-c2ccco2)cc(-c2ccco2)[nH+]c1N1CCNCC1 (protonated)
N#Cc1c(-c2ccco2)cc(-c2ccco2)[nH+]c1N1CCNCC1 (3D coordinates assigned)
N#Cc1c(-c2ccco2)cc(-c2ccco2)[nH+]c1N1CCNCC1 (nonaromatic ring conformer: 111.93021568563412 kcal/mol)

>  <smiles>  (12) 
N#Cc1c(-c2ccco2)cc(-c2ccco2)nc1N1CCNCC1

>  <score_type>  (12) 
oracle

>  <origin>  (12) 
adg

>  <m_score__min__energy>  (12) 
-4.7699999999999996

>  <m_primary>  (12) 
energy

$$$$
12:0
     RDKit          3D

 37 38  0  0  0  0  0  0  0  0999 V2000
   59.7740   32.0240   48.3500 C   0  0  0  0  0  0  0  0  0  0  0  0
   61.1390   32.4180   47.8660 C   0  0  0  0  0  0  0  0  0  0  0  0
   62.2090   31.7010   48.3110 N   0  0  0  0  0  0  0  0  0  0  0  0
   63.4840   31.9970   47.9510 C   0  0  0  0  0  0  0  0  0  0  0  0
   63.7360   33.0730   47.1030 C   0  0  0  0  0  0  0  0  0  0  0  0
   62.6690   33.8330   46.6280 C   0  0  0  0  0  0  0  0  0  0  0  0
   61.3500   33.5140   46.9920 C   0  0  0  0  0  0  0  0  0  0  0  0
   60.2140   34.3610   46.4420 C   0  0  0  0  0  0  0  0  0  0  0  0
   59.5200   33.7110   45.3160 N   0  0  0  0  0  0  0  0  0  0  0  0
   58.3190   34.4380   44.8780 C   0  0  0  0  0  0  0  0  0  0  0  0
   57.0620   33.5870   45.0870 C   0  0  0  0  0  0  0  0  0  0  0  0
   57.3890   32.3580   45.7370 O   0  0  0  0  0  0  0  0  0  0  0  0
   57.5740   31.1190   45.1000 C   0  0  0  0  0  0  0  0  0  0  0  0
   56.6400   30.7300   44.1320 C   0  0  0  0  0  0  0  0  0  0  0  0
   56.7730   29.5090   43.4640 C   0  0  0  0  0  0  0  0  0  0  0  0
   57.8480   28.6630   43.7580 C   0  0  0  0  0  0  0  0  0  0  0  0
   57.9850   27.4050   43.0710 C   0  0  0  0  0  0  0  0  0  0  0  0
   58.0960   26.3940   42.5200 N   0  0  0  0  0  0  0  0  0  0  0  0
   58.7890   29.0430   44.7220 C   0  0  0  0  0  0  0  0  0  0  0  0
   58.6570   30.2640   45.3900 C   0  0  0  0  0  0  0  0  0  0  0  0
   59.7618   32.0205   49.4499 H   0  0  0  0  0  0  0  0  0  0  0  0
   59.0308   32.7443   47.9774 H   0  0  0  0  0  0  0  0  0  0  0  0
   59.5290   31.0185   47.9774 H   0  0  0  0  0  0  0  0  0  0  0  0
   64.3180   31.3873   48.3289 H   0  0  0  0  0  0  0  0  0  0  0  0
   64.7673   33.3204   46.8111 H   0  0  0  0  0  0  0  0  0  0  0  0
   62.8607   34.6885   45.9636 H   0  0  0  0  0  0  0  0  0  0  0  0
   59.4870   34.5421   47.2474 H   0  0  0  0  0  0  0  0  0  0  0  0
   60.6475   35.3010   46.0699 H   0  0  0  0  0  0  0  0  0  0  0  0
   59.2430   32.7410   45.5940 H   0  0  0  0  0  0  0  0  0  0  0  0
   58.2269   35.3666   45.4605 H   0  0  0  0  0  0  0  0  0  0  0  0
   58.4162   34.6666   43.8064 H   0  0  0  0  0  0  0  0  0  0  0  0
   56.3466   34.1455   45.7086 H   0  0  0  0  0  0  0  0  0  0  0  0
   56.6190   33.3621   44.1056 H   0  0  0  0  0  0  0  0  0  0  0  0
   55.7936   31.3913   43.8949 H   0  0  0  0  0  0  0  0  0  0  0  0
   56.0320   29.2132   42.7068 H   0  0  0  0  0  0  0  0  0  0  0  0
   59.6347   28.3791   44.9546 H   0  0  0  0  0  0  0  0  0  0  0  0
   59.4009   30.5588   46.1448 H   0  0  0  0  0  0  0  0  0  0  0  0
  1  2  1  0
  2  3  2  0
  3  4  1  0
  4  5  2  0
  5  6  1  0
  6  7  2  0
  7  8  1  0
  8  9  1  0
  9 10  1  0
 10 11  1  0
 11 12  1  0
 12 13  1  0
 13 14  2  0
 14 15  1  0
 15 16  2  0
 16 17  1  0
 17 18  3  0
 16 19  1  0
 19 20  2  0
  7  2  1  0
 20 13  1  0
  1 21  1  0
  1 22  1  0
  1 23  1  0
  4 24  1  0
  5 25  1  0
  6 26  1  0
  8 27  1  0
  8 28  1  0
  9 29  1  0
 10 30  1  0
 10 31  1  0
 11 32  1  0
 11 33  1  0
 14 34  1  0
 15 35  1  0
 19 36  1  0
 20 37  1  0
M  END
>  <UniqueID>  (13) 
12

>  <SMILES>  (13) 
Cc1ncccc1CNCCOc1ccc(C#N)cc1

>  <Energy>  (13) 
37.7034055847314

>  <Genealogy>  (13) 
Cc1ncccc1CNCCOc1ccc(C#N)cc1 (3D coordinates assigned)
Cc1ncccc1CNCCOc1ccc(C#N)cc1 (optimized conformer: 37.7034055847314 kcal/mol)

>  <smiles>  (13) 
Cc1ncccc1CNCCOc1ccc(C#N)cc1

>  <score_type>  (13) 
oracle

>  <origin>  (13) 
adg

>  <m_score__min__energy>  (13) 
-6.4500000000000002

>  <m_primary>  (13) 
energy

$$$$
13:0
     RDKit          3D

 32 34  0  0  0  0  0  0  0  0999 V2000
   57.3540   30.1660   44.4710 C   0  0  0  0  0  0  0  0  0  0  0  0
   57.5950   30.9670   45.6220 O   0  0  0  0  0  0  0  0  0  0  0  0
   58.1580   32.2530   45.5980 C   0  0  0  0  0  0  0  0  0  0  0  0
   57.5710   33.3050   44.8670 C   0  0  0  0  0  0  0  0  0  0  0  0
   58.1470   34.5780   44.8720 C   0  0  0  0  0  0  0  0  0  0  0  0
   59.3090   34.8170   45.6050 C   0  0  0  0  0  0  0  0  0  0  0  0
   59.9020   33.7840   46.3340 C   0  0  0  0  0  0  0  0  0  0  0  0
   59.3420   32.4950   46.3260 C   0  0  0  0  0  0  0  0  0  0  0  0
   59.9770   31.4070   47.1540 C   0  0  0  0  0  0  0  0  0  0  0  0
   61.3670   31.7510   47.4480 N   0  0  0  0  0  0  0  0  0  0  0  0
   62.4080   31.3000   46.7520 N   0  0  0  0  0  0  0  0  0  0  0  0
   63.5370   31.8270   47.2180 N   0  0  0  0  0  0  0  0  0  0  0  0
   63.2000   32.6400   48.2310 C   0  0  0  0  0  0  0  0  0  0  0  0
   64.0150   33.4300   49.0360 C   0  0  0  0  0  0  0  0  0  0  0  0
   63.3840   34.2000   50.0330 C   0  0  0  0  0  0  0  0  0  0  0  0
   61.9780   34.1570   50.1920 C   0  0  0  0  0  0  0  0  0  0  0  0
   61.1870   33.3440   49.3570 C   0  0  0  0  0  0  0  0  0  0  0  0
   61.8470   32.5980   48.3790 C   0  0  0  0  0  0  0  0  0  0  0  0
   57.0502   29.1562   44.7841 H   0  0  0  0  0  0  0  0  0  0  0  0
   56.5527   30.6200   43.8695 H   0  0  0  0  0  0  0  0  0  0  0  0
   58.2728   30.1025   43.8695 H   0  0  0  0  0  0  0  0  0  0  0  0
   56.6532   33.1228   44.2886 H   0  0  0  0  0  0  0  0  0  0  0  0
   57.6832   35.3929   44.2969 H   0  0  0  0  0  0  0  0  0  0  0  0
   59.7591   35.8207   45.6090 H   0  0  0  0  0  0  0  0  0  0  0  0
   60.8131   33.9804   46.9182 H   0  0  0  0  0  0  0  0  0  0  0  0
   59.4218   31.2956   48.0970 H   0  0  0  0  0  0  0  0  0  0  0  0
   59.9495   30.4620   46.5917 H   0  0  0  0  0  0  0  0  0  0  0  0
   64.4920   31.6340   46.8420 H   0  0  0  0  0  0  0  0  0  0  0  0
   65.1063   33.4524   48.8997 H   0  0  0  0  0  0  0  0  0  0  0  0
   63.9886   34.8395   50.6929 H   0  0  0  0  0  0  0  0  0  0  0  0
   61.4990   34.7638   50.9745 H   0  0  0  0  0  0  0  0  0  0  0  0
   60.0938   33.2988   49.4709 H   0  0  0  0  0  0  0  0  0  0  0  0
  1  2  1  0
  2  3  1  0
  3  4  2  0
  4  5  1  0
  5  6  2  0
  6  7  1  0
  7  8  2  0
  8  9  1  0
  9 10  1  0
 10 11  1  0
 11 12  2  0
 12 13  1  0
 13 14  2  0
 14 15  1  0
 15 16  2  0
 16 17  1  0
 17 18  2  0
  8  3  1  0
 18 10  1  0
 18 13  1  0
  1 19  1  0
  1 20  1  0
  1 21  1  0
  4 22  1  0
  5 23  1  0
  6 24  1  0
  7 25  1  0
  9 26  1  0
  9 27  1  0
 12 28  1  0
 14 29  1  0
 15 30  1  0
 16 31  1  0
 17 32  1  0
M  CHG  1  12   1
M  END
>  <UniqueID>  (14) 
13

>  <SMILES>  (14) 
COc1ccccc1Cn1n[nH+]c2ccccc21

>  <Energy>  (14) 
78.34093507461522

>  <Genealogy>  (14) 
COc1ccccc1Cn1n[nH+]c2ccccc21 (protonated)
COc1ccccc1Cn1n[nH+]c2ccccc21 (3D coordinates assigned)
COc1ccccc1Cn1n[nH+]c2ccccc21 (optimized conformer: 78.34093507461522 kcal/mol)

>  <smiles>  (14) 
COc1ccccc1Cn1nnc2ccccc21

>  <score_type>  (14) 
oracle

>  <origin>  (14) 
adg

>  <m_score__min__energy>  (14) 
-5.4000000000000004

>  <m_primary>  (14) 
energy

$$$$
14:0
     RDKit          3D

 41 43  0  0  0  0  0  0  0  0999 V2000
   54.6130   24.7320   44.7780 H   0  0  0  0  0  0  0  0  0  0  0  0
   54.8250   25.1140   45.7260 N   0  0  0  0  0  0  0  0  0  0  0  0
   55.9040   25.7880   45.9720 C   0  0  0  0  0  0  0  0  0  0  0  0
   56.9990   25.1430   46.5500 C   0  0  0  0  0  0  0  0  0  0  0  0
   56.9422   24.0722   46.7954 H   0  0  0  0  0  0  0  0  0  0  0  0
   58.1640   25.8600   46.8150 C   0  0  0  0  0  0  0  0  0  0  0  0
   59.0265   25.3523   47.2714 H   0  0  0  0  0  0  0  0  0  0  0  0
   58.2440   27.2310   46.5020 C   0  0  0  0  0  0  0  0  0  0  0  0
   59.4120   28.0050   46.7440 C   0  0  0  0  0  0  0  0  0  0  0  0
   60.6680   27.4250   47.3610 C   0  0  0  0  0  0  0  0  0  0  0  0
   60.8758   26.4461   46.9042 H   0  0  0  0  0  0  0  0  0  0  0  0
   61.5035   28.1167   47.1782 H   0  0  0  0  0  0  0  0  0  0  0  0
   60.4970   27.2480   48.8740 C   0  0  0  0  0  0  0  0  0  0  0  0
   59.6245   26.6055   49.0636 H   0  0  0  0  0  0  0  0  0  0  0  0
   61.4120   26.7887   49.2763 H   0  0  0  0  0  0  0  0  0  0  0  0
   60.2860   28.5910   49.5670 C   0  0  0  0  0  0  0  0  0  0  0  0
   60.3084   28.4484   50.6575 H   0  0  0  0  0  0  0  0  0  0  0  0
   61.0860   29.2858   49.2715 H   0  0  0  0  0  0  0  0  0  0  0  0
   59.3115   29.0070   49.2715 H   0  0  0  0  0  0  0  0  0  0  0  0
   59.3980   29.3770   46.4420 C   0  0  0  0  0  0  0  0  0  0  0  0
   60.2939   29.9833   46.6413 H   0  0  0  0  0  0  0  0  0  0  0  0
   58.2640   29.9860   45.8920 C   0  0  0  0  0  0  0  0  0  0  0  0
   58.2720   31.4330   45.5760 C   0  0  0  0  0  0  0  0  0  0  0  0
   58.7360   32.3330   46.5520 C   0  0  0  0  0  0  0  0  0  0  0  0
   59.1026   31.9510   47.5162 H   0  0  0  0  0  0  0  0  0  0  0  0
   58.7350   33.7070   46.3070 C   0  0  0  0  0  0  0  0  0  0  0  0
   59.0999   34.4023   47.0773 H   0  0  0  0  0  0  0  0  0  0  0  0
   58.2720   34.2000   45.0870 C   0  0  0  0  0  0  0  0  0  0  0  0
   58.2630   35.2841   44.9007 H   0  0  0  0  0  0  0  0  0  0  0  0
   57.8200   33.3200   44.1020 C   0  0  0  0  0  0  0  0  0  0  0  0
   57.4528   33.7163   43.1438 H   0  0  0  0  0  0  0  0  0  0  0  0
   57.8300   31.9310   44.3240 C   0  0  0  0  0  0  0  0  0  0  0  0
   57.3560   31.0150   43.2250 C   0  0  0  0  0  0  0  0  0  0  0  0
   56.8931   30.1205   43.6673 H   0  0  0  0  0  0  0  0  0  0  0  0
   56.6168   31.5407   42.6028 H   0  0  0  0  0  0  0  0  0  0  0  0
   58.2121   30.7152   42.6028 H   0  0  0  0  0  0  0  0  0  0  0  0
   57.1300   29.2160   45.6210 C   0  0  0  0  0  0  0  0  0  0  0  0
   56.2483   29.6883   45.1633 H   0  0  0  0  0  0  0  0  0  0  0  0
   57.1040   27.8490   45.9260 C   0  0  0  0  0  0  0  0  0  0  0  0
   55.9770   27.1180   45.6750 N   0  0  0  0  0  0  0  0  0  0  0  0
   55.1460   27.5880   45.2470 H   0  0  0  0  0  0  0  0  0  0  0  0
  1  2  1  0
  2  3  2  0
  3  4  1  0
  4  5  1  0
  4  6  2  0
  6  7  1  0
  6  8  1  0
  8  9  2  0
  9 10  1  0
 10 11  1  0
 10 12  1  0
 10 13  1  0
 13 14  1  0
 13 15  1  0
 13 16  1  0
 16 17  1  0
 16 18  1  0
 16 19  1  0
  9 20  1  0
 20 21  1  0
 20 22  2  0
 22 23  1  0
 23 24  2  0
 24 25  1  0
 24 26  1  0
 26 27  1  0
 26 28  2  0
 28 29  1  0
 28 30  1  0
 30 31  1  0
 30 32  2  0
 32 33  1  0
 33 34  1  0
 33 35  1  0
 33 36  1  0
 22 37  1  0
 37 38  1  0
 37 39  2  0
 39 40  1  0
 40 41  1  0
 40  3  1  0
 39  8  1  0
 32 23  1  0
M  END
>  <UniqueID>  (15) 
14

>  <SMILES>  (15) 
[H]/N=c1/ccc2c(CCC)cc(-c3ccccc3C)cc2[nH]1

>  <Energy>  (15) 
50.9748252473297

>  <Genealogy>  (15) 
[H]/N=c1/ccc2c(CCC)cc(-c3ccccc3C)cc2[nH]1 (cis-trans isomerization)
[H]/N=c1/ccc2c(CCC)cc(-c3ccccc3C)cc2[nH]1 (3D coordinates assigned)
[H]/N=c1/ccc2c(CCC)cc(-c3ccccc3C)cc2[nH]1 (optimized conformer: 50.9748252473297 kcal/mol)

>  <smiles>  (15) 
CCCc1cc(-c2ccccc2C)cc2[nH]c(=N)ccc12

>  <score_type>  (15) 
oracle

>  <origin>  (15) 
adg

>  <m_score__min__energy>  (15) 
-8.3200000000000003

>  <m_primary>  (15) 
energy

$$$$
15:0
     RDKit          3D

 53 56  0  0  0  0  0  0  0  0999 V2000
   63.7780   33.0710   46.7350 C   0  0  0  0  0  0  0  0  0  0  0  0
   62.5280   33.8500   47.1780 C   0  0  0  0  0  0  0  0  0  0  0  0
   62.2220   33.7510   48.6210 N   0  0  0  0  0  0  0  0  0  0  0  0
   62.3640   32.4460   49.2780 C   0  0  0  0  0  0  0  0  0  0  0  0
   61.3340   32.4060   50.4020 C   0  0  0  0  0  0  0  0  0  0  0  0
   60.8960   33.8490   50.5930 C   0  0  0  0  0  0  0  0  0  0  0  0
   61.1100   34.5090   49.2280 C   0  0  2  0  0  0  0  0  0  0  0  0
   59.7850   34.5060   48.4160 C   0  0  0  0  0  0  0  0  0  0  0  0
   59.7020   33.3660   47.5040 N   0  0  0  0  0  0  0  0  0  0  0  0
   58.4620   32.8980   46.9520 C   0  0  0  0  0  0  0  0  0  0  0  0
   57.4010   33.5540   47.1380 O   0  0  0  0  0  0  0  0  0  0  0  0
   58.4090   31.6940   46.1050 C   0  0  0  0  0  0  0  0  0  0  0  0
   57.3750   31.4770   45.2470 N   0  0  0  0  0  0  0  0  0  0  0  0
   57.6660   30.2820   44.7100 C   0  0  0  0  0  0  0  0  0  0  0  0
   56.9300   29.5820   43.7590 C   0  0  0  0  0  0  0  0  0  0  0  0
   57.4200   28.3290   43.3430 C   0  0  0  0  0  0  0  0  0  0  0  0
   58.6210   27.8120   43.8860 C   0  0  0  0  0  0  0  0  0  0  0  0
   59.3390   28.5420   44.8500 C   0  0  0  0  0  0  0  0  0  0  0  0
   58.8270   29.7870   45.2350 C   0  0  0  0  0  0  0  0  0  0  0  0
   59.3140   30.6690   46.1300 N   0  0  0  0  0  0  0  0  0  0  0  0
   60.4640   30.4770   47.0250 C   0  0  0  0  0  0  0  0  0  0  0  0
   60.0530   30.0870   48.4270 C   0  0  0  0  0  0  0  0  0  0  0  0
   60.7220   29.0230   49.0650 C   0  0  0  0  0  0  0  0  0  0  0  0
   60.3670   28.6420   50.3620 C   0  0  0  0  0  0  0  0  0  0  0  0
   59.3430   29.3140   51.0370 C   0  0  0  0  0  0  0  0  0  0  0  0
   58.6880   30.3890   50.4240 C   0  0  0  0  0  0  0  0  0  0  0  0
   57.4150   31.2450   51.2770 Cl  0  0  0  0  0  0  0  0  0  0  0  0
   59.0430   30.7810   49.1280 C   0  0  0  0  0  0  0  0  0  0  0  0
   64.3295   32.7273   47.6225 H   0  0  0  0  0  0  0  0  0  0  0  0
   63.4742   32.2020   46.1328 H   0  0  0  0  0  0  0  0  0  0  0  0
   64.4243   33.7265   46.1328 H   0  0  0  0  0  0  0  0  0  0  0  0
   62.6794   34.9112   46.9311 H   0  0  0  0  0  0  0  0  0  0  0  0
   61.6758   33.4014   46.6465 H   0  0  0  0  0  0  0  0  0  0  0  0
   62.1714   31.6365   48.5585 H   0  0  0  0  0  0  0  0  0  0  0  0
   63.3826   32.3095   49.6701 H   0  0  0  0  0  0  0  0  0  0  0  0
   60.4773   31.7773   50.1179 H   0  0  0  0  0  0  0  0  0  0  0  0
   61.7499   31.9770   51.3256 H   0  0  0  0  0  0  0  0  0  0  0  0
   59.8363   33.8966   50.8841 H   0  0  0  0  0  0  0  0  0  0  0  0
   61.4632   34.3521   51.3900 H   0  0  0  0  0  0  0  0  0  0  0  0
   61.3793   35.5745   49.2755 H   0  0  0  0  0  0  0  0  0  0  0  0
   58.9390   34.4614   49.1176 H   0  0  0  0  0  0  0  0  0  0  0  0
   59.7549   35.4255   47.8129 H   0  0  0  0  0  0  0  0  0  0  0  0
   60.5820   32.8400   47.3050 H   0  0  0  0  0  0  0  0  0  0  0  0
   55.9971   29.9934   43.3461 H   0  0  0  0  0  0  0  0  0  0  0  0
   56.8659   27.7480   42.5911 H   0  0  0  0  0  0  0  0  0  0  0  0
   58.9949   26.8330   43.5517 H   0  0  0  0  0  0  0  0  0  0  0  0
   60.2694   28.1490   45.2859 H   0  0  0  0  0  0  0  0  0  0  0  0
   61.1029   29.6827   46.6117 H   0  0  0  0  0  0  0  0  0  0  0  0
   60.9985   31.4362   47.0899 H   0  0  0  0  0  0  0  0  0  0  0  0
   61.5278   28.4897   48.5393 H   0  0  0  0  0  0  0  0  0  0  0  0
   60.8946   27.8112   50.8533 H   0  0  0  0  0  0  0  0  0  0  0  0
   59.0521   28.9980   52.0497 H   0  0  0  0  0  0  0  0  0  0  0  0
   58.5332   31.6328   48.6541 H   0  0  0  0  0  0  0  0  0  0  0  0
  1  2  1  0
  2  3  1  0
  3  4  1  0
  4  5  1  0
  5  6  1  0
  6  7  1  0
  7  8  1  0
  8  9  1  0
  9 10  1  0
 10 11  2  0
 10 12  1  0
 12 13  2  0
 13 14  1  0
 14 15  2  0
 15 16  1  0
 16 17  2  0
 17 18  1  0
 18 19  2  0
 19 20  1  0
 20 21  1  0
 21 22  1  0
 22 23  2  0
 23 24  1  0
 24 25  2  0
 25 26  1  0
 26 27  1  0
 26 28  2  0
  7  3  1  0
 20 12  1  0
 28 22  1  0
 19 14  1  0
  1 29  1  0
  1 30  1  0
  1 31  1  0
  2 32  1  0
  2 33  1  0
  4 34  1  0
  4 35  1  0
  5 36  1  0
  5 37  1  0
  6 38  1  0
  6 39  1  0
  7 40  1  1
  8 41  1  0
  8 42  1  0
  9 43  1  0
 15 44  1  0
 16 45  1  0
 17 46  1  0
 18 47  1  0
 21 48  1  0
 21 49  1  0
 23 50  1  0
 24 51  1  0
 25 52  1  0
 28 53  1  0
M  END
>  <UniqueID>  (16) 
15

>  <SMILES>  (16) 
CCN1CCC[C@@H]1CNC(=O)c1nc2ccccc2n1Cc1cccc(Cl)c1

>  <Energy>  (16) 
109.047809878614

>  <Genealogy>  (16) 
CCN1CCC[C@@H]1CNC(=O)c1nc2ccccc2n1Cc1cccc(Cl)c1 (chirality)
CCN1CCC[C@@H]1CNC(=O)c1nc2ccccc2n1Cc1cccc(Cl)c1 (3D coordinates assigned)
CCN1CCC[C@@H]1CNC(=O)c1nc2ccccc2n1Cc1cccc(Cl)c1 (nonaromatic ring conformer: 109.047809878614 kcal/mol)

>  <smiles>  (16) 
CCN1CCCC1CNC(=O)c1nc2ccccc2n1Cc1cccc(Cl)c1

>  <score_type>  (16) 
oracle

>  <origin>  (16) 
adg

>  <m_score__min__energy>  (16) 
-8.4199999999999999

>  <m_primary>  (16) 
energy

$$$$
16:0
     RDKit          3D

 32 33  0  0  0  0  0  0  0  0999 V2000
   63.6099   34.2920   46.2635 H   0  0  0  0  0  0  0  0  0  0  0  0
   63.0110   33.4840   46.7090 C   0  0  0  0  0  0  0  0  0  0  0  0
   62.3550   32.5990   47.1970 C   0  0  0  0  0  0  0  0  0  0  0  0
   61.5580   31.5210   47.7910 C   0  0  0  0  0  0  0  0  0  0  0  0
   62.1317   30.5830   47.7584 H   0  0  0  0  0  0  0  0  0  0  0  0
   61.3230   31.7777   48.8345 H   0  0  0  0  0  0  0  0  0  0  0  0
   60.3120   31.3530   47.0450 N   0  0  0  0  0  0  0  0  0  0  0  0
   59.8950   30.1730   46.3590 C   0  0  0  0  0  0  0  0  0  0  0  0
   60.4120   29.0430   46.5630 O   0  0  0  0  0  0  0  0  0  0  0  0
   58.7610   30.4640   45.4600 C   0  0  0  0  0  0  0  0  0  0  0  0
   58.0410   29.6490   44.6690 C   0  0  0  0  0  0  0  0  0  0  0  0
   58.5849   29.1084   43.8804 H   0  0  0  0  0  0  0  0  0  0  0  0
   56.5910   29.4150   44.7630 C   0  0  0  0  0  0  0  0  0  0  0  0
   55.7650   30.3270   44.4900 O   0  0  0  0  0  0  0  0  0  0  0  0
   56.1440   28.1810   45.2450 O   0  0  0  0  0  0  0  0  0  0  0  0
   57.0080   27.1970   45.8110 C   0  0  0  0  0  0  0  0  0  0  0  0
   57.7268   27.6904   46.4817 H   0  0  0  0  0  0  0  0  0  0  0  0
   56.3994   26.4718   46.3711 H   0  0  0  0  0  0  0  0  0  0  0  0
   57.7700   26.4570   44.7180 C   0  0  0  0  0  0  0  0  0  0  0  0
   58.4869   25.7608   45.1778 H   0  0  0  0  0  0  0  0  0  0  0  0
   57.0608   25.8937   44.0937 H   0  0  0  0  0  0  0  0  0  0  0  0
   58.3123   27.1824   44.0937 H   0  0  0  0  0  0  0  0  0  0  0  0
   58.5310   31.9010   45.6510 C   0  0  0  0  0  0  0  0  0  0  0  0
   57.5990   32.7510   45.0450 C   0  0  0  0  0  0  0  0  0  0  0  0
   56.8679   32.3605   44.3218 H   0  0  0  0  0  0  0  0  0  0  0  0
   57.6190   34.1150   45.3820 C   0  0  0  0  0  0  0  0  0  0  0  0
   56.7290   34.9630   44.8120 F   0  0  0  0  0  0  0  0  0  0  0  0
   58.5640   34.6060   46.3040 C   0  0  0  0  0  0  0  0  0  0  0  0
   58.5722   35.6759   46.5596 H   0  0  0  0  0  0  0  0  0  0  0  0
   59.4950   33.7410   46.8990 C   0  0  0  0  0  0  0  0  0  0  0  0
   60.2376   34.1200   47.6166 H   0  0  0  0  0  0  0  0  0  0  0  0
   59.4560   32.3870   46.5580 C   0  0  0  0  0  0  0  0  0  0  0  0
  1  2  1  0
  2  3  3  0
  3  4  1  0
  4  5  1  0
  4  6  1  0
  4  7  1  0
  7  8  1  0
  8  9  2  0
  8 10  1  0
 10 11  2  0
 11 12  1  0
 11 13  1  0
 13 14  2  0
 13 15  1  0
 15 16  1  0
 16 17  1  0
 16 18  1  0
 16 19  1  0
 19 20  1  0
 19 21  1  0
 19 22  1  0
 10 23  1  0
 23 24  2  0
 24 25  1  0
 24 26  1  0
 26 27  1  0
 26 28  2  0
 28 29  1  0
 28 30  1  0
 30 31  1  0
 30 32  2  0
 32  7  1  0
 32 23  1  0
M  END
>  <UniqueID>  (17) 
16

>  <SMILES>  (17) 
C#CCN1C(=O)/C(=C\C(=O)OCC)c2cc(F)ccc21

>  <Energy>  (17) 
59.52207645453308

>  <Genealogy>  (17) 
C#CCN1C(=O)/C(=C\C(=O)OCC)c2cc(F)ccc21 (cis-trans isomerization)
C#CCN1C(=O)/C(=C\C(=O)OCC)c2cc(F)ccc21 (3D coordinates assigned)
C#CCN1C(=O)/C(=C\C(=O)OCC)c2cc(F)ccc21 (nonaromatic ring conformer: 59.52207645453308 kcal/mol)

>  <smiles>  (17) 
C#CCN1C(=O)C(=CC(=O)OCC)c2cc(F)ccc21

>  <score_type>  (17) 
oracle

>  <origin>  (17) 
adg

>  <m_score__min__energy>  (17) 
-6.5599999999999996

>  <m_primary>  (17) 
energy

$$$$
17:0
     RDKit          3D

 43 44  0  0  0  0  0  0  0  0999 V2000
   60.5840   29.2420   45.6200 C   0  0  0  0  0  0  0  0  0  0  0  0
   59.7620   28.0240   45.5290 N   0  0  0  0  0  0  0  0  0  0  0  0
   59.2840   27.8550   44.1470 C   0  0  0  0  0  0  0  0  0  0  0  0
   58.6150   28.0860   46.4600 C   0  0  0  0  0  0  0  0  0  0  0  0
   57.2850   27.9010   45.7180 C   0  0  0  0  0  0  0  0  0  0  0  0
   56.5980   29.1440   45.5690 O   0  0  0  0  0  0  0  0  0  0  0  0
   57.2150   30.3250   45.1380 C   0  0  0  0  0  0  0  0  0  0  0  0
   57.8890   31.1170   46.0160 N   0  0  0  0  0  0  0  0  0  0  0  0
   58.5080   32.2710   45.6410 C   0  0  0  0  0  0  0  0  0  0  0  0
   59.2190   33.0400   46.6320 N   0  0  0  0  0  0  0  0  0  0  0  0
   58.5500   33.4940   47.8620 C   0  0  0  0  0  0  0  0  0  0  0  0
   59.4970   33.5120   49.0870 C   0  0  0  0  0  0  0  0  0  0  0  0
   60.9290   33.4080   48.7300 N   0  0  0  0  0  0  0  0  0  0  0  0
   61.7700   33.8600   49.8480 C   0  0  0  0  0  0  0  0  0  0  0  0
   61.2280   34.1780   47.5160 C   0  0  0  0  0  0  0  0  0  0  0  0
   60.5930   33.4640   46.3270 C   0  0  0  0  0  0  0  0  0  0  0  0
   58.4660   32.6590   44.2880 C   0  0  0  0  0  0  0  0  0  0  0  0
   59.1220   33.7610   43.8440 F   0  0  0  0  0  0  0  0  0  0  0  0
   57.7730   31.8670   43.3700 C   0  0  0  0  0  0  0  0  0  0  0  0
   57.1400   30.6960   43.7910 C   0  0  0  0  0  0  0  0  0  0  0  0
   56.2820   29.6980   42.6280 Cl  0  0  0  0  0  0  0  0  0  0  0  0
   60.7529   29.4922   46.6778 H   0  0  0  0  0  0  0  0  0  0  0  0
   61.5511   29.0695   45.1251 H   0  0  0  0  0  0  0  0  0  0  0  0
   60.0622   30.0743   45.1251 H   0  0  0  0  0  0  0  0  0  0  0  0
   58.2470   27.4884   44.1600 H   0  0  0  0  0  0  0  0  0  0  0  0
   59.3245   28.8220   43.6242 H   0  0  0  0  0  0  0  0  0  0  0  0
   59.9233   27.1284   43.6242 H   0  0  0  0  0  0  0  0  0  0  0  0
   58.7199   27.2897   47.2116 H   0  0  0  0  0  0  0  0  0  0  0  0
   58.6103   29.0757   46.9401 H   0  0  0  0  0  0  0  0  0  0  0  0
   57.4858   27.4806   44.7215 H   0  0  0  0  0  0  0  0  0  0  0  0
   56.6505   27.2213   46.3058 H   0  0  0  0  0  0  0  0  0  0  0  0
   58.1669   34.5121   47.6987 H   0  0  0  0  0  0  0  0  0  0  0  0
   57.7390   32.7836   48.0801 H   0  0  0  0  0  0  0  0  0  0  0  0
   59.3421   34.4546   49.6325 H   0  0  0  0  0  0  0  0  0  0  0  0
   59.2518   32.6303   49.6974 H   0  0  0  0  0  0  0  0  0  0  0  0
   61.2851   33.5994   50.8003 H   0  0  0  0  0  0  0  0  0  0  0  0
   62.7523   33.3683   49.7901 H   0  0  0  0  0  0  0  0  0  0  0  0
   61.9019   34.9505   49.7901 H   0  0  0  0  0  0  0  0  0  0  0  0
   60.8113   35.1920   47.6067 H   0  0  0  0  0  0  0  0  0  0  0  0
   62.3162   34.2550   47.3746 H   0  0  0  0  0  0  0  0  0  0  0  0
   60.5743   34.1483   45.4660 H   0  0  0  0  0  0  0  0  0  0  0  0
   61.1906   32.5691   46.0990 H   0  0  0  0  0  0  0  0  0  0  0  0
   57.7258   32.1665   42.3126 H   0  0  0  0  0  0  0  0  0  0  0  0
  1  2  1  0
  2  3  1  0
  2  4  1  0
  4  5  1  0
  5  6  1  0
  6  7  1  0
  7  8  2  0
  8  9  1  0
  9 10  1  0
 10 11  1  0
 11 12  1  0
 12 13  1  0
 13 14  1  0
 13 15  1  0
 15 16  1  0
  9 17  2  0
 17 18  1  0
 17 19  1  0
 19 20  2  0
 20 21  1  0
 20  7  1  0
 16 10  1  0
  1 22  1  0
  1 23  1  0
  1 24  1  0
  3 25  1  0
  3 26  1  0
  3 27  1  0
  4 28  1  0
  4 29  1  0
  5 30  1  0
  5 31  1  0
 11 32  1  0
 11 33  1  0
 12 34  1  0
 12 35  1  0
 14 36  1  0
 14 37  1  0
 14 38  1  0
 15 39  1  0
 15 40  1  0
 16 41  1  0
 16 42  1  0
 19 43  1  0
M  END
>  <UniqueID>  (18) 
17

>  <SMILES>  (18) 
CN(C)CCOc1nc(N2CCN(C)CC2)c(F)cc1Cl

>  <Energy>  (18) 
47.58856325996883

>  <Genealogy>  (18) 
CN(C)CCOc1nc(N2CCN(C)CC2)c(F)cc1Cl (3D coordinates assigned)
CN(C)CCOc1nc(N2CCN(C)CC2)c(F)cc1Cl (nonaromatic ring conformer: 47.58856325996883 kcal/mol)

>  <smiles>  (18) 
CN(C)CCOc1nc(N2CCN(C)CC2)c(F)cc1Cl

>  <score_type>  (18) 
oracle

>  <origin>  (18) 
adg

>  <m_score__min__energy>  (18) 
-6.46

>  <m_primary>  (18) 
energy

$$$$
18:0
     RDKit          3D

 38 39  0  0  0  0  0  0  0  0999 V2000
   55.9070   29.8890   43.5470 C   0  0  0  0  0  0  0  0  0  0  0  0
   56.4760   30.8370   44.5080 N   0  0  0  0  0  0  0  0  0  0  0  0
   57.5150   31.6800   43.8960 C   0  0  0  0  0  0  0  0  0  0  0  0
   58.1780   32.5930   44.9070 C   0  0  0  0  0  0  0  0  0  0  0  0
   58.6700   33.8390   44.4880 C   0  0  0  0  0  0  0  0  0  0  0  0
   59.2700   34.7090   45.4020 C   0  0  0  0  0  0  0  0  0  0  0  0
   59.3720   34.3480   46.7460 C   0  0  0  0  0  0  0  0  0  0  0  0
   58.8800   33.1150   47.1790 C   0  0  0  0  0  0  0  0  0  0  0  0
   58.2890   32.2210   46.2640 C   0  0  0  0  0  0  0  0  0  0  0  0
   57.7700   30.9860   46.6860 O   0  0  0  0  0  0  0  0  0  0  0  0
   58.5060   29.9720   47.3150 C   0  0  0  0  0  0  0  0  0  0  0  0
   59.1040   30.2460   48.5390 C   0  0  0  0  0  0  0  0  0  0  0  0
   59.8300   29.2900   49.1710 N   0  0  0  0  0  0  0  0  0  0  0  0
   59.9880   28.0660   48.6510 N   0  0  0  0  0  0  0  0  0  0  0  0
   60.7850   27.0720   49.3800 C   0  0  0  0  0  0  0  0  0  0  0  0
   59.3900   27.7260   47.4650 C   0  0  0  0  0  0  0  0  0  0  0  0
   59.5300   26.5600   47.0070 O   0  0  0  0  0  0  0  0  0  0  0  0
   58.6150   28.6830   46.7690 C   0  0  0  0  0  0  0  0  0  0  0  0
   57.9250   28.4130   45.5720 O   0  0  0  0  0  0  0  0  0  0  0  0
   58.4970   27.9450   44.3550 C   0  0  0  0  0  0  0  0  0  0  0  0
   55.4145   29.0684   44.0892 H   0  0  0  0  0  0  0  0  0  0  0  0
   55.1696   30.4056   42.9151 H   0  0  0  0  0  0  0  0  0  0  0  0
   56.7097   29.4812   42.9151 H   0  0  0  0  0  0  0  0  0  0  0  0
   56.8860   30.2990   45.3070 H   0  0  0  0  0  0  0  0  0  0  0  0
   58.2815   31.0297   43.4493 H   0  0  0  0  0  0  0  0  0  0  0  0
   57.0335   32.3113   43.1347 H   0  0  0  0  0  0  0  0  0  0  0  0
   58.5825   34.1329   43.4316 H   0  0  0  0  0  0  0  0  0  0  0  0
   59.6621   35.6789   45.0619 H   0  0  0  0  0  0  0  0  0  0  0  0
   59.8406   35.0357   47.4654 H   0  0  0  0  0  0  0  0  0  0  0  0
   58.9543   32.8397   48.2414 H   0  0  0  0  0  0  0  0  0  0  0  0
   58.9885   31.2398   48.9963 H   0  0  0  0  0  0  0  0  0  0  0  0
   60.2710   29.5390   50.0850 H   0  0  0  0  0  0  0  0  0  0  0  0
   60.6619   27.2255   50.4623 H   0  0  0  0  0  0  0  0  0  0  0  0
   60.4445   26.0609   49.1120 H   0  0  0  0  0  0  0  0  0  0  0  0
   61.8459   27.1846   49.1120 H   0  0  0  0  0  0  0  0  0  0  0  0
   59.3304   27.2632   44.5799 H   0  0  0  0  0  0  0  0  0  0  0  0
   57.7325   27.4100   43.7724 H   0  0  0  0  0  0  0  0  0  0  0  0
   58.8700   28.8003   43.7724 H   0  0  0  0  0  0  0  0  0  0  0  0
  1  2  1  0
  2  3  1  0
  3  4  1  0
  4  5  2  0
  5  6  1  0
  6  7  2  0
  7  8  1  0
  8  9  2  0
  9 10  1  0
 10 11  1  0
 11 12  1  0
 12 13  2  0
 13 14  1  0
 14 15  1  0
 14 16  1  0
 16 17  2  0
 16 18  1  0
 18 19  1  0
 19 20  1  0
  9  4  1  0
 18 11  2  0
  1 21  1  0
  1 22  1  0
  1 23  1  0
  2 24  1  0
  3 25  1  0
  3 26  1  0
  5 27  1  0
  6 28  1  0
  7 29  1  0
  8 30  1  0
 12 31  1  0
 13 32  1  0
 15 33  1  0
 15 34  1  0
 15 35  1  0
 20 36  1  0
 20 37  1  0
 20 38  1  0
M  CHG  1  13   1
M  END
>  <UniqueID>  (19) 
18

>  <SMILES>  (19) 
CNCc1ccccc1Oc1c[nH+]n(C)c(=O)c1OC

>  <Energy>  (19) 
48.412925997270065

>  <Genealogy>  (19) 
CNCc1ccccc1Oc1c[nH+]n(C)c(=O)c1OC (protonated)
CNCc1ccccc1Oc1c[nH+]n(C)c(=O)c1OC (3D coordinates assigned)
CNCc1ccccc1Oc1c[nH+]n(C)c(=O)c1OC (optimized conformer: 48.412925997270065 kcal/mol)

>  <smiles>  (19) 
CNCc1ccccc1Oc1cnn(C)c(=O)c1OC

>  <score_type>  (19) 
oracle

>  <origin>  (19) 
adg

>  <m_score__min__energy>  (19) 
-4.2599999999999998

>  <m_primary>  (19) 
energy

$$$$
19:0
     RDKit          3D

 38 40  0  0  1  0  0  0  0  0999 V2000
   56.4750   29.7630   43.3470 C   0  0  0  0  0  0  0  0  0  0  0  0
   57.0700   31.0610   43.7890 C   0  0  0  0  0  0  0  0  0  0  0  0
   56.4690   31.6520   44.8700 O   0  0  0  0  0  0  0  0  0  0  0  0
   56.9800   32.8750   45.2280 C   0  0  0  0  0  0  0  0  0  0  0  0
   58.3500   32.7260   45.8040 C   0  0  0  0  0  0  0  0  0  0  0  0
   59.1970   33.7610   45.9240 N   0  0  0  0  0  0  0  0  0  0  0  0
   60.3170   33.2570   46.4760 C   0  0  0  0  0  0  0  0  0  0  0  0
   61.4890   33.8700   46.8140 N   0  0  0  0  0  0  0  0  0  0  0  0
   62.4990   33.1870   47.3600 C   0  0  0  0  0  0  0  0  0  0  0  0
   63.7730   33.8430   47.7300 C   0  0  0  0  0  0  0  0  0  0  0  0
   62.3480   31.8370   47.5840 C   0  0  0  0  0  0  0  0  0  0  0  0
   61.1400   31.2370   47.2290 C   0  0  0  0  0  0  0  0  0  0  0  0
   61.0400   29.9520   47.4590 N   0  0  0  0  0  0  0  0  0  0  0  0
   60.2540   29.1190   46.6060 C   0  0  0  0  0  0  0  0  0  0  0  0
   60.4640   29.0380   45.2430 C   0  0  0  0  0  0  0  0  0  0  0  0
   59.6590   28.2070   44.4900 C   0  0  0  0  0  0  0  0  0  0  0  0
   58.6650   27.4710   45.0850 C   0  0  0  0  0  0  0  0  0  0  0  0
   58.4450   27.5450   46.4530 C   0  0  0  0  0  0  0  0  0  0  0  0
   59.2600   28.3830   47.2020 C   0  0  0  0  0  0  0  0  0  0  0  0
   60.1290   31.9390   46.6780 N   0  0  0  0  0  0  0  0  0  0  0  0
   58.9190   31.5900   46.2700 N   0  0  0  0  0  0  0  0  0  0  0  0
   56.2012   29.1658   44.2293 H   0  0  0  0  0  0  0  0  0  0  0  0
   55.5765   29.9582   42.7432 H   0  0  0  0  0  0  0  0  0  0  0  0
   57.2094   29.2097   42.7432 H   0  0  0  0  0  0  0  0  0  0  0  0
   58.1242   30.8798   44.0454 H   0  0  0  0  0  0  0  0  0  0  0  0
   56.9290   31.7573   42.9492 H   0  0  0  0  0  0  0  0  0  0  0  0
   57.0304   33.5199   44.3383 H   0  0  0  0  0  0  0  0  0  0  0  0
   56.3236   33.3242   45.9878 H   0  0  0  0  0  0  0  0  0  0  0  0
   63.8581   33.8868   48.8258 H   0  0  0  0  0  0  0  0  0  0  0  0
   64.6151   33.2664   47.3196 H   0  0  0  0  0  0  0  0  0  0  0  0
   63.7927   34.8634   47.3196 H   0  0  0  0  0  0  0  0  0  0  0  0
   63.1603   31.2460   48.0321 H   0  0  0  0  0  0  0  0  0  0  0  0
   61.2607   29.6268   44.7649 H   0  0  0  0  0  0  0  0  0  0  0  0
   59.8155   28.1341   43.4036 H   0  0  0  0  0  0  0  0  0  0  0  0
   58.0341   26.8134   44.4689 H   0  0  0  0  0  0  0  0  0  0  0  0
   57.6476   26.9565   46.9304 H   0  0  0  0  0  0  0  0  0  0  0  0
   59.1071   28.4584   48.2887 H   0  0  0  0  0  0  0  0  0  0  0  0
   58.4940   30.6290   46.3030 H   0  0  0  0  0  0  0  0  0  0  0  0
  1  2  1  0
  2  3  1  0
  3  4  1  0
  4  5  1  0
  5  6  2  0
  6  7  1  0
  7  8  2  0
  8  9  1  0
  9 10  1  0
  9 11  2  0
 11 12  1  0
 12 13  2  0
 13 14  1  0
 14 15  2  0
 15 16  1  0
 16 17  2  0
 17 18  1  0
 18 19  2  0
 12 20  1  0
 20 21  1  0
 21  5  1  0
 20  7  1  0
 19 14  1  0
  1 22  1  0
  1 23  1  0
  1 24  1  0
  2 25  1  0
  2 26  1  0
  4 27  1  0
  4 28  1  0
 10 29  1  0
 10 30  1  0
 10 31  1  0
 11 32  1  0
 15 33  1  0
 16 34  1  0
 17 35  1  0
 18 36  1  0
 19 37  1  0
 21 38  1  0
M  END
>  <smiles>  (20) 
CCOCc1nc2nc(C)cc(=Nc3ccccc3)n2[nH]1

>  <score_type>  (20) 
oracle

>  <origin>  (20) 
adg

>  <m_score__min__energy>  (20) 
-6.6399999999999997

>  <m_primary>  (20) 
energy

$$$$
20:0
     RDKit          3D

 33 36  0  0  0  0  0  0  0  0999 V2000
   59.3560   34.9630   45.9380 C   0  0  0  0  0  0  0  0  0  0  0  0
   58.4950   34.5750   44.9110 C   0  0  0  0  0  0  0  0  0  0  0  0
   58.0420   33.2560   44.8410 C   0  0  0  0  0  0  0  0  0  0  0  0
   58.4570   32.3270   45.8150 C   0  0  0  0  0  0  0  0  0  0  0  0
   58.0100   30.9100   45.7840 C   0  0  0  0  0  0  0  0  0  0  0  0
   57.0710   30.4940   44.8250 C   0  0  0  0  0  0  0  0  0  0  0  0
   56.6430   29.1650   44.7750 C   0  0  0  0  0  0  0  0  0  0  0  0
   57.1510   28.2180   45.6800 C   0  0  0  0  0  0  0  0  0  0  0  0
   56.6990   26.8100   45.6270 C   0  0  0  0  0  0  0  0  0  0  0  0
   57.4990   25.7910   45.2110 N   0  0  0  0  0  0  0  0  0  0  0  0
   56.6970   24.7220   45.3230 C   0  0  0  0  0  0  0  0  0  0  0  0
   57.0000   23.3950   45.0290 C   0  0  0  0  0  0  0  0  0  0  0  0
   55.9880   22.4350   45.2290 C   0  0  0  0  0  0  0  0  0  0  0  0
   54.7170   22.8270   45.7110 C   0  0  0  0  0  0  0  0  0  0  0  0
   54.4500   24.1780   45.9970 C   0  0  0  0  0  0  0  0  0  0  0  0
   55.4750   25.0980   45.7870 C   0  0  0  0  0  0  0  0  0  0  0  0
   55.4450   26.4230   45.9890 N   0  0  0  0  0  0  0  0  0  0  0  0
   58.1000   28.6280   46.6310 C   0  0  0  0  0  0  0  0  0  0  0  0
   58.5270   29.9580   46.6820 C   0  0  0  0  0  0  0  0  0  0  0  0
   59.3080   32.7370   46.7990 N   0  0  0  0  0  0  0  0  0  0  0  0
   59.7590   34.0170   46.8810 C   0  0  0  0  0  0  0  0  0  0  0  0
   59.7126   36.0016   46.0034 H   0  0  0  0  0  0  0  0  0  0  0  0
   58.1731   35.3080   44.1566 H   0  0  0  0  0  0  0  0  0  0  0  0
   57.3659   32.9447   44.0310 H   0  0  0  0  0  0  0  0  0  0  0  0
   56.6685   31.2226   44.1059 H   0  0  0  0  0  0  0  0  0  0  0  0
   55.9028   28.8578   44.0215 H   0  0  0  0  0  0  0  0  0  0  0  0
   57.9932   23.1066   44.6543 H   0  0  0  0  0  0  0  0  0  0  0  0
   56.1872   21.3757   45.0093 H   0  0  0  0  0  0  0  0  0  0  0  0
   53.9329   22.0707   45.8630 H   0  0  0  0  0  0  0  0  0  0  0  0
   53.4667   24.4969   46.3732 H   0  0  0  0  0  0  0  0  0  0  0  0
   58.5108   27.8959   47.3419 H   0  0  0  0  0  0  0  0  0  0  0  0
   59.2734   30.2630   47.4303 H   0  0  0  0  0  0  0  0  0  0  0  0
   60.4428   34.3073   47.6923 H   0  0  0  0  0  0  0  0  0  0  0  0
  1  2  2  0
  2  3  1  0
  3  4  2  0
  4  5  1  0
  5  6  2  0
  6  7  1  0
  7  8  2  0
  8  9  1  0
  9 10  2  0
 10 11  1  0
 11 12  2  0
 12 13  1  0
 13 14  2  0
 14 15  1  0
 15 16  2  0
 16 17  1  0
  8 18  1  0
 18 19  2  0
  4 20  1  0
 20 21  2  0
 21  1  1  0
 19  5  1  0
 17  9  1  0
 16 11  1  0
  1 22  1  0
  2 23  1  0
  3 24  1  0
  6 25  1  0
  7 26  1  0
 12 27  1  0
 13 28  1  0
 14 29  1  0
 15 30  1  0
 18 31  1  0
 19 32  1  0
 21 33  1  0
M  CHG  1  17  -1
M  END
>  <UniqueID>  (21) 
19

>  <SMILES>  (21) 
c1ccc(-c2ccc(-c3nc4ccccc4[n-]3)cc2)nc1

>  <Energy>  (21) 
78.25301854543842

>  <Genealogy>  (21) 
c1ccc(-c2ccc(-c3nc4ccccc4[n-]3)cc2)nc1 (protonated)
c1ccc(-c2ccc(-c3nc4ccccc4[n-]3)cc2)nc1 (3D coordinates assigned)
c1ccc(-c2ccc(-c3nc4ccccc4[n-]3)cc2)nc1 (optimized conformer: 78.25301854543842 kcal/mol)

>  <smiles>  (21) 
c1ccc(-c2ccc(-c3nc4ccccc4[nH]3)cc2)nc1

>  <score_type>  (21) 
oracle

>  <origin>  (21) 
adg

>  <m_score__min__energy>  (21) 
-8.8599999999999994

>  <m_primary>  (21) 
energy

$$$$
21:0
     RDKit          3D

 32 33  0  0  0  0  0  0  0  0999 V2000
   58.1290   28.3830   46.7610 C   0  0  0  0  0  0  0  0  0  0  0  0
   58.6630   29.7190   46.7430 N   0  0  0  0  0  0  0  0  0  0  0  0
   59.7220   30.0630   47.5210 C   0  0  0  0  0  0  0  0  0  0  0  0
   60.2280   31.3080   47.5110 N   0  0  0  0  0  0  0  0  0  0  0  0
   59.7020   32.2690   46.7240 C   0  0  0  0  0  0  0  0  0  0  0  0
   58.6190   31.9690   45.9100 C   0  0  0  0  0  0  0  0  0  0  0  0
   58.1380   30.6770   45.9580 C   0  0  0  0  0  0  0  0  0  0  0  0
   57.1250   30.3460   45.2150 N   0  0  0  0  0  0  0  0  0  0  0  0
   58.2740   33.1940   45.1830 C   0  0  0  0  0  0  0  0  0  0  0  0
   58.0330   32.8520   43.7080 C   0  0  0  0  0  0  0  0  0  0  0  0
   57.0030   33.8600   45.6560 C   0  0  0  0  0  0  0  0  0  0  0  0
   59.3820   34.0280   45.3180 O   0  0  0  0  0  0  0  0  0  0  0  0
   60.0250   33.7090   46.4900 C   0  0  0  0  0  0  0  0  0  0  0  0
   59.5530   34.5630   47.6600 C   0  0  0  0  0  0  0  0  0  0  0  0
   61.5360   33.8520   46.4170 C   0  0  0  0  0  0  0  0  0  0  0  0
   57.9977   28.0546   47.8026 H   0  0  0  0  0  0  0  0  0  0  0  0
   57.1565   28.3699   46.2471 H   0  0  0  0  0  0  0  0  0  0  0  0
   58.8245   27.7032   46.2471 H   0  0  0  0  0  0  0  0  0  0  0  0
   60.1764   29.3042   48.1750 H   0  0  0  0  0  0  0  0  0  0  0  0
   56.2150   30.0910   45.6380 H   0  0  0  0  0  0  0  0  0  0  0  0
   57.4007   31.9546   43.6383 H   0  0  0  0  0  0  0  0  0  0  0  0
   57.5285   33.6954   43.2137 H   0  0  0  0  0  0  0  0  0  0  0  0
   58.9969   32.6606   43.2137 H   0  0  0  0  0  0  0  0  0  0  0  0
   56.9821   33.8709   46.7557 H   0  0  0  0  0  0  0  0  0  0  0  0
   56.9676   34.8925   45.2783 H   0  0  0  0  0  0  0  0  0  0  0  0
   56.1339   33.3014   45.2783 H   0  0  0  0  0  0  0  0  0  0  0  0
   59.8247   34.0715   48.6058 H   0  0  0  0  0  0  0  0  0  0  0  0
   60.0328   35.5515   47.6095 H   0  0  0  0  0  0  0  0  0  0  0  0
   58.4607   34.6826   47.6095 H   0  0  0  0  0  0  0  0  0  0  0  0
   61.9502   33.8912   47.4353 H   0  0  0  0  0  0  0  0  0  0  0  0
   61.9604   32.9900   45.8814 H   0  0  0  0  0  0  0  0  0  0  0  0
   61.7912   34.7783   45.8814 H   0  0  0  0  0  0  0  0  0  0  0  0
  1  2  1  0
  2  3  1  0
  3  4  2  0
  4  5  1  0
  5  6  2  0
  6  7  1  0
  7  8  2  3
  6  9  1  0
  9 10  1  0
  9 11  1  0
  9 12  1  0
 12 13  1  0
 13 14  1  0
 13 15  1  0
  7  2  1  0
 13  5  1  0
  1 16  1  0
  1 17  1  0
  1 18  1  0
  3 19  1  0
  8 20  1  0
 10 21  1  0
 10 22  1  0
 10 23  1  0
 11 24  1  0
 11 25  1  0
 11 26  1  0
 14 27  1  0
 14 28  1  0
 14 29  1  0
 15 30  1  0
 15 31  1  0
 15 32  1  0
M  END
>  <smiles>  (22) 
Cn1cnc2c(c1=N)C(C)(C)OC2(C)C

>  <score_type>  (22) 
oracle

>  <origin>  (22) 
adg

>  <m_score__min__energy>  (22) 
-5.6399999999999997

>  <m_primary>  (22) 
energy

$$$$
22:0
     RDKit          3D

 46 48  0  0  0  0  0  0  0  0999 V2000
   57.8520   29.7840   42.6370 H   0  0  0  0  0  0  0  0  0  0  0  0
   56.8570   29.7120   42.9440 N   0  0  0  0  0  0  0  0  0  0  0  0
   56.5120   29.4160   44.1590 C   0  0  0  0  0  0  0  0  0  0  0  0
   57.5360   29.2130   45.2150 C   0  0  0  0  0  0  0  0  0  0  0  0
   57.5960   28.0100   45.9410 C   0  0  0  0  0  0  0  0  0  0  0  0
   56.8792   27.2046   45.7230 H   0  0  0  0  0  0  0  0  0  0  0  0
   58.5590   27.8300   46.9370 C   0  0  0  0  0  0  0  0  0  0  0  0
   58.5953   26.8845   47.4979 H   0  0  0  0  0  0  0  0  0  0  0  0
   59.4800   28.8480   47.2260 C   0  0  0  0  0  0  0  0  0  0  0  0
   60.5040   28.6650   48.3200 C   0  0  0  0  0  0  0  0  0  0  0  0
   60.3390   27.6887   48.7992 H   0  0  0  0  0  0  0  0  0  0  0  0
   61.5016   28.7235   47.8602 H   0  0  0  0  0  0  0  0  0  0  0  0
   60.4190   29.7190   49.3490 N   0  0  0  0  0  0  0  0  0  0  0  0
   60.9960   30.5370   49.0410 H   0  0  0  0  0  0  0  0  0  0  0  0
   60.8500   29.3650   50.2330 H   0  0  0  0  0  0  0  0  0  0  0  0
   59.0470   30.1940   49.6210 C   0  0  0  0  0  0  0  0  0  0  0  0
   58.3965   29.8678   48.7961 H   0  0  0  0  0  0  0  0  0  0  0  0
   58.7442   29.7663   50.5881 H   0  0  0  0  0  0  0  0  0  0  0  0
   58.9370   31.7240   49.7510 C   0  0  0  0  0  0  0  0  0  0  0  0
   57.8743   32.0081   49.7419 H   0  0  0  0  0  0  0  0  0  0  0  0
   59.4148   32.0255   50.6948 H   0  0  0  0  0  0  0  0  0  0  0  0
   59.6220   32.4070   48.6500 N   0  0  0  0  0  0  0  0  0  0  0  0
   60.9580   32.5710   48.4770 C   0  0  0  0  0  0  0  0  0  0  0  0
   61.8230   32.1640   49.2990 O   0  0  0  0  0  0  0  0  0  0  0  0
   61.2680   33.2220   47.3270 N   0  0  0  0  0  0  0  0  0  0  0  0
   62.5900   33.6060   46.8390 C   0  0  0  0  0  0  0  0  0  0  0  0
   63.2546   33.7991   47.6940 H   0  0  0  0  0  0  0  0  0  0  0  0
   63.0060   32.7916   46.2277 H   0  0  0  0  0  0  0  0  0  0  0  0
   62.5050   34.5166   46.2277 H   0  0  0  0  0  0  0  0  0  0  0  0
   60.0720   33.4880   46.7650 C   0  0  0  0  0  0  0  0  0  0  0  0
   59.7970   34.1610   45.5740 C   0  0  0  0  0  0  0  0  0  0  0  0
   60.6067   34.5594   44.9450 H   0  0  0  0  0  0  0  0  0  0  0  0
   58.4470   34.3120   45.2060 C   0  0  0  0  0  0  0  0  0  0  0  0
   58.1905   34.8346   44.2727 H   0  0  0  0  0  0  0  0  0  0  0  0
   57.4190   33.7970   46.0270 C   0  0  0  0  0  0  0  0  0  0  0  0
   56.3681   33.9211   45.7267 H   0  0  0  0  0  0  0  0  0  0  0  0
   57.7270   33.1270   47.2250 C   0  0  0  0  0  0  0  0  0  0  0  0
   56.9340   32.7260   47.8733 H   0  0  0  0  0  0  0  0  0  0  0  0
   59.0750   32.9890   47.5620 C   0  0  0  0  0  0  0  0  0  0  0  0
   59.4210   30.0500   46.5080 C   0  0  0  0  0  0  0  0  0  0  0  0
   60.1362   30.8555   46.7311 H   0  0  0  0  0  0  0  0  0  0  0  0
   58.4590   30.2320   45.5100 C   0  0  0  0  0  0  0  0  0  0  0  0
   58.4239   31.1791   44.9516 H   0  0  0  0  0  0  0  0  0  0  0  0
   55.1220   29.2960   44.4730 N   0  0  0  0  0  0  0  0  0  0  0  0
   54.8050   28.9700   45.4110 H   0  0  0  0  0  0  0  0  0  0  0  0
   54.4000   29.4810   43.7400 H   0  0  0  0  0  0  0  0  0  0  0  0
  1  2  1  0
  2  3  2  0
  3  4  1  0
  4  5  2  0
  5  6  1  0
  5  7  1  0
  7  8  1  0
  7  9  2  0
  9 10  1  0
 10 11  1  0
 10 12  1  0
 10 13  1  0
 13 14  1  0
 13 15  1  0
 13 16  1  0
 16 17  1  0
 16 18  1  0
 16 19  1  0
 19 20  1  0
 19 21  1  0
 19 22  1  0
 22 23  1  0
 23 24  2  0
 23 25  1  0
 25 26  1  0
 26 27  1  0
 26 28  1  0
 26 29  1  0
 25 30  1  0
 30 31  2  0
 31 32  1  0
 31 33  1  0
 33 34  1  0
 33 35  2  0
 35 36  1  0
 35 37  1  0
 37 38  1  0
 37 39  2  0
  9 40  1  0
 40 41  1  0
 40 42  2  0
 42 43  1  0
  3 44  1  0
 44 45  1  0
 44 46  1  0
 42  4  1  0
 39 22  1  0
 39 30  1  0
M  CHG  1  13   1
M  END
>  <UniqueID>  (23) 
20

>  <SMILES>  (23) 
[H]/N=C(/N)c1ccc(C[NH2+]CCn2c(=O)n(C)c3ccccc32)cc1

>  <Energy>  (23) 
90.18421110023684

>  <Genealogy>  (23) 
Cn1c(=O)n(CC[NH2+]Cc2ccc(C(=N)N)cc2)c2ccccc21 (protonated)
[H]/N=C(/N)c1ccc(C[NH2+]CCn2c(=O)n(C)c3ccccc32)cc1 (cis-trans isomerization)
[H]/N=C(/N)c1ccc(C[NH2+]CCn2c(=O)n(C)c3ccccc32)cc1 (3D coordinates assigned)
[H]/N=C(/N)c1ccc(C[NH2+]CCn2c(=O)n(C)c3ccccc32)cc1 (optimized conformer: 90.18421110023684 kcal/mol)

>  <smiles>  (23) 
Cn1c(=O)n(CCNCc2ccc(C(=N)N)cc2)c2ccccc21

>  <score_type>  (23) 
oracle

>  <origin>  (23) 
adg

>  <m_score__min__energy>  (23) 
-6.3899999999999997

>  <m_primary>  (23) 
energy

$$$$
23:0
     RDKit          3D

 47 50  0  0  0  0  0  0  0  0999 V2000
   61.6390   30.8490   48.6730 O   0  0  0  0  0  0  0  0  0  0  0  0
   61.7060   31.2730   47.4870 C   0  0  0  0  0  0  0  0  0  0  0  0
   61.4100   30.4070   46.3840 N   0  0  0  0  0  0  0  0  0  0  0  0
   60.3630   29.4260   46.3220 C   0  0  0  0  0  0  0  0  0  0  0  0
   59.5680   29.1070   47.4380 C   0  0  0  0  0  0  0  0  0  0  0  0
   58.5440   28.1610   47.3240 C   0  0  0  0  0  0  0  0  0  0  0  0
   58.2950   27.5390   46.0970 C   0  0  0  0  0  0  0  0  0  0  0  0
   56.8980   26.2460   45.9440 Br  0  0  0  0  0  0  0  0  0  0  0  0
   59.0650   27.8710   44.9790 C   0  0  0  0  0  0  0  0  0  0  0  0
   60.0900   28.8160   45.0910 C   0  0  0  0  0  0  0  0  0  0  0  0
   62.1430   32.6960   47.2090 C   0  0  2  0  0  0  0  0  0  0  0  0
   63.6920   32.8130   47.2020 C   0  0  0  0  0  0  0  0  0  0  0  0
   64.1560   33.7820   48.1240 O   0  0  0  0  0  0  0  0  0  0  0  0
   63.6910   33.4610   49.4200 C   0  0  0  0  0  0  0  0  0  0  0  0
   62.1590   33.5960   49.5030 C   0  0  0  0  0  0  0  0  0  0  0  0
   61.5640   33.6750   48.1570 N   0  0  0  0  0  0  0  0  0  0  0  0
   59.8190   33.6140   48.2310 S   0  0  0  0  0  0  0  0  0  0  0  0
   59.2620   34.9250   48.7150 O   0  0  0  0  0  0  0  0  0  0  0  0
   59.3820   32.5300   49.1780 O   0  0  0  0  0  0  0  0  0  0  0  0
   59.1830   33.2660   46.6250 C   0  0  0  0  0  0  0  0  0  0  0  0
   59.4250   34.1510   45.5660 C   0  0  0  0  0  0  0  0  0  0  0  0
   58.9490   33.8660   44.2830 C   0  0  0  0  0  0  0  0  0  0  0  0
   58.2210   32.6920   44.0460 C   0  0  0  0  0  0  0  0  0  0  0  0
   57.7390   32.3940   42.7620 C   0  0  0  0  0  0  0  0  0  0  0  0
   57.0150   31.2190   42.5390 C   0  0  0  0  0  0  0  0  0  0  0  0
   56.7690   30.3340   43.5920 C   0  0  0  0  0  0  0  0  0  0  0  0
   57.2460   30.6170   44.8760 C   0  0  0  0  0  0  0  0  0  0  0  0
   57.9750   31.7930   45.1140 C   0  0  0  0  0  0  0  0  0  0  0  0
   58.4620   32.0860   46.3960 C   0  0  0  0  0  0  0  0  0  0  0  0
   59.7521   29.6027   48.4025 H   0  0  0  0  0  0  0  0  0  0  0  0
   57.9329   27.9057   48.2023 H   0  0  0  0  0  0  0  0  0  0  0  0
   58.8649   27.3890   44.0107 H   0  0  0  0  0  0  0  0  0  0  0  0
   60.6862   29.0822   44.2057 H   0  0  0  0  0  0  0  0  0  0  0  0
   61.7557   32.9438   46.2097 H   0  0  0  0  0  0  0  0  0  0  0  0
   64.1229   31.8362   47.4668 H   0  0  0  0  0  0  0  0  0  0  0  0
   64.0040   33.1263   46.1948 H   0  0  0  0  0  0  0  0  0  0  0  0
   63.9748   32.4253   49.6582 H   0  0  0  0  0  0  0  0  0  0  0  0
   64.1449   34.1587   50.1392 H   0  0  0  0  0  0  0  0  0  0  0  0
   61.7483   32.7206   50.0274 H   0  0  0  0  0  0  0  0  0  0  0  0
   61.9168   34.5197   50.0489 H   0  0  0  0  0  0  0  0  0  0  0  0
   59.9931   35.0757   45.7454 H   0  0  0  0  0  0  0  0  0  0  0  0
   59.1463   34.5651   43.4570 H   0  0  0  0  0  0  0  0  0  0  0  0
   57.9313   33.0865   41.9293 H   0  0  0  0  0  0  0  0  0  0  0  0
   56.6378   30.9904   41.5313 H   0  0  0  0  0  0  0  0  0  0  0  0
   56.1981   29.4114   43.4105 H   0  0  0  0  0  0  0  0  0  0  0  0
   57.0495   29.9166   45.7012 H   0  0  0  0  0  0  0  0  0  0  0  0
   58.2775   31.3871   47.2251 H   0  0  0  0  0  0  0  0  0  0  0  0
  1  2  2  0
  2  3  1  0
  3  4  1  0
  4  5  2  0
  5  6  1  0
  6  7  2  0
  7  8  1  0
  7  9  1  0
  9 10  2  0
  2 11  1  0
 11 12  1  0
 12 13  1  0
 13 14  1  0
 14 15  1  0
 15 16  1  0
 16 17  1  0
 17 18  2  0
 17 19  2  0
 17 20  1  0
 20 21  2  0
 21 22  1  0
 22 23  2  0
 23 24  1  0
 24 25  2  0
 25 26  1  0
 26 27  2  0
 27 28  1  0
 28 29  2  0
 10  4  1  0
 16 11  1  0
 29 20  1  0
 28 23  1  0
  5 30  1  0
  6 31  1  0
  9 32  1  0
 10 33  1  0
 11 34  1  6
 12 35  1  0
 12 36  1  0
 14 37  1  0
 14 38  1  0
 15 39  1  0
 15 40  1  0
 21 41  1  0
 22 42  1  0
 24 43  1  0
 25 44  1  0
 26 45  1  0
 27 46  1  0
 29 47  1  0
M  CHG  1   3  -1
M  END
>  <UniqueID>  (24) 
21

>  <SMILES>  (24) 
O=C([N-]c1ccc(Br)cc1)[C@@H]1COCCN1S(=O)(=O)c1ccc2ccccc2c1

>  <Energy>  (24) 
68.19412125505853

>  <Genealogy>  (24) 
O=C([N-]c1ccc(Br)cc1)C1COCCN1S(=O)(=O)c1ccc2ccccc2c1 (protonated)
O=C([N-]c1ccc(Br)cc1)[C@@H]1COCCN1S(=O)(=O)c1ccc2ccccc2c1 (chirality)
O=C([N-]c1ccc(Br)cc1)[C@@H]1COCCN1S(=O)(=O)c1ccc2ccccc2c1 (3D coordinates assigned)
O=C([N-]c1ccc(Br)cc1)[C@@H]1COCCN1S(=O)(=O)c1ccc2ccccc2c1 (nonaromatic ring conformer: 68.19412125505853 kcal/mol)

>  <smiles>  (24) 
O=C(Nc1ccc(Br)cc1)C1COCCN1S(=O)(=O)c1ccc2ccccc2c1

>  <score_type>  (24) 
oracle

>  <origin>  (24) 
adg

>  <m_score__min__energy>  (24) 
-11.25

>  <m_primary>  (24) 
energy

$$$$
24:0
     RDKit          3D

 29 30  0  0  0  0  0  0  0  0999 V2000
   63.1510   33.4670   46.7750 C   0  0  0  0  0  0  0  0  0  0  0  0
   62.7640   31.9560   47.7110 S   0  0  0  0  0  0  0  0  0  0  0  0
   61.1630   31.7540   46.9390 C   0  0  0  0  0  0  0  0  0  0  0  0
   60.4140   32.8440   46.6380 N   0  0  0  0  0  0  0  0  0  0  0  0
   59.2000   32.7200   46.0450 C   0  0  0  0  0  0  0  0  0  0  0  0
   58.2760   34.2160   45.6640 S   0  0  0  0  0  0  0  0  0  0  0  0
   59.6500   35.3200   46.1100 C   0  0  0  0  0  0  0  0  0  0  0  0
   58.6950   31.4420   45.7410 C   0  0  0  0  0  0  0  0  0  0  0  0
   57.4350   31.3020   45.0470 C   0  0  0  0  0  0  0  0  0  0  0  0
   56.4260   31.1890   44.4920 N   0  0  0  0  0  0  0  0  0  0  0  0
   59.4850   30.3180   46.0770 C   0  0  0  0  0  0  0  0  0  0  0  0
   59.0500   28.9280   45.8090 C   0  0  0  0  0  0  0  0  0  0  0  0
   58.9510   28.4390   44.4940 C   0  0  0  0  0  0  0  0  0  0  0  0
   58.5160   27.1320   44.2590 C   0  0  0  0  0  0  0  0  0  0  0  0
   58.1620   26.3060   45.3300 C   0  0  0  0  0  0  0  0  0  0  0  0
   57.5650   24.5210   45.0060 Br  0  0  0  0  0  0  0  0  0  0  0  0
   58.2380   26.7920   46.6390 C   0  0  0  0  0  0  0  0  0  0  0  0
   58.6730   28.0980   46.8780 C   0  0  0  0  0  0  0  0  0  0  0  0
   60.7000   30.5120   46.6550 N   0  0  0  0  0  0  0  0  0  0  0  0
   63.3614   34.2885   47.4756 H   0  0  0  0  0  0  0  0  0  0  0  0
   64.0329   33.2903   46.1417 H   0  0  0  0  0  0  0  0  0  0  0  0
   62.2927   33.7359   46.1417 H   0  0  0  0  0  0  0  0  0  0  0  0
   59.7288   35.3833   47.2053 H   0  0  0  0  0  0  0  0  0  0  0  0
   60.5888   34.9222   45.6972 H   0  0  0  0  0  0  0  0  0  0  0  0
   59.4637   36.3225   45.6972 H   0  0  0  0  0  0  0  0  0  0  0  0
   59.2172   29.0882   43.6468 H   0  0  0  0  0  0  0  0  0  0  0  0
   58.4519   26.7521   43.2287 H   0  0  0  0  0  0  0  0  0  0  0  0
   57.9547   26.1448   47.4822 H   0  0  0  0  0  0  0  0  0  0  0  0
   58.7206   28.4785   47.9090 H   0  0  0  0  0  0  0  0  0  0  0  0
  1  2  1  0
  2  3  1  0
  3  4  2  0
  4  5  1  0
  5  6  1  0
  6  7  1  0
  5  8  2  0
  8  9  1  0
  9 10  3  0
  8 11  1  0
 11 12  1  0
 12 13  2  0
 13 14  1  0
 14 15  2  0
 15 16  1  0
 15 17  1  0
 17 18  2  0
 11 19  2  0
 19  3  1  0
 18 12  1  0
  1 20  1  0
  1 21  1  0
  1 22  1  0
  7 23  1  0
  7 24  1  0
  7 25  1  0
 13 26  1  0
 14 27  1  0
 17 28  1  0
 18 29  1  0
M  END
>  <UniqueID>  (25) 
22

>  <SMILES>  (25) 
CSc1nc(SC)c(C#N)c(-c2ccc(Br)cc2)n1

>  <Energy>  (25) 
28.994955079464912

>  <Genealogy>  (25) 
CSc1nc(SC)c(C#N)c(-c2ccc(Br)cc2)n1 (3D coordinates assigned)
CSc1nc(SC)c(C#N)c(-c2ccc(Br)cc2)n1 (optimized conformer: 28.994955079464912 kcal/mol)

>  <smiles>  (25) 
CSc1nc(SC)c(C#N)c(-c2ccc(Br)cc2)n1

>  <score_type>  (25) 
oracle

>  <origin>  (25) 
adg

>  <m_score__min__energy>  (25) 
-6.7599999999999998

>  <m_primary>  (25) 
energy

$$$$
25:0
     RDKit          3D

 46 48  0  0  0  0  0  0  0  0999 V2000
   58.5650   29.1160   47.1610 O   0  0  0  0  0  0  0  0  0  0  0  0
   58.2690   28.5630   46.0650 C   0  0  0  0  0  0  0  0  0  0  0  0
   57.8370   29.4260   44.8970 C   0  0  2  0  0  0  0  0  0  0  0  0
   58.4500   30.8420   44.9490 C   0  0  0  0  0  0  0  0  0  0  0  0
   57.8200   31.7660   43.9780 N   0  0  0  0  0  0  0  0  0  0  0  0
   57.3980   33.0760   44.5220 C   0  0  0  0  0  0  0  0  0  0  0  0
   58.2920   33.5910   45.6280 C   0  0  0  0  0  0  0  0  0  0  0  0
   59.3060   34.5250   45.3580 C   0  0  0  0  0  0  0  0  0  0  0  0
   60.1310   34.9900   46.3860 C   0  0  0  0  0  0  0  0  0  0  0  0
   59.9390   34.5420   47.6960 C   0  0  0  0  0  0  0  0  0  0  0  0
   58.9160   33.6340   47.9790 C   0  0  0  0  0  0  0  0  0  0  0  0
   58.0920   33.1640   46.9530 C   0  0  0  0  0  0  0  0  0  0  0  0
   56.8990   31.1530   42.9970 C   0  0  0  0  0  0  0  0  0  0  0  0
   55.8910   30.1650   43.6320 C   0  0  0  0  0  0  0  0  0  0  0  0
   56.3750   29.5170   44.8650 N   0  0  0  0  0  0  0  0  0  0  0  0
   58.2790   27.1220   45.9720 N   0  0  0  0  0  0  0  0  0  0  0  0
   57.4430   26.4370   44.9690 C   0  0  0  0  0  0  0  0  0  0  0  0
   57.2860   24.9480   45.2900 C   0  0  0  0  0  0  0  0  0  0  0  0
   58.6530   24.2730   45.4820 C   0  0  0  0  0  0  0  0  0  0  0  0
   58.4590   23.0170   46.0340 F   0  0  0  0  0  0  0  0  0  0  0  0
   59.6230   25.0920   46.3660 C   0  0  0  0  0  0  0  0  0  0  0  0
   58.9790   26.3310   46.9970 C   0  0  0  0  0  0  0  0  0  0  0  0
   58.2071   28.9456   43.9792 H   0  0  0  0  0  0  0  0  0  0  0  0
   58.3149   31.2484   45.9622 H   0  0  0  0  0  0  0  0  0  0  0  0
   59.5151   30.7562   44.6878 H   0  0  0  0  0  0  0  0  0  0  0  0
   57.4014   33.8098   43.7025 H   0  0  0  0  0  0  0  0  0  0  0  0
   56.3969   32.9367   44.9561 H   0  0  0  0  0  0  0  0  0  0  0  0
   59.4516   34.8926   44.3315 H   0  0  0  0  0  0  0  0  0  0  0  0
   60.9327   35.7097   46.1637 H   0  0  0  0  0  0  0  0  0  0  0  0
   60.5928   34.9041   48.5032 H   0  0  0  0  0  0  0  0  0  0  0  0
   58.7588   33.2883   49.0114 H   0  0  0  0  0  0  0  0  0  0  0  0
   57.2822   32.4559   47.1830 H   0  0  0  0  0  0  0  0  0  0  0  0
   56.3343   31.9558   42.5004 H   0  0  0  0  0  0  0  0  0  0  0  0
   57.5147   30.5779   42.2898 H   0  0  0  0  0  0  0  0  0  0  0  0
   54.9704   30.7175   43.8712 H   0  0  0  0  0  0  0  0  0  0  0  0
   55.7280   29.3634   42.8966 H   0  0  0  0  0  0  0  0  0  0  0  0
   56.0490   30.0740   45.6890 H   0  0  0  0  0  0  0  0  0  0  0  0
   56.4480   26.9058   44.9530 H   0  0  0  0  0  0  0  0  0  0  0  0
   57.9354   26.5283   43.9896 H   0  0  0  0  0  0  0  0  0  0  0  0
   56.6998   24.8403   46.2145 H   0  0  0  0  0  0  0  0  0  0  0  0
   56.7735   24.4623   44.4465 H   0  0  0  0  0  0  0  0  0  0  0  0
   59.1251   24.2000   44.4912 H   0  0  0  0  0  0  0  0  0  0  0  0
   59.9910   24.4418   47.1734 H   0  0  0  0  0  0  0  0  0  0  0  0
   60.4338   25.4468   45.7127 H   0  0  0  0  0  0  0  0  0  0  0  0
   58.2584   26.0138   47.7652 H   0  0  0  0  0  0  0  0  0  0  0  0
   59.7661   26.9509   47.4511 H   0  0  0  0  0  0  0  0  0  0  0  0
  1  2  2  0
  2  3  1  0
  3  4  1  0
  4  5  1  0
  5  6  1  0
  6  7  1  0
  7  8  2  0
  8  9  1  0
  9 10  2  0
 10 11  1  0
 11 12  2  0
  5 13  1  0
 13 14  1  0
 14 15  1  0
  2 16  1  0
 16 17  1  0
 17 18  1  0
 18 19  1  0
 19 20  1  0
 19 21  1  0
 21 22  1  0
 15  3  1  0
 22 16  1  0
 12  7  1  0
  3 23  1  6
  4 24  1  0
  4 25  1  0
  6 26  1  0
  6 27  1  0
  8 28  1  0
  9 29  1  0
 10 30  1  0
 11 31  1  0
 12 32  1  0
 13 33  1  0
 13 34  1  0
 14 35  1  0
 14 36  1  0
 15 37  1  0
 17 38  1  0
 17 39  1  0
 18 40  1  0
 18 41  1  0
 19 42  1  0
 21 43  1  0
 21 44  1  0
 22 45  1  0
 22 46  1  0
M  END
>  <UniqueID>  (26) 
23

>  <SMILES>  (26) 
O=C([C@@H]1CN(Cc2ccccc2)CCN1)N1CCC(F)CC1

>  <Energy>  (26) 
63.14030928349535

>  <Genealogy>  (26) 
O=C([C@@H]1CN(Cc2ccccc2)CCN1)N1CCC(F)CC1 (chirality)
O=C([C@@H]1CN(Cc2ccccc2)CCN1)N1CCC(F)CC1 (3D coordinates assigned)
O=C([C@@H]1CN(Cc2ccccc2)CCN1)N1CCC(F)CC1 (nonaromatic ring conformer: 63.14030928349535 kcal/mol)

>  <smiles>  (26) 
O=C(C1CN(Cc2ccccc2)CCN1)N1CCC(F)CC1

>  <score_type>  (26) 
oracle

>  <origin>  (26) 
adg

>  <m_score__min__energy>  (26) 
-8.0500000000000007

>  <m_primary>  (26) 
energy

$$$$
26:0
     RDKit          3D

 43 46  0  0  0  0  0  0  0  0999 V2000
   57.4020   31.6050   42.3630 C   0  0  0  0  0  0  0  0  0  0  0  0
   56.8630   31.1240   43.7100 C   0  0  0  0  0  0  0  0  0  0  0  0
   57.8290   31.3980   44.7960 N   0  0  0  0  0  0  0  0  0  0  0  0
   58.6870   30.4230   45.2650 C   0  0  0  0  0  0  0  0  0  0  0  0
   58.7030   28.7300   44.6380 S   0  0  0  0  0  0  0  0  0  0  0  0
   57.7160   27.9450   45.9700 C   0  0  0  0  0  0  0  0  0  0  0  0
   56.2700   27.7960   45.6170 C   0  0  0  0  0  0  0  0  0  0  0  0
   55.6720   28.7370   45.0340 O   0  0  0  0  0  0  0  0  0  0  0  0
   55.5760   26.6210   46.0480 N   0  0  0  0  0  0  0  0  0  0  0  0
   55.6420   25.3030   45.4820 C   0  0  0  0  0  0  0  0  0  0  0  0
   54.4830   24.4920   45.5490 C   0  0  0  0  0  0  0  0  0  0  0  0
   54.4820   23.1910   45.0160 C   0  0  0  0  0  0  0  0  0  0  0  0
   55.6600   22.7270   44.4380 C   0  0  0  0  0  0  0  0  0  0  0  0
   56.7800   23.4910   44.3810 C   0  0  0  0  0  0  0  0  0  0  0  0
   56.8210   24.7870   44.8940 C   0  0  0  0  0  0  0  0  0  0  0  0
   57.7900   22.7780   43.7620 O   0  0  0  0  0  0  0  0  0  0  0  0
   57.2700   21.4880   43.4020 C   0  0  0  0  0  0  0  0  0  0  0  0
   55.9090   21.4970   43.8580 O   0  0  0  0  0  0  0  0  0  0  0  0
   59.5670   30.7070   46.2600 N   0  0  0  0  0  0  0  0  0  0  0  0
   59.6580   31.9400   46.8030 C   0  0  0  0  0  0  0  0  0  0  0  0
   60.6080   32.1970   47.7980 C   0  0  0  0  0  0  0  0  0  0  0  0
   60.7140   33.4790   48.3490 C   0  0  0  0  0  0  0  0  0  0  0  0
   59.8660   34.5020   47.9140 C   0  0  0  0  0  0  0  0  0  0  0  0
   58.9150   34.2520   46.9200 C   0  0  0  0  0  0  0  0  0  0  0  0
   58.8090   32.9650   46.3530 C   0  0  0  0  0  0  0  0  0  0  0  0
   57.8870   32.6640   45.3340 C   0  0  0  0  0  0  0  0  0  0  0  0
   57.1150   33.5680   44.9090 O   0  0  0  0  0  0  0  0  0  0  0  0
   58.2132   32.3289   42.5300 H   0  0  0  0  0  0  0  0  0  0  0  0
   57.7884   30.7460   41.7948 H   0  0  0  0  0  0  0  0  0  0  0  0
   56.5923   32.0862   41.7948 H   0  0  0  0  0  0  0  0  0  0  0  0
   55.9197   31.6465   43.9273 H   0  0  0  0  0  0  0  0  0  0  0  0
   56.6979   30.0379   43.6537 H   0  0  0  0  0  0  0  0  0  0  0  0
   58.1319   26.9470   46.1724 H   0  0  0  0  0  0  0  0  0  0  0  0
   57.7732   28.6007   46.8513 H   0  0  0  0  0  0  0  0  0  0  0  0
   53.5720   24.8849   46.0241 H   0  0  0  0  0  0  0  0  0  0  0  0
   53.5809   22.5613   45.0545 H   0  0  0  0  0  0  0  0  0  0  0  0
   57.7404   25.3888   44.8432 H   0  0  0  0  0  0  0  0  0  0  0  0
   57.3119   21.3444   42.3122 H   0  0  0  0  0  0  0  0  0  0  0  0
   57.8509   20.6682   43.8497 H   0  0  0  0  0  0  0  0  0  0  0  0
   61.2711   31.3916   48.1468 H   0  0  0  0  0  0  0  0  0  0  0  0
   61.4659   33.6822   49.1258 H   0  0  0  0  0  0  0  0  0  0  0  0
   59.9473   35.5064   48.3551 H   0  0  0  0  0  0  0  0  0  0  0  0
   58.2494   35.0592   46.5802 H   0  0  0  0  0  0  0  0  0  0  0  0
  1  2  1  0
  2  3  1  0
  3  4  1  0
  4  5  1  0
  5  6  1  0
  6  7  1  0
  7  8  2  0
  7  9  1  0
  9 10  1  0
 10 11  2  0
 11 12  1  0
 12 13  2  0
 13 14  1  0
 14 15  2  0
 14 16  1  0
 16 17  1  0
 17 18  1  0
  4 19  2  0
 19 20  1  0
 20 21  2  0
 21 22  1  0
 22 23  2  0
 23 24  1  0
 24 25  2  0
 25 26  1  0
 26 27  2  0
 26  3  1  0
 15 10  1  0
 25 20  1  0
 18 13  1  0
  1 28  1  0
  1 29  1  0
  1 30  1  0
  2 31  1  0
  2 32  1  0
  6 33  1  0
  6 34  1  0
 11 35  1  0
 12 36  1  0
 15 37  1  0
 17 38  1  0
 17 39  1  0
 21 40  1  0
 22 41  1  0
 23 42  1  0
 24 43  1  0
M  CHG  1   9  -1
M  END
>  <UniqueID>  (27) 
24

>  <SMILES>  (27) 
CCn1c(SCC(=O)[N-]c2ccc3c(c2)OCO3)nc2ccccc2c1=O

>  <Energy>  (27) 
79.0901640840602

>  <Genealogy>  (27) 
CCn1c(SCC(=O)[N-]c2ccc3c(c2)OCO3)nc2ccccc2c1=O (protonated)
CCn1c(SCC(=O)[N-]c2ccc3c(c2)OCO3)nc2ccccc2c1=O (3D coordinates assigned)
CCn1c(SCC(=O)[N-]c2ccc3c(c2)OCO3)nc2ccccc2c1=O (nonaromatic ring conformer: 79.0901640840602 kcal/mol)

>  <smiles>  (27) 
CCn1c(SCC(=O)Nc2ccc3c(c2)OCO3)nc2ccccc2c1=O

>  <score_type>  (27) 
oracle

>  <origin>  (27) 
adg

>  <m_score__min__energy>  (27) 
-10.359999999999999

>  <m_primary>  (27) 
energy

$$$$
27:0
     RDKit          3D

 48 50  0  0  0  0  0  0  0  0999 V2000
   60.0370   33.4570   50.8490 C   0  0  0  0  0  0  0  0  0  0  0  0
   60.3720   34.2440   49.7120 O   0  0  0  0  0  0  0  0  0  0  0  0
   61.3930   33.9360   48.8000 C   0  0  0  0  0  0  0  0  0  0  0  0
   62.7300   33.7560   49.2110 C   0  0  0  0  0  0  0  0  0  0  0  0
   63.7260   33.4810   48.2710 C   0  0  0  0  0  0  0  0  0  0  0  0
   63.4050   33.3840   46.9160 C   0  0  0  0  0  0  0  0  0  0  0  0
   62.0850   33.5590   46.4970 C   0  0  0  0  0  0  0  0  0  0  0  0
   61.0710   33.8240   47.4320 C   0  0  0  0  0  0  0  0  0  0  0  0
   59.7170   34.0100   46.9850 N   0  0  0  0  0  0  0  0  0  0  0  0
   59.3900   35.0500   46.0080 C   0  0  0  0  0  0  0  0  0  0  0  0
   58.4680   34.5020   44.8940 C   0  0  0  0  0  0  0  0  0  0  0  0
   57.7480   33.2490   45.2570 N   0  0  0  0  0  0  0  0  0  0  0  0
   58.5070   32.0450   44.8200 C   0  0  0  0  0  0  0  0  0  0  0  0
   57.6010   30.8360   44.4570 C   0  0  2  0  0  0  0  0  0  0  0  0
   56.2370   31.1420   44.6070 O   0  0  0  0  0  0  0  0  0  0  0  0
   57.9470   29.6110   45.2860 C   0  0  0  0  0  0  0  0  0  0  0  0
   58.9630   29.6640   46.2620 C   0  0  0  0  0  0  0  0  0  0  0  0
   59.2690   28.5330   47.0250 C   0  0  0  0  0  0  0  0  0  0  0  0
   58.5660   27.3430   46.8290 C   0  0  0  0  0  0  0  0  0  0  0  0
   58.8640   26.2480   47.5700 F   0  0  0  0  0  0  0  0  0  0  0  0
   57.5510   27.2810   45.8690 C   0  0  0  0  0  0  0  0  0  0  0  0
   57.2410   28.4080   45.1020 C   0  0  0  0  0  0  0  0  0  0  0  0
   57.3880   33.2430   46.6960 C   0  0  0  0  0  0  0  0  0  0  0  0
   58.6300   33.2450   47.6020 C   0  0  0  0  0  0  0  0  0  0  0  0
   60.2753   34.0167   51.7655 H   0  0  0  0  0  0  0  0  0  0  0  0
   58.9620   33.2247   50.8303 H   0  0  0  0  0  0  0  0  0  0  0  0
   60.6148   32.5211   50.8303 H   0  0  0  0  0  0  0  0  0  0  0  0
   62.9898   33.8325   50.2771 H   0  0  0  0  0  0  0  0  0  0  0  0
   64.7663   33.3405   48.5995 H   0  0  0  0  0  0  0  0  0  0  0  0
   64.1923   33.1696   46.1783 H   0  0  0  0  0  0  0  0  0  0  0  0
   61.8374   33.4889   45.4275 H   0  0  0  0  0  0  0  0  0  0  0  0
   58.8786   35.8771   46.5222 H   0  0  0  0  0  0  0  0  0  0  0  0
   60.3249   35.3992   45.5454 H   0  0  0  0  0  0  0  0  0  0  0  0
   57.7202   35.2726   44.6553 H   0  0  0  0  0  0  0  0  0  0  0  0
   59.1163   34.2573   44.0397 H   0  0  0  0  0  0  0  0  0  0  0  0
   56.8490   33.2570   44.7180 H   0  0  0  0  0  0  0  0  0  0  0  0
   59.1022   32.3118   43.9342 H   0  0  0  0  0  0  0  0  0  0  0  0
   59.1348   31.7343   45.6681 H   0  0  0  0  0  0  0  0  0  0  0  0
   57.7915   30.6096   43.3975 H   0  0  0  0  0  0  0  0  0  0  0  0
   55.8460   30.4960   45.2530 H   0  0  0  0  0  0  0  0  0  0  0  0
   59.5178   30.5999   46.4241 H   0  0  0  0  0  0  0  0  0  0  0  0
   60.0659   28.5810   47.7818 H   0  0  0  0  0  0  0  0  0  0  0  0
   56.9955   26.3438   45.7171 H   0  0  0  0  0  0  0  0  0  0  0  0
   56.4401   28.3539   44.3499 H   0  0  0  0  0  0  0  0  0  0  0  0
   56.7874   34.1381   46.9153 H   0  0  0  0  0  0  0  0  0  0  0  0
   56.8210   32.3227   46.8999 H   0  0  0  0  0  0  0  0  0  0  0  0
   58.3712   33.7003   48.5693 H   0  0  0  0  0  0  0  0  0  0  0  0
   58.9647   32.2073   47.7474 H   0  0  0  0  0  0  0  0  0  0  0  0
  1  2  1  0
  2  3  1  0
  3  4  2  0
  4  5  1  0
  5  6  2  0
  6  7  1  0
  7  8  2  0
  8  9  1  0
  9 10  1  0
 10 11  1  0
 11 12  1  0
 12 13  1  0
 13 14  1  0
 14 15  1  0
 14 16  1  0
 16 17  2  0
 17 18  1  0
 18 19  2  0
 19 20  1  0
 19 21  1  0
 21 22  2  0
 12 23  1  0
 23 24  1  0
  8  3  1  0
 24  9  1  0
 22 16  1  0
  1 25  1  0
  1 26  1  0
  1 27  1  0
  4 28  1  0
  5 29  1  0
  6 30  1  0
  7 31  1  0
 10 32  1  0
 10 33  1  0
 11 34  1  0
 11 35  1  0
 12 36  1  0
 13 37  1  0
 13 38  1  0
 14 39  1  6
 15 40  1  0
 17 41  1  0
 18 42  1  0
 21 43  1  0
 22 44  1  0
 23 45  1  0
 23 46  1  0
 24 47  1  0
 24 48  1  0
M  CHG  1  12   1
M  END
>  <UniqueID>  (28) 
25

>  <SMILES>  (28) 
COc1ccccc1N1CC[NH+](C[C@H](O)c2ccc(F)cc2)CC1

>  <Energy>  (28) 
64.6052080252936

>  <Genealogy>  (28) 
COc1ccccc1N1CC[NH+](CC(O)c2ccc(F)cc2)CC1 (protonated)
COc1ccccc1N1CC[NH+](C[C@H](O)c2ccc(F)cc2)CC1 (chirality)
COc1ccccc1N1CC[NH+](C[C@H](O)c2ccc(F)cc2)CC1 (3D coordinates assigned)
COc1ccccc1N1CC[NH+](C[C@H](O)c2ccc(F)cc2)CC1 (nonaromatic ring conformer: 64.6052080252936 kcal/mol)

>  <smiles>  (28) 
COc1ccccc1N1CCN(CC(O)c2ccc(F)cc2)CC1

>  <score_type>  (28) 
oracle

>  <origin>  (28) 
adg

>  <m_score__min__energy>  (28) 
-6.04

>  <m_primary>  (28) 
energy

$$$$
28:0
     RDKit          3D

 46 47  0  0  0  0  0  0  0  0999 V2000
   57.2700   34.2120   45.2300 C   0  0  0  0  0  0  0  0  0  0  0  0
   58.4710   34.6500   45.8590 O   0  0  0  0  0  0  0  0  0  0  0  0
   59.2490   33.8610   46.7200 C   0  0  0  0  0  0  0  0  0  0  0  0
   58.6430   33.3410   47.8670 C   0  0  0  0  0  0  0  0  0  0  0  0
   59.3710   32.5420   48.7680 C   0  0  0  0  0  0  0  0  0  0  0  0
   58.7850   32.0090   49.9280 O   0  0  0  0  0  0  0  0  0  0  0  0
   58.6910   32.6920   51.1730 C   0  0  0  0  0  0  0  0  0  0  0  0
   60.7220   32.2600   48.5020 C   0  0  0  0  0  0  0  0  0  0  0  0
   61.4930   31.4250   49.4410 C   0  0  0  0  0  0  0  0  0  0  0  0
   61.1130   30.1960   49.8080 C   0  0  0  0  0  0  0  0  0  0  0  0
   60.2310   29.0980   48.7490 S   0  0  0  0  0  0  0  0  0  0  0  0
   60.5100   27.6770   49.1540 O   0  0  0  0  0  0  0  0  0  0  0  0
   58.7550   29.3650   48.8410 O   0  0  0  0  0  0  0  0  0  0  0  0
   60.7600   29.3260   47.0570 C   0  0  0  0  0  0  0  0  0  0  0  0
   59.5750   29.4120   46.1340 C   0  0  0  0  0  0  0  0  0  0  0  0
   59.0100   28.2450   45.5980 C   0  0  0  0  0  0  0  0  0  0  0  0
   57.8870   28.3200   44.7680 C   0  0  0  0  0  0  0  0  0  0  0  0
   57.3060   29.5650   44.4630 C   0  0  0  0  0  0  0  0  0  0  0  0
   56.1470   29.6480   43.6130 N   0  0  0  0  0  0  0  0  0  0  0  0
   55.0110   29.3830   44.0590 O   0  0  0  0  0  0  0  0  0  0  0  0
   56.2710   30.0220   42.2950 O   0  0  0  0  0  0  0  0  0  0  0  0
   57.8750   30.7310   45.0050 C   0  0  0  0  0  0  0  0  0  0  0  0
   58.9960   30.6540   45.8340 C   0  0  0  0  0  0  0  0  0  0  0  0
   61.3470   32.7810   47.3540 C   0  0  0  0  0  0  0  0  0  0  0  0
   62.7000   32.4730   47.1220 O   0  0  0  0  0  0  0  0  0  0  0  0
   63.7580   33.4270   47.1240 C   0  0  0  0  0  0  0  0  0  0  0  0
   60.6040   33.5820   46.4670 C   0  0  0  0  0  0  0  0  0  0  0  0
   56.5308   33.9424   45.9987 H   0  0  0  0  0  0  0  0  0  0  0  0
   56.8683   35.0215   44.6028 H   0  0  0  0  0  0  0  0  0  0  0  0
   57.4837   33.3339   44.6028 H   0  0  0  0  0  0  0  0  0  0  0  0
   57.5837   33.5590   48.0680 H   0  0  0  0  0  0  0  0  0  0  0  0
   58.7905   31.9692   51.9962 H   0  0  0  0  0  0  0  0  0  0  0  0
   59.4947   33.4398   51.2426 H   0  0  0  0  0  0  0  0  0  0  0  0
   57.7152   33.1949   51.2426 H   0  0  0  0  0  0  0  0  0  0  0  0
   62.4252   31.8320   49.8598 H   0  0  0  0  0  0  0  0  0  0  0  0
   61.3639   29.8533   50.8227 H   0  0  0  0  0  0  0  0  0  0  0  0
   61.3427   30.2561   46.9835 H   0  0  0  0  0  0  0  0  0  0  0  0
   61.3759   28.4641   46.7608 H   0  0  0  0  0  0  0  0  0  0  0  0
   59.4528   27.2656   45.8319 H   0  0  0  0  0  0  0  0  0  0  0  0
   57.4545   27.3989   44.3503 H   0  0  0  0  0  0  0  0  0  0  0  0
   57.4335   31.7117   44.7741 H   0  0  0  0  0  0  0  0  0  0  0  0
   59.4282   31.5739   46.2548 H   0  0  0  0  0  0  0  0  0  0  0  0
   64.0292   33.6716   48.1616 H   0  0  0  0  0  0  0  0  0  0  0  0
   64.6323   33.0060   46.6060 H   0  0  0  0  0  0  0  0  0  0  0  0
   63.4294   34.3401   46.6060 H   0  0  0  0  0  0  0  0  0  0  0  0
   61.0870   33.9933   45.5684 H   0  0  0  0  0  0  0  0  0  0  0  0
  1  2  1  0
  2  3  1  0
  3  4  2  0
  4  5  1  0
  5  6  1  0
  6  7  1  0
  5  8  2  0
  8  9  1  0
  9 10  2  3
 10 11  1  0
 11 12  2  0
 11 13  2  0
 11 14  1  0
 14 15  1  0
 15 16  2  0
 16 17  1  0
 17 18  2  0
 18 19  1  0
 19 20  2  0
 19 21  1  0
 18 22  1  0
 22 23  2  0
  8 24  1  0
 24 25  1  0
 25 26  1  0
 24 27  2  0
 27  3  1  0
 23 15  1  0
  1 28  1  0
  1 29  1  0
  1 30  1  0
  4 31  1  0
  7 32  1  0
  7 33  1  0
  7 34  1  0
  9 35  1  0
 10 36  1  0
 14 37  1  0
 14 38  1  0
 16 39  1  0
 17 40  1  0
 22 41  1  0
 23 42  1  0
 26 43  1  0
 26 44  1  0
 26 45  1  0
 27 46  1  0
M  CHG  2  19   1  21  -1
M  END
>  <UniqueID>  (29) 
26

>  <SMILES>  (29) 
COc1cc(OC)c(C=CS(=O)(=O)Cc2ccc([N+](=O)[O-])cc2)c(OC)c1

>  <Energy>  (29) 
49.63826486377709

>  <Genealogy>  (29) 
COc1cc(OC)c(C=CS(=O)(=O)Cc2ccc([N+](=O)[O-])cc2)c(OC)c1 (3D coordinates assigned)
COc1cc(OC)c(C=CS(=O)(=O)Cc2ccc([N+](=O)[O-])cc2)c(OC)c1 (optimized conformer: 49.63826486377709 kcal/mol)

>  <smiles>  (29) 
COc1cc(OC)c(C=CS(=O)(=O)Cc2ccc([N+](=O)[O-])cc2)c(OC)c1

>  <score_type>  (29) 
oracle

>  <origin>  (29) 
adg

>  <m_score__min__energy>  (29) 
-7.21

>  <m_primary>  (29) 
energy

$$$$
29:0
     RDKit          3D

 43 45  0  0  0  0  0  0  0  0999 V2000
   59.4125   34.3117   45.7976 H   0  0  0  0  0  0  0  0  0  0  0  0
   59.0190   33.2880   45.8820 C   0  0  0  0  0  0  0  0  0  0  0  0
   57.9190   32.9270   45.1760 N   0  0  0  0  0  0  0  0  0  0  0  0
   57.3920   31.6760   45.2480 C   0  0  0  0  0  0  0  0  0  0  0  0
   56.3330   31.3410   44.5650 N   0  0  0  0  0  0  0  0  0  0  0  0
   55.9180   30.0400   44.1100 C   0  0  0  0  0  0  0  0  0  0  0  0
   55.1670   29.3580   44.8580 O   0  0  0  0  0  0  0  0  0  0  0  0
   56.3340   29.4560   42.7930 C   0  0  0  0  0  0  0  0  0  0  0  0
   56.9642   28.5713   42.9669 H   0  0  0  0  0  0  0  0  0  0  0  0
   55.4400   29.1630   42.2230 H   0  0  0  0  0  0  0  0  0  0  0  0
   56.9030   30.2052   42.2230 H   0  0  0  0  0  0  0  0  0  0  0  0
   57.9960   30.7190   46.0720 C   0  0  0  0  0  0  0  0  0  0  0  0
   57.5740   29.7049   46.1320 H   0  0  0  0  0  0  0  0  0  0  0  0
   59.1470   31.0480   46.8290 C   0  0  0  0  0  0  0  0  0  0  0  0
   59.6560   32.3630   46.7180 C   0  0  0  0  0  0  0  0  0  0  0  0
   60.7860   32.7300   47.4430 C   0  0  0  0  0  0  0  0  0  0  0  0
   61.1817   33.7531   47.3609 H   0  0  0  0  0  0  0  0  0  0  0  0
   61.4180   31.8050   48.2730 C   0  0  0  0  0  0  0  0  0  0  0  0
   62.6160   32.2170   49.0460 C   0  0  0  0  0  0  0  0  0  0  0  0
   63.7680   32.7070   48.4110 C   0  0  0  0  0  0  0  0  0  0  0  0
   63.8200   32.7870   47.0140 O   0  0  0  0  0  0  0  0  0  0  0  0
   63.3830   33.9310   46.2900 C   0  0  0  0  0  0  0  0  0  0  0  0
   63.0820   34.7189   46.9961 H   0  0  0  0  0  0  0  0  0  0  0  0
   64.2036   34.2998   45.6570 H   0  0  0  0  0  0  0  0  0  0  0  0
   62.5255   33.6588   45.6570 H   0  0  0  0  0  0  0  0  0  0  0  0
   64.8370   33.0910   49.1600 N   0  0  0  0  0  0  0  0  0  0  0  0
   64.8200   33.0080   50.5170 C   0  0  0  0  0  0  0  0  0  0  0  0
   65.9270   33.4080   51.2710 O   0  0  0  0  0  0  0  0  0  0  0  0
   67.2640   33.2820   50.8000 C   0  0  0  0  0  0  0  0  0  0  0  0
   67.9502   33.2173   51.6573 H   0  0  0  0  0  0  0  0  0  0  0  0
   67.3533   32.3715   50.1893 H   0  0  0  0  0  0  0  0  0  0  0  0
   67.5219   34.1598   50.1893 H   0  0  0  0  0  0  0  0  0  0  0  0
   63.7140   32.5330   51.1500 N   0  0  0  0  0  0  0  0  0  0  0  0
   63.7010   32.4720   52.1930 H   0  0  0  0  0  0  0  0  0  0  0  0
   62.6210   32.1400   50.4450 C   0  0  0  0  0  0  0  0  0  0  0  0
   61.7356   31.7595   50.9753 H   0  0  0  0  0  0  0  0  0  0  0  0
   60.8980   30.4990   48.3650 C   0  0  0  0  0  0  0  0  0  0  0  0
   61.4900   29.6590   49.1000 O   0  0  0  0  0  0  0  0  0  0  0  0
   59.7730   30.1340   47.6550 N   0  0  0  0  0  0  0  0  0  0  0  0
   59.2460   28.7600   47.7790 C   0  0  0  0  0  0  0  0  0  0  0  0
   59.1463   28.5002   48.8432 H   0  0  0  0  0  0  0  0  0  0  0  0
   58.2610   28.6998   47.2931 H   0  0  0  0  0  0  0  0  0  0  0  0
   59.9381   28.0566   47.2931 H   0  0  0  0  0  0  0  0  0  0  0  0
  1  2  1  0
  2  3  1  0
  3  4  1  0
  4  5  2  0
  5  6  1  0
  6  7  2  0
  6  8  1  0
  8  9  1  0
  8 10  1  0
  8 11  1  0
  4 12  1  0
 12 13  1  0
 12 14  2  0
 14 15  1  0
 15 16  1  0
 16 17  1  0
 16 18  2  0
 18 19  1  0
 19 20  2  0
 20 21  1  0
 21 22  1  0
 22 23  1  0
 22 24  1  0
 22 25  1  0
 20 26  1  0
 26 27  2  0
 27 28  1  0
 28 29  1  0
 29 30  1  0
 29 31  1  0
 29 32  1  0
 27 33  1  0
 33 34  1  0
 33 35  2  0
 35 36  1  0
 18 37  1  0
 37 38  2  0
 37 39  1  0
 39 40  1  0
 40 41  1  0
 40 42  1  0
 40 43  1  0
 15  2  2  0
 35 19  1  0
 39 14  1  0
M  CHG  2   3  -1  33   1
M  END
>  <UniqueID>  (30) 
27

>  <SMILES>  (30) 
COc1nc(OC)c(-c2cc3c[n-]/c(=N\C(C)=O)cc3n(C)c2=O)c[nH+]1

>  <Energy>  (30) 
62.03625976293752

>  <Genealogy>  (30) 
COc1nc(OC)c(-c2cc3c[n-]c(=NC(C)=O)cc3n(C)c2=O)c[nH+]1 (protonated)
COc1nc(OC)c(-c2cc3c[n-]/c(=N\C(C)=O)cc3n(C)c2=O)c[nH+]1 (cis-trans isomerization)
COc1nc(OC)c(-c2cc3c[n-]/c(=N\C(C)=O)cc3n(C)c2=O)c[nH+]1 (3D coordinates assigned)
COc1nc(OC)c(-c2cc3c[n-]/c(=N\C(C)=O)cc3n(C)c2=O)c[nH+]1 (optimized conformer: 62.03625976293752 kcal/mol)

>  <smiles>  (30) 
COc1ncc(-c2cc3c[nH]c(=NC(C)=O)cc3n(C)c2=O)c(OC)n1

>  <score_type>  (30) 
oracle

>  <origin>  (30) 
adg

>  <m_score__min__energy>  (30) 
-7.8899999999999997

>  <m_primary>  (30) 
energy

$$$$
30:0
     RDKit          3D

 55 57  0  0  0  0  0  0  0  0999 V2000
   56.0200   29.8720   43.9930 C   0  0  0  0  0  0  0  0  0  0  0  0
   56.6730   30.4930   45.0960 O   0  0  0  0  0  0  0  0  0  0  0  0
   57.4050   31.6870   45.0130 C   0  0  0  0  0  0  0  0  0  0  0  0
   57.7840   32.2560   43.7810 C   0  0  0  0  0  0  0  0  0  0  0  0
   58.5160   33.4460   43.7520 C   0  0  0  0  0  0  0  0  0  0  0  0
   58.8760   34.0790   44.9430 C   0  0  0  0  0  0  0  0  0  0  0  0
   58.5040   33.5260   46.1770 C   0  0  0  0  0  0  0  0  0  0  0  0
   58.9050   34.2090   47.4590 C   0  0  0  0  0  0  0  0  0  0  0  0
   60.3780   34.2300   47.5890 N   0  0  0  0  0  0  0  0  0  0  0  0
   61.0550   33.1940   46.7670 C   0  0  0  0  0  0  0  0  0  0  0  0
   61.6300   32.0260   47.5960 C   0  0  0  0  0  0  0  0  0  0  0  0
   60.7310   31.6890   48.7170 N   0  0  0  0  0  0  0  0  0  0  0  0
   61.2160   30.4650   49.4020 C   0  0  0  0  0  0  0  0  0  0  0  0
   60.4120   29.2050   49.0250 C   0  0  0  0  0  0  0  0  0  0  0  0
   59.3260   29.5140   48.1490 O   0  0  0  0  0  0  0  0  0  0  0  0
   59.0800   28.9080   46.9070 C   0  0  0  0  0  0  0  0  0  0  0  0
   58.1460   27.8660   46.8560 C   0  0  0  0  0  0  0  0  0  0  0  0
   57.8520   27.2330   45.6450 C   0  0  0  0  0  0  0  0  0  0  0  0
   58.4950   27.6360   44.4700 C   0  0  0  0  0  0  0  0  0  0  0  0
   58.1190   26.8250   42.9150 S   0  0  0  0  0  0  0  0  0  0  0  0
   57.4520   25.3320   43.7160 C   0  0  0  0  0  0  0  0  0  0  0  0
   59.4410   28.6660   44.5120 C   0  0  0  0  0  0  0  0  0  0  0  0
   59.7360   29.3010   45.7230 C   0  0  0  0  0  0  0  0  0  0  0  0
   60.5920   32.8300   49.6610 C   0  0  0  0  0  0  0  0  0  0  0  0
   60.8150   34.2080   48.9970 C   0  0  0  0  0  0  0  0  0  0  0  0
   57.7690   32.3290   46.2030 C   0  0  0  0  0  0  0  0  0  0  0  0
   55.2699   29.1587   44.3652 H   0  0  0  0  0  0  0  0  0  0  0  0
   55.5239   30.6397   43.3810 H   0  0  0  0  0  0  0  0  0  0  0  0
   56.7618   29.3380   43.3810 H   0  0  0  0  0  0  0  0  0  0  0  0
   57.5029   31.7620   42.8392 H   0  0  0  0  0  0  0  0  0  0  0  0
   58.8096   33.8855   42.7873 H   0  0  0  0  0  0  0  0  0  0  0  0
   59.4535   35.0148   44.9135 H   0  0  0  0  0  0  0  0  0  0  0  0
   58.5262   35.2417   47.4541 H   0  0  0  0  0  0  0  0  0  0  0  0
   58.4782   33.6557   48.3085 H   0  0  0  0  0  0  0  0  0  0  0  0
   60.3257   32.7866   46.0513 H   0  0  0  0  0  0  0  0  0  0  0  0
   61.9038   33.6830   46.2667 H   0  0  0  0  0  0  0  0  0  0  0  0
   61.7442   31.1449   46.9474 H   0  0  0  0  0  0  0  0  0  0  0  0
   62.6056   32.3289   48.0041 H   0  0  0  0  0  0  0  0  0  0  0  0
   59.7940   31.4700   48.3050 H   0  0  0  0  0  0  0  0  0  0  0  0
   62.2690   30.3039   49.1279 H   0  0  0  0  0  0  0  0  0  0  0  0
   61.0926   30.6226   50.4836 H   0  0  0  0  0  0  0  0  0  0  0  0
   61.0822   28.4910   48.5240 H   0  0  0  0  0  0  0  0  0  0  0  0
   59.9965   28.7742   49.9479 H   0  0  0  0  0  0  0  0  0  0  0  0
   57.6391   27.5427   47.7772 H   0  0  0  0  0  0  0  0  0  0  0  0
   57.1145   26.4174   45.6160 H   0  0  0  0  0  0  0  0  0  0  0  0
   57.5038   25.4479   44.8087 H   0  0  0  0  0  0  0  0  0  0  0  0
   56.4046   25.1894   43.4116 H   0  0  0  0  0  0  0  0  0  0  0  0
   58.0447   24.4567   43.4116 H   0  0  0  0  0  0  0  0  0  0  0  0
   59.9542   28.9773   43.5902 H   0  0  0  0  0  0  0  0  0  0  0  0
   60.4818   30.1091   45.7513 H   0  0  0  0  0  0  0  0  0  0  0  0
   59.5780   32.8084   50.0869 H   0  0  0  0  0  0  0  0  0  0  0  0
   61.3693   32.7111   50.4302 H   0  0  0  0  0  0  0  0  0  0  0  0
   60.2458   34.9657   49.5556 H   0  0  0  0  0  0  0  0  0  0  0  0
   61.8943   34.4195   49.0169 H   0  0  0  0  0  0  0  0  0  0  0  0
   57.4762   31.8913   47.1688 H   0  0  0  0  0  0  0  0  0  0  0  0
  1  2  1  0
  2  3  1  0
  3  4  2  0
  4  5  1  0
  5  6  2  0
  6  7  1  0
  7  8  1  0
  8  9  1  0
  9 10  1  0
 10 11  1  0
 11 12  1  0
 12 13  1  0
 13 14  1  0
 14 15  1  0
 15 16  1  0
 16 17  2  0
 17 18  1  0
 18 19  2  0
 19 20  1  0
 20 21  1  0
 19 22  1  0
 22 23  2  0
 12 24  1  0
 24 25  1  0
  7 26  2  0
 26  3  1  0
 25  9  1  0
 23 16  1  0
  1 27  1  0
  1 28  1  0
  1 29  1  0
  4 30  1  0
  5 31  1  0
  6 32  1  0
  8 33  1  0
  8 34  1  0
 10 35  1  0
 10 36  1  0
 11 37  1  0
 11 38  1  0
 12 39  1  0
 13 40  1  0
 13 41  1  0
 14 42  1  0
 14 43  1  0
 17 44  1  0
 18 45  1  0
 21 46  1  0
 21 47  1  0
 21 48  1  0
 22 49  1  0
 23 50  1  0
 24 51  1  0
 24 52  1  0
 25 53  1  0
 25 54  1  0
 26 55  1  0
M  CHG  1  12   1
M  END
>  <UniqueID>  (31) 
28

>  <SMILES>  (31) 
COc1cccc(CN2CC[NH+](CCOc3ccc(SC)cc3)CC2)c1

>  <Energy>  (31) 
63.12180139283684

>  <Genealogy>  (31) 
COc1cccc(CN2CC[NH+](CCOc3ccc(SC)cc3)CC2)c1 (protonated)
COc1cccc(CN2CC[NH+](CCOc3ccc(SC)cc3)CC2)c1 (3D coordinates assigned)
COc1cccc(CN2CC[NH+](CCOc3ccc(SC)cc3)CC2)c1 (nonaromatic ring conformer: 63.12180139283684 kcal/mol)

>  <smiles>  (31) 
COc1cccc(CN2CCN(CCOc3ccc(SC)cc3)CC2)c1

>  <score_type>  (31) 
oracle

>  <origin>  (31) 
adg

>  <m_score__min__energy>  (31) 
-5.6500000000000004

>  <m_primary>  (31) 
energy

$$$$
31:0
     RDKit          3D

 28 29  0  0  0  0  0  0  0  0999 V2000
   58.0500   32.3370   43.3000 C   0  0  0  0  0  0  0  0  0  0  0  0
   58.0240   32.9470   44.3400 C   0  0  0  0  0  0  0  0  0  0  0  0
   57.9910   33.6900   45.6060 C   0  0  0  0  0  0  0  0  0  0  0  0
   59.2290   34.5790   45.7590 C   0  0  0  0  0  0  0  0  0  0  0  0
   59.8770   34.3650   47.0560 N   0  0  0  0  0  0  0  0  0  0  0  0
   59.3050   34.5650   48.2590 C   0  0  0  0  0  0  0  0  0  0  0  0
   60.1560   34.3490   49.2810 N   0  0  0  0  0  0  0  0  0  0  0  0
   61.3150   33.9880   48.6930 C   0  0  0  0  0  0  0  0  0  0  0  0
   61.1560   34.0110   47.3120 C   0  0  0  0  0  0  0  0  0  0  0  0
   62.1370   33.7790   46.2760 N   0  0  0  0  0  0  0  0  0  0  0  0
   63.3950   33.4450   46.3930 C   0  0  0  0  0  0  0  0  0  0  0  0
   64.0480   33.1480   47.6330 N   0  0  0  0  0  0  0  0  0  0  0  0
   63.3780   32.6030   48.8010 C   0  0  0  0  0  0  0  0  0  0  0  0
   62.5580   33.6940   49.4770 C   0  0  2  0  0  0  0  0  0  0  0  0
   62.2340   33.3140   50.7930 O   0  0  0  0  0  0  0  0  0  0  0  0
   58.0737   31.7806   42.3514 H   0  0  0  0  0  0  0  0  0  0  0  0
   57.0907   34.3217   45.6279 H   0  0  0  0  0  0  0  0  0  0  0  0
   57.9773   32.9663   46.4343 H   0  0  0  0  0  0  0  0  0  0  0  0
   59.9433   34.3408   44.9572 H   0  0  0  0  0  0  0  0  0  0  0  0
   58.9130   35.6308   45.6964 H   0  0  0  0  0  0  0  0  0  0  0  0
   58.2570   34.8714   48.3925 H   0  0  0  0  0  0  0  0  0  0  0  0
   61.8180   33.9400   45.2960 H   0  0  0  0  0  0  0  0  0  0  0  0
   63.9957   33.3878   45.4732 H   0  0  0  0  0  0  0  0  0  0  0  0
   65.0930   33.1350   47.6260 H   0  0  0  0  0  0  0  0  0  0  0  0
   62.7124   31.7836   48.4918 H   0  0  0  0  0  0  0  0  0  0  0  0
   64.1297   32.2211   49.5075 H   0  0  0  0  0  0  0  0  0  0  0  0
   63.1633   34.6117   49.5142 H   0  0  0  0  0  0  0  0  0  0  0  0
   61.2520   33.1700   50.8320 H   0  0  0  0  0  0  0  0  0  0  0  0
  1  2  3  0
  2  3  1  0
  3  4  1  0
  4  5  1  0
  5  6  1  0
  6  7  2  0
  7  8  1  0
  8  9  2  0
  9 10  1  0
 10 11  2  0
 11 12  1  0
 12 13  1  0
 13 14  1  0
 14 15  1  0
  9  5  1  0
 14  8  1  0
  1 16  1  0
  3 17  1  0
  3 18  1  0
  4 19  1  0
  4 20  1  0
  6 21  1  0
 10 22  1  0
 11 23  1  0
 12 24  1  0
 13 25  1  0
 13 26  1  0
 14 27  1  1
 15 28  1  0
M  CHG  1  10   1
M  END
>  <UniqueID>  (32) 
29

>  <SMILES>  (32) 
C#CCCn1cnc2c1[NH+]=CNC[C@@H]2O

>  <Energy>  (32) 
59.89702676530551

>  <Genealogy>  (32) 
C#CCCn1cnc2c1[NH+]=CNCC2O (protonated)
C#CCCn1cnc2c1[NH+]=CNC[C@@H]2O (chirality)
C#CCCn1cnc2c1[NH+]=CNC[C@@H]2O (3D coordinates assigned)
C#CCCn1cnc2c1[NH+]=CNC[C@@H]2O (nonaromatic ring conformer: 59.89702676530551 kcal/mol)

>  <smiles>  (32) 
C#CCCn1cnc2c1N=CNCC2O

>  <score_type>  (32) 
oracle

>  <origin>  (32) 
adg

>  <m_score__min__energy>  (32) 
-2.75

>  <m_primary>  (32) 
energy

$$$$
32:0
     RDKit          3D

 30 30  0  0  0  0  0  0  0  0999 V2000
   55.6190   30.0930   43.6590 C   0  0  0  0  0  0  0  0  0  0  0  0
   56.1240   29.6410   44.8880 O   0  0  0  0  0  0  0  0  0  0  0  0
   57.1290   28.7750   44.5890 N   0  0  0  0  0  0  0  0  0  0  0  0
   57.8900   28.5390   45.8160 C   0  0  0  0  0  0  0  0  0  0  0  0
   58.5540   29.8340   46.3140 C   0  0  0  0  0  0  0  0  0  0  0  0
   57.9860   31.0510   45.7080 N   0  0  0  0  0  0  0  0  0  0  0  0
   58.8210   32.2070   45.9390 C   0  0  0  0  0  0  0  0  0  0  0  0
   58.3930   33.4860   45.5580 C   0  0  0  0  0  0  0  0  0  0  0  0
   59.2140   34.5900   45.7780 C   0  0  0  0  0  0  0  0  0  0  0  0
   60.4640   34.4100   46.3710 C   0  0  0  0  0  0  0  0  0  0  0  0
   60.8900   33.1600   46.7250 N   0  0  0  0  0  0  0  0  0  0  0  0
   62.1910   32.9940   47.3770 C   0  0  0  0  0  0  0  0  0  0  0  0
   60.0860   32.0710   46.5370 C   0  0  0  0  0  0  0  0  0  0  0  0
   54.8104   30.8168   43.8387 H   0  0  0  0  0  0  0  0  0  0  0  0
   56.4244   30.5775   43.0875 H   0  0  0  0  0  0  0  0  0  0  0  0
   55.2264   29.2390   43.0875 H   0  0  0  0  0  0  0  0  0  0  0  0
   56.6740   27.8740   44.3110 H   0  0  0  0  0  0  0  0  0  0  0  0
   57.2095   28.1622   46.5938 H   0  0  0  0  0  0  0  0  0  0  0  0
   58.6784   27.8024   45.6017 H   0  0  0  0  0  0  0  0  0  0  0  0
   58.4259   29.8948   47.4048 H   0  0  0  0  0  0  0  0  0  0  0  0
   59.6138   29.7894   46.0227 H   0  0  0  0  0  0  0  0  0  0  0  0
   57.0170   31.2140   46.0690 H   0  0  0  0  0  0  0  0  0  0  0  0
   57.9030   30.9000   44.6760 H   0  0  0  0  0  0  0  0  0  0  0  0
   57.4087   33.6183   45.0852 H   0  0  0  0  0  0  0  0  0  0  0  0
   58.8790   35.5963   45.4862 H   0  0  0  0  0  0  0  0  0  0  0  0
   61.1114   35.2800   46.5550 H   0  0  0  0  0  0  0  0  0  0  0  0
   62.0587   33.0109   48.4689 H   0  0  0  0  0  0  0  0  0  0  0  0
   62.6320   32.0323   47.0759 H   0  0  0  0  0  0  0  0  0  0  0  0
   62.8593   33.8141   47.0759 H   0  0  0  0  0  0  0  0  0  0  0  0
   60.4324   31.0773   46.8571 H   0  0  0  0  0  0  0  0  0  0  0  0
  1  2  1  0
  2  3  1  0
  3  4  1  0
  4  5  1  0
  5  6  1  0
  6  7  1  0
  7  8  2  0
  8  9  1  0
  9 10  2  0
 10 11  1  0
 11 12  1  0
 11 13  2  0
 13  7  1  0
  1 14  1  0
  1 15  1  0
  1 16  1  0
  3 17  1  0
  4 18  1  0
  4 19  1  0
  5 20  1  0
  5 21  1  0
  6 22  1  0
  6 23  1  0
  8 24  1  0
  9 25  1  0
 10 26  1  0
 12 27  1  0
 12 28  1  0
 12 29  1  0
 13 30  1  0
M  CHG  2   6   1  11   1
M  END
>  <UniqueID>  (33) 
30

>  <SMILES>  (33) 
CONCC[NH2+]c1ccc[n+](C)c1

>  <Energy>  (33) 
23.729641131440424

>  <Genealogy>  (33) 
CONCC[NH2+]c1ccc[n+](C)c1 (protonated)
CONCC[NH2+]c1ccc[n+](C)c1 (3D coordinates assigned)
CONCC[NH2+]c1ccc[n+](C)c1 (optimized conformer: 23.729641131440424 kcal/mol)

>  <smiles>  (33) 
CONCCNc1ccc[n+](C)c1

>  <score_type>  (33) 
oracle

>  <origin>  (33) 
adg

>  <m_score__min__energy>  (33) 
-2.1200000000000001

>  <m_primary>  (33) 
energy

$$$$
33:0
     RDKit          3D

 43 43  0  0  0  0  0  0  0  0999 V2000
   59.6160   35.2940   46.3120 C   0  0  0  0  0  0  0  0  0  0  0  0
   59.8060   33.8090   45.9750 C   0  0  0  0  0  0  0  0  0  0  0  0
   58.5450   33.0270   45.9470 N   0  0  0  0  0  0  0  0  0  0  0  0
   57.7560   33.1050   47.1970 C   0  0  0  0  0  0  0  0  0  0  0  0
   58.5400   32.5730   48.3960 C   0  0  0  0  0  0  0  0  0  0  0  0
   57.7200   33.3310   44.7560 C   0  0  0  0  0  0  0  0  0  0  0  0
   57.4120   32.0470   43.9790 C   0  0  0  0  0  0  0  0  0  0  0  0
   56.5340   31.2030   44.7210 O   0  0  0  0  0  0  0  0  0  0  0  0
   56.0580   29.9780   44.2430 C   0  0  0  0  0  0  0  0  0  0  0  0
   55.1620   29.3440   44.8640 O   0  0  0  0  0  0  0  0  0  0  0  0
   56.6590   29.3910   43.0030 C   0  0  0  0  0  0  0  0  0  0  0  0
   57.4870   28.2240   43.3360 N   0  0  0  0  0  0  0  0  0  0  0  0
   58.0840   28.3910   44.6430 C   0  0  0  0  0  0  0  0  0  0  0  0
   59.0250   29.4210   44.8400 C   0  0  0  0  0  0  0  0  0  0  0  0
   59.5590   29.6700   46.1060 C   0  0  0  0  0  0  0  0  0  0  0  0
   59.1500   28.9080   47.1990 C   0  0  0  0  0  0  0  0  0  0  0  0
   59.8180   29.2300   48.7900 Cl  0  0  0  0  0  0  0  0  0  0  0  0
   58.2080   27.8920   47.0290 C   0  0  0  0  0  0  0  0  0  0  0  0
   57.6720   27.6150   45.7600 C   0  0  0  0  0  0  0  0  0  0  0  0
   56.7030   26.5650   45.6290 N   0  0  0  0  0  0  0  0  0  0  0  0
   56.8620   25.6780   44.7650 O   0  0  0  0  0  0  0  0  0  0  0  0
   55.4830   26.6700   46.2540 O   0  0  0  0  0  0  0  0  0  0  0  0
   59.5995   35.4229   47.4043 H   0  0  0  0  0  0  0  0  0  0  0  0
   60.4470   35.8758   45.8866 H   0  0  0  0  0  0  0  0  0  0  0  0
   58.6653   35.6478   45.8866 H   0  0  0  0  0  0  0  0  0  0  0  0
   60.2787   33.7375   44.9843 H   0  0  0  0  0  0  0  0  0  0  0  0
   60.4274   33.3796   46.7747 H   0  0  0  0  0  0  0  0  0  0  0  0
   57.4881   34.1553   47.3842 H   0  0  0  0  0  0  0  0  0  0  0  0
   56.8565   32.4840   47.0733 H   0  0  0  0  0  0  0  0  0  0  0  0
   58.0548   32.9023   49.3267 H   0  0  0  0  0  0  0  0  0  0  0  0
   58.5605   31.4737   48.3622 H   0  0  0  0  0  0  0  0  0  0  0  0
   59.5691   32.9601   48.3622 H   0  0  0  0  0  0  0  0  0  0  0  0
   56.7762   33.7955   45.0776 H   0  0  0  0  0  0  0  0  0  0  0  0
   58.2760   34.0193   44.1025 H   0  0  0  0  0  0  0  0  0  0  0  0
   56.9365   32.3098   43.0225 H   0  0  0  0  0  0  0  0  0  0  0  0
   58.3542   31.5072   43.8033 H   0  0  0  0  0  0  0  0  0  0  0  0
   55.8529   29.0806   42.3219 H   0  0  0  0  0  0  0  0  0  0  0  0
   57.2917   30.1503   42.5201 H   0  0  0  0  0  0  0  0  0  0  0  0
   56.9140   27.3530   43.3040 H   0  0  0  0  0  0  0  0  0  0  0  0
   58.2370   28.1190   42.6120 H   0  0  0  0  0  0  0  0  0  0  0  0
   59.3430   30.0367   43.9858 H   0  0  0  0  0  0  0  0  0  0  0  0
   60.3034   30.4686   46.2408 H   0  0  0  0  0  0  0  0  0  0  0  0
   57.8817   27.3017   47.8980 H   0  0  0  0  0  0  0  0  0  0  0  0
  1  2  1  0
  2  3  1  0
  3  4  1  0
  4  5  1  0
  3  6  1  0
  6  7  1  0
  7  8  1  0
  8  9  1  0
  9 10  2  0
  9 11  1  0
 11 12  1  0
 12 13  1  0
 13 14  2  0
 14 15  1  0
 15 16  2  0
 16 17  1  0
 16 18  1  0
 18 19  2  0
 19 20  1  0
 20 21  2  0
 20 22  1  0
 19 13  1  0
  1 23  1  0
  1 24  1  0
  1 25  1  0
  2 26  1  0
  2 27  1  0
  4 28  1  0
  4 29  1  0
  5 30  1  0
  5 31  1  0
  5 32  1  0
  6 33  1  0
  6 34  1  0
  7 35  1  0
  7 36  1  0
 11 37  1  0
 11 38  1  0
 12 39  1  0
 12 40  1  0
 14 41  1  0
 15 42  1  0
 18 43  1  0
M  CHG  3  12   1  20   1  22  -1
M  END
>  <UniqueID>  (34) 
31

>  <SMILES>  (34) 
CCN(CC)CCOC(=O)C[NH2+]c1ccc(Cl)cc1[N+](=O)[O-]

>  <Energy>  (34) 
45.272343369579545

>  <Genealogy>  (34) 
CCN(CC)CCOC(=O)C[NH2+]c1ccc(Cl)cc1[N+](=O)[O-] (protonated)
CCN(CC)CCOC(=O)C[NH2+]c1ccc(Cl)cc1[N+](=O)[O-] (3D coordinates assigned)
CCN(CC)CCOC(=O)C[NH2+]c1ccc(Cl)cc1[N+](=O)[O-] (optimized conformer: 45.272343369579545 kcal/mol)

>  <smiles>  (34) 
CCN(CC)CCOC(=O)CNc1ccc(Cl)cc1[N+](=O)[O-]

>  <score_type>  (34) 
oracle

>  <origin>  (34) 
adg

>  <m_score__min__energy>  (34) 
-6.5099999999999998

>  <m_primary>  (34) 
energy

$$$$
34:0
     RDKit          3D

 33 34  0  0  0  0  0  0  0  0999 V2000
   58.4810   34.5280   44.8900 C   0  0  0  0  0  0  0  0  0  0  0  0
   57.5050   33.7370   46.2070 S   0  0  0  0  0  0  0  0  0  0  0  0
   57.7890   32.0770   45.5800 C   0  0  0  0  0  0  0  0  0  0  0  0
   56.7730   31.5130   44.8730 N   0  0  0  0  0  0  0  0  0  0  0  0
   56.8420   30.2580   44.3660 C   0  0  0  0  0  0  0  0  0  0  0  0
   55.7000   29.7180   43.5660 C   0  0  0  0  0  0  0  0  0  0  0  0
   57.9910   29.4960   44.5680 C   0  0  0  0  0  0  0  0  0  0  0  0
   59.0580   30.0170   45.3130 C   0  0  0  0  0  0  0  0  0  0  0  0
   60.2620   29.1360   45.5340 C   0  0  0  0  0  0  0  0  0  0  0  0
   58.9850   31.3470   45.8100 C   0  0  0  0  0  0  0  0  0  0  0  0
   60.3390   32.0320   46.7570 S   0  0  0  0  0  0  0  0  0  0  0  0
   61.4670   31.0410   46.8170 O   0  0  0  0  0  0  0  0  0  0  0  0
   60.8890   33.2930   46.1540 O   0  0  0  0  0  0  0  0  0  0  0  0
   59.7810   32.3820   48.3840 C   0  0  0  0  0  0  0  0  0  0  0  0
   60.1430   33.5790   49.0140 C   0  0  0  0  0  0  0  0  0  0  0  0
   59.6810   33.8370   50.3060 C   0  0  0  0  0  0  0  0  0  0  0  0
   58.8630   32.9060   50.9510 C   0  0  0  0  0  0  0  0  0  0  0  0
   58.2190   33.2470   52.7170 Br  0  0  0  0  0  0  0  0  0  0  0  0
   58.5200   31.7250   50.2900 C   0  0  0  0  0  0  0  0  0  0  0  0
   58.9840   31.4890   49.0330 N   0  0  0  0  0  0  0  0  0  0  0  0
   59.2606   35.1598   45.3405 H   0  0  0  0  0  0  0  0  0  0  0  0
   58.9516   33.7533   44.2668 H   0  0  0  0  0  0  0  0  0  0  0  0
   57.8206   35.1489   44.2668 H   0  0  0  0  0  0  0  0  0  0  0  0
   54.9183   29.3484   44.2460 H   0  0  0  0  0  0  0  0  0  0  0  0
   55.2868   30.5161   42.9317 H   0  0  0  0  0  0  0  0  0  0  0  0
   56.0547   28.8922   42.9317 H   0  0  0  0  0  0  0  0  0  0  0  0
   58.0608   28.4842   44.1422 H   0  0  0  0  0  0  0  0  0  0  0  0
   60.4321   29.0116   46.6136 H   0  0  0  0  0  0  0  0  0  0  0  0
   60.0857   28.1521   45.0748 H   0  0  0  0  0  0  0  0  0  0  0  0
   61.1464   29.6018   45.0748 H   0  0  0  0  0  0  0  0  0  0  0  0
   60.7842   34.3079   48.4968 H   0  0  0  0  0  0  0  0  0  0  0  0
   59.9604   34.7713   50.8150 H   0  0  0  0  0  0  0  0  0  0  0  0
   57.8744   30.9851   50.7857 H   0  0  0  0  0  0  0  0  0  0  0  0
  1  2  1  0
  2  3  1  0
  3  4  2  0
  4  5  1  0
  5  6  1  0
  5  7  2  0
  7  8  1  0
  8  9  1  0
  8 10  2  0
 10 11  1  0
 11 12  2  0
 11 13  2  0
 11 14  1  0
 14 15  2  0
 15 16  1  0
 16 17  2  0
 17 18  1  0
 17 19  1  0
 19 20  2  0
 10  3  1  0
 20 14  1  0
  1 21  1  0
  1 22  1  0
  1 23  1  0
  6 24  1  0
  6 25  1  0
  6 26  1  0
  7 27  1  0
  9 28  1  0
  9 29  1  0
  9 30  1  0
 15 31  1  0
 16 32  1  0
 19 33  1  0
M  END
>  <UniqueID>  (35) 
32

>  <SMILES>  (35) 
CSc1nc(C)cc(C)c1S(=O)(=O)c1ccc(Br)cn1

>  <Energy>  (35) 
36.23358709940217

>  <Genealogy>  (35) 
CSc1nc(C)cc(C)c1S(=O)(=O)c1ccc(Br)cn1 (3D coordinates assigned)
CSc1nc(C)cc(C)c1S(=O)(=O)c1ccc(Br)cn1 (optimized conformer: 36.23358709940217 kcal/mol)

>  <smiles>  (35) 
CSc1nc(C)cc(C)c1S(=O)(=O)c1ccc(Br)cn1

>  <score_type>  (35) 
oracle

>  <origin>  (35) 
adg

>  <m_score__min__energy>  (35) 
-7.04

>  <m_primary>  (35) 
energy

$$$$
35:0
     RDKit          3D

 50 51  0  0  0  0  0  0  0  0999 V2000
   55.4180   23.8210   44.3400 C   0  0  0  0  0  0  0  0  0  0  0  0
   54.4960   24.4760   45.3630 C   0  0  0  0  0  0  0  0  0  0  0  0
   55.1990   25.4610   46.1000 O   0  0  0  0  0  0  0  0  0  0  0  0
   56.2640   24.8910   46.8390 C   0  0  0  0  0  0  0  0  0  0  0  0
   57.5690   25.6540   46.5680 C   0  0  0  0  0  0  0  0  0  0  0  0
   57.3470   26.8720   45.7560 N   0  0  0  0  0  0  0  0  0  0  0  0
   57.8900   26.6910   44.3900 C   0  0  0  0  0  0  0  0  0  0  0  0
   57.8030   27.9840   43.5600 C   0  0  0  0  0  0  0  0  0  0  0  0
   56.8630   28.9220   44.1930 N   0  0  0  0  0  0  0  0  0  0  0  0
   56.4920   30.0530   43.3150 C   0  0  0  0  0  0  0  0  0  0  0  0
   57.1980   31.3380   43.6570 C   0  0  0  0  0  0  0  0  0  0  0  0
   58.0690   31.9600   42.8370 N   0  0  0  0  0  0  0  0  0  0  0  0
   58.4270   33.0360   43.4780 O   0  0  0  0  0  0  0  0  0  0  0  0
   57.8150   33.0890   44.6380 C   0  0  0  0  0  0  0  0  0  0  0  0
   57.9740   34.1960   45.6390 C   0  0  0  0  0  0  0  0  0  0  0  0
   59.2650   34.9720   45.3650 C   0  0  0  0  0  0  0  0  0  0  0  0
   57.9640   33.6310   47.0620 C   0  0  0  0  0  0  0  0  0  0  0  0
   57.0150   32.0220   44.8020 N   0  0  0  0  0  0  0  0  0  0  0  0
   57.3720   29.3590   45.5080 C   0  0  0  0  0  0  0  0  0  0  0  0
   57.7890   28.1470   46.3890 C   0  0  2  0  0  0  0  0  0  0  0  0
   59.3010   28.1830   46.7030 C   0  0  0  0  0  0  0  0  0  0  0  0
   56.2068   23.2606   44.8632 H   0  0  0  0  0  0  0  0  0  0  0  0
   54.8360   23.1328   43.7095 H   0  0  0  0  0  0  0  0  0  0  0  0
   55.8763   24.5972   43.7095 H   0  0  0  0  0  0  0  0  0  0  0  0
   53.6513   24.9483   44.8401 H   0  0  0  0  0  0  0  0  0  0  0  0
   54.1272   23.7060   46.0566 H   0  0  0  0  0  0  0  0  0  0  0  0
   56.0295   24.9430   47.9124 H   0  0  0  0  0  0  0  0  0  0  0  0
   56.3920   23.8426   46.5316 H   0  0  0  0  0  0  0  0  0  0  0  0
   58.0147   25.9462   47.5302 H   0  0  0  0  0  0  0  0  0  0  0  0
   58.2378   24.9886   46.0024 H   0  0  0  0  0  0  0  0  0  0  0  0
   58.9445   26.3867   44.4642 H   0  0  0  0  0  0  0  0  0  0  0  0
   57.2888   25.9211   43.8842 H   0  0  0  0  0  0  0  0  0  0  0  0
   58.7985   28.4483   43.5024 H   0  0  0  0  0  0  0  0  0  0  0  0
   57.4470   27.7418   42.5478 H   0  0  0  0  0  0  0  0  0  0  0  0
   56.7414   29.7845   42.2778 H   0  0  0  0  0  0  0  0  0  0  0  0
   55.4152   30.2296   43.4539 H   0  0  0  0  0  0  0  0  0  0  0  0
   57.1270   34.8911   45.5422 H   0  0  0  0  0  0  0  0  0  0  0  0
   59.7333   35.2535   46.3197 H   0  0  0  0  0  0  0  0  0  0  0  0
   59.9574   34.3403   44.7892 H   0  0  0  0  0  0  0  0  0  0  0  0
   59.0319   35.8798   44.7892 H   0  0  0  0  0  0  0  0  0  0  0  0
   57.9787   34.4594   47.7855 H   0  0  0  0  0  0  0  0  0  0  0  0
   57.0551   33.0297   47.2114 H   0  0  0  0  0  0  0  0  0  0  0  0
   58.8511   32.9979   47.2114 H   0  0  0  0  0  0  0  0  0  0  0  0
   56.3980   31.7870   45.6110 H   0  0  0  0  0  0  0  0  0  0  0  0
   58.2471   30.0076   45.3550 H   0  0  0  0  0  0  0  0  0  0  0  0
   56.5680   29.9021   46.0263 H   0  0  0  0  0  0  0  0  0  0  0  0
   57.2780   28.2122   47.3609 H   0  0  0  0  0  0  0  0  0  0  0  0
   59.4491   28.1865   47.7930 H   0  0  0  0  0  0  0  0  0  0  0  0
   59.7867   27.2962   46.2698 H   0  0  0  0  0  0  0  0  0  0  0  0
   59.7439   29.0919   46.2698 H   0  0  0  0  0  0  0  0  0  0  0  0
  1  2  1  0
  2  3  1  0
  3  4  1  0
  4  5  1  0
  5  6  1  0
  6  7  1  0
  7  8  1  0
  8  9  1  0
  9 10  1  0
 10 11  1  0
 11 12  2  0
 12 13  1  0
 13 14  1  0
 14 15  1  0
 15 16  1  0
 15 17  1  0
 14 18  2  0
  9 19  1  0
 19 20  1  0
 20 21  1  0
 20  6  1  0
 18 11  1  0
  1 22  1  0
  1 23  1  0
  1 24  1  0
  2 25  1  0
  2 26  1  0
  4 27  1  0
  4 28  1  0
  5 29  1  0
  5 30  1  0
  7 31  1  0
  7 32  1  0
  8 33  1  0
  8 34  1  0
 10 35  1  0
 10 36  1  0
 15 37  1  0
 16 38  1  0
 16 39  1  0
 16 40  1  0
 17 41  1  0
 17 42  1  0
 17 43  1  0
 18 44  1  0
 19 45  1  0
 19 46  1  0
 20 47  1  1
 21 48  1  0
 21 49  1  0
 21 50  1  0
M  CHG  1  18   1
M  END
>  <UniqueID>  (36) 
33

>  <SMILES>  (36) 
CCOCCN1CCN(Cc2noc(C(C)C)[nH+]2)C[C@@H]1C

>  <Energy>  (36) 
90.1841337519576

>  <Genealogy>  (36) 
CCOCCN1CCN(Cc2noc(C(C)C)[nH+]2)CC1C (protonated)
CCOCCN1CCN(Cc2noc(C(C)C)[nH+]2)C[C@@H]1C (chirality)
CCOCCN1CCN(Cc2noc(C(C)C)[nH+]2)C[C@@H]1C (3D coordinates assigned)
CCOCCN1CCN(Cc2noc(C(C)C)[nH+]2)C[C@@H]1C (nonaromatic ring conformer: 90.1841337519576 kcal/mol)

>  <smiles>  (36) 
CCOCCN1CCN(Cc2noc(C(C)C)n2)CC1C

>  <score_type>  (36) 
oracle

>  <origin>  (36) 
adg

>  <m_score__min__energy>  (36) 
-6.1299999999999999

>  <m_primary>  (36) 
energy

$$$$
36:0
     RDKit          3D

 39 40  0  0  0  0  0  0  0  0999 V2000
   54.6780   24.8400   45.3610 C   0  0  0  0  0  0  0  0  0  0  0  0
   55.1980   26.0020   45.9990 O   0  0  0  0  0  0  0  0  0  0  0  0
   56.5440   26.3920   45.9570 C   0  0  0  0  0  0  0  0  0  0  0  0
   57.5960   25.5040   46.2430 C   0  0  0  0  0  0  0  0  0  0  0  0
   58.9210   25.9440   46.2010 C   0  0  0  0  0  0  0  0  0  0  0  0
   59.2220   27.2770   45.8640 C   0  0  0  0  0  0  0  0  0  0  0  0
   60.5410   27.7620   45.8670 O   0  0  0  0  0  0  0  0  0  0  0  0
   61.1230   28.5320   44.8200 C   0  0  0  0  0  0  0  0  0  0  0  0
   58.1700   28.1600   45.5410 C   0  0  0  0  0  0  0  0  0  0  0  0
   58.4270   29.5280   45.1880 N   0  0  0  0  0  0  0  0  0  0  0  0
   57.4090   30.4180   44.7040 C   0  0  0  0  0  0  0  0  0  0  0  0
   56.1980   30.0630   44.7320 O   0  0  0  0  0  0  0  0  0  0  0  0
   57.7780   31.7460   44.1700 C   0  0  0  0  0  0  0  0  0  0  0  0
   57.5190   32.0070   42.9640 O   0  0  0  0  0  0  0  0  0  0  0  0
   58.4030   32.7560   44.9900 N   0  0  0  0  0  0  0  0  0  0  0  0
   59.2760   32.3960   46.1140 C   0  0  0  0  0  0  0  0  0  0  0  0
   60.3620   33.4620   46.2920 C   0  0  0  0  0  0  0  0  0  0  0  0
   59.7910   34.7540   46.3720 O   0  0  0  0  0  0  0  0  0  0  0  0
   59.1780   35.0810   45.1390 C   0  0  0  0  0  0  0  0  0  0  0  0
   57.9890   34.1570   44.8600 C   0  0  0  0  0  0  0  0  0  0  0  0
   56.8430   27.7140   45.6150 C   0  0  0  0  0  0  0  0  0  0  0  0
   54.3543   24.1167   46.1239 H   0  0  0  0  0  0  0  0  0  0  0  0
   53.8192   25.1197   44.7331 H   0  0  0  0  0  0  0  0  0  0  0  0
   55.4588   24.3860   44.7331 H   0  0  0  0  0  0  0  0  0  0  0  0
   57.3745   24.4579   46.5010 H   0  0  0  0  0  0  0  0  0  0  0  0
   59.7361   25.2428   46.4333 H   0  0  0  0  0  0  0  0  0  0  0  0
   61.7326   29.3386   45.2534 H   0  0  0  0  0  0  0  0  0  0  0  0
   61.7595   27.8846   44.1989 H   0  0  0  0  0  0  0  0  0  0  0  0
   60.3265   28.9677   44.1989 H   0  0  0  0  0  0  0  0  0  0  0  0
   59.3560   29.9320   45.4450 H   0  0  0  0  0  0  0  0  0  0  0  0
   58.6770   32.3282   47.0341 H   0  0  0  0  0  0  0  0  0  0  0  0
   59.7510   31.4255   45.9077 H   0  0  0  0  0  0  0  0  0  0  0  0
   60.9203   33.2568   47.2173 H   0  0  0  0  0  0  0  0  0  0  0  0
   61.0349   33.4277   45.4225 H   0  0  0  0  0  0  0  0  0  0  0  0
   58.8245   36.1219   45.1770 H   0  0  0  0  0  0  0  0  0  0  0  0
   59.9173   34.9565   44.3341 H   0  0  0  0  0  0  0  0  0  0  0  0
   57.1860   34.3683   45.5815 H   0  0  0  0  0  0  0  0  0  0  0  0
   57.6261   34.3335   43.8367 H   0  0  0  0  0  0  0  0  0  0  0  0
   56.0236   28.4158   45.4004 H   0  0  0  0  0  0  0  0  0  0  0  0
  1  2  1  0
  2  3  1  0
  3  4  2  0
  4  5  1  0
  5  6  2  0
  6  7  1  0
  7  8  1  0
  6  9  1  0
  9 10  1  0
 10 11  1  0
 11 12  2  0
 11 13  1  0
 13 14  2  0
 13 15  1  0
 15 16  1  0
 16 17  1  0
 17 18  1  0
 18 19  1  0
 19 20  1  0
  9 21  2  0
 21  3  1  0
 20 15  1  0
  1 22  1  0
  1 23  1  0
  1 24  1  0
  4 25  1  0
  5 26  1  0
  8 27  1  0
  8 28  1  0
  8 29  1  0
 10 30  1  0
 16 31  1  0
 16 32  1  0
 17 33  1  0
 17 34  1  0
 19 35  1  0
 19 36  1  0
 20 37  1  0
 20 38  1  0
 21 39  1  0
M  END
>  <UniqueID>  (37) 
34

>  <SMILES>  (37) 
COc1ccc(OC)c(NC(=O)C(=O)N2CCOCC2)c1

>  <Energy>  (37) 
45.76830807178127

>  <Genealogy>  (37) 
COc1ccc(OC)c(NC(=O)C(=O)N2CCOCC2)c1 (3D coordinates assigned)
COc1ccc(OC)c(NC(=O)C(=O)N2CCOCC2)c1 (nonaromatic ring conformer: 45.76830807178127 kcal/mol)

>  <smiles>  (37) 
COc1ccc(OC)c(NC(=O)C(=O)N2CCOCC2)c1

>  <score_type>  (37) 
oracle

>  <origin>  (37) 
adg

>  <m_score__min__energy>  (37) 
-6.9199999999999999

>  <m_primary>  (37) 
energy

$$$$
37:0
     RDKit          3D

 28 29  0  0  1  0  0  0  0  0999 V2000
   57.8290   32.3330   41.3430 C   0  0  0  0  0  0  0  0  0  0  0  0
   57.5590   31.8340   42.7180 C   0  0  0  0  0  0  0  0  0  0  0  0
   57.4490   32.7640   43.7180 C   0  0  0  0  0  0  0  0  0  0  0  0
   57.1950   32.2980   45.0080 C   0  0  0  0  0  0  0  0  0  0  0  0
   57.0980   33.2010   45.9210 N   0  0  0  0  0  0  0  0  0  0  0  0
   58.2850   33.5610   46.6200 C   0  0  0  0  0  0  0  0  0  0  0  0
   58.4790   33.0340   47.8920 C   0  0  0  0  0  0  0  0  0  0  0  0
   59.6280   33.3590   48.6190 C   0  0  0  0  0  0  0  0  0  0  0  0
   60.5660   34.2120   48.0520 C   0  0  0  0  0  0  0  0  0  0  0  0
   60.3950   34.7510   46.7850 C   0  0  0  0  0  0  0  0  0  0  0  0
   59.2430   34.4020   46.1020 C   0  0  0  0  0  0  0  0  0  0  0  0
   57.0680   30.9800   45.2400 N   0  0  0  0  0  0  0  0  0  0  0  0
   57.1790   30.0680   44.2370 C   0  0  0  0  0  0  0  0  0  0  0  0
   57.0330   28.6050   44.5210 C   0  0  0  0  0  0  0  0  0  0  0  0
   57.4240   30.5120   42.9920 N   0  0  0  0  0  0  0  0  0  0  0  0
   58.3518   33.2992   41.3996 H   0  0  0  0  0  0  0  0  0  0  0  0
   58.4574   31.6070   40.8063 H   0  0  0  0  0  0  0  0  0  0  0  0
   56.8775   32.4618   40.8063 H   0  0  0  0  0  0  0  0  0  0  0  0
   57.5570   33.8390   43.5112 H   0  0  0  0  0  0  0  0  0  0  0  0
   57.7267   32.3598   48.3273 H   0  0  0  0  0  0  0  0  0  0  0  0
   59.7869   32.9451   49.6257 H   0  0  0  0  0  0  0  0  0  0  0  0
   61.4703   34.4676   48.6238 H   0  0  0  0  0  0  0  0  0  0  0  0
   61.1423   35.4262   46.3427 H   0  0  0  0  0  0  0  0  0  0  0  0
   59.0855   34.8173   45.0957 H   0  0  0  0  0  0  0  0  0  0  0  0
   57.0168   28.4425   45.6088 H   0  0  0  0  0  0  0  0  0  0  0  0
   56.0938   28.2381   44.0814 H   0  0  0  0  0  0  0  0  0  0  0  0
   57.8812   28.0597   44.0814 H   0  0  0  0  0  0  0  0  0  0  0  0
   57.5100   29.8120   42.2220 H   0  0  0  0  0  0  0  0  0  0  0  0
  1  2  1  0
  2  3  2  0
  3  4  1  0
  4  5  2  0
  5  6  1  0
  6  7  2  0
  7  8  1  0
  8  9  2  0
  9 10  1  0
 10 11  2  0
  4 12  1  0
 12 13  2  0
 13 14  1  0
 13 15  1  0
 15  2  1  0
 11  6  1  0
  1 16  1  0
  1 17  1  0
  1 18  1  0
  3 19  1  0
  7 20  1  0
  8 21  1  0
  9 22  1  0
 10 23  1  0
 11 24  1  0
 14 25  1  0
 14 26  1  0
 14 27  1  0
 15 28  1  0
M  END
>  <smiles>  (38) 
Cc1cc(=Nc2ccccc2)nc(C)[nH]1

>  <score_type>  (38) 
oracle

>  <origin>  (38) 
adg

>  <m_score__min__energy>  (38) 
-6.4800000000000004

>  <m_primary>  (38) 
energy

$$$$
38:0
     RDKit          3D

 48 51  0  0  0  0  0  0  0  0999 V2000
   58.1420   23.7370   45.2950 C   0  0  0  0  0  0  0  0  0  0  0  0
   58.5920   24.5590   46.3670 O   0  0  0  0  0  0  0  0  0  0  0  0
   58.6610   25.9580   46.3160 C   0  0  0  0  0  0  0  0  0  0  0  0
   58.5450   26.5860   45.0700 C   0  0  0  0  0  0  0  0  0  0  0  0
   58.5870   27.9790   44.9690 C   0  0  0  0  0  0  0  0  0  0  0  0
   58.7450   28.7640   46.1190 C   0  0  0  0  0  0  0  0  0  0  0  0
   58.7290   30.1970   46.0260 N   0  0  0  0  0  0  0  0  0  0  0  0
   57.7770   30.9420   45.4100 C   0  0  0  0  0  0  0  0  0  0  0  0
   56.7310   30.4780   44.8810 O   0  0  0  0  0  0  0  0  0  0  0  0
   58.1530   32.2650   45.4460 C   0  0  0  0  0  0  0  0  0  0  0  0
   57.5960   33.4360   44.9480 C   0  0  0  0  0  0  0  0  0  0  0  0
   58.3290   34.6230   45.1410 C   0  0  0  0  0  0  0  0  0  0  0  0
   59.5790   34.5810   45.8070 C   0  0  0  0  0  0  0  0  0  0  0  0
   60.0830   33.3960   46.2690 N   0  0  0  0  0  0  0  0  0  0  0  0
   59.3580   32.2640   46.0910 C   0  0  0  0  0  0  0  0  0  0  0  0
   59.7010   31.0090   46.4460 N   0  0  0  0  0  0  0  0  0  0  0  0
   60.9930   30.5870   47.0000 C   0  0  0  0  0  0  0  0  0  0  0  0
   61.3010   31.3740   48.2780 C   0  0  0  0  0  0  0  0  0  0  0  0
   62.7590   31.5970   48.4070 N   0  0  0  0  0  0  0  0  0  0  0  0
   63.0810   32.5260   49.5080 C   0  0  0  0  0  0  0  0  0  0  0  0
   62.6550   33.9770   49.1780 C   0  0  0  0  0  0  0  0  0  0  0  0
   62.3880   34.1810   47.8020 O   0  0  0  0  0  0  0  0  0  0  0  0
   63.4060   33.5980   47.0190 C   0  0  0  0  0  0  0  0  0  0  0  0
   63.3720   32.0590   47.1370 C   0  0  0  0  0  0  0  0  0  0  0  0
   58.8870   28.1420   47.3660 C   0  0  0  0  0  0  0  0  0  0  0  0
   58.8390   26.7490   47.4680 C   0  0  0  0  0  0  0  0  0  0  0  0
   57.6512   22.8404   45.7015 H   0  0  0  0  0  0  0  0  0  0  0  0
   57.4258   24.2991   44.6777 H   0  0  0  0  0  0  0  0  0  0  0  0
   59.0014   23.4365   44.6777 H   0  0  0  0  0  0  0  0  0  0  0  0
   58.4197   25.9773   44.1624 H   0  0  0  0  0  0  0  0  0  0  0  0
   58.4958   28.4606   43.9843 H   0  0  0  0  0  0  0  0  0  0  0  0
   56.6272   33.4362   44.4270 H   0  0  0  0  0  0  0  0  0  0  0  0
   57.9317   35.5813   44.7752 H   0  0  0  0  0  0  0  0  0  0  0  0
   60.1495   35.5099   45.9539 H   0  0  0  0  0  0  0  0  0  0  0  0
   60.9548   29.5130   47.2346 H   0  0  0  0  0  0  0  0  0  0  0  0
   61.7826   30.7808   46.2591 H   0  0  0  0  0  0  0  0  0  0  0  0
   60.7876   32.3460   48.2379 H   0  0  0  0  0  0  0  0  0  0  0  0
   60.9497   30.7971   49.1462 H   0  0  0  0  0  0  0  0  0  0  0  0
   62.5543   32.1980   50.4163 H   0  0  0  0  0  0  0  0  0  0  0  0
   64.1707   32.5149   49.6575 H   0  0  0  0  0  0  0  0  0  0  0  0
   61.7451   34.2127   49.7494 H   0  0  0  0  0  0  0  0  0  0  0  0
   63.4948   34.6338   49.4489 H   0  0  0  0  0  0  0  0  0  0  0  0
   63.2598   33.8827   45.9666 H   0  0  0  0  0  0  0  0  0  0  0  0
   64.3803   33.9588   47.3803 H   0  0  0  0  0  0  0  0  0  0  0  0
   62.7889   31.6541   46.2967 H   0  0  0  0  0  0  0  0  0  0  0  0
   64.4119   31.7007   47.1195 H   0  0  0  0  0  0  0  0  0  0  0  0
   59.0369   28.7525   48.2687 H   0  0  0  0  0  0  0  0  0  0  0  0
   58.9407   26.2682   48.4521 H   0  0  0  0  0  0  0  0  0  0  0  0
  1  2  1  0
  2  3  1  0
  3  4  2  0
  4  5  1  0
  5  6  2  0
  6  7  1  0
  7  8  1  0
  8  9  2  0
  8 10  1  0
 10 11  2  0
 11 12  1  0
 12 13  2  0
 13 14  1  0
 14 15  2  0
 15 16  1  0
 16 17  1  0
 17 18  1  0
 18 19  1  0
 19 20  1  0
 20 21  1  0
 21 22  1  0
 22 23  1  0
 23 24  1  0
  6 25  1  0
 25 26  2  0
 26  3  1  0
 16  7  1  0
 24 19  1  0
 15 10  1  0
  1 27  1  0
  1 28  1  0
  1 29  1  0
  4 30  1  0
  5 31  1  0
 11 32  1  0
 12 33  1  0
 13 34  1  0
 17 35  1  0
 17 36  1  0
 18 37  1  0
 18 38  1  0
 20 39  1  0
 20 40  1  0
 21 41  1  0
 21 42  1  0
 23 43  1  0
 23 44  1  0
 24 45  1  0
 24 46  1  0
 25 47  1  0
 26 48  1  0
M  END
>  <UniqueID>  (39) 
35

>  <SMILES>  (39) 
COc1ccc(-n2c(=O)c3cccnc3n2CCN2CCOCC2)cc1

>  <Energy>  (39) 
110.19320758920968

>  <Genealogy>  (39) 
COc1ccc(-n2c(=O)c3cccnc3n2CCN2CCOCC2)cc1 (3D coordinates assigned)
COc1ccc(-n2c(=O)c3cccnc3n2CCN2CCOCC2)cc1 (nonaromatic ring conformer: 110.19320758920968 kcal/mol)

>  <smiles>  (39) 
COc1ccc(-n2c(=O)c3cccnc3n2CCN2CCOCC2)cc1

>  <score_type>  (39) 
oracle

>  <origin>  (39) 
adg

>  <m_score__min__energy>  (39) 
-7.2999999999999998

>  <m_primary>  (39) 
energy

$$$$
39:0
     RDKit          3D

 61 62  0  0  0  0  0  0  0  0999 V2000
   63.9302   34.5997   47.5376 H   0  0  0  0  0  0  0  0  0  0  0  0
   63.4050   33.6400   47.6520 C   0  0  0  0  0  0  0  0  0  0  0  0
   63.6300   32.7420   48.6350 N   0  0  0  0  0  0  0  0  0  0  0  0
   62.7680   31.7360   48.3720 C   0  0  0  0  0  0  0  0  0  0  0  0
   62.6768   30.8305   48.9899 H   0  0  0  0  0  0  0  0  0  0  0  0
   62.0330   31.9670   47.2680 N   0  0  0  0  0  0  0  0  0  0  0  0
   60.9480   31.1390   46.7470 C   0  0  0  0  0  0  0  0  0  0  0  0
   61.2526   30.7027   45.7843 H   0  0  0  0  0  0  0  0  0  0  0  0
   60.0528   31.7627   46.6071 H   0  0  0  0  0  0  0  0  0  0  0  0
   60.6280   30.0150   47.7340 C   0  0  0  0  0  0  0  0  0  0  0  0
   61.4906   29.8671   48.4004 H   0  0  0  0  0  0  0  0  0  0  0  0
   60.4169   29.1000   47.1611 H   0  0  0  0  0  0  0  0  0  0  0  0
   59.3960   30.3500   48.5800 C   0  0  0  0  0  0  0  0  0  0  0  0
   59.7061   30.5218   49.6213 H   0  0  0  0  0  0  0  0  0  0  0  0
   58.6886   29.5089   48.5326 H   0  0  0  0  0  0  0  0  0  0  0  0
   58.7420   31.5530   48.0660 N   0  0  0  0  0  0  0  0  0  0  0  0
   58.0740   31.4530   47.2680 H   0  0  0  0  0  0  0  0  0  0  0  0
   58.9990   32.8640   48.5890 C   0  0  0  0  0  0  0  0  0  0  0  0
   57.9410   32.8470   45.6120 N   0  0  0  0  0  0  0  0  0  0  0  0
   59.2030   33.2160   51.0010 C   0  0  0  0  0  0  0  0  0  0  0  0
   59.7040   32.9980   49.6770 N   0  0  0  0  0  0  0  0  0  0  0  0
   58.3040   34.1640   45.0870 C   0  0  0  0  0  0  0  0  0  0  0  0
   57.4790   34.8654   45.2808 H   0  0  0  0  0  0  0  0  0  0  0  0
   58.4898   34.0648   44.0074 H   0  0  0  0  0  0  0  0  0  0  0  0
   56.5770   31.7510   52.1280 C   0  0  0  0  0  0  0  0  0  0  0  0
   56.1346   32.4407   51.3942 H   0  0  0  0  0  0  0  0  0  0  0  0
   56.7917   32.2750   53.0710 H   0  0  0  0  0  0  0  0  0  0  0  0
   55.5830   30.6210   52.4150 C   0  0  0  0  0  0  0  0  0  0  0  0
   55.3513   30.6108   53.4903 H   0  0  0  0  0  0  0  0  0  0  0  0
   56.0393   29.6681   52.1089 H   0  0  0  0  0  0  0  0  0  0  0  0
   54.2910   30.8140   51.6290 C   0  0  0  0  0  0  0  0  0  0  0  0
   53.4515   30.9394   52.3286 H   0  0  0  0  0  0  0  0  0  0  0  0
   54.3774   31.7092   50.9956 H   0  0  0  0  0  0  0  0  0  0  0  0
   54.1120   29.9326   50.9956 H   0  0  0  0  0  0  0  0  0  0  0  0
   58.8980   34.5470   51.4500 N   0  0  0  0  0  0  0  0  0  0  0  0
   58.6100   34.7590   52.4280 H   0  0  0  0  0  0  0  0  0  0  0  0
   58.9040   35.3440   50.7760 H   0  0  0  0  0  0  0  0  0  0  0  0
   58.5090   34.0020   47.8650 N   0  0  0  0  0  0  0  0  0  0  0  0
   57.5510   33.9300   47.4560 H   0  0  0  0  0  0  0  0  0  0  0  0
   59.4250   34.9640   47.2510 C   0  0  0  0  0  0  0  0  0  0  0  0
   59.0298   35.9798   47.3990 H   0  0  0  0  0  0  0  0  0  0  0  0
   60.4110   34.8568   47.7267 H   0  0  0  0  0  0  0  0  0  0  0  0
   59.5820   34.7030   45.7470 C   0  0  0  0  0  0  0  0  0  0  0  0
   59.8569   35.6479   45.2555 H   0  0  0  0  0  0  0  0  0  0  0  0
   60.3589   33.9332   45.6294 H   0  0  0  0  0  0  0  0  0  0  0  0
   57.8930   31.2000   51.5670 C   0  0  0  0  0  0  0  0  0  0  0  0
   58.1525   30.2714   52.0965 H   0  0  0  0  0  0  0  0  0  0  0  0
   57.7675   30.9992   50.4928 H   0  0  0  0  0  0  0  0  0  0  0  0
   58.9690   32.1740   51.7460 N   0  0  0  0  0  0  0  0  0  0  0  0
   57.4860   31.8580   44.9000 C   0  0  0  0  0  0  0  0  0  0  0  0
   57.0580   30.7040   45.4930 N   0  0  0  0  0  0  0  0  0  0  0  0
   56.5830   29.6590   44.7660 C   0  0  0  0  0  0  0  0  0  0  0  0
   56.2478   28.7430   45.2745 H   0  0  0  0  0  0  0  0  0  0  0  0
   56.5200   29.7470   43.3720 C   0  0  0  0  0  0  0  0  0  0  0  0
   56.1326   28.9057   42.7786 H   0  0  0  0  0  0  0  0  0  0  0  0
   56.9540   30.9140   42.7420 C   0  0  0  0  0  0  0  0  0  0  0  0
   56.9123   30.9966   41.6459 H   0  0  0  0  0  0  0  0  0  0  0  0
   57.4410   31.9760   43.5050 C   0  0  0  0  0  0  0  0  0  0  0  0
   57.7867   32.8982   43.0150 H   0  0  0  0  0  0  0  0  0  0  0  0
   62.4180   33.1710   46.8150 C   0  0  0  0  0  0  0  0  0  0  0  0
   62.0162   33.6900   45.9323 H   0  0  0  0  0  0  0  0  0  0  0  0
  1  2  1  0
  2  3  1  0
  3  4  2  0
  4  5  1  0
  4  6  1  0
  6  7  1  0
  7  8  1  0
  7  9  1  0
  7 10  1  0
 10 11  1  0
 10 12  1  0
 10 13  1  0
 13 14  1  0
 13 15  1  0
 13 16  1  0
 16 17  1  0
 16 18  1  0
 18 19  2  0
 19 20  1  0
 20 21  2  0
 21 22  1  0
 22 23  1  0
 22 24  1  0
 22 25  1  0
 25 26  1  0
 25 27  1  0
 25 28  1  0
 28 29  1  0
 28 30  1  0
 28 31  1  0
 31 32  1  0
 31 33  1  0
 31 34  1  0
 20 35  1  0
 35 36  1  0
 35 37  1  0
 18 38  1  0
 38 39  1  0
 38 40  1  0
 40 41  1  0
 40 42  1  0
 40 43  1  0
 43 44  1  0
 43 45  1  0
 43 46  1  0
 46 47  1  0
 46 48  1  0
 46 49  1  0
 49 50  2  0
 50 51  1  0
 51 52  1  0
 52 53  1  0
 52 54  2  0
 54 55  1  0
 54 56  1  0
 56 57  1  0
 56 58  2  0
 58 59  1  0
  6 60  1  0
 60 61  1  0
 60  2  2  0
 58 50  1  0
M  CHG  1  51  -1
M  END
>  <UniqueID>  (40) 
36

>  <SMILES>  (40) 
CCCC/N=C(\N)N=C(NCCC/N=c1/cccc[n-]1)NCCCn1ccnc1

>  <Energy>  (40) 
78.37200692749897

>  <Genealogy>  (40) 
CCCCN=C(N)N=C(NCCCN=c1cccc[n-]1)NCCCn1ccnc1 (protonated)
CCCC/N=C(\N)N=C(NCCC/N=c1/cccc[n-]1)NCCCn1ccnc1 (cis-trans isomerization)
CCCC/N=C(\N)N=C(NCCC/N=c1/cccc[n-]1)NCCCn1ccnc1 (3D coordinates assigned)
CCCC/N=C(\N)N=C(NCCC/N=c1/cccc[n-]1)NCCCn1ccnc1 (optimized conformer: 78.37200692749897 kcal/mol)

>  <smiles>  (40) 
CCCCN=C(N)N=C(NCCCN=c1cccc[nH]1)NCCCn1ccnc1

>  <score_type>  (40) 
oracle

>  <origin>  (40) 
adg

>  <m_score__min__energy>  (40) 
-8.3300000000000001

>  <m_primary>  (40) 
energy

$$$$
40:0
     RDKit          3D

 38 40  0  0  0  0  0  0  0  0999 V2000
   58.7700   28.3800   44.4800 C   0  0  0  0  0  0  0  0  0  0  0  0
   57.3630   28.2770   44.6650 O   0  0  0  0  0  0  0  0  0  0  0  0
   56.4880   29.3280   44.3750 C   0  0  0  0  0  0  0  0  0  0  0  0
   55.3520   29.3900   44.9230 O   0  0  0  0  0  0  0  0  0  0  0  0
   56.9250   30.4140   43.4470 C   0  0  0  0  0  0  0  0  0  0  0  0
   57.5020   31.5580   44.2310 C   0  0  0  0  0  0  0  0  0  0  0  0
   57.8420   32.7690   43.5770 C   0  0  0  0  0  0  0  0  0  0  0  0
   58.4180   33.8340   44.2910 C   0  0  0  0  0  0  0  0  0  0  0  0
   58.6470   33.6600   45.6530 C   0  0  0  0  0  0  0  0  0  0  0  0
   58.3300   32.4820   46.2940 C   0  0  0  0  0  0  0  0  0  0  0  0
   57.7630   31.4100   45.6110 C   0  0  0  0  0  0  0  0  0  0  0  0
   58.7250   32.6200   47.6910 C   0  0  0  0  0  0  0  0  0  0  0  0
   58.6230   31.7270   48.5720 O   0  0  0  0  0  0  0  0  0  0  0  0
   59.2730   33.9210   47.9230 N   0  0  0  0  0  0  0  0  0  0  0  0
   60.0870   34.3240   49.0660 C   0  0  0  0  0  0  0  0  0  0  0  0
   61.5090   33.8720   48.8750 C   0  0  0  0  0  0  0  0  0  0  0  0
   62.4000   33.8530   49.9620 C   0  0  0  0  0  0  0  0  0  0  0  0
   63.7320   33.4720   49.7750 C   0  0  0  0  0  0  0  0  0  0  0  0
   64.1860   33.1140   48.5020 C   0  0  0  0  0  0  0  0  0  0  0  0
   63.3090   33.1410   47.4140 C   0  0  0  0  0  0  0  0  0  0  0  0
   61.9770   33.5200   47.5970 C   0  0  0  0  0  0  0  0  0  0  0  0
   59.2440   34.5540   46.6400 C   0  0  0  0  0  0  0  0  0  0  0  0
   59.6920   35.7070   46.4080 O   0  0  0  0  0  0  0  0  0  0  0  0
   59.2671   28.4164   45.4606 H   0  0  0  0  0  0  0  0  0  0  0  0
   59.1309   27.5059   43.9182 H   0  0  0  0  0  0  0  0  0  0  0  0
   58.9998   29.2974   43.9182 H   0  0  0  0  0  0  0  0  0  0  0  0
   57.6891   30.0209   42.7603 H   0  0  0  0  0  0  0  0  0  0  0  0
   56.0565   30.7706   42.8738 H   0  0  0  0  0  0  0  0  0  0  0  0
   57.6529   32.8764   42.4987 H   0  0  0  0  0  0  0  0  0  0  0  0
   58.6800   34.7768   43.7885 H   0  0  0  0  0  0  0  0  0  0  0  0
   57.5243   30.4715   46.1327 H   0  0  0  0  0  0  0  0  0  0  0  0
   60.0634   35.4197   49.1608 H   0  0  0  0  0  0  0  0  0  0  0  0
   59.6817   33.8599   49.9772 H   0  0  0  0  0  0  0  0  0  0  0  0
   62.0477   34.1391   50.9640 H   0  0  0  0  0  0  0  0  0  0  0  0
   64.4236   33.4539   50.6302 H   0  0  0  0  0  0  0  0  0  0  0  0
   65.2334   32.8111   48.3567 H   0  0  0  0  0  0  0  0  0  0  0  0
   63.6682   32.8634   46.4121 H   0  0  0  0  0  0  0  0  0  0  0  0
   61.2912   33.5431   46.7372 H   0  0  0  0  0  0  0  0  0  0  0  0
  1  2  1  0
  2  3  1  0
  3  4  2  0
  3  5  1  0
  5  6  1  0
  6  7  2  0
  7  8  1  0
  8  9  2  0
  9 10  1  0
 10 11  2  0
 10 12  1  0
 12 13  2  0
 12 14  1  0
 14 15  1  0
 15 16  1  0
 16 17  2  0
 17 18  1  0
 18 19  2  0
 19 20  1  0
 20 21  2  0
 14 22  1  0
 22 23  2  0
 11  6  1  0
 21 16  1  0
 22  9  1  0
  1 24  1  0
  1 25  1  0
  1 26  1  0
  5 27  1  0
  5 28  1  0
  7 29  1  0
  8 30  1  0
 11 31  1  0
 15 32  1  0
 15 33  1  0
 17 34  1  0
 18 35  1  0
 19 36  1  0
 20 37  1  0
 21 38  1  0
M  END
>  <UniqueID>  (41) 
37

>  <SMILES>  (41) 
COC(=O)Cc1ccc2c(c1)C(=O)N(Cc1ccccc1)C2=O

>  <Energy>  (41) 
66.00905919712837

>  <Genealogy>  (41) 
COC(=O)Cc1ccc2c(c1)C(=O)N(Cc1ccccc1)C2=O (3D coordinates assigned)
COC(=O)Cc1ccc2c(c1)C(=O)N(Cc1ccccc1)C2=O (nonaromatic ring conformer: 66.00905919712837 kcal/mol)

>  <smiles>  (41) 
COC(=O)Cc1ccc2c(c1)C(=O)N(Cc1ccccc1)C2=O

>  <score_type>  (41) 
oracle

>  <origin>  (41) 
adg

>  <m_score__min__energy>  (41) 
-8.4499999999999993

>  <m_primary>  (41) 
energy

$$$$
41:0
     RDKit          3D

 50 52  0  0  0  0  0  0  0  0999 V2000
   63.8420   33.4690   47.6500 C   0  0  0  0  0  0  0  0  0  0  0  0
   63.8180   32.2770   48.4290 O   0  0  0  0  0  0  0  0  0  0  0  0
   62.6640   31.5240   48.6920 C   0  0  0  0  0  0  0  0  0  0  0  0
   62.5300   30.9350   49.9520 C   0  0  0  0  0  0  0  0  0  0  0  0
   61.4020   30.1740   50.2630 C   0  0  0  0  0  0  0  0  0  0  0  0
   60.3940   29.9940   49.3140 C   0  0  0  0  0  0  0  0  0  0  0  0
   60.5030   30.5750   48.0380 C   0  0  0  0  0  0  0  0  0  0  0  0
   59.4310   30.3840   47.0280 C   0  0  0  0  0  0  0  0  0  0  0  0
   58.8150   31.4570   46.4700 N   0  0  0  0  0  0  0  0  0  0  0  0
   57.8300   31.3130   45.5490 C   0  0  0  0  0  0  0  0  0  0  0  0
   57.0630   32.7930   44.8770 S   0  0  0  0  0  0  0  0  0  0  0  0
   58.5510   33.8230   45.1340 C   0  0  0  0  0  0  0  0  0  0  0  0
   58.4910   34.5730   46.4820 C   0  0  0  0  0  0  0  0  0  0  0  0
   59.7930   34.7230   47.1740 N   0  0  0  0  0  0  0  0  0  0  0  0
   59.7860   34.2060   48.5490 C   0  0  0  0  0  0  0  0  0  0  0  0
   60.9230   34.1790   46.4030 C   0  0  0  0  0  0  0  0  0  0  0  0
   57.4250   30.0270   45.1530 C   0  0  0  0  0  0  0  0  0  0  0  0
   56.3220   29.8600   44.2330 C   0  0  0  0  0  0  0  0  0  0  0  0
   55.4400   29.7280   43.4960 N   0  0  0  0  0  0  0  0  0  0  0  0
   58.0860   28.9180   45.7240 C   0  0  0  0  0  0  0  0  0  0  0  0
   57.7550   27.5180   45.3730 C   0  0  0  0  0  0  0  0  0  0  0  0
   58.0800   27.0240   44.0970 C   0  0  0  0  0  0  0  0  0  0  0  0
   57.7490   25.7130   43.7430 C   0  0  0  0  0  0  0  0  0  0  0  0
   57.0800   24.8880   44.6510 C   0  0  0  0  0  0  0  0  0  0  0  0
   56.7330   25.3760   45.9130 C   0  0  0  0  0  0  0  0  0  0  0  0
   57.0620   26.6880   46.2720 C   0  0  0  0  0  0  0  0  0  0  0  0
   59.0590   29.1320   46.6510 N   0  0  0  0  0  0  0  0  0  0  0  0
   61.6460   31.3420   47.7350 C   0  0  0  0  0  0  0  0  0  0  0  0
   63.8596   34.3430   48.3176 H   0  0  0  0  0  0  0  0  0  0  0  0
   64.7404   33.4742   47.0153 H   0  0  0  0  0  0  0  0  0  0  0  0
   62.9445   33.5104   47.0153 H   0  0  0  0  0  0  0  0  0  0  0  0
   63.3200   31.0722   50.7050 H   0  0  0  0  0  0  0  0  0  0  0  0
   61.3070   29.7150   51.2581 H   0  0  0  0  0  0  0  0  0  0  0  0
   59.5078   29.3932   49.5663 H   0  0  0  0  0  0  0  0  0  0  0  0
   59.4404   33.1758   45.1238 H   0  0  0  0  0  0  0  0  0  0  0  0
   58.6006   34.5674   44.3256 H   0  0  0  0  0  0  0  0  0  0  0  0
   58.0860   35.5785   46.2953 H   0  0  0  0  0  0  0  0  0  0  0  0
   57.8590   33.9637   47.1449 H   0  0  0  0  0  0  0  0  0  0  0  0
   59.7974   35.0476   49.2572 H   0  0  0  0  0  0  0  0  0  0  0  0
   58.8796   33.6038   48.7097 H   0  0  0  0  0  0  0  0  0  0  0  0
   60.6757   33.5795   48.7097 H   0  0  0  0  0  0  0  0  0  0  0  0
   61.6938   33.8079   47.0945 H   0  0  0  0  0  0  0  0  0  0  0  0
   60.5702   33.3521   45.7692 H   0  0  0  0  0  0  0  0  0  0  0  0
   61.3493   34.9706   45.7692 H   0  0  0  0  0  0  0  0  0  0  0  0
   58.5971   27.6723   43.3743 H   0  0  0  0  0  0  0  0  0  0  0  0
   58.0158   25.3297   42.7471 H   0  0  0  0  0  0  0  0  0  0  0  0
   56.8267   23.8546   44.3720 H   0  0  0  0  0  0  0  0  0  0  0  0
   56.2007   24.7285   46.6253 H   0  0  0  0  0  0  0  0  0  0  0  0
   56.7770   27.0720   47.2626 H   0  0  0  0  0  0  0  0  0  0  0  0
   61.7443   31.8032   46.7412 H   0  0  0  0  0  0  0  0  0  0  0  0
  1  2  1  0
  2  3  1  0
  3  4  2  0
  4  5  1  0
  5  6  2  0
  6  7  1  0
  7  8  1  0
  8  9  2  0
  9 10  1  0
 10 11  1  0
 11 12  1  0
 12 13  1  0
 13 14  1  0
 14 15  1  0
 14 16  1  0
 10 17  2  0
 17 18  1  0
 18 19  3  0
 17 20  1  0
 20 21  1  0
 21 22  2  0
 22 23  1  0
 23 24  2  0
 24 25  1  0
 25 26  2  0
 20 27  2  0
  7 28  2  0
 28  3  1  0
 27  8  1  0
 26 21  1  0
  1 29  1  0
  1 30  1  0
  1 31  1  0
  4 32  1  0
  5 33  1  0
  6 34  1  0
 12 35  1  0
 12 36  1  0
 13 37  1  0
 13 38  1  0
 15 39  1  0
 15 40  1  0
 15 41  1  0
 16 42  1  0
 16 43  1  0
 16 44  1  0
 22 45  1  0
 23 46  1  0
 24 47  1  0
 25 48  1  0
 26 49  1  0
 28 50  1  0
M  END
>  <UniqueID>  (42) 
38

>  <SMILES>  (42) 
COc1cccc(-c2nc(SCCN(C)C)c(C#N)c(-c3ccccc3)n2)c1

>  <Energy>  (42) 
59.8181493912139

>  <Genealogy>  (42) 
COc1cccc(-c2nc(SCCN(C)C)c(C#N)c(-c3ccccc3)n2)c1 (3D coordinates assigned)
COc1cccc(-c2nc(SCCN(C)C)c(C#N)c(-c3ccccc3)n2)c1 (optimized conformer: 59.8181493912139 kcal/mol)

>  <smiles>  (42) 
COc1cccc(-c2nc(SCCN(C)C)c(C#N)c(-c3ccccc3)n2)c1

>  <score_type>  (42) 
oracle

>  <origin>  (42) 
adg

>  <m_score__min__energy>  (42) 
-8.3800000000000008

>  <m_primary>  (42) 
energy

$$$$
42:0
     RDKit          3D

 66 69  0  0  0  0  0  0  0  0999 V2000
   61.9020   30.4460   50.1730 C   0  0  0  0  0  0  0  0  0  0  0  0
   61.1410   30.5120   48.9720 O   0  0  0  0  0  0  0  0  0  0  0  0
   60.7550   29.3940   48.2180 C   0  0  0  0  0  0  0  0  0  0  0  0
   60.3430   28.2430   48.8980 C   0  0  0  0  0  0  0  0  0  0  0  0
   59.9340   27.1080   48.1930 C   0  0  0  0  0  0  0  0  0  0  0  0
   59.9290   27.1090   46.7880 C   0  0  0  0  0  0  0  0  0  0  0  0
   59.4930   25.8830   46.0180 C   0  0  0  0  0  0  0  0  0  0  0  0
   58.0720   25.9050   45.6070 N   0  0  0  0  0  0  0  0  0  0  0  0
   57.2180   26.8940   46.3010 C   0  0  0  0  0  0  0  0  0  0  0  0
   56.7060   28.0050   45.3720 C   0  0  0  0  0  0  0  0  0  0  0  0
   57.6980   28.2890   44.3210 N   0  0  0  0  0  0  0  0  0  0  0  0
   57.3170   29.5170   43.5870 C   0  0  0  0  0  0  0  0  0  0  0  0
   56.1120   30.2230   44.2310 C   0  0  0  0  0  0  0  0  0  0  0  0
   56.3790   31.6010   44.4860 O   0  0  0  0  0  0  0  0  0  0  0  0
   57.4450   32.0970   45.2550 C   0  0  0  0  0  0  0  0  0  0  0  0
   57.9920   31.3900   46.3420 C   0  0  0  0  0  0  0  0  0  0  0  0
   59.0480   31.9360   47.0780 C   0  0  0  0  0  0  0  0  0  0  0  0
   59.5750   33.1970   46.7470 C   0  0  0  0  0  0  0  0  0  0  0  0
   60.7180   33.8030   47.5410 C   0  0  0  0  0  0  0  0  0  0  0  0
   60.6230   33.4440   49.0360 C   0  0  0  0  0  0  0  0  0  0  0  0
   61.6900   34.1880   49.8650 C   0  0  0  0  0  0  0  0  0  0  0  0
   62.9790   34.4960   49.0760 C   0  0  0  0  0  0  0  0  0  0  0  0
   63.2400   33.4530   47.9820 C   0  0  0  0  0  0  0  0  0  0  0  0
   62.0950   33.4010   46.9500 C   0  0  0  0  0  0  0  0  0  0  0  0
   59.0340   33.8920   45.6520 C   0  0  0  0  0  0  0  0  0  0  0  0
   57.9800   33.3430   44.9140 C   0  0  0  0  0  0  0  0  0  0  0  0
   57.8090   27.1250   43.4120 C   0  0  0  0  0  0  0  0  0  0  0  0
   57.8200   25.7720   44.1600 C   0  0  0  0  0  0  0  0  0  0  0  0
   60.3610   28.2570   46.1050 C   0  0  0  0  0  0  0  0  0  0  0  0
   60.7630   29.3940   46.8110 C   0  0  0  0  0  0  0  0  0  0  0  0
   61.2262   30.5046   51.0390 H   0  0  0  0  0  0  0  0  0  0  0  0
   62.4564   29.4964   50.2041 H   0  0  0  0  0  0  0  0  0  0  0  0
   62.6116   31.2860   50.2041 H   0  0  0  0  0  0  0  0  0  0  0  0
   60.3410   28.2313   49.9979 H   0  0  0  0  0  0  0  0  0  0  0  0
   59.6143   26.2092   48.7407 H   0  0  0  0  0  0  0  0  0  0  0  0
   60.1137   25.8038   45.1133 H   0  0  0  0  0  0  0  0  0  0  0  0
   59.6162   25.0228   46.6925 H   0  0  0  0  0  0  0  0  0  0  0  0
   56.3516   26.3689   46.7295 H   0  0  0  0  0  0  0  0  0  0  0  0
   57.8341   27.3727   47.0764 H   0  0  0  0  0  0  0  0  0  0  0  0
   55.7642   27.6819   44.9045 H   0  0  0  0  0  0  0  0  0  0  0  0
   56.5392   28.9176   45.9631 H   0  0  0  0  0  0  0  0  0  0  0  0
   58.1728   30.2081   43.5827 H   0  0  0  0  0  0  0  0  0  0  0  0
   57.0342   29.2274   42.5642 H   0  0  0  0  0  0  0  0  0  0  0  0
   55.2502   30.1472   43.5517 H   0  0  0  0  0  0  0  0  0  0  0  0
   55.9021   29.7319   45.1927 H   0  0  0  0  0  0  0  0  0  0  0  0
   57.5872   30.4039   46.6137 H   0  0  0  0  0  0  0  0  0  0  0  0
   59.4705   31.3739   47.9239 H   0  0  0  0  0  0  0  0  0  0  0  0
   60.6286   34.8963   47.4594 H   0  0  0  0  0  0  0  0  0  0  0  0
   59.6251   33.7204   49.4073 H   0  0  0  0  0  0  0  0  0  0  0  0
   60.7950   32.3628   49.1429 H   0  0  0  0  0  0  0  0  0  0  0  0
   61.2597   35.1385   50.2133 H   0  0  0  0  0  0  0  0  0  0  0  0
   61.9711   33.5267   50.6979 H   0  0  0  0  0  0  0  0  0  0  0  0
   62.8817   35.4866   48.6077 H   0  0  0  0  0  0  0  0  0  0  0  0
   63.8244   34.4726   49.7794 H   0  0  0  0  0  0  0  0  0  0  0  0
   64.1752   33.7092   47.4626 H   0  0  0  0  0  0  0  0  0  0  0  0
   63.3100   32.4660   48.4626 H   0  0  0  0  0  0  0  0  0  0  0  0
   62.3358   34.0891   46.1263 H   0  0  0  0  0  0  0  0  0  0  0  0
   62.0113   32.3588   46.6082 H   0  0  0  0  0  0  0  0  0  0  0  0
   59.4422   34.8747   45.3732 H   0  0  0  0  0  0  0  0  0  0  0  0
   57.5682   33.8968   44.0574 H   0  0  0  0  0  0  0  0  0  0  0  0
   56.9527   27.1367   42.7216 H   0  0  0  0  0  0  0  0  0  0  0  0
   58.7675   27.2140   42.8797 H   0  0  0  0  0  0  0  0  0  0  0  0
   56.8424   25.2878   44.0193 H   0  0  0  0  0  0  0  0  0  0  0  0
   58.6435   25.1755   43.7404 H   0  0  0  0  0  0  0  0  0  0  0  0
   60.3832   28.2615   45.0052 H   0  0  0  0  0  0  0  0  0  0  0  0
   61.0869   30.2922   46.2648 H   0  0  0  0  0  0  0  0  0  0  0  0
  1  2  1  0
  2  3  1  0
  3  4  2  0
  4  5  1  0
  5  6  2  0
  6  7  1  0
  7  8  1  0
  8  9  1  0
  9 10  1  0
 10 11  1  0
 11 12  1  0
 12 13  1  0
 13 14  1  0
 14 15  1  0
 15 16  2  0
 16 17  1  0
 17 18  2  0
 18 19  1  0
 19 20  1  0
 20 21  1  0
 21 22  1  0
 22 23  1  0
 23 24  1  0
 18 25  1  0
 25 26  2  0
 11 27  1  0
 27 28  1  0
  6 29  1  0
 29 30  2  0
 30  3  1  0
 28  8  1  0
 26 15  1  0
 24 19  1  0
  1 31  1  0
  1 32  1  0
  1 33  1  0
  4 34  1  0
  5 35  1  0
  7 36  1  0
  7 37  1  0
  9 38  1  0
  9 39  1  0
 10 40  1  0
 10 41  1  0
 12 42  1  0
 12 43  1  0
 13 44  1  0
 13 45  1  0
 16 46  1  0
 17 47  1  0
 19 48  1  0
 20 49  1  0
 20 50  1  0
 21 51  1  0
 21 52  1  0
 22 53  1  0
 22 54  1  0
 23 55  1  0
 23 56  1  0
 24 57  1  0
 24 58  1  0
 25 59  1  0
 26 60  1  0
 27 61  1  0
 27 62  1  0
 28 63  1  0
 28 64  1  0
 29 65  1  0
 30 66  1  0
M  END
>  <UniqueID>  (43) 
39

>  <SMILES>  (43) 
COc1ccc(CN2CCN(CCOc3ccc(C4CCCCC4)cc3)CC2)cc1

>  <Energy>  (43) 
82.14598271128858

>  <Genealogy>  (43) 
COc1ccc(CN2CCN(CCOc3ccc(C4CCCCC4)cc3)CC2)cc1 (3D coordinates assigned)
COc1ccc(CN2CCN(CCOc3ccc(C4CCCCC4)cc3)CC2)cc1 (nonaromatic ring conformer: 82.14598271128858 kcal/mol)

>  <smiles>  (43) 
COc1ccc(CN2CCN(CCOc3ccc(C4CCCCC4)cc3)CC2)cc1

>  <score_type>  (43) 
oracle

>  <origin>  (43) 
adg

>  <m_score__min__energy>  (43) 
-8.7899999999999991

>  <m_primary>  (43) 
energy

$$$$
43:0
     RDKit          3D

 36 37  0  0  0  0  0  0  0  0999 V2000
   56.6210   26.2930   46.0350 C   0  0  0  0  0  0  0  0  0  0  0  0
   57.3970   27.5930   45.8030 C   0  0  0  0  0  0  0  0  0  0  0  0
   57.3890   28.0170   44.3820 N   0  0  0  0  0  0  0  0  0  0  0  0
   58.7560   28.0530   43.8090 C   0  0  0  0  0  0  0  0  0  0  0  0
   59.8760   28.2250   44.8470 C   0  0  0  0  0  0  0  0  0  0  0  0
   56.5490   29.5440   44.1480 S   0  0  0  0  0  0  0  0  0  0  0  0
   56.3660   29.8140   42.6780 O   0  0  0  0  0  0  0  0  0  0  0  0
   55.1920   29.5050   44.7970 O   0  0  0  0  0  0  0  0  0  0  0  0
   57.4590   30.8590   44.8880 C   0  0  0  0  0  0  0  0  0  0  0  0
   58.1470   30.6330   46.1070 C   0  0  0  0  0  0  0  0  0  0  0  0
   58.8860   31.6620   46.7180 C   0  0  0  0  0  0  0  0  0  0  0  0
   58.9070   32.9040   46.0830 C   0  0  0  0  0  0  0  0  0  0  0  0
   58.2460   33.1260   44.9070 C   0  0  0  0  0  0  0  0  0  0  0  0
   57.5040   32.1320   44.2770 C   0  0  0  0  0  0  0  0  0  0  0  0
   58.4490   34.3650   44.5240 O   0  0  0  0  0  0  0  0  0  0  0  0
   59.2260   34.9010   45.4490 C   0  0  0  0  0  0  0  0  0  0  0  0
   59.6430   36.0880   45.3980 O   0  0  0  0  0  0  0  0  0  0  0  0
   59.5320   34.0370   46.4500 N   0  0  0  0  0  0  0  0  0  0  0  0
   60.4170   34.2520   47.5910 C   0  0  0  0  0  0  0  0  0  0  0  0
   56.5157   26.1167   47.1157 H   0  0  0  0  0  0  0  0  0  0  0  0
   55.6238   26.3747   45.5780 H   0  0  0  0  0  0  0  0  0  0  0  0
   57.1662   25.4540   45.5780 H   0  0  0  0  0  0  0  0  0  0  0  0
   56.9409   28.3886   46.4105 H   0  0  0  0  0  0  0  0  0  0  0  0
   58.4432   27.4119   46.0904 H   0  0  0  0  0  0  0  0  0  0  0  0
   56.8680   27.2960   43.8320 H   0  0  0  0  0  0  0  0  0  0  0  0
   58.9281   27.1094   43.2706 H   0  0  0  0  0  0  0  0  0  0  0  0
   58.7980   28.9352   43.1533 H   0  0  0  0  0  0  0  0  0  0  0  0
   59.4508   28.1597   45.8594 H   0  0  0  0  0  0  0  0  0  0  0  0
   60.6258   27.4315   44.7123 H   0  0  0  0  0  0  0  0  0  0  0  0
   60.3531   29.2069   44.7123 H   0  0  0  0  0  0  0  0  0  0  0  0
   58.1023   29.6411   46.5805 H   0  0  0  0  0  0  0  0  0  0  0  0
   59.4270   31.4938   47.6609 H   0  0  0  0  0  0  0  0  0  0  0  0
   56.9707   32.3304   43.3356 H   0  0  0  0  0  0  0  0  0  0  0  0
   59.8516   34.1147   48.5245 H   0  0  0  0  0  0  0  0  0  0  0  0
   61.2451   33.5289   47.5541 H   0  0  0  0  0  0  0  0  0  0  0  0
   60.8211   35.2744   47.5541 H   0  0  0  0  0  0  0  0  0  0  0  0
  1  2  1  0
  2  3  1  0
  3  4  1  0
  4  5  1  0
  3  6  1  0
  6  7  2  0
  6  8  2  0
  6  9  1  0
  9 10  2  0
 10 11  1  0
 11 12  2  0
 12 13  1  0
 13 14  2  0
 13 15  1  0
 15 16  1  0
 16 17  2  0
 16 18  1  0
 18 19  1  0
 14  9  1  0
 18 12  1  0
  1 20  1  0
  1 21  1  0
  1 22  1  0
  2 23  1  0
  2 24  1  0
  3 25  1  0
  4 26  1  0
  4 27  1  0
  5 28  1  0
  5 29  1  0
  5 30  1  0
 10 31  1  0
 11 32  1  0
 14 33  1  0
 19 34  1  0
 19 35  1  0
 19 36  1  0
M  CHG  1   3   1
M  END
>  <UniqueID>  (44) 
40

>  <SMILES>  (44) 
CC[NH+](CC)S(=O)(=O)c1ccc2c(c1)oc(=O)n2C

>  <Energy>  (44) 
76.49335836121814

>  <Genealogy>  (44) 
CC[NH+](CC)S(=O)(=O)c1ccc2c(c1)oc(=O)n2C (protonated)
CC[NH+](CC)S(=O)(=O)c1ccc2c(c1)oc(=O)n2C (3D coordinates assigned)
CC[NH+](CC)S(=O)(=O)c1ccc2c(c1)oc(=O)n2C (optimized conformer: 76.49335836121814 kcal/mol)

>  <smiles>  (44) 
CCN(CC)S(=O)(=O)c1ccc2c(c1)oc(=O)n2C

>  <score_type>  (44) 
oracle

>  <origin>  (44) 
adg

>  <m_score__min__energy>  (44) 
-5.6299999999999999

>  <m_primary>  (44) 
energy

$$$$
44:0
     RDKit          3D

 55 56  0  0  0  0  0  0  0  0999 V2000
   60.4630   27.8630   48.8450 C   0  0  0  0  0  0  0  0  0  0  0  0
   59.5210   27.1030   47.9190 C   0  0  0  0  0  0  0  0  0  0  0  0
   59.4460   27.7860   46.6060 N   0  0  0  0  0  0  0  0  0  0  0  0
   60.7210   27.7250   45.8490 C   0  0  0  0  0  0  0  0  0  0  0  0
   60.7650   28.6430   44.6160 C   0  0  0  0  0  0  0  0  0  0  0  0
   58.2630   27.4070   45.7990 C   0  0  0  0  0  0  0  0  0  0  0  0
   57.2690   28.5730   45.7030 C   0  0  0  0  0  0  0  0  0  0  0  0
   57.9300   29.8660   45.8610 N   0  0  0  0  0  0  0  0  0  0  0  0
   57.4320   31.0700   45.2560 C   0  0  0  0  0  0  0  0  0  0  0  0
   56.4360   31.0240   44.4840 O   0  0  0  0  0  0  0  0  0  0  0  0
   58.0470   32.3730   45.5740 C   0  0  0  0  0  0  0  0  0  0  0  0
   58.2440   33.3300   44.5600 C   0  0  0  0  0  0  0  0  0  0  0  0
   57.8250   33.0930   43.2910 F   0  0  0  0  0  0  0  0  0  0  0  0
   58.8440   34.5560   44.8560 C   0  0  0  0  0  0  0  0  0  0  0  0
   59.2530   34.8400   46.1590 C   0  0  0  0  0  0  0  0  0  0  0  0
   59.0630   33.9010   47.1740 C   0  0  0  0  0  0  0  0  0  0  0  0
   58.4620   32.6570   46.8940 C   0  0  0  0  0  0  0  0  0  0  0  0
   58.2790   31.6780   47.8870 O   0  0  0  0  0  0  0  0  0  0  0  0
   59.3240   31.0490   48.6280 C   0  0  0  0  0  0  0  0  0  0  0  0
   60.6340   31.1420   47.8890 C   0  0  0  0  0  0  0  0  0  0  0  0
   60.8950   30.2700   47.0160 O   0  0  0  0  0  0  0  0  0  0  0  0
   61.6040   32.1700   48.1860 N   0  0  0  0  0  0  0  0  0  0  0  0
   62.5230   32.6100   47.1290 C   0  0  0  0  0  0  0  0  0  0  0  0
   63.7990   33.1950   47.7410 C   0  0  0  0  0  0  0  0  0  0  0  0
   63.4870   34.1790   48.7080 O   0  0  0  0  0  0  0  0  0  0  0  0
   62.8280   33.5710   49.8010 C   0  0  0  0  0  0  0  0  0  0  0  0
   61.4650   33.0150   49.3790 C   0  0  0  0  0  0  0  0  0  0  0  0
   60.1992   27.6502   49.8915 H   0  0  0  0  0  0  0  0  0  0  0  0
   61.4988   27.5447   48.6560 H   0  0  0  0  0  0  0  0  0  0  0  0
   60.3709   28.9427   48.6560 H   0  0  0  0  0  0  0  0  0  0  0  0
   59.8967   26.0790   47.7767 H   0  0  0  0  0  0  0  0  0  0  0  0
   58.5177   27.0713   48.3690 H   0  0  0  0  0  0  0  0  0  0  0  0
   61.5383   28.0159   46.5253 H   0  0  0  0  0  0  0  0  0  0  0  0
   60.8210   26.6937   45.4797 H   0  0  0  0  0  0  0  0  0  0  0  0
   60.8153   29.6924   44.9418 H   0  0  0  0  0  0  0  0  0  0  0  0
   61.6527   28.4036   44.0121 H   0  0  0  0  0  0  0  0  0  0  0  0
   59.8585   28.4896   44.0121 H   0  0  0  0  0  0  0  0  0  0  0  0
   58.5916   27.1296   44.7865 H   0  0  0  0  0  0  0  0  0  0  0  0
   57.7623   26.5576   46.2867 H   0  0  0  0  0  0  0  0  0  0  0  0
   56.7785   28.5422   44.7189 H   0  0  0  0  0  0  0  0  0  0  0  0
   56.5352   28.4635   46.5152 H   0  0  0  0  0  0  0  0  0  0  0  0
   58.7910   29.9090   46.4520 H   0  0  0  0  0  0  0  0  0  0  0  0
   58.9944   35.2996   44.0595 H   0  0  0  0  0  0  0  0  0  0  0  0
   59.7264   35.8063   46.3871 H   0  0  0  0  0  0  0  0  0  0  0  0
   59.3846   34.1334   48.2000 H   0  0  0  0  0  0  0  0  0  0  0  0
   59.4242   31.5466   49.6039 H   0  0  0  0  0  0  0  0  0  0  0  0
   59.0703   29.9874   48.7642 H   0  0  0  0  0  0  0  0  0  0  0  0
   62.7860   31.7497   46.4960 H   0  0  0  0  0  0  0  0  0  0  0  0
   62.0283   33.3856   46.5259 H   0  0  0  0  0  0  0  0  0  0  0  0
   64.3722   32.3876   48.2201 H   0  0  0  0  0  0  0  0  0  0  0  0
   64.3915   33.6625   46.9408 H   0  0  0  0  0  0  0  0  0  0  0  0
   63.4496   32.7480   50.1834 H   0  0  0  0  0  0  0  0  0  0  0  0
   62.6708   34.3297   50.5818 H   0  0  0  0  0  0  0  0  0  0  0  0
   61.0478   32.4153   50.2014 H   0  0  0  0  0  0  0  0  0  0  0  0
   60.7939   33.8547   49.1453 H   0  0  0  0  0  0  0  0  0  0  0  0
  1  2  1  0
  2  3  1  0
  3  4  1  0
  4  5  1  0
  3  6  1  0
  6  7  1  0
  7  8  1  0
  8  9  1  0
  9 10  2  0
  9 11  1  0
 11 12  2  0
 12 13  1  0
 12 14  1  0
 14 15  2  0
 15 16  1  0
 16 17  2  0
 17 18  1  0
 18 19  1  0
 19 20  1  0
 20 21  2  0
 20 22  1  0
 22 23  1  0
 23 24  1  0
 24 25  1  0
 25 26  1  0
 26 27  1  0
 17 11  1  0
 27 22  1  0
  1 28  1  0
  1 29  1  0
  1 30  1  0
  2 31  1  0
  2 32  1  0
  4 33  1  0
  4 34  1  0
  5 35  1  0
  5 36  1  0
  5 37  1  0
  6 38  1  0
  6 39  1  0
  7 40  1  0
  7 41  1  0
  8 42  1  0
 14 43  1  0
 15 44  1  0
 16 45  1  0
 19 46  1  0
 19 47  1  0
 23 48  1  0
 23 49  1  0
 24 50  1  0
 24 51  1  0
 26 52  1  0
 26 53  1  0
 27 54  1  0
 27 55  1  0
M  END
>  <UniqueID>  (45) 
41

>  <SMILES>  (45) 
CCN(CC)CCNC(=O)c1c(F)cccc1OCC(=O)N1CCOCC1

>  <Energy>  (45) 
57.90155991592947

>  <Genealogy>  (45) 
CCN(CC)CCNC(=O)c1c(F)cccc1OCC(=O)N1CCOCC1 (3D coordinates assigned)
CCN(CC)CCNC(=O)c1c(F)cccc1OCC(=O)N1CCOCC1 (nonaromatic ring conformer: 57.90155991592947 kcal/mol)

>  <smiles>  (45) 
CCN(CC)CCNC(=O)c1c(F)cccc1OCC(=O)N1CCOCC1

>  <score_type>  (45) 
oracle

>  <origin>  (45) 
adg

>  <m_score__min__energy>  (45) 
-6.1799999999999997

>  <m_primary>  (45) 
energy

$$$$
