0:0
     RDKit          3D

121128  0  0  0  0  0  0  0  0999 V2000
   60.3370   28.0230   55.0290 C   0  0  0  0  0  0  0  0  0  0  0  0
   59.3120   27.7120   53.9980 N   0  0  0  0  0  0  0  0  0  0  0  0
   59.7390   28.3990   52.7410 C   0  0  0  0  0  0  0  0  0  0  0  0
   59.2210   26.2400   53.6940 C   0  0  0  0  0  0  0  0  0  0  0  0
   60.5490   25.5090   53.3490 C   0  0  0  0  0  0  0  0  0  0  0  0
   60.8740   25.5280   51.8450 C   0  0  0  0  0  0  0  0  0  0  0  0
   62.2620   26.1330   51.5480 C   0  0  0  0  0  0  0  0  0  0  0  0
   63.4560   25.2610   51.9480 C   0  0  0  0  0  0  0  0  0  0  0  0
   64.8810   25.8920   51.8830 C   0  0  0  0  0  0  0  0  0  0  0  0
   65.2130   27.0120   52.8360 N   0  0  2  0  0  0  0  0  0  0  0  0
   64.6910   26.6460   54.1920 C   0  0  0  0  0  0  0  0  0  0  0  0
   64.5610   28.3140   52.4480 C   0  0  0  0  0  0  0  0  0  0  0  0
   65.2020   29.6160   53.0300 C   0  0  0  0  0  0  0  0  0  0  0  0
   65.3140   30.7460   51.9810 C   0  0  0  0  0  0  0  0  0  0  0  0
   64.2120   31.7340   52.0630 N   0  0  0  0  0  0  0  0  0  0  0  0
   62.9460   31.0370   51.9690 C   0  0  0  0  0  0  0  0  0  0  0  0
   62.3900   30.6080   53.0190 O   0  0  0  0  0  0  0  0  0  0  0  0
   62.3410   30.7460   50.6450 C   0  0  0  0  0  0  0  0  0  0  0  0
   61.3310   29.7770   50.5020 C   0  0  0  0  0  0  0  0  0  0  0  0
   60.7780   29.5160   49.2470 C   0  0  0  0  0  0  0  0  0  0  0  0
   61.2260   30.2130   48.1200 C   0  0  0  0  0  0  0  0  0  0  0  0
   62.2310   31.1810   48.2450 C   0  0  0  0  0  0  0  0  0  0  0  0
   62.6670   31.9070   47.1280 C   0  0  0  0  0  0  0  0  0  0  0  0
   63.6510   32.8920   47.2720 C   0  0  0  0  0  0  0  0  0  0  0  0
   64.2000   33.1640   48.5300 C   0  0  0  0  0  0  0  0  0  0  0  0
   63.7730   32.4460   49.6580 C   0  0  0  0  0  0  0  0  0  0  0  0
   62.8000   31.4430   49.5160 C   0  0  0  0  0  0  0  0  0  0  0  0
   64.3340   32.7170   51.0060 C   0  0  0  0  0  0  0  0  0  0  0  0
   64.9380   33.7990   51.2320 O   0  0  0  0  0  0  0  0  0  0  0  0
   66.6990   27.2790   52.9470 C   0  0  0  0  0  0  0  0  0  0  0  0
   67.5820   26.8680   51.7570 C   0  0  0  0  0  0  0  0  0  0  0  0
   67.4720   27.5610   50.5330 C   0  0  0  0  0  0  0  0  0  0  0  0
   68.2410   27.1850   49.4250 C   0  0  0  0  0  0  0  0  0  0  0  0
   69.1160   26.1100   49.5190 C   0  0  0  0  0  0  0  0  0  0  0  0
   69.3020   25.4640   50.7430 C   0  0  0  0  0  0  0  0  0  0  0  0
   68.5720   25.8740   51.8660 C   0  0  0  0  0  0  0  0  0  0  0  0
   57.9860   28.3110   54.3640 C   0  0  0  0  0  0  0  0  0  0  0  0
   57.4040   29.3410   53.3720 C   0  0  0  0  0  0  0  0  0  0  0  0
   57.7570   30.7830   53.7730 C   0  0  0  0  0  0  0  0  0  0  0  0
   58.4580   31.4910   52.7010 N   0  0  0  0  0  0  0  0  0  0  0  0
   59.6180   32.3690   52.8800 C   0  0  0  0  0  0  0  0  0  0  0  0
   59.8520   32.9140   51.4980 C   0  0  0  0  0  0  0  0  0  0  0  0
   60.8440   33.8010   51.0810 C   0  0  0  0  0  0  0  0  0  0  0  0
   60.8600   34.2040   49.7310 C   0  0  0  0  0  0  0  0  0  0  0  0
   59.8940   33.7140   48.8170 C   0  0  0  0  0  0  0  0  0  0  0  0
   59.8900   34.1930   47.3910 C   0  0  0  0  0  0  0  0  0  0  0  0
   59.0350   33.3270   46.5670 N   0  0  0  0  0  0  0  0  0  0  0  0
   57.8550   33.8170   46.0770 C   0  0  0  0  0  0  0  0  0  0  0  0
   57.0050   33.0020   45.3230 C   0  0  0  0  0  0  0  0  0  0  0  0
   57.3660   31.6760   45.0710 C   0  0  0  0  0  0  0  0  0  0  0  0
   56.5290   30.8340   44.3210 C   0  0  0  0  0  0  0  0  0  0  0  0
   56.9020   29.5090   44.0860 C   0  0  0  0  0  0  0  0  0  0  0  0
   58.1090   29.0150   44.5920 C   0  0  0  0  0  0  0  0  0  0  0  0
   58.9460   29.8470   45.3410 C   0  0  0  0  0  0  0  0  0  0  0  0
   58.5800   31.1760   45.5890 C   0  0  0  0  0  0  0  0  0  0  0  0
   59.4020   32.0270   46.3390 C   0  0  0  0  0  0  0  0  0  0  0  0
   58.8920   32.8310   49.2710 C   0  0  0  0  0  0  0  0  0  0  0  0
   58.9150   32.4390   50.6090 C   0  0  0  0  0  0  0  0  0  0  0  0
   58.0350   31.5620   51.3410 C   0  0  0  0  0  0  0  0  0  0  0  0
   57.0260   30.9680   50.8710 O   0  0  0  0  0  0  0  0  0  0  0  0
   59.9016   27.8909   56.0305 H   0  0  0  0  0  0  0  0  0  0  0  0
   61.1947   27.3447   54.9097 H   0  0  0  0  0  0  0  0  0  0  0  0
   60.6731   29.0636   54.9097 H   0  0  0  0  0  0  0  0  0  0  0  0
   60.3041   29.3082   52.9939 H   0  0  0  0  0  0  0  0  0  0  0  0
   60.3764   27.7231   52.1521 H   0  0  0  0  0  0  0  0  0  0  0  0
   58.8507   28.6713   52.1521 H   0  0  0  0  0  0  0  0  0  0  0  0
   58.7886   25.7448   54.5759 H   0  0  0  0  0  0  0  0  0  0  0  0
   58.6116   26.1732   52.7807 H   0  0  0  0  0  0  0  0  0  0  0  0
   61.3704   26.0003   53.8911 H   0  0  0  0  0  0  0  0  0  0  0  0
   60.4315   24.4565   53.6464 H   0  0  0  0  0  0  0  0  0  0  0  0
   60.8508   24.4956   51.4660 H   0  0  0  0  0  0  0  0  0  0  0  0
   60.1215   26.1582   51.3484 H   0  0  0  0  0  0  0  0  0  0  0  0
   62.3261   26.3212   50.4661 H   0  0  0  0  0  0  0  0  0  0  0  0
   62.3332   27.0447   52.1593 H   0  0  0  0  0  0  0  0  0  0  0  0
   63.2898   24.9357   52.9856 H   0  0  0  0  0  0  0  0  0  0  0  0
   63.4761   24.4614   51.1929 H   0  0  0  0  0  0  0  0  0  0  0  0
   65.6035   25.0833   52.0672 H   0  0  0  0  0  0  0  0  0  0  0  0
   64.9241   26.3609   50.8889 H   0  0  0  0  0  0  0  0  0  0  0  0
   65.3317   27.0952   54.9651 H   0  0  0  0  0  0  0  0  0  0  0  0
   63.6634   27.0224   54.3032 H   0  0  0  0  0  0  0  0  0  0  0  0
   64.6947   25.5516   54.3032 H   0  0  0  0  0  0  0  0  0  0  0  0
   64.5904   28.3886   51.3509 H   0  0  0  0  0  0  0  0  0  0  0  0
   63.5486   28.2715   52.8761 H   0  0  0  0  0  0  0  0  0  0  0  0
   64.5805   29.9714   53.8651 H   0  0  0  0  0  0  0  0  0  0  0  0
   66.2213   29.3660   53.3593 H   0  0  0  0  0  0  0  0  0  0  0  0
   66.2672   31.2727   52.1357 H   0  0  0  0  0  0  0  0  0  0  0  0
   65.2564   30.2756   50.9883 H   0  0  0  0  0  0  0  0  0  0  0  0
   64.2390   32.2260   52.9860 H   0  0  0  0  0  0  0  0  0  0  0  0
   60.9755   29.2226   51.3830 H   0  0  0  0  0  0  0  0  0  0  0  0
   59.9866   28.7590   49.1440 H   0  0  0  0  0  0  0  0  0  0  0  0
   60.7883   30.0006   47.1335 H   0  0  0  0  0  0  0  0  0  0  0  0
   62.2354   31.7024   46.1371 H   0  0  0  0  0  0  0  0  0  0  0  0
   63.9945   33.4551   46.3917 H   0  0  0  0  0  0  0  0  0  0  0  0
   64.9691   33.9434   48.6354 H   0  0  0  0  0  0  0  0  0  0  0  0
   66.8297   28.3609   53.0968 H   0  0  0  0  0  0  0  0  0  0  0  0
   67.0373   26.6460   53.7806 H   0  0  0  0  0  0  0  0  0  0  0  0
   66.7738   28.4068   50.4482 H   0  0  0  0  0  0  0  0  0  0  0  0
   68.1523   27.7409   48.4799 H   0  0  0  0  0  0  0  0  0  0  0  0
   69.6629   25.7673   48.6282 H   0  0  0  0  0  0  0  0  0  0  0  0
   70.0203   24.6349   50.8251 H   0  0  0  0  0  0  0  0  0  0  0  0
   68.7750   25.4137   52.8442 H   0  0  0  0  0  0  0  0  0  0  0  0
   57.2611   27.4889   54.4574 H   0  0  0  0  0  0  0  0  0  0  0  0
   58.1629   28.8683   55.2957 H   0  0  0  0  0  0  0  0  0  0  0  0
   57.8116   29.1401   52.3702 H   0  0  0  0  0  0  0  0  0  0  0  0
   56.3085   29.2423   53.3803 H   0  0  0  0  0  0  0  0  0  0  0  0
   56.8287   31.3240   54.0089 H   0  0  0  0  0  0  0  0  0  0  0  0
   58.4239   30.7405   54.6467 H   0  0  0  0  0  0  0  0  0  0  0  0
   59.3944   33.1783   53.5907 H   0  0  0  0  0  0  0  0  0  0  0  0
   60.4944   31.8477   53.2926 H   0  0  0  0  0  0  0  0  0  0  0  0
   61.5965   34.1773   51.7896 H   0  0  0  0  0  0  0  0  0  0  0  0
   61.6310   34.9069   49.3825 H   0  0  0  0  0  0  0  0  0  0  0  0
   59.5060   35.2232   47.3548 H   0  0  0  0  0  0  0  0  0  0  0  0
   60.9172   34.1611   46.9988 H   0  0  0  0  0  0  0  0  0  0  0  0
   57.5727   34.8610   46.2780 H   0  0  0  0  0  0  0  0  0  0  0  0
   56.0584   33.4022   44.9309 H   0  0  0  0  0  0  0  0  0  0  0  0
   55.5799   31.2180   43.9188 H   0  0  0  0  0  0  0  0  0  0  0  0
   56.2436   28.8506   43.5003 H   0  0  0  0  0  0  0  0  0  0  0  0
   58.3995   27.9715   44.4004 H   0  0  0  0  0  0  0  0  0  0  0  0
   59.8952   29.4567   45.7369 H   0  0  0  0  0  0  0  0  0  0  0  0
   60.3501   31.6482   46.7483 H   0  0  0  0  0  0  0  0  0  0  0  0
   58.1132   32.4615   48.5877 H   0  0  0  0  0  0  0  0  0  0  0  0
  1  2  1  0
  2  3  1  0
  2  4  1  0
  4  5  1  0
  5  6  1  0
  6  7  1  0
  7  8  1  0
  8  9  1  0
 10  9  1  6
 10 11  1  0
 10 12  1  0
 12 13  1  0
 13 14  1  0
 14 15  1  0
 15 16  1  0
 16 17  2  0
 16 18  1  0
 18 19  2  0
 19 20  1  0
 20 21  2  0
 21 22  1  0
 22 23  2  0
 23 24  1  0
 24 25  2  0
 25 26  1  0
 26 27  2  0
 26 28  1  0
 28 29  2  0
 10 30  1  0
 30 31  1  0
 31 32  2  0
 32 33  1  0
 33 34  2  0
 34 35  1  0
 35 36  2  0
  2 37  1  0
 37 38  1  0
 38 39  1  0
 39 40  1  0
 40 41  1  0
 41 42  1  0
 42 43  2  0
 43 44  1  0
 44 45  2  0
 45 46  1  0
 46 47  1  0
 47 48  2  0
 48 49  1  0
 49 50  2  0
 50 51  1  0
 51 52  2  0
 52 53  1  0
 53 54  2  0
 54 55  1  0
 55 56  2  0
 45 57  1  0
 57 58  2  0
 58 59  1  0
 59 60  2  0
 28 15  1  0
 36 31  1  0
 59 40  1  0
 27 18  1  0
 58 42  1  0
 27 22  1  0
 56 47  1  0
 55 50  1  0
  1 61  1  0
  1 62  1  0
  1 63  1  0
  3 64  1  0
  3 65  1  0
  3 66  1  0
  4 67  1  0
  4 68  1  0
  5 69  1  0
  5 70  1  0
  6 71  1  0
  6 72  1  0
  7 73  1  0
  7 74  1  0
  8 75  1  0
  8 76  1  0
  9 77  1  0
  9 78  1  0
 11 79  1  0
 11 80  1  0
 11 81  1  0
 12 82  1  0
 12 83  1  0
 13 84  1  0
 13 85  1  0
 14 86  1  0
 14 87  1  0
 15 88  1  0
 19 89  1  0
 20 90  1  0
 21 91  1  0
 23 92  1  0
 24 93  1  0
 25 94  1  0
 30 95  1  0
 30 96  1  0
 32 97  1  0
 33 98  1  0
 34 99  1  0
 35100  1  0
 36101  1  0
 37102  1  0
 37103  1  0
 38104  1  0
 38105  1  0
 39106  1  0
 39107  1  0
 41108  1  0
 41109  1  0
 43110  1  0
 44111  1  0
 46112  1  0
 46113  1  0
 48114  1  0
 49115  1  0
 51116  1  0
 52117  1  0
 53118  1  0
 54119  1  0
 56120  1  0
 57121  1  0
M  CHG  4   2   1  10   1  15   1  47   1
M  END
>  <UniqueID>  (1) 
1

>  <SMILES>  (1) 
C[N+](C)(CCCCCC[N@+](C)(CCC[NH+]1C(=O)c2cccc3cccc(c23)C1=O)Cc1ccccc1)CCCN1Cc2ccc(C[n+]3ccc4ccccc4c3)cc2C1=O

>  <Energy>  (1) 
204.1518263393213

>  <Genealogy>  (1) 
C[N+](C)(CCCCCC[N+](C)(CCC[NH+]1C(=O)c2cccc3cccc(c23)C1=O)Cc1ccccc1)CCCN1Cc2ccc(C[n+]3ccc4ccccc4c3)cc2C1=O (protonated)
C[N+](C)(CCCCCC[N@+](C)(CCC[NH+]1C(=O)c2cccc3cccc(c23)C1=O)Cc1ccccc1)CCCN1Cc2ccc(C[n+]3ccc4ccccc4c3)cc2C1=O (chirality)
C[N+](C)(CCCCCC[N@+](C)(CCC[NH+]1C(=O)c2cccc3cccc(c23)C1=O)Cc1ccccc1)CCCN1Cc2ccc(C[n+]3ccc4ccccc4c3)cc2C1=O (3D coordinates assigned)
C[N+](C)(CCCCCC[N@+](C)(CCC[NH+]1C(=O)c2cccc3cccc(c23)C1=O)Cc1ccccc1)CCCN1Cc2ccc(C[n+]3ccc4ccccc4c3)cc2C1=O (nonaromatic ring conformer: 204.1518263393213 kcal/mol)

>  <smiles>  (1) 
C[N+](C)(CCCCCC[N+](C)(CCCN1C(=O)c2cccc3cccc(c23)C1=O)Cc1ccccc1)CCCN1Cc2ccc(C[n+]3ccc4ccccc4c3)cc2C1=O

>  <score_type>  (1) 
oracle

>  <origin>  (1) 
adg

>  <m_score__min__energy>  (1) 
-5.8499999999999996

>  <m_primary>  (1) 
energy

$$$$
1:0
     RDKit          3D

 43 46  0  0  0  0  0  0  0  0999 V2000
   57.7430   30.4000   55.9340 C   0  0  0  0  0  0  0  0  0  0  0  0
   56.8740   31.1460   55.0900 O   0  0  0  0  0  0  0  0  0  0  0  0
   57.1130   31.4070   53.7300 C   0  0  0  0  0  0  0  0  0  0  0  0
   57.7320   32.5980   53.2990 C   0  0  0  0  0  0  0  0  0  0  0  0
   57.9460   32.8330   51.9400 C   0  0  0  0  0  0  0  0  0  0  0  0
   57.5540   31.8860   50.9950 C   0  0  0  0  0  0  0  0  0  0  0  0
   56.9440   30.6990   51.4060 C   0  0  0  0  0  0  0  0  0  0  0  0
   56.7070   30.4560   52.7700 C   0  0  0  0  0  0  0  0  0  0  0  0
   56.0690   29.1870   53.1950 C   0  0  0  0  0  0  0  0  0  0  0  0
   56.8700   28.1820   53.6390 N   0  0  0  0  0  0  0  0  0  0  0  0
   56.3700   26.9720   54.0000 C   0  0  0  0  0  0  0  0  0  0  0  0
   57.2840   25.9160   54.4790 C   0  0  0  0  0  0  0  0  0  0  0  0
   56.8660   24.9580   55.4200 C   0  0  0  0  0  0  0  0  0  0  0  0
   57.7650   23.9780   55.8460 C   0  0  0  0  0  0  0  0  0  0  0  0
   59.0640   23.9570   55.3390 C   0  0  0  0  0  0  0  0  0  0  0  0
   59.4470   24.9220   54.4060 C   0  0  0  0  0  0  0  0  0  0  0  0
   58.5590   25.8680   54.0020 N   0  0  0  0  0  0  0  0  0  0  0  0
   55.0340   26.7460   53.9100 N   0  0  0  0  0  0  0  0  0  0  0  0
   54.1850   27.7120   53.4780 C   0  0  0  0  0  0  0  0  0  0  0  0
   54.6730   28.9760   53.1200 C   0  0  0  0  0  0  0  0  0  0  0  0
   53.7180   30.0410   52.7300 C   0  0  0  0  0  0  0  0  0  0  0  0
   52.7450   30.4960   53.6370 C   0  0  0  0  0  0  0  0  0  0  0  0
   51.8500   31.5030   53.2650 C   0  0  0  0  0  0  0  0  0  0  0  0
   51.9120   32.0580   51.9830 C   0  0  0  0  0  0  0  0  0  0  0  0
   51.0220   33.0600   51.6160 O   0  0  0  0  0  0  0  0  0  0  0  0
   52.8680   31.6030   51.0710 C   0  0  0  0  0  0  0  0  0  0  0  0
   53.7660   30.5970   51.4400 C   0  0  0  0  0  0  0  0  0  0  0  0
   57.5001   30.6085   56.9864 H   0  0  0  0  0  0  0  0  0  0  0  0
   57.6154   29.3259   55.7341 H   0  0  0  0  0  0  0  0  0  0  0  0
   58.7854   30.6888   55.7341 H   0  0  0  0  0  0  0  0  0  0  0  0
   58.0486   33.3476   54.0392 H   0  0  0  0  0  0  0  0  0  0  0  0
   58.4252   33.7678   51.6137 H   0  0  0  0  0  0  0  0  0  0  0  0
   57.7253   32.0739   49.9248 H   0  0  0  0  0  0  0  0  0  0  0  0
   56.6471   29.9495   50.6576 H   0  0  0  0  0  0  0  0  0  0  0  0
   55.8403   24.9805   55.8168 H   0  0  0  0  0  0  0  0  0  0  0  0
   57.4488   23.2231   56.5810 H   0  0  0  0  0  0  0  0  0  0  0  0
   59.7784   23.1890   55.6705 H   0  0  0  0  0  0  0  0  0  0  0  0
   60.4683   24.9167   53.9975 H   0  0  0  0  0  0  0  0  0  0  0  0
   53.1075   27.5019   53.4083 H   0  0  0  0  0  0  0  0  0  0  0  0
   52.6878   30.0574   54.6442 H   0  0  0  0  0  0  0  0  0  0  0  0
   51.0956   31.8595   53.9818 H   0  0  0  0  0  0  0  0  0  0  0  0
   52.9141   32.0370   50.0613 H   0  0  0  0  0  0  0  0  0  0  0  0
   54.5138   30.2388   50.7172 H   0  0  0  0  0  0  0  0  0  0  0  0
  1  2  1  0
  2  3  1  0
  3  4  2  0
  4  5  1  0
  5  6  2  0
  6  7  1  0
  7  8  2  0
  8  9  1  0
  9 10  2  0
 10 11  1  0
 11 12  1  0
 12 13  2  0
 13 14  1  0
 14 15  2  0
 15 16  1  0
 16 17  2  0
 11 18  2  0
 18 19  1  0
 19 20  2  0
 20 21  1  0
 21 22  2  0
 22 23  1  0
 23 24  2  0
 24 25  1  0
 24 26  1  0
 26 27  2  0
  8  3  1  0
 20  9  1  0
 27 21  1  0
 17 12  1  0
  1 28  1  0
  1 29  1  0
  1 30  1  0
  4 31  1  0
  5 32  1  0
  6 33  1  0
  7 34  1  0
 13 35  1  0
 14 36  1  0
 15 37  1  0
 16 38  1  0
 19 39  1  0
 22 40  1  0
 23 41  1  0
 26 42  1  0
 27 43  1  0
M  CHG  1  25  -1
M  END
>  <UniqueID>  (2) 
2

>  <SMILES>  (2) 
COc1ccccc1-c1nc(-c2ccccn2)ncc1-c1ccc([O-])cc1

>  <Energy>  (2) 
61.78634998735321

>  <Genealogy>  (2) 
COc1ccccc1-c1nc(-c2ccccn2)ncc1-c1ccc([O-])cc1 (protonated)
COc1ccccc1-c1nc(-c2ccccn2)ncc1-c1ccc([O-])cc1 (3D coordinates assigned)
COc1ccccc1-c1nc(-c2ccccn2)ncc1-c1ccc([O-])cc1 (optimized conformer: 61.78634998735321 kcal/mol)

>  <smiles>  (2) 
COc1ccccc1-c1nc(-c2ccccn2)ncc1-c1ccc(O)cc1

>  <score_type>  (2) 
oracle

>  <origin>  (2) 
adg

>  <m_score__min__energy>  (2) 
-9.4499999999999993

>  <m_primary>  (2) 
energy

$$$$
2:0
     RDKit          3D

104110  0  0  0  0  0  0  0  0999 V2000
   59.7230   33.4730   50.5890 C   0  0  0  0  0  0  0  0  0  0  0  0
   61.1420   33.6220   51.1600 C   0  0  0  0  0  0  0  0  0  0  0  0
   62.0260   34.5180   50.3750 N   0  0  0  0  0  0  0  0  0  0  0  0
   63.3830   34.6410   50.9600 C   0  0  0  0  0  0  0  0  0  0  0  0
   63.3920   34.0510   52.3650 C   0  0  0  0  0  0  0  0  0  0  0  0
   62.0300   34.2080   48.9280 C   0  0  0  0  0  0  0  0  0  0  0  0
   63.4560   34.1960   48.3640 C   0  0  0  0  0  0  0  0  0  0  0  0
   63.9950   32.8350   48.3290 N   0  0  0  0  0  0  0  0  0  0  0  0
   64.1190   32.0510   49.5290 C   0  0  0  0  0  0  0  0  0  0  0  0
   65.3150   32.0630   50.2660 C   0  0  0  0  0  0  0  0  0  0  0  0
   66.4580   32.7330   49.7820 C   0  0  0  0  0  0  0  0  0  0  0  0
   67.6580   32.6930   50.4880 C   0  0  0  0  0  0  0  0  0  0  0  0
   67.7440   31.9880   51.6830 C   0  0  0  0  0  0  0  0  0  0  0  0
   66.6210   31.3380   52.1930 C   0  0  0  0  0  0  0  0  0  0  0  0
   65.3750   31.3850   51.5130 C   0  0  0  0  0  0  0  0  0  0  0  0
   64.2420   30.7810   52.0270 N   0  0  0  0  0  0  0  0  0  0  0  0
   64.2110   30.3430   53.4410 C   0  0  0  0  0  0  0  0  0  0  0  0
   63.1400   30.5860   51.2150 C   0  0  0  0  0  0  0  0  0  0  0  0
   62.0750   29.7330   51.5970 C   0  0  0  0  0  0  0  0  0  0  0  0
   60.9750   29.5380   50.7680 C   0  0  0  0  0  0  0  0  0  0  0  0
   60.9090   30.1560   49.5130 C   0  0  0  0  0  0  0  0  0  0  0  0
   59.8440   29.9410   48.6220 O   0  0  0  0  0  0  0  0  0  0  0  0
   59.4330   28.6680   48.1130 C   0  0  0  0  0  0  0  0  0  0  0  0
   60.3130   28.2140   46.9400 C   0  0  0  0  0  0  0  0  0  0  0  0
   59.7340   26.9570   46.2290 C   0  0  0  0  0  0  0  0  0  0  0  0
   58.5460   27.1970   45.3510 N   0  0  2  0  0  0  0  0  0  0  0  0
   58.9200   27.8430   44.0660 C   0  0  0  0  0  0  0  0  0  0  0  0
   58.9970   29.3780   44.2180 C   0  0  0  0  0  0  0  0  0  0  0  0
   57.8610   29.9640   44.9800 N   0  0  0  0  0  0  0  0  0  0  0  0
   57.3580   31.1860   44.3170 C   0  0  0  0  0  0  0  0  0  0  0  0
   57.0910   32.4000   45.2620 C   0  0  0  0  0  0  0  0  0  0  0  0
   58.2260   32.9760   46.0610 N   0  0  0  0  0  0  0  0  0  0  0  0
   57.7320   33.1230   47.4620 C   0  0  0  0  0  0  0  0  0  0  0  0
   58.6950   34.2970   45.5830 C   0  0  0  0  0  0  0  0  0  0  0  0
   60.1370   34.4700   46.0630 C   0  0  0  0  0  0  0  0  0  0  0  0
   60.6140   33.0690   46.4230 C   0  0  0  0  0  0  0  0  0  0  0  0
   59.4490   32.1420   46.0810 C   0  0  0  0  0  0  0  0  0  0  0  0
   56.7910   28.9800   45.2450 C   0  0  0  0  0  0  0  0  0  0  0  0
   57.3990   27.7700   45.9850 C   0  0  1  0  0  0  0  0  0  0  0  0
   56.6380   26.5320   45.7590 C   0  0  0  0  0  0  0  0  0  0  0  0
   55.4670   25.8230   45.9220 C   0  0  0  0  0  0  0  0  0  0  0  0
   55.4820   24.5040   45.3980 C   0  0  0  0  0  0  0  0  0  0  0  0
   56.6350   23.9560   44.7440 C   0  0  0  0  0  0  0  0  0  0  0  0
   57.8310   24.7040   44.5890 C   0  0  0  0  0  0  0  0  0  0  0  0
   57.7880   25.9820   45.1100 C   0  0  0  0  0  0  0  0  0  0  0  0
   61.9410   31.0080   49.1200 C   0  0  0  0  0  0  0  0  0  0  0  0
   63.0600   31.2310   49.9520 C   0  0  0  0  0  0  0  0  0  0  0  0
   59.0012   33.3972   51.4156 H   0  0  0  0  0  0  0  0  0  0  0  0
   59.4823   34.3508   49.9713 H   0  0  0  0  0  0  0  0  0  0  0  0
   59.6698   32.5643   49.9713 H   0  0  0  0  0  0  0  0  0  0  0  0
   61.0620   34.0249   52.1804 H   0  0  0  0  0  0  0  0  0  0  0  0
   61.6000   32.6224   51.1292 H   0  0  0  0  0  0  0  0  0  0  0  0
   64.1031   34.0976   50.3306 H   0  0  0  0  0  0  0  0  0  0  0  0
   63.6635   35.7035   51.0093 H   0  0  0  0  0  0  0  0  0  0  0  0
   63.3796   34.8651   53.1046 H   0  0  0  0  0  0  0  0  0  0  0  0
   62.5034   33.4173   52.5023 H   0  0  0  0  0  0  0  0  0  0  0  0
   64.2995   33.4447   52.5023 H   0  0  0  0  0  0  0  0  0  0  0  0
   61.5749   33.2187   48.7724 H   0  0  0  0  0  0  0  0  0  0  0  0
   61.4565   34.9873   48.4047 H   0  0  0  0  0  0  0  0  0  0  0  0
   63.4423   34.6038   47.3425 H   0  0  0  0  0  0  0  0  0  0  0  0
   64.0957   34.8096   49.0154 H   0  0  0  0  0  0  0  0  0  0  0  0
   64.4880   32.5170   47.4620 H   0  0  0  0  0  0  0  0  0  0  0  0
   66.4011   33.2930   48.8370 H   0  0  0  0  0  0  0  0  0  0  0  0
   68.5408   33.2212   50.0986 H   0  0  0  0  0  0  0  0  0  0  0  0
   68.6991   31.9429   52.2268 H   0  0  0  0  0  0  0  0  0  0  0  0
   66.7013   30.7797   53.1374 H   0  0  0  0  0  0  0  0  0  0  0  0
   64.2732   31.2225   54.0987 H   0  0  0  0  0  0  0  0  0  0  0  0
   63.2725   29.8040   53.6374 H   0  0  0  0  0  0  0  0  0  0  0  0
   65.0643   29.6771   53.6374 H   0  0  0  0  0  0  0  0  0  0  0  0
   62.1188   29.2156   52.5667 H   0  0  0  0  0  0  0  0  0  0  0  0
   60.1492   28.8923   51.1014 H   0  0  0  0  0  0  0  0  0  0  0  0
   59.5015   27.9228   48.9192 H   0  0  0  0  0  0  0  0  0  0  0  0
   58.3991   28.7619   47.7495 H   0  0  0  0  0  0  0  0  0  0  0  0
   60.3828   29.0341   46.2103 H   0  0  0  0  0  0  0  0  0  0  0  0
   61.3035   27.9518   47.3401 H   0  0  0  0  0  0  0  0  0  0  0  0
   60.5312   26.5231   45.6076 H   0  0  0  0  0  0  0  0  0  0  0  0
   59.3833   26.2930   47.0328 H   0  0  0  0  0  0  0  0  0  0  0  0
   59.9016   27.4639   43.7455 H   0  0  0  0  0  0  0  0  0  0  0  0
   58.1504   27.6039   43.3174 H   0  0  0  0  0  0  0  0  0  0  0  0
   59.9315   29.6282   44.7416 H   0  0  0  0  0  0  0  0  0  0  0  0
   58.9556   29.8027   43.2041 H   0  0  0  0  0  0  0  0  0  0  0  0
   58.1016   31.4962   43.5681 H   0  0  0  0  0  0  0  0  0  0  0  0
   56.3821   30.9171   43.8865 H   0  0  0  0  0  0  0  0  0  0  0  0
   56.6952   33.2129   44.6355 H   0  0  0  0  0  0  0  0  0  0  0  0
   56.4165   31.9894   46.0278 H   0  0  0  0  0  0  0  0  0  0  0  0
   58.5436   32.8815   48.1642 H   0  0  0  0  0  0  0  0  0  0  0  0
   57.4004   34.1587   47.6271 H   0  0  0  0  0  0  0  0  0  0  0  0
   56.8881   32.4371   47.6271 H   0  0  0  0  0  0  0  0  0  0  0  0
   58.6571   34.3347   44.4843 H   0  0  0  0  0  0  0  0  0  0  0  0
   58.0555   35.1018   45.9746 H   0  0  0  0  0  0  0  0  0  0  0  0
   60.7606   34.8952   45.2628 H   0  0  0  0  0  0  0  0  0  0  0  0
   60.2036   35.1575   46.9191 H   0  0  0  0  0  0  0  0  0  0  0  0
   61.5036   32.8023   45.8336 H   0  0  0  0  0  0  0  0  0  0  0  0
   60.8982   32.9940   47.4830 H   0  0  0  0  0  0  0  0  0  0  0  0
   59.6090   31.6818   45.0948 H   0  0  0  0  0  0  0  0  0  0  0  0
   59.3607   31.3321   46.8202 H   0  0  0  0  0  0  0  0  0  0  0  0
   56.0112   29.4411   45.8690 H   0  0  0  0  0  0  0  0  0  0  0  0
   56.3432   28.6506   44.2958 H   0  0  0  0  0  0  0  0  0  0  0  0
   57.5015   28.1990   46.9927 H   0  0  0  0  0  0  0  0  0  0  0  0
   54.5846   26.2488   46.4221 H   0  0  0  0  0  0  0  0  0  0  0  0
   54.5802   23.8819   45.4966 H   0  0  0  0  0  0  0  0  0  0  0  0
   56.5910   22.9290   44.3523 H   0  0  0  0  0  0  0  0  0  0  0  0
   58.7238   24.2969   44.0919 H   0  0  0  0  0  0  0  0  0  0  0  0
   61.8822   31.5148   48.1455 H   0  0  0  0  0  0  0  0  0  0  0  0
  1  2  1  0
  2  3  1  0
  3  4  1  0
  4  5  1  0
  3  6  1  0
  6  7  1  0
  7  8  1  0
  8  9  1  0
  9 10  2  0
 10 11  1  0
 11 12  2  0
 12 13  1  0
 13 14  2  0
 14 15  1  0
 15 16  2  0
 16 17  1  0
 16 18  1  0
 18 19  2  0
 19 20  1  0
 20 21  2  0
 21 22  1  0
 22 23  1  0
 23 24  1  0
 24 25  1  0
 26 25  1  1
 26 27  1  0
 27 28  1  0
 28 29  1  0
 29 30  1  0
 30 31  1  0
 31 32  1  0
 32 33  1  0
 32 34  1  0
 34 35  1  0
 35 36  1  0
 36 37  1  0
 29 38  1  0
 38 39  1  0
 39 40  1  0
 40 41  2  0
 41 42  1  0
 42 43  2  0
 43 44  1  0
 44 45  2  0
 21 46  1  0
 46 47  2  0
 47  9  1  0
 15 10  1  0
 47 18  1  0
 39 26  1  0
 45 40  1  0
 45 26  1  0
 37 32  1  0
  1 48  1  0
  1 49  1  0
  1 50  1  0
  2 51  1  0
  2 52  1  0
  4 53  1  0
  4 54  1  0
  5 55  1  0
  5 56  1  0
  5 57  1  0
  6 58  1  0
  6 59  1  0
  7 60  1  0
  7 61  1  0
  8 62  1  0
 11 63  1  0
 12 64  1  0
 13 65  1  0
 14 66  1  0
 17 67  1  0
 17 68  1  0
 17 69  1  0
 19 70  1  0
 20 71  1  0
 23 72  1  0
 23 73  1  0
 24 74  1  0
 24 75  1  0
 25 76  1  0
 25 77  1  0
 27 78  1  0
 27 79  1  0
 28 80  1  0
 28 81  1  0
 30 82  1  0
 30 83  1  0
 31 84  1  0
 31 85  1  0
 33 86  1  0
 33 87  1  0
 33 88  1  0
 34 89  1  0
 34 90  1  0
 35 91  1  0
 35 92  1  0
 36 93  1  0
 36 94  1  0
 37 95  1  0
 37 96  1  0
 38 97  1  0
 38 98  1  0
 39 99  1  1
 41100  1  0
 42101  1  0
 43102  1  0
 44103  1  0
 46104  1  0
M  CHG  3  16   1  26   1  32   1
M  END
>  <UniqueID>  (3) 
3

>  <SMILES>  (3) 
CCN(CC)CCNc1c2ccccc2[n+](C)c2ccc(OCCC[N@+]34CCN(CC[N+]5(C)CCCC5)C[C@H]3c3ccccc34)cc12

>  <Energy>  (3) 
222.54805555728254

>  <Genealogy>  (3) 
CCN(CC)CCNc1c2ccccc2[n+](C)c2ccc(OCCC[N+]34CCN(CC[N+]5(C)CCCC5)CC3c3ccccc34)cc12 (protonated)
CCN(CC)CCNc1c2ccccc2[n+](C)c2ccc(OCCC[N@+]34CCN(CC[N+]5(C)CCCC5)C[C@H]3c3ccccc34)cc12 (chirality)
CCN(CC)CCNc1c2ccccc2[n+](C)c2ccc(OCCC[N@+]34CCN(CC[N+]5(C)CCCC5)C[C@H]3c3ccccc34)cc12 (3D coordinates assigned)
CCN(CC)CCNc1c2ccccc2[n+](C)c2ccc(OCCC[N@+]34CCN(CC[N+]5(C)CCCC5)C[C@H]3c3ccccc34)cc12 (nonaromatic ring conformer: 222.54805555728254 kcal/mol)

>  <smiles>  (3) 
CCN(CC)CCNc1c2ccccc2[n+](C)c2ccc(OCCC[N+]34CC[N+](CC[N+]5(C)CCCC5)CC3c3ccccc34)cc12

>  <score_type>  (3) 
oracle

>  <origin>  (3) 
adg

>  <m_score__min__energy>  (3) 
-4.7300000000000004

>  <m_primary>  (3) 
energy

$$$$
3:0
     RDKit          3D

 57 60  0  0  0  0  0  0  0  0999 V2000
   64.6960   33.3450   50.3740 C   0  0  0  0  0  0  0  0  0  0  0  0
   63.2630   33.8320   50.1580 C   0  0  0  0  0  0  0  0  0  0  0  0
   62.6410   33.1470   49.0040 N   0  0  0  0  0  0  0  0  0  0  0  0
   62.8930   33.8620   47.7280 C   0  0  0  0  0  0  0  0  0  0  0  0
   63.7740   33.0560   46.7730 C   0  0  0  0  0  0  0  0  0  0  0  0
   62.9360   31.6910   48.9740 C   0  0  0  0  0  0  0  0  0  0  0  0
   61.8120   30.7890   48.4110 C   0  0  0  0  0  0  0  0  0  0  0  0
   60.5210   31.4760   48.3510 N   0  0  0  0  0  0  0  0  0  0  0  0
   59.6900   31.3290   47.1900 C   0  0  0  0  0  0  0  0  0  0  0  0
   59.2460   30.0530   46.8050 C   0  0  0  0  0  0  0  0  0  0  0  0
   58.4670   29.9110   45.6350 C   0  0  0  0  0  0  0  0  0  0  0  0
   57.9300   31.0300   45.0300 N   0  0  0  0  0  0  0  0  0  0  0  0
   56.7500   30.9090   44.1490 C   0  0  0  0  0  0  0  0  0  0  0  0
   58.4300   32.2810   45.3290 C   0  0  0  0  0  0  0  0  0  0  0  0
   58.0780   33.4240   44.5680 C   0  0  0  0  0  0  0  0  0  0  0  0
   58.6030   34.6790   44.8730 C   0  0  0  0  0  0  0  0  0  0  0  0
   59.4950   34.8280   45.9280 C   0  0  0  0  0  0  0  0  0  0  0  0
   59.8660   33.7210   46.6900 C   0  0  0  0  0  0  0  0  0  0  0  0
   59.3360   32.4450   46.4120 C   0  0  0  0  0  0  0  0  0  0  0  0
   58.2320   28.5170   45.1320 C   0  0  0  0  0  0  0  0  0  0  0  0
   58.1380   28.2250   43.7580 C   0  0  0  0  0  0  0  0  0  0  0  0
   57.9420   26.9100   43.3240 C   0  0  0  0  0  0  0  0  0  0  0  0
   57.8780   25.8690   44.2500 C   0  0  0  0  0  0  0  0  0  0  0  0
   58.0500   26.1320   45.6100 C   0  0  0  0  0  0  0  0  0  0  0  0
   58.2640   27.4460   46.0510 C   0  0  0  0  0  0  0  0  0  0  0  0
   58.5510   27.7330   47.4980 C   0  0  0  0  0  0  0  0  0  0  0  0
   59.6260   28.8210   47.6100 C   0  0  0  0  0  0  0  0  0  0  0  0
   64.9009   33.2754   51.4525 H   0  0  0  0  0  0  0  0  0  0  0  0
   64.8201   32.3542   49.9125 H   0  0  0  0  0  0  0  0  0  0  0  0
   65.3980   34.0550   49.9125 H   0  0  0  0  0  0  0  0  0  0  0  0
   62.6718   33.6237   51.0619 H   0  0  0  0  0  0  0  0  0  0  0  0
   63.2860   34.9128   49.9545 H   0  0  0  0  0  0  0  0  0  0  0  0
   61.9286   34.0596   47.2373 H   0  0  0  0  0  0  0  0  0  0  0  0
   63.4229   34.7962   47.9657 H   0  0  0  0  0  0  0  0  0  0  0  0
   64.4632   32.4255   47.3539 H   0  0  0  0  0  0  0  0  0  0  0  0
   63.1401   32.4187   46.1390 H   0  0  0  0  0  0  0  0  0  0  0  0
   64.3526   33.7440   46.1390 H   0  0  0  0  0  0  0  0  0  0  0  0
   63.8321   31.5407   48.3540 H   0  0  0  0  0  0  0  0  0  0  0  0
   63.0637   31.3898   50.0242 H   0  0  0  0  0  0  0  0  0  0  0  0
   62.0901   30.4708   47.3954 H   0  0  0  0  0  0  0  0  0  0  0  0
   61.7024   29.9288   49.0878 H   0  0  0  0  0  0  0  0  0  0  0  0
   60.3810   32.3370   48.9260 H   0  0  0  0  0  0  0  0  0  0  0  0
   55.8420   30.8159   44.7630 H   0  0  0  0  0  0  0  0  0  0  0  0
   56.6731   31.8040   43.5141 H   0  0  0  0  0  0  0  0  0  0  0  0
   56.8564   30.0171   43.5141 H   0  0  0  0  0  0  0  0  0  0  0  0
   57.3802   33.3192   43.7242 H   0  0  0  0  0  0  0  0  0  0  0  0
   58.3098   35.5551   44.2759 H   0  0  0  0  0  0  0  0  0  0  0  0
   59.9087   35.8200   46.1621 H   0  0  0  0  0  0  0  0  0  0  0  0
   60.5803   33.8448   47.5173 H   0  0  0  0  0  0  0  0  0  0  0  0
   58.2193   29.0370   43.0204 H   0  0  0  0  0  0  0  0  0  0  0  0
   57.8381   26.6963   42.2500 H   0  0  0  0  0  0  0  0  0  0  0  0
   57.6919   24.8401   43.9084 H   0  0  0  0  0  0  0  0  0  0  0  0
   58.0176   25.3072   46.3371 H   0  0  0  0  0  0  0  0  0  0  0  0
   57.6302   28.0777   47.9913 H   0  0  0  0  0  0  0  0  0  0  0  0
   58.9120   26.8151   47.9851 H   0  0  0  0  0  0  0  0  0  0  0  0
   59.7414   29.1042   48.6666 H   0  0  0  0  0  0  0  0  0  0  0  0
   60.5697   28.4211   47.2107 H   0  0  0  0  0  0  0  0  0  0  0  0
  1  2  1  0
  2  3  1  0
  3  4  1  0
  4  5  1  0
  3  6  1  0
  6  7  1  0
  7  8  1  0
  8  9  1  0
  9 10  2  0
 10 11  1  0
 11 12  2  0
 12 13  1  0
 12 14  1  0
 14 15  2  0
 15 16  1  0
 16 17  2  0
 17 18  1  0
 18 19  2  0
 11 20  1  0
 20 21  2  0
 21 22  1  0
 22 23  2  0
 23 24  1  0
 24 25  2  0
 25 26  1  0
 26 27  1  0
 19  9  1  0
 25 20  1  0
 27 10  1  0
 19 14  1  0
  1 28  1  0
  1 29  1  0
  1 30  1  0
  2 31  1  0
  2 32  1  0
  4 33  1  0
  4 34  1  0
  5 35  1  0
  5 36  1  0
  5 37  1  0
  6 38  1  0
  6 39  1  0
  7 40  1  0
  7 41  1  0
  8 42  1  0
 13 43  1  0
 13 44  1  0
 13 45  1  0
 15 46  1  0
 16 47  1  0
 17 48  1  0
 18 49  1  0
 21 50  1  0
 22 51  1  0
 23 52  1  0
 24 53  1  0
 26 54  1  0
 26 55  1  0
 27 56  1  0
 27 57  1  0
M  CHG  1  12   1
M  END
>  <UniqueID>  (4) 
4

>  <SMILES>  (4) 
CCN(CC)CCNc1c2c([n+](C)c3ccccc13)-c1ccccc1CC2

>  <Energy>  (4) 
91.86558893102874

>  <Genealogy>  (4) 
CCN(CC)CCNc1c2c([n+](C)c3ccccc13)-c1ccccc1CC2 (3D coordinates assigned)
CCN(CC)CCNc1c2c([n+](C)c3ccccc13)-c1ccccc1CC2 (nonaromatic ring conformer: 91.86558893102874 kcal/mol)

>  <smiles>  (4) 
CCN(CC)CCNc1c2c([n+](C)c3ccccc13)-c1ccccc1CC2

>  <score_type>  (4) 
oracle

>  <origin>  (4) 
adg

>  <m_score__min__energy>  (4) 
-6.5300000000000002

>  <m_primary>  (4) 
energy

$$$$
4:0
     RDKit          3D

 36 38  0  0  0  0  0  0  0  0999 V2000
   57.9343   34.8362   46.4272 H   0  0  0  0  0  0  0  0  0  0  0  0
   58.6630   34.0700   46.1240 C   0  0  0  0  0  0  0  0  0  0  0  0
   59.8660   34.0820   46.7100 C   0  0  0  0  0  0  0  0  0  0  0  0
   61.1040   33.7490   46.0830 N   0  0  0  0  0  0  0  0  0  0  0  0
   62.0140   33.8270   47.0070 C   0  0  0  0  0  0  0  0  0  0  0  0
   63.6940   33.2760   46.7720 S   0  0  0  0  0  0  0  0  0  0  0  0
   63.6930   32.0230   48.1320 C   0  0  0  0  0  0  0  0  0  0  0  0
   63.5771   31.0319   47.6691 H   0  0  0  0  0  0  0  0  0  0  0  0
   64.6429   32.1802   48.6640 H   0  0  0  0  0  0  0  0  0  0  0  0
   62.5980   32.1610   49.2190 C   0  0  0  0  0  0  0  0  0  0  0  0
   61.7081   31.6049   48.8891 H   0  0  0  0  0  0  0  0  0  0  0  0
   63.0179   31.7606   50.1535 H   0  0  0  0  0  0  0  0  0  0  0  0
   62.1880   33.6140   49.4950 C   0  0  0  0  0  0  0  0  0  0  0  0
   61.4887   33.6437   50.3436 H   0  0  0  0  0  0  0  0  0  0  0  0
   63.0807   34.2093   49.7374 H   0  0  0  0  0  0  0  0  0  0  0  0
   61.5400   34.1650   48.3100 N   0  0  0  0  0  0  0  0  0  0  0  0
   60.1420   34.2940   48.1130 C   0  0  0  0  0  0  0  0  0  0  0  0
   59.3000   34.5000   49.0280 O   0  0  0  0  0  0  0  0  0  0  0  0
   58.2510   33.0900   45.0930 C   0  0  0  0  0  0  0  0  0  0  0  0
   58.5180   33.2900   43.7260 C   0  0  0  0  0  0  0  0  0  0  0  0
   59.0612   34.1893   43.4002 H   0  0  0  0  0  0  0  0  0  0  0  0
   58.0970   32.3530   42.7820 C   0  0  0  0  0  0  0  0  0  0  0  0
   58.3206   32.5094   41.7164 H   0  0  0  0  0  0  0  0  0  0  0  0
   57.3930   31.2180   43.1860 C   0  0  0  0  0  0  0  0  0  0  0  0
   57.0727   30.4796   42.4363 H   0  0  0  0  0  0  0  0  0  0  0  0
   57.0910   31.0110   44.5360 C   0  0  0  0  0  0  0  0  0  0  0  0
   56.3710   29.8550   44.8810 O   0  0  0  0  0  0  0  0  0  0  0  0
   56.9240   28.5500   45.0530 C   0  0  0  0  0  0  0  0  0  0  0  0
   56.5749   27.8998   44.2373 H   0  0  0  0  0  0  0  0  0  0  0  0
   56.5964   28.1531   46.0252 H   0  0  0  0  0  0  0  0  0  0  0  0
   58.4490   28.6020   45.0340 C   0  0  0  0  0  0  0  0  0  0  0  0
   58.8283   28.6149   46.0664 H   0  0  0  0  0  0  0  0  0  0  0  0
   58.8396   27.7167   44.5109 H   0  0  0  0  0  0  0  0  0  0  0  0
   58.7784   29.5119   44.5109 H   0  0  0  0  0  0  0  0  0  0  0  0
   57.5210   31.9570   45.4880 C   0  0  0  0  0  0  0  0  0  0  0  0
   57.2825   31.8065   46.5512 H   0  0  0  0  0  0  0  0  0  0  0  0
  1  2  1  0
  2  3  2  0
  3  4  1  0
  4  5  2  0
  5  6  1  0
  6  7  1  0
  7  8  1  0
  7  9  1  0
  7 10  1  0
 10 11  1  0
 10 12  1  0
 10 13  1  0
 13 14  1  0
 13 15  1  0
 13 16  1  0
 16 17  1  0
 17 18  2  0
  2 19  1  0
 19 20  2  0
 20 21  1  0
 20 22  1  0
 22 23  1  0
 22 24  2  0
 24 25  1  0
 24 26  1  0
 26 27  1  0
 27 28  1  0
 28 29  1  0
 28 30  1  0
 28 31  1  0
 31 32  1  0
 31 33  1  0
 31 34  1  0
 26 35  2  0
 35 36  1  0
 17  3  1  0
 35 19  1  0
 16  5  1  0
M  END
>  <UniqueID>  (5) 
5

>  <SMILES>  (5) 
CCOc1cccc(/C=C2\N=C3SCCCN3C2=O)c1

>  <Energy>  (5) 
75.77294691264098

>  <Genealogy>  (5) 
CCOc1cccc(/C=C2\N=C3SCCCN3C2=O)c1 (cis-trans isomerization)
CCOc1cccc(/C=C2\N=C3SCCCN3C2=O)c1 (3D coordinates assigned)
CCOc1cccc(/C=C2\N=C3SCCCN3C2=O)c1 (nonaromatic ring conformer: 75.77294691264098 kcal/mol)

>  <smiles>  (5) 
CCOc1cccc(C=C2N=C3SCCCN3C2=O)c1

>  <score_type>  (5) 
oracle

>  <origin>  (5) 
adg

>  <m_score__min__energy>  (5) 
-7.54

>  <m_primary>  (5) 
energy

$$$$
5:0
     RDKit          3D

 58 60  0  0  0  0  0  0  0  0999 V2000
   60.3620   28.6240   44.8620 C   0  0  0  0  0  0  0  0  0  0  0  0
   60.4120   29.7280   45.9120 C   0  0  0  0  0  0  0  0  0  0  0  0
   59.0570   30.0050   46.4400 N   0  0  0  0  0  0  0  0  0  0  0  0
   58.6020   28.9160   47.3360 C   0  0  0  0  0  0  0  0  0  0  0  0
   59.3080   29.0100   48.6870 C   0  0  0  0  0  0  0  0  0  0  0  0
   58.0950   30.2090   45.3340 C   0  0  0  0  0  0  0  0  0  0  0  0
   57.3240   31.4420   45.5430 N   0  0  0  0  0  0  0  0  0  0  0  0
   57.8390   32.5500   44.7190 C   0  0  0  0  0  0  0  0  0  0  0  0
   57.7870   33.8680   45.5090 C   0  0  0  0  0  0  0  0  0  0  0  0
   58.0710   33.6890   47.0120 C   0  0  0  0  0  0  0  0  0  0  0  0
   58.8330   32.4560   47.2790 N   0  0  0  0  0  0  0  0  0  0  0  0
   59.8160   32.6750   48.3290 C   0  0  0  0  0  0  0  0  0  0  0  0
   59.4620   32.5380   49.6970 C   0  0  0  0  0  0  0  0  0  0  0  0
   58.1160   32.3390   50.1010 C   0  0  0  0  0  0  0  0  0  0  0  0
   57.7740   32.2490   51.4480 C   0  0  0  0  0  0  0  0  0  0  0  0
   58.7560   32.3640   52.4230 C   0  0  0  0  0  0  0  0  0  0  0  0
   60.0850   32.5620   52.0590 C   0  0  0  0  0  0  0  0  0  0  0  0
   60.4740   32.6180   50.6940 C   0  0  0  0  0  0  0  0  0  0  0  0
   61.8000   32.7650   50.3310 N   0  0  0  0  0  0  0  0  0  0  0  0
   62.8680   32.5350   51.3300 C   0  0  0  0  0  0  0  0  0  0  0  0
   62.1230   33.1300   49.0400 C   0  0  0  0  0  0  0  0  0  0  0  0
   63.4260   33.5780   48.7070 C   0  0  0  0  0  0  0  0  0  0  0  0
   63.7650   33.9110   47.3990 C   0  0  0  0  0  0  0  0  0  0  0  0
   62.8110   33.8450   46.3970 C   0  0  0  0  0  0  0  0  0  0  0  0
   61.5080   33.4500   46.6940 C   0  0  0  0  0  0  0  0  0  0  0  0
   61.1390   33.0810   48.0120 C   0  0  0  0  0  0  0  0  0  0  0  0
   60.3177   27.6448   45.3613 H   0  0  0  0  0  0  0  0  0  0  0  0
   59.4689   28.7559   44.2335 H   0  0  0  0  0  0  0  0  0  0  0  0
   61.2634   28.6746   44.2335 H   0  0  0  0  0  0  0  0  0  0  0  0
   61.0647   29.4115   46.7389 H   0  0  0  0  0  0  0  0  0  0  0  0
   60.8057   30.6435   45.4463 H   0  0  0  0  0  0  0  0  0  0  0  0
   57.5158   29.0011   47.4877 H   0  0  0  0  0  0  0  0  0  0  0  0
   58.8436   27.9479   46.8731 H   0  0  0  0  0  0  0  0  0  0  0  0
   58.5681   28.9115   49.4950 H   0  0  0  0  0  0  0  0  0  0  0  0
   60.0507   28.2028   48.7695 H   0  0  0  0  0  0  0  0  0  0  0  0
   59.8137   29.9834   48.7695 H   0  0  0  0  0  0  0  0  0  0  0  0
   58.6455   30.2829   44.3845 H   0  0  0  0  0  0  0  0  0  0  0  0
   57.4008   29.3562   45.3047 H   0  0  0  0  0  0  0  0  0  0  0  0
   56.3410   31.2420   45.2430 H   0  0  0  0  0  0  0  0  0  0  0  0
   58.8802   32.3378   44.4345 H   0  0  0  0  0  0  0  0  0  0  0  0
   57.2157   32.6469   43.8178 H   0  0  0  0  0  0  0  0  0  0  0  0
   58.5375   34.5552   45.0913 H   0  0  0  0  0  0  0  0  0  0  0  0
   56.7649   34.2638   45.4155 H   0  0  0  0  0  0  0  0  0  0  0  0
   58.6517   34.5518   47.3704 H   0  0  0  0  0  0  0  0  0  0  0  0
   57.1072   33.6174   47.5373 H   0  0  0  0  0  0  0  0  0  0  0  0
   58.1880   31.6750   47.5350 H   0  0  0  0  0  0  0  0  0  0  0  0
   59.2940   32.1110   46.4090 H   0  0  0  0  0  0  0  0  0  0  0  0
   57.3293   32.2544   49.3369 H   0  0  0  0  0  0  0  0  0  0  0  0
   56.7258   32.0868   51.7396 H   0  0  0  0  0  0  0  0  0  0  0  0
   58.4829   32.2984   53.4865 H   0  0  0  0  0  0  0  0  0  0  0  0
   60.8480   32.6772   52.8429 H   0  0  0  0  0  0  0  0  0  0  0  0
   62.4484   32.6254   52.3428 H   0  0  0  0  0  0  0  0  0  0  0  0
   63.2855   31.5263   51.1948 H   0  0  0  0  0  0  0  0  0  0  0  0
   63.6637   33.2824   51.1948 H   0  0  0  0  0  0  0  0  0  0  0  0
   64.1848   33.6642   49.4987 H   0  0  0  0  0  0  0  0  0  0  0  0
   64.7914   34.2269   47.1607 H   0  0  0  0  0  0  0  0  0  0  0  0
   63.0828   34.1052   45.3634 H   0  0  0  0  0  0  0  0  0  0  0  0
   60.7542   33.4242   45.8933 H   0  0  0  0  0  0  0  0  0  0  0  0
  1  2  1  0
  2  3  1  0
  3  4  1  0
  4  5  1  0
  3  6  1  0
  6  7  1  0
  7  8  1  0
  8  9  1  0
  9 10  1  0
 10 11  1  0
 11 12  1  0
 12 13  2  0
 13 14  1  0
 14 15  2  0
 15 16  1  0
 16 17  2  0
 17 18  1  0
 18 19  2  0
 19 20  1  0
 19 21  1  0
 21 22  2  0
 22 23  1  0
 23 24  2  0
 24 25  1  0
 25 26  2  0
 26 12  1  0
 18 13  1  0
 26 21  1  0
  1 27  1  0
  1 28  1  0
  1 29  1  0
  2 30  1  0
  2 31  1  0
  4 32  1  0
  4 33  1  0
  5 34  1  0
  5 35  1  0
  5 36  1  0
  6 37  1  0
  6 38  1  0
  7 39  1  0
  8 40  1  0
  8 41  1  0
  9 42  1  0
  9 43  1  0
 10 44  1  0
 10 45  1  0
 11 46  1  0
 11 47  1  0
 14 48  1  0
 15 49  1  0
 16 50  1  0
 17 51  1  0
 20 52  1  0
 20 53  1  0
 20 54  1  0
 22 55  1  0
 23 56  1  0
 24 57  1  0
 25 58  1  0
M  CHG  2  11   1  19   1
M  END
>  <UniqueID>  (6) 
6

>  <SMILES>  (6) 
CCN(CC)CNCCC[NH2+]c1c2ccccc2[n+](C)c2ccccc12

>  <Energy>  (6) 
82.2403203509558

>  <Genealogy>  (6) 
CCN(CC)CNCCC[NH2+]c1c2ccccc2[n+](C)c2ccccc12 (protonated)
CCN(CC)CNCCC[NH2+]c1c2ccccc2[n+](C)c2ccccc12 (3D coordinates assigned)
CCN(CC)CNCCC[NH2+]c1c2ccccc2[n+](C)c2ccccc12 (optimized conformer: 82.2403203509558 kcal/mol)

>  <smiles>  (6) 
CCN(CC)CNCCCNc1c2ccccc2[n+](C)c2ccccc12

>  <score_type>  (6) 
oracle

>  <origin>  (6) 
adg

>  <m_score__min__energy>  (6) 
-3.6699999999999999

>  <m_primary>  (6) 
energy

$$$$
6:0
     RDKit          3D

 52 55  0  0  0  0  0  0  0  0999 V2000
   57.3860   33.7400   45.2620 C   0  0  0  0  0  0  0  0  0  0  0  0
   58.3350   33.3940   44.1150 C   0  0  0  0  0  0  0  0  0  0  0  0
   57.9710   32.0910   43.5190 N   0  0  0  0  0  0  0  0  0  0  0  0
   57.7690   32.2380   42.0660 C   0  0  0  0  0  0  0  0  0  0  0  0
   56.7640   31.5160   44.1580 C   0  0  0  0  0  0  0  0  0  0  0  0
   56.7850   29.9850   44.0330 C   0  0  0  0  0  0  0  0  0  0  0  0
   58.1360   29.4560   43.7550 N   0  0  0  0  0  0  0  0  0  0  0  0
   58.7120   28.7680   44.9050 C   0  0  0  0  0  0  0  0  0  0  0  0
   58.5560   27.3620   45.0880 C   0  0  0  0  0  0  0  0  0  0  0  0
   57.7930   26.5640   44.1950 C   0  0  0  0  0  0  0  0  0  0  0  0
   57.6490   25.1940   44.3890 C   0  0  0  0  0  0  0  0  0  0  0  0
   58.2520   24.5760   45.4710 C   0  0  0  0  0  0  0  0  0  0  0  0
   59.0030   25.3240   46.3710 C   0  0  0  0  0  0  0  0  0  0  0  0
   59.1780   26.7240   46.2040 C   0  0  0  0  0  0  0  0  0  0  0  0
   59.9270   27.4570   47.1030 N   0  0  0  0  0  0  0  0  0  0  0  0
   60.5970   26.7760   48.2360 C   0  0  0  0  0  0  0  0  0  0  0  0
   60.0480   28.8190   46.9660 C   0  0  0  0  0  0  0  0  0  0  0  0
   60.7540   29.5340   47.8900 N   0  0  0  0  0  0  0  0  0  0  0  0
   60.9200   30.8760   47.8250 C   0  0  0  0  0  0  0  0  0  0  0  0
   61.6570   31.5430   48.8120 C   0  0  0  0  0  0  0  0  0  0  0  0
   61.8240   32.9290   48.7420 C   0  0  0  0  0  0  0  0  0  0  0  0
   61.2550   33.6510   47.6880 C   0  0  0  0  0  0  0  0  0  0  0  0
   60.5180   32.9890   46.7010 C   0  0  0  0  0  0  0  0  0  0  0  0
   60.3490   31.5970   46.7660 C   0  0  0  0  0  0  0  0  0  0  0  0
   59.6180   30.9050   45.7970 C   0  0  0  0  0  0  0  0  0  0  0  0
   59.4500   29.5000   45.8750 C   0  0  0  0  0  0  0  0  0  0  0  0
   57.8896   33.5564   46.2226 H   0  0  0  0  0  0  0  0  0  0  0  0
   57.1004   34.8001   45.1945 H   0  0  0  0  0  0  0  0  0  0  0  0
   56.4851   33.1125   45.1945 H   0  0  0  0  0  0  0  0  0  0  0  0
   58.2712   34.1757   43.3437 H   0  0  0  0  0  0  0  0  0  0  0  0
   59.3608   33.3324   44.5074 H   0  0  0  0  0  0  0  0  0  0  0  0
   56.8923   32.8760   41.8804 H   0  0  0  0  0  0  0  0  0  0  0  0
   58.6605   32.7001   41.6168 H   0  0  0  0  0  0  0  0  0  0  0  0
   57.6035   31.2476   41.6168 H   0  0  0  0  0  0  0  0  0  0  0  0
   56.7467   31.7948   45.2219 H   0  0  0  0  0  0  0  0  0  0  0  0
   55.8671   31.9080   43.6561 H   0  0  0  0  0  0  0  0  0  0  0  0
   56.4234   29.5496   44.9762 H   0  0  0  0  0  0  0  0  0  0  0  0
   56.1392   29.7111   43.1857 H   0  0  0  0  0  0  0  0  0  0  0  0
   58.7610   30.2450   43.4760 H   0  0  0  0  0  0  0  0  0  0  0  0
   58.1280   28.8780   42.8890 H   0  0  0  0  0  0  0  0  0  0  0  0
   57.3053   27.0394   43.3312 H   0  0  0  0  0  0  0  0  0  0  0  0
   57.0538   24.5997   43.6801 H   0  0  0  0  0  0  0  0  0  0  0  0
   58.1369   23.4921   45.6190 H   0  0  0  0  0  0  0  0  0  0  0  0
   59.4713   24.8214   47.2301 H   0  0  0  0  0  0  0  0  0  0  0  0
   60.2067   27.1727   49.1848 H   0  0  0  0  0  0  0  0  0  0  0  0
   60.4006   25.6950   48.1821 H   0  0  0  0  0  0  0  0  0  0  0  0
   61.6810   26.9548   48.1821 H   0  0  0  0  0  0  0  0  0  0  0  0
   62.1042   30.9762   49.6419 H   0  0  0  0  0  0  0  0  0  0  0  0
   62.4036   33.4524   49.5167 H   0  0  0  0  0  0  0  0  0  0  0  0
   61.3875   34.7417   47.6353 H   0  0  0  0  0  0  0  0  0  0  0  0
   60.0706   33.5592   45.8735 H   0  0  0  0  0  0  0  0  0  0  0  0
   59.1661   31.4591   44.9610 H   0  0  0  0  0  0  0  0  0  0  0  0
  1  2  1  0
  2  3  1  0
  3  4  1  0
  3  5  1  0
  5  6  1  0
  6  7  1  0
  7  8  1  0
  8  9  2  0
  9 10  1  0
 10 11  2  0
 11 12  1  0
 12 13  2  0
 13 14  1  0
 14 15  2  0
 15 16  1  0
 15 17  1  0
 17 18  2  0
 18 19  1  0
 19 20  2  0
 20 21  1  0
 21 22  2  0
 22 23  1  0
 23 24  2  0
 24 25  1  0
 25 26  2  0
 26  8  1  0
 14  9  1  0
 26 17  1  0
 24 19  1  0
  1 27  1  0
  1 28  1  0
  1 29  1  0
  2 30  1  0
  2 31  1  0
  4 32  1  0
  4 33  1  0
  4 34  1  0
  5 35  1  0
  5 36  1  0
  6 37  1  0
  6 38  1  0
  7 39  1  0
  7 40  1  0
 10 41  1  0
 11 42  1  0
 12 43  1  0
 13 44  1  0
 16 45  1  0
 16 46  1  0
 16 47  1  0
 20 48  1  0
 21 49  1  0
 22 50  1  0
 23 51  1  0
 25 52  1  0
M  CHG  2   7   1  15   1
M  END
>  <UniqueID>  (7) 
7

>  <SMILES>  (7) 
CCN(C)CC[NH2+]c1c2ccccc2[n+](C)c2nc3ccccc3cc12

>  <Energy>  (7) 
81.23834992691631

>  <Genealogy>  (7) 
CCN(C)CC[NH2+]c1c2ccccc2[n+](C)c2nc3ccccc3cc12 (protonated)
CCN(C)CC[NH2+]c1c2ccccc2[n+](C)c2nc3ccccc3cc12 (3D coordinates assigned)
CCN(C)CC[NH2+]c1c2ccccc2[n+](C)c2nc3ccccc3cc12 (optimized conformer: 81.23834992691631 kcal/mol)

>  <smiles>  (7) 
CCN(C)CCNc1c2ccccc2[n+](C)c2nc3ccccc3cc12

>  <score_type>  (7) 
oracle

>  <origin>  (7) 
adg

>  <m_score__min__energy>  (7) 
-4.8200000000000003

>  <m_primary>  (7) 
energy

$$$$
7:0
     RDKit          3D

 76 78  0  0  0  0  0  0  0  0999 V2000
   65.7610   31.5300   51.0830 C   0  0  0  0  0  0  0  0  0  0  0  0
   65.3200   31.0840   52.4700 C   0  0  0  0  0  0  0  0  0  0  0  0
   64.2840   31.9290   52.9180 O   0  0  0  0  0  0  0  0  0  0  0  0
   63.9000   31.5540   54.2250 C   0  0  0  0  0  0  0  0  0  0  0  0
   62.4530   31.9970   54.4910 C   0  0  0  0  0  0  0  0  0  0  0  0
   61.8210   32.6360   53.3130 N   0  0  0  0  0  0  0  0  0  0  0  0
   60.3480   32.7030   53.3900 C   0  0  0  0  0  0  0  0  0  0  0  0
   59.6880   33.4210   52.1960 C   0  0  0  0  0  0  0  0  0  0  0  0
   58.7920   32.4990   51.3660 C   0  0  0  0  0  0  0  0  0  0  0  0
   58.9460   32.8100   49.9840 O   0  0  0  0  0  0  0  0  0  0  0  0
   58.8660   31.8720   48.9400 C   0  0  0  0  0  0  0  0  0  0  0  0
   59.1750   30.5190   49.1550 C   0  0  0  0  0  0  0  0  0  0  0  0
   59.1470   29.6080   48.1080 C   0  0  0  0  0  0  0  0  0  0  0  0
   58.8130   30.0240   46.8170 C   0  0  0  0  0  0  0  0  0  0  0  0
   58.8310   29.0920   45.7670 C   0  0  0  0  0  0  0  0  0  0  0  0
   58.5120   29.4870   44.4700 C   0  0  0  0  0  0  0  0  0  0  0  0
   58.1750   30.8130   44.2090 C   0  0  0  0  0  0  0  0  0  0  0  0
   58.1530   31.7540   45.2410 C   0  0  0  0  0  0  0  0  0  0  0  0
   58.4690   31.3810   46.5690 C   0  0  0  0  0  0  0  0  0  0  0  0
   58.4750   32.3110   47.6530 C   0  0  0  0  0  0  0  0  0  0  0  0
   58.1390   33.7880   47.4770 C   0  0  0  0  0  0  0  0  0  0  0  0
   59.3830   34.6800   47.6210 C   0  0  0  0  0  0  0  0  0  0  0  0
   59.9710   34.9850   46.3100 N   0  0  0  0  0  0  0  0  0  0  0  0
   60.8020   33.8840   45.7920 C   0  0  0  0  0  0  0  0  0  0  0  0
   62.2360   33.8410   46.3720 C   0  0  0  0  0  0  0  0  0  0  0  0
   62.3400   33.0790   47.6730 C   0  0  0  0  0  0  0  0  0  0  0  0
   62.2530   31.6820   47.6870 C   0  0  0  0  0  0  0  0  0  0  0  0
   62.2650   30.9870   48.8950 C   0  0  0  0  0  0  0  0  0  0  0  0
   62.3960   31.6710   50.1210 C   0  0  0  0  0  0  0  0  0  0  0  0
   62.3670   30.9780   51.3400 O   0  0  0  0  0  0  0  0  0  0  0  0
   62.1150   29.5830   51.4770 C   0  0  0  0  0  0  0  0  0  0  0  0
   62.5460   33.0810   50.1070 C   0  0  0  0  0  0  0  0  0  0  0  0
   62.7400   33.8630   51.2600 O   0  0  0  0  0  0  0  0  0  0  0  0
   63.9090   34.6050   51.5910 C   0  0  0  0  0  0  0  0  0  0  0  0
   62.4970   33.7660   48.8860 C   0  0  0  0  0  0  0  0  0  0  0  0
   66.5316   32.3094   51.1762 H   0  0  0  0  0  0  0  0  0  0  0  0
   66.1737   30.6700   50.5352 H   0  0  0  0  0  0  0  0  0  0  0  0
   64.8964   31.9330   50.5352 H   0  0  0  0  0  0  0  0  0  0  0  0
   64.9562   30.0469   52.4252 H   0  0  0  0  0  0  0  0  0  0  0  0
   66.1706   31.1394   53.1653 H   0  0  0  0  0  0  0  0  0  0  0  0
   63.9717   30.4611   54.3270 H   0  0  0  0  0  0  0  0  0  0  0  0
   64.5674   32.0393   54.9524 H   0  0  0  0  0  0  0  0  0  0  0  0
   61.8610   31.1132   54.7710 H   0  0  0  0  0  0  0  0  0  0  0  0
   62.4790   32.7440   55.2981 H   0  0  0  0  0  0  0  0  0  0  0  0
   62.1620   33.6250   53.2680 H   0  0  0  0  0  0  0  0  0  0  0  0
   62.1180   32.1950   52.4120 H   0  0  0  0  0  0  0  0  0  0  0  0
   59.9572   31.6757   53.4345 H   0  0  0  0  0  0  0  0  0  0  0  0
   60.1033   33.2895   54.2879 H   0  0  0  0  0  0  0  0  0  0  0  0
   59.0770   34.2511   52.5801 H   0  0  0  0  0  0  0  0  0  0  0  0
   60.4949   33.7759   51.5380 H   0  0  0  0  0  0  0  0  0  0  0  0
   59.0800   31.4519   51.5411 H   0  0  0  0  0  0  0  0  0  0  0  0
   57.7421   32.6431   51.6609 H   0  0  0  0  0  0  0  0  0  0  0  0
   59.4425   30.1769   50.1656 H   0  0  0  0  0  0  0  0  0  0  0  0
   59.3894   28.5517   48.2962 H   0  0  0  0  0  0  0  0  0  0  0  0
   59.0984   28.0444   45.9698 H   0  0  0  0  0  0  0  0  0  0  0  0
   58.5262   28.7518   43.6519 H   0  0  0  0  0  0  0  0  0  0  0  0
   57.9245   31.1212   43.1832 H   0  0  0  0  0  0  0  0  0  0  0  0
   57.8868   32.7979   45.0187 H   0  0  0  0  0  0  0  0  0  0  0  0
   57.7079   33.9378   46.4762 H   0  0  0  0  0  0  0  0  0  0  0  0
   57.4237   34.0710   48.2633 H   0  0  0  0  0  0  0  0  0  0  0  0
   59.0952   35.6208   48.1131 H   0  0  0  0  0  0  0  0  0  0  0  0
   60.1307   34.1416   48.2220 H   0  0  0  0  0  0  0  0  0  0  0  0
   59.2210   35.2020   45.6170 H   0  0  0  0  0  0  0  0  0  0  0  0
   60.3040   32.9334   46.0337 H   0  0  0  0  0  0  0  0  0  0  0  0
   60.9050   34.0496   44.7094 H   0  0  0  0  0  0  0  0  0  0  0  0
   62.8953   33.3607   45.6340 H   0  0  0  0  0  0  0  0  0  0  0  0
   62.5301   34.8799   46.5823 H   0  0  0  0  0  0  0  0  0  0  0  0
   62.1747   31.1295   46.7391 H   0  0  0  0  0  0  0  0  0  0  0  0
   62.1711   29.8910   48.8919 H   0  0  0  0  0  0  0  0  0  0  0  0
   62.0679   29.3220   52.5446 H   0  0  0  0  0  0  0  0  0  0  0  0
   61.1574   29.3344   50.9961 H   0  0  0  0  0  0  0  0  0  0  0  0
   62.9251   29.0151   50.9961 H   0  0  0  0  0  0  0  0  0  0  0  0
   64.0065   34.6669   52.6849 H   0  0  0  0  0  0  0  0  0  0  0  0
   64.7932   34.1024   51.1719 H   0  0  0  0  0  0  0  0  0  0  0  0
   63.8306   35.6190   51.1719 H   0  0  0  0  0  0  0  0  0  0  0  0
   62.5832   34.8626   48.8782 H   0  0  0  0  0  0  0  0  0  0  0  0
  1  2  1  0
  2  3  1  0
  3  4  1  0
  4  5  1  0
  5  6  1  0
  6  7  1  0
  7  8  1  0
  8  9  1  0
  9 10  1  0
 10 11  1  0
 11 12  2  0
 12 13  1  0
 13 14  2  0
 14 15  1  0
 15 16  2  0
 16 17  1  0
 17 18  2  0
 18 19  1  0
 19 20  2  0
 20 21  1  0
 21 22  1  0
 22 23  1  0
 23 24  1  0
 24 25  1  0
 25 26  1  0
 26 27  2  0
 27 28  1  0
 28 29  2  0
 29 30  1  0
 30 31  1  0
 29 32  1  0
 32 33  1  0
 33 34  1  0
 32 35  2  0
 20 11  1  0
 35 26  1  0
 19 14  1  0
  1 36  1  0
  1 37  1  0
  1 38  1  0
  2 39  1  0
  2 40  1  0
  4 41  1  0
  4 42  1  0
  5 43  1  0
  5 44  1  0
  6 45  1  0
  6 46  1  0
  7 47  1  0
  7 48  1  0
  8 49  1  0
  8 50  1  0
  9 51  1  0
  9 52  1  0
 12 53  1  0
 13 54  1  0
 15 55  1  0
 16 56  1  0
 17 57  1  0
 18 58  1  0
 21 59  1  0
 21 60  1  0
 22 61  1  0
 22 62  1  0
 23 63  1  0
 24 64  1  0
 24 65  1  0
 25 66  1  0
 25 67  1  0
 27 68  1  0
 28 69  1  0
 31 70  1  0
 31 71  1  0
 31 72  1  0
 34 73  1  0
 34 74  1  0
 34 75  1  0
 35 76  1  0
M  CHG  1   6   1
M  END
>  <UniqueID>  (8) 
8

>  <SMILES>  (8) 
CCOCC[NH2+]CCCOc1ccc2ccccc2c1CCNCCc1ccc(OC)c(OC)c1

>  <Energy>  (8) 
72.33095953946243

>  <Genealogy>  (8) 
CCOCC[NH2+]CCCOc1ccc2ccccc2c1CCNCCc1ccc(OC)c(OC)c1 (protonated)
CCOCC[NH2+]CCCOc1ccc2ccccc2c1CCNCCc1ccc(OC)c(OC)c1 (3D coordinates assigned)
CCOCC[NH2+]CCCOc1ccc2ccccc2c1CCNCCc1ccc(OC)c(OC)c1 (optimized conformer: 72.33095953946243 kcal/mol)

>  <smiles>  (8) 
CCOCCNCCCOc1ccc2ccccc2c1CCNCCc1ccc(OC)c(OC)c1

>  <score_type>  (8) 
oracle

>  <origin>  (8) 
adg

>  <m_score__min__energy>  (8) 
-6.5199999999999996

>  <m_primary>  (8) 
energy

$$$$
8:0
     RDKit          3D

 42 44  0  0  0  0  0  0  0  0999 V2000
   57.3700   26.8640   45.2010 C   0  0  0  0  0  0  0  0  0  0  0  0
   56.9970   28.0270   45.9330 O   0  0  0  0  0  0  0  0  0  0  0  0
   57.7790   29.1880   46.0410 C   0  0  0  0  0  0  0  0  0  0  0  0
   58.9420   29.2320   46.8230 C   0  0  0  0  0  0  0  0  0  0  0  0
   59.6910   30.4120   46.9540 C   0  0  0  0  0  0  0  0  0  0  0  0
   59.1830   31.6240   46.3840 C   0  0  0  0  0  0  0  0  0  0  0  0
   58.1530   31.5040   45.4140 C   0  0  0  0  0  0  0  0  0  0  0  0
   57.9320   32.5390   44.5030 O   0  0  0  0  0  0  0  0  0  0  0  0
   58.0910   32.3380   43.1040 C   0  0  0  0  0  0  0  0  0  0  0  0
   57.3910   30.3170   45.3180 C   0  0  0  0  0  0  0  0  0  0  0  0
   56.2400   30.1980   44.5160 O   0  0  0  0  0  0  0  0  0  0  0  0
   56.2020   29.7270   43.1720 C   0  0  0  0  0  0  0  0  0  0  0  0
   59.7910   33.0140   46.6570 C   0  0  1  0  0  0  0  0  0  0  0  0
   58.8070   34.1100   46.9580 C   0  0  0  0  0  0  0  0  0  0  0  0
   57.7060   34.2890   46.3780 O   0  0  0  0  0  0  0  0  0  0  0  0
   59.2550   34.9670   47.9420 O   0  0  0  0  0  0  0  0  0  0  0  0
   60.5210   34.5630   48.4190 C   0  0  0  0  0  0  0  0  0  0  0  0
   60.6450   33.1070   47.9410 C   0  0  2  0  0  0  0  0  0  0  0  0
   62.0920   32.6090   47.7600 C   0  0  2  0  0  0  0  0  0  0  0  0
   62.8230   33.4860   46.9380 O   0  0  0  0  0  0  0  0  0  0  0  0
   62.1260   31.2060   47.1310 C   0  0  0  0  0  0  0  0  0  0  0  0
   61.0290   30.2770   47.6760 C   0  0  0  0  0  0  0  0  0  0  0  0
   57.6289   26.0568   45.9021 H   0  0  0  0  0  0  0  0  0  0  0  0
   56.5294   26.5441   44.5677 H   0  0  0  0  0  0  0  0  0  0  0  0
   58.2399   27.0926   44.5677 H   0  0  0  0  0  0  0  0  0  0  0  0
   59.2745   28.3226   47.3449 H   0  0  0  0  0  0  0  0  0  0  0  0
   58.7649   31.4861   42.9302 H   0  0  0  0  0  0  0  0  0  0  0  0
   57.1111   32.1290   42.6499 H   0  0  0  0  0  0  0  0  0  0  0  0
   58.5199   33.2434   42.6499 H   0  0  0  0  0  0  0  0  0  0  0  0
   56.1135   28.6306   43.1701 H   0  0  0  0  0  0  0  0  0  0  0  0
   55.3363   30.1656   42.6541 H   0  0  0  0  0  0  0  0  0  0  0  0
   57.1268   30.0212   42.6541 H   0  0  0  0  0  0  0  0  0  0  0  0
   60.3399   33.1384   45.7119 H   0  0  0  0  0  0  0  0  0  0  0  0
   61.3190   35.1860   47.9889 H   0  0  0  0  0  0  0  0  0  0  0  0
   60.6160   34.6622   49.5104 H   0  0  0  0  0  0  0  0  0  0  0  0
   60.2733   32.4214   48.7167 H   0  0  0  0  0  0  0  0  0  0  0  0
   62.5461   32.5698   48.7611 H   0  0  0  0  0  0  0  0  0  0  0  0
   63.5920   32.9770   46.5700 H   0  0  0  0  0  0  0  0  0  0  0  0
   61.9925   31.3059   46.0437 H   0  0  0  0  0  0  0  0  0  0  0  0
   63.0962   30.7545   47.3857 H   0  0  0  0  0  0  0  0  0  0  0  0
   61.3738   29.2373   47.5754 H   0  0  0  0  0  0  0  0  0  0  0  0
   60.8575   30.5648   48.7237 H   0  0  0  0  0  0  0  0  0  0  0  0
  1  2  1  0
  2  3  1  0
  3  4  2  0
  4  5  1  0
  5  6  2  0
  6  7  1  0
  7  8  1  0
  8  9  1  0
  7 10  2  0
 10 11  1  0
 11 12  1  0
  6 13  1  0
 13 14  1  0
 14 15  2  0
 14 16  1  0
 16 17  1  0
 17 18  1  0
 18 19  1  0
 19 20  1  0
 19 21  1  0
 21 22  1  0
 10  3  1  0
 18 13  1  0
 22  5  1  0
  1 23  1  0
  1 24  1  0
  1 25  1  0
  4 26  1  0
  9 27  1  0
  9 28  1  0
  9 29  1  0
 12 30  1  0
 12 31  1  0
 12 32  1  0
 13 33  1  6
 17 34  1  0
 17 35  1  0
 18 36  1  1
 19 37  1  1
 20 38  1  0
 21 39  1  0
 21 40  1  0
 22 41  1  0
 22 42  1  0
M  END
>  <UniqueID>  (9) 
9

>  <SMILES>  (9) 
COc1cc2c(c(OC)c1OC)[C@H]1C(=O)OC[C@@H]1C(O)CC2

>  <Energy>  (9) 
81.7059289039947

>  <Genealogy>  (9) 
COc1cc2c(c(OC)c1OC)[C@H]1C(=O)OC[C@@H]1C(O)CC2 (chirality)
COc1cc2c(c(OC)c1OC)[C@H]1C(=O)OC[C@@H]1C(O)CC2 (3D coordinates assigned)
COc1cc2c(c(OC)c1OC)[C@H]1C(=O)OC[C@@H]1C(O)CC2 (nonaromatic ring conformer: 81.7059289039947 kcal/mol)

>  <smiles>  (9) 
COc1cc2c(c(OC)c1OC)C1C(=O)OCC1C(O)CC2

>  <score_type>  (9) 
oracle

>  <origin>  (9) 
adg

>  <m_score__min__energy>  (9) 
-4.9299999999999997

>  <m_primary>  (9) 
energy

$$$$
9:0
     RDKit          3D

 53 54  0  0  0  0  0  0  0  0999 V2000
   59.2980   34.9430   47.6350 C   0  0  0  0  0  0  0  0  0  0  0  0
   59.6100   33.7080   46.7760 C   0  0  1  0  0  0  0  0  0  0  0  0
   59.4250   33.9710   45.2650 C   0  0  0  0  0  0  0  0  0  0  0  0
   58.1830   33.3250   44.7710 N   0  0  0  0  0  0  0  0  0  0  0  0
   57.0250   34.2230   44.9380 C   0  0  0  0  0  0  0  0  0  0  0  0
   57.9370   32.0230   45.4350 C   0  0  0  0  0  0  0  0  0  0  0  0
   57.6230   30.9380   44.3940 C   0  0  0  0  0  0  0  0  0  0  0  0
   56.5140   30.0760   44.8650 N   0  0  0  0  0  0  0  0  0  0  0  0
   57.0240   28.7830   45.3590 C   0  0  0  0  0  0  0  0  0  0  0  0
   55.5480   29.8360   43.7790 C   0  0  0  0  0  0  0  0  0  0  0  0
   61.0210   33.1960   47.0570 C   0  0  0  0  0  0  0  0  0  0  0  0
   62.1190   33.9350   46.5610 C   0  0  0  0  0  0  0  0  0  0  0  0
   63.4280   33.5020   46.7630 C   0  0  0  0  0  0  0  0  0  0  0  0
   63.6730   32.3190   47.4540 C   0  0  0  0  0  0  0  0  0  0  0  0
   62.6100   31.5660   47.9500 C   0  0  0  0  0  0  0  0  0  0  0  0
   61.2780   31.9860   47.7670 C   0  0  0  0  0  0  0  0  0  0  0  0
   60.1740   31.1080   48.3280 C   0  0  0  0  0  0  0  0  0  0  0  0
   60.1210   29.7590   47.6490 C   0  0  0  0  0  0  0  0  0  0  0  0
   59.7110   28.6150   48.3560 C   0  0  0  0  0  0  0  0  0  0  0  0
   59.6540   27.3720   47.7150 C   0  0  0  0  0  0  0  0  0  0  0  0
   59.9760   27.2660   46.3600 C   0  0  0  0  0  0  0  0  0  0  0  0
   59.9140   26.0620   45.7400 F   0  0  0  0  0  0  0  0  0  0  0  0
   60.3580   28.4030   45.6430 C   0  0  0  0  0  0  0  0  0  0  0  0
   60.4270   29.6450   46.2810 C   0  0  0  0  0  0  0  0  0  0  0  0
   59.3656   34.6756   48.6998 H   0  0  0  0  0  0  0  0  0  0  0  0
   60.0233   35.7388   47.4101 H   0  0  0  0  0  0  0  0  0  0  0  0
   58.2817   35.2988   47.4101 H   0  0  0  0  0  0  0  0  0  0  0  0
   58.8818   32.9342   47.0606 H   0  0  0  0  0  0  0  0  0  0  0  0
   59.3621   35.0554   45.0917 H   0  0  0  0  0  0  0  0  0  0  0  0
   60.2843   33.5486   44.7235 H   0  0  0  0  0  0  0  0  0  0  0  0
   56.8299   34.3743   46.0099 H   0  0  0  0  0  0  0  0  0  0  0  0
   57.2411   35.1920   44.4643 H   0  0  0  0  0  0  0  0  0  0  0  0
   56.1403   33.7725   44.4643 H   0  0  0  0  0  0  0  0  0  0  0  0
   58.8329   31.7313   46.0026 H   0  0  0  0  0  0  0  0  0  0  0  0
   57.0758   32.1262   46.1116 H   0  0  0  0  0  0  0  0  0  0  0  0
   57.3327   31.4171   43.4473 H   0  0  0  0  0  0  0  0  0  0  0  0
   58.5187   30.3172   44.2443 H   0  0  0  0  0  0  0  0  0  0  0  0
   57.0233   28.7847   46.4590 H   0  0  0  0  0  0  0  0  0  0  0  0
   56.3790   27.9705   44.9932 H   0  0  0  0  0  0  0  0  0  0  0  0
   58.0500   28.6296   44.9932 H   0  0  0  0  0  0  0  0  0  0  0  0
   54.5656   29.5919   44.2094 H   0  0  0  0  0  0  0  0  0  0  0  0
   55.4620   30.7401   43.1583 H   0  0  0  0  0  0  0  0  0  0  0  0
   55.8951   28.9968   43.1583 H   0  0  0  0  0  0  0  0  0  0  0  0
   61.9372   34.8674   46.0064 H   0  0  0  0  0  0  0  0  0  0  0  0
   64.2689   34.0961   46.3757 H   0  0  0  0  0  0  0  0  0  0  0  0
   64.7072   31.9777   47.6090 H   0  0  0  0  0  0  0  0  0  0  0  0
   62.8142   30.6308   48.4919 H   0  0  0  0  0  0  0  0  0  0  0  0
   60.3522   30.9574   49.4030 H   0  0  0  0  0  0  0  0  0  0  0  0
   59.2142   31.6150   48.1500 H   0  0  0  0  0  0  0  0  0  0  0  0
   59.4339   28.6971   49.4173 H   0  0  0  0  0  0  0  0  0  0  0  0
   59.3549   26.4766   48.2796 H   0  0  0  0  0  0  0  0  0  0  0  0
   60.6050   28.3206   44.5743 H   0  0  0  0  0  0  0  0  0  0  0  0
   60.7221   30.5377   45.7101 H   0  0  0  0  0  0  0  0  0  0  0  0
  1  2  1  0
  2  3  1  0
  3  4  1  0
  4  5  1  0
  4  6  1  0
  6  7  1  0
  7  8  1  0
  8  9  1  0
  8 10  1  0
  2 11  1  0
 11 12  2  0
 12 13  1  0
 13 14  2  0
 14 15  1  0
 15 16  2  0
 16 17  1  0
 17 18  1  0
 18 19  2  0
 19 20  1  0
 20 21  2  0
 21 22  1  0
 21 23  1  0
 23 24  2  0
 16 11  1  0
 24 18  1  0
  1 25  1  0
  1 26  1  0
  1 27  1  0
  2 28  1  1
  3 29  1  0
  3 30  1  0
  5 31  1  0
  5 32  1  0
  5 33  1  0
  6 34  1  0
  6 35  1  0
  7 36  1  0
  7 37  1  0
  9 38  1  0
  9 39  1  0
  9 40  1  0
 10 41  1  0
 10 42  1  0
 10 43  1  0
 12 44  1  0
 13 45  1  0
 14 46  1  0
 15 47  1  0
 17 48  1  0
 17 49  1  0
 19 50  1  0
 20 51  1  0
 23 52  1  0
 24 53  1  0
M  END
>  <UniqueID>  (10) 
10

>  <SMILES>  (10) 
C[C@@H](CN(C)CCN(C)C)c1ccccc1Cc1ccc(F)cc1

>  <Energy>  (10) 
53.77771774996602

>  <Genealogy>  (10) 
C[C@@H](CN(C)CCN(C)C)c1ccccc1Cc1ccc(F)cc1 (chirality)
C[C@@H](CN(C)CCN(C)C)c1ccccc1Cc1ccc(F)cc1 (3D coordinates assigned)
C[C@@H](CN(C)CCN(C)C)c1ccccc1Cc1ccc(F)cc1 (optimized conformer: 53.77771774996602 kcal/mol)

>  <smiles>  (10) 
CC(CN(C)CCN(C)C)c1ccccc1Cc1ccc(F)cc1

>  <score_type>  (10) 
oracle

>  <origin>  (10) 
adg

>  <m_score__min__energy>  (10) 
-7.6799999999999997

>  <m_primary>  (10) 
energy

$$$$
10:0
     RDKit          3D

 46 49  0  0  0  0  0  0  0  0999 V2000
   57.6890   22.2230   44.8930 C   0  0  0  0  0  0  0  0  0  0  0  0
   57.0830   23.1730   45.7630 O   0  0  0  0  0  0  0  0  0  0  0  0
   57.1120   24.5620   45.5650 C   0  0  0  0  0  0  0  0  0  0  0  0
   56.4950   25.3770   46.5150 C   0  0  0  0  0  0  0  0  0  0  0  0
   56.4950   26.7630   46.3680 C   0  0  0  0  0  0  0  0  0  0  0  0
   57.1140   27.3770   45.2650 C   0  0  0  0  0  0  0  0  0  0  0  0
   57.0680   28.8620   45.1870 C   0  0  0  0  0  0  0  0  0  0  0  0
   58.0980   29.6920   45.4490 N   0  0  0  0  0  0  0  0  0  0  0  0
   57.5440   30.9030   45.2370 C   0  0  0  0  0  0  0  0  0  0  0  0
   58.2720   32.1800   45.3930 C   0  0  0  0  0  0  0  0  0  0  0  0
   57.8270   33.3360   44.7360 C   0  0  0  0  0  0  0  0  0  0  0  0
   58.5220   34.5330   44.9010 C   0  0  0  0  0  0  0  0  0  0  0  0
   59.6270   34.5770   45.6890 N   0  0  0  0  0  0  0  0  0  0  0  0
   60.1000   33.4790   46.3410 C   0  0  0  0  0  0  0  0  0  0  0  0
   61.2820   33.5940   47.1640 N   0  0  0  0  0  0  0  0  0  0  0  0
   61.1790   33.8370   48.6090 C   0  0  0  0  0  0  0  0  0  0  0  0
   62.4170   33.2950   49.3300 C   0  0  0  0  0  0  0  0  0  0  0  0
   63.6020   33.7720   48.7250 O   0  0  0  0  0  0  0  0  0  0  0  0
   63.7080   33.2500   47.4150 C   0  0  0  0  0  0  0  0  0  0  0  0
   62.5880   33.7950   46.5230 C   0  0  0  0  0  0  0  0  0  0  0  0
   59.4170   32.2550   46.2030 C   0  0  0  0  0  0  0  0  0  0  0  0
   56.2520   30.8130   44.8680 N   0  0  0  0  0  0  0  0  0  0  0  0
   55.9960   29.5410   44.8480 O   0  0  0  0  0  0  0  0  0  0  0  0
   57.7440   26.5540   44.2890 C   0  0  0  0  0  0  0  0  0  0  0  0
   58.4300   27.1210   43.0720 C   0  0  0  0  0  0  0  0  0  0  0  0
   57.7350   25.1560   44.4550 C   0  0  0  0  0  0  0  0  0  0  0  0
   58.1859   21.4440   45.4898 H   0  0  0  0  0  0  0  0  0  0  0  0
   56.9175   21.7625   44.2585 H   0  0  0  0  0  0  0  0  0  0  0  0
   58.4319   22.7285   44.2585 H   0  0  0  0  0  0  0  0  0  0  0  0
   56.0042   24.9215   47.3877 H   0  0  0  0  0  0  0  0  0  0  0  0
   56.0023   27.3872   47.1280 H   0  0  0  0  0  0  0  0  0  0  0  0
   56.9345   33.2985   44.0940 H   0  0  0  0  0  0  0  0  0  0  0  0
   58.1745   35.4440   44.3917 H   0  0  0  0  0  0  0  0  0  0  0  0
   61.0986   34.9190   48.7900 H   0  0  0  0  0  0  0  0  0  0  0  0
   60.2867   33.3225   48.9952 H   0  0  0  0  0  0  0  0  0  0  0  0
   62.3930   33.6199   50.3806 H   0  0  0  0  0  0  0  0  0  0  0  0
   62.4077   32.1968   49.2672 H   0  0  0  0  0  0  0  0  0  0  0  0
   64.6808   33.5373   46.9894 H   0  0  0  0  0  0  0  0  0  0  0  0
   63.6210   32.1545   47.4626 H   0  0  0  0  0  0  0  0  0  0  0  0
   62.7483   34.8703   46.3556 H   0  0  0  0  0  0  0  0  0  0  0  0
   62.6018   33.2578   45.5632 H   0  0  0  0  0  0  0  0  0  0  0  0
   59.7797   31.3594   46.7287 H   0  0  0  0  0  0  0  0  0  0  0  0
   59.2421   27.7922   43.3882 H   0  0  0  0  0  0  0  0  0  0  0  0
   58.8464   26.2999   42.4699 H   0  0  0  0  0  0  0  0  0  0  0  0
   57.7020   27.6845   42.4699 H   0  0  0  0  0  0  0  0  0  0  0  0
   58.2237   24.5186   43.7034 H   0  0  0  0  0  0  0  0  0  0  0  0
  1  2  1  0
  2  3  1  0
  3  4  2  0
  4  5  1  0
  5  6  2  0
  6  7  1  0
  7  8  2  0
  8  9  1  0
  9 10  1  0
 10 11  2  0
 11 12  1  0
 12 13  2  0
 13 14  1  0
 14 15  1  0
 15 16  1  0
 16 17  1  0
 17 18  1  0
 18 19  1  0
 19 20  1  0
 14 21  2  0
  9 22  2  0
 22 23  1  0
  6 24  1  0
 24 25  1  0
 24 26  2  0
 26  3  1  0
 23  7  1  0
 21 10  1  0
 20 15  1  0
  1 27  1  0
  1 28  1  0
  1 29  1  0
  4 30  1  0
  5 31  1  0
 11 32  1  0
 12 33  1  0
 16 34  1  0
 16 35  1  0
 17 36  1  0
 17 37  1  0
 19 38  1  0
 19 39  1  0
 20 40  1  0
 20 41  1  0
 21 42  1  0
 25 43  1  0
 25 44  1  0
 25 45  1  0
 26 46  1  0
M  END
>  <UniqueID>  (11) 
11

>  <SMILES>  (11) 
COc1ccc(-c2nc(-c3ccnc(N4CCOCC4)c3)no2)c(C)c1

>  <Energy>  (11) 
90.45150106136512

>  <Genealogy>  (11) 
COc1ccc(-c2nc(-c3ccnc(N4CCOCC4)c3)no2)c(C)c1 (3D coordinates assigned)
COc1ccc(-c2nc(-c3ccnc(N4CCOCC4)c3)no2)c(C)c1 (nonaromatic ring conformer: 90.45150106136512 kcal/mol)

>  <smiles>  (11) 
COc1ccc(-c2nc(-c3ccnc(N4CCOCC4)c3)no2)c(C)c1

>  <score_type>  (11) 
oracle

>  <origin>  (11) 
adg

>  <m_score__min__energy>  (11) 
-8.7200000000000006

>  <m_primary>  (11) 
energy

$$$$
11:0
     RDKit          3D

 37 38  0  0  0  0  0  0  0  0999 V2000
   56.2800   29.6900   42.6470 C   0  0  0  0  0  0  0  0  0  0  0  0
   55.1760   29.7160   43.7090 C   0  0  0  0  0  0  0  0  0  0  0  0
   55.6410   29.2460   45.0220 N   0  0  0  0  0  0  0  0  0  0  0  0
   56.8760   28.4590   44.9240 C   0  0  0  0  0  0  0  0  0  0  0  0
   57.9300   29.0540   45.8240 C   0  0  0  0  0  0  0  0  0  0  0  0
   58.7050   28.2110   46.6370 C   0  0  0  0  0  0  0  0  0  0  0  0
   59.6830   28.7430   47.4790 C   0  0  0  0  0  0  0  0  0  0  0  0
   60.4310   27.9200   48.2530 F   0  0  0  0  0  0  0  0  0  0  0  0
   59.8900   30.1220   47.5240 C   0  0  0  0  0  0  0  0  0  0  0  0
   59.1140   30.9750   46.7360 C   0  0  0  0  0  0  0  0  0  0  0  0
   58.1220   30.4510   45.8830 C   0  0  0  0  0  0  0  0  0  0  0  0
   57.3070   31.2790   45.0890 O   0  0  0  0  0  0  0  0  0  0  0  0
   57.7630   32.3360   44.2450 C   0  0  0  0  0  0  0  0  0  0  0  0
   57.3240   33.6980   44.7890 C   0  0  0  0  0  0  0  0  0  0  0  0
   58.2490   34.1590   45.8220 N   0  0  0  0  0  0  0  0  0  0  0  0
   59.4150   34.7980   45.6350 C   0  0  0  0  0  0  0  0  0  0  0  0
   60.0070   34.9630   46.8670 C   0  0  0  0  0  0  0  0  0  0  0  0
   59.2230   34.4220   47.8240 N   0  0  0  0  0  0  0  0  0  0  0  0
   58.1610   33.9370   47.1480 C   0  0  0  0  0  0  0  0  0  0  0  0
   57.2629   29.6669   43.1404 H   0  0  0  0  0  0  0  0  0  0  0  0
   56.1637   28.7943   42.0191 H   0  0  0  0  0  0  0  0  0  0  0  0
   56.2060   30.5901   42.0191 H   0  0  0  0  0  0  0  0  0  0  0  0
   54.8124   30.7489   43.8135 H   0  0  0  0  0  0  0  0  0  0  0  0
   54.3783   29.0358   43.3759 H   0  0  0  0  0  0  0  0  0  0  0  0
   55.8060   30.0720   45.6460 H   0  0  0  0  0  0  0  0  0  0  0  0
   56.6746   27.4224   45.2322 H   0  0  0  0  0  0  0  0  0  0  0  0
   57.2349   28.4718   43.8843 H   0  0  0  0  0  0  0  0  0  0  0  0
   58.5402   27.1238   46.6101 H   0  0  0  0  0  0  0  0  0  0  0  0
   60.6667   30.5387   48.1821 H   0  0  0  0  0  0  0  0  0  0  0  0
   59.2780   32.0618   46.7814 H   0  0  0  0  0  0  0  0  0  0  0  0
   58.8613   32.3063   44.1923 H   0  0  0  0  0  0  0  0  0  0  0  0
   57.3263   32.2000   43.2446 H   0  0  0  0  0  0  0  0  0  0  0  0
   57.3071   34.4280   43.9663 H   0  0  0  0  0  0  0  0  0  0  0  0
   56.3206   33.5988   45.2287 H   0  0  0  0  0  0  0  0  0  0  0  0
   59.8243   35.1304   44.6696 H   0  0  0  0  0  0  0  0  0  0  0  0
   60.9721   35.4601   47.0447 H   0  0  0  0  0  0  0  0  0  0  0  0
   57.3172   33.4181   47.6262 H   0  0  0  0  0  0  0  0  0  0  0  0
  1  2  1  0
  2  3  1  0
  3  4  1  0
  4  5  1  0
  5  6  2  0
  6  7  1  0
  7  8  1  0
  7  9  2  0
  9 10  1  0
 10 11  2  0
 11 12  1  0
 12 13  1  0
 13 14  1  0
 14 15  1  0
 15 16  1  0
 16 17  2  0
 17 18  1  0
 18 19  2  0
 11  5  1  0
 19 15  1  0
  1 20  1  0
  1 21  1  0
  1 22  1  0
  2 23  1  0
  2 24  1  0
  3 25  1  0
  4 26  1  0
  4 27  1  0
  6 28  1  0
  9 29  1  0
 10 30  1  0
 13 31  1  0
 13 32  1  0
 14 33  1  0
 14 34  1  0
 16 35  1  0
 17 36  1  0
 19 37  1  0
M  END
>  <UniqueID>  (12) 
12

>  <SMILES>  (12) 
CCNCc1cc(F)ccc1OCCn1ccnc1

>  <Energy>  (12) 
60.13865011579679

>  <Genealogy>  (12) 
CCNCc1cc(F)ccc1OCCn1ccnc1 (3D coordinates assigned)
CCNCc1cc(F)ccc1OCCn1ccnc1 (optimized conformer: 60.13865011579679 kcal/mol)

>  <smiles>  (12) 
CCNCc1cc(F)ccc1OCCn1ccnc1

>  <score_type>  (12) 
oracle

>  <origin>  (12) 
adg

>  <m_score__min__energy>  (12) 
-5.9100000000000001

>  <m_primary>  (12) 
energy

$$$$
12:0
     RDKit          3D

 42 42  0  0  0  0  0  0  0  0999 V2000
   59.5280   29.2590   48.4140 C   0  0  0  0  0  0  0  0  0  0  0  0
   58.9160   29.7250   47.0930 C   0  0  0  0  0  0  0  0  0  0  0  0
   59.9740   30.0210   46.0190 C   0  0  0  0  0  0  0  0  0  0  0  0
   59.9300   29.0150   44.8540 C   0  0  0  0  0  0  0  0  0  0  0  0
   58.6670   28.1390   44.8690 C   0  0  0  0  0  0  0  0  0  0  0  0
   57.7670   28.2570   43.6220 C   0  0  0  0  0  0  0  0  0  0  0  0
   56.6820   29.3520   43.7250 C   0  0  0  0  0  0  0  0  0  0  0  0
   57.0350   30.6620   43.0010 C   0  0  0  0  0  0  0  0  0  0  0  0
   57.3970   31.7520   43.9600 C   0  0  0  0  0  0  0  0  0  0  0  0
   58.1850   32.8050   43.6500 N   0  0  0  0  0  0  0  0  0  0  0  0
   58.2750   33.5030   44.7950 C   0  0  0  0  0  0  0  0  0  0  0  0
   59.0330   34.7140   44.9580 C   0  0  0  0  0  0  0  0  0  0  0  0
   59.6440   35.6880   45.0890 N   0  0  0  0  0  0  0  0  0  0  0  0
   57.5420   32.8440   45.7570 C   0  0  0  0  0  0  0  0  0  0  0  0
   57.3770   33.2330   47.1250 N   0  0  0  0  0  0  0  0  0  0  0  0
   58.2940   32.7770   48.1660 C   0  0  0  0  0  0  0  0  0  0  0  0
   59.5130   33.6920   48.2500 C   0  0  0  0  0  0  0  0  0  0  0  0
   57.0100   31.7720   45.2190 O   0  0  0  0  0  0  0  0  0  0  0  0
   58.9618   29.6902   49.2527 H   0  0  0  0  0  0  0  0  0  0  0  0
   59.4872   28.1612   48.4699 H   0  0  0  0  0  0  0  0  0  0  0  0
   60.5754   29.5903   48.4699 H   0  0  0  0  0  0  0  0  0  0  0  0
   58.2459   28.9371   46.7187 H   0  0  0  0  0  0  0  0  0  0  0  0
   58.3737   30.6613   47.2910 H   0  0  0  0  0  0  0  0  0  0  0  0
   59.7983   31.0308   45.6198 H   0  0  0  0  0  0  0  0  0  0  0  0
   60.9632   29.9397   46.4933 H   0  0  0  0  0  0  0  0  0  0  0  0
   59.9590   29.5733   43.9066 H   0  0  0  0  0  0  0  0  0  0  0  0
   60.7971   28.3467   44.9614 H   0  0  0  0  0  0  0  0  0  0  0  0
   58.9827   27.0894   44.9619 H   0  0  0  0  0  0  0  0  0  0  0  0
   58.0611   28.4941   45.7156 H   0  0  0  0  0  0  0  0  0  0  0  0
   58.4058   28.4848   42.7559 H   0  0  0  0  0  0  0  0  0  0  0  0
   57.2388   27.2973   43.5216 H   0  0  0  0  0  0  0  0  0  0  0  0
   55.7519   28.9576   43.2898 H   0  0  0  0  0  0  0  0  0  0  0  0
   56.5832   29.5985   44.7925 H   0  0  0  0  0  0  0  0  0  0  0  0
   57.8890   30.4792   42.3322 H   0  0  0  0  0  0  0  0  0  0  0  0
   56.1493   30.9871   42.4354 H   0  0  0  0  0  0  0  0  0  0  0  0
   58.6330   33.0210   42.7310 H   0  0  0  0  0  0  0  0  0  0  0  0
   56.5540   33.8170   47.3970 H   0  0  0  0  0  0  0  0  0  0  0  0
   57.7720   32.7812   49.1342 H   0  0  0  0  0  0  0  0  0  0  0  0
   58.6318   31.7597   47.9189 H   0  0  0  0  0  0  0  0  0  0  0  0
   59.7602   33.8775   49.3057 H   0  0  0  0  0  0  0  0  0  0  0  0
   60.3678   33.2106   47.7524 H   0  0  0  0  0  0  0  0  0  0  0  0
   59.2895   34.6472   47.7524 H   0  0  0  0  0  0  0  0  0  0  0  0
  1  2  1  0
  2  3  1  0
  3  4  1  0
  4  5  1  0
  5  6  1  0
  6  7  1  0
  7  8  1  0
  8  9  1  0
  9 10  2  0
 10 11  1  0
 11 12  1  0
 12 13  3  0
 11 14  2  0
 14 15  1  0
 15 16  1  0
 16 17  1  0
 14 18  1  0
 18  9  1  0
  1 19  1  0
  1 20  1  0
  1 21  1  0
  2 22  1  0
  2 23  1  0
  3 24  1  0
  3 25  1  0
  4 26  1  0
  4 27  1  0
  5 28  1  0
  5 29  1  0
  6 30  1  0
  6 31  1  0
  7 32  1  0
  7 33  1  0
  8 34  1  0
  8 35  1  0
 10 36  1  0
 15 37  1  0
 16 38  1  0
 16 39  1  0
 17 40  1  0
 17 41  1  0
 17 42  1  0
M  CHG  1  10   1
M  END
>  <UniqueID>  (13) 
13

>  <SMILES>  (13) 
CCCCCCCCc1[nH+]c(C#N)c(NCC)o1

>  <Energy>  (13) 
53.288477318705006

>  <Genealogy>  (13) 
CCCCCCCCc1[nH+]c(C#N)c(NCC)o1 (protonated)
CCCCCCCCc1[nH+]c(C#N)c(NCC)o1 (3D coordinates assigned)
CCCCCCCCc1[nH+]c(C#N)c(NCC)o1 (optimized conformer: 53.288477318705006 kcal/mol)

>  <smiles>  (13) 
CCCCCCCCc1nc(C#N)c(NCC)o1

>  <score_type>  (13) 
oracle

>  <origin>  (13) 
adg

>  <m_score__min__energy>  (13) 
-4.6100000000000003

>  <m_primary>  (13) 
energy

$$$$
13:0
     RDKit          3D

 48 51  0  0  0  0  0  0  0  0999 V2000
   57.3850   27.7760   46.1030 C   0  0  0  0  0  0  0  0  0  0  0  0
   57.4010   28.9880   45.2270 C   0  0  0  0  0  0  0  0  0  0  0  0
   56.2520   29.6440   44.9120 N   0  0  0  0  0  0  0  0  0  0  0  0
   56.4710   30.7230   44.1300 C   0  0  0  0  0  0  0  0  0  0  0  0
   58.1070   30.9080   43.8020 S   0  0  0  0  0  0  0  0  0  0  0  0
   58.5600   29.5490   44.6840 C   0  0  0  0  0  0  0  0  0  0  0  0
   59.9800   29.0730   44.8510 C   0  0  0  0  0  0  0  0  0  0  0  0
   60.5100   29.3870   46.1870 N   0  0  0  0  0  0  0  0  0  0  0  0
   60.4700   30.8240   46.4890 C   0  0  0  0  0  0  0  0  0  0  0  0
   59.7560   31.0490   47.7970 C   0  0  0  0  0  0  0  0  0  0  0  0
   59.8970   30.1250   48.8500 C   0  0  0  0  0  0  0  0  0  0  0  0
   59.1940   30.3450   50.0310 C   0  0  0  0  0  0  0  0  0  0  0  0
   58.3840   31.4370   50.1630 C   0  0  0  0  0  0  0  0  0  0  0  0
   58.2280   32.3310   49.1550 N   0  0  0  0  0  0  0  0  0  0  0  0
   58.8900   32.1600   47.9750 C   0  0  0  0  0  0  0  0  0  0  0  0
   58.6900   33.1020   46.9160 N   0  0  0  0  0  0  0  0  0  0  0  0
   57.3320   33.3750   46.4510 C   0  0  0  0  0  0  0  0  0  0  0  0
   57.3820   33.8880   45.0070 C   0  0  0  0  0  0  0  0  0  0  0  0
   58.2880   34.9700   44.8880 O   0  0  0  0  0  0  0  0  0  0  0  0
   59.6050   34.5280   45.1610 C   0  0  0  0  0  0  0  0  0  0  0  0
   59.7370   34.0770   46.6170 C   0  0  0  0  0  0  0  0  0  0  0  0
   57.7240   31.5030   51.4830 C   0  0  0  0  0  0  0  0  0  0  0  0
   58.1820   30.2050   52.1810 C   0  0  0  0  0  0  0  0  0  0  0  0
   59.1910   29.5030   51.2480 C   0  0  0  0  0  0  0  0  0  0  0  0
   57.3891   28.0863   47.1583 H   0  0  0  0  0  0  0  0  0  0  0  0
   56.4790   27.1870   45.8975 H   0  0  0  0  0  0  0  0  0  0  0  0
   58.2751   27.1633   45.8975 H   0  0  0  0  0  0  0  0  0  0  0  0
   55.6817   31.3923   43.7572 H   0  0  0  0  0  0  0  0  0  0  0  0
   60.0095   27.9833   44.7037 H   0  0  0  0  0  0  0  0  0  0  0  0
   60.6030   29.5906   44.1067 H   0  0  0  0  0  0  0  0  0  0  0  0
   59.9710   28.8640   46.9150 H   0  0  0  0  0  0  0  0  0  0  0  0
   61.4971   31.2109   46.5619 H   0  0  0  0  0  0  0  0  0  0  0  0
   59.9330   31.3500   45.6859 H   0  0  0  0  0  0  0  0  0  0  0  0
   60.5500   29.2464   48.7414 H   0  0  0  0  0  0  0  0  0  0  0  0
   56.7373   32.4505   46.4917 H   0  0  0  0  0  0  0  0  0  0  0  0
   56.8688   34.1364   47.0957 H   0  0  0  0  0  0  0  0  0  0  0  0
   57.7068   33.0714   44.3454 H   0  0  0  0  0  0  0  0  0  0  0  0
   56.3782   34.2361   44.7219 H   0  0  0  0  0  0  0  0  0  0  0  0
   59.8463   33.6835   44.4988 H   0  0  0  0  0  0  0  0  0  0  0  0
   60.2998   35.3627   44.9865 H   0  0  0  0  0  0  0  0  0  0  0  0
   60.7237   33.6159   46.7711 H   0  0  0  0  0  0  0  0  0  0  0  0
   59.6334   34.9460   47.2834 H   0  0  0  0  0  0  0  0  0  0  0  0
   58.0554   32.3891   52.0443 H   0  0  0  0  0  0  0  0  0  0  0  0
   56.6296   31.5870   51.4107 H   0  0  0  0  0  0  0  0  0  0  0  0
   58.6631   30.4451   53.1406 H   0  0  0  0  0  0  0  0  0  0  0  0
   57.3211   29.5500   52.3809 H   0  0  0  0  0  0  0  0  0  0  0  0
   60.1910   29.4720   51.7052 H   0  0  0  0  0  0  0  0  0  0  0  0
   58.9208   28.4572   51.0402 H   0  0  0  0  0  0  0  0  0  0  0  0
  1  2  1  0
  2  3  1  0
  3  4  2  0
  4  5  1  0
  5  6  1  0
  6  7  1  0
  7  8  1  0
  8  9  1  0
  9 10  1  0
 10 11  2  0
 11 12  1  0
 12 13  2  0
 13 14  1  0
 14 15  2  0
 15 16  1  0
 16 17  1  0
 17 18  1  0
 18 19  1  0
 19 20  1  0
 20 21  1  0
 13 22  1  0
 22 23  1  0
 23 24  1  0
  6  2  2  0
 15 10  1  0
 21 16  1  0
 24 12  1  0
  1 25  1  0
  1 26  1  0
  1 27  1  0
  4 28  1  0
  7 29  1  0
  7 30  1  0
  8 31  1  0
  9 32  1  0
  9 33  1  0
 11 34  1  0
 17 35  1  0
 17 36  1  0
 18 37  1  0
 18 38  1  0
 20 39  1  0
 20 40  1  0
 21 41  1  0
 21 42  1  0
 22 43  1  0
 22 44  1  0
 23 45  1  0
 23 46  1  0
 24 47  1  0
 24 48  1  0
M  END
>  <UniqueID>  (14) 
14

>  <SMILES>  (14) 
Cc1ncsc1CNCc1cc2c(nc1N1CCOCC1)CCC2

>  <Energy>  (14) 
92.3722281513867

>  <Genealogy>  (14) 
Cc1ncsc1CNCc1cc2c(nc1N1CCOCC1)CCC2 (3D coordinates assigned)
Cc1ncsc1CNCc1cc2c(nc1N1CCOCC1)CCC2 (nonaromatic ring conformer: 92.3722281513867 kcal/mol)

>  <smiles>  (14) 
Cc1ncsc1CNCc1cc2c(nc1N1CCOCC1)CCC2

>  <score_type>  (14) 
oracle

>  <origin>  (14) 
adg

>  <m_score__min__energy>  (14) 
-7.1100000000000003

>  <m_primary>  (14) 
energy

$$$$
14:0
     RDKit          3D

 35 38  0  0  0  0  0  0  0  0999 V2000
   53.8200   24.8430   45.6070 C   0  0  0  0  0  0  0  0  0  0  0  0
   54.5320   26.0330   45.9290 O   0  0  0  0  0  0  0  0  0  0  0  0
   55.9250   26.1110   46.0740 C   0  0  0  0  0  0  0  0  0  0  0  0
   56.6840   25.0550   46.6070 C   0  0  0  0  0  0  0  0  0  0  0  0
   58.0700   25.1690   46.7170 C   0  0  0  0  0  0  0  0  0  0  0  0
   58.7210   26.3420   46.3090 C   0  0  0  0  0  0  0  0  0  0  0  0
   60.1170   26.4350   46.3960 C   0  0  0  0  0  0  0  0  0  0  0  0
   60.7720   27.5890   45.9710 C   0  0  0  0  0  0  0  0  0  0  0  0
   60.0410   28.6710   45.4770 C   0  0  0  0  0  0  0  0  0  0  0  0
   58.6410   28.6160   45.4030 C   0  0  0  0  0  0  0  0  0  0  0  0
   57.9260   29.8200   44.9280 C   0  0  0  0  0  0  0  0  0  0  0  0
   57.1540   29.9220   43.7700 C   0  0  0  0  0  0  0  0  0  0  0  0
   56.7090   31.1900   43.6080 N   0  0  0  0  0  0  0  0  0  0  0  0
   57.2090   31.8850   44.6410 C   0  0  0  0  0  0  0  0  0  0  0  0
   57.0510   33.2140   44.8620 N   0  0  0  0  0  0  0  0  0  0  0  0
   57.6620   33.7840   45.9440 C   0  0  0  0  0  0  0  0  0  0  0  0
   58.4610   33.0040   46.8120 C   0  0  0  0  0  0  0  0  0  0  0  0
   58.6240   31.6300   46.5660 C   0  0  0  0  0  0  0  0  0  0  0  0
   57.9630   31.0940   45.4630 C   0  0  0  0  0  0  0  0  0  0  0  0
   57.9670   27.4310   45.7980 C   0  0  0  0  0  0  0  0  0  0  0  0
   56.5690   27.2840   45.6690 C   0  0  0  0  0  0  0  0  0  0  0  0
   53.5162   24.3352   46.5343 H   0  0  0  0  0  0  0  0  0  0  0  0
   52.9261   25.0983   45.0190 H   0  0  0  0  0  0  0  0  0  0  0  0
   54.4676   24.1760   45.0190 H   0  0  0  0  0  0  0  0  0  0  0  0
   56.1826   24.1340   46.9391 H   0  0  0  0  0  0  0  0  0  0  0  0
   58.6561   24.3331   47.1265 H   0  0  0  0  0  0  0  0  0  0  0  0
   60.6978   25.5934   46.8015 H   0  0  0  0  0  0  0  0  0  0  0  0
   61.8691   27.6478   46.0249 H   0  0  0  0  0  0  0  0  0  0  0  0
   60.5684   29.5764   45.1422 H   0  0  0  0  0  0  0  0  0  0  0  0
   56.9375   29.0889   43.0851 H   0  0  0  0  0  0  0  0  0  0  0  0
   56.1170   31.5540   42.8280 H   0  0  0  0  0  0  0  0  0  0  0  0
   57.5311   34.8582   46.1411 H   0  0  0  0  0  0  0  0  0  0  0  0
   58.9535   33.4716   47.6773 H   0  0  0  0  0  0  0  0  0  0  0  0
   59.2488   31.0025   47.2186 H   0  0  0  0  0  0  0  0  0  0  0  0
   55.9761   28.1065   45.2425 H   0  0  0  0  0  0  0  0  0  0  0  0
  1  2  1  0
  2  3  1  0
  3  4  2  0
  4  5  1  0
  5  6  2  0
  6  7  1  0
  7  8  2  0
  8  9  1  0
  9 10  2  0
 10 11  1  0
 11 12  2  0
 12 13  1  0
 13 14  1  0
 14 15  2  0
 15 16  1  0
 16 17  2  0
 17 18  1  0
 18 19  2  0
 10 20  1  0
 20 21  2  0
 21  3  1  0
 20  6  1  0
 19 11  1  0
 19 14  1  0
  1 22  1  0
  1 23  1  0
  1 24  1  0
  4 25  1  0
  5 26  1  0
  7 27  1  0
  8 28  1  0
  9 29  1  0
 12 30  1  0
 13 31  1  0
 16 32  1  0
 17 33  1  0
 18 34  1  0
 21 35  1  0
M  END
>  <UniqueID>  (15) 
15

>  <SMILES>  (15) 
COc1ccc2cccc(-c3c[nH]c4ncccc34)c2c1

>  <Energy>  (15) 
85.16248837543556

>  <Genealogy>  (15) 
COc1ccc2cccc(-c3c[nH]c4ncccc34)c2c1 (3D coordinates assigned)
COc1ccc2cccc(-c3c[nH]c4ncccc34)c2c1 (optimized conformer: 85.16248837543556 kcal/mol)

>  <smiles>  (15) 
COc1ccc2cccc(-c3c[nH]c4ncccc34)c2c1

>  <score_type>  (15) 
oracle

>  <origin>  (15) 
adg

>  <m_score__min__energy>  (15) 
-7.54

>  <m_primary>  (15) 
energy

$$$$
15:0
     RDKit          3D

 47 49  0  0  0  0  0  0  0  0999 V2000
   60.5460   28.5140   48.4900 C   0  0  0  0  0  0  0  0  0  0  0  0
   59.7550   28.4800   47.2490 N   0  0  0  0  0  0  0  0  0  0  0  0
   60.5020   29.1150   46.1430 C   0  0  0  0  0  0  0  0  0  0  0  0
   59.6700   29.1400   44.8410 C   0  0  0  0  0  0  0  0  0  0  0  0
   58.4750   28.2740   44.9380 N   0  0  0  0  0  0  0  0  0  0  0  0
   57.7690   28.1710   43.6370 C   0  0  0  0  0  0  0  0  0  0  0  0
   56.5570   29.0180   43.5980 N   0  0  0  0  0  0  0  0  0  0  0  0
   56.4790   29.9390   42.4490 C   0  0  0  0  0  0  0  0  0  0  0  0
   57.3330   31.2080   42.6260 C   0  0  0  0  0  0  0  0  0  0  0  0
   57.4960   31.6400   44.0600 C   0  0  0  0  0  0  0  0  0  0  0  0
   58.3050   32.7970   44.3340 N   0  0  0  0  0  0  0  0  0  0  0  0
   58.6390   33.2590   45.6540 C   0  0  0  0  0  0  0  0  0  0  0  0
   58.5950   32.4010   46.7670 C   0  0  0  0  0  0  0  0  0  0  0  0
   58.9230   32.8800   48.0400 C   0  0  0  0  0  0  0  0  0  0  0  0
   59.2810   34.2200   48.2140 C   0  0  0  0  0  0  0  0  0  0  0  0
   59.2980   35.0860   47.1180 C   0  0  0  0  0  0  0  0  0  0  0  0
   58.9710   34.6100   45.8450 C   0  0  0  0  0  0  0  0  0  0  0  0
   57.0590   30.9020   45.0380 N   0  0  0  0  0  0  0  0  0  0  0  0
   56.2440   29.7030   44.8610 C   0  0  0  0  0  0  0  0  0  0  0  0
   58.8610   26.9530   45.4660 C   0  0  0  0  0  0  0  0  0  0  0  0
   59.3870   27.0860   46.9110 C   0  0  0  0  0  0  0  0  0  0  0  0
   59.8695   28.4849   49.3569 H   0  0  0  0  0  0  0  0  0  0  0  0
   61.2184   27.6439   48.5202 H   0  0  0  0  0  0  0  0  0  0  0  0
   61.1412   29.4386   48.5202 H   0  0  0  0  0  0  0  0  0  0  0  0
   58.8800   29.0310   47.4200 H   0  0  0  0  0  0  0  0  0  0  0  0
   60.7528   30.1476   46.4272 H   0  0  0  0  0  0  0  0  0  0  0  0
   61.4139   28.5278   45.9595 H   0  0  0  0  0  0  0  0  0  0  0  0
   59.3466   30.1729   44.6445 H   0  0  0  0  0  0  0  0  0  0  0  0
   60.3016   28.7621   44.0235 H   0  0  0  0  0  0  0  0  0  0  0  0
   58.4517   28.4902   42.8358 H   0  0  0  0  0  0  0  0  0  0  0  0
   57.4580   27.1248   43.5000 H   0  0  0  0  0  0  0  0  0  0  0  0
   56.8263   29.4070   41.5510 H   0  0  0  0  0  0  0  0  0  0  0  0
   55.4310   30.2615   42.3607 H   0  0  0  0  0  0  0  0  0  0  0  0
   58.3315   31.0145   42.2071 H   0  0  0  0  0  0  0  0  0  0  0  0
   56.8067   32.0218   42.1056 H   0  0  0  0  0  0  0  0  0  0  0  0
   58.8100   33.2310   43.5280 H   0  0  0  0  0  0  0  0  0  0  0  0
   58.3015   31.3489   46.6364 H   0  0  0  0  0  0  0  0  0  0  0  0
   58.8991   32.2011   48.9052 H   0  0  0  0  0  0  0  0  0  0  0  0
   59.5492   34.5924   49.2137 H   0  0  0  0  0  0  0  0  0  0  0  0
   59.5689   36.1431   47.2568 H   0  0  0  0  0  0  0  0  0  0  0  0
   58.9738   35.2984   44.9870 H   0  0  0  0  0  0  0  0  0  0  0  0
   56.4351   29.0146   45.6974 H   0  0  0  0  0  0  0  0  0  0  0  0
   55.1868   30.0059   44.8356 H   0  0  0  0  0  0  0  0  0  0  0  0
   57.9840   26.2890   45.4588 H   0  0  0  0  0  0  0  0  0  0  0  0
   59.6568   26.5334   44.8330 H   0  0  0  0  0  0  0  0  0  0  0  0
   58.6032   26.7488   47.6052 H   0  0  0  0  0  0  0  0  0  0  0  0
   60.2931   26.4683   46.9975 H   0  0  0  0  0  0  0  0  0  0  0  0
  1  2  1  0
  2  3  1  0
  3  4  1  0
  4  5  1  0
  5  6  1  0
  6  7  1  0
  7  8  1  0
  8  9  1  0
  9 10  1  0
 10 11  1  0
 11 12  1  0
 12 13  2  0
 13 14  1  0
 14 15  2  0
 15 16  1  0
 16 17  2  0
 10 18  2  0
 18 19  1  0
  5 20  1  0
 20 21  1  0
 21  2  1  0
 19  7  1  0
 17 12  1  0
  1 22  1  0
  1 23  1  0
  1 24  1  0
  2 25  1  0
  3 26  1  0
  3 27  1  0
  4 28  1  0
  4 29  1  0
  6 30  1  0
  6 31  1  0
  8 32  1  0
  8 33  1  0
  9 34  1  0
  9 35  1  0
 11 36  1  0
 13 37  1  0
 14 38  1  0
 15 39  1  0
 16 40  1  0
 17 41  1  0
 19 42  1  0
 19 43  1  0
 20 44  1  0
 20 45  1  0
 21 46  1  0
 21 47  1  0
M  CHG  1   2   1
M  END
>  <UniqueID>  (16) 
16

>  <SMILES>  (16) 
C[NH+]1CCN(CN2CCC(Nc3ccccc3)=NC2)CC1

>  <Energy>  (16) 
65.08909048737436

>  <Genealogy>  (16) 
C[NH+]1CCN(CN2CCC(Nc3ccccc3)=NC2)CC1 (protonated)
C[NH+]1CCN(CN2CCC(Nc3ccccc3)=NC2)CC1 (3D coordinates assigned)
C[NH+]1CCN(CN2CCC(Nc3ccccc3)=NC2)CC1 (nonaromatic ring conformer: 65.08909048737436 kcal/mol)

>  <smiles>  (16) 
CN1CCN(CN2CCC(Nc3ccccc3)=NC2)CC1

>  <score_type>  (16) 
oracle

>  <origin>  (16) 
adg

>  <m_score__min__energy>  (16) 
-5.6399999999999997

>  <m_primary>  (16) 
energy

$$$$
16:0
     RDKit          3D

 30 32  0  0  0  0  0  0  0  0999 V2000
   57.7930   26.4580   44.6320 C   0  0  0  0  0  0  0  0  0  0  0  0
   57.0160   27.2630   45.6680 C   0  0  0  0  0  0  0  0  0  0  0  0
   57.3640   28.6940   45.5770 N   0  0  0  0  0  0  0  0  0  0  0  0
   56.5060   29.5810   44.9540 C   0  0  0  0  0  0  0  0  0  0  0  0
   55.4260   29.1790   44.4420 O   0  0  0  0  0  0  0  0  0  0  0  0
   56.8090   30.9070   44.8850 N   0  0  0  0  0  0  0  0  0  0  0  0
   57.9600   31.3330   45.4460 C   0  0  0  0  0  0  0  0  0  0  0  0
   58.4630   32.6100   45.5060 C   0  0  0  0  0  0  0  0  0  0  0  0
   57.9960   33.8310   45.0320 C   0  0  0  0  0  0  0  0  0  0  0  0
   58.7870   34.9670   45.2820 C   0  0  0  0  0  0  0  0  0  0  0  0
   60.0040   34.8520   45.9910 C   0  0  0  0  0  0  0  0  0  0  0  0
   60.4490   33.6000   46.4600 C   0  0  0  0  0  0  0  0  0  0  0  0
   59.6480   32.4820   46.1990 C   0  0  0  0  0  0  0  0  0  0  0  0
   59.8450   31.1810   46.5390 N   0  0  0  0  0  0  0  0  0  0  0  0
   60.9730   30.6150   47.2830 C   0  0  0  0  0  0  0  0  0  0  0  0
   58.7990   30.4960   46.0690 N   0  0  0  0  0  0  0  0  0  0  0  0
   58.5190   29.1670   46.1560 C   0  0  0  0  0  0  0  0  0  0  0  0
   59.3030   28.3820   46.7590 O   0  0  0  0  0  0  0  0  0  0  0  0
   58.4692   25.7574   45.1438 H   0  0  0  0  0  0  0  0  0  0  0  0
   57.0889   25.8942   44.0024 H   0  0  0  0  0  0  0  0  0  0  0  0
   58.3814   27.1417   44.0024 H   0  0  0  0  0  0  0  0  0  0  0  0
   55.9378   27.1404   45.4876 H   0  0  0  0  0  0  0  0  0  0  0  0
   57.2763   26.8965   46.6719 H   0  0  0  0  0  0  0  0  0  0  0  0
   57.0456   33.9056   44.4832 H   0  0  0  0  0  0  0  0  0  0  0  0
   58.4557   35.9525   44.9228 H   0  0  0  0  0  0  0  0  0  0  0  0
   60.6108   35.7500   46.1789 H   0  0  0  0  0  0  0  0  0  0  0  0
   61.3950   33.5042   47.0132 H   0  0  0  0  0  0  0  0  0  0  0  0
   60.7846   30.7095   48.3626 H   0  0  0  0  0  0  0  0  0  0  0  0
   61.0879   29.5525   47.0225 H   0  0  0  0  0  0  0  0  0  0  0  0
   61.8935   31.1580   47.0225 H   0  0  0  0  0  0  0  0  0  0  0  0
  1  2  1  0
  2  3  1  0
  3  4  1  0
  4  5  2  0
  4  6  1  0
  6  7  2  0
  7  8  1  0
  8  9  2  0
  9 10  1  0
 10 11  2  0
 11 12  1  0
 12 13  2  0
 13 14  1  0
 14 15  1  0
 14 16  1  0
 16 17  1  0
 17 18  2  0
 17  3  1  0
 16  7  1  0
 13  8  1  0
  1 19  1  0
  1 20  1  0
  1 21  1  0
  2 22  1  0
  2 23  1  0
  9 24  1  0
 10 25  1  0
 11 26  1  0
 12 27  1  0
 15 28  1  0
 15 29  1  0
 15 30  1  0
M  END
>  <UniqueID>  (17) 
17

>  <SMILES>  (17) 
CCn1c(=O)nc2c3ccccc3n(C)n2c1=O

>  <Energy>  (17) 
83.57175506960121

>  <Genealogy>  (17) 
CCn1c(=O)nc2c3ccccc3n(C)n2c1=O (3D coordinates assigned)
CCn1c(=O)nc2c3ccccc3n(C)n2c1=O (optimized conformer: 83.57175506960121 kcal/mol)

>  <smiles>  (17) 
CCn1c(=O)nc2c3ccccc3n(C)n2c1=O

>  <score_type>  (17) 
oracle

>  <origin>  (17) 
adg

>  <m_score__min__energy>  (17) 
-6.5199999999999996

>  <m_primary>  (17) 
energy

$$$$
17:0
     RDKit          3D

 27 28  0  0  0  0  0  0  0  0999 V2000
   59.6520   34.4660   48.1030 C   0  0  0  0  0  0  0  0  0  0  0  0
   59.3250   35.0650   46.7390 C   0  0  0  0  0  0  0  0  0  0  0  0
   58.8550   34.0010   45.7970 C   0  0  0  0  0  0  0  0  0  0  0  0
   58.2820   32.7870   46.1680 C   0  0  0  0  0  0  0  0  0  0  0  0
   57.9690   32.2030   44.9590 C   0  0  0  0  0  0  0  0  0  0  0  0
   57.3730   30.9750   44.6800 C   0  0  0  0  0  0  0  0  0  0  0  0
   57.0450   30.1990   45.6190 O   0  0  0  0  0  0  0  0  0  0  0  0
   57.1580   30.6350   43.3620 N   0  0  0  0  0  0  0  0  0  0  0  0
   56.5610   29.3400   43.0060 C   0  0  0  0  0  0  0  0  0  0  0  0
   57.5070   28.2000   43.3660 C   0  0  0  0  0  0  0  0  0  0  0  0
   57.5470   31.4900   42.3540 C   0  0  0  0  0  0  0  0  0  0  0  0
   58.1420   32.7220   42.6610 C   0  0  0  0  0  0  0  0  0  0  0  0
   58.3270   33.0270   43.9660 N   0  0  0  0  0  0  0  0  0  0  0  0
   58.8650   34.1330   44.4500 N   0  0  0  0  0  0  0  0  0  0  0  0
   59.2862   35.1361   48.8950 H   0  0  0  0  0  0  0  0  0  0  0  0
   59.1645   33.4846   48.1989 H   0  0  0  0  0  0  0  0  0  0  0  0
   60.7411   34.3453   48.1989 H   0  0  0  0  0  0  0  0  0  0  0  0
   58.5337   35.8201   46.8558 H   0  0  0  0  0  0  0  0  0  0  0  0
   60.2339   35.5279   46.3271 H   0  0  0  0  0  0  0  0  0  0  0  0
   58.1187   32.3901   47.1808 H   0  0  0  0  0  0  0  0  0  0  0  0
   55.6162   29.2136   43.5549 H   0  0  0  0  0  0  0  0  0  0  0  0
   56.3749   29.3196   41.9220 H   0  0  0  0  0  0  0  0  0  0  0  0
   57.5781   28.1143   44.4603 H   0  0  0  0  0  0  0  0  0  0  0  0
   57.1216   27.2580   42.9487 H   0  0  0  0  0  0  0  0  0  0  0  0
   58.5039   28.4051   42.9487 H   0  0  0  0  0  0  0  0  0  0  0  0
   57.3900   31.2047   41.3033 H   0  0  0  0  0  0  0  0  0  0  0  0
   58.4485   33.4181   41.8663 H   0  0  0  0  0  0  0  0  0  0  0  0
  1  2  1  0
  2  3  1  0
  3  4  1  0
  4  5  2  0
  5  6  1  0
  6  7  2  0
  6  8  1  0
  8  9  1  0
  9 10  1  0
  8 11  1  0
 11 12  2  0
 12 13  1  0
 13 14  1  0
 14  3  2  0
 13  5  1  0
  1 15  1  0
  1 16  1  0
  1 17  1  0
  2 18  1  0
  2 19  1  0
  4 20  1  0
  9 21  1  0
  9 22  1  0
 10 23  1  0
 10 24  1  0
 10 25  1  0
 11 26  1  0
 12 27  1  0
M  END
>  <UniqueID>  (18) 
18

>  <SMILES>  (18) 
CCc1cc2c(=O)n(CC)ccn2n1

>  <Energy>  (18) 
58.42460528171815

>  <Genealogy>  (18) 
CCc1cc2c(=O)n(CC)ccn2n1 (3D coordinates assigned)
CCc1cc2c(=O)n(CC)ccn2n1 (optimized conformer: 58.42460528171815 kcal/mol)

>  <smiles>  (18) 
CCc1cc2c(=O)n(CC)ccn2n1

>  <score_type>  (18) 
oracle

>  <origin>  (18) 
adg

>  <m_score__min__energy>  (18) 
-5.3399999999999999

>  <m_primary>  (18) 
energy

$$$$
18:0
     RDKit          3D

 39 38  0  0  0  0  0  0  0  0999 V2000
   56.5630   29.7430   42.8120 C   0  0  0  0  0  0  0  0  0  0  0  0
   56.0930   30.1110   44.2200 C   0  0  0  0  0  0  0  0  0  0  0  0
   57.0190   31.0290   44.9010 N   0  0  0  0  0  0  0  0  0  0  0  0
   57.7910   31.8790   43.9740 C   0  0  0  0  0  0  0  0  0  0  0  0
   57.6470   33.3740   44.3090 C   0  0  0  0  0  0  0  0  0  0  0  0
   58.2920   33.7030   45.6570 C   0  0  0  0  0  0  0  0  0  0  0  0
   58.1210   32.5710   46.5770 N   0  0  0  0  0  0  0  0  0  0  0  0
   58.6710   32.8470   47.9130 C   0  0  0  0  0  0  0  0  0  0  0  0
   59.2830   31.5940   48.5690 C   0  0  0  0  0  0  0  0  0  0  0  0
   59.9210   30.6440   47.5390 C   0  0  0  0  0  0  0  0  0  0  0  0
   58.9800   30.2440   46.4640 N   0  0  0  0  0  0  0  0  0  0  0  0
   59.1370   28.8350   46.0580 C   0  0  0  0  0  0  0  0  0  0  0  0
   60.1150   28.6790   44.8900 C   0  0  0  0  0  0  0  0  0  0  0  0
   57.4275   29.0661   42.8792 H   0  0  0  0  0  0  0  0  0  0  0  0
   55.7461   29.2419   42.2720 H   0  0  0  0  0  0  0  0  0  0  0  0
   56.8535   30.6563   42.2720 H   0  0  0  0  0  0  0  0  0  0  0  0
   55.1072   30.5936   44.1479 H   0  0  0  0  0  0  0  0  0  0  0  0
   56.0472   29.1838   44.8101 H   0  0  0  0  0  0  0  0  0  0  0  0
   56.4990   31.5950   45.6120 H   0  0  0  0  0  0  0  0  0  0  0  0
   58.8534   31.6012   44.0383 H   0  0  0  0  0  0  0  0  0  0  0  0
   57.3991   31.7185   42.9588 H   0  0  0  0  0  0  0  0  0  0  0  0
   58.1368   33.9669   43.5225 H   0  0  0  0  0  0  0  0  0  0  0  0
   56.5757   33.6167   44.3667 H   0  0  0  0  0  0  0  0  0  0  0  0
   59.3649   33.8969   45.5113 H   0  0  0  0  0  0  0  0  0  0  0  0
   57.8099   34.5950   46.0835 H   0  0  0  0  0  0  0  0  0  0  0  0
   57.1010   32.3480   46.6610 H   0  0  0  0  0  0  0  0  0  0  0  0
   59.4533   33.6148   47.8208 H   0  0  0  0  0  0  0  0  0  0  0  0
   57.8430   33.1883   48.5516 H   0  0  0  0  0  0  0  0  0  0  0  0
   60.0569   31.9116   49.2833 H   0  0  0  0  0  0  0  0  0  0  0  0
   58.4707   31.0477   49.0708 H   0  0  0  0  0  0  0  0  0  0  0  0
   60.7831   31.1507   47.0806 H   0  0  0  0  0  0  0  0  0  0  0  0
   60.2206   29.7302   48.0731 H   0  0  0  0  0  0  0  0  0  0  0  0
   57.9890   30.3930   46.7670 H   0  0  0  0  0  0  0  0  0  0  0  0
   59.1240   30.8620   45.6310 H   0  0  0  0  0  0  0  0  0  0  0  0
   59.5136   28.2583   46.9157 H   0  0  0  0  0  0  0  0  0  0  0  0
   58.1545   28.4650   45.7296 H   0  0  0  0  0  0  0  0  0  0  0  0
   61.1303   28.5171   45.2810 H   0  0  0  0  0  0  0  0  0  0  0  0
   59.8171   27.8170   44.2750 H   0  0  0  0  0  0  0  0  0  0  0  0
   60.1001   29.5909   44.2750 H   0  0  0  0  0  0  0  0  0  0  0  0
  1  2  1  0
  2  3  1  0
  3  4  1  0
  4  5  1  0
  5  6  1  0
  6  7  1  0
  7  8  1  0
  8  9  1  0
  9 10  1  0
 10 11  1  0
 11 12  1  0
 12 13  1  0
  1 14  1  0
  1 15  1  0
  1 16  1  0
  2 17  1  0
  2 18  1  0
  3 19  1  0
  4 20  1  0
  4 21  1  0
  5 22  1  0
  5 23  1  0
  6 24  1  0
  6 25  1  0
  7 26  1  0
  8 27  1  0
  8 28  1  0
  9 29  1  0
  9 30  1  0
 10 31  1  0
 10 32  1  0
 11 33  1  0
 11 34  1  0
 12 35  1  0
 12 36  1  0
 13 37  1  0
 13 38  1  0
 13 39  1  0
M  CHG  1  11   1
M  END
>  <UniqueID>  (19) 
19

>  <SMILES>  (19) 
CCNCCCNCCC[NH2+]CC

>  <Energy>  (19) 
28.174965336456758

>  <Genealogy>  (19) 
CCNCCCNCCC[NH2+]CC (protonated)
CCNCCCNCCC[NH2+]CC (3D coordinates assigned)
CCNCCCNCCC[NH2+]CC (optimized conformer: 28.174965336456758 kcal/mol)

>  <smiles>  (19) 
CCNCCCNCCCNCC

>  <score_type>  (19) 
oracle

>  <origin>  (19) 
adg

>  <m_score__min__energy>  (19) 
-1.54

>  <m_primary>  (19) 
energy

$$$$
19:0
     RDKit          3D

 50 52  0  0  0  0  0  0  0  0999 V2000
   67.0180   32.7970   50.1470 C   0  0  0  0  0  0  0  0  0  0  0  0
   65.7160   32.1270   50.6040 C   0  0  0  0  0  0  0  0  0  0  0  0
   64.5160   32.7430   49.9760 N   0  0  0  0  0  0  0  0  0  0  0  0
   63.8640   33.6890   50.9210 C   0  0  0  0  0  0  0  0  0  0  0  0
   62.7990   34.5560   50.2360 C   0  0  0  0  0  0  0  0  0  0  0  0
   63.5510   31.6870   49.5570 C   0  0  0  0  0  0  0  0  0  0  0  0
   63.2530   31.7300   48.0460 C   0  0  0  0  0  0  0  0  0  0  0  0
   63.7820   32.9660   47.4560 N   0  0  0  0  0  0  0  0  0  0  0  0
   62.7250   33.6900   46.7380 C   0  0  0  0  0  0  0  0  0  0  0  0
   61.3900   33.5750   47.4820 C   0  0  0  0  0  0  0  0  0  0  0  0
   60.2120   33.6480   46.5420 C   0  0  0  0  0  0  0  0  0  0  0  0
   59.8200   34.8810   45.9830 C   0  0  0  0  0  0  0  0  0  0  0  0
   58.7480   34.9490   45.0760 C   0  0  0  0  0  0  0  0  0  0  0  0
   58.0520   33.7890   44.7050 C   0  0  0  0  0  0  0  0  0  0  0  0
   58.4400   32.5610   45.2530 C   0  0  0  0  0  0  0  0  0  0  0  0
   59.5040   32.5010   46.1530 C   0  0  0  0  0  0  0  0  0  0  0  0
   59.7540   30.9000   46.6420 S   0  0  0  0  0  0  0  0  0  0  0  0
   58.5020   30.2780   45.7020 C   0  0  0  0  0  0  0  0  0  0  0  0
   58.0980   28.9490   45.5950 C   0  0  0  0  0  0  0  0  0  0  0  0
   57.0230   28.6480   44.7460 C   0  0  0  0  0  0  0  0  0  0  0  0
   56.3760   29.6690   44.0270 C   0  0  0  0  0  0  0  0  0  0  0  0
   56.7980   31.0040   44.1480 C   0  0  0  0  0  0  0  0  0  0  0  0
   57.8720   31.3000   44.9970 C   0  0  0  0  0  0  0  0  0  0  0  0
   67.6040   33.0985   51.0278 H   0  0  0  0  0  0  0  0  0  0  0  0
   67.6028   32.0879   49.5428 H   0  0  0  0  0  0  0  0  0  0  0  0
   66.7809   33.6851   49.5428 H   0  0  0  0  0  0  0  0  0  0  0  0
   65.7511   31.0619   50.3313 H   0  0  0  0  0  0  0  0  0  0  0  0
   65.6325   32.2591   51.6928 H   0  0  0  0  0  0  0  0  0  0  0  0
   64.8250   33.2790   49.1300 H   0  0  0  0  0  0  0  0  0  0  0  0
   63.3858   33.1115   51.7259 H   0  0  0  0  0  0  0  0  0  0  0  0
   64.6415   34.3601   51.3150 H   0  0  0  0  0  0  0  0  0  0  0  0
   62.1856   35.0554   51.0004 H   0  0  0  0  0  0  0  0  0  0  0  0
   63.2911   35.3135   49.6083 H   0  0  0  0  0  0  0  0  0  0  0  0
   62.1570   33.9205   49.6083 H   0  0  0  0  0  0  0  0  0  0  0  0
   63.9744   30.7027   49.8057 H   0  0  0  0  0  0  0  0  0  0  0  0
   62.6058   31.8656   50.0905 H   0  0  0  0  0  0  0  0  0  0  0  0
   63.7252   30.8644   47.5585 H   0  0  0  0  0  0  0  0  0  0  0  0
   62.1637   31.7001   47.8957 H   0  0  0  0  0  0  0  0  0  0  0  0
   64.5160   32.6930   46.7600 H   0  0  0  0  0  0  0  0  0  0  0  0
   63.0039   34.7510   46.6582 H   0  0  0  0  0  0  0  0  0  0  0  0
   62.6114   33.2495   45.7365 H   0  0  0  0  0  0  0  0  0  0  0  0
   61.3613   32.6124   48.0136 H   0  0  0  0  0  0  0  0  0  0  0  0
   61.3179   34.4189   48.1839 H   0  0  0  0  0  0  0  0  0  0  0  0
   60.3584   35.7996   46.2592 H   0  0  0  0  0  0  0  0  0  0  0  0
   58.4524   35.9206   44.6534 H   0  0  0  0  0  0  0  0  0  0  0  0
   57.2142   33.8437   43.9943 H   0  0  0  0  0  0  0  0  0  0  0  0
   58.6088   28.1565   46.1616 H   0  0  0  0  0  0  0  0  0  0  0  0
   56.6838   27.6068   44.6418 H   0  0  0  0  0  0  0  0  0  0  0  0
   55.5333   29.4207   43.3650 H   0  0  0  0  0  0  0  0  0  0  0  0
   56.2933   31.8032   43.5853 H   0  0  0  0  0  0  0  0  0  0  0  0
  1  2  1  0
  2  3  1  0
  3  4  1  0
  4  5  1  0
  3  6  1  0
  6  7  1  0
  7  8  1  0
  8  9  1  0
  9 10  1  0
 10 11  1  0
 11 12  2  0
 12 13  1  0
 13 14  2  0
 14 15  1  0
 15 16  2  0
 16 17  1  0
 17 18  1  0
 18 19  2  0
 19 20  1  0
 20 21  2  0
 21 22  1  0
 22 23  2  0
 16 11  1  0
 23 18  1  0
 23 15  1  0
  1 24  1  0
  1 25  1  0
  1 26  1  0
  2 27  1  0
  2 28  1  0
  3 29  1  0
  4 30  1  0
  4 31  1  0
  5 32  1  0
  5 33  1  0
  5 34  1  0
  6 35  1  0
  6 36  1  0
  7 37  1  0
  7 38  1  0
  8 39  1  0
  9 40  1  0
  9 41  1  0
 10 42  1  0
 10 43  1  0
 12 44  1  0
 13 45  1  0
 14 46  1  0
 19 47  1  0
 20 48  1  0
 21 49  1  0
 22 50  1  0
M  CHG  1   3   1
M  END
>  <UniqueID>  (20) 
20

>  <SMILES>  (20) 
CC[NH+](CC)CCNCCc1cccc2c1sc1ccccc12

>  <Energy>  (20) 
84.30252570386715

>  <Genealogy>  (20) 
CC[NH+](CC)CCNCCc1cccc2c1sc1ccccc12 (protonated)
CC[NH+](CC)CCNCCc1cccc2c1sc1ccccc12 (3D coordinates assigned)
CC[NH+](CC)CCNCCc1cccc2c1sc1ccccc12 (optimized conformer: 84.30252570386715 kcal/mol)

>  <smiles>  (20) 
CCN(CC)CCNCCc1cccc2c1sc1ccccc12

>  <score_type>  (20) 
oracle

>  <origin>  (20) 
adg

>  <m_score__min__energy>  (20) 
-6.4199999999999999

>  <m_primary>  (20) 
energy

$$$$
20:0
     RDKit          3D

 62 64  0  0  0  0  0  0  0  0999 V2000
   57.4040   34.3232   47.4979 H   0  0  0  0  0  0  0  0  0  0  0  0
   58.2800   34.1340   46.8600 C   0  0  0  0  0  0  0  0  0  0  0  0
   59.3980   34.8370   47.0890 C   0  0  0  0  0  0  0  0  0  0  0  0
   59.3348   35.7148   47.7489 H   0  0  0  0  0  0  0  0  0  0  0  0
   60.7350   34.4900   46.4920 C   0  0  0  0  0  0  0  0  0  0  0  0
   61.2374   35.4113   46.1622 H   0  0  0  0  0  0  0  0  0  0  0  0
   60.5851   33.8203   45.6323 H   0  0  0  0  0  0  0  0  0  0  0  0
   61.5690   33.8120   47.4940 N   0  0  0  0  0  0  0  0  0  0  0  0
   61.0320   33.7750   48.3910 H   0  0  0  0  0  0  0  0  0  0  0  0
   61.9130   32.4350   47.0910 C   0  0  0  0  0  0  0  0  0  0  0  0
   61.5884   32.2658   46.0537 H   0  0  0  0  0  0  0  0  0  0  0  0
   61.4052   31.7228   47.7580 H   0  0  0  0  0  0  0  0  0  0  0  0
   63.4270   32.2310   47.1900 C   0  0  0  0  0  0  0  0  0  0  0  0
   63.8801   32.4862   46.2207 H   0  0  0  0  0  0  0  0  0  0  0  0
   63.6024   31.1787   47.4583 H   0  0  0  0  0  0  0  0  0  0  0  0
   64.0790   33.1050   48.2850 C   0  0  0  0  0  0  0  0  0  0  0  0
   64.0752   34.1518   47.9470 H   0  0  0  0  0  0  0  0  0  0  0  0
   65.1008   32.7292   48.4423 H   0  0  0  0  0  0  0  0  0  0  0  0
   63.3700   33.0250   49.5860 N   0  0  0  0  0  0  0  0  0  0  0  0
   63.7910   33.7060   50.2620 H   0  0  0  0  0  0  0  0  0  0  0  0
   62.3760   33.3350   49.4510 H   0  0  0  0  0  0  0  0  0  0  0  0
   63.4050   31.6720   50.1930 C   0  0  0  0  0  0  0  0  0  0  0  0
   64.2668   31.6157   50.8743 H   0  0  0  0  0  0  0  0  0  0  0  0
   63.4827   30.9448   49.3713 H   0  0  0  0  0  0  0  0  0  0  0  0
   62.1290   31.3350   50.9870 C   0  0  0  0  0  0  0  0  0  0  0  0
   62.0052   32.0799   51.7868 H   0  0  0  0  0  0  0  0  0  0  0  0
   62.2483   30.3192   51.3920 H   0  0  0  0  0  0  0  0  0  0  0  0
   60.8710   31.3400   50.1140 C   0  0  0  0  0  0  0  0  0  0  0  0
   60.0605   30.8101   50.6359 H   0  0  0  0  0  0  0  0  0  0  0  0
   61.0847   30.8353   49.1603 H   0  0  0  0  0  0  0  0  0  0  0  0
   60.4610   32.7270   49.8530 N   0  0  0  0  0  0  0  0  0  0  0  0
   60.1940   32.7970   48.8410 H   0  0  0  0  0  0  0  0  0  0  0  0
   59.2920   33.1100   50.6600 C   0  0  0  0  0  0  0  0  0  0  0  0
   58.8645   34.0419   50.2614 H   0  0  0  0  0  0  0  0  0  0  0  0
   59.6082   33.2588   51.7030 H   0  0  0  0  0  0  0  0  0  0  0  0
   58.2370   32.0100   50.6110 C   0  0  0  0  0  0  0  0  0  0  0  0
   57.9603   31.7215   51.6358 H   0  0  0  0  0  0  0  0  0  0  0  0
   57.3467   32.3792   50.0809 H   0  0  0  0  0  0  0  0  0  0  0  0
   58.6431   31.1358   50.0809 H   0  0  0  0  0  0  0  0  0  0  0  0
   58.1650   33.1160   45.7920 C   0  0  0  0  0  0  0  0  0  0  0  0
   57.8790   33.5580   44.4950 C   0  0  0  0  0  0  0  0  0  0  0  0
   57.7457   34.6327   44.3019 H   0  0  0  0  0  0  0  0  0  0  0  0
   57.7620   32.6500   43.4490 C   0  0  0  0  0  0  0  0  0  0  0  0
   57.5334   33.0116   42.4356 H   0  0  0  0  0  0  0  0  0  0  0  0
   57.9320   31.2850   43.6740 C   0  0  0  0  0  0  0  0  0  0  0  0
   57.8271   30.5811   42.8352 H   0  0  0  0  0  0  0  0  0  0  0  0
   58.2380   30.7890   44.9670 C   0  0  0  0  0  0  0  0  0  0  0  0
   58.3680   31.7300   46.0350 C   0  0  0  0  0  0  0  0  0  0  0  0
   58.7080   31.2740   47.3220 C   0  0  0  0  0  0  0  0  0  0  0  0
   58.8431   32.0025   48.1350 H   0  0  0  0  0  0  0  0  0  0  0  0
   58.8760   29.9210   47.5840 C   0  0  0  0  0  0  0  0  0  0  0  0
   59.1213   29.5890   48.6036 H   0  0  0  0  0  0  0  0  0  0  0  0
   58.7360   28.9780   46.5630 C   0  0  0  0  0  0  0  0  0  0  0  0
   58.9160   27.6160   46.8640 C   0  0  0  0  0  0  0  0  0  0  0  0
   59.1496   27.3095   47.8943 H   0  0  0  0  0  0  0  0  0  0  0  0
   58.8000   26.6530   45.8640 C   0  0  0  0  0  0  0  0  0  0  0  0
   58.9413   25.5894   46.1064 H   0  0  0  0  0  0  0  0  0  0  0  0
   58.5050   27.0360   44.5560 C   0  0  0  0  0  0  0  0  0  0  0  0
   58.4195   26.2722   43.7691 H   0  0  0  0  0  0  0  0  0  0  0  0
   58.3170   28.3860   44.2380 C   0  0  0  0  0  0  0  0  0  0  0  0
   58.0816   28.6716   43.2021 H   0  0  0  0  0  0  0  0  0  0  0  0
   58.4260   29.3930   45.2350 C   0  0  0  0  0  0  0  0  0  0  0  0
  1  2  1  0
  2  3  2  0
  3  4  1  0
  3  5  1  0
  5  6  1  0
  5  7  1  0
  5  8  1  0
  8  9  1  0
  8 10  1  0
 10 11  1  0
 10 12  1  0
 10 13  1  0
 13 14  1  0
 13 15  1  0
 13 16  1  0
 16 17  1  0
 16 18  1  0
 16 19  1  0
 19 20  1  0
 19 21  1  0
 19 22  1  0
 22 23  1  0
 22 24  1  0
 22 25  1  0
 25 26  1  0
 25 27  1  0
 25 28  1  0
 28 29  1  0
 28 30  1  0
 28 31  1  0
 31 32  1  0
 31 33  1  0
 33 34  1  0
 33 35  1  0
 33 36  1  0
 36 37  1  0
 36 38  1  0
 36 39  1  0
  2 40  1  0
 40 41  2  0
 41 42  1  0
 41 43  1  0
 43 44  1  0
 43 45  2  0
 45 46  1  0
 45 47  1  0
 47 48  2  0
 48 49  1  0
 49 50  1  0
 49 51  2  0
 51 52  1  0
 51 53  1  0
 53 54  2  0
 54 55  1  0
 54 56  1  0
 56 57  1  0
 56 58  2  0
 58 59  1  0
 58 60  1  0
 60 61  1  0
 60 62  2  0
 48 40  1  0
 62 53  1  0
 62 47  1  0
M  CHG  1  19   1
M  END
>  <UniqueID>  (21) 
21

>  <SMILES>  (21) 
CCNCCC[NH2+]CCCNC/C=C\c1cccc2c1ccc1ccccc12

>  <Energy>  (21) 
77.93394321479677

>  <Genealogy>  (21) 
CCNCCC[NH2+]CCCNCC=Cc1cccc2c1ccc1ccccc12 (protonated)
CCNCCC[NH2+]CCCNC/C=C\c1cccc2c1ccc1ccccc12 (cis-trans isomerization)
CCNCCC[NH2+]CCCNC/C=C\c1cccc2c1ccc1ccccc12 (3D coordinates assigned)
CCNCCC[NH2+]CCCNC/C=C\c1cccc2c1ccc1ccccc12 (optimized conformer: 77.93394321479677 kcal/mol)

>  <smiles>  (21) 
CCNCCCNCCCNCC=Cc1cccc2c1ccc1ccccc12

>  <score_type>  (21) 
oracle

>  <origin>  (21) 
adg

>  <m_score__min__energy>  (21) 
-7.1100000000000003

>  <m_primary>  (21) 
energy

$$$$
21:0
     RDKit          3D

 43 45  0  0  0  0  0  0  0  0999 V2000
   60.2400   27.2810   47.8190 C   0  0  0  0  0  0  0  0  0  0  0  0
   60.4680   28.7900   47.8550 C   0  0  0  0  0  0  0  0  0  0  0  0
   59.4580   29.4910   47.0350 N   0  0  0  0  0  0  0  0  0  0  0  0
   58.4160   28.7430   46.5570 C   0  0  0  0  0  0  0  0  0  0  0  0
   57.4110   29.3030   45.7570 C   0  0  0  0  0  0  0  0  0  0  0  0
   56.3090   28.4350   45.2580 C   0  0  0  0  0  0  0  0  0  0  0  0
   56.4090   27.1800   45.2820 O   0  0  0  0  0  0  0  0  0  0  0  0
   55.1440   29.0000   44.7520 O   0  0  0  0  0  0  0  0  0  0  0  0
   57.4810   30.6740   45.4520 C   0  0  0  0  0  0  0  0  0  0  0  0
   56.5980   31.2100   44.7260 O   0  0  0  0  0  0  0  0  0  0  0  0
   58.5350   31.4510   45.9620 C   0  0  0  0  0  0  0  0  0  0  0  0
   58.6240   32.8240   45.6840 C   0  0  0  0  0  0  0  0  0  0  0  0
   59.6710   33.5900   46.2010 C   0  0  0  0  0  0  0  0  0  0  0  0
   59.7430   35.0580   45.8830 C   0  0  0  0  0  0  0  0  0  0  0  0
   60.6120   32.9680   47.0410 C   0  0  0  0  0  0  0  0  0  0  0  0
   61.6740   33.7230   47.6440 N   0  0  0  0  0  0  0  0  0  0  0  0
   62.9780   33.8060   46.9800 C   0  0  0  0  0  0  0  0  0  0  0  0
   64.0840   33.2060   47.8730 C   0  0  0  0  0  0  0  0  0  0  0  0
   63.7930   33.2760   49.3200 N   0  0  0  0  0  0  0  0  0  0  0  0
   62.9100   34.3980   49.6670 C   0  0  0  0  0  0  0  0  0  0  0  0
   61.5320   34.2130   49.0190 C   0  0  0  0  0  0  0  0  0  0  0  0
   60.5230   31.6310   47.2920 N   0  0  0  0  0  0  0  0  0  0  0  0
   59.5250   30.8460   46.7740 C   0  0  0  0  0  0  0  0  0  0  0  0
   60.1816   26.8944   48.8472 H   0  0  0  0  0  0  0  0  0  0  0  0
   59.2990   27.0648   47.2920 H   0  0  0  0  0  0  0  0  0  0  0  0
   61.0751   26.7965   47.2920 H   0  0  0  0  0  0  0  0  0  0  0  0
   60.3958   29.1413   48.8949 H   0  0  0  0  0  0  0  0  0  0  0  0
   61.4664   29.0065   47.4473 H   0  0  0  0  0  0  0  0  0  0  0  0
   58.3662   27.6731   46.8077 H   0  0  0  0  0  0  0  0  0  0  0  0
   57.8608   33.3018   45.0521 H   0  0  0  0  0  0  0  0  0  0  0  0
   59.7713   35.6350   46.8191 H   0  0  0  0  0  0  0  0  0  0  0  0
   60.6523   35.2624   45.2986 H   0  0  0  0  0  0  0  0  0  0  0  0
   58.8581   35.3504   45.2986 H   0  0  0  0  0  0  0  0  0  0  0  0
   62.9369   33.2486   46.0326 H   0  0  0  0  0  0  0  0  0  0  0  0
   63.2116   34.8641   46.7906 H   0  0  0  0  0  0  0  0  0  0  0  0
   64.2155   32.1492   47.5975 H   0  0  0  0  0  0  0  0  0  0  0  0
   64.9907   33.8048   47.7017 H   0  0  0  0  0  0  0  0  0  0  0  0
   63.3260   32.3850   49.6140 H   0  0  0  0  0  0  0  0  0  0  0  0
   62.7936   34.4433   50.7599 H   0  0  0  0  0  0  0  0  0  0  0  0
   63.3568   35.3322   49.2959 H   0  0  0  0  0  0  0  0  0  0  0  0
   60.9511   33.4853   49.6047 H   0  0  0  0  0  0  0  0  0  0  0  0
   61.0141   35.1833   48.9998 H   0  0  0  0  0  0  0  0  0  0  0  0
   61.2460   31.2380   47.9300 H   0  0  0  0  0  0  0  0  0  0  0  0
  1  2  1  0
  2  3  1  0
  3  4  1  0
  4  5  2  0
  5  6  1  0
  6  7  2  0
  6  8  1  0
  5  9  1  0
  9 10  2  0
  9 11  1  0
 11 12  2  0
 12 13  1  0
 13 14  1  0
 13 15  2  0
 15 16  1  0
 16 17  1  0
 17 18  1  0
 18 19  1  0
 19 20  1  0
 20 21  1  0
 15 22  1  0
 22 23  2  0
 23  3  1  0
 23 11  1  0
 21 16  1  0
  1 24  1  0
  1 25  1  0
  1 26  1  0
  2 27  1  0
  2 28  1  0
  4 29  1  0
 12 30  1  0
 14 31  1  0
 14 32  1  0
 14 33  1  0
 17 34  1  0
 17 35  1  0
 18 36  1  0
 18 37  1  0
 19 38  1  0
 20 39  1  0
 20 40  1  0
 21 41  1  0
 21 42  1  0
 22 43  1  0
M  CHG  2   8  -1  22   1
M  END
>  <UniqueID>  (22) 
22

>  <SMILES>  (22) 
CCn1cc(C(=O)[O-])c(=O)c2cc(C)c(N3CCNCC3)[nH+]c21

>  <Energy>  (22) 
62.83921687803919

>  <Genealogy>  (22) 
CCn1cc(C(=O)[O-])c(=O)c2cc(C)c(N3CCNCC3)[nH+]c21 (protonated)
CCn1cc(C(=O)[O-])c(=O)c2cc(C)c(N3CCNCC3)[nH+]c21 (3D coordinates assigned)
CCn1cc(C(=O)[O-])c(=O)c2cc(C)c(N3CCNCC3)[nH+]c21 (nonaromatic ring conformer: 62.83921687803919 kcal/mol)

>  <smiles>  (22) 
CCn1cc(C(=O)O)c(=O)c2cc(C)c(N3CCNCC3)nc21

>  <score_type>  (22) 
oracle

>  <origin>  (22) 
adg

>  <m_score__min__energy>  (22) 
-8.3900000000000006

>  <m_primary>  (22) 
energy

$$$$
22:0
     RDKit          3D

 43 46  0  0  0  0  0  0  0  0999 V2000
   63.3800   33.8410   46.4340 C   0  0  0  0  0  0  0  0  0  0  0  0
   63.6260   32.4980   47.1120 C   0  0  0  0  0  0  0  0  0  0  0  0
   62.6150   32.2560   48.1400 N   0  0  0  0  0  0  0  0  0  0  0  0
   62.7970   32.2940   49.4830 C   0  0  0  0  0  0  0  0  0  0  0  0
   61.6680   31.9820   50.1640 N   0  0  0  0  0  0  0  0  0  0  0  0
   60.7560   31.7210   49.2070 C   0  0  0  0  0  0  0  0  0  0  0  0
   59.4100   31.3570   49.3260 C   0  0  0  0  0  0  0  0  0  0  0  0
   58.7670   31.1350   50.5960 N   0  0  0  0  0  0  0  0  0  0  0  0
   59.2130   30.0630   51.4970 C   0  0  0  0  0  0  0  0  0  0  0  0
   58.0130   29.3330   52.1520 C   0  0  0  0  0  0  0  0  0  0  0  0
   56.7650   29.9870   51.9890 O   0  0  0  0  0  0  0  0  0  0  0  0
   56.9050   31.3780   52.1790 C   0  0  0  0  0  0  0  0  0  0  0  0
   57.6220   31.9710   50.9690 C   0  0  0  0  0  0  0  0  0  0  0  0
   58.6960   31.2070   48.1690 N   0  0  0  0  0  0  0  0  0  0  0  0
   59.2400   31.3800   46.9210 C   0  0  0  0  0  0  0  0  0  0  0  0
   58.3800   31.1840   45.7260 C   0  0  0  0  0  0  0  0  0  0  0  0
   58.4970   32.0500   44.6240 C   0  0  0  0  0  0  0  0  0  0  0  0
   57.6950   31.8670   43.4960 C   0  0  0  0  0  0  0  0  0  0  0  0
   56.7830   30.8140   43.4690 C   0  0  0  0  0  0  0  0  0  0  0  0
   56.6840   29.9730   44.5310 N   0  0  0  0  0  0  0  0  0  0  0  0
   57.4500   30.1290   45.6440 C   0  0  0  0  0  0  0  0  0  0  0  0
   60.6060   31.7230   46.8010 C   0  0  0  0  0  0  0  0  0  0  0  0
   61.3270   31.8940   47.9810 C   0  0  0  0  0  0  0  0  0  0  0  0
   63.2377   34.6177   47.1998 H   0  0  0  0  0  0  0  0  0  0  0  0
   64.2458   34.0990   45.8065 H   0  0  0  0  0  0  0  0  0  0  0  0
   62.4789   33.7754   45.8065 H   0  0  0  0  0  0  0  0  0  0  0  0
   63.5772   31.6972   46.3594 H   0  0  0  0  0  0  0  0  0  0  0  0
   64.6197   32.5119   47.5836 H   0  0  0  0  0  0  0  0  0  0  0  0
   63.7524   32.5491   49.9648 H   0  0  0  0  0  0  0  0  0  0  0  0
   61.5520   31.9750   51.2000 H   0  0  0  0  0  0  0  0  0  0  0  0
   59.8028   29.3347   50.9210 H   0  0  0  0  0  0  0  0  0  0  0  0
   59.8191   30.5147   52.2961 H   0  0  0  0  0  0  0  0  0  0  0  0
   57.9361   28.3304   51.7060 H   0  0  0  0  0  0  0  0  0  0  0  0
   58.2143   29.3093   53.2332 H   0  0  0  0  0  0  0  0  0  0  0  0
   55.9115   31.8387   52.2822 H   0  0  0  0  0  0  0  0  0  0  0  0
   57.4879   31.5734   53.0912 H   0  0  0  0  0  0  0  0  0  0  0  0
   56.9214   32.0253   50.1227 H   0  0  0  0  0  0  0  0  0  0  0  0
   57.9826   32.9782   51.2249 H   0  0  0  0  0  0  0  0  0  0  0  0
   59.2238   32.8753   44.6510 H   0  0  0  0  0  0  0  0  0  0  0  0
   57.7823   32.5479   42.6365 H   0  0  0  0  0  0  0  0  0  0  0  0
   56.1428   30.6637   42.5872 H   0  0  0  0  0  0  0  0  0  0  0  0
   57.3428   29.4277   46.4846 H   0  0  0  0  0  0  0  0  0  0  0  0
   61.0803   31.8497   45.8166 H   0  0  0  0  0  0  0  0  0  0  0  0
  1  2  1  0
  2  3  1  0
  3  4  1  0
  4  5  2  0
  5  6  1  0
  6  7  2  0
  7  8  1  0
  8  9  1  0
  9 10  1  0
 10 11  1  0
 11 12  1  0
 12 13  1  0
  7 14  1  0
 14 15  2  0
 15 16  1  0
 16 17  2  0
 17 18  1  0
 18 19  2  0
 19 20  1  0
 20 21  2  0
 15 22  1  0
 22 23  2  0
 23  3  1  0
 23  6  1  0
 13  8  1  0
 21 16  1  0
  1 24  1  0
  1 25  1  0
  1 26  1  0
  2 27  1  0
  2 28  1  0
  4 29  1  0
  5 30  1  0
  9 31  1  0
  9 32  1  0
 10 33  1  0
 10 34  1  0
 12 35  1  0
 12 36  1  0
 13 37  1  0
 13 38  1  0
 17 39  1  0
 18 40  1  0
 19 41  1  0
 21 42  1  0
 22 43  1  0
M  CHG  1   5   1
M  END
>  <UniqueID>  (23) 
23

>  <SMILES>  (23) 
CCn1c[nH+]c2c(N3CCOCC3)nc(-c3cccnc3)cc21

>  <Energy>  (23) 
97.62313681502208

>  <Genealogy>  (23) 
CCn1c[nH+]c2c(N3CCOCC3)nc(-c3cccnc3)cc21 (protonated)
CCn1c[nH+]c2c(N3CCOCC3)nc(-c3cccnc3)cc21 (3D coordinates assigned)
CCn1c[nH+]c2c(N3CCOCC3)nc(-c3cccnc3)cc21 (nonaromatic ring conformer: 97.62313681502208 kcal/mol)

>  <smiles>  (23) 
CCn1cnc2c(N3CCOCC3)nc(-c3cccnc3)cc21

>  <score_type>  (23) 
oracle

>  <origin>  (23) 
adg

>  <m_score__min__energy>  (23) 
-5.2599999999999998

>  <m_primary>  (23) 
energy

$$$$
23:0
     RDKit          3D

 68 71  0  0  0  0  0  0  0  0999 V2000
   60.7350   27.6980   49.7350 C   0  0  0  0  0  0  0  0  0  0  0  0
   60.8030   29.1090   49.1600 C   0  0  0  0  0  0  0  0  0  0  0  0
   59.5150   29.5360   48.7110 O   0  0  0  0  0  0  0  0  0  0  0  0
   59.2200   30.8560   48.3420 C   0  0  0  0  0  0  0  0  0  0  0  0
   59.4560   31.8870   49.2670 C   0  0  0  0  0  0  0  0  0  0  0  0
   59.8250   31.5510   50.5810 O   0  0  0  0  0  0  0  0  0  0  0  0
   58.9530   30.9690   51.5450 C   0  0  0  0  0  0  0  0  0  0  0  0
   59.2940   33.2170   48.8710 C   0  0  0  0  0  0  0  0  0  0  0  0
   58.9440   33.5250   47.5640 C   0  0  0  0  0  0  0  0  0  0  0  0
   58.6980   32.5110   46.6090 C   0  0  0  0  0  0  0  0  0  0  0  0
   58.7090   31.1540   47.0420 C   0  0  0  0  0  0  0  0  0  0  0  0
   58.2210   30.1550   46.1550 C   0  0  0  0  0  0  0  0  0  0  0  0
   57.8570   30.5140   44.8410 C   0  0  0  0  0  0  0  0  0  0  0  0
   57.3920   29.5240   43.9340 C   0  0  0  0  0  0  0  0  0  0  0  0
   56.9920   29.8960   42.6440 C   0  0  0  0  0  0  0  0  0  0  0  0
   56.9980   31.2290   42.2620 C   0  0  0  0  0  0  0  0  0  0  0  0
   57.4490   32.2080   43.1420 C   0  0  0  0  0  0  0  0  0  0  0  0
   57.9320   31.8700   44.4320 C   0  0  0  0  0  0  0  0  0  0  0  0
   58.4400   32.8250   45.2870 N   0  0  0  0  0  0  0  0  0  0  0  0
   58.7620   34.1770   44.7730 C   0  0  0  0  0  0  0  0  0  0  0  0
   57.4020   28.1260   44.2950 N   0  0  0  0  0  0  0  0  0  0  0  0
   57.0150   27.9590   45.7030 C   0  0  1  0  0  0  0  0  0  0  0  0
   56.9750   26.4680   46.0920 C   0  0  0  0  0  0  0  0  0  0  0  0
   57.2310   25.6290   44.9130 N   0  0  0  0  0  0  0  0  0  0  0  0
   57.0850   24.1910   45.1970 C   0  0  0  0  0  0  0  0  0  0  0  0
   57.2520   23.3190   43.9240 C   0  0  0  0  0  0  0  0  0  0  0  0
   57.7310   21.9240   44.1670 N   0  0  0  0  0  0  0  0  0  0  0  0
   59.2080   21.8740   44.2980 C   0  0  0  0  0  0  0  0  0  0  0  0
   57.3420   21.0970   42.9980 C   0  0  0  0  0  0  0  0  0  0  0  0
   57.1030   21.3400   45.3780 C   0  0  0  0  0  0  0  0  0  0  0  0
   58.0000   28.7180   46.6080 C   0  0  0  0  0  0  0  0  0  0  0  0
   60.7375   27.7493   50.8338 H   0  0  0  0  0  0  0  0  0  0  0  0
   59.8121   27.2067   49.3930 H   0  0  0  0  0  0  0  0  0  0  0  0
   61.6063   27.1203   49.3930 H   0  0  0  0  0  0  0  0  0  0  0  0
   61.1607   29.7990   49.9385 H   0  0  0  0  0  0  0  0  0  0  0  0
   61.4929   29.1081   48.3033 H   0  0  0  0  0  0  0  0  0  0  0  0
   59.3124   31.2089   52.5566 H   0  0  0  0  0  0  0  0  0  0  0  0
   57.9380   31.3714   51.4115 H   0  0  0  0  0  0  0  0  0  0  0  0
   58.9352   29.8773   51.4115 H   0  0  0  0  0  0  0  0  0  0  0  0
   59.4450   34.0261   49.6008 H   0  0  0  0  0  0  0  0  0  0  0  0
   58.8560   34.5797   47.2644 H   0  0  0  0  0  0  0  0  0  0  0  0
   56.6707   29.1247   41.9286 H   0  0  0  0  0  0  0  0  0  0  0  0
   56.6450   31.5135   41.2598 H   0  0  0  0  0  0  0  0  0  0  0  0
   57.4306   33.2631   42.8316 H   0  0  0  0  0  0  0  0  0  0  0  0
   58.9250   34.8615   45.6185 H   0  0  0  0  0  0  0  0  0  0  0  0
   59.6737   34.1285   44.1595 H   0  0  0  0  0  0  0  0  0  0  0  0
   57.9263   34.5447   44.1595 H   0  0  0  0  0  0  0  0  0  0  0  0
   58.3650   27.7480   44.1330 H   0  0  0  0  0  0  0  0  0  0  0  0
   56.7280   27.6000   43.6920 H   0  0  0  0  0  0  0  0  0  0  0  0
   56.0050   28.3734   45.8378 H   0  0  0  0  0  0  0  0  0  0  0  0
   57.7445   26.2702   46.8528 H   0  0  0  0  0  0  0  0  0  0  0  0
   55.9794   26.2284   46.4938 H   0  0  0  0  0  0  0  0  0  0  0  0
   56.5720   25.9010   44.1460 H   0  0  0  0  0  0  0  0  0  0  0  0
   57.8497   23.8959   45.9306 H   0  0  0  0  0  0  0  0  0  0  0  0
   56.0696   24.0265   45.5866 H   0  0  0  0  0  0  0  0  0  0  0  0
   56.2756   23.2608   43.4208 H   0  0  0  0  0  0  0  0  0  0  0  0
   58.0296   23.8079   43.3187 H   0  0  0  0  0  0  0  0  0  0  0  0
   59.4815   21.8647   45.3634 H   0  0  0  0  0  0  0  0  0  0  0  0
   59.5884   20.9625   43.8139 H   0  0  0  0  0  0  0  0  0  0  0  0
   59.6492   22.7577   43.8139 H   0  0  0  0  0  0  0  0  0  0  0  0
   56.8981   20.1533   43.3479 H   0  0  0  0  0  0  0  0  0  0  0  0
   56.6070   21.6446   42.3898 H   0  0  0  0  0  0  0  0  0  0  0  0
   58.2325   20.8800   42.3898 H   0  0  0  0  0  0  0  0  0  0  0  0
   57.5676   21.7721   46.2766 H   0  0  0  0  0  0  0  0  0  0  0  0
   56.0263   21.5652   45.3776 H   0  0  0  0  0  0  0  0  0  0  0  0
   57.2496   20.2498   45.3776 H   0  0  0  0  0  0  0  0  0  0  0  0
   57.6005   28.7289   47.6328 H   0  0  0  0  0  0  0  0  0  0  0  0
   58.9685   28.1990   46.5564 H   0  0  0  0  0  0  0  0  0  0  0  0
  1  2  1  0
  2  3  1  0
  3  4  1  0
  4  5  2  0
  5  6  1  0
  6  7  1  0
  5  8  1  0
  8  9  2  0
  9 10  1  0
 10 11  2  0
 11 12  1  0
 12 13  2  0
 13 14  1  0
 14 15  2  0
 15 16  1  0
 16 17  2  0
 17 18  1  0
 18 19  2  0
 19 20  1  0
 14 21  1  0
 21 22  1  0
 22 23  1  0
 23 24  1  0
 24 25  1  0
 25 26  1  0
 26 27  1  0
 27 28  1  0
 27 29  1  0
 27 30  1  0
 22 31  1  0
 11  4  1  0
 31 12  1  0
 19 10  1  0
 18 13  1  0
  1 32  1  0
  1 33  1  0
  1 34  1  0
  2 35  1  0
  2 36  1  0
  7 37  1  0
  7 38  1  0
  7 39  1  0
  8 40  1  0
  9 41  1  0
 15 42  1  0
 16 43  1  0
 17 44  1  0
 20 45  1  0
 20 46  1  0
 20 47  1  0
 21 48  1  0
 21 49  1  0
 22 50  1  6
 23 51  1  0
 23 52  1  0
 24 53  1  0
 25 54  1  0
 25 55  1  0
 26 56  1  0
 26 57  1  0
 28 58  1  0
 28 59  1  0
 28 60  1  0
 29 61  1  0
 29 62  1  0
 29 63  1  0
 30 64  1  0
 30 65  1  0
 30 66  1  0
 31 67  1  0
 31 68  1  0
M  CHG  3  19   1  21   1  27   1
M  END
>  <UniqueID>  (24) 
24

>  <SMILES>  (24) 
CCOc1c(OC)ccc2c1c1c3c(cccc3[n+]2C)[NH2+][C@@H](CNCC[N+](C)(C)C)C1

>  <Energy>  (24) 
108.64495153034014

>  <Genealogy>  (24) 
CCOc1c(OC)ccc2c1c1c3c(cccc3[n+]2C)[NH2+]C(CNCC[N+](C)(C)C)C1 (protonated)
CCOc1c(OC)ccc2c1c1c3c(cccc3[n+]2C)[NH2+][C@@H](CNCC[N+](C)(C)C)C1 (chirality)
CCOc1c(OC)ccc2c1c1c3c(cccc3[n+]2C)[NH2+][C@@H](CNCC[N+](C)(C)C)C1 (3D coordinates assigned)
CCOc1c(OC)ccc2c1c1c3c(cccc3[n+]2C)[NH2+][C@@H](CNCC[N+](C)(C)C)C1 (nonaromatic ring conformer: 108.64495153034014 kcal/mol)

>  <smiles>  (24) 
CCOc1c(OC)ccc2c1c1c3c(cccc3[n+]2C)NC(CNCC[N+](C)(C)C)C1

>  <score_type>  (24) 
oracle

>  <origin>  (24) 
adg

>  <m_score__min__energy>  (24) 
-3.2599999999999998

>  <m_primary>  (24) 
energy

$$$$
24:0
     RDKit          3D

 54 57  0  0  0  0  0  0  0  0999 V2000
   55.7800   29.8570   44.1170 C   0  0  0  0  0  0  0  0  0  0  0  0
   56.6380   29.3580   42.9470 C   0  0  0  0  0  0  0  0  0  0  0  0
   57.7720   28.5030   43.3890 N   0  0  2  0  0  0  0  0  0  0  0  0
   57.8020   27.2370   42.6280 C   0  0  0  0  0  0  0  0  0  0  0  0
   57.7070   28.1890   44.8390 C   0  0  0  0  0  0  0  0  0  0  0  0
   58.8090   28.8500   45.6940 C   0  0  0  0  0  0  0  0  0  0  0  0
   58.2640   29.7810   46.6880 N   0  0  0  0  0  0  0  0  0  0  0  0
   58.9430   31.0030   47.0450 C   0  0  0  0  0  0  0  0  0  0  0  0
   58.7120   32.1950   46.3240 C   0  0  0  0  0  0  0  0  0  0  0  0
   57.6580   32.2860   45.3880 C   0  0  0  0  0  0  0  0  0  0  0  0
   57.4270   33.4660   44.6840 C   0  0  0  0  0  0  0  0  0  0  0  0
   58.2230   34.5810   44.9150 C   0  0  0  0  0  0  0  0  0  0  0  0
   59.2380   34.5320   45.8670 C   0  0  0  0  0  0  0  0  0  0  0  0
   59.4930   33.3490   46.6050 C   0  0  0  0  0  0  0  0  0  0  0  0
   60.4560   33.3150   47.5920 N   0  0  0  0  0  0  0  0  0  0  0  0
   60.8790   34.5890   48.2130 C   0  0  0  0  0  0  0  0  0  0  0  0
   60.8040   32.1120   48.1720 C   0  0  0  0  0  0  0  0  0  0  0  0
   59.9230   30.9980   48.0590 C   0  0  0  0  0  0  0  0  0  0  0  0
   60.0610   29.9010   48.9530 C   0  0  0  0  0  0  0  0  0  0  0  0
   61.1130   29.8490   49.8740 C   0  0  0  0  0  0  0  0  0  0  0  0
   62.0620   30.8570   49.8340 C   0  0  0  0  0  0  0  0  0  0  0  0
   63.2930   30.9010   50.4430 C   0  0  0  0  0  0  0  0  0  0  0  0
   63.9460   31.9740   49.8620 C   0  0  0  0  0  0  0  0  0  0  0  0
   63.1580   32.5740   48.9400 N   0  0  0  0  0  0  0  0  0  0  0  0
   63.6870   33.4590   47.9010 C   0  0  0  0  0  0  0  0  0  0  0  0
   61.9640   31.9250   48.9730 C   0  0  0  0  0  0  0  0  0  0  0  0
   56.2586   29.5787   45.0675 H   0  0  0  0  0  0  0  0  0  0  0  0
   55.6847   30.9514   44.0612 H   0  0  0  0  0  0  0  0  0  0  0  0
   54.7816   29.3987   44.0612 H   0  0  0  0  0  0  0  0  0  0  0  0
   56.0005   28.7731   42.2677 H   0  0  0  0  0  0  0  0  0  0  0  0
   57.0633   30.2409   42.4473 H   0  0  0  0  0  0  0  0  0  0  0  0
   58.6700   28.9940   43.1970 H   0  0  0  0  0  0  0  0  0  0  0  0
   57.8221   26.3888   43.3281 H   0  0  0  0  0  0  0  0  0  0  0  0
   56.9052   27.1685   41.9947 H   0  0  0  0  0  0  0  0  0  0  0  0
   58.7010   27.2111   41.9947 H   0  0  0  0  0  0  0  0  0  0  0  0
   56.7311   28.5257   45.2187 H   0  0  0  0  0  0  0  0  0  0  0  0
   57.8557   27.1027   44.9278 H   0  0  0  0  0  0  0  0  0  0  0  0
   59.3694   28.0619   46.2183 H   0  0  0  0  0  0  0  0  0  0  0  0
   59.4583   29.4249   45.0173 H   0  0  0  0  0  0  0  0  0  0  0  0
   57.4220   29.4800   47.2280 H   0  0  0  0  0  0  0  0  0  0  0  0
   57.0111   31.4138   45.2126 H   0  0  0  0  0  0  0  0  0  0  0  0
   56.6138   33.5148   43.9448 H   0  0  0  0  0  0  0  0  0  0  0  0
   58.0509   35.5054   44.3441 H   0  0  0  0  0  0  0  0  0  0  0  0
   59.8521   35.4262   46.0494 H   0  0  0  0  0  0  0  0  0  0  0  0
   60.8467   34.4916   49.3082 H   0  0  0  0  0  0  0  0  0  0  0  0
   61.9049   34.8284   47.8963 H   0  0  0  0  0  0  0  0  0  0  0  0
   60.2001   35.3945   47.8963 H   0  0  0  0  0  0  0  0  0  0  0  0
   59.3292   29.0804   48.9200 H   0  0  0  0  0  0  0  0  0  0  0  0
   61.1842   29.0324   50.6075 H   0  0  0  0  0  0  0  0  0  0  0  0
   63.6768   30.2282   51.2241 H   0  0  0  0  0  0  0  0  0  0  0  0
   64.9670   32.2955   50.1153 H   0  0  0  0  0  0  0  0  0  0  0  0
   64.1972   34.3126   48.3713 H   0  0  0  0  0  0  0  0  0  0  0  0
   64.4016   32.9039   47.2755 H   0  0  0  0  0  0  0  0  0  0  0  0
   62.8597   33.8256   47.2755 H   0  0  0  0  0  0  0  0  0  0  0  0
  1  2  1  0
  2  3  1  0
  3  4  1  0
  3  5  1  0
  5  6  1  0
  6  7  1  0
  7  8  1  0
  8  9  2  0
  9 10  1  0
 10 11  2  0
 11 12  1  0
 12 13  2  0
 13 14  1  0
 14 15  2  0
 15 16  1  0
 15 17  1  0
 17 18  2  0
 18 19  1  0
 19 20  2  0
 20 21  1  0
 21 22  1  0
 22 23  2  0
 23 24  1  0
 24 25  1  0
 24 26  1  0
 18  8  1  0
 26 21  2  0
 14  9  1  0
 26 17  1  0
  1 27  1  0
  1 28  1  0
  1 29  1  0
  2 30  1  0
  2 31  1  0
  3 32  1  1
  4 33  1  0
  4 34  1  0
  4 35  1  0
  5 36  1  0
  5 37  1  0
  6 38  1  0
  6 39  1  0
  7 40  1  0
 10 41  1  0
 11 42  1  0
 12 43  1  0
 13 44  1  0
 16 45  1  0
 16 46  1  0
 16 47  1  0
 19 48  1  0
 20 49  1  0
 22 50  1  0
 23 51  1  0
 25 52  1  0
 25 53  1  0
 25 54  1  0
M  CHG  2   3   1  15   1
M  END
>  <UniqueID>  (25) 
25

>  <SMILES>  (25) 
CC[N@H+](C)CCNc1c2ccccc2[n+](C)c2c1ccc1ccn(C)c12

>  <Energy>  (25) 
130.46315416301337

>  <Genealogy>  (25) 
CC[NH+](C)CCNc1c2ccccc2[n+](C)c2c1ccc1ccn(C)c12 (protonated)
CC[N@H+](C)CCNc1c2ccccc2[n+](C)c2c1ccc1ccn(C)c12 (chirality)
CC[N@H+](C)CCNc1c2ccccc2[n+](C)c2c1ccc1ccn(C)c12 (3D coordinates assigned)
CC[N@H+](C)CCNc1c2ccccc2[n+](C)c2c1ccc1ccn(C)c12 (optimized conformer: 130.46315416301337 kcal/mol)

>  <smiles>  (25) 
CCN(C)CCNc1c2ccccc2[n+](C)c2c1ccc1ccn(C)c12

>  <score_type>  (25) 
oracle

>  <origin>  (25) 
adg

>  <m_score__min__energy>  (25) 
-5.1500000000000004

>  <m_primary>  (25) 
energy

$$$$
25:0
     RDKit          3D

 36 36  0  0  0  0  0  0  0  0999 V2000
   60.3590   28.7100   45.8300 C   0  0  0  0  0  0  0  0  0  0  0  0
   59.5370   28.6490   44.5340 C   0  0  0  0  0  0  0  0  0  0  0  0
   58.0940   28.3950   44.7570 N   0  0  0  0  0  0  0  0  0  0  0  0
   57.8020   26.9500   44.9000 C   0  0  0  0  0  0  0  0  0  0  0  0
   56.8090   26.6920   46.0310 C   0  0  0  0  0  0  0  0  0  0  0  0
   57.2410   29.0640   43.7450 C   0  0  0  0  0  0  0  0  0  0  0  0
   56.1910   29.8980   44.4230 C   0  0  0  0  0  0  0  0  0  0  0  0
   55.1570   29.3370   44.8720 O   0  0  0  0  0  0  0  0  0  0  0  0
   56.3090   31.3230   44.5390 N   0  0  0  0  0  0  0  0  0  0  0  0
   57.3740   32.0390   45.1770 C   0  0  0  0  0  0  0  0  0  0  0  0
   58.1420   31.3870   46.1490 C   0  0  0  0  0  0  0  0  0  0  0  0
   59.2030   32.0500   46.7730 C   0  0  0  0  0  0  0  0  0  0  0  0
   59.5150   33.3670   46.4180 C   0  0  0  0  0  0  0  0  0  0  0  0
   60.8810   34.2080   47.2250 S   0  0  0  0  0  0  0  0  0  0  0  0
   60.0480   34.2680   48.8410 C   0  0  0  0  0  0  0  0  0  0  0  0
   58.7720   34.0140   45.4210 C   0  0  0  0  0  0  0  0  0  0  0  0
   59.0800   35.2820   45.0490 F   0  0  0  0  0  0  0  0  0  0  0  0
   57.7110   33.3510   44.7980 C   0  0  0  0  0  0  0  0  0  0  0  0
   59.6825   28.6598   46.6960 H   0  0  0  0  0  0  0  0  0  0  0  0
   61.0581   27.8613   45.8611 H   0  0  0  0  0  0  0  0  0  0  0  0
   60.9251   29.6526   45.8611 H   0  0  0  0  0  0  0  0  0  0  0  0
   59.6438   29.6098   44.0091 H   0  0  0  0  0  0  0  0  0  0  0  0
   59.9255   27.8048   43.9455 H   0  0  0  0  0  0  0  0  0  0  0  0
   57.3761   26.5759   43.9574 H   0  0  0  0  0  0  0  0  0  0  0  0
   58.7410   26.4287   45.1378 H   0  0  0  0  0  0  0  0  0  0  0  0
   57.3140   26.8232   46.9994 H   0  0  0  0  0  0  0  0  0  0  0  0
   55.9730   27.4027   45.9542 H   0  0  0  0  0  0  0  0  0  0  0  0
   56.4247   25.6642   45.9542 H   0  0  0  0  0  0  0  0  0  0  0  0
   57.8666   29.7108   43.1124 H   0  0  0  0  0  0  0  0  0  0  0  0
   56.7486   28.2986   43.1272 H   0  0  0  0  0  0  0  0  0  0  0  0
   57.9094   30.3474   46.4233 H   0  0  0  0  0  0  0  0  0  0  0  0
   59.7939   31.5351   47.5448 H   0  0  0  0  0  0  0  0  0  0  0  0
   60.7990   34.2139   49.6429 H   0  0  0  0  0  0  0  0  0  0  0  0
   59.4851   35.2090   48.9287 H   0  0  0  0  0  0  0  0  0  0  0  0
   59.3561   33.4174   48.9287 H   0  0  0  0  0  0  0  0  0  0  0  0
   57.1371   33.8574   44.0079 H   0  0  0  0  0  0  0  0  0  0  0  0
  1  2  1  0
  2  3  1  0
  3  4  1  0
  4  5  1  0
  3  6  1  0
  6  7  1  0
  7  8  2  0
  7  9  1  0
  9 10  1  0
 10 11  2  0
 11 12  1  0
 12 13  2  0
 13 14  1  0
 14 15  1  0
 13 16  1  0
 16 17  1  0
 16 18  2  0
 18 10  1  0
  1 19  1  0
  1 20  1  0
  1 21  1  0
  2 22  1  0
  2 23  1  0
  4 24  1  0
  4 25  1  0
  5 26  1  0
  5 27  1  0
  5 28  1  0
  6 29  1  0
  6 30  1  0
 11 31  1  0
 12 32  1  0
 15 33  1  0
 15 34  1  0
 15 35  1  0
 18 36  1  0
M  CHG  1   9  -1
M  END
>  <UniqueID>  (26) 
26

>  <SMILES>  (26) 
CCN(CC)CC(=O)[N-]c1ccc(SC)c(F)c1

>  <Energy>  (26) 
34.604675214183274

>  <Genealogy>  (26) 
CCN(CC)CC(=O)[N-]c1ccc(SC)c(F)c1 (protonated)
CCN(CC)CC(=O)[N-]c1ccc(SC)c(F)c1 (3D coordinates assigned)
CCN(CC)CC(=O)[N-]c1ccc(SC)c(F)c1 (optimized conformer: 34.604675214183274 kcal/mol)

>  <smiles>  (26) 
CCN(CC)CC(=O)Nc1ccc(SC)c(F)c1

>  <score_type>  (26) 
oracle

>  <origin>  (26) 
adg

>  <m_score__min__energy>  (26) 
-7.7699999999999996

>  <m_primary>  (26) 
energy

$$$$
26:0
     RDKit          3D

 70 72  0  0  0  0  0  0  0  0999 V2000
   64.7630   34.2330   51.8790 C   0  0  0  0  0  0  0  0  0  0  0  0
   66.2570   34.0530   52.1750 C   0  0  0  0  0  0  0  0  0  0  0  0
   66.8750   32.9270   51.4250 N   0  0  0  0  0  0  0  0  0  0  0  0
   67.5170   33.4520   50.1910 C   0  0  0  0  0  0  0  0  0  0  0  0
   68.7720   34.2930   50.4640 C   0  0  0  0  0  0  0  0  0  0  0  0
   67.7820   32.0860   52.2610 C   0  0  0  0  0  0  0  0  0  0  0  0
   67.6750   30.5660   52.0080 C   0  0  0  0  0  0  0  0  0  0  0  0
   66.6900   30.2880   51.0290 O   0  0  0  0  0  0  0  0  0  0  0  0
   65.5060   29.7980   51.6270 C   0  0  0  0  0  0  0  0  0  0  0  0
   64.3540   30.7400   51.3020 C   0  0  0  0  0  0  0  0  0  0  0  0
   64.7080   31.5770   50.2040 O   0  0  0  0  0  0  0  0  0  0  0  0
   63.7910   32.1120   49.2870 C   0  0  0  0  0  0  0  0  0  0  0  0
   64.0910   33.3440   48.6950 C   0  0  0  0  0  0  0  0  0  0  0  0
   63.2250   33.9150   47.7600 C   0  0  0  0  0  0  0  0  0  0  0  0
   62.0400   33.2650   47.4100 C   0  0  0  0  0  0  0  0  0  0  0  0
   61.2300   33.8170   46.5120 O   0  0  0  0  0  0  0  0  0  0  0  0
   60.0860   33.2570   46.1340 C   0  0  0  0  0  0  0  0  0  0  0  0
   59.2900   33.8960   45.1810 C   0  0  0  0  0  0  0  0  0  0  0  0
   58.0840   33.3220   44.7720 C   0  0  0  0  0  0  0  0  0  0  0  0
   57.6520   32.1050   45.3110 C   0  0  0  0  0  0  0  0  0  0  0  0
   56.4260   31.5860   44.8610 O   0  0  0  0  0  0  0  0  0  0  0  0
   56.2620   30.4720   43.9840 C   0  0  0  0  0  0  0  0  0  0  0  0
   56.6650   29.1650   44.6810 C   0  0  0  0  0  0  0  0  0  0  0  0
   57.9390   28.5390   44.0530 C   0  0  0  0  0  0  0  0  0  0  0  0
   58.9670   28.1070   45.0280 N   0  0  0  0  0  0  0  0  0  0  0  0
   60.2260   28.8570   44.9140 C   0  0  0  0  0  0  0  0  0  0  0  0
   58.4750   28.0880   46.4160 C   0  0  0  0  0  0  0  0  0  0  0  0
   58.4490   31.4580   46.2780 C   0  0  0  0  0  0  0  0  0  0  0  0
   59.6710   32.0250   46.6890 C   0  0  0  0  0  0  0  0  0  0  0  0
   60.5020   31.4050   47.6390 C   0  0  0  0  0  0  0  0  0  0  0  0
   60.1690   30.3020   48.1560 O   0  0  0  0  0  0  0  0  0  0  0  0
   61.7100   32.0260   48.0070 C   0  0  0  0  0  0  0  0  0  0  0  0
   62.5920   31.4550   48.9440 C   0  0  0  0  0  0  0  0  0  0  0  0
   64.2071   34.3000   52.8258 H   0  0  0  0  0  0  0  0  0  0  0  0
   64.6126   35.1558   51.2994 H   0  0  0  0  0  0  0  0  0  0  0  0
   64.3977   33.3724   51.2994 H   0  0  0  0  0  0  0  0  0  0  0  0
   66.7807   34.9817   51.9043 H   0  0  0  0  0  0  0  0  0  0  0  0
   66.3507   33.8207   53.2461 H   0  0  0  0  0  0  0  0  0  0  0  0
   66.0870   32.3070   51.1170 H   0  0  0  0  0  0  0  0  0  0  0  0
   67.8004   32.5995   49.5562 H   0  0  0  0  0  0  0  0  0  0  0  0
   66.7856   34.1117   49.7013 H   0  0  0  0  0  0  0  0  0  0  0  0
   68.9185   34.3912   51.5498 H   0  0  0  0  0  0  0  0  0  0  0  0
   69.6483   33.7991   50.0189 H   0  0  0  0  0  0  0  0  0  0  0  0
   68.6484   35.2913   50.0189 H   0  0  0  0  0  0  0  0  0  0  0  0
   68.8181   32.3943   52.0575 H   0  0  0  0  0  0  0  0  0  0  0  0
   67.4773   32.2474   53.3055 H   0  0  0  0  0  0  0  0  0  0  0  0
   68.6475   30.1891   51.6585 H   0  0  0  0  0  0  0  0  0  0  0  0
   67.3883   30.0711   52.9476 H   0  0  0  0  0  0  0  0  0  0  0  0
   65.2832   28.7950   51.2341 H   0  0  0  0  0  0  0  0  0  0  0  0
   65.6394   29.7397   52.7173 H   0  0  0  0  0  0  0  0  0  0  0  0
   63.4635   30.1503   51.0390 H   0  0  0  0  0  0  0  0  0  0  0  0
   64.1387   31.3660   52.1805 H   0  0  0  0  0  0  0  0  0  0  0  0
   65.0185   33.8681   48.9690 H   0  0  0  0  0  0  0  0  0  0  0  0
   63.4775   34.8806   47.2975 H   0  0  0  0  0  0  0  0  0  0  0  0
   59.6140   34.8551   44.7507 H   0  0  0  0  0  0  0  0  0  0  0  0
   57.4670   33.8323   44.0178 H   0  0  0  0  0  0  0  0  0  0  0  0
   55.2077   30.4068   43.6772 H   0  0  0  0  0  0  0  0  0  0  0  0
   56.9083   30.6168   43.1057 H   0  0  0  0  0  0  0  0  0  0  0  0
   56.8590   29.3744   45.7433 H   0  0  0  0  0  0  0  0  0  0  0  0
   55.8397   28.4477   44.5607 H   0  0  0  0  0  0  0  0  0  0  0  0
   57.6341   27.6602   43.4659 H   0  0  0  0  0  0  0  0  0  0  0  0
   58.4034   29.3292   43.4447 H   0  0  0  0  0  0  0  0  0  0  0  0
   60.6092   29.0853   45.9195 H   0  0  0  0  0  0  0  0  0  0  0  0
   60.9652   28.2519   44.3686 H   0  0  0  0  0  0  0  0  0  0  0  0
   60.0459   29.7951   44.3686 H   0  0  0  0  0  0  0  0  0  0  0  0
   59.3292   28.1210   47.1083 H   0  0  0  0  0  0  0  0  0  0  0  0
   57.8295   28.9619   46.5882 H   0  0  0  0  0  0  0  0  0  0  0  0
   57.8988   27.1669   46.5882 H   0  0  0  0  0  0  0  0  0  0  0  0
   58.1143   30.5050   46.7138 H   0  0  0  0  0  0  0  0  0  0  0  0
   62.3440   30.4905   49.4112 H   0  0  0  0  0  0  0  0  0  0  0  0
  1  2  1  0
  2  3  1  0
  3  4  1  0
  4  5  1  0
  3  6  1  0
  6  7  1  0
  7  8  1  0
  8  9  1  0
  9 10  1  0
 10 11  1  0
 11 12  1  0
 12 13  2  0
 13 14  1  0
 14 15  2  0
 15 16  1  0
 16 17  1  0
 17 18  2  0
 18 19  1  0
 19 20  2  0
 20 21  1  0
 21 22  1  0
 22 23  1  0
 23 24  1  0
 24 25  1  0
 25 26  1  0
 25 27  1  0
 20 28  1  0
 28 29  2  0
 29 30  1  0
 30 31  2  0
 30 32  1  0
 32 33  2  0
 33 12  1  0
 32 15  1  0
 29 17  1  0
  1 34  1  0
  1 35  1  0
  1 36  1  0
  2 37  1  0
  2 38  1  0
  3 39  1  0
  4 40  1  0
  4 41  1  0
  5 42  1  0
  5 43  1  0
  5 44  1  0
  6 45  1  0
  6 46  1  0
  7 47  1  0
  7 48  1  0
  9 49  1  0
  9 50  1  0
 10 51  1  0
 10 52  1  0
 13 53  1  0
 14 54  1  0
 18 55  1  0
 19 56  1  0
 22 57  1  0
 22 58  1  0
 23 59  1  0
 23 60  1  0
 24 61  1  0
 24 62  1  0
 26 63  1  0
 26 64  1  0
 26 65  1  0
 27 66  1  0
 27 67  1  0
 27 68  1  0
 28 69  1  0
 33 70  1  0
M  CHG  1   3   1
M  END
>  <UniqueID>  (27) 
27

>  <SMILES>  (27) 
CC[NH+](CC)CCOCCOc1ccc2oc3ccc(OCCCN(C)C)cc3c(=O)c2c1

>  <Energy>  (27) 
85.29977038540507

>  <Genealogy>  (27) 
CC[NH+](CC)CCOCCOc1ccc2oc3ccc(OCCCN(C)C)cc3c(=O)c2c1 (protonated)
CC[NH+](CC)CCOCCOc1ccc2oc3ccc(OCCCN(C)C)cc3c(=O)c2c1 (3D coordinates assigned)
CC[NH+](CC)CCOCCOc1ccc2oc3ccc(OCCCN(C)C)cc3c(=O)c2c1 (optimized conformer: 85.29977038540507 kcal/mol)

>  <smiles>  (27) 
CCN(CC)CCOCCOc1ccc2oc3ccc(OCCCN(C)C)cc3c(=O)c2c1

>  <score_type>  (27) 
oracle

>  <origin>  (27) 
adg

>  <m_score__min__energy>  (27) 
-5.2800000000000002

>  <m_primary>  (27) 
energy

$$$$
27:0
     RDKit          3D

 43 44  0  0  0  0  0  0  0  0999 V2000
   65.8910   33.0200   50.0740 C   0  0  0  0  0  0  0  0  0  0  0  0
   64.8480   31.9130   49.8760 C   0  0  0  0  0  0  0  0  0  0  0  0
   64.0630   32.0960   48.6290 N   0  0  0  0  0  0  0  0  0  0  0  0
   64.0550   33.5200   48.1790 C   0  0  0  0  0  0  0  0  0  0  0  0
   62.7080   34.2140   48.4250 C   0  0  0  0  0  0  0  0  0  0  0  0
   61.6150   33.5250   47.7020 N   0  0  0  0  0  0  0  0  0  0  0  0
   60.2970   33.9850   48.1880 C   0  0  0  0  0  0  0  0  0  0  0  0
   59.6150   34.8610   47.1340 C   0  0  0  0  0  0  0  0  0  0  0  0
   60.0380   34.4460   45.7890 N   0  0  0  0  0  0  0  0  0  0  0  0
   58.9010   34.3420   44.8620 C   0  0  0  0  0  0  0  0  0  0  0  0
   58.2900   32.9610   44.8640 C   0  0  0  0  0  0  0  0  0  0  0  0
   57.5800   32.4930   43.7480 C   0  0  0  0  0  0  0  0  0  0  0  0
   57.0020   31.2220   43.7820 C   0  0  0  0  0  0  0  0  0  0  0  0
   57.1250   30.4480   44.8930 N   0  0  0  0  0  0  0  0  0  0  0  0
   57.8020   30.8770   45.9910 C   0  0  0  0  0  0  0  0  0  0  0  0
   58.3950   32.1420   45.9980 C   0  0  0  0  0  0  0  0  0  0  0  0
   61.7400   32.0420   47.7210 C   0  0  0  0  0  0  0  0  0  0  0  0
   62.6990   31.5420   48.8130 C   0  0  0  0  0  0  0  0  0  0  0  0
   66.0485   33.1872   51.1497 H   0  0  0  0  0  0  0  0  0  0  0  0
   66.8399   32.7175   49.6071 H   0  0  0  0  0  0  0  0  0  0  0  0
   65.5325   33.9493   49.6071 H   0  0  0  0  0  0  0  0  0  0  0  0
   65.3655   30.9434   49.8293 H   0  0  0  0  0  0  0  0  0  0  0  0
   64.1482   31.9540   50.7237 H   0  0  0  0  0  0  0  0  0  0  0  0
   64.5160   31.5250   47.8740 H   0  0  0  0  0  0  0  0  0  0  0  0
   64.8370   34.0661   48.7269 H   0  0  0  0  0  0  0  0  0  0  0  0
   64.2372   33.5256   47.0942 H   0  0  0  0  0  0  0  0  0  0  0  0
   62.4892   34.2025   49.5030 H   0  0  0  0  0  0  0  0  0  0  0  0
   62.7745   35.2480   48.0557 H   0  0  0  0  0  0  0  0  0  0  0  0
   59.6630   33.1110   48.3981 H   0  0  0  0  0  0  0  0  0  0  0  0
   60.4413   34.5765   49.1041 H   0  0  0  0  0  0  0  0  0  0  0  0
   58.5237   34.7548   47.2221 H   0  0  0  0  0  0  0  0  0  0  0  0
   59.9007   35.9109   47.2957 H   0  0  0  0  0  0  0  0  0  0  0  0
   60.5150   33.5160   45.8540 H   0  0  0  0  0  0  0  0  0  0  0  0
   58.1324   35.0702   45.1605 H   0  0  0  0  0  0  0  0  0  0  0  0
   59.2722   34.5464   43.8469 H   0  0  0  0  0  0  0  0  0  0  0  0
   57.4792   33.1231   42.8520 H   0  0  0  0  0  0  0  0  0  0  0  0
   56.4470   30.8470   42.9095 H   0  0  0  0  0  0  0  0  0  0  0  0
   57.8830   30.2274   46.8750 H   0  0  0  0  0  0  0  0  0  0  0  0
   58.9403   32.4932   46.8864 H   0  0  0  0  0  0  0  0  0  0  0  0
   60.7455   31.6072   47.8998 H   0  0  0  0  0  0  0  0  0  0  0  0
   62.1511   31.7306   46.7494 H   0  0  0  0  0  0  0  0  0  0  0  0
   62.3157   31.8530   49.7960 H   0  0  0  0  0  0  0  0  0  0  0  0
   62.7583   30.4456   48.7469 H   0  0  0  0  0  0  0  0  0  0  0  0
  1  2  1  0
  2  3  1  0
  3  4  1  0
  4  5  1  0
  5  6  1  0
  6  7  1  0
  7  8  1  0
  8  9  1  0
  9 10  1  0
 10 11  1  0
 11 12  2  0
 12 13  1  0
 13 14  2  0
 14 15  1  0
 15 16  2  0
  6 17  1  0
 17 18  1  0
 18  3  1  0
 16 11  1  0
  1 19  1  0
  1 20  1  0
  1 21  1  0
  2 22  1  0
  2 23  1  0
  3 24  1  0
  4 25  1  0
  4 26  1  0
  5 27  1  0
  5 28  1  0
  7 29  1  0
  7 30  1  0
  8 31  1  0
  8 32  1  0
  9 33  1  0
 10 34  1  0
 10 35  1  0
 12 36  1  0
 13 37  1  0
 15 38  1  0
 16 39  1  0
 17 40  1  0
 17 41  1  0
 18 42  1  0
 18 43  1  0
M  CHG  1   3   1
M  END
>  <UniqueID>  (28) 
28

>  <SMILES>  (28) 
CC[NH+]1CCN(CCNCc2ccncc2)CC1

>  <Energy>  (28) 
53.21704419705781

>  <Genealogy>  (28) 
CC[NH+]1CCN(CCNCc2ccncc2)CC1 (protonated)
CC[NH+]1CCN(CCNCc2ccncc2)CC1 (3D coordinates assigned)
CC[NH+]1CCN(CCNCc2ccncc2)CC1 (nonaromatic ring conformer: 53.21704419705781 kcal/mol)

>  <smiles>  (28) 
CCN1CCN(CCNCc2ccncc2)CC1

>  <score_type>  (28) 
oracle

>  <origin>  (28) 
adg

>  <m_score__min__energy>  (28) 
-4.5999999999999996

>  <m_primary>  (28) 
energy

$$$$
28:0
     RDKit          3D

 39 40  0  0  0  0  0  0  0  0999 V2000
   60.3860   27.2660   46.8440 C   0  0  0  0  0  0  0  0  0  0  0  0
   60.2640   27.8720   45.8100 C   0  0  0  0  0  0  0  0  0  0  0  0
   60.1130   28.6100   44.5420 C   0  0  0  0  0  0  0  0  0  0  0  0
   58.7000   28.7400   44.1030 N   0  0  1  0  0  0  0  0  0  0  0  0
   58.1530   27.4330   43.6910 C   0  0  0  0  0  0  0  0  0  0  0  0
   57.8160   29.3650   45.1170 C   0  0  0  0  0  0  0  0  0  0  0  0
   58.2030   30.7890   45.4010 C   0  0  0  0  0  0  0  0  0  0  0  0
   57.7890   31.9060   44.6920 C   0  0  0  0  0  0  0  0  0  0  0  0
   58.4860   32.9610   45.2440 C   0  0  0  0  0  0  0  0  0  0  0  0
   58.4430   34.3010   44.8650 C   0  0  0  0  0  0  0  0  0  0  0  0
   59.2720   35.2000   45.5480 C   0  0  0  0  0  0  0  0  0  0  0  0
   60.1170   34.7460   46.5750 C   0  0  0  0  0  0  0  0  0  0  0  0
   60.1230   33.3820   46.9270 C   0  0  0  0  0  0  0  0  0  0  0  0
   61.0690   32.8860   47.9960 C   0  0  0  0  0  0  0  0  0  0  0  0
   62.3890   32.3760   47.4020 C   0  0  0  0  0  0  0  0  0  0  0  0
   63.2840   33.5050   46.8950 C   0  0  0  0  0  0  0  0  0  0  0  0
   59.2950   32.5400   46.2370 N   0  0  0  0  0  0  0  0  0  0  0  0
   59.1290   31.2060   46.3450 C   0  0  0  0  0  0  0  0  0  0  0  0
   60.4974   26.7127   47.7881 H   0  0  0  0  0  0  0  0  0  0  0  0
   60.5322   29.6185   44.6729 H   0  0  0  0  0  0  0  0  0  0  0  0
   60.6439   28.0381   43.7667 H   0  0  0  0  0  0  0  0  0  0  0  0
   58.6940   29.3510   43.2520 H   0  0  0  0  0  0  0  0  0  0  0  0
   57.9053   26.8411   44.5845 H   0  0  0  0  0  0  0  0  0  0  0  0
   57.2445   27.5885   43.0907 H   0  0  0  0  0  0  0  0  0  0  0  0
   58.9015   26.8950   43.0907 H   0  0  0  0  0  0  0  0  0  0  0  0
   56.7807   29.3457   44.7457 H   0  0  0  0  0  0  0  0  0  0  0  0
   57.9145   28.7935   46.0517 H   0  0  0  0  0  0  0  0  0  0  0  0
   57.0619   31.9432   43.8674 H   0  0  0  0  0  0  0  0  0  0  0  0
   57.7799   34.6417   44.0561 H   0  0  0  0  0  0  0  0  0  0  0  0
   59.2616   36.2666   45.2792 H   0  0  0  0  0  0  0  0  0  0  0  0
   60.7724   35.4543   47.1030 H   0  0  0  0  0  0  0  0  0  0  0  0
   61.2868   33.7121   48.6890 H   0  0  0  0  0  0  0  0  0  0  0  0
   60.5840   32.0476   48.5174 H   0  0  0  0  0  0  0  0  0  0  0  0
   62.9323   31.8187   48.1793 H   0  0  0  0  0  0  0  0  0  0  0  0
   62.1406   31.7377   46.5412 H   0  0  0  0  0  0  0  0  0  0  0  0
   63.7127   34.0458   47.7516 H   0  0  0  0  0  0  0  0  0  0  0  0
   64.0958   33.0832   46.2841 H   0  0  0  0  0  0  0  0  0  0  0  0
   62.6881   34.1991   46.2841 H   0  0  0  0  0  0  0  0  0  0  0  0
   59.6448   30.5542   47.0655 H   0  0  0  0  0  0  0  0  0  0  0  0
  1  2  3  0
  2  3  1  0
  3  4  1  0
  4  5  1  0
  4  6  1  0
  6  7  1  0
  7  8  1  0
  8  9  2  0
  9 10  1  0
 10 11  2  0
 11 12  1  0
 12 13  2  0
 13 14  1  0
 14 15  1  0
 15 16  1  0
 13 17  1  0
 17 18  1  0
 18  7  2  0
 17  9  1  0
  1 19  1  0
  3 20  1  0
  3 21  1  0
  4 22  1  6
  5 23  1  0
  5 24  1  0
  5 25  1  0
  6 26  1  0
  6 27  1  0
  8 28  1  0
 10 29  1  0
 11 30  1  0
 12 31  1  0
 14 32  1  0
 14 33  1  0
 15 34  1  0
 15 35  1  0
 16 36  1  0
 16 37  1  0
 16 38  1  0
 18 39  1  0
M  CHG  1   4   1
M  END
>  <UniqueID>  (29) 
29

>  <SMILES>  (29) 
C#CC[N@@H+](C)Cc1cc2cccc(CCC)n2c1

>  <Energy>  (29) 
64.47293685116315

>  <Genealogy>  (29) 
C#CC[NH+](C)Cc1cc2cccc(CCC)n2c1 (protonated)
C#CC[N@@H+](C)Cc1cc2cccc(CCC)n2c1 (chirality)
C#CC[N@@H+](C)Cc1cc2cccc(CCC)n2c1 (3D coordinates assigned)
C#CC[N@@H+](C)Cc1cc2cccc(CCC)n2c1 (optimized conformer: 64.47293685116315 kcal/mol)

>  <smiles>  (29) 
C#CCN(C)Cc1cc2cccc(CCC)n2c1

>  <score_type>  (29) 
oracle

>  <origin>  (29) 
adg

>  <m_score__min__energy>  (29) 
-4.6200000000000001

>  <m_primary>  (29) 
energy

$$$$
29:0
     RDKit          3D

 59 62  0  0  0  0  0  0  0  0999 V2000
   58.5270   34.9030   47.4850 O   0  0  0  0  0  0  0  0  0  0  0  0
   59.4900   34.4190   46.4390 S   0  0  0  0  0  0  0  0  0  0  0  0
   59.6120   35.4870   45.3900 O   0  0  0  0  0  0  0  0  0  0  0  0
   61.0560   34.1090   47.1800 C   0  0  0  0  0  0  0  0  0  0  0  0
   61.2050   34.1650   48.5730 C   0  0  0  0  0  0  0  0  0  0  0  0
   62.4530   33.9220   49.1570 C   0  0  0  0  0  0  0  0  0  0  0  0
   63.5580   33.6370   48.3480 C   0  0  0  0  0  0  0  0  0  0  0  0
   63.4160   33.5930   46.9580 C   0  0  0  0  0  0  0  0  0  0  0  0
   62.1670   33.8270   46.3750 C   0  0  0  0  0  0  0  0  0  0  0  0
   58.8930   32.9330   45.7060 C   0  0  0  0  0  0  0  0  0  0  0  0
   59.4390   31.6980   46.0790 C   0  0  0  0  0  0  0  0  0  0  0  0
   58.9680   30.5160   45.5000 C   0  0  0  0  0  0  0  0  0  0  0  0
   57.9340   30.5530   44.5500 C   0  0  0  0  0  0  0  0  0  0  0  0
   57.4340   29.2740   43.9140 C   0  0  0  0  0  0  0  0  0  0  0  0
   58.1610   28.0740   44.4020 N   0  0  0  0  0  0  0  0  0  0  0  0
   57.4140   27.4900   45.5460 C   0  0  0  0  0  0  0  0  0  0  0  0
   57.9170   26.0830   45.9220 C   0  0  0  0  0  0  0  0  0  0  0  0
   58.0310   25.1630   44.7600 N   0  0  0  0  0  0  0  0  0  0  0  0
   57.4640   23.8110   45.0090 C   0  0  0  0  0  0  0  0  0  0  0  0
   55.9650   23.6740   44.6040 C   0  0  0  0  0  0  0  0  0  0  0  0
   55.7140   23.1510   43.1720 C   0  0  0  0  0  0  0  0  0  0  0  0
   56.6960   22.0610   42.6960 C   0  0  0  0  0  0  0  0  0  0  0  0
   57.6110   21.5460   43.8100 C   0  0  0  0  0  0  0  0  0  0  0  0
   58.3870   22.7070   44.4280 C   0  0  0  0  0  0  0  0  0  0  0  0
   57.6530   25.7810   43.4750 C   0  0  0  0  0  0  0  0  0  0  0  0
   58.4220   27.0940   43.3010 C   0  0  0  0  0  0  0  0  0  0  0  0
   57.3860   31.7910   44.1820 C   0  0  0  0  0  0  0  0  0  0  0  0
   57.8580   32.9740   44.7610 C   0  0  0  0  0  0  0  0  0  0  0  0
   60.3385   34.4006   49.2084 H   0  0  0  0  0  0  0  0  0  0  0  0
   62.5651   33.9550   50.2508 H   0  0  0  0  0  0  0  0  0  0  0  0
   64.5399   33.4473   48.8062 H   0  0  0  0  0  0  0  0  0  0  0  0
   64.2871   33.3742   46.3229 H   0  0  0  0  0  0  0  0  0  0  0  0
   62.0565   33.7895   45.2812 H   0  0  0  0  0  0  0  0  0  0  0  0
   60.2414   31.6582   46.8304 H   0  0  0  0  0  0  0  0  0  0  0  0
   59.4097   29.5513   45.7901 H   0  0  0  0  0  0  0  0  0  0  0  0
   56.3653   29.1582   44.1476 H   0  0  0  0  0  0  0  0  0  0  0  0
   57.6051   29.3506   42.8301 H   0  0  0  0  0  0  0  0  0  0  0  0
   59.0880   28.3910   44.7790 H   0  0  0  0  0  0  0  0  0  0  0  0
   57.5303   28.1509   46.4176 H   0  0  0  0  0  0  0  0  0  0  0  0
   56.3598   27.3990   45.2455 H   0  0  0  0  0  0  0  0  0  0  0  0
   58.9090   26.1808   46.3871 H   0  0  0  0  0  0  0  0  0  0  0  0
   57.1754   25.6472   46.6077 H   0  0  0  0  0  0  0  0  0  0  0  0
   57.4444   23.6616   46.0986 H   0  0  0  0  0  0  0  0  0  0  0  0
   55.4845   22.9794   45.3087 H   0  0  0  0  0  0  0  0  0  0  0  0
   55.5471   24.6911   44.6344 H   0  0  0  0  0  0  0  0  0  0  0  0
   54.6967   22.7343   43.1341 H   0  0  0  0  0  0  0  0  0  0  0  0
   55.8586   24.0102   42.5006 H   0  0  0  0  0  0  0  0  0  0  0  0
   56.1146   21.2145   42.3017 H   0  0  0  0  0  0  0  0  0  0  0  0
   57.3395   22.5137   41.9273 H   0  0  0  0  0  0  0  0  0  0  0  0
   57.0016   21.0609   44.5867 H   0  0  0  0  0  0  0  0  0  0  0  0
   58.3222   20.8214   43.3867 H   0  0  0  0  0  0  0  0  0  0  0  0
   59.0180   22.3147   45.2391 H   0  0  0  0  0  0  0  0  0  0  0  0
   58.9860   23.1659   43.6277 H   0  0  0  0  0  0  0  0  0  0  0  0
   57.9022   25.0968   42.6505 H   0  0  0  0  0  0  0  0  0  0  0  0
   56.5717   25.9826   43.4663 H   0  0  0  0  0  0  0  0  0  0  0  0
   59.4986   26.8696   43.2792 H   0  0  0  0  0  0  0  0  0  0  0  0
   58.0798   27.5543   42.3623 H   0  0  0  0  0  0  0  0  0  0  0  0
   56.5806   31.8318   43.4339 H   0  0  0  0  0  0  0  0  0  0  0  0
   57.4157   33.9394   44.4739 H   0  0  0  0  0  0  0  0  0  0  0  0
  1  2  2  0
  2  3  2  0
  2  4  1  0
  4  5  2  0
  5  6  1  0
  6  7  2  0
  7  8  1  0
  8  9  2  0
  2 10  1  0
 10 11  2  0
 11 12  1  0
 12 13  2  0
 13 14  1  0
 14 15  1  0
 15 16  1  0
 16 17  1  0
 17 18  1  0
 18 19  1  0
 19 20  1  0
 20 21  1  0
 21 22  1  0
 22 23  1  0
 23 24  1  0
 18 25  1  0
 25 26  1  0
 13 27  1  0
 27 28  2  0
  9  4  1  0
 28 10  1  0
 26 15  1  0
 24 19  1  0
  5 29  1  0
  6 30  1  0
  7 31  1  0
  8 32  1  0
  9 33  1  0
 11 34  1  0
 12 35  1  0
 14 36  1  0
 14 37  1  0
 15 38  1  0
 16 39  1  0
 16 40  1  0
 17 41  1  0
 17 42  1  0
 19 43  1  0
 20 44  1  0
 20 45  1  0
 21 46  1  0
 21 47  1  0
 22 48  1  0
 22 49  1  0
 23 50  1  0
 23 51  1  0
 24 52  1  0
 24 53  1  0
 25 54  1  0
 25 55  1  0
 26 56  1  0
 26 57  1  0
 27 58  1  0
 28 59  1  0
M  CHG  1  15   1
M  END
>  <UniqueID>  (30) 
30

>  <SMILES>  (30) 
O=S(=O)(c1ccccc1)c1ccc(C[NH+]2CCN(C3CCCCC3)CC2)cc1

>  <Energy>  (30) 
87.2026681807185

>  <Genealogy>  (30) 
O=S(=O)(c1ccccc1)c1ccc(C[NH+]2CCN(C3CCCCC3)CC2)cc1 (protonated)
O=S(=O)(c1ccccc1)c1ccc(C[NH+]2CCN(C3CCCCC3)CC2)cc1 (3D coordinates assigned)
O=S(=O)(c1ccccc1)c1ccc(C[NH+]2CCN(C3CCCCC3)CC2)cc1 (nonaromatic ring conformer: 87.2026681807185 kcal/mol)

>  <smiles>  (30) 
O=S(=O)(c1ccccc1)c1ccc(CN2CCN(C3CCCCC3)CC2)cc1

>  <score_type>  (30) 
oracle

>  <origin>  (30) 
adg

>  <m_score__min__energy>  (30) 
-8

>  <m_primary>  (30) 
energy

$$$$
30:0
     RDKit          3D

 40 41  0  0  0  0  0  0  0  0999 V2000
   58.5410   31.7440   49.3610 C   0  0  0  0  0  0  0  0  0  0  0  0
   58.8600   31.2300   47.9850 C   0  0  0  0  0  0  0  0  0  0  0  0
   59.3900   29.9950   47.8540 C   0  0  0  0  0  0  0  0  0  0  0  0
   59.6950   29.3540   46.5120 C   0  0  1  0  0  0  0  0  0  0  0  0
   58.8070   28.1490   46.2380 C   0  0  0  0  0  0  0  0  0  0  0  0
   58.6000   27.7390   44.9080 C   0  0  0  0  0  0  0  0  0  0  0  0
   57.7370   26.6790   44.6130 C   0  0  0  0  0  0  0  0  0  0  0  0
   57.0480   26.0140   45.6430 C   0  0  0  0  0  0  0  0  0  0  0  0
   56.1040   24.8730   45.3570 C   0  0  0  0  0  0  0  0  0  0  0  0
   54.8050   25.2760   45.6000 F   0  0  0  0  0  0  0  0  0  0  0  0
   56.4060   23.8080   46.1850 F   0  0  0  0  0  0  0  0  0  0  0  0
   56.1950   24.4510   44.0410 F   0  0  0  0  0  0  0  0  0  0  0  0
   57.2600   26.4120   46.9720 C   0  0  0  0  0  0  0  0  0  0  0  0
   58.1250   27.4690   47.2680 C   0  0  0  0  0  0  0  0  0  0  0  0
   59.6550   30.3590   45.3360 C   0  0  0  0  0  0  0  0  0  0  0  0
   58.5270   31.3890   45.4720 C   0  0  1  0  0  0  0  0  0  0  0  0
   57.2750   30.7230   45.4420 O   0  0  0  0  0  0  0  0  0  0  0  0
   56.6590   30.8470   44.1770 C   0  0  0  0  0  0  0  0  0  0  0  0
   55.6060   29.7600   44.0240 C   0  0  0  0  0  0  0  0  0  0  0  0
   55.5050   29.0290   45.2150 O   0  0  0  0  0  0  0  0  0  0  0  0
   58.6920   32.1520   46.7950 C   0  0  0  0  0  0  0  0  0  0  0  0
   58.9638   31.0627   50.1140 H   0  0  0  0  0  0  0  0  0  0  0  0
   58.9760   32.7463   49.4880 H   0  0  0  0  0  0  0  0  0  0  0  0
   57.4497   31.7991   49.4880 H   0  0  0  0  0  0  0  0  0  0  0  0
   59.6124   29.4236   48.7672 H   0  0  0  0  0  0  0  0  0  0  0  0
   60.7325   28.9957   46.5838 H   0  0  0  0  0  0  0  0  0  0  0  0
   59.1229   28.2581   44.0912 H   0  0  0  0  0  0  0  0  0  0  0  0
   57.5962   26.3633   43.5687 H   0  0  0  0  0  0  0  0  0  0  0  0
   56.7409   25.8875   47.7877 H   0  0  0  0  0  0  0  0  0  0  0  0
   58.2752   27.7734   48.3143 H   0  0  0  0  0  0  0  0  0  0  0  0
   60.6158   30.8932   45.2975 H   0  0  0  0  0  0  0  0  0  0  0  0
   59.4698   29.7849   44.4161 H   0  0  0  0  0  0  0  0  0  0  0  0
   58.5711   32.1046   44.6377 H   0  0  0  0  0  0  0  0  0  0  0  0
   56.1823   31.8350   44.0953 H   0  0  0  0  0  0  0  0  0  0  0  0
   57.4159   30.7419   43.3858 H   0  0  0  0  0  0  0  0  0  0  0  0
   54.6343   30.2219   43.7950 H   0  0  0  0  0  0  0  0  0  0  0  0
   55.8961   29.0846   43.2057 H   0  0  0  0  0  0  0  0  0  0  0  0
   55.6180   29.6880   45.9500 H   0  0  0  0  0  0  0  0  0  0  0  0
   59.5804   32.7964   46.7210 H   0  0  0  0  0  0  0  0  0  0  0  0
   57.7757   32.7389   46.9564 H   0  0  0  0  0  0  0  0  0  0  0  0
  1  2  1  0
  2  3  2  0
  3  4  1  0
  4  5  1  0
  5  6  2  0
  6  7  1  0
  7  8  2  0
  8  9  1  0
  9 10  1  0
  9 11  1  0
  9 12  1  0
  8 13  1  0
 13 14  2  0
  4 15  1  0
 15 16  1  0
 16 17  1  0
 17 18  1  0
 18 19  1  0
 19 20  1  0
 16 21  1  0
 21  2  1  0
 14  5  1  0
  1 22  1  0
  1 23  1  0
  1 24  1  0
  3 25  1  0
  4 26  1  1
  6 27  1  0
  7 28  1  0
 13 29  1  0
 14 30  1  0
 15 31  1  0
 15 32  1  0
 16 33  1  6
 18 34  1  0
 18 35  1  0
 19 36  1  0
 19 37  1  0
 20 38  1  0
 21 39  1  0
 21 40  1  0
M  END
>  <UniqueID>  (31) 
31

>  <SMILES>  (31) 
CC1=C[C@@H](c2ccc(C(F)(F)F)cc2)C[C@@H](OCCO)C1

>  <Energy>  (31) 
38.23381995316705

>  <Genealogy>  (31) 
CC1=C[C@@H](c2ccc(C(F)(F)F)cc2)C[C@@H](OCCO)C1 (chirality)
CC1=C[C@@H](c2ccc(C(F)(F)F)cc2)C[C@@H](OCCO)C1 (3D coordinates assigned)
CC1=C[C@@H](c2ccc(C(F)(F)F)cc2)C[C@@H](OCCO)C1 (nonaromatic ring conformer: 38.23381995316705 kcal/mol)

>  <smiles>  (31) 
CC1=CC(c2ccc(C(F)(F)F)cc2)CC(OCCO)C1

>  <score_type>  (31) 
oracle

>  <origin>  (31) 
adg

>  <m_score__min__energy>  (31) 
-6.3799999999999999

>  <m_primary>  (31) 
energy

$$$$
31:0
     RDKit          3D

 41 41  0  0  0  0  0  0  0  0999 V2000
   63.5670   33.4640   47.1690 C   0  0  0  0  0  0  0  0  0  0  0  0
   62.5800   32.7730   47.1210 C   0  0  0  0  0  0  0  0  0  0  0  0
   61.3750   31.9280   47.0630 C   0  0  0  0  0  0  0  0  0  0  0  0
   60.1760   32.7120   46.6670 N   0  0  1  0  0  0  0  0  0  0  0  0
   59.3850   33.1830   47.8270 C   0  0  0  0  0  0  0  0  0  0  0  0
   58.0060   33.7640   47.4620 C   0  0  0  0  0  0  0  0  0  0  0  0
   57.3990   33.1160   46.2090 C   0  0  0  0  0  0  0  0  0  0  0  0
   58.0650   33.4370   44.9210 N   0  0  0  0  0  0  0  0  0  0  0  0
   58.2410   32.2790   44.0130 C   0  0  0  0  0  0  0  0  0  0  0  0
   57.8910   30.9650   44.7400 C   0  0  1  0  0  0  0  0  0  0  0  0
   57.4760   29.8630   43.7410 C   0  0  0  0  0  0  0  0  0  0  0  0
   55.9640   29.7900   43.5170 C   0  0  0  0  0  0  0  0  0  0  0  0
   59.0360   30.5160   45.4480 O   0  0  0  0  0  0  0  0  0  0  0  0
   59.5380   29.3220   44.8890 C   0  0  0  0  0  0  0  0  0  0  0  0
   59.2170   34.3640   44.9590 C   0  0  0  0  0  0  0  0  0  0  0  0
   60.4590   33.7850   45.6820 C   0  0  0  0  0  0  0  0  0  0  0  0
   64.4674   34.0944   47.2128 H   0  0  0  0  0  0  0  0  0  0  0  0
   61.5363   31.1262   46.3274 H   0  0  0  0  0  0  0  0  0  0  0  0
   61.1982   31.5114   48.0656 H   0  0  0  0  0  0  0  0  0  0  0  0
   59.5360   32.0420   46.1730 H   0  0  0  0  0  0  0  0  0  0  0  0
   59.2310   32.3321   48.5069 H   0  0  0  0  0  0  0  0  0  0  0  0
   59.9587   34.0008   48.2874 H   0  0  0  0  0  0  0  0  0  0  0  0
   57.3216   33.6022   48.3078 H   0  0  0  0  0  0  0  0  0  0  0  0
   58.1441   34.8339   47.2472 H   0  0  0  0  0  0  0  0  0  0  0  0
   57.4352   32.0249   46.3436 H   0  0  0  0  0  0  0  0  0  0  0  0
   56.3818   33.5266   46.1267 H   0  0  0  0  0  0  0  0  0  0  0  0
   57.5798   32.3981   43.1420 H   0  0  0  0  0  0  0  0  0  0  0  0
   59.2913   32.2374   43.6887 H   0  0  0  0  0  0  0  0  0  0  0  0
   57.0497   31.1606   45.4212 H   0  0  0  0  0  0  0  0  0  0  0  0
   57.9630   30.0650   42.7756 H   0  0  0  0  0  0  0  0  0  0  0  0
   57.7898   28.8994   44.1687 H   0  0  0  0  0  0  0  0  0  0  0  0
   55.4501   29.7652   44.4892 H   0  0  0  0  0  0  0  0  0  0  0  0
   55.6342   30.6733   42.9504 H   0  0  0  0  0  0  0  0  0  0  0  0
   55.7208   28.8791   42.9504 H   0  0  0  0  0  0  0  0  0  0  0  0
   59.8277   28.6328   45.6959 H   0  0  0  0  0  0  0  0  0  0  0  0
   58.7609   28.8530   44.2676 H   0  0  0  0  0  0  0  0  0  0  0  0
   60.4168   29.5492   44.2676 H   0  0  0  0  0  0  0  0  0  0  0  0
   59.5001   34.6087   43.9246 H   0  0  0  0  0  0  0  0  0  0  0  0
   58.8980   35.2499   45.5277 H   0  0  0  0  0  0  0  0  0  0  0  0
   61.1366   33.3753   44.9184 H   0  0  0  0  0  0  0  0  0  0  0  0
   60.8931   34.6175   46.2552 H   0  0  0  0  0  0  0  0  0  0  0  0
  1  2  3  0
  2  3  1  0
  3  4  1  0
  4  5  1  0
  5  6  1  0
  6  7  1  0
  7  8  1  0
  8  9  1  0
  9 10  1  0
 10 11  1  0
 11 12  1  0
 10 13  1  0
 13 14  1  0
  8 15  1  0
 15 16  1  0
 16  4  1  0
  1 17  1  0
  3 18  1  0
  3 19  1  0
  4 20  1  6
  5 21  1  0
  5 22  1  0
  6 23  1  0
  6 24  1  0
  7 25  1  0
  7 26  1  0
  9 27  1  0
  9 28  1  0
 10 29  1  1
 11 30  1  0
 11 31  1  0
 12 32  1  0
 12 33  1  0
 12 34  1  0
 14 35  1  0
 14 36  1  0
 14 37  1  0
 15 38  1  0
 15 39  1  0
 16 40  1  0
 16 41  1  0
M  CHG  1   4   1
M  END
>  <UniqueID>  (32) 
32

>  <SMILES>  (32) 
C#CC[N@H+]1CCCN(C[C@@H](CC)OC)CC1

>  <Energy>  (32) 
56.382276283582044

>  <Genealogy>  (32) 
C#CC[NH+]1CCCN(CC(CC)OC)CC1 (protonated)
C#CC[N@H+]1CCCN(C[C@@H](CC)OC)CC1 (chirality)
C#CC[N@H+]1CCCN(C[C@@H](CC)OC)CC1 (3D coordinates assigned)
C#CC[N@H+]1CCCN(C[C@@H](CC)OC)CC1 (nonaromatic ring conformer: 56.382276283582044 kcal/mol)

>  <smiles>  (32) 
C#CCN1CCCN(CC(CC)OC)CC1

>  <score_type>  (32) 
oracle

>  <origin>  (32) 
adg

>  <m_score__min__energy>  (32) 
-2.1200000000000001

>  <m_primary>  (32) 
energy

$$$$
32:0
     RDKit          3D

 69 71  0  0  0  0  0  0  0  0999 V2000
   63.0040   33.7610   51.9530 C   0  0  0  0  0  0  0  0  0  0  0  0
   63.3620   34.0410   50.4900 C   0  0  0  0  0  0  0  0  0  0  0  0
   63.0460   32.8960   49.5920 N   0  0  0  0  0  0  0  0  0  0  0  0
   63.3510   31.6020   50.2580 C   0  0  0  0  0  0  0  0  0  0  0  0
   62.2350   30.5470   50.1300 C   0  0  0  0  0  0  0  0  0  0  0  0
   63.7210   33.0030   48.2640 C   0  0  0  0  0  0  0  0  0  0  0  0
   62.7260   33.0520   47.0960 C   0  0  0  0  0  0  0  0  0  0  0  0
   61.4090   32.9370   47.5900 O   0  0  0  0  0  0  0  0  0  0  0  0
   60.7650   34.1980   47.5970 C   0  0  0  0  0  0  0  0  0  0  0  0
   59.8910   34.3250   48.8410 C   0  0  0  0  0  0  0  0  0  0  0  0
   60.3230   33.4110   49.8190 O   0  0  0  0  0  0  0  0  0  0  0  0
   59.2290   33.1220   50.5740 N   0  0  0  0  0  0  0  0  0  0  0  0
   59.3300   33.9020   51.8130 C   0  0  0  0  0  0  0  0  0  0  0  0
   59.2160   31.6720   50.8520 C   0  0  0  0  0  0  0  0  0  0  0  0
   58.6310   30.9180   49.6530 C   0  0  0  0  0  0  0  0  0  0  0  0
   59.2460   31.3730   48.4080 N   0  0  0  0  0  0  0  0  0  0  0  0
   59.0780   30.6090   47.2030 C   0  0  0  0  0  0  0  0  0  0  0  0
   59.4430   29.2520   47.1660 C   0  0  0  0  0  0  0  0  0  0  0  0
   60.0060   28.6210   48.2970 C   0  0  0  0  0  0  0  0  0  0  0  0
   60.4070   27.2890   48.2430 C   0  0  0  0  0  0  0  0  0  0  0  0
   60.2700   26.5680   47.0630 C   0  0  0  0  0  0  0  0  0  0  0  0
   59.7010   27.1640   45.9380 C   0  0  0  0  0  0  0  0  0  0  0  0
   59.2390   28.5070   45.9730 C   0  0  0  0  0  0  0  0  0  0  0  0
   58.6130   29.0910   44.8860 N   0  0  0  0  0  0  0  0  0  0  0  0
   58.1460   28.2500   43.7600 C   0  0  0  0  0  0  0  0  0  0  0  0
   58.4060   30.4580   44.8600 C   0  0  0  0  0  0  0  0  0  0  0  0
   58.0130   31.1340   43.6750 C   0  0  0  0  0  0  0  0  0  0  0  0
   57.7630   32.5070   43.6780 C   0  0  0  0  0  0  0  0  0  0  0  0
   57.9200   33.2460   44.8430 C   0  0  0  0  0  0  0  0  0  0  0  0
   58.3450   32.6200   46.0130 C   0  0  0  0  0  0  0  0  0  0  0  0
   58.6020   31.2320   46.0370 C   0  0  0  0  0  0  0  0  0  0  0  0
   63.6984   34.3041   52.6108 H   0  0  0  0  0  0  0  0  0  0  0  0
   61.9749   34.0964   52.1493 H   0  0  0  0  0  0  0  0  0  0  0  0
   63.0816   32.6814   52.1493 H   0  0  0  0  0  0  0  0  0  0  0  0
   62.7953   34.9208   50.1512 H   0  0  0  0  0  0  0  0  0  0  0  0
   64.4474   34.2125   50.4404 H   0  0  0  0  0  0  0  0  0  0  0  0
   62.0050   32.8890   49.4590 H   0  0  0  0  0  0  0  0  0  0  0  0
   64.2674   31.1908   49.8096 H   0  0  0  0  0  0  0  0  0  0  0  0
   63.4610   31.8171   51.3311 H   0  0  0  0  0  0  0  0  0  0  0  0
   61.9069   30.2368   51.1331 H   0  0  0  0  0  0  0  0  0  0  0  0
   61.3838   30.9782   49.5828 H   0  0  0  0  0  0  0  0  0  0  0  0
   62.6178   29.6729   49.5828 H   0  0  0  0  0  0  0  0  0  0  0  0
   64.3260   33.9216   48.2497 H   0  0  0  0  0  0  0  0  0  0  0  0
   64.3423   32.1047   48.1337 H   0  0  0  0  0  0  0  0  0  0  0  0
   62.8346   34.0079   46.5626 H   0  0  0  0  0  0  0  0  0  0  0  0
   62.9312   32.2198   46.4066 H   0  0  0  0  0  0  0  0  0  0  0  0
   61.5230   34.9951   47.6003 H   0  0  0  0  0  0  0  0  0  0  0  0
   60.1352   34.2892   46.6998 H   0  0  0  0  0  0  0  0  0  0  0  0
   59.9663   35.3481   49.2379 H   0  0  0  0  0  0  0  0  0  0  0  0
   58.8458   34.1078   48.5757 H   0  0  0  0  0  0  0  0  0  0  0  0
   59.2428   33.2286   52.6784 H   0  0  0  0  0  0  0  0  0  0  0  0
   60.3022   34.4157   51.8447 H   0  0  0  0  0  0  0  0  0  0  0  0
   58.5207   34.6464   51.8447 H   0  0  0  0  0  0  0  0  0  0  0  0
   60.2441   31.3261   51.0345 H   0  0  0  0  0  0  0  0  0  0  0  0
   58.5963   31.4783   51.7399 H   0  0  0  0  0  0  0  0  0  0  0  0
   58.8192   29.8413   49.7765 H   0  0  0  0  0  0  0  0  0  0  0  0
   57.5494   31.1129   49.6056 H   0  0  0  0  0  0  0  0  0  0  0  0
   60.0920   31.9820   48.4750 H   0  0  0  0  0  0  0  0  0  0  0  0
   60.1291   29.1885   49.2313 H   0  0  0  0  0  0  0  0  0  0  0  0
   60.8327   26.8067   49.1353 H   0  0  0  0  0  0  0  0  0  0  0  0
   60.6116   25.5234   47.0162 H   0  0  0  0  0  0  0  0  0  0  0  0
   59.6083   26.5844   45.0077 H   0  0  0  0  0  0  0  0  0  0  0  0
   57.6476   27.3524   44.1549 H   0  0  0  0  0  0  0  0  0  0  0  0
   57.4366   28.8225   43.1444 H   0  0  0  0  0  0  0  0  0  0  0  0
   59.0070   27.9504   43.1444 H   0  0  0  0  0  0  0  0  0  0  0  0
   57.9038   30.5663   42.7392 H   0  0  0  0  0  0  0  0  0  0  0  0
   57.4399   33.0063   42.7527 H   0  0  0  0  0  0  0  0  0  0  0  0
   57.7089   34.3255   44.8422 H   0  0  0  0  0  0  0  0  0  0  0  0
   58.4819   33.2141   46.9286 H   0  0  0  0  0  0  0  0  0  0  0  0
  1  2  1  0
  2  3  1  0
  3  4  1  0
  4  5  1  0
  3  6  1  0
  6  7  1  0
  7  8  1  0
  8  9  1  0
  9 10  1  0
 10 11  1  0
 11 12  1  0
 12 13  1  0
 12 14  1  0
 14 15  1  0
 15 16  1  0
 16 17  1  0
 17 18  2  0
 18 19  1  0
 19 20  2  0
 20 21  1  0
 21 22  2  0
 22 23  1  0
 23 24  2  0
 24 25  1  0
 24 26  1  0
 26 27  2  0
 27 28  1  0
 28 29  2  0
 29 30  1  0
 30 31  2  0
 31 17  1  0
 23 18  1  0
 31 26  1  0
  1 32  1  0
  1 33  1  0
  1 34  1  0
  2 35  1  0
  2 36  1  0
  3 37  1  0
  4 38  1  0
  4 39  1  0
  5 40  1  0
  5 41  1  0
  5 42  1  0
  6 43  1  0
  6 44  1  0
  7 45  1  0
  7 46  1  0
  9 47  1  0
  9 48  1  0
 10 49  1  0
 10 50  1  0
 13 51  1  0
 13 52  1  0
 13 53  1  0
 14 54  1  0
 14 55  1  0
 15 56  1  0
 15 57  1  0
 16 58  1  0
 19 59  1  0
 20 60  1  0
 21 61  1  0
 22 62  1  0
 25 63  1  0
 25 64  1  0
 25 65  1  0
 27 66  1  0
 28 67  1  0
 29 68  1  0
 30 69  1  0
M  CHG  2   3   1  24   1
M  END
>  <UniqueID>  (33) 
33

>  <SMILES>  (33) 
CC[NH+](CC)CCOCCON(C)CCNc1c2ccccc2[n+](C)c2ccccc12

>  <Energy>  (33) 
93.27619263267265

>  <Genealogy>  (33) 
CC[NH+](CC)CCOCCON(C)CCNc1c2ccccc2[n+](C)c2ccccc12 (protonated)
CC[NH+](CC)CCOCCON(C)CCNc1c2ccccc2[n+](C)c2ccccc12 (3D coordinates assigned)
CC[NH+](CC)CCOCCON(C)CCNc1c2ccccc2[n+](C)c2ccccc12 (optimized conformer: 93.27619263267265 kcal/mol)

>  <smiles>  (33) 
CCN(CC)CCOCCON(C)CCNc1c2ccccc2[n+](C)c2ccccc12

>  <score_type>  (33) 
oracle

>  <origin>  (33) 
adg

>  <m_score__min__energy>  (33) 
-3.8799999999999999

>  <m_primary>  (33) 
energy

$$$$
33:0
     RDKit          3D

 59 62  0  0  0  0  0  0  0  0999 V2000
   53.9640   24.9860   45.6180 C   0  0  0  0  0  0  0  0  0  0  0  0
   54.8360   26.0520   45.9680 O   0  0  0  0  0  0  0  0  0  0  0  0
   56.2340   25.9420   46.0260 C   0  0  0  0  0  0  0  0  0  0  0  0
   56.8220   24.7030   45.6830 C   0  0  0  0  0  0  0  0  0  0  0  0
   58.2160   24.5340   45.7150 C   0  0  0  0  0  0  0  0  0  0  0  0
   58.9980   25.6190   46.0950 C   0  0  0  0  0  0  0  0  0  0  0  0
   60.3360   25.6550   46.2060 N   0  0  0  0  0  0  0  0  0  0  0  0
   60.6430   26.9010   46.6330 C   0  0  0  0  0  0  0  0  0  0  0  0
   59.4850   27.6560   46.8070 C   0  0  0  0  0  0  0  0  0  0  0  0
   59.4150   29.0790   47.2910 C   0  0  0  0  0  0  0  0  0  0  0  0
   60.7470   29.8290   47.1050 C   0  0  0  0  0  0  0  0  0  0  0  0
   60.9510   31.0100   48.0760 C   0  0  0  0  0  0  0  0  0  0  0  0
   62.4210   31.3810   48.3450 C   0  0  0  0  0  0  0  0  0  0  0  0
   62.5990   32.7920   48.7690 N   0  0  0  0  0  0  0  0  0  0  0  0
   61.3900   33.3250   49.4450 C   0  0  0  0  0  0  0  0  0  0  0  0
   60.4530   34.1340   48.5230 C   0  0  0  0  0  0  0  0  0  0  0  0
   60.6620   33.7840   47.1170 N   0  0  0  0  0  0  0  0  0  0  0  0
   59.5420   33.5360   46.2480 C   0  0  0  0  0  0  0  0  0  0  0  0
   58.7420   34.5970   45.7980 C   0  0  0  0  0  0  0  0  0  0  0  0
   57.6640   34.3540   44.9460 C   0  0  0  0  0  0  0  0  0  0  0  0
   57.3870   33.0530   44.5190 C   0  0  0  0  0  0  0  0  0  0  0  0
   58.1870   31.9790   44.9400 C   0  0  0  0  0  0  0  0  0  0  0  0
   57.8570   30.5810   44.4800 C   0  0  0  0  0  0  0  0  0  0  0  0
   57.0290   29.9770   45.4110 F   0  0  0  0  0  0  0  0  0  0  0  0
   57.2040   30.6330   43.2600 F   0  0  0  0  0  0  0  0  0  0  0  0
   58.9980   29.8110   44.3310 F   0  0  0  0  0  0  0  0  0  0  0  0
   59.2570   32.2270   45.8210 C   0  0  0  0  0  0  0  0  0  0  0  0
   62.0210   33.8200   46.5670 C   0  0  0  0  0  0  0  0  0  0  0  0
   63.0610   33.6890   47.6870 C   0  0  0  0  0  0  0  0  0  0  0  0
   58.4410   26.8250   46.4390 C   0  0  0  0  0  0  0  0  0  0  0  0
   57.0600   27.0270   46.4130 C   0  0  0  0  0  0  0  0  0  0  0  0
   53.5773   24.5132   46.5328 H   0  0  0  0  0  0  0  0  0  0  0  0
   53.1247   25.3785   45.0251 H   0  0  0  0  0  0  0  0  0  0  0  0
   54.5150   24.2411   45.0251 H   0  0  0  0  0  0  0  0  0  0  0  0
   56.1796   23.8605   45.3873 H   0  0  0  0  0  0  0  0  0  0  0  0
   58.6757   23.5712   45.4472 H   0  0  0  0  0  0  0  0  0  0  0  0
   61.0070   24.8750   46.0170 H   0  0  0  0  0  0  0  0  0  0  0  0
   61.6638   27.2670   46.8171 H   0  0  0  0  0  0  0  0  0  0  0  0
   58.6313   29.6058   46.7268 H   0  0  0  0  0  0  0  0  0  0  0  0
   59.1907   29.0562   48.3676 H   0  0  0  0  0  0  0  0  0  0  0  0
   61.5691   29.1137   47.2550 H   0  0  0  0  0  0  0  0  0  0  0  0
   60.7303   30.2542   46.0907 H   0  0  0  0  0  0  0  0  0  0  0  0
   60.4480   31.8917   47.6522 H   0  0  0  0  0  0  0  0  0  0  0  0
   60.5312   30.6918   49.0417 H   0  0  0  0  0  0  0  0  0  0  0  0
   62.8073   30.7257   49.1395 H   0  0  0  0  0  0  0  0  0  0  0  0
   62.9692   31.2516   47.4002 H   0  0  0  0  0  0  0  0  0  0  0  0
   60.8221   32.4768   49.8550 H   0  0  0  0  0  0  0  0  0  0  0  0
   61.7430   34.0182   50.2227 H   0  0  0  0  0  0  0  0  0  0  0  0
   59.4090   33.9192   48.7948 H   0  0  0  0  0  0  0  0  0  0  0  0
   60.6754   35.2035   48.6524 H   0  0  0  0  0  0  0  0  0  0  0  0
   58.9656   35.6253   46.1183 H   0  0  0  0  0  0  0  0  0  0  0  0
   57.0310   35.1885   44.6099 H   0  0  0  0  0  0  0  0  0  0  0  0
   56.5354   32.8687   43.8476 H   0  0  0  0  0  0  0  0  0  0  0  0
   59.8749   31.3899   46.1781 H   0  0  0  0  0  0  0  0  0  0  0  0
   62.1463   32.9880   45.8584 H   0  0  0  0  0  0  0  0  0  0  0  0
   62.1708   34.7820   46.0551 H   0  0  0  0  0  0  0  0  0  0  0  0
   63.9913   33.2837   47.2624 H   0  0  0  0  0  0  0  0  0  0  0  0
   63.2233   34.6875   48.1190 H   0  0  0  0  0  0  0  0  0  0  0  0
   56.6253   28.0002   46.6850 H   0  0  0  0  0  0  0  0  0  0  0  0
  1  2  1  0
  2  3  1  0
  3  4  2  0
  4  5  1  0
  5  6  2  0
  6  7  1  0
  7  8  1  0
  8  9  2  0
  9 10  1  0
 10 11  1  0
 11 12  1  0
 12 13  1  0
 13 14  1  0
 14 15  1  0
 15 16  1  0
 16 17  1  0
 17 18  1  0
 18 19  2  0
 19 20  1  0
 20 21  2  0
 21 22  1  0
 22 23  1  0
 23 24  1  0
 23 25  1  0
 23 26  1  0
 22 27  2  0
 17 28  1  0
 28 29  1  0
  9 30  1  0
 30 31  2  0
 31  3  1  0
 30  6  1  0
 29 14  1  0
 27 18  1  0
  1 32  1  0
  1 33  1  0
  1 34  1  0
  4 35  1  0
  5 36  1  0
  7 37  1  0
  8 38  1  0
 10 39  1  0
 10 40  1  0
 11 41  1  0
 11 42  1  0
 12 43  1  0
 12 44  1  0
 13 45  1  0
 13 46  1  0
 15 47  1  0
 15 48  1  0
 16 49  1  0
 16 50  1  0
 19 51  1  0
 20 52  1  0
 21 53  1  0
 27 54  1  0
 28 55  1  0
 28 56  1  0
 29 57  1  0
 29 58  1  0
 31 59  1  0
M  END
>  <UniqueID>  (34) 
34

>  <SMILES>  (34) 
COc1ccc2[nH]cc(CCCCN3CCN(c4cccc(C(F)(F)F)c4)CC3)c2c1

>  <Energy>  (34) 
101.3888105766197

>  <Genealogy>  (34) 
COc1ccc2[nH]cc(CCCCN3CCN(c4cccc(C(F)(F)F)c4)CC3)c2c1 (3D coordinates assigned)
COc1ccc2[nH]cc(CCCCN3CCN(c4cccc(C(F)(F)F)c4)CC3)c2c1 (nonaromatic ring conformer: 101.3888105766197 kcal/mol)

>  <smiles>  (34) 
COc1ccc2[nH]cc(CCCCN3CCN(c4cccc(C(F)(F)F)c4)CC3)c2c1

>  <score_type>  (34) 
oracle

>  <origin>  (34) 
adg

>  <m_score__min__energy>  (34) 
-8.2699999999999996

>  <m_primary>  (34) 
energy

$$$$
34:0
     RDKit          3D

 44 46  0  0  0  0  0  0  0  0999 V2000
   62.6860   34.1970   49.0290 C   0  0  0  0  0  0  0  0  0  0  0  0
   64.0180   33.4440   48.9590 C   0  0  0  0  0  0  0  0  0  0  0  0
   64.1320   32.6090   47.7500 N   0  0  0  0  0  0  0  0  0  0  0  0
   62.8230   32.3540   47.1250 C   0  0  0  0  0  0  0  0  0  0  0  0
   62.1620   31.0930   47.7020 C   0  0  0  0  0  0  0  0  0  0  0  0
   60.7230   31.2840   47.8770 N   0  0  0  0  0  0  0  0  0  0  0  0
   59.8400   31.1700   46.7510 C   0  0  0  0  0  0  0  0  0  0  0  0
   59.2790   32.3140   46.1370 C   0  0  0  0  0  0  0  0  0  0  0  0
   59.5980   33.6080   46.5940 C   0  0  0  0  0  0  0  0  0  0  0  0
   59.0460   34.7330   45.9860 C   0  0  0  0  0  0  0  0  0  0  0  0
   58.1740   34.5910   44.9120 C   0  0  0  0  0  0  0  0  0  0  0  0
   57.8490   33.3230   44.4300 C   0  0  0  0  0  0  0  0  0  0  0  0
   58.3930   32.1560   45.0210 C   0  0  0  0  0  0  0  0  0  0  0  0
   58.0890   30.8930   44.5430 N   0  0  0  0  0  0  0  0  0  0  0  0
   57.1830   30.7120   43.3920 C   0  0  0  0  0  0  0  0  0  0  0  0
   58.6450   29.8070   45.1630 C   0  0  0  0  0  0  0  0  0  0  0  0
   58.4300   28.1720   44.7950 S   0  0  0  0  0  0  0  0  0  0  0  0
   59.4120   27.5980   46.0370 C   0  0  0  0  0  0  0  0  0  0  0  0
   59.7440   26.1630   46.2740 C   0  0  0  0  0  0  0  0  0  0  0  0
   59.9390   28.6750   46.7430 C   0  0  0  0  0  0  0  0  0  0  0  0
   59.5020   29.9140   46.2480 C   0  0  0  0  0  0  0  0  0  0  0  0
   62.4084   34.3539   50.0818 H   0  0  0  0  0  0  0  0  0  0  0  0
   62.7885   35.1708   48.5278 H   0  0  0  0  0  0  0  0  0  0  0  0
   61.9045   33.6071   48.5278 H   0  0  0  0  0  0  0  0  0  0  0  0
   64.8380   34.1772   48.9598 H   0  0  0  0  0  0  0  0  0  0  0  0
   64.0707   32.7768   49.8319 H   0  0  0  0  0  0  0  0  0  0  0  0
   64.5550   31.6960   48.0360 H   0  0  0  0  0  0  0  0  0  0  0  0
   64.7750   33.0660   47.0600 H   0  0  0  0  0  0  0  0  0  0  0  0
   62.1658   33.2173   47.3061 H   0  0  0  0  0  0  0  0  0  0  0  0
   62.9783   32.2008   46.0469 H   0  0  0  0  0  0  0  0  0  0  0  0
   62.3313   30.2520   47.0135 H   0  0  0  0  0  0  0  0  0  0  0  0
   62.6081   30.8845   48.6856 H   0  0  0  0  0  0  0  0  0  0  0  0
   60.3950   31.8440   48.6960 H   0  0  0  0  0  0  0  0  0  0  0  0
   60.2903   33.7311   47.4399 H   0  0  0  0  0  0  0  0  0  0  0  0
   59.3006   35.7370   46.3565 H   0  0  0  0  0  0  0  0  0  0  0  0
   57.7380   35.4838   44.4399 H   0  0  0  0  0  0  0  0  0  0  0  0
   57.1598   33.2277   43.5780 H   0  0  0  0  0  0  0  0  0  0  0  0
   56.1648   30.5086   43.7553 H   0  0  0  0  0  0  0  0  0  0  0  0
   57.1785   31.6270   42.7815 H   0  0  0  0  0  0  0  0  0  0  0  0
   57.5304   29.8655   42.7815 H   0  0  0  0  0  0  0  0  0  0  0  0
   59.7885   25.9708   47.3562 H   0  0  0  0  0  0  0  0  0  0  0  0
   58.9691   25.5276   45.8203 H   0  0  0  0  0  0  0  0  0  0  0  0
   60.7192   25.9325   45.8203 H   0  0  0  0  0  0  0  0  0  0  0  0
   60.6241   28.5673   47.5968 H   0  0  0  0  0  0  0  0  0  0  0  0
  1  2  1  0
  2  3  1  0
  3  4  1  0
  4  5  1  0
  5  6  1  0
  6  7  1  0
  7  8  2  0
  8  9  1  0
  9 10  2  0
 10 11  1  0
 11 12  2  0
 12 13  1  0
 13 14  2  0
 14 15  1  0
 14 16  1  0
 16 17  1  0
 17 18  1  0
 18 19  1  0
 18 20  2  0
 20 21  1  0
 21  7  1  0
 13  8  1  0
 21 16  2  0
  1 22  1  0
  1 23  1  0
  1 24  1  0
  2 25  1  0
  2 26  1  0
  3 27  1  0
  3 28  1  0
  4 29  1  0
  4 30  1  0
  5 31  1  0
  5 32  1  0
  6 33  1  0
  9 34  1  0
 10 35  1  0
 11 36  1  0
 12 37  1  0
 15 38  1  0
 15 39  1  0
 15 40  1  0
 19 41  1  0
 19 42  1  0
 19 43  1  0
 20 44  1  0
M  CHG  2   3   1  14   1
M  END
>  <UniqueID>  (35) 
35

>  <SMILES>  (35) 
CC[NH2+]CCNc1c2ccccc2[n+](C)c2sc(C)cc12

>  <Energy>  (35) 
86.11510851878619

>  <Genealogy>  (35) 
CC[NH2+]CCNc1c2ccccc2[n+](C)c2sc(C)cc12 (protonated)
CC[NH2+]CCNc1c2ccccc2[n+](C)c2sc(C)cc12 (3D coordinates assigned)
CC[NH2+]CCNc1c2ccccc2[n+](C)c2sc(C)cc12 (optimized conformer: 86.11510851878619 kcal/mol)

>  <smiles>  (35) 
CCNCCNc1c2ccccc2[n+](C)c2sc(C)cc12

>  <score_type>  (35) 
oracle

>  <origin>  (35) 
adg

>  <m_score__min__energy>  (35) 
-4.3099999999999996

>  <m_primary>  (35) 
energy

$$$$
35:0
     RDKit          3D

 42 44  0  0  0  0  0  0  0  0999 V2000
   57.7610   31.6830   43.0530 C   0  0  0  0  0  0  0  0  0  0  0  0
   56.7220   30.6600   43.4900 C   0  0  0  0  0  0  0  0  0  0  0  0
   56.8670   30.4140   44.8730 O   0  0  0  0  0  0  0  0  0  0  0  0
   57.9380   29.5200   45.1090 C   0  0  0  0  0  0  0  0  0  0  0  0
   58.1270   29.3090   46.6090 C   0  0  0  0  0  0  0  0  0  0  0  0
   59.4920   29.4800   46.9340 O   0  0  0  0  0  0  0  0  0  0  0  0
   59.6610   29.5780   48.3350 C   0  0  0  0  0  0  0  0  0  0  0  0
   59.3880   31.0090   48.7980 C   0  0  0  0  0  0  0  0  0  0  0  0
   59.9380   31.9680   47.8350 N   0  0  0  0  0  0  0  0  0  0  0  0
   59.2460   32.7600   46.9770 C   0  0  0  0  0  0  0  0  0  0  0  0
   57.8620   32.8150   46.7830 C   0  0  0  0  0  0  0  0  0  0  0  0
   57.3620   33.7320   45.8400 C   0  0  0  0  0  0  0  0  0  0  0  0
   58.2390   34.5720   45.1180 C   0  0  0  0  0  0  0  0  0  0  0  0
   59.6260   34.5080   45.3340 C   0  0  0  0  0  0  0  0  0  0  0  0
   60.0950   33.5900   46.2710 C   0  0  0  0  0  0  0  0  0  0  0  0
   61.3670   33.3140   46.7200 C   0  0  0  0  0  0  0  0  0  0  0  0
   62.6030   33.8650   46.3830 C   0  0  0  0  0  0  0  0  0  0  0  0
   63.7390   33.3820   47.0570 C   0  0  0  0  0  0  0  0  0  0  0  0
   63.6150   32.3790   48.0430 C   0  0  0  0  0  0  0  0  0  0  0  0
   62.3550   31.8440   48.3660 C   0  0  0  0  0  0  0  0  0  0  0  0
   61.2370   32.3290   47.6790 C   0  0  0  0  0  0  0  0  0  0  0  0
   58.2234   32.1383   43.9412 H   0  0  0  0  0  0  0  0  0  0  0  0
   58.5353   31.1850   42.4510 H   0  0  0  0  0  0  0  0  0  0  0  0
   57.2751   32.4650   42.4510 H   0  0  0  0  0  0  0  0  0  0  0  0
   55.7135   31.0508   43.2894 H   0  0  0  0  0  0  0  0  0  0  0  0
   56.8663   29.7239   42.9306 H   0  0  0  0  0  0  0  0  0  0  0  0
   57.7173   28.5542   44.6311 H   0  0  0  0  0  0  0  0  0  0  0  0
   58.8605   29.9453   44.6871 H   0  0  0  0  0  0  0  0  0  0  0  0
   57.5223   30.0423   47.1628 H   0  0  0  0  0  0  0  0  0  0  0  0
   57.8064   28.2929   46.8826 H   0  0  0  0  0  0  0  0  0  0  0  0
   58.9596   28.8938   48.8349 H   0  0  0  0  0  0  0  0  0  0  0  0
   60.6955   29.3073   48.5927 H   0  0  0  0  0  0  0  0  0  0  0  0
   58.3020   31.1621   48.8830 H   0  0  0  0  0  0  0  0  0  0  0  0
   59.8680   31.1671   49.7750 H   0  0  0  0  0  0  0  0  0  0  0  0
   57.1843   32.1607   47.3509 H   0  0  0  0  0  0  0  0  0  0  0  0
   56.2781   33.7954   45.6633 H   0  0  0  0  0  0  0  0  0  0  0  0
   57.8332   35.2812   44.3815 H   0  0  0  0  0  0  0  0  0  0  0  0
   60.3181   35.1608   44.7818 H   0  0  0  0  0  0  0  0  0  0  0  0
   62.6865   34.6499   45.6169 H   0  0  0  0  0  0  0  0  0  0  0  0
   64.7317   33.7888   46.8141 H   0  0  0  0  0  0  0  0  0  0  0  0
   64.5122   32.0126   48.5634 H   0  0  0  0  0  0  0  0  0  0  0  0
   62.2516   31.0662   49.1370 H   0  0  0  0  0  0  0  0  0  0  0  0
  1  2  1  0
  2  3  1  0
  3  4  1  0
  4  5  1  0
  5  6  1  0
  6  7  1  0
  7  8  1  0
  8  9  1  0
  9 10  1  0
 10 11  2  0
 11 12  1  0
 12 13  2  0
 13 14  1  0
 14 15  2  0
 15 16  1  0
 16 17  2  0
 17 18  1  0
 18 19  2  0
 19 20  1  0
 20 21  2  0
 21  9  1  0
 15 10  1  0
 21 16  1  0
  1 22  1  0
  1 23  1  0
  1 24  1  0
  2 25  1  0
  2 26  1  0
  4 27  1  0
  4 28  1  0
  5 29  1  0
  5 30  1  0
  7 31  1  0
  7 32  1  0
  8 33  1  0
  8 34  1  0
 11 35  1  0
 12 36  1  0
 13 37  1  0
 14 38  1  0
 17 39  1  0
 18 40  1  0
 19 41  1  0
 20 42  1  0
M  END
>  <UniqueID>  (36) 
36

>  <SMILES>  (36) 
CCOCCOCCn1c2ccccc2c2ccccc21

>  <Energy>  (36) 
82.11771540797179

>  <Genealogy>  (36) 
CCOCCOCCn1c2ccccc2c2ccccc21 (3D coordinates assigned)
CCOCCOCCn1c2ccccc2c2ccccc21 (optimized conformer: 82.11771540797179 kcal/mol)

>  <smiles>  (36) 
CCOCCOCCn1c2ccccc2c2ccccc21

>  <score_type>  (36) 
oracle

>  <origin>  (36) 
adg

>  <m_score__min__energy>  (36) 
-7.0899999999999999

>  <m_primary>  (36) 
energy

$$$$
36:0
     RDKit          3D

 44 47  0  0  0  0  0  0  0  0999 V2000
   63.1140   33.8440   47.8250 C   0  0  0  0  0  0  0  0  0  0  0  0
   62.1420   33.3980   46.7400 C   0  0  0  0  0  0  0  0  0  0  0  0
   60.8750   32.9650   47.3340 N   0  0  0  0  0  0  0  0  0  0  0  0
   59.6350   33.4800   47.1220 C   0  0  0  0  0  0  0  0  0  0  0  0
   59.2650   34.7870   45.9460 S   0  0  0  0  0  0  0  0  0  0  0  0
   58.7840   33.6530   44.5980 C   0  0  0  0  0  0  0  0  0  0  0  0
   57.6970   32.7240   45.0500 C   0  0  0  0  0  0  0  0  0  0  0  0
   56.8850   33.1050   45.9350 O   0  0  0  0  0  0  0  0  0  0  0  0
   57.6340   31.3740   44.5740 N   0  0  0  0  0  0  0  0  0  0  0  0
   56.6530   30.8950   43.6010 C   0  0  0  0  0  0  0  0  0  0  0  0
   56.8760   29.3670   43.4860 C   0  0  0  0  0  0  0  0  0  0  0  0
   58.0480   29.1220   44.3740 C   0  0  0  0  0  0  0  0  0  0  0  0
   58.7360   27.9250   44.5750 C   0  0  0  0  0  0  0  0  0  0  0  0
   59.8720   27.9340   45.4030 C   0  0  0  0  0  0  0  0  0  0  0  0
   60.3140   29.1380   45.9830 C   0  0  0  0  0  0  0  0  0  0  0  0
   59.6130   30.3330   45.7540 C   0  0  0  0  0  0  0  0  0  0  0  0
   58.4560   30.2870   44.9690 C   0  0  0  0  0  0  0  0  0  0  0  0
   58.6890   32.9090   47.9060 N   0  0  0  0  0  0  0  0  0  0  0  0
   59.3640   32.0030   48.6310 C   0  0  0  0  0  0  0  0  0  0  0  0
   58.8680   31.1340   49.5990 C   0  0  0  0  0  0  0  0  0  0  0  0
   59.7840   30.2790   50.2380 C   0  0  0  0  0  0  0  0  0  0  0  0
   61.1580   30.3200   49.9030 C   0  0  0  0  0  0  0  0  0  0  0  0
   61.6260   31.2130   48.9190 C   0  0  0  0  0  0  0  0  0  0  0  0
   60.6890   32.0380   48.2950 C   0  0  0  0  0  0  0  0  0  0  0  0
   62.6766   33.6433   48.8142 H   0  0  0  0  0  0  0  0  0  0  0  0
   64.0582   33.2891   47.7221 H   0  0  0  0  0  0  0  0  0  0  0  0
   63.3090   34.9217   47.7221 H   0  0  0  0  0  0  0  0  0  0  0  0
   61.9527   34.2382   46.0557 H   0  0  0  0  0  0  0  0  0  0  0  0
   62.5845   32.5541   46.1904 H   0  0  0  0  0  0  0  0  0  0  0  0
   58.4229   34.2420   43.7420 H   0  0  0  0  0  0  0  0  0  0  0  0
   59.6613   33.0564   44.3075 H   0  0  0  0  0  0  0  0  0  0  0  0
   55.6321   31.1068   43.9517 H   0  0  0  0  0  0  0  0  0  0  0  0
   56.7740   31.3939   42.6282 H   0  0  0  0  0  0  0  0  0  0  0  0
   55.9932   28.8127   43.8372 H   0  0  0  0  0  0  0  0  0  0  0  0
   57.0438   29.0338   42.4512 H   0  0  0  0  0  0  0  0  0  0  0  0
   58.3969   26.9946   44.0961 H   0  0  0  0  0  0  0  0  0  0  0  0
   60.4166   26.9984   45.5980 H   0  0  0  0  0  0  0  0  0  0  0  0
   61.2121   29.1428   46.6182 H   0  0  0  0  0  0  0  0  0  0  0  0
   59.9654   31.2831   46.1819 H   0  0  0  0  0  0  0  0  0  0  0  0
   57.6670   33.1250   47.9400 H   0  0  0  0  0  0  0  0  0  0  0  0
   57.7983   31.1167   49.8549 H   0  0  0  0  0  0  0  0  0  0  0  0
   59.4295   29.5733   51.0038 H   0  0  0  0  0  0  0  0  0  0  0  0
   61.8653   29.6504   50.4141 H   0  0  0  0  0  0  0  0  0  0  0  0
   62.6921   31.2584   48.6519 H   0  0  0  0  0  0  0  0  0  0  0  0
  1  2  1  0
  2  3  1  0
  3  4  1  0
  4  5  1  0
  5  6  1  0
  6  7  1  0
  7  8  2  0
  7  9  1  0
  9 10  1  0
 10 11  1  0
 11 12  1  0
 12 13  2  0
 13 14  1  0
 14 15  2  0
 15 16  1  0
 16 17  2  0
  4 18  2  0
 18 19  1  0
 19 20  2  0
 20 21  1  0
 21 22  2  0
 22 23  1  0
 23 24  2  0
 24  3  1  0
 17  9  1  0
 24 19  1  0
 17 12  1  0
  1 25  1  0
  1 26  1  0
  1 27  1  0
  2 28  1  0
  2 29  1  0
  6 30  1  0
  6 31  1  0
 10 32  1  0
 10 33  1  0
 11 34  1  0
 11 35  1  0
 13 36  1  0
 14 37  1  0
 15 38  1  0
 16 39  1  0
 18 40  1  0
 20 41  1  0
 21 42  1  0
 22 43  1  0
 23 44  1  0
M  CHG  1  18   1
M  END
>  <UniqueID>  (37) 
37

>  <SMILES>  (37) 
CCn1c(SCC(=O)N2CCc3ccccc32)[nH+]c2ccccc21

>  <Energy>  (37) 
97.5332135747432

>  <Genealogy>  (37) 
CCn1c(SCC(=O)N2CCc3ccccc32)[nH+]c2ccccc21 (protonated)
CCn1c(SCC(=O)N2CCc3ccccc32)[nH+]c2ccccc21 (3D coordinates assigned)
CCn1c(SCC(=O)N2CCc3ccccc32)[nH+]c2ccccc21 (nonaromatic ring conformer: 97.5332135747432 kcal/mol)

>  <smiles>  (37) 
CCn1c(SCC(=O)N2CCc3ccccc32)nc2ccccc21

>  <score_type>  (37) 
oracle

>  <origin>  (37) 
adg

>  <m_score__min__energy>  (37) 
-6.8099999999999996

>  <m_primary>  (37) 
energy

$$$$
37:0
     RDKit          3D

 51 53  0  0  0  0  0  0  0  0999 V2000
   59.6570   34.5810   48.5470 C   0  0  0  0  0  0  0  0  0  0  0  0
   58.7640   34.5960   47.3080 C   0  0  0  0  0  0  0  0  0  0  0  0
   59.3700   33.7850   46.2320 N   0  0  0  0  0  0  0  0  0  0  0  0
   60.7750   34.1770   46.0230 C   0  0  0  0  0  0  0  0  0  0  0  0
   58.6050   33.8800   44.9680 C   0  0  0  0  0  0  0  0  0  0  0  0
   58.1500   32.4910   44.5240 C   0  0  0  0  0  0  0  0  0  0  0  0
   57.6160   31.7820   45.6390 O   0  0  0  0  0  0  0  0  0  0  0  0
   58.0380   30.4870   45.9460 C   0  0  0  0  0  0  0  0  0  0  0  0
   58.9140   30.2560   47.0300 C   0  0  0  0  0  0  0  0  0  0  0  0
   59.3450   31.3120   47.9090 N   0  0  0  0  0  0  0  0  0  0  0  0
   60.3250   31.1140   48.9790 C   0  0  0  0  0  0  0  0  0  0  0  0
   61.6100   31.8260   48.6590 C   0  0  0  0  0  0  0  0  0  0  0  0
   62.2610   31.5930   47.4370 C   0  0  0  0  0  0  0  0  0  0  0  0
   63.4400   32.2780   47.1260 C   0  0  0  0  0  0  0  0  0  0  0  0
   63.9710   33.2040   48.0280 C   0  0  0  0  0  0  0  0  0  0  0  0
   63.3220   33.4510   49.2410 C   0  0  0  0  0  0  0  0  0  0  0  0
   62.1420   32.7690   49.5550 C   0  0  0  0  0  0  0  0  0  0  0  0
   59.3930   28.9600   47.2590 C   0  0  0  0  0  0  0  0  0  0  0  0
   58.9790   27.8880   46.4600 C   0  0  0  0  0  0  0  0  0  0  0  0
   59.4620   26.5940   46.7170 C   0  0  0  0  0  0  0  0  0  0  0  0
   59.0440   25.5200   45.9320 C   0  0  0  0  0  0  0  0  0  0  0  0
   58.1410   25.7230   44.8890 C   0  0  0  0  0  0  0  0  0  0  0  0
   57.6510   27.0050   44.6210 C   0  0  0  0  0  0  0  0  0  0  0  0
   58.0630   28.1060   45.4010 C   0  0  0  0  0  0  0  0  0  0  0  0
   57.5910   29.4140   45.1520 C   0  0  0  0  0  0  0  0  0  0  0  0
   56.3260   29.7840   43.7440 Br  0  0  0  0  0  0  0  0  0  0  0  0
   59.0302   34.5915   49.4509 H   0  0  0  0  0  0  0  0  0  0  0  0
   60.2769   33.6723   48.5412 H   0  0  0  0  0  0  0  0  0  0  0  0
   60.3071   35.4684   48.5412 H   0  0  0  0  0  0  0  0  0  0  0  0
   57.7787   34.1802   47.5653 H   0  0  0  0  0  0  0  0  0  0  0  0
   58.6543   35.6328   46.9573 H   0  0  0  0  0  0  0  0  0  0  0  0
   61.2663   34.3141   46.9976 H   0  0  0  0  0  0  0  0  0  0  0  0
   61.2951   33.3897   45.4577 H   0  0  0  0  0  0  0  0  0  0  0  0
   60.8124   35.1199   45.4577 H   0  0  0  0  0  0  0  0  0  0  0  0
   57.7234   34.5192   45.1235 H   0  0  0  0  0  0  0  0  0  0  0  0
   59.2492   34.3139   44.1891 H   0  0  0  0  0  0  0  0  0  0  0  0
   57.3759   32.5901   43.7488 H   0  0  0  0  0  0  0  0  0  0  0  0
   59.0100   31.9380   44.1182 H   0  0  0  0  0  0  0  0  0  0  0  0
   59.0760   32.2920   47.6580 H   0  0  0  0  0  0  0  0  0  0  0  0
   59.9171   31.5103   49.9206 H   0  0  0  0  0  0  0  0  0  0  0  0
   60.5309   30.0378   49.0762 H   0  0  0  0  0  0  0  0  0  0  0  0
   61.8424   30.8694   46.7220 H   0  0  0  0  0  0  0  0  0  0  0  0
   63.9500   32.0876   46.1702 H   0  0  0  0  0  0  0  0  0  0  0  0
   64.9005   33.7389   47.7831 H   0  0  0  0  0  0  0  0  0  0  0  0
   63.7395   34.1821   49.9490 H   0  0  0  0  0  0  0  0  0  0  0  0
   61.6286   32.9714   50.5065 H   0  0  0  0  0  0  0  0  0  0  0  0
   60.1048   28.7821   48.0786 H   0  0  0  0  0  0  0  0  0  0  0  0
   60.1723   26.4275   47.5402 H   0  0  0  0  0  0  0  0  0  0  0  0
   59.4278   24.5095   46.1361 H   0  0  0  0  0  0  0  0  0  0  0  0
   57.8129   24.8715   44.2748 H   0  0  0  0  0  0  0  0  0  0  0  0
   56.9392   27.1561   43.7961 H   0  0  0  0  0  0  0  0  0  0  0  0
  1  2  1  0
  2  3  1  0
  3  4  1  0
  3  5  1  0
  5  6  1  0
  6  7  1  0
  7  8  1  0
  8  9  2  0
  9 10  1  0
 10 11  1  0
 11 12  1  0
 12 13  2  0
 13 14  1  0
 14 15  2  0
 15 16  1  0
 16 17  2  0
  9 18  1  0
 18 19  2  0
 19 20  1  0
 20 21  2  0
 21 22  1  0
 22 23  2  0
 23 24  1  0
 24 25  2  0
 25 26  1  0
 25  8  1  0
 17 12  1  0
 24 19  1  0
  1 27  1  0
  1 28  1  0
  1 29  1  0
  2 30  1  0
  2 31  1  0
  4 32  1  0
  4 33  1  0
  4 34  1  0
  5 35  1  0
  5 36  1  0
  6 37  1  0
  6 38  1  0
 10 39  1  0
 11 40  1  0
 11 41  1  0
 13 42  1  0
 14 43  1  0
 15 44  1  0
 16 45  1  0
 17 46  1  0
 18 47  1  0
 20 48  1  0
 21 49  1  0
 22 50  1  0
 23 51  1  0
M  END
>  <UniqueID>  (38) 
38

>  <SMILES>  (38) 
CCN(C)CCOc1c(NCc2ccccc2)cc2ccccc2c1Br

>  <Energy>  (38) 
62.88379792002726

>  <Genealogy>  (38) 
CCN(C)CCOc1c(NCc2ccccc2)cc2ccccc2c1Br (3D coordinates assigned)
CCN(C)CCOc1c(NCc2ccccc2)cc2ccccc2c1Br (optimized conformer: 62.88379792002726 kcal/mol)

>  <smiles>  (38) 
CCN(C)CCOc1c(NCc2ccccc2)cc2ccccc2c1Br

>  <score_type>  (38) 
oracle

>  <origin>  (38) 
adg

>  <m_score__min__energy>  (38) 
-7.4299999999999997

>  <m_primary>  (38) 
energy

$$$$
38:0
     RDKit          3D

 36 38  0  0  0  0  0  0  0  0999 V2000
   55.2510   30.3790   44.7340 O   0  0  0  0  0  0  0  0  0  0  0  0
   56.0490   29.4240   44.5300 C   0  0  0  0  0  0  0  0  0  0  0  0
   57.1720   29.5840   43.5560 C   0  0  0  0  0  0  0  0  0  0  0  0
   57.5920   30.9820   43.5010 N   0  0  0  0  0  0  0  0  0  0  0  0
   57.7400   31.7440   42.3880 C   0  0  0  0  0  0  0  0  0  0  0  0
   58.1010   33.0260   42.6590 N   0  0  0  0  0  0  0  0  0  0  0  0
   58.1640   33.0450   44.0030 C   0  0  0  0  0  0  0  0  0  0  0  0
   58.4710   34.1300   44.8210 C   0  0  0  0  0  0  0  0  0  0  0  0
   58.4290   33.9340   46.2150 C   0  0  0  0  0  0  0  0  0  0  0  0
   58.0910   32.6700   46.7490 C   0  0  0  0  0  0  0  0  0  0  0  0
   57.7950   31.5900   45.8950 C   0  0  0  0  0  0  0  0  0  0  0  0
   57.8470   31.8210   44.5180 C   0  0  0  0  0  0  0  0  0  0  0  0
   55.9080   28.1930   45.2450 N   0  0  0  0  0  0  0  0  0  0  0  0
   56.9980   27.2500   45.4700 C   0  0  0  0  0  0  0  0  0  0  0  0
   57.6540   27.4680   46.8370 C   0  0  0  0  0  0  0  0  0  0  0  0
   58.8110   28.4240   46.7490 C   0  0  0  0  0  0  0  0  0  0  0  0
   59.1590   29.2350   47.8400 C   0  0  0  0  0  0  0  0  0  0  0  0
   60.2460   30.1050   47.7270 C   0  0  0  0  0  0  0  0  0  0  0  0
   60.9560   30.1790   46.5290 C   0  0  0  0  0  0  0  0  0  0  0  0
   60.5710   29.3710   45.4570 C   0  0  0  0  0  0  0  0  0  0  0  0
   59.5210   28.5160   45.5890 N   0  0  0  0  0  0  0  0  0  0  0  0
   58.0211   28.9611   43.8738 H   0  0  0  0  0  0  0  0  0  0  0  0
   56.8312   29.2704   42.5582 H   0  0  0  0  0  0  0  0  0  0  0  0
   57.5835   31.3623   41.3683 H   0  0  0  0  0  0  0  0  0  0  0  0
   58.7374   35.1074   44.3923 H   0  0  0  0  0  0  0  0  0  0  0  0
   58.6606   34.7695   46.8920 H   0  0  0  0  0  0  0  0  0  0  0  0
   58.0589   32.5287   47.8394 H   0  0  0  0  0  0  0  0  0  0  0  0
   57.5324   30.6005   46.2974 H   0  0  0  0  0  0  0  0  0  0  0  0
   56.6000   26.2256   45.4236 H   0  0  0  0  0  0  0  0  0  0  0  0
   57.7591   27.4094   44.6920 H   0  0  0  0  0  0  0  0  0  0  0  0
   56.9051   27.8767   47.5313 H   0  0  0  0  0  0  0  0  0  0  0  0
   58.0340   26.4997   47.1948 H   0  0  0  0  0  0  0  0  0  0  0  0
   58.5815   29.1861   48.7750 H   0  0  0  0  0  0  0  0  0  0  0  0
   60.5416   30.7309   48.5819 H   0  0  0  0  0  0  0  0  0  0  0  0
   61.8094   30.8659   46.4296 H   0  0  0  0  0  0  0  0  0  0  0  0
   61.1177   29.4260   44.5041 H   0  0  0  0  0  0  0  0  0  0  0  0
  1  2  2  0
  2  3  1  0
  3  4  1  0
  4  5  1  0
  5  6  2  0
  6  7  1  0
  7  8  2  0
  8  9  1  0
  9 10  2  0
 10 11  1  0
 11 12  2  0
  2 13  1  0
 13 14  1  0
 14 15  1  0
 15 16  1  0
 16 17  2  0
 17 18  1  0
 18 19  2  0
 19 20  1  0
 20 21  2  0
 12  4  1  0
 21 16  1  0
 12  7  1  0
  3 22  1  0
  3 23  1  0
  5 24  1  0
  8 25  1  0
  9 26  1  0
 10 27  1  0
 11 28  1  0
 14 29  1  0
 14 30  1  0
 15 31  1  0
 15 32  1  0
 17 33  1  0
 18 34  1  0
 19 35  1  0
 20 36  1  0
M  CHG  1  13  -1
M  END
>  <UniqueID>  (39) 
39

>  <SMILES>  (39) 
O=C(Cn1cnc2ccccc21)[N-]CCc1ccccn1

>  <Energy>  (39) 
65.35524718311666

>  <Genealogy>  (39) 
O=C(Cn1cnc2ccccc21)[N-]CCc1ccccn1 (protonated)
O=C(Cn1cnc2ccccc21)[N-]CCc1ccccn1 (3D coordinates assigned)
O=C(Cn1cnc2ccccc21)[N-]CCc1ccccn1 (optimized conformer: 65.35524718311666 kcal/mol)

>  <smiles>  (39) 
O=C(Cn1cnc2ccccc21)NCCc1ccccn1

>  <score_type>  (39) 
oracle

>  <origin>  (39) 
adg

>  <m_score__min__energy>  (39) 
-9.2899999999999991

>  <m_primary>  (39) 
energy

$$$$
