0:0
     RDKit          3D

 35 37  0  0  0  0  0  0  0  0999 V2000
   58.7700   28.4120   47.1030 C   0  0  0  0  0  0  0  0  0  0  0  0
   58.5180   29.1830   45.8900 N   0  0  0  0  0  0  0  0  0  0  0  0
   58.2000   28.6940   44.6650 C   0  0  0  0  0  0  0  0  0  0  0  0
   58.0130   29.6770   43.7510 N   0  0  0  0  0  0  0  0  0  0  0  0
   58.2230   30.8140   44.4420 C   0  0  0  0  0  0  0  0  0  0  0  0
   58.5250   30.5220   45.7290 C   0  0  0  0  0  0  0  0  0  0  0  0
   58.7650   31.5390   46.6420 C   0  0  0  0  0  0  0  0  0  0  0  0
   59.0460   31.2670   47.8400 O   0  0  0  0  0  0  0  0  0  0  0  0
   58.6890   32.8430   46.2020 N   0  0  0  0  0  0  0  0  0  0  0  0
   58.8980   33.9550   47.1510 C   0  0  0  0  0  0  0  0  0  0  0  0
   60.3350   33.9940   47.6070 C   0  0  0  0  0  0  0  0  0  0  0  0
   61.3760   33.7720   46.6890 C   0  0  0  0  0  0  0  0  0  0  0  0
   62.7070   33.7770   47.1180 C   0  0  0  0  0  0  0  0  0  0  0  0
   63.0090   34.0030   48.4630 C   0  0  0  0  0  0  0  0  0  0  0  0
   61.9800   34.2220   49.3830 C   0  0  0  0  0  0  0  0  0  0  0  0
   60.6480   34.2170   48.9590 C   0  0  0  0  0  0  0  0  0  0  0  0
   58.3740   33.1140   44.8780 C   0  0  0  0  0  0  0  0  0  0  0  0
   58.2920   34.3130   44.4890 O   0  0  0  0  0  0  0  0  0  0  0  0
   58.1470   32.0910   43.9800 N   0  0  0  0  0  0  0  0  0  0  0  0
   57.8000   32.3430   42.5750 C   0  0  0  0  0  0  0  0  0  0  0  0
   58.5655   29.0377   47.9843 H   0  0  0  0  0  0  0  0  0  0  0  0
   58.1135   27.5295   47.1196 H   0  0  0  0  0  0  0  0  0  0  0  0
   59.8209   28.0876   47.1196 H   0  0  0  0  0  0  0  0  0  0  0  0
   58.1048   27.6216   44.4394 H   0  0  0  0  0  0  0  0  0  0  0  0
   57.7570   29.5630   42.7450 H   0  0  0  0  0  0  0  0  0  0  0  0
   58.6488   34.9054   46.6563 H   0  0  0  0  0  0  0  0  0  0  0  0
   58.2498   33.8033   48.0267 H   0  0  0  0  0  0  0  0  0  0  0  0
   61.1428   33.5936   45.6289 H   0  0  0  0  0  0  0  0  0  0  0  0
   63.5175   33.6027   46.3951 H   0  0  0  0  0  0  0  0  0  0  0  0
   64.0567   34.0086   48.7980 H   0  0  0  0  0  0  0  0  0  0  0  0
   62.2186   34.3985   50.4422 H   0  0  0  0  0  0  0  0  0  0  0  0
   59.8411   34.3884   49.6867 H   0  0  0  0  0  0  0  0  0  0  0  0
   56.9108   32.9888   42.5271 H   0  0  0  0  0  0  0  0  0  0  0  0
   58.6424   32.8412   42.0729 H   0  0  0  0  0  0  0  0  0  0  0  0
   57.5869   31.3877   42.0729 H   0  0  0  0  0  0  0  0  0  0  0  0
  1  2  1  0
  2  3  1  0
  3  4  2  0
  4  5  1  0
  5  6  2  0
  6  7  1  0
  7  8  2  0
  7  9  1  0
  9 10  1  0
 10 11  1  0
 11 12  2  0
 12 13  1  0
 13 14  2  0
 14 15  1  0
 15 16  2  0
  9 17  1  0
 17 18  2  0
 17 19  1  0
 19 20  1  0
  6  2  1  0
 16 11  1  0
 19  5  1  0
  1 21  1  0
  1 22  1  0
  1 23  1  0
  3 24  1  0
  4 25  1  0
 10 26  1  0
 10 27  1  0
 12 28  1  0
 13 29  1  0
 14 30  1  0
 15 31  1  0
 16 32  1  0
 20 33  1  0
 20 34  1  0
 20 35  1  0
M  CHG  1   4   1
M  END
>  <UniqueID>  (1) 
1

>  <SMILES>  (1) 
Cn1c[nH+]c2c1c(=O)n(Cc1ccccc1)c(=O)n2C

>  <Energy>  (1) 
83.71028065995714

>  <Genealogy>  (1) 
Cn1c[nH+]c2c1c(=O)n(Cc1ccccc1)c(=O)n2C (protonated)
Cn1c[nH+]c2c1c(=O)n(Cc1ccccc1)c(=O)n2C (3D coordinates assigned)
Cn1c[nH+]c2c1c(=O)n(Cc1ccccc1)c(=O)n2C (optimized conformer: 83.71028065995714 kcal/mol)

>  <smiles>  (1) 
Cn1cnc2c1c(=O)n(Cc1ccccc1)c(=O)n2C

>  <score_type>  (1) 
oracle

>  <origin>  (1) 
adg

>  <m_score__min__energy>  (1) 
-4.9800000000000004

>  <m_primary>  (1) 
energy

$$$$
1:0
     RDKit          3D

 40 41  0  0  0  0  0  0  0  0999 V2000
   55.6910   29.8960   43.7500 C   0  0  0  0  0  0  0  0  0  0  0  0
   56.5790   30.6130   44.5790 O   0  0  0  0  0  0  0  0  0  0  0  0
   57.8160   30.8130   43.9230 C   0  0  0  0  0  0  0  0  0  0  0  0
   58.0190   32.2930   43.5870 C   0  0  0  0  0  0  0  0  0  0  0  0
   58.2770   33.0550   44.8270 N   0  0  0  0  0  0  0  0  0  0  0  0
   57.0940   33.2700   45.6860 C   0  0  0  0  0  0  0  0  0  0  0  0
   57.4320   33.4930   47.1740 C   0  0  0  0  0  0  0  0  0  0  0  0
   58.7970   32.9480   47.5190 C   0  0  0  0  0  0  0  0  0  0  0  0
   58.8960   31.8860   48.3670 N   0  0  0  0  0  0  0  0  0  0  0  0
   60.1000   31.3470   48.6790 C   0  0  0  0  0  0  0  0  0  0  0  0
   61.2330   31.8550   48.1390 N   0  0  0  0  0  0  0  0  0  0  0  0
   61.2090   32.9130   47.2850 C   0  0  0  0  0  0  0  0  0  0  0  0
   62.5180   33.4100   46.7140 C   0  0  0  0  0  0  0  0  0  0  0  0
   63.2750   34.1060   47.6900 O   0  0  0  0  0  0  0  0  0  0  0  0
   64.0800   33.2070   48.4210 C   0  0  0  0  0  0  0  0  0  0  0  0
   59.9650   33.5040   46.9510 C   0  0  0  0  0  0  0  0  0  0  0  0
   59.8480   34.6620   45.9790 C   0  0  0  0  0  0  0  0  0  0  0  0
   59.1720   34.2210   44.6680 C   0  0  0  0  0  0  0  0  0  0  0  0
   54.9860   29.3267   44.3736 H   0  0  0  0  0  0  0  0  0  0  0  0
   55.1331   30.5999   43.1150 H   0  0  0  0  0  0  0  0  0  0  0  0
   56.2615   29.2023   43.1150 H   0  0  0  0  0  0  0  0  0  0  0  0
   58.6315   30.4771   44.5804 H   0  0  0  0  0  0  0  0  0  0  0  0
   57.8167   30.2352   42.9870 H   0  0  0  0  0  0  0  0  0  0  0  0
   58.8774   32.3992   42.9074 H   0  0  0  0  0  0  0  0  0  0  0  0
   57.1126   32.6838   43.1015 H   0  0  0  0  0  0  0  0  0  0  0  0
   56.5550   34.1551   45.3172 H   0  0  0  0  0  0  0  0  0  0  0  0
   56.4895   32.3527   45.6308 H   0  0  0  0  0  0  0  0  0  0  0  0
   57.4137   34.5720   47.3869 H   0  0  0  0  0  0  0  0  0  0  0  0
   56.6845   32.9613   47.7812 H   0  0  0  0  0  0  0  0  0  0  0  0
   58.0390   31.4640   48.7900 H   0  0  0  0  0  0  0  0  0  0  0  0
   60.1567   30.4950   49.3724 H   0  0  0  0  0  0  0  0  0  0  0  0
   63.1016   32.5497   46.3544 H   0  0  0  0  0  0  0  0  0  0  0  0
   62.2959   34.1023   45.8885 H   0  0  0  0  0  0  0  0  0  0  0  0
   63.9308   33.3737   49.4980 H   0  0  0  0  0  0  0  0  0  0  0  0
   63.7993   32.1741   48.1675 H   0  0  0  0  0  0  0  0  0  0  0  0
   65.1375   33.3724   48.1675 H   0  0  0  0  0  0  0  0  0  0  0  0
   59.2482   35.4597   46.4415 H   0  0  0  0  0  0  0  0  0  0  0  0
   60.8599   35.0244   45.7449 H   0  0  0  0  0  0  0  0  0  0  0  0
   58.5800   35.0637   44.2813 H   0  0  0  0  0  0  0  0  0  0  0  0
   59.9733   33.9208   43.9768 H   0  0  0  0  0  0  0  0  0  0  0  0
  1  2  1  0
  2  3  1  0
  3  4  1  0
  4  5  1  0
  5  6  1  0
  6  7  1  0
  7  8  1  0
  8  9  2  0
  9 10  1  0
 10 11  2  0
 11 12  1  0
 12 13  1  0
 13 14  1  0
 14 15  1  0
 12 16  2  0
 16 17  1  0
 17 18  1  0
 18  5  1  0
 16  8  1  0
  1 19  1  0
  1 20  1  0
  1 21  1  0
  3 22  1  0
  3 23  1  0
  4 24  1  0
  4 25  1  0
  6 26  1  0
  6 27  1  0
  7 28  1  0
  7 29  1  0
  9 30  1  0
 10 31  1  0
 13 32  1  0
 13 33  1  0
 15 34  1  0
 15 35  1  0
 15 36  1  0
 17 37  1  0
 17 38  1  0
 18 39  1  0
 18 40  1  0
M  CHG  1   9   1
M  END
>  <UniqueID>  (2) 
2

>  <SMILES>  (2) 
COCCN1CCc2[nH+]cnc(COC)c2CC1

>  <Energy>  (2) 
54.78853648389037

>  <Genealogy>  (2) 
COCCN1CCc2[nH+]cnc(COC)c2CC1 (protonated)
COCCN1CCc2[nH+]cnc(COC)c2CC1 (3D coordinates assigned)
COCCN1CCc2[nH+]cnc(COC)c2CC1 (nonaromatic ring conformer: 54.78853648389037 kcal/mol)

>  <smiles>  (2) 
COCCN1CCc2ncnc(COC)c2CC1

>  <score_type>  (2) 
oracle

>  <origin>  (2) 
adg

>  <m_score__min__energy>  (2) 
-2.8999999999999999

>  <m_primary>  (2) 
energy

$$$$
2:0
     RDKit          3D

 48 51  0  0  0  0  0  0  0  0999 V2000
   63.4590   31.3020   50.3230 C   0  0  0  0  0  0  0  0  0  0  0  0
   63.4690   32.5750   49.5970 N   0  0  0  0  0  0  0  0  0  0  0  0
   63.5140   33.8460   50.3350 C   0  0  0  0  0  0  0  0  0  0  0  0
   63.4620   32.5570   48.1560 C   0  0  0  0  0  0  0  0  0  0  0  0
   63.5320   31.4480   47.5490 O   0  0  0  0  0  0  0  0  0  0  0  0
   63.3410   33.8390   47.3610 C   0  0  0  0  0  0  0  0  0  0  0  0
   62.1580   33.8320   46.3810 C   0  0  0  0  0  0  0  0  0  0  0  0
   60.8280   34.2010   47.0710 C   0  0  0  0  0  0  0  0  0  0  0  0
   60.1300   33.0140   47.5870 N   0  0  0  0  0  0  0  0  0  0  0  0
   60.0150   32.7920   49.0110 C   0  0  0  0  0  0  0  0  0  0  0  0
   59.6410   33.8300   49.8860 C   0  0  0  0  0  0  0  0  0  0  0  0
   59.4250   33.5710   51.2440 C   0  0  0  0  0  0  0  0  0  0  0  0
   59.5590   32.2740   51.7360 C   0  0  0  0  0  0  0  0  0  0  0  0
   59.9300   31.2300   50.8750 C   0  0  0  0  0  0  0  0  0  0  0  0
   60.1730   31.4890   49.5180 C   0  0  0  0  0  0  0  0  0  0  0  0
   60.8090   30.1900   48.4410 S   0  0  0  0  0  0  0  0  0  0  0  0
   59.7160   30.6350   47.0850 C   0  0  0  0  0  0  0  0  0  0  0  0
   59.0130   29.6380   46.3980 C   0  0  0  0  0  0  0  0  0  0  0  0
   58.2210   29.9830   45.2920 C   0  0  0  0  0  0  0  0  0  0  0  0
   57.4990   28.9960   44.6020 C   0  0  0  0  0  0  0  0  0  0  0  0
   56.7090   29.3510   43.5010 C   0  0  0  0  0  0  0  0  0  0  0  0
   56.6420   30.6860   43.0780 C   0  0  0  0  0  0  0  0  0  0  0  0
   57.3610   31.6720   43.7540 C   0  0  0  0  0  0  0  0  0  0  0  0
   58.1500   31.3340   44.8660 C   0  0  0  0  0  0  0  0  0  0  0  0
   58.8440   32.3250   45.5750 C   0  0  0  0  0  0  0  0  0  0  0  0
   59.6120   31.9890   46.7040 C   0  0  0  0  0  0  0  0  0  0  0  0
   63.4605   31.4973   51.4055 H   0  0  0  0  0  0  0  0  0  0  0  0
   62.5564   30.7337   50.0542 H   0  0  0  0  0  0  0  0  0  0  0  0
   64.3526   30.7196   50.0542 H   0  0  0  0  0  0  0  0  0  0  0  0
   63.5068   33.6427   51.4160 H   0  0  0  0  0  0  0  0  0  0  0  0
   64.4320   34.3913   50.0705 H   0  0  0  0  0  0  0  0  0  0  0  0
   62.6368   34.4548   50.0705 H   0  0  0  0  0  0  0  0  0  0  0  0
   63.2086   34.6751   48.0634 H   0  0  0  0  0  0  0  0  0  0  0  0
   64.2596   33.9428   46.7649 H   0  0  0  0  0  0  0  0  0  0  0  0
   62.3562   34.5605   45.5810 H   0  0  0  0  0  0  0  0  0  0  0  0
   62.0586   32.8131   45.9786 H   0  0  0  0  0  0  0  0  0  0  0  0
   61.0390   34.8817   47.9089 H   0  0  0  0  0  0  0  0  0  0  0  0
   60.1782   34.6807   46.3242 H   0  0  0  0  0  0  0  0  0  0  0  0
   59.5177   34.8523   49.4990 H   0  0  0  0  0  0  0  0  0  0  0  0
   59.1494   34.3912   51.9233 H   0  0  0  0  0  0  0  0  0  0  0  0
   59.3737   32.0685   52.8006 H   0  0  0  0  0  0  0  0  0  0  0  0
   60.0305   30.2064   51.2650 H   0  0  0  0  0  0  0  0  0  0  0  0
   59.0811   28.5895   46.7235 H   0  0  0  0  0  0  0  0  0  0  0  0
   57.5536   27.9460   44.9254 H   0  0  0  0  0  0  0  0  0  0  0  0
   56.1381   28.5782   42.9654 H   0  0  0  0  0  0  0  0  0  0  0  0
   56.0211   30.9565   42.2112 H   0  0  0  0  0  0  0  0  0  0  0  0
   57.3099   32.7173   43.4153 H   0  0  0  0  0  0  0  0  0  0  0  0
   58.7872   33.3730   45.2456 H   0  0  0  0  0  0  0  0  0  0  0  0
  1  2  1  0
  2  3  1  0
  2  4  1  0
  4  5  2  0
  4  6  1  0
  6  7  1  0
  7  8  1  0
  8  9  1  0
  9 10  1  0
 10 11  2  0
 11 12  1  0
 12 13  2  0
 13 14  1  0
 14 15  2  0
 15 16  1  0
 16 17  1  0
 17 18  2  0
 18 19  1  0
 19 20  2  0
 20 21  1  0
 21 22  2  0
 22 23  1  0
 23 24  2  0
 24 25  1  0
 25 26  2  0
 26  9  1  0
 15 10  1  0
 26 17  1  0
 24 19  1  0
  1 27  1  0
  1 28  1  0
  1 29  1  0
  3 30  1  0
  3 31  1  0
  3 32  1  0
  6 33  1  0
  6 34  1  0
  7 35  1  0
  7 36  1  0
  8 37  1  0
  8 38  1  0
 11 39  1  0
 12 40  1  0
 13 41  1  0
 14 42  1  0
 18 43  1  0
 20 44  1  0
 21 45  1  0
 22 46  1  0
 23 47  1  0
 25 48  1  0
M  END
>  <UniqueID>  (3) 
3

>  <SMILES>  (3) 
CN(C)C(=O)CCCN1c2ccccc2Sc2cc3ccccc3cc21

>  <Energy>  (3) 
70.33699662040053

>  <Genealogy>  (3) 
CN(C)C(=O)CCCN1c2ccccc2Sc2cc3ccccc3cc21 (3D coordinates assigned)
CN(C)C(=O)CCCN1c2ccccc2Sc2cc3ccccc3cc21 (nonaromatic ring conformer: 70.33699662040053 kcal/mol)

>  <smiles>  (3) 
CN(C)C(=O)CCCN1c2ccccc2Sc2cc3ccccc3cc21

>  <score_type>  (3) 
oracle

>  <origin>  (3) 
adg

>  <m_score__min__energy>  (3) 
-8.7200000000000006

>  <m_primary>  (3) 
energy

$$$$
3:0
     RDKit          3D

 67 70  0  0  0  0  0  0  0  0999 V2000
   63.0090   29.9980   51.3230 C   0  0  0  0  0  0  0  0  0  0  0  0
   62.3220   30.2020   50.0920 O   0  0  0  0  0  0  0  0  0  0  0  0
   62.5660   31.2680   49.2120 C   0  0  0  0  0  0  0  0  0  0  0  0
   63.5000   32.2820   49.5040 C   0  0  0  0  0  0  0  0  0  0  0  0
   63.7090   33.3310   48.6040 C   0  0  0  0  0  0  0  0  0  0  0  0
   62.9860   33.3850   47.4110 C   0  0  0  0  0  0  0  0  0  0  0  0
   62.0570   32.3850   47.1110 C   0  0  0  0  0  0  0  0  0  0  0  0
   61.8480   31.3250   48.0050 C   0  0  0  0  0  0  0  0  0  0  0  0
   60.8920   30.3020   47.6830 N   0  0  0  0  0  0  0  0  0  0  0  0
   60.1430   29.6420   48.7560 C   0  0  0  0  0  0  0  0  0  0  0  0
   58.8630   29.0080   48.1910 C   0  0  0  0  0  0  0  0  0  0  0  0
   59.1090   28.0790   47.0450 N   0  0  0  0  0  0  0  0  0  0  0  0
   59.0430   26.6540   47.4670 C   0  0  0  0  0  0  0  0  0  0  0  0
   57.7050   25.9560   47.1190 C   0  0  0  0  0  0  0  0  0  0  0  0
   57.5490   25.5190   45.6510 C   0  0  0  0  0  0  0  0  0  0  0  0
   57.7330   26.6640   44.6540 C   0  0  0  0  0  0  0  0  0  0  0  0
   57.0070   27.8060   45.1050 O   0  0  0  0  0  0  0  0  0  0  0  0
   57.1100   29.0850   44.5400 C   0  0  0  0  0  0  0  0  0  0  0  0
   56.6550   29.3720   43.2400 C   0  0  0  0  0  0  0  0  0  0  0  0
   56.7700   30.6650   42.7280 C   0  0  0  0  0  0  0  0  0  0  0  0
   57.3350   31.6820   43.4990 C   0  0  0  0  0  0  0  0  0  0  0  0
   57.7980   31.4150   44.8010 C   0  0  0  0  0  0  0  0  0  0  0  0
   58.3840   32.4910   45.6390 C   0  0  0  0  0  0  0  0  0  0  0  0
   58.8760   33.7200   45.1950 C   0  0  0  0  0  0  0  0  0  0  0  0
   59.3570   34.5410   46.2290 C   0  0  0  0  0  0  0  0  0  0  0  0
   59.9150   35.9110   45.9940 C   0  0  0  0  0  0  0  0  0  0  0  0
   59.2440   33.9610   47.4910 C   0  0  0  0  0  0  0  0  0  0  0  0
   59.6230   34.5860   48.7950 C   0  0  0  0  0  0  0  0  0  0  0  0
   58.5500   32.4410   47.3180 S   0  0  0  0  0  0  0  0  0  0  0  0
   57.6820   30.1070   45.3070 C   0  0  0  0  0  0  0  0  0  0  0  0
   60.3960   28.3260   46.3370 C   0  0  0  0  0  0  0  0  0  0  0  0
   60.7690   29.8110   46.3100 C   0  0  0  0  0  0  0  0  0  0  0  0
   62.3266   30.2006   52.1617 H   0  0  0  0  0  0  0  0  0  0  0  0
   63.3598   28.9569   51.3790 H   0  0  0  0  0  0  0  0  0  0  0  0
   63.8711   30.6789   51.3790 H   0  0  0  0  0  0  0  0  0  0  0  0
   64.0678   32.2479   50.4455 H   0  0  0  0  0  0  0  0  0  0  0  0
   64.4445   34.1153   48.8362 H   0  0  0  0  0  0  0  0  0  0  0  0
   63.1475   34.2147   46.7071 H   0  0  0  0  0  0  0  0  0  0  0  0
   61.4879   32.4295   46.1707 H   0  0  0  0  0  0  0  0  0  0  0  0
   60.7687   28.8583   49.2081 H   0  0  0  0  0  0  0  0  0  0  0  0
   59.8706   30.3877   49.5173 H   0  0  0  0  0  0  0  0  0  0  0  0
   58.3701   28.4436   48.9963 H   0  0  0  0  0  0  0  0  0  0  0  0
   58.2374   29.8292   47.8113 H   0  0  0  0  0  0  0  0  0  0  0  0
   58.3590   28.2510   46.3390 H   0  0  0  0  0  0  0  0  0  0  0  0
   59.8579   26.1077   46.9695 H   0  0  0  0  0  0  0  0  0  0  0  0
   59.1329   26.6419   48.5633 H   0  0  0  0  0  0  0  0  0  0  0  0
   57.6155   25.0601   47.7509 H   0  0  0  0  0  0  0  0  0  0  0  0
   56.9183   26.7039   47.2973 H   0  0  0  0  0  0  0  0  0  0  0  0
   58.3004   24.7450   45.4358 H   0  0  0  0  0  0  0  0  0  0  0  0
   56.5214   25.1454   45.5307 H   0  0  0  0  0  0  0  0  0  0  0  0
   58.8011   26.9152   44.5766 H   0  0  0  0  0  0  0  0  0  0  0  0
   57.3573   26.3559   43.6671 H   0  0  0  0  0  0  0  0  0  0  0  0
   56.2080   28.5760   42.6263 H   0  0  0  0  0  0  0  0  0  0  0  0
   56.4133   30.8840   41.7108 H   0  0  0  0  0  0  0  0  0  0  0  0
   57.4189   32.6983   43.0866 H   0  0  0  0  0  0  0  0  0  0  0  0
   58.8861   34.0174   44.1360 H   0  0  0  0  0  0  0  0  0  0  0  0
   60.1130   36.3971   46.9607 H   0  0  0  0  0  0  0  0  0  0  0  0
   60.8527   35.8322   45.4243 H   0  0  0  0  0  0  0  0  0  0  0  0
   59.1891   36.5098   45.4243 H   0  0  0  0  0  0  0  0  0  0  0  0
   59.2469   33.9657   49.6219 H   0  0  0  0  0  0  0  0  0  0  0  0
   60.7185   34.6604   48.8613 H   0  0  0  0  0  0  0  0  0  0  0  0
   59.1825   35.5918   48.8613 H   0  0  0  0  0  0  0  0  0  0  0  0
   58.0463   29.8842   46.3207 H   0  0  0  0  0  0  0  0  0  0  0  0
   61.1944   27.7700   46.8503 H   0  0  0  0  0  0  0  0  0  0  0  0
   60.2774   27.9899   45.2963 H   0  0  0  0  0  0  0  0  0  0  0  0
   61.7276   29.9400   45.7860 H   0  0  0  0  0  0  0  0  0  0  0  0
   59.9875   30.3785   45.7835 H   0  0  0  0  0  0  0  0  0  0  0  0
  1  2  1  0
  2  3  1  0
  3  4  2  0
  4  5  1  0
  5  6  2  0
  6  7  1  0
  7  8  2  0
  8  9  1  0
  9 10  1  0
 10 11  1  0
 11 12  1  0
 12 13  1  0
 13 14  1  0
 14 15  1  0
 15 16  1  0
 16 17  1  0
 17 18  1  0
 18 19  2  0
 19 20  1  0
 20 21  2  0
 21 22  1  0
 22 23  1  0
 23 24  2  0
 24 25  1  0
 25 26  1  0
 25 27  2  0
 27 28  1  0
 27 29  1  0
 22 30  2  0
 12 31  1  0
 31 32  1  0
  8  3  1  0
 32  9  1  0
 30 18  1  0
 29 23  1  0
  1 33  1  0
  1 34  1  0
  1 35  1  0
  4 36  1  0
  5 37  1  0
  6 38  1  0
  7 39  1  0
 10 40  1  0
 10 41  1  0
 11 42  1  0
 11 43  1  0
 12 44  1  0
 13 45  1  0
 13 46  1  0
 14 47  1  0
 14 48  1  0
 15 49  1  0
 15 50  1  0
 16 51  1  0
 16 52  1  0
 19 53  1  0
 20 54  1  0
 21 55  1  0
 24 56  1  0
 26 57  1  0
 26 58  1  0
 26 59  1  0
 28 60  1  0
 28 61  1  0
 28 62  1  0
 30 63  1  0
 31 64  1  0
 31 65  1  0
 32 66  1  0
 32 67  1  0
M  CHG  1  12   1
M  END
>  <UniqueID>  (4) 
4

>  <SMILES>  (4) 
COc1ccccc1N1CC[NH+](CCCCOc2cccc(-c3cc(C)c(C)s3)c2)CC1

>  <Energy>  (4) 
106.70886604976549

>  <Genealogy>  (4) 
COc1ccccc1N1CC[NH+](CCCCOc2cccc(-c3cc(C)c(C)s3)c2)CC1 (protonated)
COc1ccccc1N1CC[NH+](CCCCOc2cccc(-c3cc(C)c(C)s3)c2)CC1 (3D coordinates assigned)
COc1ccccc1N1CC[NH+](CCCCOc2cccc(-c3cc(C)c(C)s3)c2)CC1 (nonaromatic ring conformer: 106.70886604976549 kcal/mol)

>  <smiles>  (4) 
COc1ccccc1N1CCN(CCCCOc2cccc(-c3cc(C)c(C)s3)c2)CC1

>  <score_type>  (4) 
oracle

>  <origin>  (4) 
adg

>  <m_score__min__energy>  (4) 
-7.0999999999999996

>  <m_primary>  (4) 
energy

$$$$
4:0
     RDKit          3D

 36 38  0  0  0  0  0  0  0  0999 V2000
   55.1500   29.3460   44.8480 O   0  0  0  0  0  0  0  0  0  0  0  0
   56.3580   29.6430   44.6440 C   0  0  0  0  0  0  0  0  0  0  0  0
   56.7410   31.0690   44.3960 C   0  0  0  0  0  0  0  0  0  0  0  0
   57.1170   31.7100   45.6130 O   0  0  0  0  0  0  0  0  0  0  0  0
   57.9410   32.8450   45.7110 C   0  0  0  0  0  0  0  0  0  0  0  0
   58.4670   33.5000   44.5800 C   0  0  0  0  0  0  0  0  0  0  0  0
   59.2780   34.6290   44.7330 C   0  0  0  0  0  0  0  0  0  0  0  0
   59.5720   35.1130   46.0100 C   0  0  0  0  0  0  0  0  0  0  0  0
   59.0580   34.4680   47.1370 C   0  0  0  0  0  0  0  0  0  0  0  0
   58.2450   33.3380   46.9880 C   0  0  0  0  0  0  0  0  0  0  0  0
   57.7500   32.7210   48.0900 F   0  0  0  0  0  0  0  0  0  0  0  0
   57.3670   28.6260   44.6370 N   0  0  0  0  0  0  0  0  0  0  0  0
   57.5050   27.6190   45.6460 C   0  0  0  0  0  0  0  0  0  0  0  0
   56.6300   26.5250   45.6130 C   0  0  0  0  0  0  0  0  0  0  0  0
   56.7630   25.4830   46.5320 C   0  0  0  0  0  0  0  0  0  0  0  0
   57.7670   25.5300   47.5010 C   0  0  0  0  0  0  0  0  0  0  0  0
   58.6250   26.6290   47.5670 C   0  0  0  0  0  0  0  0  0  0  0  0
   58.4960   27.6930   46.6570 C   0  0  0  0  0  0  0  0  0  0  0  0
   59.3180   28.8650   46.8140 N   0  0  0  0  0  0  0  0  0  0  0  0
   59.2860   29.7280   47.8480 C   0  0  0  0  0  0  0  0  0  0  0  0
   60.2000   30.7310   47.6060 C   0  0  0  0  0  0  0  0  0  0  0  0
   60.7540   30.4130   46.3820 C   0  0  0  0  0  0  0  0  0  0  0  0
   60.2000   29.2770   45.9170 N   0  0  0  0  0  0  0  0  0  0  0  0
   57.5888   31.0984   43.6957 H   0  0  0  0  0  0  0  0  0  0  0  0
   55.8755   31.5983   43.9708 H   0  0  0  0  0  0  0  0  0  0  0  0
   58.2389   33.1219   43.5725 H   0  0  0  0  0  0  0  0  0  0  0  0
   59.6851   35.1368   43.8462 H   0  0  0  0  0  0  0  0  0  0  0  0
   60.2085   36.0024   46.1279 H   0  0  0  0  0  0  0  0  0  0  0  0
   59.2921   34.8480   48.1424 H   0  0  0  0  0  0  0  0  0  0  0  0
   55.8320   26.4871   44.8568 H   0  0  0  0  0  0  0  0  0  0  0  0
   56.0765   24.6244   46.4928 H   0  0  0  0  0  0  0  0  0  0  0  0
   57.8820   24.6998   48.2134 H   0  0  0  0  0  0  0  0  0  0  0  0
   59.4090   26.6630   48.3378 H   0  0  0  0  0  0  0  0  0  0  0  0
   58.6402   29.6461   48.7347 H   0  0  0  0  0  0  0  0  0  0  0  0
   60.4358   31.5938   48.2463 H   0  0  0  0  0  0  0  0  0  0  0  0
   61.5293   30.9980   45.8656 H   0  0  0  0  0  0  0  0  0  0  0  0
  1  2  2  0
  2  3  1  0
  3  4  1  0
  4  5  1  0
  5  6  2  0
  6  7  1  0
  7  8  2  0
  8  9  1  0
  9 10  2  0
 10 11  1  0
  2 12  1  0
 12 13  1  0
 13 14  2  0
 14 15  1  0
 15 16  2  0
 16 17  1  0
 17 18  2  0
 18 19  1  0
 19 20  1  0
 20 21  2  0
 21 22  1  0
 22 23  2  0
 10  5  1  0
 18 13  1  0
 23 19  1  0
  3 24  1  0
  3 25  1  0
  6 26  1  0
  7 27  1  0
  8 28  1  0
  9 29  1  0
 14 30  1  0
 15 31  1  0
 16 32  1  0
 17 33  1  0
 20 34  1  0
 21 35  1  0
 22 36  1  0
M  CHG  1  12  -1
M  END
>  <UniqueID>  (5) 
5

>  <SMILES>  (5) 
O=C(COc1ccccc1F)[N-]c1ccccc1-n1cccn1

>  <Energy>  (5) 
77.28876120455803

>  <Genealogy>  (5) 
O=C(COc1ccccc1F)[N-]c1ccccc1-n1cccn1 (protonated)
O=C(COc1ccccc1F)[N-]c1ccccc1-n1cccn1 (3D coordinates assigned)
O=C(COc1ccccc1F)[N-]c1ccccc1-n1cccn1 (optimized conformer: 77.28876120455803 kcal/mol)

>  <smiles>  (5) 
O=C(COc1ccccc1F)Nc1ccccc1-n1cccn1

>  <score_type>  (5) 
oracle

>  <origin>  (5) 
adg

>  <m_score__min__energy>  (5) 
-9.9000000000000004

>  <m_primary>  (5) 
energy

$$$$
5:0
     RDKit          3D

 36 39  0  0  0  0  0  0  0  0999 V2000
   56.9680   24.9610   45.1110 F   0  0  0  0  0  0  0  0  0  0  0  0
   56.9410   25.6580   46.3070 C   0  0  0  0  0  0  0  0  0  0  0  0
   56.8620   24.7580   47.3520 F   0  0  0  0  0  0  0  0  0  0  0  0
   55.8120   26.4590   46.3150 F   0  0  0  0  0  0  0  0  0  0  0  0
   58.1890   26.4910   46.4640 C   0  0  0  0  0  0  0  0  0  0  0  0
   59.4330   25.8770   46.6840 C   0  0  0  0  0  0  0  0  0  0  0  0
   60.5930   26.6480   46.7910 C   0  0  0  0  0  0  0  0  0  0  0  0
   60.5280   28.0360   46.6550 C   0  0  0  0  0  0  0  0  0  0  0  0
   59.3020   28.6630   46.3860 C   0  0  0  0  0  0  0  0  0  0  0  0
   59.2210   30.1320   46.2480 C   0  0  0  0  0  0  0  0  0  0  0  0
   60.1020   30.9680   46.8470 N   0  0  0  0  0  0  0  0  0  0  0  0
   59.7860   32.2050   46.4310 C   0  0  0  0  0  0  0  0  0  0  0  0
   60.4160   33.3970   46.7830 C   0  0  0  0  0  0  0  0  0  0  0  0
   59.9110   34.5940   46.2430 C   0  0  0  0  0  0  0  0  0  0  0  0
   58.7970   34.5730   45.3770 C   0  0  0  0  0  0  0  0  0  0  0  0
   58.1800   33.3540   45.0370 C   0  0  0  0  0  0  0  0  0  0  0  0
   58.7100   32.1790   45.5780 C   0  0  0  0  0  0  0  0  0  0  0  0
   58.3210   30.8570   45.4510 C   0  0  0  0  0  0  0  0  0  0  0  0
   57.1510   30.3600   44.7040 C   0  0  0  0  0  0  0  0  0  0  0  0
   56.9620   30.3860   43.3320 C   0  0  0  0  0  0  0  0  0  0  0  0
   55.7340   29.7870   43.1480 C   0  0  0  0  0  0  0  0  0  0  0  0
   55.2480   29.4330   44.3510 N   0  0  0  0  0  0  0  0  0  0  0  0
   56.1110   29.7800   45.2590 O   0  0  0  0  0  0  0  0  0  0  0  0
   58.1350   27.8880   46.2990 C   0  0  0  0  0  0  0  0  0  0  0  0
   59.4942   24.7823   46.7726 H   0  0  0  0  0  0  0  0  0  0  0  0
   61.5601   26.1603   46.9829 H   0  0  0  0  0  0  0  0  0  0  0  0
   61.4413   28.6402   46.7591 H   0  0  0  0  0  0  0  0  0  0  0  0
   60.8900   30.7050   47.4800 H   0  0  0  0  0  0  0  0  0  0  0  0
   61.2814   33.4020   47.4620 H   0  0  0  0  0  0  0  0  0  0  0  0
   60.3875   35.5522   46.4974 H   0  0  0  0  0  0  0  0  0  0  0  0
   58.4080   35.5157   44.9647 H   0  0  0  0  0  0  0  0  0  0  0  0
   57.3082   33.3270   44.3667 H   0  0  0  0  0  0  0  0  0  0  0  0
   57.6375   30.7919   42.5645 H   0  0  0  0  0  0  0  0  0  0  0  0
   55.2358   29.6258   42.1806 H   0  0  0  0  0  0  0  0  0  0  0  0
   54.3400   28.9540   44.5400 H   0  0  0  0  0  0  0  0  0  0  0  0
   57.1697   28.3765   46.1001 H   0  0  0  0  0  0  0  0  0  0  0  0
  1  2  1  0
  2  3  1  0
  2  4  1  0
  2  5  1  0
  5  6  2  0
  6  7  1  0
  7  8  2  0
  8  9  1  0
  9 10  1  0
 10 11  1  0
 11 12  1  0
 12 13  2  0
 13 14  1  0
 14 15  2  0
 15 16  1  0
 16 17  2  0
 17 18  1  0
 18 19  1  0
 19 20  2  0
 20 21  1  0
 21 22  2  0
 22 23  1  0
  9 24  2  0
 24  5  1  0
 18 10  2  0
 23 19  1  0
 17 12  1  0
  6 25  1  0
  7 26  1  0
  8 27  1  0
 11 28  1  0
 13 29  1  0
 14 30  1  0
 15 31  1  0
 16 32  1  0
 20 33  1  0
 21 34  1  0
 22 35  1  0
 24 36  1  0
M  CHG  1  22   1
M  END
>  <UniqueID>  (6) 
6

>  <SMILES>  (6) 
FC(F)(F)c1cccc(-c2[nH]c3ccccc3c2-c2cc[nH+]o2)c1

>  <Energy>  (6) 
111.49058106409188

>  <Genealogy>  (6) 
FC(F)(F)c1cccc(-c2[nH]c3ccccc3c2-c2cc[nH+]o2)c1 (protonated)
FC(F)(F)c1cccc(-c2[nH]c3ccccc3c2-c2cc[nH+]o2)c1 (3D coordinates assigned)
FC(F)(F)c1cccc(-c2[nH]c3ccccc3c2-c2cc[nH+]o2)c1 (optimized conformer: 111.49058106409188 kcal/mol)

>  <smiles>  (6) 
FC(F)(F)c1cccc(-c2[nH]c3ccccc3c2-c2ccno2)c1

>  <score_type>  (6) 
oracle

>  <origin>  (6) 
adg

>  <m_score__min__energy>  (6) 
-7.0999999999999996

>  <m_primary>  (6) 
energy

$$$$
6:0
     RDKit          3D

 34 35  0  0  0  0  0  0  0  0999 V2000
   56.7730   30.8420   52.3730 C   0  0  0  0  0  0  0  0  0  0  0  0
   57.6550   30.8100   51.1680 C   0  0  0  0  0  0  0  0  0  0  0  0
   58.2410   29.7360   50.8600 O   0  0  0  0  0  0  0  0  0  0  0  0
   57.7530   31.9660   50.3230 N   0  0  0  0  0  0  0  0  0  0  0  0
   58.7000   32.1010   49.2500 C   0  0  0  0  0  0  0  0  0  0  0  0
   59.5220   33.2380   49.1960 C   0  0  0  0  0  0  0  0  0  0  0  0
   60.4630   33.3820   48.1740 C   0  0  0  0  0  0  0  0  0  0  0  0
   60.5980   32.3890   47.1990 C   0  0  0  0  0  0  0  0  0  0  0  0
   59.7930   31.2450   47.2460 C   0  0  0  0  0  0  0  0  0  0  0  0
   59.9680   29.9500   46.0140 S   0  0  0  0  0  0  0  0  0  0  0  0
   58.2530   30.0510   45.4890 C   0  0  0  0  0  0  0  0  0  0  0  0
   57.1600   28.7950   45.5430 S   0  0  0  0  0  0  0  0  0  0  0  0
   55.8660   29.5840   44.8750 N   0  0  0  0  0  0  0  0  0  0  0  0
   56.2550   30.8210   44.5800 N   0  0  0  0  0  0  0  0  0  0  0  0
   57.5550   31.1180   44.8980 C   0  0  0  0  0  0  0  0  0  0  0  0
   58.1450   32.4500   44.4930 C   0  0  0  0  0  0  0  0  0  0  0  0
   57.4610   33.6050   45.2310 C   0  0  0  0  0  0  0  0  0  0  0  0
   58.1270   32.6670   42.9770 C   0  0  0  0  0  0  0  0  0  0  0  0
   58.8620   31.0940   48.2820 C   0  0  0  0  0  0  0  0  0  0  0  0
   57.3926   30.8195   53.2816 H   0  0  0  0  0  0  0  0  0  0  0  0
   56.1710   31.7626   52.3624 H   0  0  0  0  0  0  0  0  0  0  0  0
   56.1059   29.9675   52.3624 H   0  0  0  0  0  0  0  0  0  0  0  0
   57.0350   32.7170   50.4430 H   0  0  0  0  0  0  0  0  0  0  0  0
   59.4243   34.0201   49.9633 H   0  0  0  0  0  0  0  0  0  0  0  0
   61.0992   34.2785   48.1361 H   0  0  0  0  0  0  0  0  0  0  0  0
   61.3380   32.5070   46.3937 H   0  0  0  0  0  0  0  0  0  0  0  0
   59.2032   32.4316   44.7926 H   0  0  0  0  0  0  0  0  0  0  0  0
   57.5519   33.4516   46.3164 H   0  0  0  0  0  0  0  0  0  0  0  0
   57.9428   34.5541   44.9533 H   0  0  0  0  0  0  0  0  0  0  0  0
   56.3972   33.6388   44.9533 H   0  0  0  0  0  0  0  0  0  0  0  0
   58.0378   33.7420   42.7615 H   0  0  0  0  0  0  0  0  0  0  0  0
   59.0602   32.2817   42.5403 H   0  0  0  0  0  0  0  0  0  0  0  0
   57.2701   32.1332   42.5403 H   0  0  0  0  0  0  0  0  0  0  0  0
   58.2526   30.1800   48.3387 H   0  0  0  0  0  0  0  0  0  0  0  0
  1  2  1  0
  2  3  2  0
  2  4  1  0
  4  5  1  0
  5  6  2  0
  6  7  1  0
  7  8  2  0
  8  9  1  0
  9 10  1  0
 10 11  1  0
 11 12  1  0
 12 13  1  0
 13 14  2  0
 14 15  1  0
 15 16  1  0
 16 17  1  0
 16 18  1  0
  9 19  2  0
 19  5  1  0
 15 11  2  0
  1 20  1  0
  1 21  1  0
  1 22  1  0
  4 23  1  0
  6 24  1  0
  7 25  1  0
  8 26  1  0
 16 27  1  0
 17 28  1  0
 17 29  1  0
 17 30  1  0
 18 31  1  0
 18 32  1  0
 18 33  1  0
 19 34  1  0
M  END
>  <UniqueID>  (7) 
7

>  <SMILES>  (7) 
CC(=O)Nc1cccc(Sc2snnc2C(C)C)c1

>  <Energy>  (7) 
66.79689411993255

>  <Genealogy>  (7) 
CC(=O)Nc1cccc(Sc2snnc2C(C)C)c1 (3D coordinates assigned)
CC(=O)Nc1cccc(Sc2snnc2C(C)C)c1 (optimized conformer: 66.79689411993255 kcal/mol)

>  <smiles>  (7) 
CC(=O)Nc1cccc(Sc2snnc2C(C)C)c1

>  <score_type>  (7) 
oracle

>  <origin>  (7) 
adg

>  <m_score__min__energy>  (7) 
-8

>  <m_primary>  (7) 
energy

$$$$
7:0
     RDKit          3D

 26 27  0  0  0  0  0  0  0  0999 V2000
   57.6410   31.1790   43.2210 C   0  0  0  0  0  0  0  0  0  0  0  0
   57.7630   32.0290   44.4590 C   0  0  0  0  0  0  0  0  0  0  0  0
   57.4170   33.3900   44.4010 C   0  0  0  0  0  0  0  0  0  0  0  0
   57.5190   34.1950   45.5380 C   0  0  0  0  0  0  0  0  0  0  0  0
   57.9720   33.6550   46.7420 C   0  0  0  0  0  0  0  0  0  0  0  0
   58.3320   32.3070   46.8130 C   0  0  0  0  0  0  0  0  0  0  0  0
   58.2430   31.4880   45.6760 C   0  0  0  0  0  0  0  0  0  0  0  0
   58.6460   30.0710   45.7850 C   0  0  0  0  0  0  0  0  0  0  0  0
   59.9920   29.7740   46.0340 C   0  0  0  0  0  0  0  0  0  0  0  0
   60.3920   28.4480   46.1710 C   0  0  0  0  0  0  0  0  0  0  0  0
   59.4510   27.4280   46.0590 C   0  0  0  0  0  0  0  0  0  0  0  0
   58.1160   27.7490   45.7990 C   0  0  0  0  0  0  0  0  0  0  0  0
   56.8410   26.3280   45.6350 Br  0  0  0  0  0  0  0  0  0  0  0  0
   57.7300   29.0530   45.6600 N   0  0  0  0  0  0  0  0  0  0  0  0
   56.4030   29.3120   45.3700 O   0  0  0  0  0  0  0  0  0  0  0  0
   57.4902   30.1286   43.5108 H   0  0  0  0  0  0  0  0  0  0  0  0
   56.7828   31.5215   42.6242 H   0  0  0  0  0  0  0  0  0  0  0  0
   58.5609   31.2663   42.6242 H   0  0  0  0  0  0  0  0  0  0  0  0
   57.0636   33.8241   43.4541 H   0  0  0  0  0  0  0  0  0  0  0  0
   57.2413   35.2580   45.4839 H   0  0  0  0  0  0  0  0  0  0  0  0
   58.0458   34.2913   47.6363 H   0  0  0  0  0  0  0  0  0  0  0  0
   58.6871   31.8850   47.7647 H   0  0  0  0  0  0  0  0  0  0  0  0
   60.7297   30.5853   46.1209 H   0  0  0  0  0  0  0  0  0  0  0  0
   61.4472   28.2069   46.3670 H   0  0  0  0  0  0  0  0  0  0  0  0
   59.7561   26.3775   46.1743 H   0  0  0  0  0  0  0  0  0  0  0  0
   55.7640   29.7190   46.0420 H   0  0  0  0  0  0  0  0  0  0  0  0
  1  2  1  0
  2  3  2  0
  3  4  1  0
  4  5  2  0
  5  6  1  0
  6  7  2  0
  7  8  1  0
  8  9  2  0
  9 10  1  0
 10 11  2  0
 11 12  1  0
 12 13  1  0
 12 14  2  0
 14 15  1  0
  7  2  1  0
 14  8  1  0
  1 16  1  0
  1 17  1  0
  1 18  1  0
  3 19  1  0
  4 20  1  0
  5 21  1  0
  6 22  1  0
  9 23  1  0
 10 24  1  0
 11 25  1  0
 15 26  1  0
M  CHG  1  14   1
M  END
>  <UniqueID>  (8) 
8

>  <SMILES>  (8) 
Cc1ccccc1-c1cccc(Br)[n+]1O

>  <Energy>  (8) 
36.21783322748233

>  <Genealogy>  (8) 
Cc1ccccc1-c1cccc(Br)[n+]1O (protonated)
Cc1ccccc1-c1cccc(Br)[n+]1O (3D coordinates assigned)
Cc1ccccc1-c1cccc(Br)[n+]1O (optimized conformer: 36.21783322748233 kcal/mol)

>  <smiles>  (8) 
Cc1ccccc1-c1cccc(Br)[n+]1[O-]

>  <score_type>  (8) 
oracle

>  <origin>  (8) 
adg

>  <m_score__min__energy>  (8) 
-5.4100000000000001

>  <m_primary>  (8) 
energy

$$$$
8:0
     RDKit          3D

 39 42  0  0  0  0  0  0  0  0999 V2000
   60.3890   34.9560   46.3730 C   0  0  0  0  0  0  0  0  0  0  0  0
   59.1080   34.5920   47.0120 N   0  0  2  0  0  0  0  0  0  0  0  0
   59.3060   33.5720   48.0690 C   0  0  0  0  0  0  0  0  0  0  0  0
   59.6680   32.1770   47.5120 C   0  0  0  0  0  0  0  0  0  0  0  0
   58.9910   31.8610   46.1540 C   0  0  1  0  0  0  0  0  0  0  0  0
   58.7040   30.3760   45.9650 C   0  0  0  0  0  0  0  0  0  0  0  0
   59.6390   29.4010   46.3590 C   0  0  0  0  0  0  0  0  0  0  0  0
   59.3760   28.0370   46.1570 C   0  0  0  0  0  0  0  0  0  0  0  0
   60.2960   27.0620   46.5750 C   0  0  0  0  0  0  0  0  0  0  0  0
   60.0220   25.7070   46.3720 C   0  0  0  0  0  0  0  0  0  0  0  0
   58.8350   25.3150   45.7510 C   0  0  0  0  0  0  0  0  0  0  0  0
   57.9120   26.2750   45.3280 C   0  0  0  0  0  0  0  0  0  0  0  0
   58.1750   27.6400   45.5250 C   0  0  0  0  0  0  0  0  0  0  0  0
   57.2650   28.6120   45.0900 C   0  0  0  0  0  0  0  0  0  0  0  0
   57.5350   29.9700   45.2820 C   0  0  0  0  0  0  0  0  0  0  0  0
   56.6310   30.9200   44.7940 O   0  0  0  0  0  0  0  0  0  0  0  0
   56.9480   32.3080   44.7410 C   0  0  0  0  0  0  0  0  0  0  0  0
   57.7120   32.7100   46.0090 C   0  0  2  0  0  0  0  0  0  0  0  0
   58.0680   34.2170   46.0070 C   0  0  0  0  0  0  0  0  0  0  0  0
   61.1386   35.1690   47.1494 H   0  0  0  0  0  0  0  0  0  0  0  0
   60.7367   34.1211   45.7469 H   0  0  0  0  0  0  0  0  0  0  0  0
   60.2457   35.8490   45.7469 H   0  0  0  0  0  0  0  0  0  0  0  0
   58.7740   35.4590   47.4970 H   0  0  0  0  0  0  0  0  0  0  0  0
   60.1201   33.9065   48.7289 H   0  0  0  0  0  0  0  0  0  0  0  0
   58.3518   33.4705   48.6067 H   0  0  0  0  0  0  0  0  0  0  0  0
   60.7586   32.1276   47.3776 H   0  0  0  0  0  0  0  0  0  0  0  0
   59.3040   31.4338   48.2367 H   0  0  0  0  0  0  0  0  0  0  0  0
   59.6972   32.1282   45.3540 H   0  0  0  0  0  0  0  0  0  0  0  0
   60.5841   29.7103   46.8293 H   0  0  0  0  0  0  0  0  0  0  0  0
   61.2339   27.3654   47.0631 H   0  0  0  0  0  0  0  0  0  0  0  0
   60.7444   24.9463   46.7028 H   0  0  0  0  0  0  0  0  0  0  0  0
   58.6254   24.2466   45.5941 H   0  0  0  0  0  0  0  0  0  0  0  0
   56.9777   25.9607   44.8398 H   0  0  0  0  0  0  0  0  0  0  0  0
   56.3323   28.3048   44.5943 H   0  0  0  0  0  0  0  0  0  0  0  0
   57.5732   32.5073   43.8582 H   0  0  0  0  0  0  0  0  0  0  0  0
   56.0187   32.8927   44.6736 H   0  0  0  0  0  0  0  0  0  0  0  0
   57.0536   32.5217   46.8698 H   0  0  0  0  0  0  0  0  0  0  0  0
   58.4398   34.4842   45.0068 H   0  0  0  0  0  0  0  0  0  0  0  0
   57.1516   34.7631   46.2751 H   0  0  0  0  0  0  0  0  0  0  0  0
  1  2  1  0
  2  3  1  0
  3  4  1  0
  4  5  1  0
  5  6  1  0
  6  7  2  0
  7  8  1  0
  8  9  2  0
  9 10  1  0
 10 11  2  0
 11 12  1  0
 12 13  2  0
 13 14  1  0
 14 15  2  0
 15 16  1  0
 16 17  1  0
 17 18  1  0
 18 19  1  0
 19  2  1  0
 18  5  1  0
 15  6  1  0
 13  8  1  0
  1 20  1  0
  1 21  1  0
  1 22  1  0
  2 23  1  1
  3 24  1  0
  3 25  1  0
  4 26  1  0
  4 27  1  0
  5 28  1  6
  7 29  1  0
  9 30  1  0
 10 31  1  0
 11 32  1  0
 12 33  1  0
 14 34  1  0
 17 35  1  0
 17 36  1  0
 18 37  1  1
 19 38  1  0
 19 39  1  0
M  CHG  1   2   1
M  END
>  <UniqueID>  (9) 
9

>  <SMILES>  (9) 
C[N@@H+]1CC[C@H]2c3cc4ccccc4cc3OCC2C1

>  <Energy>  (9) 
57.832203876237216

>  <Genealogy>  (9) 
C[NH+]1CCC2c3cc4ccccc4cc3OCC2C1 (protonated)
C[N@@H+]1CC[C@H]2c3cc4ccccc4cc3OCC2C1 (chirality)
C[N@@H+]1CC[C@H]2c3cc4ccccc4cc3OCC2C1 (3D coordinates assigned)
C[N@@H+]1CC[C@H]2c3cc4ccccc4cc3OCC2C1 (nonaromatic ring conformer: 57.832203876237216 kcal/mol)

>  <smiles>  (9) 
CN1CCC2c3cc4ccccc4cc3OCC2C1

>  <score_type>  (9) 
oracle

>  <origin>  (9) 
adg

>  <m_score__min__energy>  (9) 
-5.7999999999999998

>  <m_primary>  (9) 
energy

$$$$
9:0
     RDKit          3D

 38 39  0  0  0  0  0  0  0  0999 V2000
   54.7150   24.9410   45.6070 C   0  0  0  0  0  0  0  0  0  0  0  0
   55.0660   26.2760   45.9600 O   0  0  0  0  0  0  0  0  0  0  0  0
   56.3800   26.7700   45.9950 C   0  0  0  0  0  0  0  0  0  0  0  0
   57.4450   26.0210   46.5270 C   0  0  0  0  0  0  0  0  0  0  0  0
   58.7390   26.5450   46.5430 C   0  0  0  0  0  0  0  0  0  0  0  0
   58.9930   27.8190   46.0200 C   0  0  0  0  0  0  0  0  0  0  0  0
   60.3830   28.4000   46.0760 C   0  0  0  0  0  0  0  0  0  0  0  0
   60.3740   29.7980   45.6200 N   0  0  0  0  0  0  0  0  0  0  0  0
   59.9780   30.6980   46.7130 C   0  0  0  0  0  0  0  0  0  0  0  0
   59.0160   31.7440   46.2120 C   0  0  0  0  0  0  0  0  0  0  0  0
   58.5120   31.6770   44.9050 C   0  0  0  0  0  0  0  0  0  0  0  0
   57.6510   32.6770   44.4490 C   0  0  0  0  0  0  0  0  0  0  0  0
   57.3130   33.7120   45.2630 N   0  0  0  0  0  0  0  0  0  0  0  0
   57.7990   33.8090   46.5290 C   0  0  0  0  0  0  0  0  0  0  0  0
   58.6630   32.8300   47.0260 C   0  0  0  0  0  0  0  0  0  0  0  0
   57.9310   28.5760   45.5040 C   0  0  0  0  0  0  0  0  0  0  0  0
   56.6220   28.0550   45.4840 C   0  0  0  0  0  0  0  0  0  0  0  0
   55.5390   28.7820   44.9670 O   0  0  0  0  0  0  0  0  0  0  0  0
   55.6310   29.7180   43.8970 C   0  0  0  0  0  0  0  0  0  0  0  0
   54.5593   24.3489   46.5209 H   0  0  0  0  0  0  0  0  0  0  0  0
   53.7887   24.9501   45.0138 H   0  0  0  0  0  0  0  0  0  0  0  0
   55.5260   24.4933   45.0138 H   0  0  0  0  0  0  0  0  0  0  0  0
   57.2572   25.0161   46.9330 H   0  0  0  0  0  0  0  0  0  0  0  0
   59.5633   25.9540   46.9687 H   0  0  0  0  0  0  0  0  0  0  0  0
   60.7513   28.3591   47.1117 H   0  0  0  0  0  0  0  0  0  0  0  0
   61.0409   27.8144   45.4170 H   0  0  0  0  0  0  0  0  0  0  0  0
   59.6950   29.8980   44.8280 H   0  0  0  0  0  0  0  0  0  0  0  0
   61.3340   30.0590   45.2890 H   0  0  0  0  0  0  0  0  0  0  0  0
   59.4937   30.1115   47.5076 H   0  0  0  0  0  0  0  0  0  0  0  0
   60.8757   31.1984   47.1051 H   0  0  0  0  0  0  0  0  0  0  0  0
   58.7928   30.8434   44.2445 H   0  0  0  0  0  0  0  0  0  0  0  0
   57.2449   32.6272   43.4279 H   0  0  0  0  0  0  0  0  0  0  0  0
   57.5113   34.6603   47.1635 H   0  0  0  0  0  0  0  0  0  0  0  0
   59.0631   32.9104   48.0475 H   0  0  0  0  0  0  0  0  0  0  0  0
   58.1218   29.5857   45.1113 H   0  0  0  0  0  0  0  0  0  0  0  0
   55.7309   30.7341   44.3063 H   0  0  0  0  0  0  0  0  0  0  0  0
   56.5104   29.4835   43.2793 H   0  0  0  0  0  0  0  0  0  0  0  0
   54.7227   29.6592   43.2793 H   0  0  0  0  0  0  0  0  0  0  0  0
  1  2  1  0
  2  3  1  0
  3  4  2  0
  4  5  1  0
  5  6  2  0
  6  7  1  0
  7  8  1  0
  8  9  1  0
  9 10  1  0
 10 11  2  0
 11 12  1  0
 12 13  2  0
 13 14  1  0
 14 15  2  0
  6 16  1  0
 16 17  2  0
 17 18  1  0
 18 19  1  0
 17  3  1  0
 15 10  1  0
  1 20  1  0
  1 21  1  0
  1 22  1  0
  4 23  1  0
  5 24  1  0
  7 25  1  0
  7 26  1  0
  8 27  1  0
  8 28  1  0
  9 29  1  0
  9 30  1  0
 11 31  1  0
 12 32  1  0
 14 33  1  0
 15 34  1  0
 16 35  1  0
 19 36  1  0
 19 37  1  0
 19 38  1  0
M  CHG  1   8   1
M  END
>  <UniqueID>  (10) 
10

>  <SMILES>  (10) 
COc1ccc(C[NH2+]Cc2ccncc2)cc1OC

>  <Energy>  (10) 
35.88071913173399

>  <Genealogy>  (10) 
COc1ccc(C[NH2+]Cc2ccncc2)cc1OC (protonated)
COc1ccc(C[NH2+]Cc2ccncc2)cc1OC (3D coordinates assigned)
COc1ccc(C[NH2+]Cc2ccncc2)cc1OC (optimized conformer: 35.88071913173399 kcal/mol)

>  <smiles>  (10) 
COc1ccc(CNCc2ccncc2)cc1OC

>  <score_type>  (10) 
oracle

>  <origin>  (10) 
adg

>  <m_score__min__energy>  (10) 
-5.2000000000000002

>  <m_primary>  (10) 
energy

$$$$
10:0
     RDKit          3D

 29 30  0  0  0  0  0  0  0  0999 V2000
   66.8110   32.6800   50.5940 C   0  0  0  0  0  0  0  0  0  0  0  0
   65.3290   32.9980   50.4130 C   0  0  0  0  0  0  0  0  0  0  0  0
   64.9920   33.1000   48.9930 N   0  0  0  0  0  0  0  0  0  0  0  0
   63.6600   33.2570   48.4720 C   0  0  0  0  0  0  0  0  0  0  0  0
   62.5300   33.2970   49.3000 C   0  0  0  0  0  0  0  0  0  0  0  0
   61.2720   33.4570   48.7270 C   0  0  0  0  0  0  0  0  0  0  0  0
   61.1520   33.5810   47.3370 C   0  0  0  0  0  0  0  0  0  0  0  0
   59.8230   33.7600   46.7020 C   0  0  0  0  0  0  0  0  0  0  0  0
   59.7010   34.4190   45.4630 C   0  0  0  0  0  0  0  0  0  0  0  0
   58.4450   34.5870   44.8720 C   0  0  0  0  0  0  0  0  0  0  0  0
   57.3000   34.1000   45.5060 C   0  0  0  0  0  0  0  0  0  0  0  0
   57.4080   33.4450   46.7350 C   0  0  0  0  0  0  0  0  0  0  0  0
   58.6620   33.2750   47.3320 C   0  0  0  0  0  0  0  0  0  0  0  0
   62.2850   33.5430   46.5770 N   0  0  0  0  0  0  0  0  0  0  0  0
   63.4900   33.3850   47.1290 N   0  0  0  0  0  0  0  0  0  0  0  0
   67.0467   32.6294   51.6673 H   0  0  0  0  0  0  0  0  0  0  0  0
   67.0387   31.7126   50.1226 H   0  0  0  0  0  0  0  0  0  0  0  0
   67.4155   33.4689   50.1226 H   0  0  0  0  0  0  0  0  0  0  0  0
   64.7293   32.1970   50.8699 H   0  0  0  0  0  0  0  0  0  0  0  0
   65.1120   33.9611   50.8982 H   0  0  0  0  0  0  0  0  0  0  0  0
   65.7810   33.0730   48.3080 H   0  0  0  0  0  0  0  0  0  0  0  0
   62.6363   33.2030   50.3908 H   0  0  0  0  0  0  0  0  0  0  0  0
   60.3752   33.4860   49.3633 H   0  0  0  0  0  0  0  0  0  0  0  0
   60.5990   34.8037   44.9575 H   0  0  0  0  0  0  0  0  0  0  0  0
   58.3586   35.1042   43.9050 H   0  0  0  0  0  0  0  0  0  0  0  0
   56.3134   34.2321   45.0378 H   0  0  0  0  0  0  0  0  0  0  0  0
   56.5057   33.0622   47.2343 H   0  0  0  0  0  0  0  0  0  0  0  0
   58.7408   32.7588   48.3002 H   0  0  0  0  0  0  0  0  0  0  0  0
   62.2260   33.6140   45.5380 H   0  0  0  0  0  0  0  0  0  0  0  0
  1  2  1  0
  2  3  1  0
  3  4  1  0
  4  5  2  0
  5  6  1  0
  6  7  2  0
  7  8  1  0
  8  9  2  0
  9 10  1  0
 10 11  2  0
 11 12  1  0
 12 13  2  0
  7 14  1  0
 14 15  2  0
 15  4  1  0
 13  8  1  0
  1 16  1  0
  1 17  1  0
  1 18  1  0
  2 19  1  0
  2 20  1  0
  3 21  1  0
  5 22  1  0
  6 23  1  0
  9 24  1  0
 10 25  1  0
 11 26  1  0
 12 27  1  0
 13 28  1  0
 14 29  1  0
M  CHG  1  14   1
M  END
>  <UniqueID>  (11) 
11

>  <SMILES>  (11) 
CCNc1ccc(-c2ccccc2)[nH+]n1

>  <Energy>  (11) 
31.46539460622325

>  <Genealogy>  (11) 
CCNc1ccc(-c2ccccc2)[nH+]n1 (protonated)
CCNc1ccc(-c2ccccc2)[nH+]n1 (3D coordinates assigned)
CCNc1ccc(-c2ccccc2)[nH+]n1 (optimized conformer: 31.46539460622325 kcal/mol)

>  <smiles>  (11) 
CCNc1ccc(-c2ccccc2)nn1

>  <score_type>  (11) 
oracle

>  <origin>  (11) 
adg

>  <m_score__min__energy>  (11) 
-4.5800000000000001

>  <m_primary>  (11) 
energy

$$$$
11:0
     RDKit          3D

 45 47  0  0  0  0  0  0  0  0999 V2000
   57.4300   27.8530   45.1570 C   0  0  0  0  0  0  0  0  0  0  0  0
   57.2360   29.2910   44.9980 N   0  0  0  0  0  0  0  0  0  0  0  0
   56.1560   29.9440   44.5010 C   0  0  0  0  0  0  0  0  0  0  0  0
   55.1420   29.3630   44.0300 O   0  0  0  0  0  0  0  0  0  0  0  0
   56.2720   31.2600   44.5660 O   0  0  0  0  0  0  0  0  0  0  0  0
   57.4370   31.4840   45.1260 C   0  0  0  0  0  0  0  0  0  0  0  0
   58.0360   32.7020   45.4290 C   0  0  0  0  0  0  0  0  0  0  0  0
   59.3030   32.6750   46.0510 C   0  0  0  0  0  0  0  0  0  0  0  0
   60.1330   34.1810   46.4360 S   0  0  0  0  0  0  0  0  0  0  0  0
   59.5620   35.2870   45.5950 O   0  0  0  0  0  0  0  0  0  0  0  0
   61.5990   34.0550   46.1250 O   0  0  0  0  0  0  0  0  0  0  0  0
   59.9240   34.5740   48.1160 N   0  0  0  0  0  0  0  0  0  0  0  0
   59.2620   33.4690   48.8040 C   0  0  0  0  0  0  0  0  0  0  0  0
   60.2620   32.7810   49.7380 C   0  0  0  0  0  0  0  0  0  0  0  0
   61.5820   32.3900   49.0390 C   0  0  0  0  0  0  0  0  0  0  0  0
   62.4500   33.5370   48.6490 N   0  0  0  0  0  0  0  0  0  0  0  0
   62.6440   34.5290   49.7310 C   0  0  0  0  0  0  0  0  0  0  0  0
   63.4840   33.9540   50.8950 C   0  0  0  0  0  0  0  0  0  0  0  0
   64.2310   32.8040   50.5330 O   0  0  0  0  0  0  0  0  0  0  0  0
   64.8350   32.9910   49.2710 C   0  0  0  0  0  0  0  0  0  0  0  0
   63.7690   33.0620   48.1550 C   0  0  0  0  0  0  0  0  0  0  0  0
   59.9260   31.4350   46.3400 C   0  0  0  0  0  0  0  0  0  0  0  0
   59.2910   30.2210   46.0190 C   0  0  0  0  0  0  0  0  0  0  0  0
   58.0410   30.2890   45.4050 C   0  0  0  0  0  0  0  0  0  0  0  0
   57.4636   27.6037   46.2279 H   0  0  0  0  0  0  0  0  0  0  0  0
   56.5962   27.3157   44.6815 H   0  0  0  0  0  0  0  0  0  0  0  0
   58.3764   27.5559   44.6815 H   0  0  0  0  0  0  0  0  0  0  0  0
   57.5392   33.6544   45.1920 H   0  0  0  0  0  0  0  0  0  0  0  0
   58.4167   33.8561   49.3919 H   0  0  0  0  0  0  0  0  0  0  0  0
   58.8908   32.7444   48.0643 H   0  0  0  0  0  0  0  0  0  0  0  0
   60.4952   33.4668   50.5658 H   0  0  0  0  0  0  0  0  0  0  0  0
   59.7920   31.8508   50.0899 H   0  0  0  0  0  0  0  0  0  0  0  0
   62.1536   31.7465   49.7240 H   0  0  0  0  0  0  0  0  0  0  0  0
   61.2978   31.8865   48.1032 H   0  0  0  0  0  0  0  0  0  0  0  0
   61.9880   34.0260   47.8470 H   0  0  0  0  0  0  0  0  0  0  0  0
   63.1613   35.4081   49.3192 H   0  0  0  0  0  0  0  0  0  0  0  0
   61.6542   34.8011   50.1262 H   0  0  0  0  0  0  0  0  0  0  0  0
   64.1832   34.7308   51.2380 H   0  0  0  0  0  0  0  0  0  0  0  0
   62.7813   33.6507   51.6851 H   0  0  0  0  0  0  0  0  0  0  0  0
   65.4084   33.9297   49.2816 H   0  0  0  0  0  0  0  0  0  0  0  0
   65.4990   32.1376   49.0691 H   0  0  0  0  0  0  0  0  0  0  0  0
   64.1219   33.7528   47.3751 H   0  0  0  0  0  0  0  0  0  0  0  0
   63.6295   32.0432   47.7644 H   0  0  0  0  0  0  0  0  0  0  0  0
   60.9157   31.4216   46.8200 H   0  0  0  0  0  0  0  0  0  0  0  0
   59.7636   29.2536   46.2443 H   0  0  0  0  0  0  0  0  0  0  0  0
  1  2  1  0
  2  3  1  0
  3  4  2  0
  3  5  1  0
  5  6  1  0
  6  7  2  0
  7  8  1  0
  8  9  1  0
  9 10  2  0
  9 11  2  0
  9 12  1  0
 12 13  1  0
 13 14  1  0
 14 15  1  0
 15 16  1  0
 16 17  1  0
 17 18  1  0
 18 19  1  0
 19 20  1  0
 20 21  1  0
  8 22  2  0
 22 23  1  0
 23 24  2  0
 24  2  1  0
 24  6  1  0
 21 16  1  0
  1 25  1  0
  1 26  1  0
  1 27  1  0
  7 28  1  0
 13 29  1  0
 13 30  1  0
 14 31  1  0
 14 32  1  0
 15 33  1  0
 15 34  1  0
 16 35  1  0
 17 36  1  0
 17 37  1  0
 18 38  1  0
 18 39  1  0
 20 40  1  0
 20 41  1  0
 21 42  1  0
 21 43  1  0
 22 44  1  0
 23 45  1  0
M  CHG  2  12  -1  16   1
M  END
>  <UniqueID>  (12) 
12

>  <SMILES>  (12) 
Cn1c(=O)oc2cc(S(=O)(=O)[N-]CCC[NH+]3CCOCC3)ccc21

>  <Energy>  (12) 
96.35078555235442

>  <Genealogy>  (12) 
Cn1c(=O)oc2cc(S(=O)(=O)[N-]CCC[NH+]3CCOCC3)ccc21 (protonated)
Cn1c(=O)oc2cc(S(=O)(=O)[N-]CCC[NH+]3CCOCC3)ccc21 (3D coordinates assigned)
Cn1c(=O)oc2cc(S(=O)(=O)[N-]CCC[NH+]3CCOCC3)ccc21 (nonaromatic ring conformer: 96.35078555235442 kcal/mol)

>  <smiles>  (12) 
Cn1c(=O)oc2cc(S(=O)(=O)NCCCN3CCOCC3)ccc21

>  <score_type>  (12) 
oracle

>  <origin>  (12) 
adg

>  <m_score__min__energy>  (12) 
-7.0599999999999996

>  <m_primary>  (12) 
energy

$$$$
12:0
     RDKit          3D

 41 44  0  0  0  0  0  0  0  0999 V2000
   56.2690   21.6660   42.5120 C   0  0  0  0  0  0  0  0  0  0  0  0
   56.6600   22.8630   43.3120 C   0  0  0  0  0  0  0  0  0  0  0  0
   55.9770   23.9900   43.3730 O   0  0  0  0  0  0  0  0  0  0  0  0
   56.5740   24.8570   44.1460 N   0  0  0  0  0  0  0  0  0  0  0  0
   57.6950   24.2740   44.6100 C   0  0  0  0  0  0  0  0  0  0  0  0
   58.6760   24.7970   45.4630 C   0  0  0  0  0  0  0  0  0  0  0  0
   58.6400   26.2220   45.9500 C   0  0  0  0  0  0  0  0  0  0  0  0
   58.0610   27.0880   44.9190 N   0  0  0  0  0  0  0  0  0  0  0  0
   58.6060   27.0800   43.5600 C   0  0  0  0  0  0  0  0  0  0  0  0
   56.9750   27.9630   45.2560 C   0  0  0  0  0  0  0  0  0  0  0  0
   55.8690   27.4720   45.6060 O   0  0  0  0  0  0  0  0  0  0  0  0
   57.1490   29.4240   45.2400 C   0  0  0  0  0  0  0  0  0  0  0  0
   56.4420   30.3310   44.4560 C   0  0  0  0  0  0  0  0  0  0  0  0
   56.8320   31.6260   44.5930 N   0  0  0  0  0  0  0  0  0  0  0  0
   57.8490   31.7610   45.4750 C   0  0  0  0  0  0  0  0  0  0  0  0
   58.4660   33.0510   45.8060 C   0  0  0  0  0  0  0  0  0  0  0  0
   58.5520   33.6090   47.0760 C   0  0  0  0  0  0  0  0  0  0  0  0
   59.1940   34.8540   47.0910 C   0  0  0  0  0  0  0  0  0  0  0  0
   59.6120   35.2800   45.8360 C   0  0  0  0  0  0  0  0  0  0  0  0
   59.1840   34.1060   44.7100 S   0  0  0  0  0  0  0  0  0  0  0  0
   58.3080   30.2730   46.1150 S   0  0  0  0  0  0  0  0  0  0  0  0
   59.7720   23.9570   45.7700 C   0  0  0  0  0  0  0  0  0  0  0  0
   59.8520   22.6480   45.2440 C   0  0  0  0  0  0  0  0  0  0  0  0
   58.8440   22.1580   44.3940 C   0  0  0  0  0  0  0  0  0  0  0  0
   57.7810   23.0080   44.1010 C   0  0  0  0  0  0  0  0  0  0  0  0
   56.0002   20.8432   43.1908 H   0  0  0  0  0  0  0  0  0  0  0  0
   55.4055   21.9150   41.8777 H   0  0  0  0  0  0  0  0  0  0  0  0
   57.1130   21.3572   41.8777 H   0  0  0  0  0  0  0  0  0  0  0  0
   56.2190   25.8160   44.3520 H   0  0  0  0  0  0  0  0  0  0  0  0
   58.0270   26.2804   46.8615 H   0  0  0  0  0  0  0  0  0  0  0  0
   59.6651   26.5556   46.1687 H   0  0  0  0  0  0  0  0  0  0  0  0
   59.7049   27.0639   43.6057 H   0  0  0  0  0  0  0  0  0  0  0  0
   58.2481   26.1870   43.0267 H   0  0  0  0  0  0  0  0  0  0  0  0
   58.2744   27.9831   43.0267 H   0  0  0  0  0  0  0  0  0  0  0  0
   55.6314   30.0241   43.7788 H   0  0  0  0  0  0  0  0  0  0  0  0
   58.1556   33.1218   47.9790 H   0  0  0  0  0  0  0  0  0  0  0  0
   59.3522   35.4389   48.0091 H   0  0  0  0  0  0  0  0  0  0  0  0
   60.1334   36.2234   45.6166 H   0  0  0  0  0  0  0  0  0  0  0  0
   60.5726   24.3278   46.4269 H   0  0  0  0  0  0  0  0  0  0  0  0
   60.7086   22.0076   45.5010 H   0  0  0  0  0  0  0  0  0  0  0  0
   58.8937   21.1415   43.9765 H   0  0  0  0  0  0  0  0  0  0  0  0
  1  2  1  0
  2  3  1  0
  3  4  1  0
  4  5  2  0
  5  6  1  0
  6  7  1  0
  7  8  1  0
  8  9  1  0
  8 10  1  0
 10 11  2  0
 10 12  1  0
 12 13  2  0
 13 14  1  0
 14 15  2  0
 15 16  1  0
 16 17  2  0
 17 18  1  0
 18 19  2  0
 19 20  1  0
 15 21  1  0
  6 22  2  0
 22 23  1  0
 23 24  2  0
 24 25  1  0
 25  2  2  0
 25  5  1  0
 21 12  1  0
 20 16  1  0
  1 26  1  0
  1 27  1  0
  1 28  1  0
  4 29  1  0
  7 30  1  0
  7 31  1  0
  9 32  1  0
  9 33  1  0
  9 34  1  0
 13 35  1  0
 17 36  1  0
 18 37  1  0
 19 38  1  0
 22 39  1  0
 23 40  1  0
 24 41  1  0
M  CHG  1   4   1
M  END
>  <UniqueID>  (13) 
13

>  <SMILES>  (13) 
Cc1o[nH+]c2c(CN(C)C(=O)c3cnc(-c4cccs4)s3)cccc12

>  <Energy>  (13) 
139.50802489428983

>  <Genealogy>  (13) 
Cc1o[nH+]c2c(CN(C)C(=O)c3cnc(-c4cccs4)s3)cccc12 (protonated)
Cc1o[nH+]c2c(CN(C)C(=O)c3cnc(-c4cccs4)s3)cccc12 (3D coordinates assigned)
Cc1o[nH+]c2c(CN(C)C(=O)c3cnc(-c4cccs4)s3)cccc12 (optimized conformer: 139.50802489428983 kcal/mol)

>  <smiles>  (13) 
Cc1onc2c(CN(C)C(=O)c3cnc(-c4cccs4)s3)cccc12

>  <score_type>  (13) 
oracle

>  <origin>  (13) 
adg

>  <m_score__min__energy>  (13) 
-7.2599999999999998

>  <m_primary>  (13) 
energy

$$$$
13:0
     RDKit          3D

 39 41  0  0  0  0  0  0  0  0999 V2000
   57.0580   24.8120   47.5110 C   0  0  0  0  0  0  0  0  0  0  0  0
   57.4540   26.1080   47.0760 O   0  0  0  0  0  0  0  0  0  0  0  0
   57.7770   26.4420   45.7500 C   0  0  0  0  0  0  0  0  0  0  0  0
   57.4410   25.6000   44.6700 C   0  0  0  0  0  0  0  0  0  0  0  0
   57.7710   25.9640   43.3630 C   0  0  0  0  0  0  0  0  0  0  0  0
   58.4360   27.1650   43.1160 C   0  0  0  0  0  0  0  0  0  0  0  0
   58.7760   28.0080   44.1760 C   0  0  0  0  0  0  0  0  0  0  0  0
   58.4540   27.6530   45.4970 C   0  0  0  0  0  0  0  0  0  0  0  0
   58.8110   28.5830   46.6310 C   0  0  0  0  0  0  0  0  0  0  0  0
   59.1210   29.9240   46.1190 N   0  0  0  0  0  0  0  0  0  0  0  0
   58.6120   30.9730   47.0160 C   0  0  0  0  0  0  0  0  0  0  0  0
   58.6770   32.3380   46.3610 C   0  0  0  0  0  0  0  0  0  0  0  0
   59.2300   33.4290   47.0600 C   0  0  0  0  0  0  0  0  0  0  0  0
   59.3420   34.6770   46.4510 C   0  0  0  0  0  0  0  0  0  0  0  0
   58.8850   34.8430   45.1470 C   0  0  0  0  0  0  0  0  0  0  0  0
   58.3030   33.8040   44.4950 N   0  0  0  0  0  0  0  0  0  0  0  0
   58.1600   32.5710   45.0590 C   0  0  0  0  0  0  0  0  0  0  0  0
   57.4620   31.5560   44.3170 N   0  0  0  0  0  0  0  0  0  0  0  0
   57.4700   31.4020   42.9820 C   0  0  0  0  0  0  0  0  0  0  0  0
   56.6330   30.4180   42.5990 N   0  0  0  0  0  0  0  0  0  0  0  0
   56.1130   30.0050   43.7750 C   0  0  0  0  0  0  0  0  0  0  0  0
   56.5990   30.6960   44.8240 N   0  0  0  0  0  0  0  0  0  0  0  0
   57.0486   24.7813   48.6105 H   0  0  0  0  0  0  0  0  0  0  0  0
   56.0507   24.5890   47.1293 H   0  0  0  0  0  0  0  0  0  0  0  0
   57.7686   24.0641   47.1293 H   0  0  0  0  0  0  0  0  0  0  0  0
   56.9163   24.6517   44.8581 H   0  0  0  0  0  0  0  0  0  0  0  0
   57.5058   25.3017   42.5257 H   0  0  0  0  0  0  0  0  0  0  0  0
   58.6930   27.4485   42.0847 H   0  0  0  0  0  0  0  0  0  0  0  0
   59.2987   28.9550   43.9759 H   0  0  0  0  0  0  0  0  0  0  0  0
   57.9612   28.6487   47.3264 H   0  0  0  0  0  0  0  0  0  0  0  0
   59.6964   28.1872   47.1500 H   0  0  0  0  0  0  0  0  0  0  0  0
   58.6370   30.0320   45.1960 H   0  0  0  0  0  0  0  0  0  0  0  0
   57.5662   30.7483   47.2727 H   0  0  0  0  0  0  0  0  0  0  0  0
   59.2395   30.9915   47.9192 H   0  0  0  0  0  0  0  0  0  0  0  0
   59.5763   33.2944   48.0954 H   0  0  0  0  0  0  0  0  0  0  0  0
   59.7872   35.5228   46.9954 H   0  0  0  0  0  0  0  0  0  0  0  0
   58.9953   35.8155   44.6448 H   0  0  0  0  0  0  0  0  0  0  0  0
   58.0809   32.0017   42.2912 H   0  0  0  0  0  0  0  0  0  0  0  0
   55.3748   29.1946   43.8660 H   0  0  0  0  0  0  0  0  0  0  0  0
  1  2  1  0
  2  3  1  0
  3  4  2  0
  4  5  1  0
  5  6  2  0
  6  7  1  0
  7  8  2  0
  8  9  1  0
  9 10  1  0
 10 11  1  0
 11 12  1  0
 12 13  2  0
 13 14  1  0
 14 15  2  0
 15 16  1  0
 16 17  2  0
 17 18  1  0
 18 19  1  0
 19 20  2  0
 20 21  1  0
 21 22  2  0
  8  3  1  0
 17 12  1  0
 22 18  1  0
  1 23  1  0
  1 24  1  0
  1 25  1  0
  4 26  1  0
  5 27  1  0
  6 28  1  0
  7 29  1  0
  9 30  1  0
  9 31  1  0
 10 32  1  0
 11 33  1  0
 11 34  1  0
 13 35  1  0
 14 36  1  0
 15 37  1  0
 19 38  1  0
 21 39  1  0
M  END
>  <UniqueID>  (14) 
14

>  <SMILES>  (14) 
COc1ccccc1CNCc1cccnc1-n1cncn1

>  <Energy>  (14) 
79.3804545699469

>  <Genealogy>  (14) 
COc1ccccc1CNCc1cccnc1-n1cncn1 (3D coordinates assigned)
COc1ccccc1CNCc1cccnc1-n1cncn1 (optimized conformer: 79.3804545699469 kcal/mol)

>  <smiles>  (14) 
COc1ccccc1CNCc1cccnc1-n1cncn1

>  <score_type>  (14) 
oracle

>  <origin>  (14) 
adg

>  <m_score__min__energy>  (14) 
-6.29

>  <m_primary>  (14) 
energy

$$$$
14:0
     RDKit          3D

 29 30  0  0  0  0  0  0  0  0999 V2000
   56.9820   27.0270   45.8480 Cl  0  0  0  0  0  0  0  0  0  0  0  0
   57.2280   28.6220   45.1630 C   0  0  0  0  0  0  0  0  0  0  0  0
   56.1410   29.3390   44.6500 C   0  0  0  0  0  0  0  0  0  0  0  0
   56.3360   30.6110   44.1030 C   0  0  0  0  0  0  0  0  0  0  0  0
   57.6220   31.1760   44.0620 C   0  0  0  0  0  0  0  0  0  0  0  0
   57.8410   32.5500   43.4670 C   0  0  0  0  0  0  0  0  0  0  0  0
   57.8040   33.6220   44.4940 N   0  0  0  0  0  0  0  0  0  0  0  0
   59.1750   34.1540   44.7050 C   0  0  0  0  0  0  0  0  0  0  0  0
   59.2950   34.9670   45.9960 C   0  0  0  0  0  0  0  0  0  0  0  0
   59.2070   33.8910   47.4770 S   0  0  0  0  0  0  0  0  0  0  0  0
   58.1270   32.5890   46.7770 C   0  0  0  0  0  0  0  0  0  0  0  0
   57.1430   33.1630   45.7510 C   0  0  0  0  0  0  0  0  0  0  0  0
   58.7080   30.4520   44.5820 C   0  0  0  0  0  0  0  0  0  0  0  0
   58.5100   29.1800   45.1290 C   0  0  0  0  0  0  0  0  0  0  0  0
   55.1322   28.9014   44.6772 H   0  0  0  0  0  0  0  0  0  0  0  0
   55.4786   31.1721   43.7029 H   0  0  0  0  0  0  0  0  0  0  0  0
   58.8230   32.5685   42.9718 H   0  0  0  0  0  0  0  0  0  0  0  0
   57.0267   32.7407   42.7524 H   0  0  0  0  0  0  0  0  0  0  0  0
   57.2320   34.4140   44.1160 H   0  0  0  0  0  0  0  0  0  0  0  0
   59.8778   33.3092   44.7533 H   0  0  0  0  0  0  0  0  0  0  0  0
   59.4067   34.8247   43.8645 H   0  0  0  0  0  0  0  0  0  0  0  0
   60.2586   35.4975   45.9962 H   0  0  0  0  0  0  0  0  0  0  0  0
   58.4568   35.6782   46.0355 H   0  0  0  0  0  0  0  0  0  0  0  0
   58.7544   31.8313   46.2848 H   0  0  0  0  0  0  0  0  0  0  0  0
   57.5466   32.1448   47.5991 H   0  0  0  0  0  0  0  0  0  0  0  0
   56.4100   32.3836   45.4958 H   0  0  0  0  0  0  0  0  0  0  0  0
   56.6685   34.0427   46.2104 H   0  0  0  0  0  0  0  0  0  0  0  0
   59.7180   30.8872   44.5589 H   0  0  0  0  0  0  0  0  0  0  0  0
   59.3644   28.6173   45.5333 H   0  0  0  0  0  0  0  0  0  0  0  0
  1  2  1  0
  2  3  2  0
  3  4  1  0
  4  5  2  0
  5  6  1  0
  6  7  1  0
  7  8  1  0
  8  9  1  0
  9 10  1  0
 10 11  1  0
 11 12  1  0
  5 13  1  0
 13 14  2  0
 14  2  1  0
 12  7  1  0
  3 15  1  0
  4 16  1  0
  6 17  1  0
  6 18  1  0
  7 19  1  0
  8 20  1  0
  8 21  1  0
  9 22  1  0
  9 23  1  0
 11 24  1  0
 11 25  1  0
 12 26  1  0
 12 27  1  0
 13 28  1  0
 14 29  1  0
M  CHG  1   7   1
M  END
>  <UniqueID>  (15) 
15

>  <SMILES>  (15) 
Clc1ccc(C[NH+]2CCSCC2)cc1

>  <Energy>  (15) 
35.47435827020816

>  <Genealogy>  (15) 
Clc1ccc(C[NH+]2CCSCC2)cc1 (protonated)
Clc1ccc(C[NH+]2CCSCC2)cc1 (3D coordinates assigned)
Clc1ccc(C[NH+]2CCSCC2)cc1 (nonaromatic ring conformer: 35.47435827020816 kcal/mol)

>  <smiles>  (15) 
Clc1ccc(CN2CCSCC2)cc1

>  <score_type>  (15) 
oracle

>  <origin>  (15) 
adg

>  <m_score__min__energy>  (15) 
-4.29

>  <m_primary>  (15) 
energy

$$$$
15:0
     RDKit          3D

 44 45  0  0  0  0  0  0  0  0999 V2000
   59.0090   28.5670   47.8600 C   0  0  0  0  0  0  0  0  0  0  0  0
   58.6000   27.1310   47.5110 C   0  0  0  0  0  0  0  0  0  0  0  0
   58.2240   26.8860   46.0180 C   0  0  0  0  0  0  0  0  0  0  0  0
   58.6120   25.4560   45.5060 C   0  0  0  0  0  0  0  0  0  0  0  0
   58.0610   24.2660   46.3060 C   0  0  0  0  0  0  0  0  0  0  0  0
   56.7210   27.0920   45.8920 C   0  0  0  0  0  0  0  0  0  0  0  0
   55.9230   26.2800   46.4310 O   0  0  0  0  0  0  0  0  0  0  0  0
   56.1820   28.2540   45.2560 N   0  0  0  0  0  0  0  0  0  0  0  0
   57.0200   29.2720   44.7080 C   0  0  0  0  0  0  0  0  0  0  0  0
   56.4060   30.4680   44.1910 N   0  0  0  0  0  0  0  0  0  0  0  0
   57.1580   31.5880   43.6200 C   0  0  0  0  0  0  0  0  0  0  0  0
   57.8060   32.4010   44.7070 C   0  0  0  0  0  0  0  0  0  0  0  0
   57.9960   33.7810   44.5420 C   0  0  0  0  0  0  0  0  0  0  0  0
   58.5640   34.5450   45.5660 C   0  0  0  0  0  0  0  0  0  0  0  0
   58.9380   33.9370   46.7800 C   0  0  0  0  0  0  0  0  0  0  0  0
   59.5120   34.6590   47.8370 O   0  0  0  0  0  0  0  0  0  0  0  0
   59.9180   34.0840   49.0750 C   0  0  0  0  0  0  0  0  0  0  0  0
   58.7330   32.5620   46.9470 C   0  0  0  0  0  0  0  0  0  0  0  0
   58.1660   31.7990   45.9230 C   0  0  0  0  0  0  0  0  0  0  0  0
   58.3110   29.1010   44.6660 N   0  0  0  0  0  0  0  0  0  0  0  0
   58.9520   27.9120   45.1490 C   0  0  0  0  0  0  0  0  0  0  0  0
   60.1730   27.7430   44.8770 O   0  0  0  0  0  0  0  0  0  0  0  0
   59.0421   28.6834   48.9533 H   0  0  0  0  0  0  0  0  0  0  0  0
   60.0029   28.7779   47.4385 H   0  0  0  0  0  0  0  0  0  0  0  0
   58.2753   29.2699   47.4385 H   0  0  0  0  0  0  0  0  0  0  0  0
   59.4412   26.4682   47.7621 H   0  0  0  0  0  0  0  0  0  0  0  0
   57.6875   26.9269   48.0904 H   0  0  0  0  0  0  0  0  0  0  0  0
   58.2470   25.3611   44.4727 H   0  0  0  0  0  0  0  0  0  0  0  0
   59.7051   25.3963   45.6132 H   0  0  0  0  0  0  0  0  0  0  0  0
   58.1564   24.4721   47.3823 H   0  0  0  0  0  0  0  0  0  0  0  0
   57.0010   24.1143   46.0543 H   0  0  0  0  0  0  0  0  0  0  0  0
   58.6310   23.3595   46.0543 H   0  0  0  0  0  0  0  0  0  0  0  0
   55.1450   28.3760   45.2290 H   0  0  0  0  0  0  0  0  0  0  0  0
   55.3640   30.5350   44.2390 H   0  0  0  0  0  0  0  0  0  0  0  0
   57.9366   31.1958   42.9492 H   0  0  0  0  0  0  0  0  0  0  0  0
   56.4635   32.2329   43.0617 H   0  0  0  0  0  0  0  0  0  0  0  0
   57.6962   34.2652   43.6009 H   0  0  0  0  0  0  0  0  0  0  0  0
   58.7193   35.6245   45.4229 H   0  0  0  0  0  0  0  0  0  0  0  0
   59.5025   34.6724   49.9063 H   0  0  0  0  0  0  0  0  0  0  0  0
   59.5489   33.0497   49.1375 H   0  0  0  0  0  0  0  0  0  0  0  0
   61.0162   34.0858   49.1375 H   0  0  0  0  0  0  0  0  0  0  0  0
   59.0207   32.0785   47.8922 H   0  0  0  0  0  0  0  0  0  0  0  0
   58.0009   30.7215   46.0704 H   0  0  0  0  0  0  0  0  0  0  0  0
   58.9280   29.8240   44.2360 H   0  0  0  0  0  0  0  0  0  0  0  0
  1  2  1  0
  2  3  1  0
  3  4  1  0
  4  5  1  0
  3  6  1  0
  6  7  2  0
  6  8  1  0
  8  9  1  0
  9 10  1  0
 10 11  1  0
 11 12  1  0
 12 13  2  0
 13 14  1  0
 14 15  2  0
 15 16  1  0
 16 17  1  0
 15 18  1  0
 18 19  2  0
  9 20  2  0
 20 21  1  0
 21 22  2  0
 21  3  1  0
 19 12  1  0
  1 23  1  0
  1 24  1  0
  1 25  1  0
  2 26  1  0
  2 27  1  0
  4 28  1  0
  4 29  1  0
  5 30  1  0
  5 31  1  0
  5 32  1  0
  8 33  1  0
 10 34  1  0
 11 35  1  0
 11 36  1  0
 13 37  1  0
 14 38  1  0
 17 39  1  0
 17 40  1  0
 17 41  1  0
 18 42  1  0
 19 43  1  0
 20 44  1  0
M  CHG  1  20   1
M  END
>  <UniqueID>  (16) 
16

>  <SMILES>  (16) 
CCC1(CC)C(=O)NC(NCc2ccc(OC)cc2)=[NH+]C1=O

>  <Energy>  (16) 
43.00252222649234

>  <Genealogy>  (16) 
CCC1(CC)C(=O)NC(NCc2ccc(OC)cc2)=[NH+]C1=O (protonated)
CCC1(CC)C(=O)NC(NCc2ccc(OC)cc2)=[NH+]C1=O (3D coordinates assigned)
CCC1(CC)C(=O)NC(NCc2ccc(OC)cc2)=[NH+]C1=O (nonaromatic ring conformer: 43.00252222649234 kcal/mol)

>  <smiles>  (16) 
CCC1(CC)C(=O)N=C(NCc2ccc(OC)cc2)NC1=O

>  <score_type>  (16) 
oracle

>  <origin>  (16) 
adg

>  <m_score__min__energy>  (16) 
-6.0199999999999996

>  <m_primary>  (16) 
energy

$$$$
16:0
     RDKit          3D

 29 30  0  0  0  0  0  0  0  0999 V2000
   60.3590   34.5770   48.5070 C   0  0  0  0  0  0  0  0  0  0  0  0
   59.7020   34.1700   47.2220 C   0  0  0  0  0  0  0  0  0  0  0  0
   59.6340   35.0710   46.1490 C   0  0  0  0  0  0  0  0  0  0  0  0
   58.9980   34.7010   44.9610 C   0  0  0  0  0  0  0  0  0  0  0  0
   58.4070   33.4400   44.8440 C   0  0  0  0  0  0  0  0  0  0  0  0
   58.4330   32.5410   45.9240 C   0  0  0  0  0  0  0  0  0  0  0  0
   57.8450   31.2320   45.8230 N   0  0  0  0  0  0  0  0  0  0  0  0
   58.2270   30.2590   44.8350 C   0  0  0  0  0  0  0  0  0  0  0  0
   58.7880   30.6380   43.7700 O   0  0  0  0  0  0  0  0  0  0  0  0
   57.9250   28.8200   45.0280 C   0  0  0  0  0  0  0  0  0  0  0  0
   58.8940   27.8340   44.7810 C   0  0  0  0  0  0  0  0  0  0  0  0
   58.5840   26.4860   44.9630 C   0  0  0  0  0  0  0  0  0  0  0  0
   57.3050   26.1280   45.3870 C   0  0  0  0  0  0  0  0  0  0  0  0
   56.3660   27.0860   45.6160 N   0  0  0  0  0  0  0  0  0  0  0  0
   55.1080   26.7120   46.0300 O   0  0  0  0  0  0  0  0  0  0  0  0
   56.6460   28.4090   45.4440 C   0  0  0  0  0  0  0  0  0  0  0  0
   59.0930   32.9110   47.1060 C   0  0  0  0  0  0  0  0  0  0  0  0
   59.7641   34.2085   49.3557 H   0  0  0  0  0  0  0  0  0  0  0  0
   61.3704   34.1470   48.5540 H   0  0  0  0  0  0  0  0  0  0  0  0
   60.4244   35.6740   48.5540 H   0  0  0  0  0  0  0  0  0  0  0  0
   60.0823   36.0711   46.2430 H   0  0  0  0  0  0  0  0  0  0  0  0
   58.9624   35.4041   44.1158 H   0  0  0  0  0  0  0  0  0  0  0  0
   57.9190   33.1496   43.9019 H   0  0  0  0  0  0  0  0  0  0  0  0
   57.0190   31.0210   46.4260 H   0  0  0  0  0  0  0  0  0  0  0  0
   59.8996   28.1252   44.4433 H   0  0  0  0  0  0  0  0  0  0  0  0
   59.3424   25.7121   44.7736 H   0  0  0  0  0  0  0  0  0  0  0  0
   57.0540   25.0676   45.5369 H   0  0  0  0  0  0  0  0  0  0  0  0
   55.8655   29.1609   45.6321 H   0  0  0  0  0  0  0  0  0  0  0  0
   59.1334   32.2069   47.9502 H   0  0  0  0  0  0  0  0  0  0  0  0
  1  2  1  0
  2  3  2  0
  3  4  1  0
  4  5  2  0
  5  6  1  0
  6  7  1  0
  7  8  1  0
  8  9  2  0
  8 10  1  0
 10 11  2  0
 11 12  1  0
 12 13  2  0
 13 14  1  0
 14 15  1  0
 14 16  2  0
  6 17  2  0
 17  2  1  0
 16 10  1  0
  1 18  1  0
  1 19  1  0
  1 20  1  0
  3 21  1  0
  4 22  1  0
  5 23  1  0
  7 24  1  0
 11 25  1  0
 12 26  1  0
 13 27  1  0
 16 28  1  0
 17 29  1  0
M  CHG  2  14   1  15  -1
M  END
>  <UniqueID>  (17) 
17

>  <SMILES>  (17) 
Cc1cccc(NC(=O)c2ccc[n+]([O-])c2)c1

>  <Energy>  (17) 
34.45215426380782

>  <Genealogy>  (17) 
Cc1cccc(NC(=O)c2ccc[n+]([O-])c2)c1 (3D coordinates assigned)
Cc1cccc(NC(=O)c2ccc[n+]([O-])c2)c1 (optimized conformer: 34.45215426380782 kcal/mol)

>  <smiles>  (17) 
Cc1cccc(NC(=O)c2ccc[n+]([O-])c2)c1

>  <score_type>  (17) 
oracle

>  <origin>  (17) 
adg

>  <m_score__min__energy>  (17) 
-7.4199999999999999

>  <m_primary>  (17) 
energy

$$$$
17:0
     RDKit          3D

 58 60  0  0  0  0  0  0  0  0999 V2000
   67.0390   32.5710   50.4410 C   0  0  0  0  0  0  0  0  0  0  0  0
   65.6870   31.9580   50.6160 C   0  0  0  0  0  0  0  0  0  0  0  0
   65.4040   31.0140   51.5360 N   0  0  0  0  0  0  0  0  0  0  0  0
   64.1150   30.7240   51.4700 N   0  0  0  0  0  0  0  0  0  0  0  0
   63.4480   29.7570   52.3350 C   0  0  0  0  0  0  0  0  0  0  0  0
   63.5470   31.4960   50.5180 C   0  0  0  0  0  0  0  0  0  0  0  0
   62.1480   31.4910   50.1910 N   0  0  0  0  0  0  0  0  0  0  0  0
   61.5180   30.2840   49.6620 C   0  0  0  0  0  0  0  0  0  0  0  0
   61.3280   32.6750   50.4360 C   0  0  0  0  0  0  0  0  0  0  0  0
   64.5180   32.3090   49.9510 C   0  0  0  0  0  0  0  0  0  0  0  0
   64.3330   33.3610   48.8940 C   0  0  0  0  0  0  0  0  0  0  0  0
   63.9690   32.7500   47.6090 N   0  0  0  0  0  0  0  0  0  0  0  0
   63.2550   33.6820   46.7200 C   0  0  0  0  0  0  0  0  0  0  0  0
   61.7610   33.4610   46.7480 C   0  0  0  0  0  0  0  0  0  0  0  0
   60.8840   34.5480   46.6080 C   0  0  0  0  0  0  0  0  0  0  0  0
   59.5010   34.3500   46.6440 C   0  0  0  0  0  0  0  0  0  0  0  0
   58.9750   33.0640   46.8300 C   0  0  0  0  0  0  0  0  0  0  0  0
   57.4840   32.8380   46.8430 C   0  0  0  0  0  0  0  0  0  0  0  0
   56.9880   32.4960   45.4940 N   0  0  0  0  0  0  0  0  0  0  0  0
   57.4220   31.1390   45.0860 C   0  0  0  0  0  0  0  0  0  0  0  0
   57.3630   30.9820   43.5570 C   0  0  0  0  0  0  0  0  0  0  0  0
   58.1890   31.8960   42.8450 O   0  0  0  0  0  0  0  0  0  0  0  0
   58.4980   33.0730   43.5760 C   0  0  0  0  0  0  0  0  0  0  0  0
   57.3560   33.5340   44.4980 C   0  0  0  0  0  0  0  0  0  0  0  0
   59.8500   31.9750   46.9680 C   0  0  0  0  0  0  0  0  0  0  0  0
   61.2330   32.1730   46.9290 C   0  0  0  0  0  0  0  0  0  0  0  0
   67.4812   32.7715   51.4280 H   0  0  0  0  0  0  0  0  0  0  0  0
   67.6862   31.8783   49.8831 H   0  0  0  0  0  0  0  0  0  0  0  0
   66.9445   33.5143   49.8831 H   0  0  0  0  0  0  0  0  0  0  0  0
   66.0800   30.5790   52.2050 H   0  0  0  0  0  0  0  0  0  0  0  0
   63.6295   30.0201   53.3875 H   0  0  0  0  0  0  0  0  0  0  0  0
   62.3665   29.7708   52.1349 H   0  0  0  0  0  0  0  0  0  0  0  0
   63.8451   28.7509   52.1349 H   0  0  0  0  0  0  0  0  0  0  0  0
   61.1861   29.6480   50.4959 H   0  0  0  0  0  0  0  0  0  0  0  0
   60.6505   30.5631   49.0459 H   0  0  0  0  0  0  0  0  0  0  0  0
   62.2430   29.7319   49.0459 H   0  0  0  0  0  0  0  0  0  0  0  0
   61.2212   32.8292   51.5199 H   0  0  0  0  0  0  0  0  0  0  0  0
   61.8110   33.5550   49.9863 H   0  0  0  0  0  0  0  0  0  0  0  0
   60.3343   32.5323   49.9863 H   0  0  0  0  0  0  0  0  0  0  0  0
   63.5333   34.0489   49.2058 H   0  0  0  0  0  0  0  0  0  0  0  0
   65.2800   33.9066   48.7696 H   0  0  0  0  0  0  0  0  0  0  0  0
   64.8400   32.4100   47.1370 H   0  0  0  0  0  0  0  0  0  0  0  0
   63.4674   34.7122   47.0417 H   0  0  0  0  0  0  0  0  0  0  0  0
   63.6047   33.5051   45.6922 H   0  0  0  0  0  0  0  0  0  0  0  0
   61.2877   35.5618   46.4691 H   0  0  0  0  0  0  0  0  0  0  0  0
   58.8220   35.2073   46.5258 H   0  0  0  0  0  0  0  0  0  0  0  0
   57.2514   32.0124   47.5317 H   0  0  0  0  0  0  0  0  0  0  0  0
   56.9921   33.7651   47.1724 H   0  0  0  0  0  0  0  0  0  0  0  0
   58.4551   30.9737   45.4257 H   0  0  0  0  0  0  0  0  0  0  0  0
   56.7456   30.4011   45.5420 H   0  0  0  0  0  0  0  0  0  0  0  0
   57.6802   29.9599   43.3026 H   0  0  0  0  0  0  0  0  0  0  0  0
   56.3259   31.1932   43.2571 H   0  0  0  0  0  0  0  0  0  0  0  0
   59.3875   32.8775   44.1929 H   0  0  0  0  0  0  0  0  0  0  0  0
   58.6698   33.8757   42.8437 H   0  0  0  0  0  0  0  0  0  0  0  0
   57.6758   34.4407   45.0324 H   0  0  0  0  0  0  0  0  0  0  0  0
   56.4733   33.7301   43.8715 H   0  0  0  0  0  0  0  0  0  0  0  0
   59.4455   30.9616   47.1074 H   0  0  0  0  0  0  0  0  0  0  0  0
   61.9117   31.3146   47.0408 H   0  0  0  0  0  0  0  0  0  0  0  0
  1  2  1  0
  2  3  2  0
  3  4  1  0
  4  5  1  0
  4  6  1  0
  6  7  1  0
  7  8  1  0
  7  9  1  0
  6 10  2  0
 10 11  1  0
 11 12  1  0
 12 13  1  0
 13 14  1  0
 14 15  2  0
 15 16  1  0
 16 17  2  0
 17 18  1  0
 18 19  1  0
 19 20  1  0
 20 21  1  0
 21 22  1  0
 22 23  1  0
 23 24  1  0
 17 25  1  0
 25 26  2  0
 10  2  1  0
 26 14  1  0
 24 19  1  0
  1 27  1  0
  1 28  1  0
  1 29  1  0
  3 30  1  0
  5 31  1  0
  5 32  1  0
  5 33  1  0
  8 34  1  0
  8 35  1  0
  8 36  1  0
  9 37  1  0
  9 38  1  0
  9 39  1  0
 11 40  1  0
 11 41  1  0
 12 42  1  0
 13 43  1  0
 13 44  1  0
 15 45  1  0
 16 46  1  0
 18 47  1  0
 18 48  1  0
 20 49  1  0
 20 50  1  0
 21 51  1  0
 21 52  1  0
 23 53  1  0
 23 54  1  0
 24 55  1  0
 24 56  1  0
 25 57  1  0
 26 58  1  0
M  CHG  1   3   1
M  END
>  <UniqueID>  (18) 
18

>  <SMILES>  (18) 
Cc1[nH+]n(C)c(N(C)C)c1CNCc1ccc(CN2CCOCC2)cc1

>  <Energy>  (18) 
103.86702791620758

>  <Genealogy>  (18) 
Cc1[nH+]n(C)c(N(C)C)c1CNCc1ccc(CN2CCOCC2)cc1 (protonated)
Cc1[nH+]n(C)c(N(C)C)c1CNCc1ccc(CN2CCOCC2)cc1 (3D coordinates assigned)
Cc1[nH+]n(C)c(N(C)C)c1CNCc1ccc(CN2CCOCC2)cc1 (nonaromatic ring conformer: 103.86702791620758 kcal/mol)

>  <smiles>  (18) 
Cc1nn(C)c(N(C)C)c1CNCc1ccc(CN2CCOCC2)cc1

>  <score_type>  (18) 
oracle

>  <origin>  (18) 
adg

>  <m_score__min__energy>  (18) 
-6.5999999999999996

>  <m_primary>  (18) 
energy

$$$$
18:0
     RDKit          3D

 41 42  0  0  0  0  0  0  0  0999 V2000
   60.2210   29.7300   46.0020 C   0  0  0  0  0  0  0  0  0  0  0  0
   59.0340   29.9480   45.0640 C   0  0  0  0  0  0  0  0  0  0  0  0
   57.8350   30.5730   45.7920 C   0  0  0  0  0  0  0  0  0  0  0  0
   57.0540   31.4390   44.8810 N   0  0  0  0  0  0  0  0  0  0  0  0
   57.5080   31.3470   43.4730 C   0  0  0  0  0  0  0  0  0  0  0  0
   56.6470   30.3360   42.7080 C   0  0  0  0  0  0  0  0  0  0  0  0
   55.5840   29.7180   43.6100 C   0  0  0  0  0  0  0  0  0  0  0  0
   56.9570   32.8360   45.3680 C   0  0  0  0  0  0  0  0  0  0  0  0
   58.2950   33.4550   45.6800 C   0  0  0  0  0  0  0  0  0  0  0  0
   58.8300   34.5770   45.0860 C   0  0  0  0  0  0  0  0  0  0  0  0
   60.0040   34.7830   45.6260 O   0  0  0  0  0  0  0  0  0  0  0  0
   60.1980   33.8350   46.5180 C   0  0  0  0  0  0  0  0  0  0  0  0
   61.4170   33.7210   47.3420 C   0  0  0  0  0  0  0  0  0  0  0  0
   61.3540   33.9270   48.7310 C   0  0  0  0  0  0  0  0  0  0  0  0
   62.5080   33.8220   49.5140 C   0  0  0  0  0  0  0  0  0  0  0  0
   63.7330   33.5110   48.9190 C   0  0  0  0  0  0  0  0  0  0  0  0
   64.8500   33.4090   49.6800 F   0  0  0  0  0  0  0  0  0  0  0  0
   63.8060   33.3060   47.5380 C   0  0  0  0  0  0  0  0  0  0  0  0
   62.6550   33.4090   46.7520 C   0  0  0  0  0  0  0  0  0  0  0  0
   59.1580   32.9750   46.5950 N   0  0  0  0  0  0  0  0  0  0  0  0
   59.8798   29.7927   47.0459 H   0  0  0  0  0  0  0  0  0  0  0  0
   60.6565   28.7369   45.8176 H   0  0  0  0  0  0  0  0  0  0  0  0
   60.9810   30.5036   45.8176 H   0  0  0  0  0  0  0  0  0  0  0  0
   59.3437   30.6184   44.2487 H   0  0  0  0  0  0  0  0  0  0  0  0
   58.7228   28.9673   44.6750 H   0  0  0  0  0  0  0  0  0  0  0  0
   57.1852   29.7700   46.1700 H   0  0  0  0  0  0  0  0  0  0  0  0
   58.2112   31.1877   46.6230 H   0  0  0  0  0  0  0  0  0  0  0  0
   57.4194   32.3346   42.9967 H   0  0  0  0  0  0  0  0  0  0  0  0
   58.5566   31.0152   43.4534 H   0  0  0  0  0  0  0  0  0  0  0  0
   56.1519   30.8487   41.8701 H   0  0  0  0  0  0  0  0  0  0  0  0
   57.3008   29.5313   42.3406 H   0  0  0  0  0  0  0  0  0  0  0  0
   55.8587   29.8777   44.6631 H   0  0  0  0  0  0  0  0  0  0  0  0
   54.6118   30.1917   43.4088 H   0  0  0  0  0  0  0  0  0  0  0  0
   55.5147   28.6388   43.4088 H   0  0  0  0  0  0  0  0  0  0  0  0
   56.4646   33.4420   44.5932 H   0  0  0  0  0  0  0  0  0  0  0  0
   56.3827   32.8139   46.3059 H   0  0  0  0  0  0  0  0  0  0  0  0
   58.3574   35.1872   44.3022 H   0  0  0  0  0  0  0  0  0  0  0  0
   60.3919   34.1721   49.2046 H   0  0  0  0  0  0  0  0  0  0  0  0
   62.4509   33.9846   50.6004 H   0  0  0  0  0  0  0  0  0  0  0  0
   64.7710   33.0632   47.0692 H   0  0  0  0  0  0  0  0  0  0  0  0
   62.7177   33.2452   45.6661 H   0  0  0  0  0  0  0  0  0  0  0  0
  1  2  1  0
  2  3  1  0
  3  4  1  0
  4  5  1  0
  5  6  1  0
  6  7  1  0
  4  8  1  0
  8  9  1  0
  9 10  2  0
 10 11  1  0
 11 12  1  0
 12 13  1  0
 13 14  2  0
 14 15  1  0
 15 16  2  0
 16 17  1  0
 16 18  1  0
 18 19  2  0
 12 20  2  0
 20  9  1  0
 19 13  1  0
  1 21  1  0
  1 22  1  0
  1 23  1  0
  2 24  1  0
  2 25  1  0
  3 26  1  0
  3 27  1  0
  5 28  1  0
  5 29  1  0
  6 30  1  0
  6 31  1  0
  7 32  1  0
  7 33  1  0
  7 34  1  0
  8 35  1  0
  8 36  1  0
 10 37  1  0
 14 38  1  0
 15 39  1  0
 18 40  1  0
 19 41  1  0
M  END
>  <UniqueID>  (19) 
19

>  <SMILES>  (19) 
CCCN(CCC)Cc1coc(-c2ccc(F)cc2)n1

>  <Energy>  (19) 
65.6003080652891

>  <Genealogy>  (19) 
CCCN(CCC)Cc1coc(-c2ccc(F)cc2)n1 (3D coordinates assigned)
CCCN(CCC)Cc1coc(-c2ccc(F)cc2)n1 (optimized conformer: 65.6003080652891 kcal/mol)

>  <smiles>  (19) 
CCCN(CCC)Cc1coc(-c2ccc(F)cc2)n1

>  <score_type>  (19) 
oracle

>  <origin>  (19) 
adg

>  <m_score__min__energy>  (19) 
-6.4699999999999998

>  <m_primary>  (19) 
energy

$$$$
19:0
     RDKit          3D

 48 50  0  0  0  0  0  0  0  0999 V2000
   59.6650   35.3290   45.9200 C   0  0  0  0  0  0  0  0  0  0  0  0
   58.8060   34.6130   44.8820 C   0  0  0  0  0  0  0  0  0  0  0  0
   57.6530   33.8180   45.5170 C   0  0  0  0  0  0  0  0  0  0  0  0
   58.1350   32.5710   46.1510 N   0  0  0  0  0  0  0  0  0  0  0  0
   58.1660   31.3780   45.4610 C   0  0  0  0  0  0  0  0  0  0  0  0
   57.6870   31.2540   43.7220 S   0  0  0  0  0  0  0  0  0  0  0  0
   57.3710   29.4520   43.7700 C   0  0  0  0  0  0  0  0  0  0  0  0
   56.3510   29.0840   44.8140 C   0  0  0  0  0  0  0  0  0  0  0  0
   55.1490   29.4120   44.6300 O   0  0  0  0  0  0  0  0  0  0  0  0
   56.6830   28.3220   45.9820 N   0  0  0  0  0  0  0  0  0  0  0  0
   57.2090   26.9890   45.9990 C   0  0  0  0  0  0  0  0  0  0  0  0
   56.3900   25.8970   46.3240 C   0  0  0  0  0  0  0  0  0  0  0  0
   56.9120   24.6010   46.3240 C   0  0  0  0  0  0  0  0  0  0  0  0
   58.2480   24.3870   45.9830 C   0  0  0  0  0  0  0  0  0  0  0  0
   59.0640   25.4650   45.6310 C   0  0  0  0  0  0  0  0  0  0  0  0
   58.5470   26.7760   45.6290 C   0  0  0  0  0  0  0  0  0  0  0  0
   59.3320   27.8870   45.2810 O   0  0  0  0  0  0  0  0  0  0  0  0
   60.7550   27.9050   45.2880 C   0  0  0  0  0  0  0  0  0  0  0  0
   58.5540   30.2320   46.0850 N   0  0  0  0  0  0  0  0  0  0  0  0
   58.9510   30.2280   47.3820 C   0  0  0  0  0  0  0  0  0  0  0  0
   59.3580   29.0320   47.9970 C   0  0  0  0  0  0  0  0  0  0  0  0
   59.7690   29.0350   49.3320 C   0  0  0  0  0  0  0  0  0  0  0  0
   59.7770   30.2260   50.0610 C   0  0  0  0  0  0  0  0  0  0  0  0
   59.3730   31.4210   49.4580 C   0  0  0  0  0  0  0  0  0  0  0  0
   58.9560   31.4280   48.1120 C   0  0  0  0  0  0  0  0  0  0  0  0
   58.5350   32.6030   47.4670 C   0  0  0  0  0  0  0  0  0  0  0  0
   58.5250   33.6930   48.1070 O   0  0  0  0  0  0  0  0  0  0  0  0
   59.3295   35.0493   46.9296 H   0  0  0  0  0  0  0  0  0  0  0  0
   60.7175   35.0370   45.7894 H   0  0  0  0  0  0  0  0  0  0  0  0
   59.5674   36.4168   45.7894 H   0  0  0  0  0  0  0  0  0  0  0  0
   58.3823   35.3626   44.1974 H   0  0  0  0  0  0  0  0  0  0  0  0
   59.4514   33.8980   44.3507 H   0  0  0  0  0  0  0  0  0  0  0  0
   57.1674   34.4424   46.2814 H   0  0  0  0  0  0  0  0  0  0  0  0
   56.9430   33.5472   44.7216 H   0  0  0  0  0  0  0  0  0  0  0  0
   57.0024   29.1301   42.7849 H   0  0  0  0  0  0  0  0  0  0  0  0
   58.3151   28.9491   44.0265 H   0  0  0  0  0  0  0  0  0  0  0  0
   55.3329   26.0619   46.5798 H   0  0  0  0  0  0  0  0  0  0  0  0
   56.2698   23.7494   46.5928 H   0  0  0  0  0  0  0  0  0  0  0  0
   58.6598   23.3670   45.9913 H   0  0  0  0  0  0  0  0  0  0  0  0
   60.1141   25.2898   45.3543 H   0  0  0  0  0  0  0  0  0  0  0  0
   61.1165   27.9096   46.3269 H   0  0  0  0  0  0  0  0  0  0  0  0
   61.1355   27.0116   44.7713 H   0  0  0  0  0  0  0  0  0  0  0  0
   61.1128   28.8077   44.7713 H   0  0  0  0  0  0  0  0  0  0  0  0
   58.5460   29.3370   45.5450 H   0  0  0  0  0  0  0  0  0  0  0  0
   59.3530   28.0917   47.4262 H   0  0  0  0  0  0  0  0  0  0  0  0
   60.0871   28.0969   49.8102 H   0  0  0  0  0  0  0  0  0  0  0  0
   60.1019   30.2240   51.1119 H   0  0  0  0  0  0  0  0  0  0  0  0
   59.3807   32.3573   50.0353 H   0  0  0  0  0  0  0  0  0  0  0  0
  1  2  1  0
  2  3  1  0
  3  4  1  0
  4  5  1  0
  5  6  1  0
  6  7  1  0
  7  8  1  0
  8  9  2  0
  8 10  1  0
 10 11  1  0
 11 12  2  0
 12 13  1  0
 13 14  2  0
 14 15  1  0
 15 16  2  0
 16 17  1  0
 17 18  1  0
  5 19  2  0
 19 20  1  0
 20 21  2  0
 21 22  1  0
 22 23  2  0
 23 24  1  0
 24 25  2  0
 25 26  1  0
 26 27  2  0
 26  4  1  0
 16 11  1  0
 25 20  1  0
  1 28  1  0
  1 29  1  0
  1 30  1  0
  2 31  1  0
  2 32  1  0
  3 33  1  0
  3 34  1  0
  7 35  1  0
  7 36  1  0
 12 37  1  0
 13 38  1  0
 14 39  1  0
 15 40  1  0
 18 41  1  0
 18 42  1  0
 18 43  1  0
 19 44  1  0
 21 45  1  0
 22 46  1  0
 23 47  1  0
 24 48  1  0
M  CHG  2  10  -1  19   1
M  END
>  <UniqueID>  (20) 
20

>  <SMILES>  (20) 
CCCn1c(SCC(=O)[N-]c2ccccc2OC)[nH+]c2ccccc2c1=O

>  <Energy>  (20) 
54.083458282467184

>  <Genealogy>  (20) 
CCCn1c(SCC(=O)[N-]c2ccccc2OC)[nH+]c2ccccc2c1=O (protonated)
CCCn1c(SCC(=O)[N-]c2ccccc2OC)[nH+]c2ccccc2c1=O (3D coordinates assigned)
CCCn1c(SCC(=O)[N-]c2ccccc2OC)[nH+]c2ccccc2c1=O (optimized conformer: 54.083458282467184 kcal/mol)

>  <smiles>  (20) 
CCCn1c(SCC(=O)Nc2ccccc2OC)nc2ccccc2c1=O

>  <score_type>  (20) 
oracle

>  <origin>  (20) 
adg

>  <m_score__min__energy>  (20) 
-9.5199999999999996

>  <m_primary>  (20) 
energy

$$$$
20:0
     RDKit          3D

 46 49  0  0  1  0  0  0  0  0999 V2000
   55.3120   24.3970   45.2470 C   0  0  0  0  0  0  0  0  0  0  0  0
   55.7920   25.3030   46.2360 O   0  0  0  0  0  0  0  0  0  0  0  0
   56.7460   26.2680   45.9270 C   0  0  0  0  0  0  0  0  0  0  0  0
   58.0990   26.0080   45.9190 C   0  0  0  0  0  0  0  0  0  0  0  0
   58.9830   27.0110   45.6040 C   0  0  0  0  0  0  0  0  0  0  0  0
   58.5700   28.2830   45.2900 C   0  0  0  0  0  0  0  0  0  0  0  0
   59.4150   29.3260   44.9670 O   0  0  0  0  0  0  0  0  0  0  0  0
   60.6080   29.6700   45.6090 C   0  0  0  0  0  0  0  0  0  0  0  0
   57.1800   28.5720   45.2910 C   0  0  0  0  0  0  0  0  0  0  0  0
   56.6610   29.7660   44.8920 N   0  0  0  0  0  0  0  0  0  0  0  0
   57.0390   30.6930   44.1620 C   0  0  0  0  0  0  0  0  0  0  0  0
   56.7660   30.6440   42.8470 N   0  0  0  0  0  0  0  0  0  0  0  0
   57.1350   31.5950   41.9840 C   0  0  0  0  0  0  0  0  0  0  0  0
   57.8120   32.6510   42.4600 N   0  0  0  0  0  0  0  0  0  0  0  0
   58.0990   32.7260   43.7710 C   0  0  0  0  0  0  0  0  0  0  0  0
   58.7940   33.8310   44.1960 C   0  0  0  0  0  0  0  0  0  0  0  0
   59.0880   33.9080   45.5360 C   0  0  0  0  0  0  0  0  0  0  0  0
   58.7450   32.9790   46.4730 C   0  0  0  0  0  0  0  0  0  0  0  0
   59.1010   33.1440   47.8760 C   0  0  0  0  0  0  0  0  0  0  0  0
   58.4960   32.3710   48.8470 C   0  0  0  0  0  0  0  0  0  0  0  0
   58.8240   32.5180   50.1790 C   0  0  0  0  0  0  0  0  0  0  0  0
   59.7850   33.4650   50.5260 C   0  0  0  0  0  0  0  0  0  0  0  0
   60.3940   34.2410   49.5660 C   0  0  0  0  0  0  0  0  0  0  0  0
   60.0450   34.0740   48.2260 C   0  0  0  0  0  0  0  0  0  0  0  0
   58.0330   31.8560   46.0130 C   0  0  0  0  0  0  0  0  0  0  0  0
   57.7290   31.7540   44.6890 C   0  0  0  0  0  0  0  0  0  0  0  0
   56.2810   27.5270   45.6190 C   0  0  0  0  0  0  0  0  0  0  0  0
   54.8514   23.5276   45.7389 H   0  0  0  0  0  0  0  0  0  0  0  0
   54.5633   24.9024   44.6192 H   0  0  0  0  0  0  0  0  0  0  0  0
   56.1506   24.0614   44.6192 H   0  0  0  0  0  0  0  0  0  0  0  0
   58.4696   25.0017   46.1638 H   0  0  0  0  0  0  0  0  0  0  0  0
   60.0601   26.7877   45.6031 H   0  0  0  0  0  0  0  0  0  0  0  0
   60.4633   29.6283   46.6986 H   0  0  0  0  0  0  0  0  0  0  0  0
   61.3986   28.9632   45.3168 H   0  0  0  0  0  0  0  0  0  0  0  0
   60.9010   30.6892   45.3168 H   0  0  0  0  0  0  0  0  0  0  0  0
   56.8908   31.5145   40.9145 H   0  0  0  0  0  0  0  0  0  0  0  0
   58.1020   33.4010   41.7760 H   0  0  0  0  0  0  0  0  0  0  0  0
   59.1020   34.6203   43.4944 H   0  0  0  0  0  0  0  0  0  0  0  0
   59.6456   34.7913   45.8809 H   0  0  0  0  0  0  0  0  0  0  0  0
   57.7410   31.6266   48.5541 H   0  0  0  0  0  0  0  0  0  0  0  0
   58.3378   31.9015   50.9494 H   0  0  0  0  0  0  0  0  0  0  0  0
   60.0612   33.5945   51.5828 H   0  0  0  0  0  0  0  0  0  0  0  0
   61.1498   34.9868   49.8533 H   0  0  0  0  0  0  0  0  0  0  0  0
   60.5269   34.6880   47.4509 H   0  0  0  0  0  0  0  0  0  0  0  0
   57.7248   31.0679   46.7158 H   0  0  0  0  0  0  0  0  0  0  0  0
   55.1988   27.7238   45.6277 H   0  0  0  0  0  0  0  0  0  0  0  0
  1  2  1  0
  2  3  1  0
  3  4  2  0
  4  5  1  0
  5  6  2  0
  6  7  1  0
  7  8  1  0
  6  9  1  0
  9 10  1  0
 10 11  2  0
 11 12  1  0
 12 13  2  0
 13 14  1  0
 14 15  1  0
 15 16  2  0
 16 17  1  0
 17 18  2  0
 18 19  1  0
 19 20  2  0
 20 21  1  0
 21 22  2  0
 22 23  1  0
 23 24  2  0
 18 25  1  0
 25 26  2  0
  9 27  2  0
 27  3  1  0
 26 11  1  0
 26 15  1  0
 24 19  1  0
  1 28  1  0
  1 29  1  0
  1 30  1  0
  4 31  1  0
  5 32  1  0
  8 33  1  0
  8 34  1  0
  8 35  1  0
 13 36  1  0
 14 37  1  0
 16 38  1  0
 17 39  1  0
 20 40  1  0
 21 41  1  0
 22 42  1  0
 23 43  1  0
 24 44  1  0
 25 45  1  0
 27 46  1  0
M  END
>  <smiles>  (21) 
COc1ccc(OC)c(N=c2nc[nH]c3ccc(-c4ccccc4)cc23)c1

>  <score_type>  (21) 
oracle

>  <origin>  (21) 
adg

>  <m_score__min__energy>  (21) 
-8.3300000000000001

>  <m_primary>  (21) 
energy

$$$$
21:0
     RDKit          3D

 34 35  0  0  0  0  0  0  0  0999 V2000
   63.5650   33.4620   47.0470 C   0  0  0  0  0  0  0  0  0  0  0  0
   62.8630   33.6070   48.3930 C   0  0  0  0  0  0  0  0  0  0  0  0
   61.5750   34.2030   48.2310 O   0  0  0  0  0  0  0  0  0  0  0  0
   60.5670   33.7500   47.3630 C   0  0  0  0  0  0  0  0  0  0  0  0
   60.1310   32.4190   47.3430 C   0  0  0  0  0  0  0  0  0  0  0  0
   59.1240   32.0540   46.4550 C   0  0  0  0  0  0  0  0  0  0  0  0
   58.5520   32.9810   45.6260 N   0  0  0  0  0  0  0  0  0  0  0  0
   57.5070   32.5600   44.6710 C   0  0  1  0  0  0  0  0  0  0  0  0
   58.0560   32.5100   43.2520 C   0  0  0  0  0  0  0  0  0  0  0  0
   57.3050   31.3670   42.6490 C   0  0  0  0  0  0  0  0  0  0  0  0
   57.0140   30.4870   43.8560 C   0  0  2  0  0  0  0  0  0  0  0  0
   55.6850   29.7360   43.7080 C   0  0  0  0  0  0  0  0  0  0  0  0
   55.1770   29.3880   44.9680 O   0  0  0  0  0  0  0  0  0  0  0  0
   56.9910   31.2900   45.0160 O   0  0  0  0  0  0  0  0  0  0  0  0
   59.0090   34.2750   45.6470 C   0  0  0  0  0  0  0  0  0  0  0  0
   58.5280   35.1390   44.8640 O   0  0  0  0  0  0  0  0  0  0  0  0
   59.9920   34.6420   46.5150 N   0  0  0  0  0  0  0  0  0  0  0  0
   64.6302   33.2420   47.2109 H   0  0  0  0  0  0  0  0  0  0  0  0
   63.1039   32.6401   46.4796 H   0  0  0  0  0  0  0  0  0  0  0  0
   63.4672   34.3993   46.4796 H   0  0  0  0  0  0  0  0  0  0  0  0
   62.7456   32.6123   48.8477 H   0  0  0  0  0  0  0  0  0  0  0  0
   63.4724   34.2542   49.0409 H   0  0  0  0  0  0  0  0  0  0  0  0
   60.5775   31.6744   48.0184 H   0  0  0  0  0  0  0  0  0  0  0  0
   58.7836   31.0086   46.4187 H   0  0  0  0  0  0  0  0  0  0  0  0
   56.6979   33.3036   44.7187 H   0  0  0  0  0  0  0  0  0  0  0  0
   57.8508   33.4473   42.7141 H   0  0  0  0  0  0  0  0  0  0  0  0
   59.1481   32.3849   43.2107 H   0  0  0  0  0  0  0  0  0  0  0  0
   56.3740   31.7101   42.1741 H   0  0  0  0  0  0  0  0  0  0  0  0
   57.8613   30.8489   41.8539 H   0  0  0  0  0  0  0  0  0  0  0  0
   57.8091   29.7309   43.9336 H   0  0  0  0  0  0  0  0  0  0  0  0
   54.9598   30.3812   43.1904 H   0  0  0  0  0  0  0  0  0  0  0  0
   55.8567   28.8181   43.1267 H   0  0  0  0  0  0  0  0  0  0  0  0
   55.4900   30.0860   45.6020 H   0  0  0  0  0  0  0  0  0  0  0  0
   60.3230   35.6340   46.5250 H   0  0  0  0  0  0  0  0  0  0  0  0
  1  2  1  0
  2  3  1  0
  3  4  1  0
  4  5  1  0
  5  6  2  0
  6  7  1  0
  7  8  1  0
  8  9  1  0
  9 10  1  0
 10 11  1  0
 11 12  1  0
 12 13  1  0
 11 14  1  0
  7 15  1  0
 15 16  2  0
 15 17  1  0
 17  4  2  0
 14  8  1  0
  1 18  1  0
  1 19  1  0
  1 20  1  0
  2 21  1  0
  2 22  1  0
  5 23  1  0
  6 24  1  0
  8 25  1  6
  9 26  1  0
  9 27  1  0
 10 28  1  0
 10 29  1  0
 11 30  1  1
 12 31  1  0
 12 32  1  0
 13 33  1  0
 17 34  1  0
M  CHG  1  17   1
M  END
>  <UniqueID>  (22) 
21

>  <SMILES>  (22) 
CCOc1ccn([C@H]2CC[C@H](CO)O2)c(=O)[nH+]1

>  <Energy>  (22) 
32.396553686922935

>  <Genealogy>  (22) 
CCOc1ccn(C2CCC(CO)O2)c(=O)[nH+]1 (protonated)
CCOc1ccn([C@H]2CC[C@H](CO)O2)c(=O)[nH+]1 (chirality)
CCOc1ccn([C@H]2CC[C@H](CO)O2)c(=O)[nH+]1 (3D coordinates assigned)
CCOc1ccn([C@H]2CC[C@H](CO)O2)c(=O)[nH+]1 (nonaromatic ring conformer: 32.396553686922935 kcal/mol)

>  <smiles>  (22) 
CCOc1ccn(C2CCC(CO)O2)c(=O)n1

>  <score_type>  (22) 
oracle

>  <origin>  (22) 
adg

>  <m_score__min__energy>  (22) 
-5.8300000000000001

>  <m_primary>  (22) 
energy

$$$$
22:0
     RDKit          3D

 53 56  0  0  0  0  0  0  0  0999 V2000
   61.5330   30.8960   49.1390 C   0  0  0  0  0  0  0  0  0  0  0  0
   62.4210   32.1010   49.4190 C   0  0  0  0  0  0  0  0  0  0  0  0
   62.7220   32.8080   48.1750 N   0  0  0  0  0  0  0  0  0  0  0  0
   63.8850   32.7610   47.5500 N   0  0  0  0  0  0  0  0  0  0  0  0
   63.7960   33.4700   46.4340 N   0  0  0  0  0  0  0  0  0  0  0  0
   62.5770   33.9790   46.3130 N   0  0  0  0  0  0  0  0  0  0  0  0
   61.9060   33.5480   47.3980 C   0  0  0  0  0  0  0  0  0  0  0  0
   60.4870   33.9290   47.7090 C   0  0  0  0  0  0  0  0  0  0  0  0
   59.6360   33.7900   46.5240 N   0  0  0  0  0  0  0  0  0  0  0  0
   58.8900   34.8910   45.9010 C   0  0  0  0  0  0  0  0  0  0  0  0
   57.9140   34.2410   44.8930 C   0  0  0  0  0  0  0  0  0  0  0  0
   58.1190   32.7830   45.1120 C   0  0  0  0  0  0  0  0  0  0  0  0
   57.4480   31.7230   44.5010 C   0  0  0  0  0  0  0  0  0  0  0  0
   57.7920   30.4090   44.8640 C   0  0  0  0  0  0  0  0  0  0  0  0
   56.9680   29.0550   44.0950 S   0  0  0  0  0  0  0  0  0  0  0  0
   56.0250   29.5510   43.0310 O   0  0  0  0  0  0  0  0  0  0  0  0
   57.9920   28.1590   43.4540 O   0  0  0  0  0  0  0  0  0  0  0  0
   56.0780   28.1520   45.2840 N   0  0  0  0  0  0  0  0  0  0  0  0
   56.9930   27.6380   46.3020 C   0  0  0  0  0  0  0  0  0  0  0  0
   57.2980   26.1940   46.0080 C   0  0  0  0  0  0  0  0  0  0  0  0
   58.6340   25.7730   45.8990 C   0  0  0  0  0  0  0  0  0  0  0  0
   58.9330   24.4400   45.6070 C   0  0  0  0  0  0  0  0  0  0  0  0
   57.9030   23.5190   45.4070 C   0  0  0  0  0  0  0  0  0  0  0  0
   56.5710   23.9280   45.4950 C   0  0  0  0  0  0  0  0  0  0  0  0
   56.2540   25.2690   45.7930 C   0  0  0  0  0  0  0  0  0  0  0  0
   54.9240   25.7140   45.8790 O   0  0  0  0  0  0  0  0  0  0  0  0
   53.7820   24.9050   45.6120 C   0  0  0  0  0  0  0  0  0  0  0  0
   58.7950   30.1860   45.8340 C   0  0  0  0  0  0  0  0  0  0  0  0
   59.4560   31.2720   46.4330 C   0  0  0  0  0  0  0  0  0  0  0  0
   59.0960   32.5680   46.0460 C   0  0  0  0  0  0  0  0  0  0  0  0
   61.2061   30.4524   50.0910 H   0  0  0  0  0  0  0  0  0  0  0  0
   60.6527   31.2154   48.5619 H   0  0  0  0  0  0  0  0  0  0  0  0
   62.0988   30.1498   48.5619 H   0  0  0  0  0  0  0  0  0  0  0  0
   61.9009   32.7831   50.1076 H   0  0  0  0  0  0  0  0  0  0  0  0
   63.3621   31.7552   49.8714 H   0  0  0  0  0  0  0  0  0  0  0  0
   60.1047   33.2740   48.5057 H   0  0  0  0  0  0  0  0  0  0  0  0
   60.4685   34.9799   48.0334 H   0  0  0  0  0  0  0  0  0  0  0  0
   58.3309   35.4518   46.6645 H   0  0  0  0  0  0  0  0  0  0  0  0
   59.5672   35.5990   45.4008 H   0  0  0  0  0  0  0  0  0  0  0  0
   56.8746   34.5298   45.1082 H   0  0  0  0  0  0  0  0  0  0  0  0
   58.0979   34.5509   43.8537 H   0  0  0  0  0  0  0  0  0  0  0  0
   56.6660   31.9116   43.7508 H   0  0  0  0  0  0  0  0  0  0  0  0
   57.9253   28.2215   46.2873 H   0  0  0  0  0  0  0  0  0  0  0  0
   56.5273   27.7231   47.2949 H   0  0  0  0  0  0  0  0  0  0  0  0
   59.4492   26.4971   46.0444 H   0  0  0  0  0  0  0  0  0  0  0  0
   59.9816   24.1155   45.5345 H   0  0  0  0  0  0  0  0  0  0  0  0
   58.1413   22.4694   45.1797 H   0  0  0  0  0  0  0  0  0  0  0  0
   55.7636   23.1992   45.3307 H   0  0  0  0  0  0  0  0  0  0  0  0
   53.3295   24.5845   46.5620 H   0  0  0  0  0  0  0  0  0  0  0  0
   53.0482   25.4859   45.0339 H   0  0  0  0  0  0  0  0  0  0  0  0
   54.0866   24.0201   45.0339 H   0  0  0  0  0  0  0  0  0  0  0  0
   59.0596   29.1578   46.1216 H   0  0  0  0  0  0  0  0  0  0  0  0
   60.2383   31.1073   47.1886 H   0  0  0  0  0  0  0  0  0  0  0  0
  1  2  1  0
  2  3  1  0
  3  4  1  0
  4  5  2  0
  5  6  1  0
  6  7  2  0
  7  8  1  0
  8  9  1  0
  9 10  1  0
 10 11  1  0
 11 12  1  0
 12 13  2  0
 13 14  1  0
 14 15  1  0
 15 16  2  0
 15 17  2  0
 15 18  1  0
 18 19  1  0
 19 20  1  0
 20 21  2  0
 21 22  1  0
 22 23  2  0
 23 24  1  0
 24 25  2  0
 25 26  1  0
 26 27  1  0
 14 28  2  0
 28 29  1  0
 29 30  2  0
  7  3  1  0
 30  9  1  0
 30 12  1  0
 25 20  1  0
  1 31  1  0
  1 32  1  0
  1 33  1  0
  2 34  1  0
  2 35  1  0
  8 36  1  0
  8 37  1  0
 10 38  1  0
 10 39  1  0
 11 40  1  0
 11 41  1  0
 13 42  1  0
 19 43  1  0
 19 44  1  0
 21 45  1  0
 22 46  1  0
 23 47  1  0
 24 48  1  0
 27 49  1  0
 27 50  1  0
 27 51  1  0
 28 52  1  0
 29 53  1  0
M  CHG  1  18  -1
M  END
>  <UniqueID>  (23) 
22

>  <SMILES>  (23) 
CCn1nnnc1CN1CCc2cc(S(=O)(=O)[N-]Cc3ccccc3OC)ccc21

>  <Energy>  (23) 
103.42106873921026

>  <Genealogy>  (23) 
CCn1nnnc1CN1CCc2cc(S(=O)(=O)[N-]Cc3ccccc3OC)ccc21 (protonated)
CCn1nnnc1CN1CCc2cc(S(=O)(=O)[N-]Cc3ccccc3OC)ccc21 (3D coordinates assigned)
CCn1nnnc1CN1CCc2cc(S(=O)(=O)[N-]Cc3ccccc3OC)ccc21 (nonaromatic ring conformer: 103.42106873921026 kcal/mol)

>  <smiles>  (23) 
CCn1nnnc1CN1CCc2cc(S(=O)(=O)NCc3ccccc3OC)ccc21

>  <score_type>  (23) 
oracle

>  <origin>  (23) 
adg

>  <m_score__min__energy>  (23) 
-11.32

>  <m_primary>  (23) 
energy

$$$$
23:0
     RDKit          3D

 60 63  0  0  0  0  0  0  0  0999 V2000
   59.9850   28.6920   47.1640 C   0  0  0  0  0  0  0  0  0  0  0  0
   59.4310   29.9830   46.9290 O   0  0  0  0  0  0  0  0  0  0  0  0
   58.5090   30.2850   45.9140 C   0  0  0  0  0  0  0  0  0  0  0  0
   57.8300   29.2830   45.1940 C   0  0  0  0  0  0  0  0  0  0  0  0
   56.9170   29.6290   44.1920 C   0  0  0  0  0  0  0  0  0  0  0  0
   56.6760   30.9720   43.8970 C   0  0  0  0  0  0  0  0  0  0  0  0
   57.3440   31.9740   44.6040 C   0  0  0  0  0  0  0  0  0  0  0  0
   58.2590   31.6370   45.6100 C   0  0  0  0  0  0  0  0  0  0  0  0
   58.9310   32.6780   46.3330 N   0  0  0  0  0  0  0  0  0  0  0  0
   58.9480   32.5780   47.7950 C   0  0  0  0  0  0  0  0  0  0  0  0
   59.2810   33.9240   48.4360 C   0  0  0  0  0  0  0  0  0  0  0  0
   60.4500   34.5690   47.8130 N   0  0  0  0  0  0  0  0  0  0  0  0
   61.7770   34.2110   48.3690 C   0  0  0  0  0  0  0  0  0  0  0  0
   62.8410   33.8410   47.3120 C   0  0  0  0  0  0  0  0  0  0  0  0
   63.6450   32.6740   47.7380 N   0  0  1  0  0  0  0  0  0  0  0  0
   64.3670   32.9150   49.0160 C   0  0  0  0  0  0  0  0  0  0  0  0
   63.6810   32.0920   50.1240 C   0  0  0  0  0  0  0  0  0  0  0  0
   62.7700   31.2170   49.4200 N   0  0  0  0  0  0  0  0  0  0  0  0
   61.8770   30.2460   50.0450 C   0  0  0  0  0  0  0  0  0  0  0  0
   60.5990   30.9150   50.4760 C   0  0  0  0  0  0  0  0  0  0  0  0
   59.3620   30.2900   50.2380 C   0  0  0  0  0  0  0  0  0  0  0  0
   58.1720   30.9140   50.6240 C   0  0  0  0  0  0  0  0  0  0  0  0
   58.2080   32.1670   51.2480 C   0  0  0  0  0  0  0  0  0  0  0  0
   59.4360   32.7960   51.4880 C   0  0  0  0  0  0  0  0  0  0  0  0
   60.6280   32.1750   51.1010 C   0  0  0  0  0  0  0  0  0  0  0  0
   62.7840   31.5790   48.0570 C   0  0  0  0  0  0  0  0  0  0  0  0
   62.1050   30.9700   47.1830 O   0  0  0  0  0  0  0  0  0  0  0  0
   60.3410   34.7340   46.3530 C   0  0  0  0  0  0  0  0  0  0  0  0
   59.9700   33.4310   45.6240 C   0  0  0  0  0  0  0  0  0  0  0  0
   60.0601   28.5169   48.2474 H   0  0  0  0  0  0  0  0  0  0  0  0
   59.3360   27.9269   46.7131 H   0  0  0  0  0  0  0  0  0  0  0  0
   60.9867   28.6352   46.7131 H   0  0  0  0  0  0  0  0  0  0  0  0
   58.0184   28.2232   45.4206 H   0  0  0  0  0  0  0  0  0  0  0  0
   56.3880   28.8413   43.6355 H   0  0  0  0  0  0  0  0  0  0  0  0
   55.9594   31.2412   43.1071 H   0  0  0  0  0  0  0  0  0  0  0  0
   57.1511   33.0314   44.3703 H   0  0  0  0  0  0  0  0  0  0  0  0
   57.9579   32.2494   48.1439 H   0  0  0  0  0  0  0  0  0  0  0  0
   59.7218   31.8523   48.0859 H   0  0  0  0  0  0  0  0  0  0  0  0
   58.4120   34.5901   48.3305 H   0  0  0  0  0  0  0  0  0  0  0  0
   59.5227   33.7412   49.4934 H   0  0  0  0  0  0  0  0  0  0  0  0
   62.1505   35.0706   48.9449 H   0  0  0  0  0  0  0  0  0  0  0  0
   61.6240   33.3118   48.9839 H   0  0  0  0  0  0  0  0  0  0  0  0
   62.3357   33.6005   46.3650 H   0  0  0  0  0  0  0  0  0  0  0  0
   63.5174   34.6995   47.1876 H   0  0  0  0  0  0  0  0  0  0  0  0
   64.3080   32.3780   46.9820 H   0  0  0  0  0  0  0  0  0  0  0  0
   65.4163   32.6006   48.9151 H   0  0  0  0  0  0  0  0  0  0  0  0
   64.3415   33.9852   49.2689 H   0  0  0  0  0  0  0  0  0  0  0  0
   64.4223   31.5073   50.6884 H   0  0  0  0  0  0  0  0  0  0  0  0
   63.1639   32.7293   50.8564 H   0  0  0  0  0  0  0  0  0  0  0  0
   61.6442   29.4494   49.3230 H   0  0  0  0  0  0  0  0  0  0  0  0
   62.3738   29.8193   50.9288 H   0  0  0  0  0  0  0  0  0  0  0  0
   59.3306   29.3065   49.7463 H   0  0  0  0  0  0  0  0  0  0  0  0
   57.2069   30.4204   50.4374 H   0  0  0  0  0  0  0  0  0  0  0  0
   57.2709   32.6577   51.5499 H   0  0  0  0  0  0  0  0  0  0  0  0
   59.4631   33.7789   51.9811 H   0  0  0  0  0  0  0  0  0  0  0  0
   61.5911   32.6733   51.2859 H   0  0  0  0  0  0  0  0  0  0  0  0
   59.5659   35.4857   46.1426 H   0  0  0  0  0  0  0  0  0  0  0  0
   61.3290   35.0464   45.9837 H   0  0  0  0  0  0  0  0  0  0  0  0
   59.6028   33.6801   44.6174 H   0  0  0  0  0  0  0  0  0  0  0  0
   60.8709   32.8017   45.5763 H   0  0  0  0  0  0  0  0  0  0  0  0
  1  2  1  0
  2  3  1  0
  3  4  2  0
  4  5  1  0
  5  6  2  0
  6  7  1  0
  7  8  2  0
  8  9  1  0
  9 10  1  0
 10 11  1  0
 11 12  1  0
 12 13  1  0
 13 14  1  0
 14 15  1  0
 15 16  1  0
 16 17  1  0
 17 18  1  0
 18 19  1  0
 19 20  1  0
 20 21  2  0
 21 22  1  0
 22 23  2  0
 23 24  1  0
 24 25  2  0
 18 26  1  0
 26 27  2  0
 12 28  1  0
 28 29  1  0
  8  3  1  0
 29  9  1  0
 26 15  1  0
 25 20  1  0
  1 30  1  0
  1 31  1  0
  1 32  1  0
  4 33  1  0
  5 34  1  0
  6 35  1  0
  7 36  1  0
 10 37  1  0
 10 38  1  0
 11 39  1  0
 11 40  1  0
 13 41  1  0
 13 42  1  0
 14 43  1  0
 14 44  1  0
 15 45  1  6
 16 46  1  0
 16 47  1  0
 17 48  1  0
 17 49  1  0
 19 50  1  0
 19 51  1  0
 21 52  1  0
 22 53  1  0
 23 54  1  0
 24 55  1  0
 25 56  1  0
 28 57  1  0
 28 58  1  0
 29 59  1  0
 29 60  1  0
M  CHG  1  15   1
M  END
>  <UniqueID>  (24) 
23

>  <SMILES>  (24) 
COc1ccccc1N1CCN(CC[N@H+]2CCN(Cc3ccccc3)C2=O)CC1

>  <Energy>  (24) 
83.3378988101404

>  <Genealogy>  (24) 
COc1ccccc1N1CCN(CC[NH+]2CCN(Cc3ccccc3)C2=O)CC1 (protonated)
COc1ccccc1N1CCN(CC[N@H+]2CCN(Cc3ccccc3)C2=O)CC1 (chirality)
COc1ccccc1N1CCN(CC[N@H+]2CCN(Cc3ccccc3)C2=O)CC1 (3D coordinates assigned)
COc1ccccc1N1CCN(CC[N@H+]2CCN(Cc3ccccc3)C2=O)CC1 (nonaromatic ring conformer: 83.3378988101404 kcal/mol)

>  <smiles>  (24) 
COc1ccccc1N1CCN(CCN2CCN(Cc3ccccc3)C2=O)CC1

>  <score_type>  (24) 
oracle

>  <origin>  (24) 
adg

>  <m_score__min__energy>  (24) 
-6.9800000000000004

>  <m_primary>  (24) 
energy

$$$$
24:0
     RDKit          3D

 35 37  0  0  0  0  0  0  0  0999 V2000
   61.8693   29.5132   45.4921 H   0  0  0  0  0  0  0  0  0  0  0  0
   61.0860   29.8680   46.1780 C   0  0  0  0  0  0  0  0  0  0  0  0
   59.9660   29.1380   46.2920 C   0  0  0  0  0  0  0  0  0  0  0  0
   59.8800   27.8730   47.0200 C   0  0  0  0  0  0  0  0  0  0  0  0
   60.7910   27.3510   47.7180 O   0  0  0  0  0  0  0  0  0  0  0  0
   58.5700   27.3130   46.7860 C   0  0  0  0  0  0  0  0  0  0  0  0
   58.0250   26.1200   47.2570 C   0  0  0  0  0  0  0  0  0  0  0  0
   58.6085   25.4550   47.9107 H   0  0  0  0  0  0  0  0  0  0  0  0
   56.7050   25.7830   46.8760 C   0  0  0  0  0  0  0  0  0  0  0  0
   56.0830   24.6010   47.3080 O   0  0  0  0  0  0  0  0  0  0  0  0
   55.5630   23.6020   46.4370 C   0  0  0  0  0  0  0  0  0  0  0  0
   55.1361   22.7819   47.0331 H   0  0  0  0  0  0  0  0  0  0  0  0
   54.7789   24.0408   45.8025 H   0  0  0  0  0  0  0  0  0  0  0  0
   56.3722   23.2114   45.8025 H   0  0  0  0  0  0  0  0  0  0  0  0
   55.9810   26.6570   46.0350 C   0  0  0  0  0  0  0  0  0  0  0  0
   54.6820   26.3360   45.6560 O   0  0  0  0  0  0  0  0  0  0  0  0
   56.5590   27.8530   45.5760 C   0  0  0  0  0  0  0  0  0  0  0  0
   55.9929   28.5330   44.9225 H   0  0  0  0  0  0  0  0  0  0  0  0
   57.8620   28.1630   45.9630 C   0  0  0  0  0  0  0  0  0  0  0  0
   58.6500   29.3850   45.5900 C   0  0  0  0  0  0  0  0  0  0  0  0
   58.7854   29.4559   44.5007 H   0  0  0  0  0  0  0  0  0  0  0  0
   58.1651   30.3297   45.8771 H   0  0  0  0  0  0  0  0  0  0  0  0
   61.3260   31.1200   46.9210 C   0  0  0  0  0  0  0  0  0  0  0  0
   62.4400   31.2680   47.7640 C   0  0  0  0  0  0  0  0  0  0  0  0
   63.1434   30.4325   47.8952 H   0  0  0  0  0  0  0  0  0  0  0  0
   62.6570   32.4730   48.4360 C   0  0  0  0  0  0  0  0  0  0  0  0
   63.5227   32.5782   49.1065 H   0  0  0  0  0  0  0  0  0  0  0  0
   61.7790   33.5450   48.2600 C   0  0  0  0  0  0  0  0  0  0  0  0
   61.9521   34.4878   48.7996 H   0  0  0  0  0  0  0  0  0  0  0  0
   60.6750   33.4260   47.3970 C   0  0  0  0  0  0  0  0  0  0  0  0
   59.7740   34.5330   47.2010 N   0  0  0  0  0  0  0  0  0  0  0  0
   59.0690   34.9520   48.1420 O   0  0  0  0  0  0  0  0  0  0  0  0
   59.6760   35.1470   45.9740 O   0  0  0  0  0  0  0  0  0  0  0  0
   60.4630   32.2090   46.7230 C   0  0  0  0  0  0  0  0  0  0  0  0
   59.6117   32.1101   46.0335 H   0  0  0  0  0  0  0  0  0  0  0  0
  1  2  1  0
  2  3  2  0
  3  4  1  0
  4  5  2  0
  4  6  1  0
  6  7  2  0
  7  8  1  0
  7  9  1  0
  9 10  1  0
 10 11  1  0
 11 12  1  0
 11 13  1  0
 11 14  1  0
  9 15  2  0
 15 16  1  0
 15 17  1  0
 17 18  1  0
 17 19  2  0
 19 20  1  0
 20 21  1  0
 20 22  1  0
  2 23  1  0
 23 24  2  0
 24 25  1  0
 24 26  1  0
 26 27  1  0
 26 28  2  0
 28 29  1  0
 28 30  1  0
 30 31  1  0
 31 32  2  0
 31 33  1  0
 30 34  2  0
 34 35  1  0
 20  3  1  0
 34 23  1  0
 19  6  1  0
M  CHG  3  16  -1  31   1  33  -1
M  END
>  <UniqueID>  (25) 
24

>  <SMILES>  (25) 
COc1cc2c(cc1[O-])C/C(=C\c1cccc([N+](=O)[O-])c1)C2=O

>  <Energy>  (25) 
62.42876613548891

>  <Genealogy>  (25) 
COc1cc2c(cc1[O-])CC(=Cc1cccc([N+](=O)[O-])c1)C2=O (protonated)
COc1cc2c(cc1[O-])C/C(=C\c1cccc([N+](=O)[O-])c1)C2=O (cis-trans isomerization)
COc1cc2c(cc1[O-])C/C(=C\c1cccc([N+](=O)[O-])c1)C2=O (3D coordinates assigned)
COc1cc2c(cc1[O-])C/C(=C\c1cccc([N+](=O)[O-])c1)C2=O (nonaromatic ring conformer: 62.42876613548891 kcal/mol)

>  <smiles>  (25) 
COc1cc2c(cc1O)CC(=Cc1cccc([N+](=O)[O-])c1)C2=O

>  <score_type>  (25) 
oracle

>  <origin>  (25) 
adg

>  <m_score__min__energy>  (25) 
-10.58

>  <m_primary>  (25) 
energy

$$$$
25:0
     RDKit          3D

 52 55  0  0  0  0  0  0  0  0999 V2000
   55.6050   23.1230   47.6560 C   0  0  0  0  0  0  0  0  0  0  0  0
   56.3300   24.4550   47.4830 C   0  0  0  0  0  0  0  0  0  0  0  0
   55.7930   25.1630   46.3820 O   0  0  0  0  0  0  0  0  0  0  0  0
   56.5360   24.8980   45.2090 C   0  0  0  0  0  0  0  0  0  0  0  0
   57.9450   25.4640   45.3660 C   0  0  0  0  0  0  0  0  0  0  0  0
   57.9170   26.9190   45.2620 N   0  0  0  0  0  0  0  0  0  0  0  0
   58.5190   27.7810   46.1160 C   0  0  0  0  0  0  0  0  0  0  0  0
   58.3440   29.0440   45.6010 C   0  0  0  0  0  0  0  0  0  0  0  0
   58.7660   30.2940   46.0400 C   0  0  0  0  0  0  0  0  0  0  0  0
   58.4410   31.4200   45.2440 C   0  0  0  0  0  0  0  0  0  0  0  0
   58.8710   32.7780   45.6580 C   0  0  0  0  0  0  0  0  0  0  0  0
   58.6420   33.8910   44.8300 C   0  0  0  0  0  0  0  0  0  0  0  0
   59.0600   35.1270   45.2100 N   0  0  0  0  0  0  0  0  0  0  0  0
   59.6980   35.3370   46.3920 C   0  0  0  0  0  0  0  0  0  0  0  0
   59.9360   34.2680   47.2640 C   0  0  0  0  0  0  0  0  0  0  0  0
   60.6760   34.4890   48.5560 C   0  0  0  0  0  0  0  0  0  0  0  0
   62.0590   33.9860   48.4460 N   0  0  0  0  0  0  0  0  0  0  0  0
   62.5070   33.8560   47.0540 C   0  0  0  0  0  0  0  0  0  0  0  0
   63.5160   32.7140   47.0090 C   0  0  0  0  0  0  0  0  0  0  0  0
   63.3890   32.0050   48.3480 C   0  0  0  0  0  0  0  0  0  0  0  0
   62.1890   32.6460   49.0210 C   0  0  0  0  0  0  0  0  0  0  0  0
   59.5240   32.9820   46.8840 C   0  0  0  0  0  0  0  0  0  0  0  0
   57.7030   31.2350   44.0400 C   0  0  0  0  0  0  0  0  0  0  0  0
   57.2980   29.9510   43.6310 C   0  0  0  0  0  0  0  0  0  0  0  0
   57.6390   28.8750   44.4430 C   0  0  0  0  0  0  0  0  0  0  0  0
   57.3850   27.5720   44.2330 N   0  0  0  0  0  0  0  0  0  0  0  0
   55.4870   22.9063   48.7280 H   0  0  0  0  0  0  0  0  0  0  0  0
   54.6139   23.1808   47.1824 H   0  0  0  0  0  0  0  0  0  0  0  0
   56.1916   22.3220   47.1824 H   0  0  0  0  0  0  0  0  0  0  0  0
   56.2086   25.0563   48.3961 H   0  0  0  0  0  0  0  0  0  0  0  0
   57.3974   24.2621   47.3002 H   0  0  0  0  0  0  0  0  0  0  0  0
   56.5923   23.8114   45.0473 H   0  0  0  0  0  0  0  0  0  0  0  0
   56.0433   25.3698   44.3461 H   0  0  0  0  0  0  0  0  0  0  0  0
   58.3443   25.1775   46.3501 H   0  0  0  0  0  0  0  0  0  0  0  0
   58.5858   25.0590   44.5689 H   0  0  0  0  0  0  0  0  0  0  0  0
   59.0474   27.5203   47.0449 H   0  0  0  0  0  0  0  0  0  0  0  0
   59.3340   30.4051   46.9754 H   0  0  0  0  0  0  0  0  0  0  0  0
   58.1218   33.7606   43.8696 H   0  0  0  0  0  0  0  0  0  0  0  0
   60.0283   36.3503   46.6641 H   0  0  0  0  0  0  0  0  0  0  0  0
   60.6981   35.5653   48.7821 H   0  0  0  0  0  0  0  0  0  0  0  0
   60.1603   33.9455   49.3614 H   0  0  0  0  0  0  0  0  0  0  0  0
   61.6506   33.6280   46.4024 H   0  0  0  0  0  0  0  0  0  0  0  0
   62.9626   34.7932   46.7017 H   0  0  0  0  0  0  0  0  0  0  0  0
   63.2794   32.0245   46.1852 H   0  0  0  0  0  0  0  0  0  0  0  0
   64.5389   33.0804   46.8372 H   0  0  0  0  0  0  0  0  0  0  0  0
   63.2198   30.9281   48.2005 H   0  0  0  0  0  0  0  0  0  0  0  0
   64.3020   32.1008   48.9540 H   0  0  0  0  0  0  0  0  0  0  0  0
   61.2816   32.0570   48.8219 H   0  0  0  0  0  0  0  0  0  0  0  0
   62.3211   32.6915   50.1121 H   0  0  0  0  0  0  0  0  0  0  0  0
   59.7138   32.1280   47.5508 H   0  0  0  0  0  0  0  0  0  0  0  0
   57.4462   32.1076   43.4215 H   0  0  0  0  0  0  0  0  0  0  0  0
   56.7307   29.8034   42.7002 H   0  0  0  0  0  0  0  0  0  0  0  0
  1  2  1  0
  2  3  1  0
  3  4  1  0
  4  5  1  0
  5  6  1  0
  6  7  1  0
  7  8  2  0
  8  9  1  0
  9 10  2  0
 10 11  1  0
 11 12  2  0
 12 13  1  0
 13 14  2  0
 14 15  1  0
 15 16  1  0
 16 17  1  0
 17 18  1  0
 18 19  1  0
 19 20  1  0
 20 21  1  0
 15 22  2  0
 10 23  1  0
 23 24  2  0
 24 25  1  0
 25 26  2  0
 26  6  1  0
 25  8  1  0
 22 11  1  0
 21 17  1  0
  1 27  1  0
  1 28  1  0
  1 29  1  0
  2 30  1  0
  2 31  1  0
  4 32  1  0
  4 33  1  0
  5 34  1  0
  5 35  1  0
  7 36  1  0
  9 37  1  0
 12 38  1  0
 14 39  1  0
 16 40  1  0
 16 41  1  0
 18 42  1  0
 18 43  1  0
 19 44  1  0
 19 45  1  0
 20 46  1  0
 20 47  1  0
 21 48  1  0
 21 49  1  0
 22 50  1  0
 23 51  1  0
 24 52  1  0
M  END
>  <UniqueID>  (26) 
25

>  <SMILES>  (26) 
CCOCCn1cc2cc(-c3cncc(CN4CCCC4)c3)ccc2n1

>  <Energy>  (26) 
95.59955520523332

>  <Genealogy>  (26) 
CCOCCn1cc2cc(-c3cncc(CN4CCCC4)c3)ccc2n1 (3D coordinates assigned)
CCOCCn1cc2cc(-c3cncc(CN4CCCC4)c3)ccc2n1 (nonaromatic ring conformer: 95.59955520523332 kcal/mol)

>  <smiles>  (26) 
CCOCCn1cc2cc(-c3cncc(CN4CCCC4)c3)ccc2n1

>  <score_type>  (26) 
oracle

>  <origin>  (26) 
adg

>  <m_score__min__energy>  (26) 
-8.3800000000000008

>  <m_primary>  (26) 
energy

$$$$
26:0
     RDKit          3D

 24 26  0  0  0  0  0  0  0  0999 V2000
   57.9710   32.3440   41.1200 C   0  0  0  0  0  0  0  0  0  0  0  0
   57.9880   32.3860   42.6160 C   0  0  0  0  0  0  0  0  0  0  0  0
   58.5860   33.4250   43.2640 N   0  0  0  0  0  0  0  0  0  0  0  0
   58.6170   33.4900   44.6290 C   0  0  0  0  0  0  0  0  0  0  0  0
   59.2370   34.5710   45.2650 C   0  0  0  0  0  0  0  0  0  0  0  0
   59.2700   34.6380   46.6610 C   0  0  0  0  0  0  0  0  0  0  0  0
   58.6830   33.6280   47.4290 C   0  0  0  0  0  0  0  0  0  0  0  0
   58.0580   32.5410   46.8090 C   0  0  0  0  0  0  0  0  0  0  0  0
   58.0210   32.4650   45.4080 C   0  0  0  0  0  0  0  0  0  0  0  0
   57.4170   31.4140   44.7050 C   0  0  0  0  0  0  0  0  0  0  0  0
   56.7920   30.3360   45.2230 N   0  0  0  0  0  0  0  0  0  0  0  0
   56.3850   29.6230   44.1480 C   0  0  0  0  0  0  0  0  0  0  0  0
   56.7710   30.2810   42.9910 C   0  0  0  0  0  0  0  0  0  0  0  0
   57.4160   31.4020   43.3620 N   0  0  0  0  0  0  0  0  0  0  0  0
   57.5779   31.3728   40.7849 H   0  0  0  0  0  0  0  0  0  0  0  0
   57.3287   33.1511   40.7378 H   0  0  0  0  0  0  0  0  0  0  0  0
   58.9938   32.4772   40.7378 H   0  0  0  0  0  0  0  0  0  0  0  0
   59.6992   35.3693   44.6658 H   0  0  0  0  0  0  0  0  0  0  0  0
   59.7598   35.4888   47.1572 H   0  0  0  0  0  0  0  0  0  0  0  0
   58.7128   33.6885   48.5269 H   0  0  0  0  0  0  0  0  0  0  0  0
   57.5972   31.7487   47.4172 H   0  0  0  0  0  0  0  0  0  0  0  0
   56.6430   30.0870   46.2240 H   0  0  0  0  0  0  0  0  0  0  0  0
   55.8346   28.6713   44.1861 H   0  0  0  0  0  0  0  0  0  0  0  0
   56.5844   29.9481   41.9593 H   0  0  0  0  0  0  0  0  0  0  0  0
  1  2  1  0
  2  3  2  0
  3  4  1  0
  4  5  2  0
  5  6  1  0
  6  7  2  0
  7  8  1  0
  8  9  2  0
  9 10  1  0
 10 11  2  0
 11 12  1  0
 12 13  2  0
 13 14  1  0
 14  2  1  0
  9  4  1  0
 14 10  1  0
  1 15  1  0
  1 16  1  0
  1 17  1  0
  5 18  1  0
  6 19  1  0
  7 20  1  0
  8 21  1  0
 11 22  1  0
 12 23  1  0
 13 24  1  0
M  CHG  1  11   1
M  END
>  <UniqueID>  (27) 
26

>  <SMILES>  (27) 
Cc1nc2ccccc2c2[nH+]ccn12

>  <Energy>  (27) 
65.4174664588512

>  <Genealogy>  (27) 
Cc1nc2ccccc2c2[nH+]ccn12 (protonated)
Cc1nc2ccccc2c2[nH+]ccn12 (3D coordinates assigned)
Cc1nc2ccccc2c2[nH+]ccn12 (optimized conformer: 65.4174664588512 kcal/mol)

>  <smiles>  (27) 
Cc1nc2ccccc2c2nccn12

>  <score_type>  (27) 
oracle

>  <origin>  (27) 
adg

>  <m_score__min__energy>  (27) 
-4.3600000000000003

>  <m_primary>  (27) 
energy

$$$$
27:0
     RDKit          3D

 31 33  0  0  0  0  0  0  0  0999 V2000
   58.1710   29.1110   46.4660 C   0  0  0  0  0  0  0  0  0  0  0  0
   57.1760   29.9930   45.9550 O   0  0  0  0  0  0  0  0  0  0  0  0
   57.2010   30.5680   44.6740 C   0  0  0  0  0  0  0  0  0  0  0  0
   56.5910   29.9410   43.5680 C   0  0  0  0  0  0  0  0  0  0  0  0
   56.6510   30.5250   42.3010 C   0  0  0  0  0  0  0  0  0  0  0  0
   57.3150   31.7380   42.1200 C   0  0  0  0  0  0  0  0  0  0  0  0
   57.9210   32.3730   43.2060 C   0  0  0  0  0  0  0  0  0  0  0  0
   57.8680   31.7980   44.4880 C   0  0  0  0  0  0  0  0  0  0  0  0
   58.5030   32.5000   45.6310 C   0  0  0  0  0  0  0  0  0  0  0  0
   59.8200   32.1930   45.9990 C   0  0  0  0  0  0  0  0  0  0  0  0
   60.4080   32.8490   47.0840 C   0  0  0  0  0  0  0  0  0  0  0  0
   61.7220   32.5700   47.4850 C   0  0  0  0  0  0  0  0  0  0  0  0
   62.2770   33.2490   48.5770 C   0  0  0  0  0  0  0  0  0  0  0  0
   63.9210   32.9010   49.0810 Cl  0  0  0  0  0  0  0  0  0  0  0  0
   61.5210   34.2020   49.2690 C   0  0  0  0  0  0  0  0  0  0  0  0
   60.2100   34.4820   48.8730 C   0  0  0  0  0  0  0  0  0  0  0  0
   59.6470   33.8100   47.7820 C   0  0  0  0  0  0  0  0  0  0  0  0
   58.4010   34.0790   47.4070 O   0  0  0  0  0  0  0  0  0  0  0  0
   57.8110   33.4740   46.3790 C   0  0  0  0  0  0  0  0  0  0  0  0
   56.6310   33.7940   46.0760 O   0  0  0  0  0  0  0  0  0  0  0  0
   58.1487   29.1308   47.5656 H   0  0  0  0  0  0  0  0  0  0  0  0
   57.9706   28.0885   46.1135 H   0  0  0  0  0  0  0  0  0  0  0  0
   59.1621   29.4327   46.1135 H   0  0  0  0  0  0  0  0  0  0  0  0
   56.0641   28.9850   43.7043 H   0  0  0  0  0  0  0  0  0  0  0  0
   56.1736   30.0273   41.4440 H   0  0  0  0  0  0  0  0  0  0  0  0
   57.3614   32.1951   41.1205 H   0  0  0  0  0  0  0  0  0  0  0  0
   58.4434   33.3296   43.0575 H   0  0  0  0  0  0  0  0  0  0  0  0
   60.3888   31.4385   45.4359 H   0  0  0  0  0  0  0  0  0  0  0  0
   62.3160   31.8193   46.9431 H   0  0  0  0  0  0  0  0  0  0  0  0
   61.9598   34.7323   50.1271 H   0  0  0  0  0  0  0  0  0  0  0  0
   59.6197   35.2319   49.4199 H   0  0  0  0  0  0  0  0  0  0  0  0
  1  2  1  0
  2  3  1  0
  3  4  2  0
  4  5  1  0
  5  6  2  0
  6  7  1  0
  7  8  2  0
  8  9  1  0
  9 10  2  0
 10 11  1  0
 11 12  2  0
 12 13  1  0
 13 14  1  0
 13 15  2  0
 15 16  1  0
 16 17  2  0
 17 18  1  0
 18 19  1  0
 19 20  2  0
  8  3  1  0
 19  9  1  0
 17 11  1  0
  1 21  1  0
  1 22  1  0
  1 23  1  0
  4 24  1  0
  5 25  1  0
  6 26  1  0
  7 27  1  0
 10 28  1  0
 12 29  1  0
 15 30  1  0
 16 31  1  0
M  END
>  <UniqueID>  (28) 
27

>  <SMILES>  (28) 
COc1ccccc1-c1cc2cc(Cl)ccc2oc1=O

>  <Energy>  (28) 
44.6834774230673

>  <Genealogy>  (28) 
COc1ccccc1-c1cc2cc(Cl)ccc2oc1=O (3D coordinates assigned)
COc1ccccc1-c1cc2cc(Cl)ccc2oc1=O (optimized conformer: 44.6834774230673 kcal/mol)

>  <smiles>  (28) 
COc1ccccc1-c1cc2cc(Cl)ccc2oc1=O

>  <score_type>  (28) 
oracle

>  <origin>  (28) 
adg

>  <m_score__min__energy>  (28) 
-7.2300000000000004

>  <m_primary>  (28) 
energy

$$$$
28:0
     RDKit          3D

 95101  0  0  0  0  0  0  0  0999 V2000
   58.0370   32.7480   43.0930 C   0  0  0  0  0  0  0  0  0  0  0  0
   58.0960   32.7560   44.5950 C   0  0  0  0  0  0  0  0  0  0  0  0
   57.9530   33.9710   45.2850 C   0  0  0  0  0  0  0  0  0  0  0  0
   58.0130   34.0030   46.6800 C   0  0  0  0  0  0  0  0  0  0  0  0
   58.2120   32.8220   47.4000 C   0  0  0  0  0  0  0  0  0  0  0  0
   58.3290   31.6040   46.7280 C   0  0  0  0  0  0  0  0  0  0  0  0
   58.2640   31.5580   45.3290 C   0  0  0  0  0  0  0  0  0  0  0  0
   58.3610   30.2920   44.6640 N   0  0  0  0  0  0  0  0  0  0  0  0
   57.1460   29.6370   44.1750 C   0  0  0  0  0  0  0  0  0  0  0  0
   57.4740   28.4040   43.3060 C   0  0  0  0  0  0  0  0  0  0  0  0
   58.5470   27.5190   43.8560 N   0  0  0  0  0  0  0  0  0  0  0  0
   58.0250   26.2650   44.4500 C   0  0  0  0  0  0  0  0  0  0  0  0
   57.0200   26.4700   45.6100 C   0  0  0  0  0  0  0  0  0  0  0  0
   57.5230   25.8610   46.8480 N   0  0  0  0  0  0  0  0  0  0  0  0
   58.9870   25.9010   46.9480 C   0  0  0  0  0  0  0  0  0  0  0  0
   59.3650   26.9950   47.8990 C   0  0  0  0  0  0  0  0  0  0  0  0
   58.8600   28.2940   47.7250 C   0  0  0  0  0  0  0  0  0  0  0  0
   59.3390   29.3480   48.5090 C   0  0  0  0  0  0  0  0  0  0  0  0
   60.3410   29.1220   49.4660 C   0  0  0  0  0  0  0  0  0  0  0  0
   60.9480   30.2680   50.2340 C   0  0  0  0  0  0  0  0  0  0  0  0
   59.8980   31.2700   50.5680 N   0  0  0  0  0  0  0  0  0  0  0  0
   60.4090   32.4370   51.3700 C   0  0  2  0  0  0  0  0  0  0  0  0
   59.6790   33.7730   51.0580 C   0  0  0  0  0  0  0  0  0  0  0  0
   59.9970   34.3870   49.6670 C   0  0  0  0  0  0  0  0  0  0  0  0
   61.2010   33.7940   48.9650 C   0  0  0  0  0  0  0  0  0  0  0  0
   61.4090   34.0640   47.6030 C   0  0  0  0  0  0  0  0  0  0  0  0
   62.5350   33.5590   46.9450 C   0  0  0  0  0  0  0  0  0  0  0  0
   62.7230   33.8180   45.6260 F   0  0  0  0  0  0  0  0  0  0  0  0
   63.4690   32.7930   47.6460 C   0  0  0  0  0  0  0  0  0  0  0  0
   63.2760   32.5210   49.0040 C   0  0  0  0  0  0  0  0  0  0  0  0
   62.1390   33.0110   49.6650 C   0  0  0  0  0  0  0  0  0  0  0  0
   61.9120   32.7260   51.1190 C   0  0  0  0  0  0  0  0  0  0  0  0
   58.6570   30.5690   51.0540 C   0  0  2  0  0  0  0  0  0  0  0  0
   57.4240   31.5050   50.9180 C   0  0  0  0  0  0  0  0  0  0  0  0
   56.5780   31.6670   52.1900 C   0  0  0  0  0  0  0  0  0  0  0  0
   56.3700   30.3350   52.9020 C   0  0  0  0  0  0  0  0  0  0  0  0
   57.6950   29.7240   53.2580 C   0  0  0  0  0  0  0  0  0  0  0  0
   57.8230   28.9400   54.4160 C   0  0  0  0  0  0  0  0  0  0  0  0
   59.0210   28.2790   54.6820 C   0  0  0  0  0  0  0  0  0  0  0  0
   60.0760   28.3860   53.7740 C   0  0  0  0  0  0  0  0  0  0  0  0
   59.9310   29.1330   52.6480 N   0  0  0  0  0  0  0  0  0  0  0  0
   58.7930   29.8340   52.3800 C   0  0  0  0  0  0  0  0  0  0  0  0
   60.8330   27.8180   49.6500 C   0  0  0  0  0  0  0  0  0  0  0  0
   60.3550   26.7650   48.8690 C   0  0  0  0  0  0  0  0  0  0  0  0
   59.5340   28.1780   44.7540 C   0  0  0  0  0  0  0  0  0  0  0  0
   59.6650   29.6680   44.4660 C   0  0  0  0  0  0  0  0  0  0  0  0
   56.9957   32.6068   42.7677 H   0  0  0  0  0  0  0  0  0  0  0  0
   58.4154   33.7057   42.7061 H   0  0  0  0  0  0  0  0  0  0  0  0
   58.6567   31.9257   42.7061 H   0  0  0  0  0  0  0  0  0  0  0  0
   57.7928   34.9031   44.7232 H   0  0  0  0  0  0  0  0  0  0  0  0
   57.9035   34.9592   47.2127 H   0  0  0  0  0  0  0  0  0  0  0  0
   58.2765   32.8521   48.4977 H   0  0  0  0  0  0  0  0  0  0  0  0
   58.4730   30.6754   47.2998 H   0  0  0  0  0  0  0  0  0  0  0  0
   56.5424   29.3158   45.0367 H   0  0  0  0  0  0  0  0  0  0  0  0
   56.5934   30.3576   43.5542 H   0  0  0  0  0  0  0  0  0  0  0  0
   56.5571   27.8056   43.2004 H   0  0  0  0  0  0  0  0  0  0  0  0
   57.8513   28.7908   42.3479 H   0  0  0  0  0  0  0  0  0  0  0  0
   59.1030   27.2060   43.0190 H   0  0  0  0  0  0  0  0  0  0  0  0
   57.5211   25.6935   43.6566 H   0  0  0  0  0  0  0  0  0  0  0  0
   58.8912   25.7388   44.8777 H   0  0  0  0  0  0  0  0  0  0  0  0
   56.8714   27.5477   45.7725 H   0  0  0  0  0  0  0  0  0  0  0  0
   56.0679   25.9890   45.3414 H   0  0  0  0  0  0  0  0  0  0  0  0
   57.2250   24.8570   46.8600 H   0  0  0  0  0  0  0  0  0  0  0  0
   59.3604   24.9368   47.3232 H   0  0  0  0  0  0  0  0  0  0  0  0
   59.4289   26.0901   45.9586 H   0  0  0  0  0  0  0  0  0  0  0  0
   58.0841   28.4830   46.9685 H   0  0  0  0  0  0  0  0  0  0  0  0
   58.9285   30.3597   48.3752 H   0  0  0  0  0  0  0  0  0  0  0  0
   61.3965   29.8868   51.1632 H   0  0  0  0  0  0  0  0  0  0  0  0
   61.7213   30.7476   49.6159 H   0  0  0  0  0  0  0  0  0  0  0  0
   60.2237   32.1231   52.4078 H   0  0  0  0  0  0  0  0  0  0  0  0
   58.5956   33.5899   51.1103 H   0  0  0  0  0  0  0  0  0  0  0  0
   60.0364   34.4992   51.8029 H   0  0  0  0  0  0  0  0  0  0  0  0
   59.1190   34.2406   49.0207 H   0  0  0  0  0  0  0  0  0  0  0  0
   60.2364   35.4456   49.8460 H   0  0  0  0  0  0  0  0  0  0  0  0
   60.6817   34.6766   47.0500 H   0  0  0  0  0  0  0  0  0  0  0  0
   64.3581   32.4029   47.1289 H   0  0  0  0  0  0  0  0  0  0  0  0
   64.0163   31.9222   49.5549 H   0  0  0  0  0  0  0  0  0  0  0  0
   62.5069   31.8499   51.4165 H   0  0  0  0  0  0  0  0  0  0  0  0
   62.2174   33.6005   51.7122 H   0  0  0  0  0  0  0  0  0  0  0  0
   58.4820   29.7160   50.3819 H   0  0  0  0  0  0  0  0  0  0  0  0
   57.7847   32.5008   50.6209 H   0  0  0  0  0  0  0  0  0  0  0  0
   56.7656   31.0338   50.1733 H   0  0  0  0  0  0  0  0  0  0  0  0
   57.0905   32.3602   52.8732 H   0  0  0  0  0  0  0  0  0  0  0  0
   55.5919   32.0579   51.8987 H   0  0  0  0  0  0  0  0  0  0  0  0
   55.7881   30.5011   53.8206 H   0  0  0  0  0  0  0  0  0  0  0  0
   55.8280   29.6511   52.2322 H   0  0  0  0  0  0  0  0  0  0  0  0
   56.9775   28.8475   55.1135 H   0  0  0  0  0  0  0  0  0  0  0  0
   59.1339   27.6796   55.5974 H   0  0  0  0  0  0  0  0  0  0  0  0
   61.0250   27.8655   53.9700 H   0  0  0  0  0  0  0  0  0  0  0  0
   61.6000   27.6264   50.4149 H   0  0  0  0  0  0  0  0  0  0  0  0
   60.7550   25.7505   49.0134 H   0  0  0  0  0  0  0  0  0  0  0  0
   59.2089   28.0455   45.7965 H   0  0  0  0  0  0  0  0  0  0  0  0
   60.5149   27.7117   44.5796 H   0  0  0  0  0  0  0  0  0  0  0  0
   60.3991   30.1158   45.1520 H   0  0  0  0  0  0  0  0  0  0  0  0
   60.0056   29.8244   43.4318 H   0  0  0  0  0  0  0  0  0  0  0  0
  1  2  1  0
  2  3  2  0
  3  4  1  0
  4  5  2  0
  5  6  1  0
  6  7  2  0
  7  8  1  0
  8  9  1  0
  9 10  1  0
 10 11  1  0
 11 12  1  0
 12 13  1  0
 13 14  1  0
 14 15  1  0
 15 16  1  0
 16 17  2  0
 17 18  1  0
 18 19  2  0
 19 20  1  0
 20 21  1  0
 21 22  1  0
 22 23  1  0
 23 24  1  0
 24 25  1  0
 25 26  2  0
 26 27  1  0
 27 28  1  0
 27 29  2  0
 29 30  1  0
 30 31  2  0
 31 32  1  0
 21 33  1  0
 33 34  1  0
 34 35  1  0
 35 36  1  0
 36 37  1  0
 37 38  2  0
 38 39  1  0
 39 40  2  0
 40 41  1  0
 41 42  2  0
 19 43  1  0
 43 44  2  0
 11 45  1  0
 45 46  1  0
  7  2  1  0
 46  8  1  0
 44 16  1  0
 32 22  1  0
 42 33  1  0
 31 25  1  0
 42 37  1  0
  1 47  1  0
  1 48  1  0
  1 49  1  0
  3 50  1  0
  4 51  1  0
  5 52  1  0
  6 53  1  0
  9 54  1  0
  9 55  1  0
 10 56  1  0
 10 57  1  0
 11 58  1  0
 12 59  1  0
 12 60  1  0
 13 61  1  0
 13 62  1  0
 14 63  1  0
 15 64  1  0
 15 65  1  0
 17 66  1  0
 18 67  1  0
 20 68  1  0
 20 69  1  0
 22 70  1  1
 23 71  1  0
 23 72  1  0
 24 73  1  0
 24 74  1  0
 26 75  1  0
 29 76  1  0
 30 77  1  0
 32 78  1  0
 32 79  1  0
 33 80  1  6
 34 81  1  0
 34 82  1  0
 35 83  1  0
 35 84  1  0
 36 85  1  0
 36 86  1  0
 38 87  1  0
 39 88  1  0
 40 89  1  0
 43 90  1  0
 44 91  1  0
 45 92  1  0
 45 93  1  0
 46 94  1  0
 46 95  1  0
M  CHG  1  11   1
M  END
>  <UniqueID>  (29) 
28

>  <SMILES>  (29) 
Cc1ccccc1N1CC[NH+](CCNCc2ccc(CN([C@@H]3CCc4cc(F)ccc4C3)[C@@H]3CCCc4cccnc43)cc2)CC1

>  <Energy>  (29) 
145.75455725009095

>  <Genealogy>  (29) 
Cc1ccccc1N1CC[NH+](CCNCc2ccc(CN(C3CCc4cc(F)ccc4C3)C3CCCc4cccnc43)cc2)CC1 (protonated)
Cc1ccccc1N1CC[NH+](CCNCc2ccc(CN([C@@H]3CCc4cc(F)ccc4C3)[C@@H]3CCCc4cccnc43)cc2)CC1 (chirality)
Cc1ccccc1N1CC[NH+](CCNCc2ccc(CN([C@@H]3CCc4cc(F)ccc4C3)[C@@H]3CCCc4cccnc43)cc2)CC1 (3D coordinates assigned)
Cc1ccccc1N1CC[NH+](CCNCc2ccc(CN([C@@H]3CCc4cc(F)ccc4C3)[C@@H]3CCCc4cccnc43)cc2)CC1 (nonaromatic ring conformer: 145.75455725009095 kcal/mol)

>  <smiles>  (29) 
Cc1ccccc1N1CCN(CCNCc2ccc(CN(C3CCc4cc(F)ccc4C3)C3CCCc4cccnc43)cc2)CC1

>  <score_type>  (29) 
oracle

>  <origin>  (29) 
adg

>  <m_score__min__energy>  (29) 
-8.75

>  <m_primary>  (29) 
energy

$$$$
29:0
     RDKit          3D

 46 48  0  0  1  0  0  0  0  0999 V2000
   56.9250   34.1880   45.2230 C   0  0  0  0  0  0  0  0  0  0  0  0
   58.1750   33.9670   46.0190 C   0  0  0  0  0  0  0  0  0  0  0  0
   58.2220   33.0410   46.9910 N   0  0  0  0  0  0  0  0  0  0  0  0
   59.3490   32.8430   47.7090 C   0  0  0  0  0  0  0  0  0  0  0  0
   59.3290   31.9870   48.6260 N   0  0  0  0  0  0  0  0  0  0  0  0
   60.3070   30.9860   48.8500 C   0  0  0  0  0  0  0  0  0  0  0  0
   59.4150   29.7000   48.5840 C   0  0  0  0  0  0  0  0  0  0  0  0
   58.4600   29.9670   47.5550 N   0  0  0  0  0  0  0  0  0  0  0  0
   59.1900   29.5190   46.0340 S   0  0  0  0  0  0  0  0  0  0  0  0
   60.5510   30.2010   46.0160 O   0  0  0  0  0  0  0  0  0  0  0  0
   59.4530   28.0620   45.9670 O   0  0  0  0  0  0  0  0  0  0  0  0
   58.2450   30.0950   44.6790 C   0  0  0  0  0  0  0  0  0  0  0  0
   58.4680   31.3150   44.0730 C   0  0  0  0  0  0  0  0  0  0  0  0
   57.6500   31.6720   42.9960 C   0  0  0  0  0  0  0  0  0  0  0  0
   56.6560   30.8230   42.5630 C   0  0  0  0  0  0  0  0  0  0  0  0
   56.4230   29.5980   43.1620 C   0  0  0  0  0  0  0  0  0  0  0  0
   57.2270   29.2550   44.2150 C   0  0  0  0  0  0  0  0  0  0  0  0
   60.4620   33.5670   47.4700 C   0  0  0  0  0  0  0  0  0  0  0  0
   61.7570   33.4380   48.0860 C   0  0  0  0  0  0  0  0  0  0  0  0
   61.9280   33.9040   49.4090 C   0  0  0  0  0  0  0  0  0  0  0  0
   63.1730   33.8930   50.0070 C   0  0  0  0  0  0  0  0  0  0  0  0
   64.2950   33.4320   49.3500 C   0  0  0  0  0  0  0  0  0  0  0  0
   65.5060   33.4250   49.9430 F   0  0  0  0  0  0  0  0  0  0  0  0
   64.1420   32.9750   48.0640 C   0  0  0  0  0  0  0  0  0  0  0  0
   62.9120   32.9900   47.4830 C   0  0  0  0  0  0  0  0  0  0  0  0
   60.3740   34.5300   46.4440 C   0  0  0  0  0  0  0  0  0  0  0  0
   59.2530   34.7170   45.7430 N   0  0  0  0  0  0  0  0  0  0  0  0
   56.0766   34.3380   45.9068 H   0  0  0  0  0  0  0  0  0  0  0  0
   57.0467   35.0785   44.5889 H   0  0  0  0  0  0  0  0  0  0  0  0
   56.7340   33.3097   44.5889 H   0  0  0  0  0  0  0  0  0  0  0  0
   61.1438   31.0612   48.1399 H   0  0  0  0  0  0  0  0  0  0  0  0
   60.8033   31.0218   49.8310 H   0  0  0  0  0  0  0  0  0  0  0  0
   60.0621   28.8669   48.2721 H   0  0  0  0  0  0  0  0  0  0  0  0
   58.8819   29.4349   49.5090 H   0  0  0  0  0  0  0  0  0  0  0  0
   58.1080   30.9330   47.5340 H   0  0  0  0  0  0  0  0  0  0  0  0
   59.2648   31.9861   44.4263 H   0  0  0  0  0  0  0  0  0  0  0  0
   57.8018   32.6376   42.4914 H   0  0  0  0  0  0  0  0  0  0  0  0
   56.0272   31.1286   41.7138 H   0  0  0  0  0  0  0  0  0  0  0  0
   55.6257   28.9284   42.8071 H   0  0  0  0  0  0  0  0  0  0  0  0
   57.0676   28.2871   44.7129 H   0  0  0  0  0  0  0  0  0  0  0  0
   61.0593   34.2800   49.9693 H   0  0  0  0  0  0  0  0  0  0  0  0
   63.2729   34.2630   51.0381 H   0  0  0  0  0  0  0  0  0  0  0  0
   65.0114   32.5980   47.5054 H   0  0  0  0  0  0  0  0  0  0  0  0
   62.8335   32.6154   46.4517 H   0  0  0  0  0  0  0  0  0  0  0  0
   61.2558   35.1461   46.2140 H   0  0  0  0  0  0  0  0  0  0  0  0
   59.1730   35.4270   44.9790 H   0  0  0  0  0  0  0  0  0  0  0  0
  1  2  1  0
  2  3  2  0
  3  4  1  0
  4  5  2  0
  5  6  1  0
  6  7  1  0
  7  8  1  0
  8  9  1  0
  9 10  2  0
  9 11  2  0
  9 12  1  0
 12 13  2  0
 13 14  1  0
 14 15  2  0
 15 16  1  0
 16 17  2  0
  4 18  1  0
 18 19  1  0
 19 20  2  0
 20 21  1  0
 21 22  2  0
 22 23  1  0
 22 24  1  0
 24 25  2  0
 18 26  2  0
 26 27  1  0
 27  2  1  0
 17 12  1  0
 25 19  1  0
  1 28  1  0
  1 29  1  0
  1 30  1  0
  6 31  1  0
  6 32  1  0
  7 33  1  0
  7 34  1  0
  8 35  1  0
 13 36  1  0
 14 37  1  0
 15 38  1  0
 16 39  1  0
 17 40  1  0
 20 41  1  0
 21 42  1  0
 24 43  1  0
 25 44  1  0
 26 45  1  0
 27 46  1  0
M  END
>  <smiles>  (30) 
Cc1nc(=NCCNS(=O)(=O)c2ccccc2)c(-c2ccc(F)cc2)c[nH]1

>  <score_type>  (30) 
oracle

>  <origin>  (30) 
adg

>  <m_score__min__energy>  (30) 
-8.0700000000000003

>  <m_primary>  (30) 
energy

$$$$
30:0
     RDKit          3D

 49 51  0  0  0  0  0  0  0  0999 V2000
   63.3340   33.8240   46.6120 C   0  0  0  0  0  0  0  0  0  0  0  0
   63.3840   32.7690   47.7140 C   0  0  0  0  0  0  0  0  0  0  0  0
   62.4490   31.5910   47.3920 C   0  0  0  0  0  0  0  0  0  0  0  0
   61.1170   31.7500   48.0020 N   0  0  0  0  0  0  0  0  0  0  0  0
   60.9560   31.5900   49.4580 C   0  0  0  0  0  0  0  0  0  0  0  0
   59.7110   32.3260   49.9690 C   0  0  0  0  0  0  0  0  0  0  0  0
   59.8380   33.8420   49.8400 C   0  0  0  0  0  0  0  0  0  0  0  0
   59.9580   31.5440   47.1710 C   0  0  0  0  0  0  0  0  0  0  0  0
   59.4080   30.3010   47.1080 N   0  0  0  0  0  0  0  0  0  0  0  0
   58.3260   30.0290   46.3340 C   0  0  0  0  0  0  0  0  0  0  0  0
   57.7570   28.6310   46.3060 C   0  0  0  0  0  0  0  0  0  0  0  0
   57.4290   28.1890   44.8830 C   0  0  0  0  0  0  0  0  0  0  0  0
   58.6610   27.4530   44.3690 C   0  0  0  0  0  0  0  0  0  0  0  0
   59.4980   27.0740   45.5900 C   0  0  0  0  0  0  0  0  0  0  0  0
   58.7630   27.6040   46.8170 C   0  0  0  0  0  0  0  0  0  0  0  0
   57.7620   31.0200   45.5940 N   0  0  0  0  0  0  0  0  0  0  0  0
   58.2560   32.2830   45.6150 C   0  0  0  0  0  0  0  0  0  0  0  0
   57.6440   33.2810   44.8500 C   0  0  0  0  0  0  0  0  0  0  0  0
   58.1350   34.5880   44.8830 C   0  0  0  0  0  0  0  0  0  0  0  0
   59.2340   34.9030   45.6850 C   0  0  0  0  0  0  0  0  0  0  0  0
   59.8530   33.9130   46.4520 C   0  0  0  0  0  0  0  0  0  0  0  0
   59.3790   32.5880   46.4180 C   0  0  0  0  0  0  0  0  0  0  0  0
   63.2865   34.8253   47.0649 H   0  0  0  0  0  0  0  0  0  0  0  0
   64.2368   33.7460   45.9885 H   0  0  0  0  0  0  0  0  0  0  0  0
   62.4426   33.6610   45.9885 H   0  0  0  0  0  0  0  0  0  0  0  0
   64.4143   32.3953   47.8078 H   0  0  0  0  0  0  0  0  0  0  0  0
   63.0543   33.2307   48.6564 H   0  0  0  0  0  0  0  0  0  0  0  0
   62.3319   31.5207   46.3005 H   0  0  0  0  0  0  0  0  0  0  0  0
   62.9022   30.6789   47.8075 H   0  0  0  0  0  0  0  0  0  0  0  0
   60.8597   30.5194   49.6917 H   0  0  0  0  0  0  0  0  0  0  0  0
   61.8392   32.0203   49.9527 H   0  0  0  0  0  0  0  0  0  0  0  0
   58.8397   31.9935   49.3858 H   0  0  0  0  0  0  0  0  0  0  0  0
   59.5953   32.0885   51.0368 H   0  0  0  0  0  0  0  0  0  0  0  0
   59.8758   34.2934   50.8424 H   0  0  0  0  0  0  0  0  0  0  0  0
   60.7599   34.0874   49.2923 H   0  0  0  0  0  0  0  0  0  0  0  0
   58.9698   34.2374   49.2923 H   0  0  0  0  0  0  0  0  0  0  0  0
   56.8587   28.6712   46.9395 H   0  0  0  0  0  0  0  0  0  0  0  0
   56.5573   27.5181   44.8839 H   0  0  0  0  0  0  0  0  0  0  0  0
   57.1818   29.0495   44.2440 H   0  0  0  0  0  0  0  0  0  0  0  0
   58.3591   26.5475   43.8223 H   0  0  0  0  0  0  0  0  0  0  0  0
   59.2377   28.0874   43.6798 H   0  0  0  0  0  0  0  0  0  0  0  0
   59.5996   25.9806   45.6536 H   0  0  0  0  0  0  0  0  0  0  0  0
   60.5083   27.5036   45.5218 H   0  0  0  0  0  0  0  0  0  0  0  0
   58.2412   26.7838   47.3317 H   0  0  0  0  0  0  0  0  0  0  0  0
   59.4620   28.0544   47.5370 H   0  0  0  0  0  0  0  0  0  0  0  0
   56.7750   33.0363   44.2216 H   0  0  0  0  0  0  0  0  0  0  0  0
   57.6554   35.3704   44.2765 H   0  0  0  0  0  0  0  0  0  0  0  0
   59.6138   35.9350   45.7129 H   0  0  0  0  0  0  0  0  0  0  0  0
   60.7148   34.1701   47.0854 H   0  0  0  0  0  0  0  0  0  0  0  0
  1  2  1  0
  2  3  1  0
  3  4  1  0
  4  5  1  0
  5  6  1  0
  6  7  1  0
  4  8  1  0
  8  9  2  0
  9 10  1  0
 10 11  1  0
 11 12  1  0
 12 13  1  0
 13 14  1  0
 14 15  1  0
 10 16  2  0
 16 17  1  0
 17 18  2  0
 18 19  1  0
 19 20  2  0
 20 21  1  0
 21 22  2  0
 22  8  1  0
 15 11  1  0
 22 17  1  0
  1 23  1  0
  1 24  1  0
  1 25  1  0
  2 26  1  0
  2 27  1  0
  3 28  1  0
  3 29  1  0
  5 30  1  0
  5 31  1  0
  6 32  1  0
  6 33  1  0
  7 34  1  0
  7 35  1  0
  7 36  1  0
 11 37  1  0
 12 38  1  0
 12 39  1  0
 13 40  1  0
 13 41  1  0
 14 42  1  0
 14 43  1  0
 15 44  1  0
 15 45  1  0
 18 46  1  0
 19 47  1  0
 20 48  1  0
 21 49  1  0
M  END
>  <UniqueID>  (31) 
29

>  <SMILES>  (31) 
CCCN(CCC)c1nc(C2CCCC2)nc2ccccc12

>  <Energy>  (31) 
48.65026797969649

>  <Genealogy>  (31) 
CCCN(CCC)c1nc(C2CCCC2)nc2ccccc12 (3D coordinates assigned)
CCCN(CCC)c1nc(C2CCCC2)nc2ccccc12 (nonaromatic ring conformer: 48.65026797969649 kcal/mol)

>  <smiles>  (31) 
CCCN(CCC)c1nc(C2CCCC2)nc2ccccc12

>  <score_type>  (31) 
oracle

>  <origin>  (31) 
adg

>  <m_score__min__energy>  (31) 
-7.4699999999999998

>  <m_primary>  (31) 
energy

$$$$
31:0
     RDKit          3D

 57 58  0  0  0  0  0  0  0  0999 V2000
   61.9120   30.4310   50.4840 C   0  0  0  0  0  0  0  0  0  0  0  0
   60.7190   30.0870   49.6670 N   0  0  0  0  0  0  0  0  0  0  0  0
   59.5590   30.8980   50.1060 C   0  0  0  0  0  0  0  0  0  0  0  0
   60.4050   28.6570   49.9200 C   0  0  0  0  0  0  0  0  0  0  0  0
   60.9900   30.2420   48.1990 C   0  0  0  0  0  0  0  0  0  0  0  0
   60.3890   29.1770   47.2380 C   0  0  0  0  0  0  0  0  0  0  0  0
   60.1590   29.6290   45.7920 C   0  0  0  0  0  0  0  0  0  0  0  0
   59.1970   30.6780   45.7430 O   0  0  0  0  0  0  0  0  0  0  0  0
   58.0600   30.6300   44.9330 C   0  0  0  0  0  0  0  0  0  0  0  0
   56.9850   30.1270   45.3580 O   0  0  0  0  0  0  0  0  0  0  0  0
   58.1210   31.2030   43.5510 C   0  0  0  0  0  0  0  0  0  0  0  0
   57.9430   32.7240   43.5520 C   0  0  0  0  0  0  0  0  0  0  0  0
   57.7230   33.2620   44.9460 C   0  0  0  0  0  0  0  0  0  0  0  0
   56.6050   33.6530   45.2560 O   0  0  0  0  0  0  0  0  0  0  0  0
   58.8160   33.3470   45.8960 N   0  0  0  0  0  0  0  0  0  0  0  0
   58.3220   33.7900   47.2220 C   0  0  0  0  0  0  0  0  0  0  0  0
   59.4190   34.4110   48.1160 C   0  0  0  0  0  0  0  0  0  0  0  0
   60.7710   34.0190   47.6830 N   0  0  0  0  0  0  0  0  0  0  0  0
   61.7850   33.6970   48.6640 C   0  0  0  0  0  0  0  0  0  0  0  0
   61.4440   33.4560   49.8560 O   0  0  0  0  0  0  0  0  0  0  0  0
   63.2510   33.6590   48.2910 C   0  0  1  0  0  0  0  0  0  0  0  0
   64.0770   32.8100   49.1000 C   0  0  0  0  0  0  0  0  0  0  0  0
   63.7100   32.3260   47.6910 C   0  0  0  0  0  0  0  0  0  0  0  0
   63.7550   31.5130   46.7830 O   0  0  0  0  0  0  0  0  0  0  0  0
   61.1210   34.1230   46.2580 C   0  0  0  0  0  0  0  0  0  0  0  0
   59.8680   34.2430   45.3830 C   0  0  0  0  0  0  0  0  0  0  0  0
   61.6585   30.3579   51.5519 H   0  0  0  0  0  0  0  0  0  0  0  0
   62.7290   29.7319   50.2524 H   0  0  0  0  0  0  0  0  0  0  0  0
   62.2314   31.4578   50.2524 H   0  0  0  0  0  0  0  0  0  0  0  0
   59.5238   30.9226   51.2052 H   0  0  0  0  0  0  0  0  0  0  0  0
   59.6607   31.9228   49.7194 H   0  0  0  0  0  0  0  0  0  0  0  0
   58.6315   30.4506   49.7194 H   0  0  0  0  0  0  0  0  0  0  0  0
   60.3654   28.4766   51.0044 H   0  0  0  0  0  0  0  0  0  0  0  0
   59.4313   28.4105   49.4715 H   0  0  0  0  0  0  0  0  0  0  0  0
   61.1858   28.0252   49.4715 H   0  0  0  0  0  0  0  0  0  0  0  0
   60.5940   31.2216   47.8932 H   0  0  0  0  0  0  0  0  0  0  0  0
   62.0791   30.1215   48.1024 H   0  0  0  0  0  0  0  0  0  0  0  0
   61.0754   28.3177   47.2166 H   0  0  0  0  0  0  0  0  0  0  0  0
   59.3907   28.9466   47.6385 H   0  0  0  0  0  0  0  0  0  0  0  0
   61.1089   29.9893   45.3702 H   0  0  0  0  0  0  0  0  0  0  0  0
   59.7837   28.7754   45.2085 H   0  0  0  0  0  0  0  0  0  0  0  0
   59.0985   30.9602   43.1087 H   0  0  0  0  0  0  0  0  0  0  0  0
   57.2993   30.7652   42.9652 H   0  0  0  0  0  0  0  0  0  0  0  0
   58.8462   33.1885   43.1295 H   0  0  0  0  0  0  0  0  0  0  0  0
   57.0554   32.9648   42.9485 H   0  0  0  0  0  0  0  0  0  0  0  0
   59.2330   32.3930   46.0140 H   0  0  0  0  0  0  0  0  0  0  0  0
   57.5340   34.5415   47.0661 H   0  0  0  0  0  0  0  0  0  0  0  0
   57.9503   32.8952   47.7427 H   0  0  0  0  0  0  0  0  0  0  0  0
   59.3355   35.5069   48.0711 H   0  0  0  0  0  0  0  0  0  0  0  0
   59.2705   34.0423   49.1417 H   0  0  0  0  0  0  0  0  0  0  0  0
   63.3195   34.7130   47.9837 H   0  0  0  0  0  0  0  0  0  0  0  0
   65.1126   33.1081   49.3205 H   0  0  0  0  0  0  0  0  0  0  0  0
   63.9776   32.3797   50.1075 H   0  0  0  0  0  0  0  0  0  0  0  0
   61.7494   35.0132   46.1076 H   0  0  0  0  0  0  0  0  0  0  0  0
   61.6616   33.2105   45.9662 H   0  0  0  0  0  0  0  0  0  0  0  0
   59.5058   35.2815   45.4035 H   0  0  0  0  0  0  0  0  0  0  0  0
   60.1166   33.9588   44.3499 H   0  0  0  0  0  0  0  0  0  0  0  0
  1  2  1  0
  2  3  1  0
  2  4  1  0
  2  5  1  0
  5  6  1  0
  6  7  1  0
  7  8  1  0
  8  9  1  0
  9 10  2  0
  9 11  1  0
 11 12  1  0
 12 13  1  0
 13 14  2  0
 13 15  1  0
 15 16  1  0
 16 17  1  0
 17 18  1  0
 18 19  1  0
 19 20  2  0
 19 21  1  0
 21 22  1  0
 22 23  1  0
 23 24  2  0
 18 25  1  0
 25 26  1  0
 26 15  1  0
 23 21  1  0
  1 27  1  0
  1 28  1  0
  1 29  1  0
  3 30  1  0
  3 31  1  0
  3 32  1  0
  4 33  1  0
  4 34  1  0
  4 35  1  0
  5 36  1  0
  5 37  1  0
  6 38  1  0
  6 39  1  0
  7 40  1  0
  7 41  1  0
 11 42  1  0
 11 43  1  0
 12 44  1  0
 12 45  1  0
 15 46  1  0
 16 47  1  0
 16 48  1  0
 17 49  1  0
 17 50  1  0
 21 51  1  6
 22 52  1  0
 22 53  1  0
 25 54  1  0
 25 55  1  0
 26 56  1  0
 26 57  1  0
M  CHG  2   2   1  15   1
M  END
>  <UniqueID>  (32) 
30

>  <SMILES>  (32) 
C[N+](C)(C)CCCOC(=O)CCC(=O)[NH+]1CCN(C(=O)[C@H]2CC2=O)CC1

>  <Energy>  (32) 
235.7230130786285

>  <Genealogy>  (32) 
C[N+](C)(C)CCCOC(=O)CCC(=O)[NH+]1CCN(C(=O)C2CC2=O)CC1 (protonated)
C[N+](C)(C)CCCOC(=O)CCC(=O)[NH+]1CCN(C(=O)[C@H]2CC2=O)CC1 (chirality)
C[N+](C)(C)CCCOC(=O)CCC(=O)[NH+]1CCN(C(=O)[C@H]2CC2=O)CC1 (3D coordinates assigned)
C[N+](C)(C)CCCOC(=O)CCC(=O)[NH+]1CCN(C(=O)[C@H]2CC2=O)CC1 (nonaromatic ring conformer: 235.7230130786285 kcal/mol)

>  <smiles>  (32) 
C[N+](C)(C)CCCOC(=O)CCC(=O)N1CCN(C(=O)C2CC2=O)CC1

>  <score_type>  (32) 
oracle

>  <origin>  (32) 
adg

>  <m_score__min__energy>  (32) 
-4.2300000000000004

>  <m_primary>  (32) 
energy

$$$$
32:0
     RDKit          3D

 41 43  0  0  0  0  0  0  0  0999 V2000
   60.2230   29.3300   44.8590 C   0  0  0  0  0  0  0  0  0  0  0  0
   59.0530   28.4570   45.2290 C   0  0  0  0  0  0  0  0  0  0  0  0
   59.3180   27.1960   45.7940 C   0  0  0  0  0  0  0  0  0  0  0  0
   58.2770   26.3590   46.1950 C   0  0  0  0  0  0  0  0  0  0  0  0
   56.9470   26.7770   46.0680 C   0  0  0  0  0  0  0  0  0  0  0  0
   55.8540   25.9320   46.4560 N   0  0  0  0  0  0  0  0  0  0  0  0
   55.1910   24.9800   45.6150 C   0  0  0  0  0  0  0  0  0  0  0  0
   53.9330   24.9380   45.6240 O   0  0  0  0  0  0  0  0  0  0  0  0
   55.9400   24.0070   44.7980 C   0  0  0  0  0  0  0  0  0  0  0  0
   55.6130   23.6150   43.5050 C   0  0  0  0  0  0  0  0  0  0  0  0
   56.4700   22.6360   42.9870 C   0  0  0  0  0  0  0  0  0  0  0  0
   57.4660   22.2430   43.8700 C   0  0  0  0  0  0  0  0  0  0  0  0
   57.2780   23.1130   45.2970 S   0  0  0  0  0  0  0  0  0  0  0  0
   56.6710   28.0210   45.4950 C   0  0  0  0  0  0  0  0  0  0  0  0
   57.7050   28.8750   45.0740 C   0  0  0  0  0  0  0  0  0  0  0  0
   57.2360   30.4410   44.3680 S   0  0  0  0  0  0  0  0  0  0  0  0
   55.8020   30.7660   44.6770 O   0  0  0  0  0  0  0  0  0  0  0  0
   57.3570   30.3400   42.8720 O   0  0  0  0  0  0  0  0  0  0  0  0
   58.2530   31.7480   44.9290 N   0  0  0  0  0  0  0  0  0  0  0  0
   57.9020   33.0090   44.2580 C   0  0  0  0  0  0  0  0  0  0  0  0
   58.6690   34.1910   44.8880 C   0  0  0  0  0  0  0  0  0  0  0  0
   59.6710   33.7350   45.7760 O   0  0  0  0  0  0  0  0  0  0  0  0
   59.0740   33.0440   46.8600 C   0  0  0  0  0  0  0  0  0  0  0  0
   58.1450   31.9060   46.3860 C   0  0  0  0  0  0  0  0  0  0  0  0
   60.7121   29.6949   45.7742 H   0  0  0  0  0  0  0  0  0  0  0  0
   60.9429   28.7465   44.2663 H   0  0  0  0  0  0  0  0  0  0  0  0
   59.8686   30.1862   44.2663 H   0  0  0  0  0  0  0  0  0  0  0  0
   60.3596   26.8660   45.9211 H   0  0  0  0  0  0  0  0  0  0  0  0
   58.5019   25.3665   46.6127 H   0  0  0  0  0  0  0  0  0  0  0  0
   54.7643   24.0328   42.9437 H   0  0  0  0  0  0  0  0  0  0  0  0
   56.3637   22.2177   41.9752 H   0  0  0  0  0  0  0  0  0  0  0  0
   58.2444   21.4918   43.6708 H   0  0  0  0  0  0  0  0  0  0  0  0
   55.6250   28.3380   45.3710 H   0  0  0  0  0  0  0  0  0  0  0  0
   58.1627   32.9360   43.1918 H   0  0  0  0  0  0  0  0  0  0  0  0
   56.8223   33.1843   44.3745 H   0  0  0  0  0  0  0  0  0  0  0  0
   59.1400   34.7805   44.0876 H   0  0  0  0  0  0  0  0  0  0  0  0
   57.9553   34.8071   45.4547 H   0  0  0  0  0  0  0  0  0  0  0  0
   59.8691   32.6142   47.4870 H   0  0  0  0  0  0  0  0  0  0  0  0
   58.4640   33.7645   47.4246 H   0  0  0  0  0  0  0  0  0  0  0  0
   58.4383   30.9667   46.8777 H   0  0  0  0  0  0  0  0  0  0  0  0
   57.1057   32.1534   46.6480 H   0  0  0  0  0  0  0  0  0  0  0  0
  1  2  1  0
  2  3  2  0
  3  4  1  0
  4  5  2  0
  5  6  1  0
  6  7  1  0
  7  8  2  0
  7  9  1  0
  9 10  2  0
 10 11  1  0
 11 12  2  0
 12 13  1  0
  5 14  1  0
 14 15  2  0
 15 16  1  0
 16 17  2  0
 16 18  2  0
 16 19  1  0
 19 20  1  0
 20 21  1  0
 21 22  1  0
 22 23  1  0
 23 24  1  0
 15  2  1  0
 24 19  1  0
 13  9  1  0
  1 25  1  0
  1 26  1  0
  1 27  1  0
  3 28  1  0
  4 29  1  0
 10 30  1  0
 11 31  1  0
 12 32  1  0
 14 33  1  0
 20 34  1  0
 20 35  1  0
 21 36  1  0
 21 37  1  0
 23 38  1  0
 23 39  1  0
 24 40  1  0
 24 41  1  0
M  CHG  1   6  -1
M  END
>  <UniqueID>  (33) 
31

>  <SMILES>  (33) 
Cc1ccc([N-]C(=O)c2cccs2)cc1S(=O)(=O)N1CCOCC1

>  <Energy>  (33) 
83.5773887271353

>  <Genealogy>  (33) 
Cc1ccc([N-]C(=O)c2cccs2)cc1S(=O)(=O)N1CCOCC1 (protonated)
Cc1ccc([N-]C(=O)c2cccs2)cc1S(=O)(=O)N1CCOCC1 (3D coordinates assigned)
Cc1ccc([N-]C(=O)c2cccs2)cc1S(=O)(=O)N1CCOCC1 (nonaromatic ring conformer: 83.5773887271353 kcal/mol)

>  <smiles>  (33) 
Cc1ccc(NC(=O)c2cccs2)cc1S(=O)(=O)N1CCOCC1

>  <score_type>  (33) 
oracle

>  <origin>  (33) 
adg

>  <m_score__min__energy>  (33) 
-10.5

>  <m_primary>  (33) 
energy

$$$$
33:0
     RDKit          3D

 38 41  0  0  0  0  0  0  0  0999 V2000
   57.0310   31.5910   45.2230 O   0  0  0  0  0  0  0  0  0  0  0  0
   58.1360   31.7620   45.8080 C   0  0  0  0  0  0  0  0  0  0  0  0
   58.8420   30.6320   46.3550 N   0  0  0  0  0  0  0  0  0  0  0  0
   58.3160   29.2940   46.3770 C   0  0  0  0  0  0  0  0  0  0  0  0
   58.6710   28.3810   47.3840 C   0  0  0  0  0  0  0  0  0  0  0  0
   58.1660   27.0770   47.3670 C   0  0  0  0  0  0  0  0  0  0  0  0
   57.3090   26.6570   46.3360 C   0  0  0  0  0  0  0  0  0  0  0  0
   56.7740   25.2780   46.3200 C   0  0  0  0  0  0  0  0  0  0  0  0
   55.4430   25.0000   46.3750 N   0  0  0  0  0  0  0  0  0  0  0  0
   55.4200   23.6610   46.3340 C   0  0  0  0  0  0  0  0  0  0  0  0
   54.3050   22.8250   46.3610 C   0  0  0  0  0  0  0  0  0  0  0  0
   54.5280   21.4360   46.3070 C   0  0  0  0  0  0  0  0  0  0  0  0
   55.8450   20.9260   46.2280 C   0  0  0  0  0  0  0  0  0  0  0  0
   56.9470   21.8030   46.2020 C   0  0  0  0  0  0  0  0  0  0  0  0
   56.6860   23.1710   46.2580 C   0  0  0  0  0  0  0  0  0  0  0  0
   57.5720   24.1760   46.2470 N   0  0  0  0  0  0  0  0  0  0  0  0
   56.9750   27.5640   45.3170 C   0  0  0  0  0  0  0  0  0  0  0  0
   57.4820   28.8680   45.3340 C   0  0  0  0  0  0  0  0  0  0  0  0
   58.6870   33.1350   45.9090 C   0  0  0  0  0  0  0  0  0  0  0  0
   58.7570   33.9850   44.7880 C   0  0  0  0  0  0  0  0  0  0  0  0
   59.2760   35.2780   44.9110 C   0  0  0  0  0  0  0  0  0  0  0  0
   59.7220   35.7400   46.1510 C   0  0  0  0  0  0  0  0  0  0  0  0
   59.6460   34.9120   47.2720 C   0  0  0  0  0  0  0  0  0  0  0  0
   59.1270   33.6200   47.1560 C   0  0  0  0  0  0  0  0  0  0  0  0
   59.8120   30.7620   46.7170 H   0  0  0  0  0  0  0  0  0  0  0  0
   59.3503   28.6937   48.1907 H   0  0  0  0  0  0  0  0  0  0  0  0
   58.4420   26.3745   48.1672 H   0  0  0  0  0  0  0  0  0  0  0  0
   53.2866   23.2361   46.4223 H   0  0  0  0  0  0  0  0  0  0  0  0
   53.6735   20.7436   46.3263 H   0  0  0  0  0  0  0  0  0  0  0  0
   56.0094   19.8391   46.1867 H   0  0  0  0  0  0  0  0  0  0  0  0
   57.9769   21.4218   46.1397 H   0  0  0  0  0  0  0  0  0  0  0  0
   56.3102   27.2470   44.4999 H   0  0  0  0  0  0  0  0  0  0  0  0
   57.2241   29.5644   44.5225 H   0  0  0  0  0  0  0  0  0  0  0  0
   58.4012   33.6297   43.8096 H   0  0  0  0  0  0  0  0  0  0  0  0
   59.3330   35.9326   44.0288 H   0  0  0  0  0  0  0  0  0  0  0  0
   60.1330   36.7560   46.2443 H   0  0  0  0  0  0  0  0  0  0  0  0
   59.9955   35.2774   48.2489 H   0  0  0  0  0  0  0  0  0  0  0  0
   59.0615   32.9764   48.0457 H   0  0  0  0  0  0  0  0  0  0  0  0
  1  2  2  0
  2  3  1  0
  3  4  1  0
  4  5  2  0
  5  6  1  0
  6  7  2  0
  7  8  1  0
  8  9  2  0
  9 10  1  0
 10 11  2  0
 11 12  1  0
 12 13  2  0
 13 14  1  0
 14 15  2  0
 15 16  1  0
  7 17  1  0
 17 18  2  0
  2 19  1  0
 19 20  2  0
 20 21  1  0
 21 22  2  0
 22 23  1  0
 23 24  2  0
 18  4  1  0
 24 19  1  0
 16  8  1  0
 15 10  1  0
  3 25  1  0
  5 26  1  0
  6 27  1  0
 11 28  1  0
 12 29  1  0
 13 30  1  0
 14 31  1  0
 17 32  1  0
 18 33  1  0
 20 34  1  0
 21 35  1  0
 22 36  1  0
 23 37  1  0
 24 38  1  0
M  CHG  1  16  -1
M  END
>  <UniqueID>  (34) 
32

>  <SMILES>  (34) 
O=C(Nc1ccc(-c2nc3ccccc3[n-]2)cc1)c1ccccc1

>  <Energy>  (34) 
85.46195588505161

>  <Genealogy>  (34) 
O=C(Nc1ccc(-c2nc3ccccc3[n-]2)cc1)c1ccccc1 (protonated)
O=C(Nc1ccc(-c2nc3ccccc3[n-]2)cc1)c1ccccc1 (3D coordinates assigned)
O=C(Nc1ccc(-c2nc3ccccc3[n-]2)cc1)c1ccccc1 (optimized conformer: 85.46195588505161 kcal/mol)

>  <smiles>  (34) 
O=C(Nc1ccc(-c2nc3ccccc3[nH]2)cc1)c1ccccc1

>  <score_type>  (34) 
oracle

>  <origin>  (34) 
adg

>  <m_score__min__energy>  (34) 
-8.8000000000000007

>  <m_primary>  (34) 
energy

$$$$
34:0
     RDKit          3D

 56 58  0  0  0  0  0  0  0  0999 V2000
   60.0550   26.0080   46.3770 C   0  0  0  0  0  0  0  0  0  0  0  0
   59.7560   27.1930   47.2460 C   0  0  0  0  0  0  0  0  0  0  0  0
   58.7840   28.1280   46.8570 C   0  0  0  0  0  0  0  0  0  0  0  0
   58.5290   29.2510   47.6490 C   0  0  0  0  0  0  0  0  0  0  0  0
   59.2540   29.4610   48.8300 C   0  0  0  0  0  0  0  0  0  0  0  0
   58.8960   30.8550   49.8460 S   0  0  0  0  0  0  0  0  0  0  0  0
   57.7460   30.5200   50.7540 O   0  0  0  0  0  0  0  0  0  0  0  0
   58.4970   32.0260   48.9900 O   0  0  0  0  0  0  0  0  0  0  0  0
   60.2790   31.2790   50.8120 N   0  0  0  0  0  0  0  0  0  0  0  0
   60.1160   32.6010   51.4220 C   0  0  0  0  0  0  0  0  0  0  0  0
   61.4840   33.1990   51.7490 C   0  0  0  0  0  0  0  0  0  0  0  0
   62.8070   31.9410   51.6260 S   0  0  0  0  0  0  0  0  0  0  0  0
   63.2710   32.2400   49.8730 C   0  0  2  0  0  0  0  0  0  0  0  0
   62.9670   33.6820   49.4560 C   0  0  0  0  0  0  0  0  0  0  0  0
   62.1680   33.5630   48.1540 C   0  0  1  0  0  0  0  0  0  0  0  0
   63.1140   33.6740   46.9300 C   0  0  0  0  0  0  0  0  0  0  0  0
   63.8130   32.4710   46.7530 O   0  0  0  0  0  0  0  0  0  0  0  0
   61.4710   32.2630   48.2680 N   0  0  1  0  0  0  0  0  0  0  0  0
   60.9300   31.6700   47.0210 C   0  0  0  0  0  0  0  0  0  0  0  0
   59.7390   32.4390   46.4860 C   0  0  0  0  0  0  0  0  0  0  0  0
   58.7770   31.7960   45.6850 C   0  0  0  0  0  0  0  0  0  0  0  0
   57.6860   32.5110   45.1800 C   0  0  0  0  0  0  0  0  0  0  0  0
   57.5540   33.8730   45.4540 C   0  0  0  0  0  0  0  0  0  0  0  0
   58.5170   34.5270   46.2270 C   0  0  0  0  0  0  0  0  0  0  0  0
   59.6090   33.8160   46.7340 C   0  0  0  0  0  0  0  0  0  0  0  0
   62.4220   31.3680   48.9390 C   0  0  0  0  0  0  0  0  0  0  0  0
   60.2360   28.5350   49.2130 C   0  0  0  0  0  0  0  0  0  0  0  0
   60.4890   27.4110   48.4220 C   0  0  0  0  0  0  0  0  0  0  0  0
   60.2751   25.1355   47.0097 H   0  0  0  0  0  0  0  0  0  0  0  0
   59.1837   25.7899   45.7419 H   0  0  0  0  0  0  0  0  0  0  0  0
   60.9254   26.2293   45.7419 H   0  0  0  0  0  0  0  0  0  0  0  0
   58.2204   27.9762   45.9246 H   0  0  0  0  0  0  0  0  0  0  0  0
   57.7566   29.9726   47.3444 H   0  0  0  0  0  0  0  0  0  0  0  0
   59.5875   33.2631   50.7204 H   0  0  0  0  0  0  0  0  0  0  0  0
   59.5349   32.5006   52.3506 H   0  0  0  0  0  0  0  0  0  0  0  0
   61.6973   34.0135   51.0412 H   0  0  0  0  0  0  0  0  0  0  0  0
   61.4595   33.5769   52.7818 H   0  0  0  0  0  0  0  0  0  0  0  0
   64.3449   32.0150   49.7952 H   0  0  0  0  0  0  0  0  0  0  0  0
   62.3716   34.1898   50.2290 H   0  0  0  0  0  0  0  0  0  0  0  0
   63.8846   34.2739   49.3230 H   0  0  0  0  0  0  0  0  0  0  0  0
   61.4369   34.3707   48.0017 H   0  0  0  0  0  0  0  0  0  0  0  0
   62.5201   33.8862   46.0287 H   0  0  0  0  0  0  0  0  0  0  0  0
   63.8338   34.4877   47.1027 H   0  0  0  0  0  0  0  0  0  0  0  0
   64.7780   32.7010   46.7960 H   0  0  0  0  0  0  0  0  0  0  0  0
   60.6720   32.3940   48.9350 H   0  0  0  0  0  0  0  0  0  0  0  0
   61.7219   31.6691   46.2576 H   0  0  0  0  0  0  0  0  0  0  0  0
   60.5935   30.6488   47.2533 H   0  0  0  0  0  0  0  0  0  0  0  0
   58.8836   30.7256   45.4549 H   0  0  0  0  0  0  0  0  0  0  0  0
   56.9307   31.9988   44.5658 H   0  0  0  0  0  0  0  0  0  0  0  0
   56.6917   34.4318   45.0614 H   0  0  0  0  0  0  0  0  0  0  0  0
   58.4159   35.6021   46.4368 H   0  0  0  0  0  0  0  0  0  0  0  0
   60.3713   34.3380   47.3309 H   0  0  0  0  0  0  0  0  0  0  0  0
   61.8802   30.6074   49.5202 H   0  0  0  0  0  0  0  0  0  0  0  0
   63.0539   30.8442   48.2066 H   0  0  0  0  0  0  0  0  0  0  0  0
   60.8085   28.6942   50.1387 H   0  0  0  0  0  0  0  0  0  0  0  0
   61.2667   26.6937   48.7230 H   0  0  0  0  0  0  0  0  0  0  0  0
  1  2  1  0
  2  3  2  0
  3  4  1  0
  4  5  2  0
  5  6  1  0
  6  7  2  0
  6  8  2  0
  6  9  1  0
  9 10  1  0
 10 11  1  0
 11 12  1  0
 12 13  1  0
 13 14  1  0
 14 15  1  0
 15 16  1  0
 16 17  1  0
 15 18  1  0
 18 19  1  0
 19 20  1  0
 20 21  2  0
 21 22  1  0
 22 23  2  0
 23 24  1  0
 24 25  2  0
 18 26  1  0
  5 27  1  0
 27 28  2  0
 28  2  1  0
 26 13  1  0
 25 20  1  0
  1 29  1  0
  1 30  1  0
  1 31  1  0
  3 32  1  0
  4 33  1  0
 10 34  1  0
 10 35  1  0
 11 36  1  0
 11 37  1  0
 13 38  1  1
 14 39  1  0
 14 40  1  0
 15 41  1  6
 16 42  1  0
 16 43  1  0
 17 44  1  0
 18 45  1  1
 19 46  1  0
 19 47  1  0
 21 48  1  0
 22 49  1  0
 23 50  1  0
 24 51  1  0
 25 52  1  0
 26 53  1  0
 26 54  1  0
 27 55  1  0
 28 56  1  0
M  CHG  2   9  -1  18   1
M  END
>  <UniqueID>  (35) 
33

>  <SMILES>  (35) 
Cc1ccc(S(=O)(=O)[N-]CCS[C@@H]2C[C@@H](CO)[NH+](Cc3ccccc3)C2)cc1

>  <Energy>  (35) 
60.371925313948616

>  <Genealogy>  (35) 
Cc1ccc(S(=O)(=O)[N-]CCSC2CC(CO)[NH+](Cc3ccccc3)C2)cc1 (protonated)
Cc1ccc(S(=O)(=O)[N-]CCS[C@@H]2C[C@@H](CO)[NH+](Cc3ccccc3)C2)cc1 (chirality)
Cc1ccc(S(=O)(=O)[N-]CCS[C@@H]2C[C@@H](CO)[NH+](Cc3ccccc3)C2)cc1 (3D coordinates assigned)
Cc1ccc(S(=O)(=O)[N-]CCS[C@@H]2C[C@@H](CO)[NH+](Cc3ccccc3)C2)cc1 (nonaromatic ring conformer: 60.371925313948616 kcal/mol)

>  <smiles>  (35) 
Cc1ccc(S(=O)(=O)NCCSC2CC(CO)N(Cc3ccccc3)C2)cc1

>  <score_type>  (35) 
oracle

>  <origin>  (35) 
adg

>  <m_score__min__energy>  (35) 
-8.9700000000000006

>  <m_primary>  (35) 
energy

$$$$
35:0
     RDKit          3D

 42 44  0  0  0  0  0  0  0  0999 V2000
   57.4880   27.3400   44.9350 C   0  0  0  0  0  0  0  0  0  0  0  0
   58.8120   26.9020   44.9130 C   0  0  0  0  0  0  0  0  0  0  0  0
   59.8250   27.8030   44.9940 N   0  0  0  0  0  0  0  0  0  0  0  0
   59.5910   29.1380   45.0990 C   0  0  0  0  0  0  0  0  0  0  0  0
   58.2740   29.6280   45.1270 C   0  0  0  0  0  0  0  0  0  0  0  0
   58.0320   31.0860   45.2400 C   0  0  0  0  0  0  0  0  0  0  0  0
   58.9350   31.9930   45.6710 N   0  0  0  0  0  0  0  0  0  0  0  0
   58.2840   33.1680   45.6130 C   0  0  0  0  0  0  0  0  0  0  0  0
   58.8830   34.4990   45.9760 C   0  0  0  0  0  0  0  0  0  0  0  0
   60.3560   34.5020   45.8540 N   0  0  0  0  0  0  0  0  0  0  0  0
   61.1020   34.1540   47.0820 C   0  0  0  0  0  0  0  0  0  0  0  0
   62.4000   33.3690   46.7680 C   0  0  0  0  0  0  0  0  0  0  0  0
   63.3710   33.2810   47.9530 C   0  0  0  0  0  0  0  0  0  0  0  0
   62.9810   34.1720   49.1420 C   0  0  0  0  0  0  0  0  0  0  0  0
   61.9200   33.5110   50.0410 C   0  0  0  0  0  0  0  0  0  0  0  0
   60.4670   33.6950   49.5600 C   0  0  0  0  0  0  0  0  0  0  0  0
   60.1950   33.3880   48.0760 C   0  0  0  0  0  0  0  0  0  0  0  0
   57.0100   32.9440   45.1370 C   0  0  0  0  0  0  0  0  0  0  0  0
   56.8870   31.6550   44.9220 O   0  0  0  0  0  0  0  0  0  0  0  0
   57.2170   28.7040   45.0430 C   0  0  0  0  0  0  0  0  0  0  0  0
   56.6635   26.6150   44.8677 H   0  0  0  0  0  0  0  0  0  0  0  0
   59.0355   25.8281   44.8301 H   0  0  0  0  0  0  0  0  0  0  0  0
   60.4368   29.8384   45.1624 H   0  0  0  0  0  0  0  0  0  0  0  0
   59.9200   31.8400   45.9760 H   0  0  0  0  0  0  0  0  0  0  0  0
   58.4707   35.2674   45.3055 H   0  0  0  0  0  0  0  0  0  0  0  0
   58.6314   34.7065   47.0265 H   0  0  0  0  0  0  0  0  0  0  0  0
   60.6690   33.8890   45.0650 H   0  0  0  0  0  0  0  0  0  0  0  0
   61.4118   35.0939   47.5622 H   0  0  0  0  0  0  0  0  0  0  0  0
   62.1238   32.3471   46.4690 H   0  0  0  0  0  0  0  0  0  0  0  0
   62.9197   33.9153   45.9671 H   0  0  0  0  0  0  0  0  0  0  0  0
   63.4034   32.2370   48.2980 H   0  0  0  0  0  0  0  0  0  0  0  0
   64.3480   33.6363   47.5935 H   0  0  0  0  0  0  0  0  0  0  0  0
   63.8796   34.3731   49.7437 H   0  0  0  0  0  0  0  0  0  0  0  0
   62.5516   35.1018   48.7406 H   0  0  0  0  0  0  0  0  0  0  0  0
   62.1324   32.4327   50.0866 H   0  0  0  0  0  0  0  0  0  0  0  0
   61.9892   34.0060   51.0209 H   0  0  0  0  0  0  0  0  0  0  0  0
   59.8283   33.0318   50.1618 H   0  0  0  0  0  0  0  0  0  0  0  0
   60.2515   34.7668   49.6818 H   0  0  0  0  0  0  0  0  0  0  0  0
   60.3443   32.3100   47.9158 H   0  0  0  0  0  0  0  0  0  0  0  0
   59.1647   33.7159   47.8738 H   0  0  0  0  0  0  0  0  0  0  0  0
   56.2363   33.7074   44.9679 H   0  0  0  0  0  0  0  0  0  0  0  0
   56.1755   29.0574   45.0625 H   0  0  0  0  0  0  0  0  0  0  0  0
  1  2  2  0
  2  3  1  0
  3  4  2  0
  4  5  1  0
  5  6  1  0
  6  7  2  0
  7  8  1  0
  8  9  1  0
  9 10  1  0
 10 11  1  0
 11 12  1  0
 12 13  1  0
 13 14  1  0
 14 15  1  0
 15 16  1  0
 16 17  1  0
  8 18  2  0
 18 19  1  0
  5 20  2  0
 20  1  1  0
 19  6  1  0
 17 11  1  0
  1 21  1  0
  2 22  1  0
  4 23  1  0
  7 24  1  0
  9 25  1  0
  9 26  1  0
 10 27  1  0
 11 28  1  0
 12 29  1  0
 12 30  1  0
 13 31  1  0
 13 32  1  0
 14 33  1  0
 14 34  1  0
 15 35  1  0
 15 36  1  0
 16 37  1  0
 16 38  1  0
 17 39  1  0
 17 40  1  0
 18 41  1  0
 20 42  1  0
M  CHG  1   7   1
M  END
>  <UniqueID>  (36) 
34

>  <SMILES>  (36) 
c1cncc(-c2[nH+]c(CNC3CCCCCC3)co2)c1

>  <Energy>  (36) 
80.28268458237862

>  <Genealogy>  (36) 
c1cncc(-c2[nH+]c(CNC3CCCCCC3)co2)c1 (protonated)
c1cncc(-c2[nH+]c(CNC3CCCCCC3)co2)c1 (3D coordinates assigned)
c1cncc(-c2[nH+]c(CNC3CCCCCC3)co2)c1 (nonaromatic ring conformer: 80.28268458237862 kcal/mol)

>  <smiles>  (36) 
c1cncc(-c2nc(CNC3CCCCCC3)co2)c1

>  <score_type>  (36) 
oracle

>  <origin>  (36) 
adg

>  <m_score__min__energy>  (36) 
-3.71

>  <m_primary>  (36) 
energy

$$$$
36:0
     RDKit          3D

 40 42  0  0  0  0  0  0  0  0999 V2000
   55.1410   30.9360   52.0900 C   0  0  0  0  0  0  0  0  0  0  0  0
   56.5760   30.8170   51.6880 C   0  0  0  0  0  0  0  0  0  0  0  0
   57.2790   29.7030   52.0230 N   0  0  0  0  0  0  0  0  0  0  0  0
   58.6000   29.5910   51.7310 C   0  0  0  0  0  0  0  0  0  0  0  0
   59.2650   30.6410   51.0890 C   0  0  0  0  0  0  0  0  0  0  0  0
   60.7570   30.6050   50.8920 C   0  0  0  0  0  0  0  0  0  0  0  0
   61.0950   29.9910   49.6110 N   0  0  0  0  0  0  0  0  0  0  0  0
   60.2030   29.0980   48.9400 C   0  0  0  0  0  0  0  0  0  0  0  0
   59.9890   27.9560   49.4250 O   0  0  0  0  0  0  0  0  0  0  0  0
   59.4830   29.5230   47.7280 C   0  0  0  0  0  0  0  0  0  0  0  0
   58.6000   28.7370   46.9940 C   0  0  0  0  0  0  0  0  0  0  0  0
   57.9770   29.4890   46.0590 N   0  0  0  0  0  0  0  0  0  0  0  0
   56.7080   28.9470   45.0080 S   0  0  0  0  0  0  0  0  0  0  0  0
   57.3900   28.5520   43.4130 C   0  0  0  0  0  0  0  0  0  0  0  0
   56.0420   27.7360   45.5990 O   0  0  0  0  0  0  0  0  0  0  0  0
   55.6850   30.0360   44.8490 O   0  0  0  0  0  0  0  0  0  0  0  0
   58.4540   30.7420   46.1860 C   0  0  0  0  0  0  0  0  0  0  0  0
   58.0750   31.8850   45.4790 C   0  0  0  0  0  0  0  0  0  0  0  0
   58.6970   33.1030   45.8090 C   0  0  0  0  0  0  0  0  0  0  0  0
   58.2420   34.5700   44.9620 Cl  0  0  0  0  0  0  0  0  0  0  0  0
   59.6790   33.1520   46.8220 C   0  0  0  0  0  0  0  0  0  0  0  0
   60.0360   31.9880   47.5240 C   0  0  0  0  0  0  0  0  0  0  0  0
   59.3900   30.7980   47.1910 C   0  0  0  0  0  0  0  0  0  0  0  0
   58.5220   31.7760   50.7420 C   0  0  0  0  0  0  0  0  0  0  0  0
   57.2000   31.8470   51.0520 N   0  0  0  0  0  0  0  0  0  0  0  0
   55.0670   30.9421   53.1875 H   0  0  0  0  0  0  0  0  0  0  0  0
   54.7243   31.8718   51.6891 H   0  0  0  0  0  0  0  0  0  0  0  0
   54.5759   30.0816   51.6891 H   0  0  0  0  0  0  0  0  0  0  0  0
   59.1472   28.6752   51.9991 H   0  0  0  0  0  0  0  0  0  0  0  0
   61.1488   31.6326   50.9142 H   0  0  0  0  0  0  0  0  0  0  0  0
   61.2055   30.0074   51.6993 H   0  0  0  0  0  0  0  0  0  0  0  0
   58.4332   27.6612   47.1515 H   0  0  0  0  0  0  0  0  0  0  0  0
   58.3351   28.0046   43.5437 H   0  0  0  0  0  0  0  0  0  0  0  0
   56.6781   27.9264   42.8546 H   0  0  0  0  0  0  0  0  0  0  0  0
   57.5784   29.4808   42.8546 H   0  0  0  0  0  0  0  0  0  0  0  0
   57.3127   31.8346   44.6875 H   0  0  0  0  0  0  0  0  0  0  0  0
   60.1679   34.1074   47.0634 H   0  0  0  0  0  0  0  0  0  0  0  0
   60.8023   32.0149   48.3127 H   0  0  0  0  0  0  0  0  0  0  0  0
   59.0086   32.6116   50.2177 H   0  0  0  0  0  0  0  0  0  0  0  0
   56.6680   32.7130   50.8100 H   0  0  0  0  0  0  0  0  0  0  0  0
  1  2  1  0
  2  3  2  0
  3  4  1  0
  4  5  2  0
  5  6  1  0
  6  7  1  0
  7  8  1  0
  8  9  2  0
  8 10  1  0
 10 11  2  0
 11 12  1  0
 12 13  1  0
 13 14  1  0
 13 15  2  0
 13 16  2  0
 12 17  1  0
 17 18  2  0
 18 19  1  0
 19 20  1  0
 19 21  2  0
 21 22  1  0
 22 23  2  0
  5 24  1  0
 24 25  2  0
 25  2  1  0
 23 10  1  0
 23 17  1  0
  1 26  1  0
  1 27  1  0
  1 28  1  0
  4 29  1  0
  6 30  1  0
  6 31  1  0
 11 32  1  0
 14 33  1  0
 14 34  1  0
 14 35  1  0
 18 36  1  0
 21 37  1  0
 22 38  1  0
 24 39  1  0
 25 40  1  0
M  CHG  2   7  -1  25   1
M  END
>  <UniqueID>  (37) 
35

>  <SMILES>  (37) 
Cc1ncc(C[N-]C(=O)c2cn(S(C)(=O)=O)c3cc(Cl)ccc23)c[nH+]1

>  <Energy>  (37) 
74.8055797345364

>  <Genealogy>  (37) 
Cc1ncc(C[N-]C(=O)c2cn(S(C)(=O)=O)c3cc(Cl)ccc23)c[nH+]1 (protonated)
Cc1ncc(C[N-]C(=O)c2cn(S(C)(=O)=O)c3cc(Cl)ccc23)c[nH+]1 (3D coordinates assigned)
Cc1ncc(C[N-]C(=O)c2cn(S(C)(=O)=O)c3cc(Cl)ccc23)c[nH+]1 (optimized conformer: 74.8055797345364 kcal/mol)

>  <smiles>  (37) 
Cc1ncc(CNC(=O)c2cn(S(C)(=O)=O)c3cc(Cl)ccc23)cn1

>  <score_type>  (37) 
oracle

>  <origin>  (37) 
adg

>  <m_score__min__energy>  (37) 
-8.2300000000000004

>  <m_primary>  (37) 
energy

$$$$
37:0
     RDKit          3D

 42 44  0  0  0  0  0  0  0  0999 V2000
   63.0560   33.8140   47.6230 C   0  0  0  0  0  0  0  0  0  0  0  0
   61.8300   33.7210   46.7200 C   0  0  0  0  0  0  0  0  0  0  0  0
   60.6450   34.2660   47.4150 N   0  0  0  0  0  0  0  0  0  0  0  0
   59.8410   33.2350   48.1220 C   0  0  0  0  0  0  0  0  0  0  0  0
   60.3410   31.7810   47.9750 C   0  0  0  0  0  0  0  0  0  0  0  0
   59.6030   31.0450   46.9520 N   0  0  0  0  0  0  0  0  0  0  0  0
   60.0430   29.9430   46.2920 C   0  0  0  0  0  0  0  0  0  0  0  0
   59.0500   29.5730   45.4110 C   0  0  0  0  0  0  0  0  0  0  0  0
   58.9320   28.5350   44.4940 C   0  0  0  0  0  0  0  0  0  0  0  0
   57.7390   28.4710   43.7510 C   0  0  0  0  0  0  0  0  0  0  0  0
   56.7260   29.4410   43.9550 C   0  0  0  0  0  0  0  0  0  0  0  0
   56.8970   30.4430   44.8720 N   0  0  0  0  0  0  0  0  0  0  0  0
   58.0520   30.4870   45.5780 C   0  0  0  0  0  0  0  0  0  0  0  0
   58.3940   31.3850   46.5140 N   0  0  0  0  0  0  0  0  0  0  0  0
   59.8620   35.1790   46.5530 C   0  0  0  0  0  0  0  0  0  0  0  0
   58.8860   34.4190   45.7070 C   0  0  0  0  0  0  0  0  0  0  0  0
   57.5540   34.1690   45.9800 C   0  0  0  0  0  0  0  0  0  0  0  0
   57.0220   33.4620   44.9640 N   0  0  0  0  0  0  0  0  0  0  0  0
   57.9750   33.2780   44.0620 N   0  0  0  0  0  0  0  0  0  0  0  0
   57.8010   32.5020   42.8430 C   0  0  0  0  0  0  0  0  0  0  0  0
   59.1260   33.8350   44.4820 C   0  0  0  0  0  0  0  0  0  0  0  0
   62.7385   33.7899   48.6759 H   0  0  0  0  0  0  0  0  0  0  0  0
   63.7247   32.9640   47.4221 H   0  0  0  0  0  0  0  0  0  0  0  0
   63.5888   34.7551   47.4221 H   0  0  0  0  0  0  0  0  0  0  0  0
   62.0103   34.2982   45.8011 H   0  0  0  0  0  0  0  0  0  0  0  0
   61.6467   32.6658   46.4692 H   0  0  0  0  0  0  0  0  0  0  0  0
   59.8374   33.4848   49.1933 H   0  0  0  0  0  0  0  0  0  0  0  0
   58.8449   33.2589   47.6559 H   0  0  0  0  0  0  0  0  0  0  0  0
   61.4059   31.7986   47.6999 H   0  0  0  0  0  0  0  0  0  0  0  0
   60.1846   31.2711   48.9370 H   0  0  0  0  0  0  0  0  0  0  0  0
   61.0108   29.4398   46.4339 H   0  0  0  0  0  0  0  0  0  0  0  0
   59.7355   27.7966   44.3555 H   0  0  0  0  0  0  0  0  0  0  0  0
   57.5926   27.6690   43.0125 H   0  0  0  0  0  0  0  0  0  0  0  0
   55.7948   29.3883   43.3718 H   0  0  0  0  0  0  0  0  0  0  0  0
   57.8290   32.1970   46.8490 H   0  0  0  0  0  0  0  0  0  0  0  0
   59.3107   35.8880   47.1882 H   0  0  0  0  0  0  0  0  0  0  0  0
   60.5570   35.7138   45.8890 H   0  0  0  0  0  0  0  0  0  0  0  0
   57.0151   34.4950   46.8819 H   0  0  0  0  0  0  0  0  0  0  0  0
   57.5671   31.4590   43.1026 H   0  0  0  0  0  0  0  0  0  0  0  0
   56.9758   32.9268   42.2526 H   0  0  0  0  0  0  0  0  0  0  0  0
   58.7286   32.5338   42.2526 H   0  0  0  0  0  0  0  0  0  0  0  0
   60.0856   33.8258   43.9443 H   0  0  0  0  0  0  0  0  0  0  0  0
  1  2  1  0
  2  3  1  0
  3  4  1  0
  4  5  1  0
  5  6  1  0
  6  7  1  0
  7  8  2  0
  8  9  1  0
  9 10  2  0
 10 11  1  0
 11 12  2  0
 12 13  1  0
 13 14  2  0
  3 15  1  0
 15 16  1  0
 16 17  1  0
 17 18  2  0
 18 19  1  0
 19 20  1  0
 19 21  1  0
 14  6  1  0
 21 16  2  0
 13  8  1  0
  1 22  1  0
  1 23  1  0
  1 24  1  0
  2 25  1  0
  2 26  1  0
  4 27  1  0
  4 28  1  0
  5 29  1  0
  5 30  1  0
  7 31  1  0
  9 32  1  0
 10 33  1  0
 11 34  1  0
 14 35  1  0
 15 36  1  0
 15 37  1  0
 17 38  1  0
 20 39  1  0
 20 40  1  0
 20 41  1  0
 21 42  1  0
M  CHG  1  14   1
M  END
>  <UniqueID>  (38) 
36

>  <SMILES>  (38) 
CCN(CCn1cc2cccnc2[nH+]1)Cc1cnn(C)c1

>  <Energy>  (38) 
114.21112802843392

>  <Genealogy>  (38) 
CCN(CCn1cc2cccnc2[nH+]1)Cc1cnn(C)c1 (protonated)
CCN(CCn1cc2cccnc2[nH+]1)Cc1cnn(C)c1 (3D coordinates assigned)
CCN(CCn1cc2cccnc2[nH+]1)Cc1cnn(C)c1 (optimized conformer: 114.21112802843392 kcal/mol)

>  <smiles>  (38) 
CCN(CCn1cc2cccnc2n1)Cc1cnn(C)c1

>  <score_type>  (38) 
oracle

>  <origin>  (38) 
adg

>  <m_score__min__energy>  (38) 
-5.5700000000000003

>  <m_primary>  (38) 
energy

$$$$
38:0
     RDKit          3D

 36 39  0  0  0  0  0  0  0  0999 V2000
   57.6160   32.4980   43.1070 F   0  0  0  0  0  0  0  0  0  0  0  0
   57.9440   32.5560   44.4210 C   0  0  0  0  0  0  0  0  0  0  0  0
   58.2770   31.3870   45.1100 C   0  0  0  0  0  0  0  0  0  0  0  0
   58.6180   31.4450   46.4640 C   0  0  0  0  0  0  0  0  0  0  0  0
   58.6150   32.6750   47.1460 C   0  0  0  0  0  0  0  0  0  0  0  0
   58.9790   32.7510   48.5790 C   0  0  0  0  0  0  0  0  0  0  0  0
   58.0600   32.7120   49.5740 N   0  0  0  0  0  0  0  0  0  0  0  0
   58.7450   32.8500   50.7210 C   0  0  0  0  0  0  0  0  0  0  0  0
   58.2240   32.8540   52.0140 C   0  0  0  0  0  0  0  0  0  0  0  0
   59.1250   32.9770   53.0880 C   0  0  0  0  0  0  0  0  0  0  0  0
   58.6570   32.9820   54.3600 F   0  0  0  0  0  0  0  0  0  0  0  0
   60.5130   33.0860   52.8450 C   0  0  0  0  0  0  0  0  0  0  0  0
   61.3750   33.1900   53.8870 F   0  0  0  0  0  0  0  0  0  0  0  0
   61.0090   33.0770   51.5290 C   0  0  0  0  0  0  0  0  0  0  0  0
   60.0900   32.9730   50.4820 C   0  0  0  0  0  0  0  0  0  0  0  0
   60.2670   32.9130   49.1100 C   0  0  0  0  0  0  0  0  0  0  0  0
   61.5560   32.9120   48.3850 C   0  0  0  0  0  0  0  0  0  0  0  0
   61.7980   33.8450   47.3680 C   0  0  0  0  0  0  0  0  0  0  0  0
   63.0200   33.8230   46.6910 C   0  0  0  0  0  0  0  0  0  0  0  0
   63.9680   32.9030   47.0170 N   0  0  0  0  0  0  0  0  0  0  0  0
   63.7560   31.9870   48.0010 C   0  0  0  0  0  0  0  0  0  0  0  0
   62.5490   31.9750   48.7030 C   0  0  0  0  0  0  0  0  0  0  0  0
   58.2930   33.8470   46.4410 C   0  0  0  0  0  0  0  0  0  0  0  0
   57.9540   33.7850   45.0850 C   0  0  0  0  0  0  0  0  0  0  0  0
   58.2707   30.4198   44.5860 H   0  0  0  0  0  0  0  0  0  0  0  0
   58.8903   30.5235   46.9994 H   0  0  0  0  0  0  0  0  0  0  0  0
   57.0250   32.6120   49.4730 H   0  0  0  0  0  0  0  0  0  0  0  0
   57.1418   32.7638   52.1894 H   0  0  0  0  0  0  0  0  0  0  0  0
   62.0884   33.1497   51.3300 H   0  0  0  0  0  0  0  0  0  0  0  0
   61.0318   34.5890   47.1046 H   0  0  0  0  0  0  0  0  0  0  0  0
   63.2165   34.5523   45.8913 H   0  0  0  0  0  0  0  0  0  0  0  0
   64.8760   32.8980   46.5010 H   0  0  0  0  0  0  0  0  0  0  0  0
   64.5386   31.2532   48.2443 H   0  0  0  0  0  0  0  0  0  0  0  0
   62.3786   31.2358   49.4996 H   0  0  0  0  0  0  0  0  0  0  0  0
   58.3075   34.8180   46.9577 H   0  0  0  0  0  0  0  0  0  0  0  0
   57.6950   34.7053   44.5410 H   0  0  0  0  0  0  0  0  0  0  0  0
  1  2  1  0
  2  3  2  0
  3  4  1  0
  4  5  2  0
  5  6  1  0
  6  7  1  0
  7  8  1  0
  8  9  2  0
  9 10  1  0
 10 11  1  0
 10 12  2  0
 12 13  1  0
 12 14  1  0
 14 15  2  0
 15 16  1  0
 16 17  1  0
 17 18  2  0
 18 19  1  0
 19 20  2  0
 20 21  1  0
 21 22  2  0
  5 23  1  0
 23 24  2  0
 24  2  1  0
 16  6  2  0
 22 17  1  0
 15  8  1  0
  3 25  1  0
  4 26  1  0
  7 27  1  0
  9 28  1  0
 14 29  1  0
 18 30  1  0
 19 31  1  0
 20 32  1  0
 21 33  1  0
 22 34  1  0
 23 35  1  0
 24 36  1  0
M  CHG  1  20   1
M  END
>  <UniqueID>  (39) 
37

>  <SMILES>  (39) 
Fc1ccc(-c2[nH]c3cc(F)c(F)cc3c2-c2cc[nH+]cc2)cc1

>  <Energy>  (39) 
82.89131172260907

>  <Genealogy>  (39) 
Fc1ccc(-c2[nH]c3cc(F)c(F)cc3c2-c2cc[nH+]cc2)cc1 (protonated)
Fc1ccc(-c2[nH]c3cc(F)c(F)cc3c2-c2cc[nH+]cc2)cc1 (3D coordinates assigned)
Fc1ccc(-c2[nH]c3cc(F)c(F)cc3c2-c2cc[nH+]cc2)cc1 (optimized conformer: 82.89131172260907 kcal/mol)

>  <smiles>  (39) 
Fc1ccc(-c2[nH]c3cc(F)c(F)cc3c2-c2ccncc2)cc1

>  <score_type>  (39) 
oracle

>  <origin>  (39) 
adg

>  <m_score__min__energy>  (39) 
-5.8399999999999999

>  <m_primary>  (39) 
energy

$$$$
39:0
     RDKit          3D

 42 45  0  0  0  0  0  0  0  0999 V2000
   62.3990   32.1360   47.1960 C   0  0  0  0  0  0  0  0  0  0  0  0
   61.1770   31.9280   47.9670 N   0  0  0  0  0  0  0  0  0  0  0  0
   60.9760   30.6890   48.6570 C   0  0  0  0  0  0  0  0  0  0  0  0
   61.7050   30.4360   49.8290 C   0  0  0  0  0  0  0  0  0  0  0  0
   61.4740   29.2760   50.5700 C   0  0  0  0  0  0  0  0  0  0  0  0
   60.5080   28.3610   50.1510 C   0  0  0  0  0  0  0  0  0  0  0  0
   59.7770   28.5980   48.9840 C   0  0  0  0  0  0  0  0  0  0  0  0
   60.0110   29.7520   48.2160 C   0  0  0  0  0  0  0  0  0  0  0  0
   59.2400   29.9480   46.9690 C   0  0  0  0  0  0  0  0  0  0  0  0
   59.6430   30.7540   45.9500 N   0  0  0  0  0  0  0  0  0  0  0  0
   58.6390   30.6200   45.0690 C   0  0  0  0  0  0  0  0  0  0  0  0
   58.4950   31.2420   43.8320 C   0  0  0  0  0  0  0  0  0  0  0  0
   57.3290   30.9640   43.0930 C   0  0  0  0  0  0  0  0  0  0  0  0
   56.3510   30.0790   43.6050 C   0  0  0  0  0  0  0  0  0  0  0  0
   56.5330   29.4660   44.8600 C   0  0  0  0  0  0  0  0  0  0  0  0
   57.6960   29.7700   45.5600 C   0  0  0  0  0  0  0  0  0  0  0  0
   58.0810   29.3520   46.7350 O   0  0  0  0  0  0  0  0  0  0  0  0
   60.1910   33.2930   48.3940 S   0  0  0  0  0  0  0  0  0  0  0  0
   59.3720   32.9650   49.6120 O   0  0  0  0  0  0  0  0  0  0  0  0
   61.0640   34.4730   48.7210 O   0  0  0  0  0  0  0  0  0  0  0  0
   59.1290   33.6980   47.0510 C   0  0  0  0  0  0  0  0  0  0  0  0
   57.8060   33.2330   47.0330 C   0  0  0  0  0  0  0  0  0  0  0  0
   56.9770   33.5170   45.9430 C   0  0  0  0  0  0  0  0  0  0  0  0
   57.4640   34.2680   44.8690 C   0  0  0  0  0  0  0  0  0  0  0  0
   58.7820   34.7350   44.8840 C   0  0  0  0  0  0  0  0  0  0  0  0
   59.6150   34.4490   45.9700 C   0  0  0  0  0  0  0  0  0  0  0  0
   63.2459   32.2802   47.8830 H   0  0  0  0  0  0  0  0  0  0  0  0
   62.5867   31.2569   46.5620 H   0  0  0  0  0  0  0  0  0  0  0  0
   62.2852   33.0277   46.5620 H   0  0  0  0  0  0  0  0  0  0  0  0
   62.4641   31.1572   50.1662 H   0  0  0  0  0  0  0  0  0  0  0  0
   62.0538   29.0832   51.4847 H   0  0  0  0  0  0  0  0  0  0  0  0
   60.3214   27.4512   50.7404 H   0  0  0  0  0  0  0  0  0  0  0  0
   59.0120   27.8755   48.6635 H   0  0  0  0  0  0  0  0  0  0  0  0
   59.2646   31.9263   43.4455 H   0  0  0  0  0  0  0  0  0  0  0  0
   57.1776   31.4377   42.1118 H   0  0  0  0  0  0  0  0  0  0  0  0
   55.4437   29.8686   43.0198 H   0  0  0  0  0  0  0  0  0  0  0  0
   55.7839   28.7732   45.2710 H   0  0  0  0  0  0  0  0  0  0  0  0
   57.4196   32.6438   47.8777 H   0  0  0  0  0  0  0  0  0  0  0  0
   55.9405   33.1490   45.9307 H   0  0  0  0  0  0  0  0  0  0  0  0
   56.8107   34.4914   44.0126 H   0  0  0  0  0  0  0  0  0  0  0  0
   59.1640   35.3283   44.0401 H   0  0  0  0  0  0  0  0  0  0  0  0
   60.6529   34.8133   45.9769 H   0  0  0  0  0  0  0  0  0  0  0  0
  1  2  1  0
  2  3  1  0
  3  4  2  0
  4  5  1  0
  5  6  2  0
  6  7  1  0
  7  8  2  0
  8  9  1  0
  9 10  2  0
 10 11  1  0
 11 12  2  0
 12 13  1  0
 13 14  2  0
 14 15  1  0
 15 16  2  0
 16 17  1  0
  2 18  1  0
 18 19  2  0
 18 20  2  0
 18 21  1  0
 21 22  2  0
 22 23  1  0
 23 24  2  0
 24 25  1  0
 25 26  2  0
  8  3  1  0
 17  9  1  0
 26 21  1  0
 16 11  1  0
  1 27  1  0
  1 28  1  0
  1 29  1  0
  4 30  1  0
  5 31  1  0
  6 32  1  0
  7 33  1  0
 12 34  1  0
 13 35  1  0
 14 36  1  0
 15 37  1  0
 22 38  1  0
 23 39  1  0
 24 40  1  0
 25 41  1  0
 26 42  1  0
M  END
>  <UniqueID>  (40) 
38

>  <SMILES>  (40) 
CN(c1ccccc1-c1nc2ccccc2o1)S(=O)(=O)c1ccccc1

>  <Energy>  (40) 
88.22314521566284

>  <Genealogy>  (40) 
CN(c1ccccc1-c1nc2ccccc2o1)S(=O)(=O)c1ccccc1 (3D coordinates assigned)
CN(c1ccccc1-c1nc2ccccc2o1)S(=O)(=O)c1ccccc1 (optimized conformer: 88.22314521566284 kcal/mol)

>  <smiles>  (40) 
CN(c1ccccc1-c1nc2ccccc2o1)S(=O)(=O)c1ccccc1

>  <score_type>  (40) 
oracle

>  <origin>  (40) 
adg

>  <m_score__min__energy>  (40) 
-8.5600000000000005

>  <m_primary>  (40) 
energy

$$$$
40:0
     RDKit          3D

 39 41  0  0  0  0  0  0  0  0999 V2000
   58.0446   32.6716   42.6727 H   0  0  0  0  0  0  0  0  0  0  0  0
   57.5870   31.8260   43.2070 C   0  0  0  0  0  0  0  0  0  0  0  0
   57.6890   31.7340   44.6040 C   0  0  0  0  0  0  0  0  0  0  0  0
   58.3880   32.7700   45.4000 C   0  0  0  0  0  0  0  0  0  0  0  0
   58.6090   34.0330   44.8220 C   0  0  0  0  0  0  0  0  0  0  0  0
   58.2566   34.2340   43.7996 H   0  0  0  0  0  0  0  0  0  0  0  0
   59.2720   35.0340   45.5350 C   0  0  0  0  0  0  0  0  0  0  0  0
   59.4469   36.0157   45.0707 H   0  0  0  0  0  0  0  0  0  0  0  0
   59.7120   34.7900   46.8340 C   0  0  0  0  0  0  0  0  0  0  0  0
   60.2409   35.5777   47.3906 H   0  0  0  0  0  0  0  0  0  0  0  0
   59.4840   33.5490   47.4320 C   0  0  0  0  0  0  0  0  0  0  0  0
   59.8325   33.3651   48.4590 H   0  0  0  0  0  0  0  0  0  0  0  0
   58.8100   32.5300   46.7280 C   0  0  0  0  0  0  0  0  0  0  0  0
   58.5250   31.2910   47.3270 O   0  0  0  0  0  0  0  0  0  0  0  0
   58.9170   30.9170   48.6420 C   0  0  0  0  0  0  0  0  0  0  0  0
   58.3243   31.4825   49.3761 H   0  0  0  0  0  0  0  0  0  0  0  0
   58.7450   29.8398   48.7835 H   0  0  0  0  0  0  0  0  0  0  0  0
   59.9849   31.1394   48.7835 H   0  0  0  0  0  0  0  0  0  0  0  0
   57.0920   30.6910   45.2470 N   0  0  0  0  0  0  0  0  0  0  0  0
   56.4150   29.7140   44.5790 C   0  0  0  0  0  0  0  0  0  0  0  0
   55.8610   28.7290   45.2210 N   0  0  0  0  0  0  0  0  0  0  0  0
   56.5670   27.5150   45.6210 C   0  0  0  0  0  0  0  0  0  0  0  0
   56.1945   27.1795   46.6001 H   0  0  0  0  0  0  0  0  0  0  0  0
   56.3940   26.7262   44.8741 H   0  0  0  0  0  0  0  0  0  0  0  0
   58.0370   27.8020   45.7160 C   0  0  0  0  0  0  0  0  0  0  0  0
   58.8030   27.9680   44.5500 C   0  0  0  0  0  0  0  0  0  0  0  0
   58.3298   27.8585   43.5630 H   0  0  0  0  0  0  0  0  0  0  0  0
   60.1650   28.2720   44.6400 C   0  0  0  0  0  0  0  0  0  0  0  0
   60.7625   28.3932   43.7244 H   0  0  0  0  0  0  0  0  0  0  0  0
   60.7680   28.4220   45.8920 C   0  0  0  0  0  0  0  0  0  0  0  0
   61.8407   28.6557   45.9612 H   0  0  0  0  0  0  0  0  0  0  0  0
   60.0080   28.2750   47.0570 C   0  0  0  0  0  0  0  0  0  0  0  0
   60.5930   28.4300   48.2710 F   0  0  0  0  0  0  0  0  0  0  0  0
   58.6460   27.9710   46.9710 C   0  0  0  0  0  0  0  0  0  0  0  0
   58.0492   27.8638   47.8888 H   0  0  0  0  0  0  0  0  0  0  0  0
   56.3150   29.7720   43.1860 C   0  0  0  0  0  0  0  0  0  0  0  0
   55.7792   28.9852   42.6348 H   0  0  0  0  0  0  0  0  0  0  0  0
   56.9010   30.8370   42.5010 C   0  0  0  0  0  0  0  0  0  0  0  0
   56.8223   30.8969   41.4055 H   0  0  0  0  0  0  0  0  0  0  0  0
  1  2  1  0
  2  3  2  0
  3  4  1  0
  4  5  2  0
  5  6  1  0
  5  7  1  0
  7  8  1  0
  7  9  2  0
  9 10  1  0
  9 11  1  0
 11 12  1  0
 11 13  2  0
 13 14  1  0
 14 15  1  0
 15 16  1  0
 15 17  1  0
 15 18  1  0
  3 19  1  0
 19 20  1  0
 20 21  2  0
 21 22  1  0
 22 23  1  0
 22 24  1  0
 22 25  1  0
 25 26  2  0
 26 27  1  0
 26 28  1  0
 28 29  1  0
 28 30  2  0
 30 31  1  0
 30 32  1  0
 32 33  1  0
 32 34  2  0
 34 35  1  0
 20 36  1  0
 36 37  1  0
 36 38  2  0
 38 39  1  0
 38  2  1  0
 13  4  1  0
 34 25  1  0
M  CHG  1  19  -1
M  END
>  <UniqueID>  (41) 
39

>  <SMILES>  (41) 
COc1ccccc1-c1ccc/c(=N/Cc2cccc(F)c2)[n-]1

>  <Energy>  (41) 
45.98890209458495

>  <Genealogy>  (41) 
COc1ccccc1-c1cccc(=NCc2cccc(F)c2)[n-]1 (protonated)
COc1ccccc1-c1ccc/c(=N/Cc2cccc(F)c2)[n-]1 (cis-trans isomerization)
COc1ccccc1-c1ccc/c(=N/Cc2cccc(F)c2)[n-]1 (3D coordinates assigned)
COc1ccccc1-c1ccc/c(=N/Cc2cccc(F)c2)[n-]1 (optimized conformer: 45.98890209458495 kcal/mol)

>  <smiles>  (41) 
COc1ccccc1-c1cccc(=NCc2cccc(F)c2)[nH]1

>  <score_type>  (41) 
oracle

>  <origin>  (41) 
adg

>  <m_score__min__energy>  (41) 
-9.4700000000000006

>  <m_primary>  (41) 
energy

$$$$
41:0
     RDKit          3D

 38 39  0  0  0  0  0  0  0  0999 V2000
   58.7600   28.3870   46.7050 C   0  0  0  0  0  0  0  0  0  0  0  0
   59.1080   28.1070   45.3010 N   0  0  0  0  0  0  0  0  0  0  0  0
   60.0900   29.1000   44.8340 C   0  0  0  0  0  0  0  0  0  0  0  0
   57.9070   28.1300   44.4390 C   0  0  0  0  0  0  0  0  0  0  0  0
   56.6310   28.1210   45.2870 C   0  0  0  0  0  0  0  0  0  0  0  0
   55.6680   29.0990   44.7490 N   0  0  0  0  0  0  0  0  0  0  0  0
   56.1480   29.7460   43.5190 C   0  0  0  0  0  0  0  0  0  0  0  0
   56.9690   30.9580   43.8390 C   0  0  0  0  0  0  0  0  0  0  0  0
   57.5970   31.7850   42.9350 C   0  0  0  0  0  0  0  0  0  0  0  0
   58.2820   32.6720   43.6180 O   0  0  0  0  0  0  0  0  0  0  0  0
   58.1050   32.4150   44.8980 C   0  0  0  0  0  0  0  0  0  0  0  0
   58.7390   33.2040   45.9820 C   0  0  0  0  0  0  0  0  0  0  0  0
   59.3570   34.4430   45.7270 C   0  0  0  0  0  0  0  0  0  0  0  0
   59.9460   35.1670   46.7690 C   0  0  0  0  0  0  0  0  0  0  0  0
   59.9250   34.6640   48.0720 C   0  0  0  0  0  0  0  0  0  0  0  0
   59.3170   33.4360   48.3350 C   0  0  0  0  0  0  0  0  0  0  0  0
   58.7260   32.7080   47.2980 C   0  0  0  0  0  0  0  0  0  0  0  0
   57.2940   31.3510   45.0830 N   0  0  0  0  0  0  0  0  0  0  0  0
   59.4434   27.8372   47.3688 H   0  0  0  0  0  0  0  0  0  0  0  0
   58.8514   29.4662   46.8972 H   0  0  0  0  0  0  0  0  0  0  0  0
   57.7254   28.0667   46.8972 H   0  0  0  0  0  0  0  0  0  0  0  0
   60.5658   29.5811   45.7013 H   0  0  0  0  0  0  0  0  0  0  0  0
   60.8575   28.5988   44.2259 H   0  0  0  0  0  0  0  0  0  0  0  0
   59.5803   29.8619   44.2259 H   0  0  0  0  0  0  0  0  0  0  0  0
   57.9234   29.0399   43.8211 H   0  0  0  0  0  0  0  0  0  0  0  0
   57.9132   27.2345   43.8002 H   0  0  0  0  0  0  0  0  0  0  0  0
   56.1835   27.1164   45.2630 H   0  0  0  0  0  0  0  0  0  0  0  0
   56.8816   28.3900   46.3238 H   0  0  0  0  0  0  0  0  0  0  0  0
   54.7840   28.5920   44.5060 H   0  0  0  0  0  0  0  0  0  0  0  0
   56.7647   29.0321   42.9534 H   0  0  0  0  0  0  0  0  0  0  0  0
   55.2778   30.0578   42.9227 H   0  0  0  0  0  0  0  0  0  0  0  0
   57.5357   31.7150   41.8389 H   0  0  0  0  0  0  0  0  0  0  0  0
   59.3768   34.8439   44.7029 H   0  0  0  0  0  0  0  0  0  0  0  0
   60.4267   36.1345   46.5619 H   0  0  0  0  0  0  0  0  0  0  0  0
   60.3875   35.2356   48.8902 H   0  0  0  0  0  0  0  0  0  0  0  0
   59.3026   33.0396   49.3610 H   0  0  0  0  0  0  0  0  0  0  0  0
   58.2477   31.7410   47.5128 H   0  0  0  0  0  0  0  0  0  0  0  0
   56.9950   30.9000   45.9750 H   0  0  0  0  0  0  0  0  0  0  0  0
  1  2  1  0
  2  3  1  0
  2  4  1  0
  4  5  1  0
  5  6  1  0
  6  7  1  0
  7  8  1  0
  8  9  2  0
  9 10  1  0
 10 11  1  0
 11 12  1  0
 12 13  2  0
 13 14  1  0
 14 15  2  0
 15 16  1  0
 16 17  2  0
 11 18  2  0
 18  8  1  0
 17 12  1  0
  1 19  1  0
  1 20  1  0
  1 21  1  0
  3 22  1  0
  3 23  1  0
  3 24  1  0
  4 25  1  0
  4 26  1  0
  5 27  1  0
  5 28  1  0
  6 29  1  0
  7 30  1  0
  7 31  1  0
  9 32  1  0
 13 33  1  0
 14 34  1  0
 15 35  1  0
 16 36  1  0
 17 37  1  0
 18 38  1  0
M  CHG  1  18   1
M  END
>  <UniqueID>  (42) 
40

>  <SMILES>  (42) 
CN(C)CCNCc1coc(-c2ccccc2)[nH+]1

>  <Energy>  (42) 
67.76640158552028

>  <Genealogy>  (42) 
CN(C)CCNCc1coc(-c2ccccc2)[nH+]1 (protonated)
CN(C)CCNCc1coc(-c2ccccc2)[nH+]1 (3D coordinates assigned)
CN(C)CCNCc1coc(-c2ccccc2)[nH+]1 (optimized conformer: 67.76640158552028 kcal/mol)

>  <smiles>  (42) 
CN(C)CCNCc1coc(-c2ccccc2)n1

>  <score_type>  (42) 
oracle

>  <origin>  (42) 
adg

>  <m_score__min__energy>  (42) 
-4.7300000000000004

>  <m_primary>  (42) 
energy

$$$$
42:0
     RDKit          3D

 49 51  0  0  0  0  0  0  0  0999 V2000
   57.0650   32.3610   41.1510 C   0  0  0  0  0  0  0  0  0  0  0  0
   58.2390   32.1920   42.1100 C   0  0  0  0  0  0  0  0  0  0  0  0
   57.7640   31.8500   43.4570 N   0  0  0  0  0  0  0  0  0  0  0  0
   58.1210   32.6600   44.5920 C   0  0  0  0  0  0  0  0  0  0  0  0
   57.7100   32.2910   45.8840 C   0  0  0  0  0  0  0  0  0  0  0  0
   58.0430   33.0840   46.9860 C   0  0  0  0  0  0  0  0  0  0  0  0
   58.7880   34.2520   46.8090 C   0  0  0  0  0  0  0  0  0  0  0  0
   59.2030   34.6280   45.5290 C   0  0  0  0  0  0  0  0  0  0  0  0
   58.8720   33.8390   44.4240 C   0  0  0  0  0  0  0  0  0  0  0  0
   56.7210   30.4730   43.6700 S   0  0  0  0  0  0  0  0  0  0  0  0
   56.2560   29.9830   42.3260 O   0  0  0  0  0  0  0  0  0  0  0  0
   55.5070   30.8680   44.4650 O   0  0  0  0  0  0  0  0  0  0  0  0
   57.5890   29.1950   44.5160 C   0  0  0  0  0  0  0  0  0  0  0  0
   58.9870   29.2180   44.6020 C   0  0  0  0  0  0  0  0  0  0  0  0
   59.6620   28.2160   45.3010 C   0  0  0  0  0  0  0  0  0  0  0  0
   58.9480   27.1880   45.9220 C   0  0  0  0  0  0  0  0  0  0  0  0
   57.5450   27.1500   45.8440 C   0  0  0  0  0  0  0  0  0  0  0  0
   56.7890   26.0710   46.5170 C   0  0  0  0  0  0  0  0  0  0  0  0
   55.5410   25.9730   46.3500 O   0  0  0  0  0  0  0  0  0  0  0  0
   57.4590   25.1650   47.3480 O   0  0  0  0  0  0  0  0  0  0  0  0
   56.8140   24.0680   47.9910 C   0  0  0  0  0  0  0  0  0  0  0  0
   57.0170   22.8100   47.2070 C   0  0  0  0  0  0  0  0  0  0  0  0
   57.0090   21.7020   47.8060 O   0  0  0  0  0  0  0  0  0  0  0  0
   57.1900   22.8950   45.7820 N   0  0  0  0  0  0  0  0  0  0  0  0
   56.2390   23.2340   44.7140 C   0  0  0  0  0  0  0  0  0  0  0  0
   56.7750   24.0970   43.5850 C   0  0  0  0  0  0  0  0  0  0  0  0
   56.5050   22.6100   43.3540 C   0  0  0  0  0  0  0  0  0  0  0  0
   56.8730   28.1590   45.1310 C   0  0  0  0  0  0  0  0  0  0  0  0
   56.1374   32.4945   41.7269 H   0  0  0  0  0  0  0  0  0  0  0  0
   57.2334   33.2442   40.5172 H   0  0  0  0  0  0  0  0  0  0  0  0
   56.9775   31.4662   40.5172 H   0  0  0  0  0  0  0  0  0  0  0  0
   58.8925   31.3872   41.7424 H   0  0  0  0  0  0  0  0  0  0  0  0
   58.7935   33.1407   42.1608 H   0  0  0  0  0  0  0  0  0  0  0  0
   57.1226   31.3724   46.0292 H   0  0  0  0  0  0  0  0  0  0  0  0
   57.7178   32.7876   47.9942 H   0  0  0  0  0  0  0  0  0  0  0  0
   59.0479   34.8757   47.6770 H   0  0  0  0  0  0  0  0  0  0  0  0
   59.7915   35.5470   45.3907 H   0  0  0  0  0  0  0  0  0  0  0  0
   59.1998   34.1406   43.4182 H   0  0  0  0  0  0  0  0  0  0  0  0
   59.5537   30.0270   44.1179 H   0  0  0  0  0  0  0  0  0  0  0  0
   60.7601   28.2357   45.3632 H   0  0  0  0  0  0  0  0  0  0  0  0
   59.4866   26.4043   46.4749 H   0  0  0  0  0  0  0  0  0  0  0  0
   57.2365   23.9392   48.9984 H   0  0  0  0  0  0  0  0  0  0  0  0
   55.7360   24.2770   48.0566 H   0  0  0  0  0  0  0  0  0  0  0  0
   55.3709   23.2880   45.3874 H   0  0  0  0  0  0  0  0  0  0  0  0
   56.1286   24.8533   43.1157 H   0  0  0  0  0  0  0  0  0  0  0  0
   57.6432   24.7601   43.4563 H   0  0  0  0  0  0  0  0  0  0  0  0
   55.6641   22.2952   42.7186 H   0  0  0  0  0  0  0  0  0  0  0  0
   57.0977   21.7577   42.9902 H   0  0  0  0  0  0  0  0  0  0  0  0
   55.7759   28.1348   45.0554 H   0  0  0  0  0  0  0  0  0  0  0  0
  1  2  1  0
  2  3  1  0
  3  4  1  0
  4  5  2  0
  5  6  1  0
  6  7  2  0
  7  8  1  0
  8  9  2  0
  3 10  1  0
 10 11  2  0
 10 12  2  0
 10 13  1  0
 13 14  2  0
 14 15  1  0
 15 16  2  0
 16 17  1  0
 17 18  1  0
 18 19  2  0
 18 20  1  0
 20 21  1  0
 21 22  1  0
 22 23  2  0
 22 24  1  0
 24 25  1  0
 25 26  1  0
 26 27  1  0
 17 28  2  0
  9  4  1  0
 28 13  1  0
 27 25  1  0
  1 29  1  0
  1 30  1  0
  1 31  1  0
  2 32  1  0
  2 33  1  0
  5 34  1  0
  6 35  1  0
  7 36  1  0
  8 37  1  0
  9 38  1  0
 14 39  1  0
 15 40  1  0
 16 41  1  0
 21 42  1  0
 21 43  1  0
 25 44  1  0
 26 45  1  0
 26 46  1  0
 27 47  1  0
 27 48  1  0
 28 49  1  0
M  CHG  1  24  -1
M  END
>  <UniqueID>  (43) 
41

>  <SMILES>  (43) 
CCN(c1ccccc1)S(=O)(=O)c1cccc(C(=O)OCC(=O)[N-]C2CC2)c1

>  <Energy>  (43) 
319.4443148078318

>  <Genealogy>  (43) 
CCN(c1ccccc1)S(=O)(=O)c1cccc(C(=O)OCC(=O)[N-]C2CC2)c1 (protonated)
CCN(c1ccccc1)S(=O)(=O)c1cccc(C(=O)OCC(=O)[N-]C2CC2)c1 (3D coordinates assigned)
CCN(c1ccccc1)S(=O)(=O)c1cccc(C(=O)OCC(=O)[N-]C2CC2)c1 (nonaromatic ring conformer: 319.4443148078318 kcal/mol)

>  <smiles>  (43) 
CCN(c1ccccc1)S(=O)(=O)c1cccc(C(=O)OCC(=O)NC2CC2)c1

>  <score_type>  (43) 
oracle

>  <origin>  (43) 
adg

>  <m_score__min__energy>  (43) 
-10.880000000000001

>  <m_primary>  (43) 
energy

$$$$
43:0
     RDKit          3D

 52 55  0  0  0  0  0  0  0  0999 V2000
   59.2630   34.4520   48.3030 C   0  0  0  0  0  0  0  0  0  0  0  0
   59.3390   34.2980   46.8490 N   0  0  0  0  0  0  0  0  0  0  0  0
   59.9170   35.3790   46.0530 C   0  0  0  0  0  0  0  0  0  0  0  0
   58.7200   33.1720   46.1990 C   0  0  0  0  0  0  0  0  0  0  0  0
   57.9390   33.3770   45.0490 C   0  0  0  0  0  0  0  0  0  0  0  0
   57.3520   32.2980   44.3880 C   0  0  0  0  0  0  0  0  0  0  0  0
   57.5240   31.0000   44.8770 C   0  0  0  0  0  0  0  0  0  0  0  0
   56.9020   29.6280   43.9780 S   0  0  0  0  0  0  0  0  0  0  0  0
   56.2480   30.1100   42.5090 O   0  0  0  0  0  0  0  0  0  0  0  0
   58.1550   28.3780   43.7680 C   0  0  0  0  0  0  0  0  0  0  0  0
   58.6160   27.8900   45.1140 C   0  0  0  0  0  0  0  0  0  0  0  0
   59.9540   28.0650   45.5120 C   0  0  0  0  0  0  0  0  0  0  0  0
   60.3610   27.6900   46.7960 C   0  0  0  0  0  0  0  0  0  0  0  0
   59.4370   27.1510   47.6950 C   0  0  0  0  0  0  0  0  0  0  0  0
   58.1050   26.9800   47.3100 C   0  0  0  0  0  0  0  0  0  0  0  0
   57.6930   27.3510   46.0250 C   0  0  0  0  0  0  0  0  0  0  0  0
   58.2910   30.7810   46.0240 C   0  0  0  0  0  0  0  0  0  0  0  0
   58.9080   31.8550   46.6810 C   0  0  0  0  0  0  0  0  0  0  0  0
   59.8130   31.5690   47.8140 C   0  0  0  0  0  0  0  0  0  0  0  0
   59.3280   30.8170   48.8940 C   0  0  0  0  0  0  0  0  0  0  0  0
   60.1200   30.5520   49.9650 N   0  0  0  0  0  0  0  0  0  0  0  0
   61.4040   30.9910   50.0310 C   0  0  0  0  0  0  0  0  0  0  0  0
   61.9540   31.7280   48.9740 C   0  0  0  0  0  0  0  0  0  0  0  0
   63.2860   32.1650   49.0260 C   0  0  0  0  0  0  0  0  0  0  0  0
   63.8320   32.8800   47.9580 C   0  0  0  0  0  0  0  0  0  0  0  0
   63.0560   33.1600   46.8320 C   0  0  0  0  0  0  0  0  0  0  0  0
   61.7280   32.7340   46.7690 C   0  0  0  0  0  0  0  0  0  0  0  0
   61.1540   32.0190   47.8420 C   0  0  0  0  0  0  0  0  0  0  0  0
   59.6998   33.5670   48.7888 H   0  0  0  0  0  0  0  0  0  0  0  0
   59.8215   35.3498   48.6063 H   0  0  0  0  0  0  0  0  0  0  0  0
   58.2107   34.5549   48.6063 H   0  0  0  0  0  0  0  0  0  0  0  0
   60.3283   36.1483   46.7231 H   0  0  0  0  0  0  0  0  0  0  0  0
   60.7209   34.9777   45.4184 H   0  0  0  0  0  0  0  0  0  0  0  0
   59.1368   35.8246   45.4184 H   0  0  0  0  0  0  0  0  0  0  0  0
   57.7892   34.3975   44.6666 H   0  0  0  0  0  0  0  0  0  0  0  0
   56.7533   32.4688   43.4812 H   0  0  0  0  0  0  0  0  0  0  0  0
   55.5910   29.4040   42.2870 H   0  0  0  0  0  0  0  0  0  0  0  0
   57.7385   27.5353   43.1967 H   0  0  0  0  0  0  0  0  0  0  0  0
   59.0095   28.8070   43.2242 H   0  0  0  0  0  0  0  0  0  0  0  0
   60.6823   28.4983   44.8107 H   0  0  0  0  0  0  0  0  0  0  0  0
   61.4105   27.8195   47.0990 H   0  0  0  0  0  0  0  0  0  0  0  0
   59.7585   26.8612   48.7063 H   0  0  0  0  0  0  0  0  0  0  0  0
   57.3791   26.5532   48.0178 H   0  0  0  0  0  0  0  0  0  0  0  0
   56.6422   27.2199   45.7274 H   0  0  0  0  0  0  0  0  0  0  0  0
   58.4116   29.7596   46.4141 H   0  0  0  0  0  0  0  0  0  0  0  0
   58.2956   30.4380   48.8734 H   0  0  0  0  0  0  0  0  0  0  0  0
   59.7300   29.9990   50.7600 H   0  0  0  0  0  0  0  0  0  0  0  0
   62.0145   30.7668   50.9182 H   0  0  0  0  0  0  0  0  0  0  0  0
   63.9019   31.9439   49.9102 H   0  0  0  0  0  0  0  0  0  0  0  0
   64.8760   33.2234   48.0041 H   0  0  0  0  0  0  0  0  0  0  0  0
   63.4926   33.7185   45.9909 H   0  0  0  0  0  0  0  0  0  0  0  0
   61.1247   32.9572   45.8767 H   0  0  0  0  0  0  0  0  0  0  0  0
  1  2  1  0
  2  3  1  0
  2  4  1  0
  4  5  2  0
  5  6  1  0
  6  7  2  0
  7  8  1  0
  8  9  1  6
  8 10  1  0
 10 11  1  0
 11 12  2  0
 12 13  1  0
 13 14  2  0
 14 15  1  0
 15 16  2  0
  7 17  1  0
 17 18  2  0
 18 19  1  0
 19 20  2  0
 20 21  1  0
 21 22  2  0
 22 23  1  0
 23 24  2  0
 24 25  1  0
 25 26  2  0
 26 27  1  0
 27 28  2  0
 18  4  1  0
 28 19  1  0
 16 11  1  0
 28 23  1  0
  1 29  1  0
  1 30  1  0
  1 31  1  0
  3 32  1  0
  3 33  1  0
  3 34  1  0
  5 35  1  0
  6 36  1  0
  9 37  1  0
 10 38  1  0
 10 39  1  0
 12 40  1  0
 13 41  1  0
 14 42  1  0
 15 43  1  0
 16 44  1  0
 17 45  1  0
 20 46  1  0
 21 47  1  0
 22 48  1  0
 24 49  1  0
 25 50  1  0
 26 51  1  0
 27 52  1  0
M  CHG  2   8   1  21   1
M  END
>  <UniqueID>  (44) 
42

>  <SMILES>  (44) 
CN(C)c1ccc([S@@+](O)Cc2ccccc2)cc1-c1c[nH+]cc2ccccc12

>  <Energy>  (44) 
62.04978415178646

>  <Genealogy>  (44) 
CN(C)c1ccc([S+](O)Cc2ccccc2)cc1-c1c[nH+]cc2ccccc12 (protonated)
CN(C)c1ccc([S@@+](O)Cc2ccccc2)cc1-c1c[nH+]cc2ccccc12 (chirality)
CN(C)c1ccc([S@@+](O)Cc2ccccc2)cc1-c1c[nH+]cc2ccccc12 (3D coordinates assigned)
CN(C)c1ccc([S@@+](O)Cc2ccccc2)cc1-c1c[nH+]cc2ccccc12 (optimized conformer: 62.04978415178646 kcal/mol)

>  <smiles>  (44) 
CN(C)c1ccc([S+]([O-])Cc2ccccc2)cc1-c1cncc2ccccc12

>  <score_type>  (44) 
oracle

>  <origin>  (44) 
adg

>  <m_score__min__energy>  (44) 
-6.1399999999999997

>  <m_primary>  (44) 
energy

$$$$
44:0
     RDKit          3D

 31 32  0  0  0  0  0  0  0  0999 V2000
   55.1570   29.7340   43.7390 C   0  0  0  0  0  0  0  0  0  0  0  0
   55.6860   29.3360   45.0000 O   0  0  0  0  0  0  0  0  0  0  0  0
   56.8760   28.6110   45.1750 C   0  0  0  0  0  0  0  0  0  0  0  0
   56.8800   27.3120   45.7210 C   0  0  0  0  0  0  0  0  0  0  0  0
   58.0820   26.6210   45.8910 C   0  0  0  0  0  0  0  0  0  0  0  0
   59.2890   27.2140   45.5230 C   0  0  0  0  0  0  0  0  0  0  0  0
   59.3010   28.5000   44.9810 C   0  0  0  0  0  0  0  0  0  0  0  0
   58.0990   29.2040   44.7910 C   0  0  0  0  0  0  0  0  0  0  0  0
   58.1290   30.5920   44.1980 C   0  0  0  0  0  0  0  0  0  0  0  0
   57.4580   31.5490   45.0800 N   0  0  0  0  0  0  0  0  0  0  0  0
   58.0920   32.7060   45.6610 C   0  0  0  0  0  0  0  0  0  0  0  0
   58.2690   32.7620   47.0530 C   0  0  0  0  0  0  0  0  0  0  0  0
   58.8770   33.8730   47.6470 C   0  0  0  0  0  0  0  0  0  0  0  0
   59.3190   34.9350   46.8560 C   0  0  0  0  0  0  0  0  0  0  0  0
   59.1580   34.8870   45.4700 C   0  0  0  0  0  0  0  0  0  0  0  0
   58.5500   33.7790   44.8710 C   0  0  0  0  0  0  0  0  0  0  0  0
   54.2870   30.3885   43.8964 H   0  0  0  0  0  0  0  0  0  0  0  0
   55.9277   30.2781   43.1733 H   0  0  0  0  0  0  0  0  0  0  0  0
   54.8477   28.8427   43.1733 H   0  0  0  0  0  0  0  0  0  0  0  0
   55.9312   26.8394   46.0150 H   0  0  0  0  0  0  0  0  0  0  0  0
   58.0763   25.6065   46.3162 H   0  0  0  0  0  0  0  0  0  0  0  0
   60.2336   26.6672   45.6601 H   0  0  0  0  0  0  0  0  0  0  0  0
   60.2572   28.9659   44.7006 H   0  0  0  0  0  0  0  0  0  0  0  0
   59.1752   30.9021   44.0588 H   0  0  0  0  0  0  0  0  0  0  0  0
   57.6031   30.5741   43.2321 H   0  0  0  0  0  0  0  0  0  0  0  0
   56.4360   31.4070   45.2480 H   0  0  0  0  0  0  0  0  0  0  0  0
   57.9270   31.9261   47.6809 H   0  0  0  0  0  0  0  0  0  0  0  0
   59.0070   33.9099   48.7387 H   0  0  0  0  0  0  0  0  0  0  0  0
   59.7940   35.8095   47.3247 H   0  0  0  0  0  0  0  0  0  0  0  0
   59.5102   35.7227   44.8475 H   0  0  0  0  0  0  0  0  0  0  0  0
   58.4288   33.7451   43.7782 H   0  0  0  0  0  0  0  0  0  0  0  0
  1  2  1  0
  2  3  1  0
  3  4  2  0
  4  5  1  0
  5  6  2  0
  6  7  1  0
  7  8  2  0
  8  9  1  0
  9 10  1  0
 10 11  1  0
 11 12  2  0
 12 13  1  0
 13 14  2  0
 14 15  1  0
 15 16  2  0
  8  3  1  0
 16 11  1  0
  1 17  1  0
  1 18  1  0
  1 19  1  0
  4 20  1  0
  5 21  1  0
  6 22  1  0
  7 23  1  0
  9 24  1  0
  9 25  1  0
 10 26  1  0
 12 27  1  0
 13 28  1  0
 14 29  1  0
 15 30  1  0
 16 31  1  0
M  END
>  <UniqueID>  (45) 
43

>  <SMILES>  (45) 
COc1ccccc1CNc1ccccc1

>  <Energy>  (45) 
30.487334350262216

>  <Genealogy>  (45) 
COc1ccccc1CNc1ccccc1 (3D coordinates assigned)
COc1ccccc1CNc1ccccc1 (optimized conformer: 30.487334350262216 kcal/mol)

>  <smiles>  (45) 
COc1ccccc1CNc1ccccc1

>  <score_type>  (45) 
oracle

>  <origin>  (45) 
adg

>  <m_score__min__energy>  (45) 
-6.0199999999999996

>  <m_primary>  (45) 
energy

$$$$
45:0
     RDKit          3D

 53 54  0  0  0  0  0  0  0  0999 V2000
   58.6943   29.3128   50.1594 H   0  0  0  0  0  0  0  0  0  0  0  0
   59.1470   29.5270   49.1800 C   0  0  0  0  0  0  0  0  0  0  0  0
   58.7810   30.6810   48.4810 C   0  0  0  0  0  0  0  0  0  0  0  0
   58.0393   31.3697   48.9117 H   0  0  0  0  0  0  0  0  0  0  0  0
   59.3550   30.9650   47.2330 C   0  0  0  0  0  0  0  0  0  0  0  0
   58.9740   32.1510   46.5110 N   0  0  0  0  0  0  0  0  0  0  0  0
   59.6980   33.3170   46.4990 C   0  0  0  0  0  0  0  0  0  0  0  0
   61.0000   33.4840   47.2370 C   0  0  0  0  0  0  0  0  0  0  0  0
   60.8129   33.4600   48.3207 H   0  0  0  0  0  0  0  0  0  0  0  0
   61.6833   32.6661   46.9647 H   0  0  0  0  0  0  0  0  0  0  0  0
   61.4548   34.4478   46.9647 H   0  0  0  0  0  0  0  0  0  0  0  0
   59.1100   34.3470   45.7580 C   0  0  0  0  0  0  0  0  0  0  0  0
   59.6570   35.7210   45.5400 C   0  0  0  0  0  0  0  0  0  0  0  0
   59.8471   36.1985   46.5125 H   0  0  0  0  0  0  0  0  0  0  0  0
   60.5977   35.6556   44.9735 H   0  0  0  0  0  0  0  0  0  0  0  0
   58.9288   36.3200   44.9735 H   0  0  0  0  0  0  0  0  0  0  0  0
   57.6900   33.7690   45.0670 S   0  0  0  0  0  0  0  0  0  0  0  0
   57.8400   32.2420   45.7690 C   0  0  0  0  0  0  0  0  0  0  0  0
   57.0200   31.2410   45.6100 N   0  0  0  0  0  0  0  0  0  0  0  0
   57.1550   30.1400   44.6990 C   0  0  0  0  0  0  0  0  0  0  0  0
   56.1180   29.5130   44.3540 O   0  0  0  0  0  0  0  0  0  0  0  0
   58.4900   29.7390   44.1250 C   0  0  0  0  0  0  0  0  0  0  0  0
   59.2696   30.3885   44.5496 H   0  0  0  0  0  0  0  0  0  0  0  0
   58.4379   29.8463   43.0315 H   0  0  0  0  0  0  0  0  0  0  0  0
   58.8340   28.2720   44.4460 C   0  0  0  0  0  0  0  0  0  0  0  0
   59.1758   28.2209   45.4903 H   0  0  0  0  0  0  0  0  0  0  0  0
   59.6051   27.9685   43.7226 H   0  0  0  0  0  0  0  0  0  0  0  0
   57.7050   27.3180   44.2810 N   0  0  0  0  0  0  0  0  0  0  0  0
   56.9210   27.9280   43.9410 H   0  0  0  0  0  0  0  0  0  0  0  0
   57.9490   26.3340   43.1930 C   0  0  0  0  0  0  0  0  0  0  0  0
   59.0335   26.2462   43.0316 H   0  0  0  0  0  0  0  0  0  0  0  0
   57.4375   26.6966   42.2891 H   0  0  0  0  0  0  0  0  0  0  0  0
   57.3860   24.9480   43.5280 C   0  0  0  0  0  0  0  0  0  0  0  0
   57.3366   24.8265   44.6202 H   0  0  0  0  0  0  0  0  0  0  0  0
   56.3766   24.8495   43.1021 H   0  0  0  0  0  0  0  0  0  0  0  0
   58.0408   24.1735   43.1021 H   0  0  0  0  0  0  0  0  0  0  0  0
   57.2200   26.7430   45.5710 C   0  0  0  0  0  0  0  0  0  0  0  0
   56.4682   27.4310   45.9851 H   0  0  0  0  0  0  0  0  0  0  0  0
   56.8277   25.7456   45.3234 H   0  0  0  0  0  0  0  0  0  0  0  0
   58.2940   26.5120   46.6510 C   0  0  0  0  0  0  0  0  0  0  0  0
   57.8388   26.6099   47.6476 H   0  0  0  0  0  0  0  0  0  0  0  0
   58.7162   25.5025   46.5383 H   0  0  0  0  0  0  0  0  0  0  0  0
   59.0939   27.2586   46.5383 H   0  0  0  0  0  0  0  0  0  0  0  0
   60.2940   30.0770   46.6890 C   0  0  0  0  0  0  0  0  0  0  0  0
   60.7449   30.2895   45.7084 H   0  0  0  0  0  0  0  0  0  0  0  0
   60.6590   28.9240   47.3870 C   0  0  0  0  0  0  0  0  0  0  0  0
   61.3977   28.2345   46.9524 H   0  0  0  0  0  0  0  0  0  0  0  0
   60.0930   28.6380   48.6350 C   0  0  0  0  0  0  0  0  0  0  0  0
   60.4930   27.4670   49.2970 O   0  0  0  0  0  0  0  0  0  0  0  0
   61.0810   27.4370   50.5920 C   0  0  0  0  0  0  0  0  0  0  0  0
   60.2897   27.4774   51.3550 H   0  0  0  0  0  0  0  0  0  0  0  0
   61.6582   26.5082   50.7112 H   0  0  0  0  0  0  0  0  0  0  0  0
   61.7498   28.3022   50.7112 H   0  0  0  0  0  0  0  0  0  0  0  0
  1  2  1  0
  2  3  2  0
  3  4  1  0
  3  5  1  0
  5  6  1  0
  6  7  1  0
  7  8  1  0
  8  9  1  0
  8 10  1  0
  8 11  1  0
  7 12  2  0
 12 13  1  0
 13 14  1  0
 13 15  1  0
 13 16  1  0
 12 17  1  0
 17 18  1  0
 18 19  2  0
 19 20  1  0
 20 21  2  0
 20 22  1  0
 22 23  1  0
 22 24  1  0
 22 25  1  0
 25 26  1  0
 25 27  1  0
 25 28  1  0
 28 29  1  0
 28 30  1  0
 30 31  1  0
 30 32  1  0
 30 33  1  0
 33 34  1  0
 33 35  1  0
 33 36  1  0
 28 37  1  0
 37 38  1  0
 37 39  1  0
 37 40  1  0
 40 41  1  0
 40 42  1  0
 40 43  1  0
  5 44  2  0
 44 45  1  0
 44 46  1  0
 46 47  1  0
 46 48  2  0
 48 49  1  0
 49 50  1  0
 50 51  1  0
 50 52  1  0
 50 53  1  0
 48  2  1  0
 18  6  1  0
M  CHG  1  28   1
M  END
>  <UniqueID>  (46) 
44

>  <SMILES>  (46) 
CC[NH+](CC)CCC(=O)/N=c1\sc(C)c(C)n1-c1ccc(OC)cc1

>  <Energy>  (46) 
99.85286436064226

>  <Genealogy>  (46) 
CC[NH+](CC)CCC(=O)N=c1sc(C)c(C)n1-c1ccc(OC)cc1 (protonated)
CC[NH+](CC)CCC(=O)/N=c1\sc(C)c(C)n1-c1ccc(OC)cc1 (cis-trans isomerization)
CC[NH+](CC)CCC(=O)/N=c1\sc(C)c(C)n1-c1ccc(OC)cc1 (3D coordinates assigned)
CC[NH+](CC)CCC(=O)/N=c1\sc(C)c(C)n1-c1ccc(OC)cc1 (optimized conformer: 99.85286436064226 kcal/mol)

>  <smiles>  (46) 
CCN(CC)CCC(=O)N=c1sc(C)c(C)n1-c1ccc(OC)cc1

>  <score_type>  (46) 
oracle

>  <origin>  (46) 
adg

>  <m_score__min__energy>  (46) 
-5.46

>  <m_primary>  (46) 
energy

$$$$
46:0
     RDKit          3D

 33 35  0  0  0  0  0  0  0  0999 V2000
   59.9189   28.1151   49.0511 H   0  0  0  0  0  0  0  0  0  0  0  0
   59.8740   28.2630   47.9620 C   0  0  0  0  0  0  0  0  0  0  0  0
   58.9540   27.5880   47.2220 N   0  0  0  0  0  0  0  0  0  0  0  0
   58.8700   27.7360   45.8700 C   0  0  0  0  0  0  0  0  0  0  0  0
   57.8120   26.9960   45.1080 C   0  0  0  0  0  0  0  0  0  0  0  0
   57.9679   25.9135   45.2258 H   0  0  0  0  0  0  0  0  0  0  0  0
   57.8758   27.2680   44.0441 H   0  0  0  0  0  0  0  0  0  0  0  0
   56.4590   27.3610   45.6280 C   0  0  0  0  0  0  0  0  0  0  0  0
   55.8400   26.5490   46.3700 O   0  0  0  0  0  0  0  0  0  0  0  0
   55.8690   28.6090   45.2360 N   0  0  0  0  0  0  0  0  0  0  0  0
   56.5010   29.6310   44.7400 C   0  0  0  0  0  0  0  0  0  0  0  0
   57.0440   30.6240   45.4790 N   0  0  0  0  0  0  0  0  0  0  0  0
   57.6330   31.5700   44.6980 C   0  0  0  0  0  0  0  0  0  0  0  0
   58.3170   32.7540   45.2760 C   0  0  0  0  0  0  0  0  0  0  0  0
   58.5200   33.8940   44.4740 C   0  0  0  0  0  0  0  0  0  0  0  0
   58.1566   33.9012   43.4358 H   0  0  0  0  0  0  0  0  0  0  0  0
   59.1780   35.0150   44.9840 C   0  0  0  0  0  0  0  0  0  0  0  0
   59.3306   35.8984   44.3466 H   0  0  0  0  0  0  0  0  0  0  0  0
   59.6420   35.0180   46.2980 C   0  0  0  0  0  0  0  0  0  0  0  0
   60.1641   35.9010   46.6952 H   0  0  0  0  0  0  0  0  0  0  0  0
   59.4440   33.9000   47.1100 C   0  0  0  0  0  0  0  0  0  0  0  0
   59.8076   33.9082   48.1482 H   0  0  0  0  0  0  0  0  0  0  0  0
   58.7860   32.7680   46.6130 C   0  0  0  0  0  0  0  0  0  0  0  0
   58.5190   31.4270   47.7230 Cl  0  0  0  0  0  0  0  0  0  0  0  0
   57.5640   31.3160   43.3260 C   0  0  0  0  0  0  0  0  0  0  0  0
   57.9836   31.9506   42.5315 H   0  0  0  0  0  0  0  0  0  0  0  0
   56.7290   29.8730   43.0970 S   0  0  0  0  0  0  0  0  0  0  0  0
   59.7390   28.6220   45.2140 C   0  0  0  0  0  0  0  0  0  0  0  0
   59.6717   28.7620   44.1250 H   0  0  0  0  0  0  0  0  0  0  0  0
   60.6900   29.3240   45.9580 C   0  0  0  0  0  0  0  0  0  0  0  0
   61.3807   30.0173   45.4557 H   0  0  0  0  0  0  0  0  0  0  0  0
   60.7620   29.1440   47.3400 C   0  0  0  0  0  0  0  0  0  0  0  0
   61.5101   29.6901   47.9334 H   0  0  0  0  0  0  0  0  0  0  0  0
  1  2  1  0
  2  3  2  0
  3  4  1  0
  4  5  1  0
  5  6  1  0
  5  7  1  0
  5  8  1  0
  8  9  2  0
  8 10  1  0
 10 11  2  0
 11 12  1  0
 12 13  1  0
 13 14  1  0
 14 15  2  0
 15 16  1  0
 15 17  1  0
 17 18  1  0
 17 19  2  0
 19 20  1  0
 19 21  1  0
 21 22  1  0
 21 23  2  0
 23 24  1  0
 13 25  2  0
 25 26  1  0
 25 27  1  0
  4 28  2  0
 28 29  1  0
 28 30  1  0
 30 31  1  0
 30 32  2  0
 32 33  1  0
 32  2  1  0
 27 11  1  0
 23 14  1  0
M  CHG  1  12  -1
M  END
>  <UniqueID>  (47) 
45

>  <SMILES>  (47) 
O=C(Cc1ccccn1)/N=c1\[n-]c(-c2ccccc2Cl)cs1

>  <Energy>  (47) 
71.17975349245988

>  <Genealogy>  (47) 
O=C(Cc1ccccn1)N=c1[n-]c(-c2ccccc2Cl)cs1 (protonated)
O=C(Cc1ccccn1)/N=c1\[n-]c(-c2ccccc2Cl)cs1 (cis-trans isomerization)
O=C(Cc1ccccn1)/N=c1\[n-]c(-c2ccccc2Cl)cs1 (3D coordinates assigned)
O=C(Cc1ccccn1)/N=c1\[n-]c(-c2ccccc2Cl)cs1 (optimized conformer: 71.17975349245988 kcal/mol)

>  <smiles>  (47) 
O=C(Cc1ccccn1)N=c1[nH]c(-c2ccccc2Cl)cs1

>  <score_type>  (47) 
oracle

>  <origin>  (47) 
adg

>  <m_score__min__energy>  (47) 
-9.9100000000000001

>  <m_primary>  (47) 
energy

$$$$
47:0
     RDKit          3D

 60 64  0  0  0  0  0  0  0  0999 V2000
   59.8100   30.3550   49.4930 C   0  0  0  0  0  0  0  0  0  0  0  0
   59.6650   31.0050   50.4970 C   0  0  0  0  0  0  0  0  0  0  0  0
   59.4940   31.7820   51.6960 C   0  0  0  0  0  0  0  0  0  0  0  0
   58.5110   31.6030   52.5470 O   0  0  0  0  0  0  0  0  0  0  0  0
   58.6500   32.4590   53.5350 C   0  0  0  0  0  0  0  0  0  0  0  0
   59.7740   33.2360   53.3280 C   0  0  0  0  0  0  0  0  0  0  0  0
   60.3120   32.8060   52.1320 C   0  0  0  0  0  0  0  0  0  0  0  0
   61.5870   33.2900   51.5100 C   0  0  0  0  0  0  0  0  0  0  0  0
   61.3670   33.5990   50.0980 N   0  0  0  0  0  0  0  0  0  0  0  0
   60.2950   34.2090   49.5300 C   0  0  0  0  0  0  0  0  0  0  0  0
   59.2720   34.5580   50.1790 O   0  0  0  0  0  0  0  0  0  0  0  0
   60.4380   34.4040   48.1920 N   0  0  0  0  0  0  0  0  0  0  0  0
   59.4490   34.9490   47.2600 C   0  0  0  0  0  0  0  0  0  0  0  0
   58.7430   33.8280   46.5460 C   0  0  0  0  0  0  0  0  0  0  0  0
   58.0720   34.0620   45.3370 C   0  0  0  0  0  0  0  0  0  0  0  0
   57.4620   33.0090   44.6500 C   0  0  0  0  0  0  0  0  0  0  0  0
   57.5230   31.6970   45.1550 C   0  0  0  0  0  0  0  0  0  0  0  0
   56.8970   30.5640   44.4350 C   0  0  0  0  0  0  0  0  0  0  0  0
   55.7550   30.1620   44.7910 O   0  0  0  0  0  0  0  0  0  0  0  0
   57.5810   29.8980   43.3600 N   0  0  0  0  0  0  0  0  0  0  0  0
   57.0330   28.7150   42.6950 C   0  0  0  0  0  0  0  0  0  0  0  0
   57.8370   27.4570   43.0480 C   0  0  0  0  0  0  0  0  0  0  0  0
   58.4950   27.5860   44.3980 C   0  0  0  0  0  0  0  0  0  0  0  0
   59.7490   28.2070   44.5210 C   0  0  0  0  0  0  0  0  0  0  0  0
   60.3750   28.2890   45.7680 C   0  0  0  0  0  0  0  0  0  0  0  0
   59.7580   27.7480   46.8990 C   0  0  0  0  0  0  0  0  0  0  0  0
   58.5150   27.1200   46.7840 C   0  0  0  0  0  0  0  0  0  0  0  0
   57.8850   27.0340   45.5370 C   0  0  0  0  0  0  0  0  0  0  0  0
   58.1860   31.4690   46.3730 C   0  0  0  0  0  0  0  0  0  0  0  0
   58.7970   32.5230   47.0590 C   0  0  0  0  0  0  0  0  0  0  0  0
   61.6530   33.8870   47.9150 C   0  0  0  0  0  0  0  0  0  0  0  0
   62.3320   33.8000   46.7010 C   0  0  0  0  0  0  0  0  0  0  0  0
   63.6060   33.2030   46.7180 C   0  0  0  0  0  0  0  0  0  0  0  0
   64.1430   32.7200   47.9350 C   0  0  0  0  0  0  0  0  0  0  0  0
   63.4330   32.8300   49.1000 N   0  0  0  0  0  0  0  0  0  0  0  0
   62.2090   33.4110   49.0660 C   0  0  0  0  0  0  0  0  0  0  0  0
   59.9424   29.7615   48.5763 H   0  0  0  0  0  0  0  0  0  0  0  0
   57.9728   32.5441   54.3976 H   0  0  0  0  0  0  0  0  0  0  0  0
   60.1600   34.0324   53.9813 H   0  0  0  0  0  0  0  0  0  0  0  0
   61.9266   34.1962   52.0329 H   0  0  0  0  0  0  0  0  0  0  0  0
   62.3515   32.5035   51.5933 H   0  0  0  0  0  0  0  0  0  0  0  0
   58.7129   35.5464   47.8180 H   0  0  0  0  0  0  0  0  0  0  0  0
   59.9602   35.5831   46.5206 H   0  0  0  0  0  0  0  0  0  0  0  0
   58.0255   35.0815   44.9266 H   0  0  0  0  0  0  0  0  0  0  0  0
   56.9303   33.2072   43.7076 H   0  0  0  0  0  0  0  0  0  0  0  0
   58.5340   30.2110   43.0710 H   0  0  0  0  0  0  0  0  0  0  0  0
   55.9896   28.5752   43.0141 H   0  0  0  0  0  0  0  0  0  0  0  0
   57.0888   28.8699   41.6074 H   0  0  0  0  0  0  0  0  0  0  0  0
   57.1589   26.5909   43.0616 H   0  0  0  0  0  0  0  0  0  0  0  0
   58.6236   27.3249   42.2905 H   0  0  0  0  0  0  0  0  0  0  0  0
   60.2402   28.6304   43.6325 H   0  0  0  0  0  0  0  0  0  0  0  0
   61.3550   28.7802   45.8592 H   0  0  0  0  0  0  0  0  0  0  0  0
   60.2508   27.8165   47.8800 H   0  0  0  0  0  0  0  0  0  0  0  0
   58.0310   26.6927   47.6746 H   0  0  0  0  0  0  0  0  0  0  0  0
   56.9098   26.5329   45.4485 H   0  0  0  0  0  0  0  0  0  0  0  0
   58.2246   30.4520   46.7904 H   0  0  0  0  0  0  0  0  0  0  0  0
   59.3226   32.3283   48.0055 H   0  0  0  0  0  0  0  0  0  0  0  0
   61.8905   34.1820   45.7687 H   0  0  0  0  0  0  0  0  0  0  0  0
   64.1839   33.1118   45.7865 H   0  0  0  0  0  0  0  0  0  0  0  0
   65.1387   32.2526   47.9448 H   0  0  0  0  0  0  0  0  0  0  0  0
  1  2  3  0
  2  3  1  0
  3  4  1  0
  4  5  1  0
  5  6  2  0
  6  7  1  0
  7  8  1  0
  8  9  1  0
  9 10  1  0
 10 11  2  0
 10 12  1  0
 12 13  1  0
 13 14  1  0
 14 15  2  0
 15 16  1  0
 16 17  2  0
 17 18  1  0
 18 19  2  0
 18 20  1  0
 20 21  1  0
 21 22  1  0
 22 23  1  0
 23 24  2  0
 24 25  1  0
 25 26  2  0
 26 27  1  0
 27 28  2  0
 17 29  1  0
 29 30  2  0
 12 31  1  0
 31 32  2  0
 32 33  1  0
 33 34  2  0
 34 35  1  0
 35 36  2  0
  7  3  2  0
 36  9  1  0
 30 14  1  0
 36 31  1  0
 28 23  1  0
  1 37  1  0
  5 38  1  0
  6 39  1  0
  8 40  1  0
  8 41  1  0
 13 42  1  0
 13 43  1  0
 15 44  1  0
 16 45  1  0
 20 46  1  0
 21 47  1  0
 21 48  1  0
 22 49  1  0
 22 50  1  0
 24 51  1  0
 25 52  1  0
 26 53  1  0
 27 54  1  0
 28 55  1  0
 29 56  1  0
 30 57  1  0
 32 58  1  0
 33 59  1  0
 34 60  1  0
M  END
>  <UniqueID>  (48) 
46

>  <SMILES>  (48) 
C#Cc1occc1Cn1c(=O)n(Cc2ccc(C(=O)NCCc3ccccc3)cc2)c2cccnc21

>  <Energy>  (48) 
128.20424856595076

>  <Genealogy>  (48) 
C#Cc1occc1Cn1c(=O)n(Cc2ccc(C(=O)NCCc3ccccc3)cc2)c2cccnc21 (3D coordinates assigned)
C#Cc1occc1Cn1c(=O)n(Cc2ccc(C(=O)NCCc3ccccc3)cc2)c2cccnc21 (optimized conformer: 128.20424856595076 kcal/mol)

>  <smiles>  (48) 
C#Cc1occc1Cn1c(=O)n(Cc2ccc(C(=O)NCCc3ccccc3)cc2)c2cccnc21

>  <score_type>  (48) 
oracle

>  <origin>  (48) 
adg

>  <m_score__min__energy>  (48) 
-9.5500000000000007

>  <m_primary>  (48) 
energy

$$$$
48:0
     RDKit          3D

 51 55  0  0  0  0  0  0  0  0999 V2000
   59.2970   34.4630   54.4920 C   0  0  0  0  0  0  0  0  0  0  0  0
   58.4960   33.4900   53.8300 O   0  0  0  0  0  0  0  0  0  0  0  0
   58.6170   33.1570   52.4720 C   0  0  0  0  0  0  0  0  0  0  0  0
   59.4930   33.9060   51.6790 C   0  0  0  0  0  0  0  0  0  0  0  0
   59.6470   33.6150   50.3210 C   0  0  0  0  0  0  0  0  0  0  0  0
   58.9390   32.5530   49.7370 C   0  0  0  0  0  0  0  0  0  0  0  0
   59.1030   32.2670   48.2950 C   0  0  0  0  0  0  0  0  0  0  0  0
   58.0590   32.0300   47.4750 N   0  0  0  0  0  0  0  0  0  0  0  0
   58.5420   31.7270   46.2800 N   0  0  0  0  0  0  0  0  0  0  0  0
   57.7180   31.4880   45.0910 C   0  0  1  0  0  0  0  0  0  0  0  0
   58.3320   32.1570   43.8520 C   0  0  0  0  0  0  0  0  0  0  0  0
   57.4380   31.9450   42.6170 C   0  0  0  0  0  0  0  0  0  0  0  0
   56.6470   30.6220   42.6810 C   0  0  0  0  0  0  0  0  0  0  0  0
   57.3690   29.5950   43.4420 N   0  0  0  0  0  0  0  0  0  0  0  0
   57.5290   29.9650   44.8640 C   0  0  0  0  0  0  0  0  0  0  0  0
   59.8860   31.7870   46.2980 C   0  0  0  0  0  0  0  0  0  0  0  0
   60.2880   32.1340   47.5740 C   0  0  0  0  0  0  0  0  0  0  0  0
   61.6760   32.4230   47.9920 C   0  0  0  0  0  0  0  0  0  0  0  0
   62.4110   33.4490   47.3430 C   0  0  0  0  0  0  0  0  0  0  0  0
   63.7310   33.7400   47.7330 C   0  0  0  0  0  0  0  0  0  0  0  0
   64.2790   32.9980   48.7740 C   0  0  0  0  0  0  0  0  0  0  0  0
   63.5780   32.0270   49.4110 C   0  0  0  0  0  0  0  0  0  0  0  0
   62.2700   31.7100   49.0580 C   0  0  0  0  0  0  0  0  0  0  0  0
   64.3610   31.4690   50.4030 O   0  0  0  0  0  0  0  0  0  0  0  0
   65.6350   32.1300   50.3860 C   0  0  0  0  0  0  0  0  0  0  0  0
   65.5400   33.0960   49.3300 O   0  0  0  0  0  0  0  0  0  0  0  0
   58.0430   31.8150   50.5250 C   0  0  0  0  0  0  0  0  0  0  0  0
   57.8870   32.1060   51.8840 C   0  0  0  0  0  0  0  0  0  0  0  0
   59.1968   34.3413   55.5806 H   0  0  0  0  0  0  0  0  0  0  0  0
   60.3500   34.3289   54.2034 H   0  0  0  0  0  0  0  0  0  0  0  0
   58.9632   35.4706   54.2034 H   0  0  0  0  0  0  0  0  0  0  0  0
   60.0654   34.7309   52.1283 H   0  0  0  0  0  0  0  0  0  0  0  0
   60.3274   34.2221   49.7057 H   0  0  0  0  0  0  0  0  0  0  0  0
   56.7289   31.9393   45.2582 H   0  0  0  0  0  0  0  0  0  0  0  0
   58.4378   33.2357   44.0397 H   0  0  0  0  0  0  0  0  0  0  0  0
   59.3153   31.7040   43.6575 H   0  0  0  0  0  0  0  0  0  0  0  0
   56.7247   32.7797   42.5503 H   0  0  0  0  0  0  0  0  0  0  0  0
   58.0924   31.9010   41.7339 H   0  0  0  0  0  0  0  0  0  0  0  0
   55.6774   30.8093   43.1656 H   0  0  0  0  0  0  0  0  0  0  0  0
   56.5091   30.2544   41.6534 H   0  0  0  0  0  0  0  0  0  0  0  0
   58.3160   29.4680   43.0150 H   0  0  0  0  0  0  0  0  0  0  0  0
   56.6316   29.6404   45.4111 H   0  0  0  0  0  0  0  0  0  0  0  0
   58.4415   29.4688   45.2262 H   0  0  0  0  0  0  0  0  0  0  0  0
   60.5510   31.5931   45.4435 H   0  0  0  0  0  0  0  0  0  0  0  0
   61.9445   34.0217   46.5279 H   0  0  0  0  0  0  0  0  0  0  0  0
   64.3108   34.5286   47.2310 H   0  0  0  0  0  0  0  0  0  0  0  0
   61.7139   30.9265   49.5935 H   0  0  0  0  0  0  0  0  0  0  0  0
   65.8250   32.6274   51.3486 H   0  0  0  0  0  0  0  0  0  0  0  0
   66.4636   31.4244   50.2262 H   0  0  0  0  0  0  0  0  0  0  0  0
   57.4588   31.0013   50.0705 H   0  0  0  0  0  0  0  0  0  0  0  0
   57.1919   31.5120   52.4956 H   0  0  0  0  0  0  0  0  0  0  0  0
  1  2  1  0
  2  3  1  0
  3  4  2  0
  4  5  1  0
  5  6  2  0
  6  7  1  0
  7  8  2  0
  8  9  1  0
  9 10  1  0
 10 11  1  0
 11 12  1  0
 12 13  1  0
 13 14  1  0
 14 15  1  0
  9 16  1  0
 16 17  2  0
 17 18  1  0
 18 19  2  0
 19 20  1  0
 20 21  2  0
 21 22  1  0
 22 23  2  0
 22 24  1  0
 24 25  1  0
 25 26  1  0
  6 27  1  0
 27 28  2  0
 28  3  1  0
 17  7  1  0
 23 18  1  0
 15 10  1  0
 26 21  1  0
  1 29  1  0
  1 30  1  0
  1 31  1  0
  4 32  1  0
  5 33  1  0
 10 34  1  1
 11 35  1  0
 11 36  1  0
 12 37  1  0
 12 38  1  0
 13 39  1  0
 13 40  1  0
 14 41  1  0
 15 42  1  0
 15 43  1  0
 16 44  1  0
 19 45  1  0
 20 46  1  0
 23 47  1  0
 25 48  1  0
 25 49  1  0
 27 50  1  0
 28 51  1  0
M  END
>  <UniqueID>  (49) 
47

>  <SMILES>  (49) 
COc1ccc(-c2nn([C@H]3CCCNC3)cc2-c2ccc3c(c2)OCO3)cc1

>  <Energy>  (49) 
124.41730018176804

>  <Genealogy>  (49) 
COc1ccc(-c2nn([C@H]3CCCNC3)cc2-c2ccc3c(c2)OCO3)cc1 (chirality)
COc1ccc(-c2nn([C@H]3CCCNC3)cc2-c2ccc3c(c2)OCO3)cc1 (3D coordinates assigned)
COc1ccc(-c2nn([C@H]3CCCNC3)cc2-c2ccc3c(c2)OCO3)cc1 (nonaromatic ring conformer: 124.41730018176804 kcal/mol)

>  <smiles>  (49) 
COc1ccc(-c2nn(C3CCCNC3)cc2-c2ccc3c(c2)OCO3)cc1

>  <score_type>  (49) 
oracle

>  <origin>  (49) 
adg

>  <m_score__min__energy>  (49) 
-7.6299999999999999

>  <m_primary>  (49) 
energy

$$$$
49:0
     RDKit          3D

 32 33  0  0  0  0  0  0  0  0999 V2000
   57.5270   34.1740   45.0320 C   0  0  0  0  0  0  0  0  0  0  0  0
   57.4240   33.1340   46.5220 S   0  0  0  0  0  0  0  0  0  0  0  0
   59.2100   33.0520   46.7370 C   0  0  0  0  0  0  0  0  0  0  0  0
   59.9560   34.2220   46.5430 C   0  0  0  0  0  0  0  0  0  0  0  0
   61.3420   34.2160   46.7150 C   0  0  0  0  0  0  0  0  0  0  0  0
   61.9940   33.0400   47.0920 C   0  0  0  0  0  0  0  0  0  0  0  0
   63.7340   33.0380   47.3180 Cl  0  0  0  0  0  0  0  0  0  0  0  0
   61.2600   31.8680   47.2950 C   0  0  0  0  0  0  0  0  0  0  0  0
   59.8650   31.8530   47.1120 C   0  0  0  0  0  0  0  0  0  0  0  0
   59.1270   30.6370   47.3670 N   0  0  0  0  0  0  0  0  0  0  0  0
   59.3100   29.6920   46.2570 C   0  0  0  0  0  0  0  0  0  0  0  0
   58.2650   29.9190   45.1960 C   0  0  0  0  0  0  0  0  0  0  0  0
   57.0430   29.2270   45.2470 C   0  0  0  0  0  0  0  0  0  0  0  0
   56.0580   29.4650   44.2830 C   0  0  0  0  0  0  0  0  0  0  0  0
   56.2820   30.4010   43.2690 C   0  0  0  0  0  0  0  0  0  0  0  0
   57.4900   31.1040   43.2210 C   0  0  0  0  0  0  0  0  0  0  0  0
   58.4770   30.8690   44.1830 C   0  0  0  0  0  0  0  0  0  0  0  0
   57.6314   35.2284   45.3273 H   0  0  0  0  0  0  0  0  0  0  0  0
   58.3997   33.8725   44.4340 H   0  0  0  0  0  0  0  0  0  0  0  0
   56.6121   34.0496   44.4340 H   0  0  0  0  0  0  0  0  0  0  0  0
   59.4461   35.1525   46.2530 H   0  0  0  0  0  0  0  0  0  0  0  0
   61.9202   35.1378   46.5535 H   0  0  0  0  0  0  0  0  0  0  0  0
   61.7785   30.9474   47.6011 H   0  0  0  0  0  0  0  0  0  0  0  0
   59.4370   30.2030   48.2670 H   0  0  0  0  0  0  0  0  0  0  0  0
   58.1080   30.8580   47.4680 H   0  0  0  0  0  0  0  0  0  0  0  0
   60.3086   29.8365   45.8189 H   0  0  0  0  0  0  0  0  0  0  0  0
   59.2107   28.6663   46.6418 H   0  0  0  0  0  0  0  0  0  0  0  0
   56.8605   28.4955   46.0480 H   0  0  0  0  0  0  0  0  0  0  0  0
   55.1061   28.9152   44.3227 H   0  0  0  0  0  0  0  0  0  0  0  0
   55.5082   30.5845   42.5090 H   0  0  0  0  0  0  0  0  0  0  0  0
   57.6639   31.8431   42.4251 H   0  0  0  0  0  0  0  0  0  0  0  0
   59.4226   31.4298   44.1466 H   0  0  0  0  0  0  0  0  0  0  0  0
  1  2  1  0
  2  3  1  0
  3  4  2  0
  4  5  1  0
  5  6  2  0
  6  7  1  0
  6  8  1  0
  8  9  2  0
  9 10  1  0
 10 11  1  0
 11 12  1  0
 12 13  2  0
 13 14  1  0
 14 15  2  0
 15 16  1  0
 16 17  2  0
  9  3  1  0
 17 12  1  0
  1 18  1  0
  1 19  1  0
  1 20  1  0
  4 21  1  0
  5 22  1  0
  8 23  1  0
 10 24  1  0
 10 25  1  0
 11 26  1  0
 11 27  1  0
 13 28  1  0
 14 29  1  0
 15 30  1  0
 16 31  1  0
 17 32  1  0
M  CHG  1  10   1
M  END
>  <UniqueID>  (50) 
48

>  <SMILES>  (50) 
CSc1ccc(Cl)cc1[NH2+]Cc1ccccc1

>  <Energy>  (50) 
28.950236389429318

>  <Genealogy>  (50) 
CSc1ccc(Cl)cc1[NH2+]Cc1ccccc1 (protonated)
CSc1ccc(Cl)cc1[NH2+]Cc1ccccc1 (3D coordinates assigned)
CSc1ccc(Cl)cc1[NH2+]Cc1ccccc1 (optimized conformer: 28.950236389429318 kcal/mol)

>  <smiles>  (50) 
CSc1ccc(Cl)cc1NCc1ccccc1

>  <score_type>  (50) 
oracle

>  <origin>  (50) 
adg

>  <m_score__min__energy>  (50) 
-4.8099999999999996

>  <m_primary>  (50) 
energy

$$$$
