0:0
     RDKit          3D

 59 60  0  0  0  0  0  0  0  0999 V2000
   60.7600   29.7190   48.0190 C   0  0  0  0  0  0  0  0  0  0  0  0
   61.5240   30.7350   47.1530 C   0  0  0  0  0  0  0  0  0  0  0  0
   61.1360   32.1680   47.3220 N   0  0  0  0  0  0  0  0  0  0  0  0
   62.1330   33.1110   46.7480 C   0  0  0  0  0  0  0  0  0  0  0  0
   63.5690   32.9110   47.2470 C   0  0  0  0  0  0  0  0  0  0  0  0
   60.7050   32.5660   48.6920 C   0  0  0  0  0  0  0  0  0  0  0  0
   59.1770   32.5610   48.8700 C   0  0  0  0  0  0  0  0  0  0  0  0
   58.5350   32.3300   47.6330 O   0  0  0  0  0  0  0  0  0  0  0  0
   57.6860   33.4140   47.2980 C   0  0  0  0  0  0  0  0  0  0  0  0
   58.5160   34.6270   46.8650 C   0  0  0  0  0  0  0  0  0  0  0  0
   59.5080   34.2380   45.8530 N   0  0  0  0  0  0  0  0  0  0  0  0
   58.9470   34.2240   44.4930 C   0  0  0  0  0  0  0  0  0  0  0  0
   58.4880   32.8310   44.0360 C   0  0  0  0  0  0  0  0  0  0  0  0
   58.9590   31.8310   44.9370 O   0  0  0  0  0  0  0  0  0  0  0  0
   58.5350   30.4940   44.9360 C   0  0  0  0  0  0  0  0  0  0  0  0
   59.5070   29.4910   44.9940 C   0  0  0  0  0  0  0  0  0  0  0  0
   59.1380   28.1430   45.0130 C   0  0  0  0  0  0  0  0  0  0  0  0
   57.7820   27.7740   44.9610 C   0  0  0  0  0  0  0  0  0  0  0  0
   57.3870   26.3430   44.9760 C   0  0  0  0  0  0  0  0  0  0  0  0
   56.7540   25.7890   46.1060 C   0  0  0  0  0  0  0  0  0  0  0  0
   56.3810   24.4410   46.1170 C   0  0  0  0  0  0  0  0  0  0  0  0
   56.6370   23.6340   45.0050 C   0  0  0  0  0  0  0  0  0  0  0  0
   57.2660   24.1730   43.8800 C   0  0  0  0  0  0  0  0  0  0  0  0
   57.6390   25.5200   43.8640 C   0  0  0  0  0  0  0  0  0  0  0  0
   56.8060   28.7840   44.8920 C   0  0  0  0  0  0  0  0  0  0  0  0
   57.1770   30.1320   44.8820 C   0  0  0  0  0  0  0  0  0  0  0  0
   60.9288   29.9435   49.0825 H   0  0  0  0  0  0  0  0  0  0  0  0
   59.6846   29.7833   47.7969 H   0  0  0  0  0  0  0  0  0  0  0  0
   61.1202   28.7037   47.7969 H   0  0  0  0  0  0  0  0  0  0  0  0
   62.5933   30.6458   47.3952 H   0  0  0  0  0  0  0  0  0  0  0  0
   61.2735   30.4825   46.1121 H   0  0  0  0  0  0  0  0  0  0  0  0
   60.2990   32.2980   46.7030 H   0  0  0  0  0  0  0  0  0  0  0  0
   62.1304   32.9882   45.6549 H   0  0  0  0  0  0  0  0  0  0  0  0
   61.8298   34.1174   47.0725 H   0  0  0  0  0  0  0  0  0  0  0  0
   63.5781   32.9097   48.3470 H   0  0  0  0  0  0  0  0  0  0  0  0
   63.9556   31.9503   46.8760 H   0  0  0  0  0  0  0  0  0  0  0  0
   64.2034   33.7295   46.8760 H   0  0  0  0  0  0  0  0  0  0  0  0
   61.1438   31.8627   49.4151 H   0  0  0  0  0  0  0  0  0  0  0  0
   61.0508   33.5970   48.8577 H   0  0  0  0  0  0  0  0  0  0  0  0
   58.8976   31.7658   49.5768 H   0  0  0  0  0  0  0  0  0  0  0  0
   58.8610   33.5410   49.2570 H   0  0  0  0  0  0  0  0  0  0  0  0
   57.0238   33.1143   46.4724 H   0  0  0  0  0  0  0  0  0  0  0  0
   57.0890   33.6863   48.1808 H   0  0  0  0  0  0  0  0  0  0  0  0
   57.8471   35.3905   46.4413 H   0  0  0  0  0  0  0  0  0  0  0  0
   59.0428   35.0289   47.7430 H   0  0  0  0  0  0  0  0  0  0  0  0
   59.9000   33.2950   46.0800 H   0  0  0  0  0  0  0  0  0  0  0  0
   58.0816   34.9024   44.4659 H   0  0  0  0  0  0  0  0  0  0  0  0
   59.7471   34.5427   43.8087 H   0  0  0  0  0  0  0  0  0  0  0  0
   57.3887   32.8033   44.0066 H   0  0  0  0  0  0  0  0  0  0  0  0
   58.8985   32.6310   43.0353 H   0  0  0  0  0  0  0  0  0  0  0  0
   60.5719   29.7651   45.0250 H   0  0  0  0  0  0  0  0  0  0  0  0
   59.9138   27.3652   45.0690 H   0  0  0  0  0  0  0  0  0  0  0  0
   56.5520   26.4198   46.9842 H   0  0  0  0  0  0  0  0  0  0  0  0
   55.8855   24.0154   47.0021 H   0  0  0  0  0  0  0  0  0  0  0  0
   56.3431   22.5740   45.0156 H   0  0  0  0  0  0  0  0  0  0  0  0
   57.4679   23.5366   43.0058 H   0  0  0  0  0  0  0  0  0  0  0  0
   58.1332   25.9392   42.9752 H   0  0  0  0  0  0  0  0  0  0  0  0
   55.7414   28.5112   44.8455 H   0  0  0  0  0  0  0  0  0  0  0  0
   56.4036   30.9126   44.8317 H   0  0  0  0  0  0  0  0  0  0  0  0
  1  2  1  0
  2  3  1  0
  3  4  1  0
  4  5  1  0
  3  6  1  0
  6  7  1  0
  7  8  1  0
  8  9  1  0
  9 10  1  0
 10 11  1  0
 11 12  1  0
 12 13  1  0
 13 14  1  0
 14 15  1  0
 15 16  2  0
 16 17  1  0
 17 18  2  0
 18 19  1  0
 19 20  2  0
 20 21  1  0
 21 22  2  0
 22 23  1  0
 23 24  2  0
 18 25  1  0
 25 26  2  0
 26 15  1  0
 24 19  1  0
  1 27  1  0
  1 28  1  0
  1 29  1  0
  2 30  1  0
  2 31  1  0
  3 32  1  0
  4 33  1  0
  4 34  1  0
  5 35  1  0
  5 36  1  0
  5 37  1  0
  6 38  1  0
  6 39  1  0
  7 40  1  0
  7 41  1  0
  9 42  1  0
  9 43  1  0
 10 44  1  0
 10 45  1  0
 11 46  1  0
 12 47  1  0
 12 48  1  0
 13 49  1  0
 13 50  1  0
 16 51  1  0
 17 52  1  0
 20 53  1  0
 21 54  1  0
 22 55  1  0
 23 56  1  0
 24 57  1  0
 25 58  1  0
 26 59  1  0
M  CHG  1   3   1
M  END
>  <UniqueID>  (1) 
1

>  <SMILES>  (1) 
CC[NH+](CC)CCOCCNCCOc1ccc(-c2ccccc2)cc1

>  <Energy>  (1) 
67.88368990145973

>  <Genealogy>  (1) 
CC[NH+](CC)CCOCCNCCOc1ccc(-c2ccccc2)cc1 (protonated)
CC[NH+](CC)CCOCCNCCOc1ccc(-c2ccccc2)cc1 (3D coordinates assigned)
CC[NH+](CC)CCOCCNCCOc1ccc(-c2ccccc2)cc1 (optimized conformer: 67.88368990145973 kcal/mol)

>  <smiles>  (1) 
CCN(CC)CCOCCNCCOc1ccc(-c2ccccc2)cc1

>  <score_type>  (1) 
oracle

>  <origin>  (1) 
adg

>  <m_score__min__energy>  (1) 
-4.6799999999999997

>  <m_primary>  (1) 
energy

$$$$
1:0
     RDKit          3D

 46 48  0  0  0  0  0  0  0  0999 V2000
   58.9220   31.0020   48.7200 C   0  0  0  0  0  0  0  0  0  0  0  0
   59.5910   29.8340   47.9840 C   0  0  0  0  0  0  0  0  0  0  0  0
   59.0350   29.6430   46.6210 N   0  0  1  0  0  0  0  0  0  0  0  0
   60.1300   29.7100   45.6320 C   0  0  0  0  0  0  0  0  0  0  0  0
   58.3040   28.3480   46.4990 C   0  0  0  0  0  0  0  0  0  0  0  0
   57.1540   28.4060   45.4790 C   0  0  0  0  0  0  0  0  0  0  0  0
   56.6530   29.7360   45.3390 O   0  0  0  0  0  0  0  0  0  0  0  0
   57.0630   30.6840   44.3850 C   0  0  0  0  0  0  0  0  0  0  0  0
   56.9030   30.5250   42.9850 C   0  0  0  0  0  0  0  0  0  0  0  0
   57.3330   31.5360   42.0960 C   0  0  0  0  0  0  0  0  0  0  0  0
   57.9260   32.7130   42.5850 C   0  0  0  0  0  0  0  0  0  0  0  0
   58.0780   32.8350   43.9630 C   0  0  0  0  0  0  0  0  0  0  0  0
   58.5890   33.8710   44.6410 N   0  0  0  0  0  0  0  0  0  0  0  0
   58.4740   33.4610   45.9320 C   0  0  0  0  0  0  0  0  0  0  0  0
   58.8470   34.3280   47.0910 C   0  0  0  0  0  0  0  0  0  0  0  0
   60.2990   34.1270   47.4280 C   0  0  0  0  0  0  0  0  0  0  0  0
   61.2220   33.8050   46.4190 C   0  0  0  0  0  0  0  0  0  0  0  0
   62.5640   33.5770   46.7400 C   0  0  0  0  0  0  0  0  0  0  0  0
   62.9910   33.6590   48.0670 C   0  0  0  0  0  0  0  0  0  0  0  0
   62.0760   33.9660   49.0780 C   0  0  0  0  0  0  0  0  0  0  0  0
   60.7330   34.1950   48.7630 C   0  0  0  0  0  0  0  0  0  0  0  0
   57.9040   32.2370   46.0880 N   0  0  0  0  0  0  0  0  0  0  0  0
   57.6700   31.8610   44.8230 C   0  0  0  0  0  0  0  0  0  0  0  0
   59.0094   30.8494   49.8059 H   0  0  0  0  0  0  0  0  0  0  0  0
   59.4178   31.9434   48.4409 H   0  0  0  0  0  0  0  0  0  0  0  0
   57.8591   31.0506   48.4409 H   0  0  0  0  0  0  0  0  0  0  0  0
   60.6691   30.0367   47.9024 H   0  0  0  0  0  0  0  0  0  0  0  0
   59.4007   28.9163   48.5599 H   0  0  0  0  0  0  0  0  0  0  0  0
   58.3960   30.4470   46.4220 H   0  0  0  0  0  0  0  0  0  0  0  0
   61.0949   29.7690   46.1568 H   0  0  0  0  0  0  0  0  0  0  0  0
   60.1101   28.8090   45.0013 H   0  0  0  0  0  0  0  0  0  0  0  0
   60.0004   30.6019   45.0013 H   0  0  0  0  0  0  0  0  0  0  0  0
   59.0156   27.5713   46.1824 H   0  0  0  0  0  0  0  0  0  0  0  0
   57.8639   28.1225   47.4816 H   0  0  0  0  0  0  0  0  0  0  0  0
   57.5224   28.0570   44.5030 H   0  0  0  0  0  0  0  0  0  0  0  0
   56.3374   27.7627   45.8386 H   0  0  0  0  0  0  0  0  0  0  0  0
   56.4412   29.6088   42.5884 H   0  0  0  0  0  0  0  0  0  0  0  0
   57.2025   31.4007   41.0122 H   0  0  0  0  0  0  0  0  0  0  0  0
   58.2581   33.5093   41.9027 H   0  0  0  0  0  0  0  0  0  0  0  0
   58.6750   35.3824   46.8291 H   0  0  0  0  0  0  0  0  0  0  0  0
   58.2304   34.0581   47.9610 H   0  0  0  0  0  0  0  0  0  0  0  0
   60.8882   33.7320   45.3734 H   0  0  0  0  0  0  0  0  0  0  0  0
   63.2846   33.3326   45.9456 H   0  0  0  0  0  0  0  0  0  0  0  0
   64.0476   33.4820   48.3167 H   0  0  0  0  0  0  0  0  0  0  0  0
   62.4130   34.0276   50.1233 H   0  0  0  0  0  0  0  0  0  0  0  0
   60.0143   34.4290   49.5622 H   0  0  0  0  0  0  0  0  0  0  0  0
  1  2  1  0
  2  3  1  0
  3  4  1  0
  3  5  1  0
  5  6  1  0
  6  7  1  0
  7  8  1  0
  8  9  2  0
  9 10  1  0
 10 11  2  0
 11 12  1  0
 12 13  1  0
 13 14  1  0
 14 15  1  0
 15 16  1  0
 16 17  2  0
 17 18  1  0
 18 19  2  0
 19 20  1  0
 20 21  2  0
 14 22  2  0
 22 23  1  0
 23  8  1  0
 23 12  2  0
 21 16  1  0
  1 24  1  0
  1 25  1  0
  1 26  1  0
  2 27  1  0
  2 28  1  0
  3 29  1  6
  4 30  1  0
  4 31  1  0
  4 32  1  0
  5 33  1  0
  5 34  1  0
  6 35  1  0
  6 36  1  0
  9 37  1  0
 10 38  1  0
 11 39  1  0
 15 40  1  0
 15 41  1  0
 17 42  1  0
 18 43  1  0
 19 44  1  0
 20 45  1  0
 21 46  1  0
M  CHG  2   3   1  13  -1
M  END
>  <UniqueID>  (2) 
2

>  <SMILES>  (2) 
CC[N@@H+](C)CCOc1cccc2[n-]c(Cc3ccccc3)nc12

>  <Energy>  (2) 
83.59168797663733

>  <Genealogy>  (2) 
CC[NH+](C)CCOc1cccc2[n-]c(Cc3ccccc3)nc12 (protonated)
CC[N@@H+](C)CCOc1cccc2[n-]c(Cc3ccccc3)nc12 (chirality)
CC[N@@H+](C)CCOc1cccc2[n-]c(Cc3ccccc3)nc12 (3D coordinates assigned)
CC[N@@H+](C)CCOc1cccc2[n-]c(Cc3ccccc3)nc12 (optimized conformer: 83.59168797663733 kcal/mol)

>  <smiles>  (2) 
CCN(C)CCOc1cccc2[nH]c(Cc3ccccc3)nc12

>  <score_type>  (2) 
oracle

>  <origin>  (2) 
adg

>  <m_score__min__energy>  (2) 
-6.3899999999999997

>  <m_primary>  (2) 
energy

$$$$
2:0
     RDKit          3D

 59 61  0  0  0  0  0  0  0  0999 V2000
   55.0600   25.0990   45.6850 C   0  0  0  0  0  0  0  0  0  0  0  0
   55.4320   26.4250   46.0500 O   0  0  0  0  0  0  0  0  0  0  0  0
   56.6450   27.0440   45.7090 C   0  0  0  0  0  0  0  0  0  0  0  0
   57.8700   26.3780   45.9030 C   0  0  0  0  0  0  0  0  0  0  0  0
   59.0710   26.9860   45.5560 C   0  0  0  0  0  0  0  0  0  0  0  0
   59.0780   28.2740   45.0350 C   0  0  0  0  0  0  0  0  0  0  0  0
   57.8810   28.9860   44.8680 C   0  0  0  0  0  0  0  0  0  0  0  0
   57.9380   30.3980   44.3040 C   0  0  0  0  0  0  0  0  0  0  0  0
   58.5750   31.3900   45.2010 N   0  0  0  0  0  0  0  0  0  0  0  0
   58.1290   31.3130   46.6070 C   0  0  0  0  0  0  0  0  0  0  0  0
   58.6230   32.5310   47.3920 C   0  0  0  0  0  0  0  0  0  0  0  0
   58.0360   33.7960   46.8680 N   0  0  0  0  0  0  0  0  0  0  0  0
   58.9070   34.9570   47.1710 C   0  0  0  0  0  0  0  0  0  0  0  0
   60.1750   34.5460   47.8880 C   0  0  0  0  0  0  0  0  0  0  0  0
   60.2060   34.4870   49.2880 C   0  0  0  0  0  0  0  0  0  0  0  0
   61.3660   34.0800   49.9530 C   0  0  0  0  0  0  0  0  0  0  0  0
   62.5220   33.7130   49.2350 C   0  0  0  0  0  0  0  0  0  0  0  0
   63.7270   33.2890   49.9230 N   0  0  0  0  0  0  0  0  0  0  0  0
   64.1480   33.9490   51.1640 C   0  0  0  0  0  0  0  0  0  0  0  0
   64.5450   32.1950   49.3930 C   0  0  0  0  0  0  0  0  0  0  0  0
   62.4790   33.7780   47.8250 C   0  0  0  0  0  0  0  0  0  0  0  0
   61.3190   34.1870   47.1620 C   0  0  0  0  0  0  0  0  0  0  0  0
   57.7310   33.7350   45.4100 C   0  0  0  0  0  0  0  0  0  0  0  0
   58.6590   32.7660   44.6600 C   0  0  0  0  0  0  0  0  0  0  0  0
   56.6460   28.3550   45.1600 C   0  0  0  0  0  0  0  0  0  0  0  0
   55.4640   29.0610   44.8610 O   0  0  0  0  0  0  0  0  0  0  0  0
   55.1440   29.7190   43.6410 C   0  0  0  0  0  0  0  0  0  0  0  0
   54.8925   24.5019   46.5935 H   0  0  0  0  0  0  0  0  0  0  0  0
   54.1354   25.1283   45.0898 H   0  0  0  0  0  0  0  0  0  0  0  0
   55.8649   24.6430   45.0898 H   0  0  0  0  0  0  0  0  0  0  0  0
   57.8769   25.3658   46.3337 H   0  0  0  0  0  0  0  0  0  0  0  0
   60.0190   26.4455   45.6944 H   0  0  0  0  0  0  0  0  0  0  0  0
   60.0327   28.7405   44.7504 H   0  0  0  0  0  0  0  0  0  0  0  0
   58.5069   30.3699   43.3630 H   0  0  0  0  0  0  0  0  0  0  0  0
   56.8963   30.7231   44.1658 H   0  0  0  0  0  0  0  0  0  0  0  0
   57.0298   31.2839   46.6373 H   0  0  0  0  0  0  0  0  0  0  0  0
   58.5444   30.4024   47.0633 H   0  0  0  0  0  0  0  0  0  0  0  0
   58.3370   32.4152   48.4478 H   0  0  0  0  0  0  0  0  0  0  0  0
   59.7163   32.5889   47.2853 H   0  0  0  0  0  0  0  0  0  0  0  0
   57.1250   33.9500   47.3610 H   0  0  0  0  0  0  0  0  0  0  0  0
   59.1780   35.4529   46.2273 H   0  0  0  0  0  0  0  0  0  0  0  0
   58.3487   35.6357   47.8326 H   0  0  0  0  0  0  0  0  0  0  0  0
   59.3121   34.7626   49.8668 H   0  0  0  0  0  0  0  0  0  0  0  0
   61.3769   34.0456   51.0524 H   0  0  0  0  0  0  0  0  0  0  0  0
   63.7815   33.3744   52.0274 H   0  0  0  0  0  0  0  0  0  0  0  0
   65.2463   34.0007   51.1975 H   0  0  0  0  0  0  0  0  0  0  0  0
   63.7319   34.9667   51.1975 H   0  0  0  0  0  0  0  0  0  0  0  0
   64.9743   31.6208   50.2272 H   0  0  0  0  0  0  0  0  0  0  0  0
   63.9181   31.5336   48.7769 H   0  0  0  0  0  0  0  0  0  0  0  0
   65.3567   32.6093   48.7769 H   0  0  0  0  0  0  0  0  0  0  0  0
   63.3699   33.5032   47.2413 H   0  0  0  0  0  0  0  0  0  0  0  0
   61.3035   34.2275   46.0629 H   0  0  0  0  0  0  0  0  0  0  0  0
   56.6911   33.4010   45.2798 H   0  0  0  0  0  0  0  0  0  0  0  0
   57.8853   34.7405   44.9915 H   0  0  0  0  0  0  0  0  0  0  0  0
   58.3718   32.7487   43.5983 H   0  0  0  0  0  0  0  0  0  0  0  0
   59.6933   33.1189   44.7856 H   0  0  0  0  0  0  0  0  0  0  0  0
   54.6725   30.6884   43.8600 H   0  0  0  0  0  0  0  0  0  0  0  0
   56.0637   29.8815   43.0598 H   0  0  0  0  0  0  0  0  0  0  0  0
   54.4483   29.0959   43.0598 H   0  0  0  0  0  0  0  0  0  0  0  0
  1  2  1  0
  2  3  1  0
  3  4  2  0
  4  5  1  0
  5  6  2  0
  6  7  1  0
  7  8  1  0
  8  9  1  0
  9 10  1  0
 10 11  1  0
 11 12  1  0
 12 13  1  0
 13 14  1  0
 14 15  2  0
 15 16  1  0
 16 17  2  0
 17 18  1  0
 18 19  1  0
 18 20  1  0
 17 21  1  0
 21 22  2  0
 12 23  1  0
 23 24  1  0
  7 25  2  0
 25 26  1  0
 26 27  1  0
 25  3  1  0
 24  9  1  0
 22 14  1  0
  1 28  1  0
  1 29  1  0
  1 30  1  0
  4 31  1  0
  5 32  1  0
  6 33  1  0
  8 34  1  0
  8 35  1  0
 10 36  1  0
 10 37  1  0
 11 38  1  0
 11 39  1  0
 12 40  1  0
 13 41  1  0
 13 42  1  0
 15 43  1  0
 16 44  1  0
 19 45  1  0
 19 46  1  0
 19 47  1  0
 20 48  1  0
 20 49  1  0
 20 50  1  0
 21 51  1  0
 22 52  1  0
 23 53  1  0
 23 54  1  0
 24 55  1  0
 24 56  1  0
 27 57  1  0
 27 58  1  0
 27 59  1  0
M  CHG  1  12   1
M  END
>  <UniqueID>  (3) 
3

>  <SMILES>  (3) 
COc1cccc(CN2CC[NH+](Cc3ccc(N(C)C)cc3)CC2)c1OC

>  <Energy>  (3) 
81.10497834735911

>  <Genealogy>  (3) 
COc1cccc(CN2CC[NH+](Cc3ccc(N(C)C)cc3)CC2)c1OC (protonated)
COc1cccc(CN2CC[NH+](Cc3ccc(N(C)C)cc3)CC2)c1OC (3D coordinates assigned)
COc1cccc(CN2CC[NH+](Cc3ccc(N(C)C)cc3)CC2)c1OC (nonaromatic ring conformer: 81.10497834735911 kcal/mol)

>  <smiles>  (3) 
COc1cccc(CN2CCN(Cc3ccc(N(C)C)cc3)CC2)c1OC

>  <score_type>  (3) 
oracle

>  <origin>  (3) 
adg

>  <m_score__min__energy>  (3) 
-7.2599999999999998

>  <m_primary>  (3) 
energy

$$$$
3:0
     RDKit          3D

 41 42  0  0  0  0  0  0  0  0999 V2000
   56.1670   24.5300   46.7750 C   0  0  0  0  0  0  0  0  0  0  0  0
   55.3220   25.2760   45.7500 C   0  0  0  0  0  0  0  0  0  0  0  0
   55.3950   26.7190   45.9910 N   0  0  0  0  0  0  0  0  0  0  0  0
   57.0400   27.2830   45.9700 S   0  0  0  0  0  0  0  0  0  0  0  0
   57.6020   27.2150   47.3630 O   0  0  0  0  0  0  0  0  0  0  0  0
   57.8630   26.3870   45.0870 O   0  0  0  0  0  0  0  0  0  0  0  0
   57.1190   28.9420   45.3490 C   0  0  0  0  0  0  0  0  0  0  0  0
   56.2330   29.3200   44.3270 C   0  0  0  0  0  0  0  0  0  0  0  0
   56.2570   30.6130   43.8020 C   0  0  0  0  0  0  0  0  0  0  0  0
   57.1670   31.5500   44.2870 C   0  0  0  0  0  0  0  0  0  0  0  0
   58.0630   31.2000   45.2990 C   0  0  0  0  0  0  0  0  0  0  0  0
   58.9510   32.1230   45.7560 N   0  0  0  0  0  0  0  0  0  0  0  0
   59.8560   31.8520   46.7370 C   0  0  0  0  0  0  0  0  0  0  0  0
   60.7720   32.8890   47.1660 N   0  0  0  0  0  0  0  0  0  0  0  0
   60.3070   34.2390   47.5280 C   0  0  0  0  0  0  0  0  0  0  0  0
   59.7060   34.9570   46.3210 C   0  0  0  0  0  0  0  0  0  0  0  0
   62.2160   32.6110   47.1830 C   0  0  0  0  0  0  0  0  0  0  0  0
   63.0040   33.8290   46.7140 C   0  0  0  0  0  0  0  0  0  0  0  0
   59.8860   30.5620   47.2920 C   0  0  0  0  0  0  0  0  0  0  0  0
   58.9870   29.5910   46.8480 C   0  0  0  0  0  0  0  0  0  0  0  0
   58.0500   29.8920   45.8440 C   0  0  0  0  0  0  0  0  0  0  0  0
   55.8473   24.8122   47.7890 H   0  0  0  0  0  0  0  0  0  0  0  0
   56.0375   23.4463   46.6380 H   0  0  0  0  0  0  0  0  0  0  0  0
   57.2263   24.7929   46.6380 H   0  0  0  0  0  0  0  0  0  0  0  0
   55.6979   25.0565   44.7398 H   0  0  0  0  0  0  0  0  0  0  0  0
   54.2756   24.9487   45.8397 H   0  0  0  0  0  0  0  0  0  0  0  0
   55.5113   28.5880   43.9355 H   0  0  0  0  0  0  0  0  0  0  0  0
   55.5552   30.8932   43.0027 H   0  0  0  0  0  0  0  0  0  0  0  0
   57.1796   32.5684   43.8714 H   0  0  0  0  0  0  0  0  0  0  0  0
   59.5421   34.1565   48.3142 H   0  0  0  0  0  0  0  0  0  0  0  0
   61.1692   34.8206   47.8862 H   0  0  0  0  0  0  0  0  0  0  0  0
   59.0358   35.7577   46.6670 H   0  0  0  0  0  0  0  0  0  0  0  0
   60.5134   35.3916   45.7134 H   0  0  0  0  0  0  0  0  0  0  0  0
   59.1360   34.2387   45.7134 H   0  0  0  0  0  0  0  0  0  0  0  0
   62.5226   32.3552   48.2080 H   0  0  0  0  0  0  0  0  0  0  0  0
   62.4230   31.7719   46.5025 H   0  0  0  0  0  0  0  0  0  0  0  0
   63.3668   34.3898   47.5880 H   0  0  0  0  0  0  0  0  0  0  0  0
   63.8610   33.5001   46.1078 H   0  0  0  0  0  0  0  0  0  0  0  0
   62.3528   34.4759   46.1078 H   0  0  0  0  0  0  0  0  0  0  0  0
   60.6176   30.3172   48.0761 H   0  0  0  0  0  0  0  0  0  0  0  0
   59.0118   28.5827   47.2869 H   0  0  0  0  0  0  0  0  0  0  0  0
  1  2  1  0
  2  3  1  0
  3  4  1  0
  4  5  2  0
  4  6  2  0
  4  7  1  0
  7  8  2  0
  8  9  1  0
  9 10  2  0
 10 11  1  0
 11 12  2  0
 12 13  1  0
 13 14  1  0
 14 15  1  0
 15 16  1  0
 14 17  1  0
 17 18  1  0
 13 19  2  0
 19 20  1  0
 20 21  2  0
 21  7  1  0
 21 11  1  0
  1 22  1  0
  1 23  1  0
  1 24  1  0
  2 25  1  0
  2 26  1  0
  8 27  1  0
  9 28  1  0
 10 29  1  0
 15 30  1  0
 15 31  1  0
 16 32  1  0
 16 33  1  0
 16 34  1  0
 17 35  1  0
 17 36  1  0
 18 37  1  0
 18 38  1  0
 18 39  1  0
 19 40  1  0
 20 41  1  0
M  CHG  1   3  -1
M  END
>  <UniqueID>  (4) 
4

>  <SMILES>  (4) 
CC[N-]S(=O)(=O)c1cccc2nc(N(CC)CC)ccc12

>  <Energy>  (4) 
38.445466506805914

>  <Genealogy>  (4) 
CC[N-]S(=O)(=O)c1cccc2nc(N(CC)CC)ccc12 (protonated)
CC[N-]S(=O)(=O)c1cccc2nc(N(CC)CC)ccc12 (3D coordinates assigned)
CC[N-]S(=O)(=O)c1cccc2nc(N(CC)CC)ccc12 (optimized conformer: 38.445466506805914 kcal/mol)

>  <smiles>  (4) 
CCNS(=O)(=O)c1cccc2nc(N(CC)CC)ccc12

>  <score_type>  (4) 
oracle

>  <origin>  (4) 
adg

>  <m_score__min__energy>  (4) 
-8.6999999999999993

>  <m_primary>  (4) 
energy

$$$$
4:0
     RDKit          3D

 85 89  0  0  0  0  0  0  0  0999 V2000
   55.7450   30.0770   44.0260 C   0  0  0  0  0  0  0  0  0  0  0  0
   56.9580   29.4200   43.3740 C   0  0  0  0  0  0  0  0  0  0  0  0
   57.4080   28.2730   44.1810 N   0  0  0  0  0  0  0  0  0  0  0  0
   58.8730   28.1160   44.1730 C   0  0  0  0  0  0  0  0  0  0  0  0
   59.5480   28.9920   45.2440 C   0  0  0  0  0  0  0  0  0  0  0  0
   58.5540   29.6640   46.0860 N   0  0  0  0  0  0  0  0  0  0  0  0
   58.8520   30.8730   46.8100 C   0  0  0  0  0  0  0  0  0  0  0  0
   58.6870   32.1220   46.1860 C   0  0  0  0  0  0  0  0  0  0  0  0
   58.2030   32.2090   44.8620 C   0  0  0  0  0  0  0  0  0  0  0  0
   58.0930   33.4410   44.2240 C   0  0  0  0  0  0  0  0  0  0  0  0
   58.4760   34.6020   44.8830 C   0  0  0  0  0  0  0  0  0  0  0  0
   58.9540   34.5420   46.1920 C   0  0  0  0  0  0  0  0  0  0  0  0
   59.0430   33.3070   46.8840 C   0  0  0  0  0  0  0  0  0  0  0  0
   59.4900   33.2380   48.1900 N   0  0  0  0  0  0  0  0  0  0  0  0
   59.5960   34.4690   49.0020 C   0  0  0  0  0  0  0  0  0  0  0  0
   59.7970   32.0130   48.7510 C   0  0  0  0  0  0  0  0  0  0  0  0
   60.5280   31.9080   49.9630 C   0  0  0  0  0  0  0  0  0  0  0  0
   60.7830   30.6580   50.5510 C   0  0  0  0  0  0  0  0  0  0  0  0
   61.5810   30.4890   51.6940 O   0  0  0  0  0  0  0  0  0  0  0  0
   61.1540   30.6260   53.0460 C   0  0  0  0  0  0  0  0  0  0  0  0
   62.2710   30.4060   54.1070 C   0  0  0  0  0  0  0  0  0  0  0  0
   63.7110   30.5400   53.6870 N   0  0  1  0  0  0  0  0  0  0  0  0
   64.5180   30.2410   54.9060 C   0  0  0  0  0  0  0  0  0  0  0  0
   64.0980   29.5580   52.6140 C   0  0  0  0  0  0  0  0  0  0  0  0
   64.5060   30.2310   51.2850 C   0  0  0  0  0  0  0  0  0  0  0  0
   65.6210   31.2130   51.4610 N   0  0  1  0  0  0  0  0  0  0  0  0
   66.8850   30.4580   51.6990 C   0  0  0  0  0  0  0  0  0  0  0  0
   65.8400   31.9880   50.1920 C   0  0  0  0  0  0  0  0  0  0  0  0
   64.5970   32.5770   49.5420 C   0  0  0  0  0  0  0  0  0  0  0  0
   64.1340   32.0620   48.3170 C   0  0  0  0  0  0  0  0  0  0  0  0
   63.0840   32.6850   47.6360 C   0  0  0  0  0  0  0  0  0  0  0  0
   62.4810   33.8250   48.1710 C   0  0  0  0  0  0  0  0  0  0  0  0
   62.9380   34.3520   49.3780 C   0  0  0  0  0  0  0  0  0  0  0  0
   63.9990   33.7440   50.0560 C   0  0  0  0  0  0  0  0  0  0  0  0
   65.3840   32.1290   52.6320 C   0  0  0  0  0  0  0  0  0  0  0  0
   63.9980   31.9550   53.2890 C   0  0  0  0  0  0  0  0  0  0  0  0
   60.2320   29.5180   49.9810 C   0  0  0  0  0  0  0  0  0  0  0  0
   59.5470   29.5870   48.7750 C   0  0  0  0  0  0  0  0  0  0  0  0
   59.4000   30.8150   48.1040 C   0  0  0  0  0  0  0  0  0  0  0  0
   55.8432   30.0238   45.1203 H   0  0  0  0  0  0  0  0  0  0  0  0
   55.6864   31.1302   43.7139 H   0  0  0  0  0  0  0  0  0  0  0  0
   54.8309   29.5507   43.7139 H   0  0  0  0  0  0  0  0  0  0  0  0
   56.6854   29.0715   42.3669 H   0  0  0  0  0  0  0  0  0  0  0  0
   57.7734   30.1554   43.3080 H   0  0  0  0  0  0  0  0  0  0  0  0
   56.9600   27.3990   43.8150 H   0  0  0  0  0  0  0  0  0  0  0  0
   59.1191   27.0618   44.3684 H   0  0  0  0  0  0  0  0  0  0  0  0
   59.2454   28.4330   43.1877 H   0  0  0  0  0  0  0  0  0  0  0  0
   60.1840   28.3567   45.8780 H   0  0  0  0  0  0  0  0  0  0  0  0
   60.1492   29.7604   44.7359 H   0  0  0  0  0  0  0  0  0  0  0  0
   57.5650   29.3320   46.0510 H   0  0  0  0  0  0  0  0  0  0  0  0
   57.9096   31.2926   44.3290 H   0  0  0  0  0  0  0  0  0  0  0  0
   57.7024   33.4952   43.1971 H   0  0  0  0  0  0  0  0  0  0  0  0
   58.4021   35.5726   44.3707 H   0  0  0  0  0  0  0  0  0  0  0  0
   59.2672   35.4681   46.6962 H   0  0  0  0  0  0  0  0  0  0  0  0
   59.5734   34.2068   50.0701 H   0  0  0  0  0  0  0  0  0  0  0  0
   60.5416   34.9810   48.7700 H   0  0  0  0  0  0  0  0  0  0  0  0
   58.7519   35.1351   48.7700 H   0  0  0  0  0  0  0  0  0  0  0  0
   60.9012   32.8209   50.4502 H   0  0  0  0  0  0  0  0  0  0  0  0
   60.7524   31.6416   53.1771 H   0  0  0  0  0  0  0  0  0  0  0  0
   60.4049   29.8386   53.2162 H   0  0  0  0  0  0  0  0  0  0  0  0
   62.1002   31.1364   54.9116 H   0  0  0  0  0  0  0  0  0  0  0  0
   62.1723   29.3447   54.3790 H   0  0  0  0  0  0  0  0  0  0  0  0
   63.9218   30.4619   55.8037 H   0  0  0  0  0  0  0  0  0  0  0  0
   64.8015   29.1782   54.9065 H   0  0  0  0  0  0  0  0  0  0  0  0
   65.4256   30.8625   54.9065 H   0  0  0  0  0  0  0  0  0  0  0  0
   64.9473   28.9609   52.9776 H   0  0  0  0  0  0  0  0  0  0  0  0
   63.2131   28.9386   52.4061 H   0  0  0  0  0  0  0  0  0  0  0  0
   64.8298   29.4517   50.5794 H   0  0  0  0  0  0  0  0  0  0  0  0
   63.6320   30.7808   50.9056 H   0  0  0  0  0  0  0  0  0  0  0  0
   67.0537   30.3573   52.7813 H   0  0  0  0  0  0  0  0  0  0  0  0
   66.8062   29.4589   51.2456 H   0  0  0  0  0  0  0  0  0  0  0  0
   67.7274   31.0010   51.2456 H   0  0  0  0  0  0  0  0  0  0  0  0
   66.5251   32.8180   50.4196 H   0  0  0  0  0  0  0  0  0  0  0  0
   66.2349   31.2608   49.4672 H   0  0  0  0  0  0  0  0  0  0  0  0
   64.6021   31.1619   47.8918 H   0  0  0  0  0  0  0  0  0  0  0  0
   62.7323   32.2764   46.6772 H   0  0  0  0  0  0  0  0  0  0  0  0
   61.6463   34.3067   47.6407 H   0  0  0  0  0  0  0  0  0  0  0  0
   62.4619   35.2499   49.7988 H   0  0  0  0  0  0  0  0  0  0  0  0
   64.3687   34.1795   50.9960 H   0  0  0  0  0  0  0  0  0  0  0  0
   66.1550   31.9286   53.3906 H   0  0  0  0  0  0  0  0  0  0  0  0
   65.4291   33.1586   52.2474 H   0  0  0  0  0  0  0  0  0  0  0  0
   63.9547   32.5874   54.1880 H   0  0  0  0  0  0  0  0  0  0  0  0
   63.2427   32.2463   52.5443 H   0  0  0  0  0  0  0  0  0  0  0  0
   60.3393   28.5491   50.4906 H   0  0  0  0  0  0  0  0  0  0  0  0
   59.1154   28.6733   48.3403 H   0  0  0  0  0  0  0  0  0  0  0  0
  1  2  1  0
  2  3  1  0
  3  4  1  0
  4  5  1  0
  5  6  1  0
  6  7  1  0
  7  8  2  0
  8  9  1  0
  9 10  2  0
 10 11  1  0
 11 12  2  0
 12 13  1  0
 13 14  2  0
 14 15  1  0
 14 16  1  0
 16 17  2  0
 17 18  1  0
 18 19  1  0
 19 20  1  0
 20 21  1  0
 22 21  1  1
 22 23  1  0
 22 24  1  0
 24 25  1  0
 25 26  1  0
 26 27  1  1
 26 28  1  0
 28 29  1  0
 29 30  2  0
 30 31  1  0
 31 32  2  0
 32 33  1  0
 33 34  2  0
 26 35  1  0
 35 36  1  0
 18 37  2  0
 37 38  1  0
 38 39  2  0
 39  7  1  0
 13  8  1  0
 39 16  1  0
 36 22  1  0
 34 29  1  0
  1 40  1  0
  1 41  1  0
  1 42  1  0
  2 43  1  0
  2 44  1  0
  3 45  1  0
  4 46  1  0
  4 47  1  0
  5 48  1  0
  5 49  1  0
  6 50  1  0
  9 51  1  0
 10 52  1  0
 11 53  1  0
 12 54  1  0
 15 55  1  0
 15 56  1  0
 15 57  1  0
 17 58  1  0
 20 59  1  0
 20 60  1  0
 21 61  1  0
 21 62  1  0
 23 63  1  0
 23 64  1  0
 23 65  1  0
 24 66  1  0
 24 67  1  0
 25 68  1  0
 25 69  1  0
 27 70  1  0
 27 71  1  0
 27 72  1  0
 28 73  1  0
 28 74  1  0
 30 75  1  0
 31 76  1  0
 32 77  1  0
 33 78  1  0
 34 79  1  0
 35 80  1  0
 35 81  1  0
 36 82  1  0
 36 83  1  0
 37 84  1  0
 38 85  1  0
M  CHG  3  14   1  22   1  26   1
M  END
>  <UniqueID>  (5) 
5

>  <SMILES>  (5) 
CCNCCNc1c2ccccc2[n+](C)c2cc(OCC[N+]3(C)CC[N+](C)(Cc4ccccc4)CC3)ccc12

>  <Energy>  (5) 
148.42632103632792

>  <Genealogy>  (5) 
CCNCCNc1c2ccccc2[n+](C)c2cc(OCC[N+]3(C)CC[N+](C)(Cc4ccccc4)CC3)ccc12 (3D coordinates assigned)
CCNCCNc1c2ccccc2[n+](C)c2cc(OCC[N+]3(C)CC[N+](C)(Cc4ccccc4)CC3)ccc12 (nonaromatic ring conformer: 148.42632103632792 kcal/mol)

>  <smiles>  (5) 
CCNCCNc1c2ccccc2[n+](C)c2cc(OCC[N+]3(C)CC[N+](C)(Cc4ccccc4)CC3)ccc12

>  <score_type>  (5) 
oracle

>  <origin>  (5) 
adg

>  <m_score__min__energy>  (5) 
-5.7199999999999998

>  <m_primary>  (5) 
energy

$$$$
5:0
     RDKit          3D

 50 52  0  0  0  0  0  0  0  0999 V2000
   62.8170   33.8510   46.4830 C   0  0  0  0  0  0  0  0  0  0  0  0
   63.4200   32.6110   47.1330 C   0  0  0  0  0  0  0  0  0  0  0  0
   62.5860   32.1720   48.2760 N   0  0  0  0  0  0  0  0  0  0  0  0
   63.4070   32.0300   49.4910 C   0  0  0  0  0  0  0  0  0  0  0  0
   61.8910   30.9000   47.9800 C   0  0  0  0  0  0  0  0  0  0  0  0
   60.7520   30.6720   48.9810 C   0  0  0  0  0  0  0  0  0  0  0  0
   59.5910   31.5010   48.6520 N   0  0  0  0  0  0  0  0  0  0  0  0
   59.1060   31.6200   47.3040 C   0  0  0  0  0  0  0  0  0  0  0  0
   58.7850   30.4530   46.5870 C   0  0  0  0  0  0  0  0  0  0  0  0
   58.8070   29.1910   47.2210 C   0  0  0  0  0  0  0  0  0  0  0  0
   58.5660   28.0260   46.4990 C   0  0  0  0  0  0  0  0  0  0  0  0
   58.3120   28.0930   45.1350 C   0  0  0  0  0  0  0  0  0  0  0  0
   58.0360   26.4860   44.1380 Br  0  0  0  0  0  0  0  0  0  0  0  0
   58.2650   29.3310   44.4910 C   0  0  0  0  0  0  0  0  0  0  0  0
   58.4600   30.5390   45.2100 C   0  0  0  0  0  0  0  0  0  0  0  0
   58.3690   31.7730   44.5950 N   0  0  0  0  0  0  0  0  0  0  0  0
   57.7750   31.8790   43.2420 C   0  0  0  0  0  0  0  0  0  0  0  0
   58.7880   32.9130   45.2570 C   0  0  0  0  0  0  0  0  0  0  0  0
   58.9570   34.1400   44.5710 C   0  0  0  0  0  0  0  0  0  0  0  0
   59.2780   35.3070   45.2520 C   0  0  0  0  0  0  0  0  0  0  0  0
   59.4200   35.2960   46.6310 C   0  0  0  0  0  0  0  0  0  0  0  0
   59.3030   34.0960   47.3520 C   0  0  0  0  0  0  0  0  0  0  0  0
   59.3780   34.0980   48.7560 O   0  0  0  0  0  0  0  0  0  0  0  0
   60.5780   34.2210   49.5130 C   0  0  0  0  0  0  0  0  0  0  0  0
   59.0720   32.8750   46.6520 C   0  0  0  0  0  0  0  0  0  0  0  0
   62.4786   34.5470   47.2647 H   0  0  0  0  0  0  0  0  0  0  0  0
   63.5764   34.3432   45.8576 H   0  0  0  0  0  0  0  0  0  0  0  0
   61.9609   33.5576   45.8576 H   0  0  0  0  0  0  0  0  0  0  0  0
   63.4727   31.8013   46.3903 H   0  0  0  0  0  0  0  0  0  0  0  0
   64.4287   32.8535   47.4986 H   0  0  0  0  0  0  0  0  0  0  0  0
   62.7685   32.1404   50.3799 H   0  0  0  0  0  0  0  0  0  0  0  0
   63.8797   31.0368   49.5001 H   0  0  0  0  0  0  0  0  0  0  0  0
   64.1858   32.8068   49.5001 H   0  0  0  0  0  0  0  0  0  0  0  0
   61.4768   30.9409   46.9618 H   0  0  0  0  0  0  0  0  0  0  0  0
   62.6101   30.0715   48.0606 H   0  0  0  0  0  0  0  0  0  0  0  0
   60.4567   29.6127   48.9549 H   0  0  0  0  0  0  0  0  0  0  0  0
   61.1069   30.9483   49.9848 H   0  0  0  0  0  0  0  0  0  0  0  0
   59.0670   31.9740   49.4220 H   0  0  0  0  0  0  0  0  0  0  0  0
   59.0173   29.1283   48.2989 H   0  0  0  0  0  0  0  0  0  0  0  0
   58.5767   27.0513   47.0088 H   0  0  0  0  0  0  0  0  0  0  0  0
   58.0737   29.3707   43.4085 H   0  0  0  0  0  0  0  0  0  0  0  0
   56.6955   32.0716   43.3295 H   0  0  0  0  0  0  0  0  0  0  0  0
   58.2520   32.7062   42.6959 H   0  0  0  0  0  0  0  0  0  0  0  0
   57.9364   30.9379   42.6959 H   0  0  0  0  0  0  0  0  0  0  0  0
   58.8317   34.1695   43.4786 H   0  0  0  0  0  0  0  0  0  0  0  0
   59.4203   36.2446   44.6945 H   0  0  0  0  0  0  0  0  0  0  0  0
   59.6261   36.2352   47.1653 H   0  0  0  0  0  0  0  0  0  0  0  0
   60.3386   34.1965   50.5863 H   0  0  0  0  0  0  0  0  0  0  0  0
   61.2527   33.3873   49.2687 H   0  0  0  0  0  0  0  0  0  0  0  0
   61.0696   35.1742   49.2687 H   0  0  0  0  0  0  0  0  0  0  0  0
  1  2  1  0
  2  3  1  0
  3  4  1  0
  3  5  1  0
  5  6  1  0
  6  7  1  0
  7  8  1  0
  8  9  2  0
  9 10  1  0
 10 11  2  0
 11 12  1  0
 12 13  1  0
 12 14  2  0
 14 15  1  0
 15 16  2  0
 16 17  1  0
 16 18  1  0
 18 19  2  0
 19 20  1  0
 20 21  2  0
 21 22  1  0
 22 23  1  0
 23 24  1  0
 22 25  2  0
 25  8  1  0
 15  9  1  0
 25 18  1  0
  1 26  1  0
  1 27  1  0
  1 28  1  0
  2 29  1  0
  2 30  1  0
  4 31  1  0
  4 32  1  0
  4 33  1  0
  5 34  1  0
  5 35  1  0
  6 36  1  0
  6 37  1  0
  7 38  1  0
 10 39  1  0
 11 40  1  0
 14 41  1  0
 17 42  1  0
 17 43  1  0
 17 44  1  0
 19 45  1  0
 20 46  1  0
 21 47  1  0
 24 48  1  0
 24 49  1  0
 24 50  1  0
M  CHG  1  16   1
M  END
>  <UniqueID>  (6) 
6

>  <SMILES>  (6) 
CCN(C)CCNc1c2ccc(Br)cc2[n+](C)c2cccc(OC)c12

>  <Energy>  (6) 
78.63543914983973

>  <Genealogy>  (6) 
CCN(C)CCNc1c2ccc(Br)cc2[n+](C)c2cccc(OC)c12 (3D coordinates assigned)
CCN(C)CCNc1c2ccc(Br)cc2[n+](C)c2cccc(OC)c12 (optimized conformer: 78.63543914983973 kcal/mol)

>  <smiles>  (6) 
CCN(C)CCNc1c2ccc(Br)cc2[n+](C)c2cccc(OC)c12

>  <score_type>  (6) 
oracle

>  <origin>  (6) 
adg

>  <m_score__min__energy>  (6) 
-5.8399999999999999

>  <m_primary>  (6) 
energy

$$$$
6:0
     RDKit          3D

 51 53  0  0  0  0  0  0  0  0999 V2000
   56.4750   29.7810   44.1440 C   0  0  0  0  0  0  0  0  0  0  0  0
   57.6410   29.2830   44.9940 C   0  0  0  0  0  0  0  0  0  0  0  0
   58.9150   29.8090   44.4800 N   0  0  0  0  0  0  0  0  0  0  0  0
   60.0670   28.9780   44.8650 C   0  0  0  0  0  0  0  0  0  0  0  0
   60.1490   28.8080   46.3250 C   0  0  0  0  0  0  0  0  0  0  0  0
   60.2120   28.6670   47.5200 C   0  0  0  0  0  0  0  0  0  0  0  0
   60.2930   28.4980   48.9770 C   0  0  0  0  0  0  0  0  0  0  0  0
   60.0300   29.7730   49.6590 N   0  0  0  0  0  0  0  0  0  0  0  0
   60.9290   30.8020   49.1680 C   0  0  0  0  0  0  0  0  0  0  0  0
   62.2680   30.8250   49.6380 C   0  0  0  0  0  0  0  0  0  0  0  0
   62.6550   29.8040   50.5310 O   0  0  0  0  0  0  0  0  0  0  0  0
   63.3820   29.9540   51.7460 C   0  0  0  0  0  0  0  0  0  0  0  0
   63.1540   31.8440   49.2050 C   0  0  0  0  0  0  0  0  0  0  0  0
   64.4700   31.8840   49.6930 O   0  0  0  0  0  0  0  0  0  0  0  0
   65.2780   33.0540   49.7840 C   0  0  0  0  0  0  0  0  0  0  0  0
   62.7000   32.8070   48.2910 C   0  0  0  0  0  0  0  0  0  0  0  0
   61.4000   32.7670   47.7840 C   0  0  0  0  0  0  0  0  0  0  0  0
   60.9910   33.7280   46.8530 C   0  0  0  0  0  0  0  0  0  0  0  0
   59.7010   33.6810   46.3230 C   0  0  0  0  0  0  0  0  0  0  0  0
   59.2960   34.6450   45.3860 C   0  0  0  0  0  0  0  0  0  0  0  0
   58.0100   34.5880   44.8530 C   0  0  0  0  0  0  0  0  0  0  0  0
   57.1400   33.5790   45.2530 C   0  0  0  0  0  0  0  0  0  0  0  0
   57.5660   32.6320   46.1850 C   0  0  0  0  0  0  0  0  0  0  0  0
   58.8300   32.6870   46.7110 N   0  0  0  0  0  0  0  0  0  0  0  0
   59.2130   31.7430   47.6250 C   0  0  0  0  0  0  0  0  0  0  0  0
   60.5040   31.7600   48.2020 C   0  0  0  0  0  0  0  0  0  0  0  0
   55.6638   30.1275   44.8013 H   0  0  0  0  0  0  0  0  0  0  0  0
   56.8132   30.6132   43.5091 H   0  0  0  0  0  0  0  0  0  0  0  0
   56.1077   28.9612   43.5091 H   0  0  0  0  0  0  0  0  0  0  0  0
   57.5024   29.6204   46.0318 H   0  0  0  0  0  0  0  0  0  0  0  0
   57.6674   28.1841   44.9528 H   0  0  0  0  0  0  0  0  0  0  0  0
   58.8650   29.8610   43.4350 H   0  0  0  0  0  0  0  0  0  0  0  0
   59.9660   27.9884   44.3955 H   0  0  0  0  0  0  0  0  0  0  0  0
   60.9837   29.4823   44.5254 H   0  0  0  0  0  0  0  0  0  0  0  0
   59.5471   27.7557   49.2972 H   0  0  0  0  0  0  0  0  0  0  0  0
   61.3051   28.1565   49.2396 H   0  0  0  0  0  0  0  0  0  0  0  0
   60.1520   29.6420   50.6900 H   0  0  0  0  0  0  0  0  0  0  0  0
   59.0320   30.0630   49.5440 H   0  0  0  0  0  0  0  0  0  0  0  0
   62.7025   29.8138   52.5996 H   0  0  0  0  0  0  0  0  0  0  0  0
   64.1841   29.2024   51.7885 H   0  0  0  0  0  0  0  0  0  0  0  0
   63.8211   30.9617   51.7885 H   0  0  0  0  0  0  0  0  0  0  0  0
   65.4483   33.3006   50.8424 H   0  0  0  0  0  0  0  0  0  0  0  0
   66.2438   32.8720   49.2899 H   0  0  0  0  0  0  0  0  0  0  0  0
   64.7657   33.8927   49.2899 H   0  0  0  0  0  0  0  0  0  0  0  0
   63.3810   33.6082   47.9681 H   0  0  0  0  0  0  0  0  0  0  0  0
   61.6862   34.5205   46.5389 H   0  0  0  0  0  0  0  0  0  0  0  0
   59.9895   35.4401   45.0747 H   0  0  0  0  0  0  0  0  0  0  0  0
   57.6836   35.3386   44.1181 H   0  0  0  0  0  0  0  0  0  0  0  0
   56.1229   33.5280   44.8373 H   0  0  0  0  0  0  0  0  0  0  0  0
   56.8796   31.8326   46.5009 H   0  0  0  0  0  0  0  0  0  0  0  0
   58.5025   30.9555   47.9166 H   0  0  0  0  0  0  0  0  0  0  0  0
  1  2  1  0
  2  3  1  0
  3  4  1  0
  4  5  1  0
  5  6  3  0
  6  7  1  0
  7  8  1  0
  8  9  1  0
  9 10  2  0
 10 11  1  0
 11 12  1  0
 10 13  1  0
 13 14  1  0
 14 15  1  0
 13 16  2  0
 16 17  1  0
 17 18  2  0
 18 19  1  0
 19 20  2  0
 20 21  1  0
 21 22  2  0
 22 23  1  0
 23 24  2  0
 24 25  1  0
 25 26  2  0
 26  9  1  0
 26 17  1  0
 24 19  1  0
  1 27  1  0
  1 28  1  0
  1 29  1  0
  2 30  1  0
  2 31  1  0
  3 32  1  0
  4 33  1  0
  4 34  1  0
  7 35  1  0
  7 36  1  0
  8 37  1  0
  8 38  1  0
 12 39  1  0
 12 40  1  0
 12 41  1  0
 15 42  1  0
 15 43  1  0
 15 44  1  0
 16 45  1  0
 18 46  1  0
 20 47  1  0
 21 48  1  0
 22 49  1  0
 23 50  1  0
 25 51  1  0
M  CHG  2   8   1  24   1
M  END
>  <UniqueID>  (7) 
7

>  <SMILES>  (7) 
CCNCC#CC[NH2+]c1c(OC)c(OC)cc2cc3cccc[n+]3cc12

>  <Energy>  (7) 
60.543787845344646

>  <Genealogy>  (7) 
CCNCC#CC[NH2+]c1c(OC)c(OC)cc2cc3cccc[n+]3cc12 (protonated)
CCNCC#CC[NH2+]c1c(OC)c(OC)cc2cc3cccc[n+]3cc12 (3D coordinates assigned)
CCNCC#CC[NH2+]c1c(OC)c(OC)cc2cc3cccc[n+]3cc12 (optimized conformer: 60.543787845344646 kcal/mol)

>  <smiles>  (7) 
CCNCC#CCNc1c(OC)c(OC)cc2cc3cccc[n+]3cc12

>  <score_type>  (7) 
oracle

>  <origin>  (7) 
adg

>  <m_score__min__energy>  (7) 
-4.1600000000000001

>  <m_primary>  (7) 
energy

$$$$
7:0
     RDKit          3D

 52 55  0  0  0  0  0  0  0  0999 V2000
   57.7740   31.9830   50.9300 C   0  0  0  0  0  0  0  0  0  0  0  0
   59.1550   32.0250   50.4160 N   0  0  0  0  0  0  0  0  0  0  0  0
   59.6490   33.4110   50.4670 C   0  0  0  0  0  0  0  0  0  0  0  0
   60.0550   31.1440   51.1940 C   0  0  0  0  0  0  0  0  0  0  0  0
   60.2090   29.7440   50.5640 C   0  0  0  0  0  0  0  0  0  0  0  0
   61.4170   29.5970   49.7250 N   0  0  0  0  0  0  0  0  0  0  0  0
   61.7720   30.8250   49.0270 C   0  0  0  0  0  0  0  0  0  0  0  0
   60.9750   31.2890   47.9460 C   0  0  0  0  0  0  0  0  0  0  0  0
   61.2860   32.5170   47.3310 C   0  0  0  0  0  0  0  0  0  0  0  0
   62.5530   33.0330   47.4820 N   0  0  0  0  0  0  0  0  0  0  0  0
   63.1920   33.7750   46.3760 C   0  0  0  0  0  0  0  0  0  0  0  0
   63.3050   32.6890   48.5830 C   0  0  0  0  0  0  0  0  0  0  0  0
   64.4740   33.4140   48.9180 C   0  0  0  0  0  0  0  0  0  0  0  0
   65.2220   33.0890   50.0450 C   0  0  0  0  0  0  0  0  0  0  0  0
   64.8260   32.0420   50.8640 C   0  0  0  0  0  0  0  0  0  0  0  0
   63.6860   31.3030   50.5560 C   0  0  0  0  0  0  0  0  0  0  0  0
   62.9070   31.5990   49.4090 C   0  0  0  0  0  0  0  0  0  0  0  0
   60.2080   33.2080   46.5310 C   0  0  0  0  0  0  0  0  0  0  0  0
   60.2810   34.5790   46.2000 C   0  0  0  0  0  0  0  0  0  0  0  0
   59.2810   35.1910   45.4420 C   0  0  0  0  0  0  0  0  0  0  0  0
   58.1560   34.4690   45.0550 C   0  0  0  0  0  0  0  0  0  0  0  0
   58.0020   33.1500   45.4750 C   0  0  0  0  0  0  0  0  0  0  0  0
   59.0050   32.5210   46.2320 C   0  0  0  0  0  0  0  0  0  0  0  0
   58.6810   31.2150   46.9010 C   0  0  0  0  0  0  0  0  0  0  0  0
   59.9300   30.4230   47.2630 C   0  0  0  0  0  0  0  0  0  0  0  0
   57.7919   31.9835   52.0299 H   0  0  0  0  0  0  0  0  0  0  0  0
   57.2225   32.8648   50.5718 H   0  0  0  0  0  0  0  0  0  0  0  0
   57.2771   31.0693   50.5718 H   0  0  0  0  0  0  0  0  0  0  0  0
   59.7600   33.7223   51.5162 H   0  0  0  0  0  0  0  0  0  0  0  0
   60.6241   33.4716   49.9615 H   0  0  0  0  0  0  0  0  0  0  0  0
   58.9320   34.0746   49.9615 H   0  0  0  0  0  0  0  0  0  0  0  0
   61.0471   31.6157   51.2500 H   0  0  0  0  0  0  0  0  0  0  0  0
   59.6102   31.0123   52.1914 H   0  0  0  0  0  0  0  0  0  0  0  0
   60.2575   29.0022   51.3748 H   0  0  0  0  0  0  0  0  0  0  0  0
   59.3411   29.5918   49.9055 H   0  0  0  0  0  0  0  0  0  0  0  0
   62.1950   29.2010   50.2930 H   0  0  0  0  0  0  0  0  0  0  0  0
   61.2540   28.8430   49.0220 H   0  0  0  0  0  0  0  0  0  0  0  0
   63.8573   34.5476   46.7890 H   0  0  0  0  0  0  0  0  0  0  0  0
   63.7778   33.0789   45.7577 H   0  0  0  0  0  0  0  0  0  0  0  0
   62.4167   34.2511   45.7577 H   0  0  0  0  0  0  0  0  0  0  0  0
   64.7960   34.2478   48.2768 H   0  0  0  0  0  0  0  0  0  0  0  0
   66.1286   33.6631   50.2869 H   0  0  0  0  0  0  0  0  0  0  0  0
   65.4142   31.7943   51.7599 H   0  0  0  0  0  0  0  0  0  0  0  0
   63.3848   30.4750   51.2145 H   0  0  0  0  0  0  0  0  0  0  0  0
   61.1394   35.1741   46.5449 H   0  0  0  0  0  0  0  0  0  0  0  0
   59.3826   36.2466   45.1499 H   0  0  0  0  0  0  0  0  0  0  0  0
   57.3908   34.9386   44.4194 H   0  0  0  0  0  0  0  0  0  0  0  0
   57.0884   32.5965   45.2122 H   0  0  0  0  0  0  0  0  0  0  0  0
   58.1139   31.4204   47.8209 H   0  0  0  0  0  0  0  0  0  0  0  0
   58.0947   30.6115   46.1925 H   0  0  0  0  0  0  0  0  0  0  0  0
   59.6475   29.6052   47.9422 H   0  0  0  0  0  0  0  0  0  0  0  0
   60.3673   30.0337   46.3317 H   0  0  0  0  0  0  0  0  0  0  0  0
  1  2  1  0
  2  3  1  0
  2  4  1  0
  4  5  1  0
  5  6  1  0
  6  7  1  0
  7  8  2  0
  8  9  1  0
  9 10  2  0
 10 11  1  0
 10 12  1  0
 12 13  2  0
 13 14  1  0
 14 15  2  0
 15 16  1  0
 16 17  2  0
  9 18  1  0
 18 19  2  0
 19 20  1  0
 20 21  2  0
 21 22  1  0
 22 23  2  0
 23 24  1  0
 24 25  1  0
 17  7  1  0
 23 18  1  0
 25  8  1  0
 17 12  1  0
  1 26  1  0
  1 27  1  0
  1 28  1  0
  3 29  1  0
  3 30  1  0
  3 31  1  0
  4 32  1  0
  4 33  1  0
  5 34  1  0
  5 35  1  0
  6 36  1  0
  6 37  1  0
 11 38  1  0
 11 39  1  0
 11 40  1  0
 13 41  1  0
 14 42  1  0
 15 43  1  0
 16 44  1  0
 19 45  1  0
 20 46  1  0
 21 47  1  0
 22 48  1  0
 24 49  1  0
 24 50  1  0
 25 51  1  0
 25 52  1  0
M  CHG  2   6   1  10   1
M  END
>  <UniqueID>  (8) 
8

>  <SMILES>  (8) 
CN(C)CC[NH2+]c1c2c([n+](C)c3ccccc13)-c1ccccc1CC2

>  <Energy>  (8) 
95.55295717554019

>  <Genealogy>  (8) 
CN(C)CC[NH2+]c1c2c([n+](C)c3ccccc13)-c1ccccc1CC2 (protonated)
CN(C)CC[NH2+]c1c2c([n+](C)c3ccccc13)-c1ccccc1CC2 (3D coordinates assigned)
CN(C)CC[NH2+]c1c2c([n+](C)c3ccccc13)-c1ccccc1CC2 (nonaromatic ring conformer: 95.55295717554019 kcal/mol)

>  <smiles>  (8) 
CN(C)CCNc1c2c([n+](C)c3ccccc13)-c1ccccc1CC2

>  <score_type>  (8) 
oracle

>  <origin>  (8) 
adg

>  <m_score__min__energy>  (8) 
-4.5899999999999999

>  <m_primary>  (8) 
energy

$$$$
8:0
     RDKit          3D

110111  0  0  0  0  0  0  0  0999 V2000
   59.0640   28.2300   47.2990 C   0  0  0  0  0  0  0  0  0  0  0  0
   58.9440   29.1170   46.0480 C   0  0  0  0  0  0  0  0  0  0  0  0
   60.3400   29.4010   45.4820 C   0  0  0  0  0  0  0  0  0  0  0  0
   58.0520   28.4590   44.9690 C   0  0  0  0  0  0  0  0  0  0  0  0
   56.7280   29.2230   44.7580 C   0  0  0  0  0  0  0  0  0  0  0  0
   56.7150   30.0420   43.4470 C   0  0  0  0  0  0  0  0  0  0  0  0
   57.0560   31.5520   43.5710 C   0  0  2  0  0  0  0  0  0  0  0  0
   57.7330   32.0880   42.3030 C   0  0  0  0  0  0  0  0  0  0  0  0
   57.8910   31.9400   44.8180 C   0  0  0  0  0  0  0  0  0  0  0  0
   57.4550   33.2300   45.5350 C   0  0  0  0  0  0  0  0  0  0  0  0
   58.0840   34.5040   44.9320 C   0  0  0  0  0  0  0  0  0  0  0  0
   59.2980   35.0490   45.7280 C   0  0  1  0  0  0  0  0  0  0  0  0
   58.9240   35.3260   47.1950 C   0  0  0  0  0  0  0  0  0  0  0  0
   60.5230   34.1050   45.5980 C   0  0  0  0  0  0  0  0  0  0  0  0
   60.5190   32.8960   46.5630 C   0  0  0  0  0  0  0  0  0  0  0  0
   60.8800   33.2410   48.0610 C   0  0  2  0  0  0  0  0  0  0  0  0
   62.4370   33.1170   48.3510 C   0  0  1  0  0  0  0  0  0  0  0  0
   63.2910   33.7870   47.2400 C   0  0  0  0  0  0  0  0  0  0  0  0
   62.7160   33.8390   49.5300 O   0  0  0  0  0  0  0  0  0  0  0  0
   62.8960   31.6290   48.5500 C   0  0  0  0  0  0  0  0  0  0  0  0
   61.8120   30.5470   48.3950 C   0  0  0  0  0  0  0  0  0  0  0  0
   60.4070   30.8920   48.9850 C   0  0  1  0  0  0  0  0  0  0  0  0
   59.8270   29.9840   49.9220 O   0  0  0  0  0  0  0  0  0  0  0  0
   60.4210   29.7200   51.1950 C   0  0  0  0  0  0  0  0  0  0  0  0
   61.5860   28.7020   51.1490 C   0  0  0  0  0  0  0  0  0  0  0  0
   59.2910   29.0200   51.9840 C   0  0  0  0  0  0  0  0  0  0  0  0
   60.7970   31.0140   51.9720 C   0  0  1  0  0  0  0  0  0  0  0  0
   62.0960   31.4690   51.5680 O   0  0  0  0  0  0  0  0  0  0  0  0
   63.2730   31.2430   52.2940 C   0  0  0  0  0  0  0  0  0  0  0  0
   63.4520   30.1580   52.9140 O   0  0  0  0  0  0  0  0  0  0  0  0
   64.3160   32.3140   52.3730 C   0  0  0  0  0  0  0  0  0  0  0  0
   63.7400   33.6150   52.0100 N   0  0  0  0  0  0  0  0  0  0  0  0
   63.9260   34.6170   53.0730 C   0  0  0  0  0  0  0  0  0  0  0  0
   63.1620   34.2520   54.3680 C   0  0  0  0  0  0  0  0  0  0  0  0
   61.9860   33.3890   54.1050 N   0  0  0  0  0  0  0  0  0  0  0  0
   60.7510   34.1950   54.1710 C   0  0  0  0  0  0  0  0  0  0  0  0
   61.8970   32.2750   55.0700 C   0  0  0  0  0  0  0  0  0  0  0  0
   59.8130   32.1690   51.7600 C   0  0  0  0  0  0  0  0  0  0  0  0
   60.1960   33.0370   50.5630 C   0  0  0  0  0  0  0  0  0  0  0  0
   60.0210   32.4140   49.1230 C   0  0  1  0  0  0  0  0  0  0  0  0
   58.4910   32.5650   48.8320 C   0  0  0  0  0  0  0  0  0  0  0  0
   58.9795   28.8544   48.2007 H   0  0  0  0  0  0  0  0  0  0  0  0
   58.2591   27.4802   47.2955 H   0  0  0  0  0  0  0  0  0  0  0  0
   60.0392   27.7211   47.2955 H   0  0  0  0  0  0  0  0  0  0  0  0
   58.4665   30.0634   46.3417 H   0  0  0  0  0  0  0  0  0  0  0  0
   61.0492   29.5453   46.3104 H   0  0  0  0  0  0  0  0  0  0  0  0
   60.6653   28.5506   44.8647 H   0  0  0  0  0  0  0  0  0  0  0  0
   60.3072   30.3109   44.8647 H   0  0  0  0  0  0  0  0  0  0  0  0
   58.6041   28.4387   44.0178 H   0  0  0  0  0  0  0  0  0  0  0  0
   57.8037   27.4435   45.3112 H   0  0  0  0  0  0  0  0  0  0  0  0
   55.9031   28.4960   44.7271 H   0  0  0  0  0  0  0  0  0  0  0  0
   56.6154   29.9302   45.5930 H   0  0  0  0  0  0  0  0  0  0  0  0
   57.4472   29.5890   42.7624 H   0  0  0  0  0  0  0  0  0  0  0  0
   55.6747   30.0063   43.0913 H   0  0  0  0  0  0  0  0  0  0  0  0
   56.0753   32.0326   43.7024 H   0  0  0  0  0  0  0  0  0  0  0  0
   58.5669   32.7482   42.5837 H   0  0  0  0  0  0  0  0  0  0  0  0
   58.1163   31.2459   41.7081 H   0  0  0  0  0  0  0  0  0  0  0  0
   57.0013   32.6542   41.7081 H   0  0  0  0  0  0  0  0  0  0  0  0
   57.8254   31.1127   45.5400 H   0  0  0  0  0  0  0  0  0  0  0  0
   58.9103   32.1297   44.4505 H   0  0  0  0  0  0  0  0  0  0  0  0
   56.3604   33.3148   45.4669 H   0  0  0  0  0  0  0  0  0  0  0  0
   57.8001   33.1571   46.5769 H   0  0  0  0  0  0  0  0  0  0  0  0
   58.4169   34.2739   43.9091 H   0  0  0  0  0  0  0  0  0  0  0  0
   57.3094   35.2845   44.9615 H   0  0  0  0  0  0  0  0  0  0  0  0
   59.5907   36.0135   45.2875 H   0  0  0  0  0  0  0  0  0  0  0  0
   59.6293   34.8036   47.8581 H   0  0  0  0  0  0  0  0  0  0  0  0
   58.9723   36.4079   47.3877 H   0  0  0  0  0  0  0  0  0  0  0  0
   57.9032   34.9644   47.3877 H   0  0  0  0  0  0  0  0  0  0  0  0
   60.5498   33.7199   44.5680 H   0  0  0  0  0  0  0  0  0  0  0  0
   61.4054   34.7067   45.8611 H   0  0  0  0  0  0  0  0  0  0  0  0
   59.5137   32.4497   46.5477 H   0  0  0  0  0  0  0  0  0  0  0  0
   61.3037   32.2129   46.2056 H   0  0  0  0  0  0  0  0  0  0  0  0
   60.6031   34.2975   48.1921 H   0  0  0  0  0  0  0  0  0  0  0  0
   64.0762   34.4030   47.7025 H   0  0  0  0  0  0  0  0  0  0  0  0
   63.7552   33.0096   46.6154 H   0  0  0  0  0  0  0  0  0  0  0  0
   62.6464   34.4229   46.6154 H   0  0  0  0  0  0  0  0  0  0  0  0
   62.6150   33.2340   50.3130 H   0  0  0  0  0  0  0  0  0  0  0  0
   63.3128   31.5411   49.5642 H   0  0  0  0  0  0  0  0  0  0  0  0
   63.6157   31.4367   47.7407 H   0  0  0  0  0  0  0  0  0  0  0  0
   62.1723   29.6362   48.8956 H   0  0  0  0  0  0  0  0  0  0  0  0
   61.6582   30.4359   47.3115 H   0  0  0  0  0  0  0  0  0  0  0  0
   59.8077   30.6291   48.1008 H   0  0  0  0  0  0  0  0  0  0  0  0
   61.8852   28.4406   52.1747 H   0  0  0  0  0  0  0  0  0  0  0  0
   61.2594   27.7947   50.6198 H   0  0  0  0  0  0  0  0  0  0  0  0
   62.4414   29.1473   50.6198 H   0  0  0  0  0  0  0  0  0  0  0  0
   59.4730   29.1327   53.0630 H   0  0  0  0  0  0  0  0  0  0  0  0
   58.3250   29.4781   51.7252 H   0  0  0  0  0  0  0  0  0  0  0  0
   59.2709   27.9511   51.7252 H   0  0  0  0  0  0  0  0  0  0  0  0
   60.7720   30.7372   53.0363 H   0  0  0  0  0  0  0  0  0  0  0  0
   64.7072   32.3643   53.3998 H   0  0  0  0  0  0  0  0  0  0  0  0
   65.1284   32.0743   51.6712 H   0  0  0  0  0  0  0  0  0  0  0  0
   64.1790   33.9570   51.1220 H   0  0  0  0  0  0  0  0  0  0  0  0
   64.9987   34.6912   53.3047 H   0  0  0  0  0  0  0  0  0  0  0  0
   63.5258   35.5736   52.7059 H   0  0  0  0  0  0  0  0  0  0  0  0
   63.8469   33.7195   55.0443 H   0  0  0  0  0  0  0  0  0  0  0  0
   62.7981   35.1874   54.8181 H   0  0  0  0  0  0  0  0  0  0  0  0
   62.0510   32.9880   53.1380 H   0  0  0  0  0  0  0  0  0  0  0  0
   60.4831   34.3699   55.2234 H   0  0  0  0  0  0  0  0  0  0  0  0
   60.9157   35.1600   53.6694 H   0  0  0  0  0  0  0  0  0  0  0  0
   59.9340   33.6557   53.6694 H   0  0  0  0  0  0  0  0  0  0  0  0
   61.9289   32.6740   56.0946 H   0  0  0  0  0  0  0  0  0  0  0  0
   60.9526   31.7321   54.9172 H   0  0  0  0  0  0  0  0  0  0  0  0
   62.7432   31.5890   54.9172 H   0  0  0  0  0  0  0  0  0  0  0  0
   59.8018   32.7960   52.6638 H   0  0  0  0  0  0  0  0  0  0  0  0
   58.8209   31.7371   51.5619 H   0  0  0  0  0  0  0  0  0  0  0  0
   61.2561   33.3072   50.6781 H   0  0  0  0  0  0  0  0  0  0  0  0
   59.4890   33.8792   50.5909 H   0  0  0  0  0  0  0  0  0  0  0  0
   57.9405   32.6193   49.7828 H   0  0  0  0  0  0  0  0  0  0  0  0
   58.3167   33.4847   48.2543 H   0  0  0  0  0  0  0  0  0  0  0  0
   58.1402   31.6971   48.2543 H   0  0  0  0  0  0  0  0  0  0  0  0
  1  2  1  0
  2  3  1  0
  2  4  1  0
  4  5  1  0
  5  6  1  0
  6  7  1  0
  7  8  1  0
  7  9  1  0
  9 10  1  0
 10 11  1  0
 11 12  1  0
 12 13  1  0
 12 14  1  0
 14 15  1  0
 15 16  1  0
 16 17  1  0
 17 18  1  0
 17 19  1  1
 17 20  1  0
 20 21  1  0
 21 22  1  0
 22 23  1  0
 23 24  1  0
 24 25  1  0
 24 26  1  0
 24 27  1  0
 27 28  1  0
 28 29  1  0
 29 30  2  0
 29 31  1  0
 31 32  1  0
 32 33  1  0
 33 34  1  0
 34 35  1  0
 35 36  1  0
 35 37  1  0
 27 38  1  0
 38 39  1  0
 39 40  1  0
 40 41  1  6
 40 16  1  0
 40 22  1  0
  1 42  1  0
  1 43  1  0
  1 44  1  0
  2 45  1  0
  3 46  1  0
  3 47  1  0
  3 48  1  0
  4 49  1  0
  4 50  1  0
  5 51  1  0
  5 52  1  0
  6 53  1  0
  6 54  1  0
  7 55  1  1
  8 56  1  0
  8 57  1  0
  8 58  1  0
  9 59  1  0
  9 60  1  0
 10 61  1  0
 10 62  1  0
 11 63  1  0
 11 64  1  0
 12 65  1  6
 13 66  1  0
 13 67  1  0
 13 68  1  0
 14 69  1  0
 14 70  1  0
 15 71  1  0
 15 72  1  0
 16 73  1  1
 18 74  1  0
 18 75  1  0
 18 76  1  0
 19 77  1  0
 20 78  1  0
 20 79  1  0
 21 80  1  0
 21 81  1  0
 22 82  1  6
 25 83  1  0
 25 84  1  0
 25 85  1  0
 26 86  1  0
 26 87  1  0
 26 88  1  0
 27 89  1  1
 31 90  1  0
 31 91  1  0
 32 92  1  0
 33 93  1  0
 33 94  1  0
 34 95  1  0
 34 96  1  0
 35 97  1  0
 36 98  1  0
 36 99  1  0
 36100  1  0
 37101  1  0
 37102  1  0
 37103  1  0
 38104  1  0
 38105  1  0
 39106  1  0
 39107  1  0
 41108  1  0
 41109  1  0
 41110  1  0
M  CHG  1  35   1
M  END
>  <UniqueID>  (9) 
9

>  <SMILES>  (9) 
CC(C)CCC[C@H](C)CCC[C@@H](C)CCC1C(C)(O)CCC2OC(C)(C)C(OC(=O)CNCC[NH+](C)C)CCC21C

>  <Energy>  (9) 
159.80068546117803

>  <Genealogy>  (9) 
CC(C)CCCC(C)CCCC(C)CCC1C(C)(O)CCC2OC(C)(C)C(OC(=O)CNCC[NH+](C)C)CCC21C (protonated)
CC(C)CCC[C@H](C)CCC[C@@H](C)CCC1C(C)(O)CCC2OC(C)(C)C(OC(=O)CNCC[NH+](C)C)CCC21C (chirality)
CC(C)CCC[C@H](C)CCC[C@@H](C)CCC1C(C)(O)CCC2OC(C)(C)C(OC(=O)CNCC[NH+](C)C)CCC21C (3D coordinates assigned)
CC(C)CCC[C@H](C)CCC[C@@H](C)CCC1C(C)(O)CCC2OC(C)(C)C(OC(=O)CNCC[NH+](C)C)CCC21C (nonaromatic ring conformer: 159.80068546117803 kcal/mol)

>  <smiles>  (9) 
CC(C)CCCC(C)CCCC(C)CCC1C(C)(O)CCC2OC(C)(C)C(OC(=O)CNCCN(C)C)CCC21C

>  <score_type>  (9) 
oracle

>  <origin>  (9) 
adg

>  <m_score__min__energy>  (9) 
-5.6200000000000001

>  <m_primary>  (9) 
energy

$$$$
9:0
     RDKit          3D

 65 68  0  0  0  0  0  0  0  0999 V2000
   59.2820   34.9640   47.7300 C   0  0  0  0  0  0  0  0  0  0  0  0
   59.5330   34.9580   46.2270 C   0  0  0  0  0  0  0  0  0  0  0  0
   60.3050   33.7670   45.8510 N   0  0  0  0  0  0  0  0  0  0  0  0
   61.6810   33.8730   46.3490 C   0  0  0  0  0  0  0  0  0  0  0  0
   61.9640   32.7350   47.3390 C   0  0  0  0  0  0  0  0  0  0  0  0
   60.7770   32.3500   48.1290 N   0  0  0  0  0  0  0  0  0  0  0  0
   60.9540   31.0610   48.7900 C   0  0  0  0  0  0  0  0  0  0  0  0
   61.8840   30.9460   49.8740 C   0  0  0  0  0  0  0  0  0  0  0  0
   62.6630   32.0420   50.3400 C   0  0  0  0  0  0  0  0  0  0  0  0
   63.6140   31.8870   51.3440 C   0  0  0  0  0  0  0  0  0  0  0  0
   63.8350   30.6410   51.9070 C   0  0  0  0  0  0  0  0  0  0  0  0
   63.0660   29.5550   51.5060 C   0  0  0  0  0  0  0  0  0  0  0  0
   62.0460   29.6950   50.5280 C   0  0  0  0  0  0  0  0  0  0  0  0
   61.2350   28.6370   50.2080 N   0  0  0  0  0  0  0  0  0  0  0  0
   61.1470   27.4730   51.1250 C   0  0  0  0  0  0  0  0  0  0  0  0
   60.4900   28.6570   49.0500 C   0  0  0  0  0  0  0  0  0  0  0  0
   59.9760   27.4480   48.5350 C   0  0  0  0  0  0  0  0  0  0  0  0
   59.1670   27.4160   47.4190 C   0  0  0  0  0  0  0  0  0  0  0  0
   58.8140   28.5930   46.7710 C   0  0  0  0  0  0  0  0  0  0  0  0
   57.9500   28.5580   45.6550 C   0  0  0  0  0  0  0  0  0  0  0  0
   57.3590   27.3310   45.2010 N   0  0  0  0  0  0  0  0  0  0  0  0
   56.3960   26.6360   46.0530 C   0  0  0  0  0  0  0  0  0  0  0  0
   57.9610   26.6380   44.0600 C   0  0  0  0  0  0  0  0  0  0  0  0
   57.6430   29.7380   44.9870 C   0  0  0  0  0  0  0  0  0  0  0  0
   58.1570   30.9520   45.4430 C   0  0  0  0  0  0  0  0  0  0  0  0
   57.8400   32.1890   44.7690 N   0  0  0  0  0  0  0  0  0  0  0  0
   57.1020   33.2480   45.4640 C   0  0  0  0  0  0  0  0  0  0  0  0
   58.1480   32.3410   43.3480 C   0  0  0  0  0  0  0  0  0  0  0  0
   58.9690   30.9550   46.5380 N   0  0  0  0  0  0  0  0  0  0  0  0
   59.3490   29.8320   47.2140 C   0  0  0  0  0  0  0  0  0  0  0  0
   60.2560   29.8780   48.3420 C   0  0  0  0  0  0  0  0  0  0  0  0
   60.2442   34.9410   48.2625 H   0  0  0  0  0  0  0  0  0  0  0  0
   58.7318   35.8756   48.0062 H   0  0  0  0  0  0  0  0  0  0  0  0
   58.6888   34.0798   48.0062 H   0  0  0  0  0  0  0  0  0  0  0  0
   58.5692   34.9496   45.6969 H   0  0  0  0  0  0  0  0  0  0  0  0
   60.1022   35.8584   45.9526 H   0  0  0  0  0  0  0  0  0  0  0  0
   59.8580   32.9380   46.3110 H   0  0  0  0  0  0  0  0  0  0  0  0
   62.3817   33.8046   45.5038 H   0  0  0  0  0  0  0  0  0  0  0  0
   61.8095   34.8390   46.8593 H   0  0  0  0  0  0  0  0  0  0  0  0
   62.3093   31.8565   46.7741 H   0  0  0  0  0  0  0  0  0  0  0  0
   62.7271   33.0947   48.0450 H   0  0  0  0  0  0  0  0  0  0  0  0
   59.9300   32.3960   47.5300 H   0  0  0  0  0  0  0  0  0  0  0  0
   60.5300   33.0870   48.8200 H   0  0  0  0  0  0  0  0  0  0  0  0
   62.5096   33.0364   49.8955 H   0  0  0  0  0  0  0  0  0  0  0  0
   64.1917   32.7563   51.6914 H   0  0  0  0  0  0  0  0  0  0  0  0
   64.6171   30.5113   52.6695 H   0  0  0  0  0  0  0  0  0  0  0  0
   63.2511   28.5679   51.9549 H   0  0  0  0  0  0  0  0  0  0  0  0
   61.1736   27.8243   52.1670 H   0  0  0  0  0  0  0  0  0  0  0  0
   60.2055   26.9338   50.9437 H   0  0  0  0  0  0  0  0  0  0  0  0
   61.9967   26.7984   50.9437 H   0  0  0  0  0  0  0  0  0  0  0  0
   60.2282   26.5032   49.0387 H   0  0  0  0  0  0  0  0  0  0  0  0
   58.7985   26.4517   47.0391 H   0  0  0  0  0  0  0  0  0  0  0  0
   56.6446   26.8154   47.1094 H   0  0  0  0  0  0  0  0  0  0  0  0
   55.3837   27.0130   45.8454 H   0  0  0  0  0  0  0  0  0  0  0  0
   56.4349   25.5565   45.8454 H   0  0  0  0  0  0  0  0  0  0  0  0
   58.6416   25.8545   44.4244 H   0  0  0  0  0  0  0  0  0  0  0  0
   57.1687   26.1805   43.4493 H   0  0  0  0  0  0  0  0  0  0  0  0
   58.5248   27.3585   43.4493 H   0  0  0  0  0  0  0  0  0  0  0  0
   56.9946   29.7143   44.0987 H   0  0  0  0  0  0  0  0  0  0  0  0
   57.1985   33.1095   46.5510 H   0  0  0  0  0  0  0  0  0  0  0  0
   57.5137   34.2281   45.1813 H   0  0  0  0  0  0  0  0  0  0  0  0
   56.0400   33.2011   45.1813 H   0  0  0  0  0  0  0  0  0  0  0  0
   59.1292   32.8252   43.2353 H   0  0  0  0  0  0  0  0  0  0  0  0
   58.1707   31.3507   42.8698 H   0  0  0  0  0  0  0  0  0  0  0  0
   57.3758   32.9615   42.8698 H   0  0  0  0  0  0  0  0  0  0  0  0
  1  2  1  0
  2  3  1  0
  3  4  1  0
  4  5  1  0
  5  6  1  0
  6  7  1  0
  7  8  2  0
  8  9  1  0
  9 10  2  0
 10 11  1  0
 11 12  2  0
 12 13  1  0
 13 14  2  0
 14 15  1  0
 14 16  1  0
 16 17  2  0
 17 18  1  0
 18 19  2  0
 19 20  1  0
 20 21  1  0
 21 22  1  0
 21 23  1  0
 20 24  2  0
 24 25  1  0
 25 26  1  0
 26 27  1  0
 26 28  1  0
 25 29  2  0
 29 30  1  0
 30 31  2  0
 31  7  1  0
 13  8  1  0
 31 16  1  0
 30 19  1  0
  1 32  1  0
  1 33  1  0
  1 34  1  0
  2 35  1  0
  2 36  1  0
  3 37  1  0
  4 38  1  0
  4 39  1  0
  5 40  1  0
  5 41  1  0
  6 42  1  0
  6 43  1  0
  9 44  1  0
 10 45  1  0
 11 46  1  0
 12 47  1  0
 15 48  1  0
 15 49  1  0
 15 50  1  0
 17 51  1  0
 18 52  1  0
 22 53  1  0
 22 54  1  0
 22 55  1  0
 23 56  1  0
 23 57  1  0
 23 58  1  0
 24 59  1  0
 27 60  1  0
 27 61  1  0
 27 62  1  0
 28 63  1  0
 28 64  1  0
 28 65  1  0
M  CHG  2   6   1  14   1
M  END
>  <UniqueID>  (10) 
10

>  <SMILES>  (10) 
CCNCC[NH2+]c1c2ccccc2[n+](C)c2ccc3c(N(C)C)cc(N(C)C)nc3c12

>  <Energy>  (10) 
109.44959699533615

>  <Genealogy>  (10) 
CCNCC[NH2+]c1c2ccccc2[n+](C)c2ccc3c(N(C)C)cc(N(C)C)nc3c12 (protonated)
CCNCC[NH2+]c1c2ccccc2[n+](C)c2ccc3c(N(C)C)cc(N(C)C)nc3c12 (3D coordinates assigned)
CCNCC[NH2+]c1c2ccccc2[n+](C)c2ccc3c(N(C)C)cc(N(C)C)nc3c12 (optimized conformer: 109.44959699533615 kcal/mol)

>  <smiles>  (10) 
CCNCCNc1c2ccccc2[n+](C)c2ccc3c(N(C)C)cc(N(C)C)nc3c12

>  <score_type>  (10) 
oracle

>  <origin>  (10) 
adg

>  <m_score__min__energy>  (10) 
-4.46

>  <m_primary>  (10) 
energy

$$$$
10:0
     RDKit          3D

 82 85  0  0  0  0  0  0  0  0999 V2000
   59.5700   33.6660   52.7380 C   0  0  0  0  0  0  0  0  0  0  0  0
   58.0890   33.7740   52.3800 C   0  0  0  0  0  0  0  0  0  0  0  0
   57.6510   32.6170   51.5830 N   0  0  0  0  0  0  0  0  0  0  0  0
   57.8210   31.3740   52.3530 C   0  0  0  0  0  0  0  0  0  0  0  0
   57.8940   30.1330   51.4490 C   0  0  0  0  0  0  0  0  0  0  0  0
   59.2200   29.9660   50.6820 C   0  0  0  0  0  0  0  0  0  0  0  0
   59.0620   29.3580   49.2740 C   0  0  0  0  0  0  0  0  0  0  0  0
   59.6280   30.2190   48.2300 N   0  0  0  0  0  0  0  0  0  0  0  0
   58.9170   30.4020   46.9960 C   0  0  0  0  0  0  0  0  0  0  0  0
   58.7410   29.2910   46.1480 C   0  0  0  0  0  0  0  0  0  0  0  0
   59.2140   28.0130   46.5210 C   0  0  0  0  0  0  0  0  0  0  0  0
   59.0980   26.9270   45.6580 C   0  0  0  0  0  0  0  0  0  0  0  0
   58.5230   27.0940   44.4040 C   0  0  0  0  0  0  0  0  0  0  0  0
   58.0360   28.3410   44.0190 C   0  0  0  0  0  0  0  0  0  0  0  0
   58.1010   29.4580   44.8940 C   0  0  0  0  0  0  0  0  0  0  0  0
   57.5850   30.6860   44.5390 N   0  0  0  0  0  0  0  0  0  0  0  0
   56.6730   30.7930   43.3780 C   0  0  0  0  0  0  0  0  0  0  0  0
   57.8870   31.8100   45.2870 C   0  0  0  0  0  0  0  0  0  0  0  0
   57.6190   33.1060   44.7890 C   0  0  0  0  0  0  0  0  0  0  0  0
   57.8270   34.2330   45.5680 C   0  0  0  0  0  0  0  0  0  0  0  0
   58.3060   34.1090   46.8620 C   0  0  0  0  0  0  0  0  0  0  0  0
   58.6520   32.8510   47.3890 C   0  0  0  0  0  0  0  0  0  0  0  0
   59.0880   32.7340   48.7260 O   0  0  0  0  0  0  0  0  0  0  0  0
   60.1490   33.4770   49.3410 C   0  0  0  0  0  0  0  0  0  0  0  0
   61.3560   33.6690   48.3920 C   0  0  0  0  0  0  0  0  0  0  0  0
   62.4980   32.7060   48.5460 N   0  0  0  0  0  0  0  0  0  0  0  0
   62.4790   31.7280   47.4270 C   0  0  0  0  0  0  0  0  0  0  0  0
   62.2940   31.9430   49.8270 C   0  0  0  0  0  0  0  0  0  0  0  0
   63.0010   32.6040   51.0270 C   0  0  0  0  0  0  0  0  0  0  0  0
   64.4880   32.6360   50.8520 N   0  0  0  0  0  0  0  0  0  0  0  0
   65.0350   33.8080   51.5800 C   0  0  0  0  0  0  0  0  0  0  0  0
   65.0840   31.4120   51.4440 C   0  0  0  0  0  0  0  0  0  0  0  0
   64.8770   32.7170   49.4080 C   0  0  0  0  0  0  0  0  0  0  0  0
   63.8080   33.4360   48.5600 C   0  0  0  0  0  0  0  0  0  0  0  0
   58.4930   31.6860   46.5750 C   0  0  0  0  0  0  0  0  0  0  0  0
   59.6831   33.6578   53.8321 H   0  0  0  0  0  0  0  0  0  0  0  0
   59.9814   32.7355   52.3198 H   0  0  0  0  0  0  0  0  0  0  0  0
   60.1120   34.5270   52.3198 H   0  0  0  0  0  0  0  0  0  0  0  0
   57.4976   33.8166   53.3065 H   0  0  0  0  0  0  0  0  0  0  0  0
   57.9393   34.6860   51.7835 H   0  0  0  0  0  0  0  0  0  0  0  0
   56.6410   32.7340   51.3320 H   0  0  0  0  0  0  0  0  0  0  0  0
   58.2250   32.5770   50.7110 H   0  0  0  0  0  0  0  0  0  0  0  0
   58.7519   31.4429   52.9350 H   0  0  0  0  0  0  0  0  0  0  0  0
   56.9448   31.2617   53.0084 H   0  0  0  0  0  0  0  0  0  0  0  0
   57.7490   29.2427   52.0785 H   0  0  0  0  0  0  0  0  0  0  0  0
   57.1108   30.2599   50.6871 H   0  0  0  0  0  0  0  0  0  0  0  0
   59.6868   30.9568   50.5798 H   0  0  0  0  0  0  0  0  0  0  0  0
   59.8355   29.2635   51.2630 H   0  0  0  0  0  0  0  0  0  0  0  0
   59.5764   28.3860   49.2485 H   0  0  0  0  0  0  0  0  0  0  0  0
   57.9861   29.2480   49.0733 H   0  0  0  0  0  0  0  0  0  0  0  0
   60.2980   30.9770   48.4910 H   0  0  0  0  0  0  0  0  0  0  0  0
   59.6806   27.8742   47.5074 H   0  0  0  0  0  0  0  0  0  0  0  0
   59.4616   25.9364   45.9687 H   0  0  0  0  0  0  0  0  0  0  0  0
   58.4523   26.2401   43.7142 H   0  0  0  0  0  0  0  0  0  0  0  0
   57.5932   28.4629   43.0195 H   0  0  0  0  0  0  0  0  0  0  0  0
   55.6392   30.9143   43.7338 H   0  0  0  0  0  0  0  0  0  0  0  0
   56.9557   31.6641   42.7687 H   0  0  0  0  0  0  0  0  0  0  0  0
   56.7464   29.8801   42.7687 H   0  0  0  0  0  0  0  0  0  0  0  0
   57.2381   33.2218   43.7636 H   0  0  0  0  0  0  0  0  0  0  0  0
   57.6109   35.2303   45.1572 H   0  0  0  0  0  0  0  0  0  0  0  0
   58.4175   35.0074   47.4868 H   0  0  0  0  0  0  0  0  0  0  0  0
   59.7662   34.4665   49.6315 H   0  0  0  0  0  0  0  0  0  0  0  0
   60.4955   32.9083   50.2165 H   0  0  0  0  0  0  0  0  0  0  0  0
   60.9850   33.5830   47.3600 H   0  0  0  0  0  0  0  0  0  0  0  0
   61.7725   34.6535   48.6514 H   0  0  0  0  0  0  0  0  0  0  0  0
   62.4591   30.7061   47.8335 H   0  0  0  0  0  0  0  0  0  0  0  0
   61.5839   31.8945   46.8097 H   0  0  0  0  0  0  0  0  0  0  0  0
   63.3799   31.8596   46.8097 H   0  0  0  0  0  0  0  0  0  0  0  0
   61.2158   31.8901   50.0382 H   0  0  0  0  0  0  0  0  0  0  0  0
   62.7294   30.9418   49.6926 H   0  0  0  0  0  0  0  0  0  0  0  0
   62.6332   33.6353   51.1322 H   0  0  0  0  0  0  0  0  0  0  0  0
   62.7765   32.0089   51.9245 H   0  0  0  0  0  0  0  0  0  0  0  0
   64.9550   33.6366   52.6636 H   0  0  0  0  0  0  0  0  0  0  0  0
   66.0916   33.9482   51.3080 H   0  0  0  0  0  0  0  0  0  0  0  0
   64.4639   34.7079   51.3080 H   0  0  0  0  0  0  0  0  0  0  0  0
   65.0501   31.4815   52.5413 H   0  0  0  0  0  0  0  0  0  0  0  0
   64.5142   30.5306   51.1147 H   0  0  0  0  0  0  0  0  0  0  0  0
   66.1292   31.3170   51.1147 H   0  0  0  0  0  0  0  0  0  0  0  0
   65.8251   33.2688   49.3262 H   0  0  0  0  0  0  0  0  0  0  0  0
   64.9792   31.6905   49.0260 H   0  0  0  0  0  0  0  0  0  0  0  0
   63.6467   34.4419   48.9750 H   0  0  0  0  0  0  0  0  0  0  0  0
   64.1770   33.4794   47.5246 H   0  0  0  0  0  0  0  0  0  0  0  0
  1  2  1  0
  2  3  1  0
  3  4  1  0
  4  5  1  0
  5  6  1  0
  6  7  1  0
  7  8  1  0
  8  9  1  0
  9 10  2  0
 10 11  1  0
 11 12  2  0
 12 13  1  0
 13 14  2  0
 14 15  1  0
 15 16  2  0
 16 17  1  0
 16 18  1  0
 18 19  2  0
 19 20  1  0
 20 21  2  0
 21 22  1  0
 22 23  1  0
 23 24  1  0
 24 25  1  0
 25 26  1  0
 26 27  1  0
 26 28  1  0
 28 29  1  0
 29 30  1  0
 30 31  1  0
 30 32  1  0
 30 33  1  0
 33 34  1  0
 22 35  2  0
 35  9  1  0
 15 10  1  0
 35 18  1  0
 34 26  1  0
  1 36  1  0
  1 37  1  0
  1 38  1  0
  2 39  1  0
  2 40  1  0
  3 41  1  0
  3 42  1  0
  4 43  1  0
  4 44  1  0
  5 45  1  0
  5 46  1  0
  6 47  1  0
  6 48  1  0
  7 49  1  0
  7 50  1  0
  8 51  1  0
 11 52  1  0
 12 53  1  0
 13 54  1  0
 14 55  1  0
 17 56  1  0
 17 57  1  0
 17 58  1  0
 19 59  1  0
 20 60  1  0
 21 61  1  0
 24 62  1  0
 24 63  1  0
 25 64  1  0
 25 65  1  0
 27 66  1  0
 27 67  1  0
 27 68  1  0
 28 69  1  0
 28 70  1  0
 29 71  1  0
 29 72  1  0
 31 73  1  0
 31 74  1  0
 31 75  1  0
 32 76  1  0
 32 77  1  0
 32 78  1  0
 33 79  1  0
 33 80  1  0
 34 81  1  0
 34 82  1  0
M  CHG  4   3   1  16   1  26   1  30   1
M  END
>  <UniqueID>  (11) 
11

>  <SMILES>  (11) 
CC[NH2+]CCCCNc1c2ccccc2[n+](C)c2cccc(OCC[N+]3(C)CC[N+](C)(C)CC3)c12

>  <Energy>  (11) 
134.6666517549676

>  <Genealogy>  (11) 
CC[NH2+]CCCCNc1c2ccccc2[n+](C)c2cccc(OCC[N+]3(C)CC[N+](C)(C)CC3)c12 (protonated)
CC[NH2+]CCCCNc1c2ccccc2[n+](C)c2cccc(OCC[N+]3(C)CC[N+](C)(C)CC3)c12 (3D coordinates assigned)
CC[NH2+]CCCCNc1c2ccccc2[n+](C)c2cccc(OCC[N+]3(C)CC[N+](C)(C)CC3)c12 (nonaromatic ring conformer: 134.6666517549676 kcal/mol)

>  <smiles>  (11) 
CCNCCCCNc1c2ccccc2[n+](C)c2cccc(OCC[N+]3(C)CC[N+](C)(C)CC3)c12

>  <score_type>  (11) 
oracle

>  <origin>  (11) 
adg

>  <m_score__min__energy>  (11) 
-3.1899999999999999

>  <m_primary>  (11) 
energy

$$$$
11:0
     RDKit          3D

 51 52  0  0  0  0  0  0  0  0999 V2000
   61.9700   33.4740   47.9370 C   0  0  0  0  0  0  0  0  0  0  0  0
   61.0040   33.8330   49.0610 C   0  0  0  0  0  0  0  0  0  0  0  0
   59.6490   33.7070   48.6300 O   0  0  0  0  0  0  0  0  0  0  0  0
   59.2270   33.5660   47.2980 C   0  0  0  0  0  0  0  0  0  0  0  0
   59.2500   34.7150   46.4720 C   0  0  0  0  0  0  0  0  0  0  0  0
   58.8110   34.6560   45.1360 C   0  0  0  0  0  0  0  0  0  0  0  0
   58.3630   33.4310   44.6530 C   0  0  0  0  0  0  0  0  0  0  0  0
   57.8970   33.1670   43.4550 O   0  0  0  0  0  0  0  0  0  0  0  0
   57.5790   31.8850   43.4240 C   0  0  0  0  0  0  0  0  0  0  0  0
   57.0210   31.2100   42.2120 C   0  0  0  0  0  0  0  0  0  0  0  0
   57.8430   31.2940   44.6590 C   0  0  0  0  0  0  0  0  0  0  0  0
   57.6610   29.8880   45.0500 C   0  0  0  0  0  0  0  0  0  0  0  0
   56.6000   29.5470   45.6320 O   0  0  0  0  0  0  0  0  0  0  0  0
   58.6520   28.8920   44.7670 N   0  0  0  0  0  0  0  0  0  0  0  0
   60.0710   29.0020   45.1010 C   0  0  0  0  0  0  0  0  0  0  0  0
   60.3040   29.0100   46.6270 C   0  0  0  0  0  0  0  0  0  0  0  0
   59.1090   28.5980   47.4130 N   0  0  2  0  0  0  0  0  0  0  0  0
   58.9410   29.4690   48.5940 C   0  0  0  0  0  0  0  0  0  0  0  0
   59.2470   27.1730   47.8170 C   0  0  0  0  0  0  0  0  0  0  0  0
   58.3120   26.2140   47.0520 C   0  0  0  0  0  0  0  0  0  0  0  0
   57.1110   26.9120   46.5740 N   0  0  0  0  0  0  0  0  0  0  0  0
   56.1480   25.9530   46.0310 C   0  0  0  0  0  0  0  0  0  0  0  0
   58.3580   32.3080   45.4350 C   0  0  0  0  0  0  0  0  0  0  0  0
   58.7730   32.3330   46.7660 C   0  0  0  0  0  0  0  0  0  0  0  0
   62.9188   33.1214   48.3676 H   0  0  0  0  0  0  0  0  0  0  0  0
   61.5311   32.6789   47.3163 H   0  0  0  0  0  0  0  0  0  0  0  0
   62.1569   34.3627   47.3163 H   0  0  0  0  0  0  0  0  0  0  0  0
   61.1752   33.1574   49.9121 H   0  0  0  0  0  0  0  0  0  0  0  0
   61.1824   34.8775   49.3565 H   0  0  0  0  0  0  0  0  0  0  0  0
   59.6165   35.6684   46.8802 H   0  0  0  0  0  0  0  0  0  0  0  0
   58.8219   35.5497   44.4947 H   0  0  0  0  0  0  0  0  0  0  0  0
   56.3486   30.3966   42.5222 H   0  0  0  0  0  0  0  0  0  0  0  0
   56.4597   31.9407   41.6111 H   0  0  0  0  0  0  0  0  0  0  0  0
   57.8442   30.7962   41.6111 H   0  0  0  0  0  0  0  0  0  0  0  0
   60.6066   28.1464   44.6639 H   0  0  0  0  0  0  0  0  0  0  0  0
   60.4444   29.9533   44.6941 H   0  0  0  0  0  0  0  0  0  0  0  0
   61.1274   28.3178   46.8570 H   0  0  0  0  0  0  0  0  0  0  0  0
   60.5374   30.0462   46.9129 H   0  0  0  0  0  0  0  0  0  0  0  0
   58.2560   28.6860   46.8150 H   0  0  0  0  0  0  0  0  0  0  0  0
   59.0563   28.8710   49.5100 H   0  0  0  0  0  0  0  0  0  0  0  0
   59.7027   30.2624   48.5758 H   0  0  0  0  0  0  0  0  0  0  0  0
   57.9389   29.9222   48.5758 H   0  0  0  0  0  0  0  0  0  0  0  0
   60.2863   26.8608   47.6368 H   0  0  0  0  0  0  0  0  0  0  0  0
   58.9667   27.1133   48.8790 H   0  0  0  0  0  0  0  0  0  0  0  0
   58.8527   25.7981   46.1890 H   0  0  0  0  0  0  0  0  0  0  0  0
   57.9994   25.4120   47.7369 H   0  0  0  0  0  0  0  0  0  0  0  0
   57.3880   27.5540   45.7970 H   0  0  0  0  0  0  0  0  0  0  0  0
   55.6341   25.4412   46.8580 H   0  0  0  0  0  0  0  0  0  0  0  0
   55.4093   26.4849   45.4134 H   0  0  0  0  0  0  0  0  0  0  0  0
   56.6768   25.2121   45.4134 H   0  0  0  0  0  0  0  0  0  0  0  0
   58.7488   31.4236   47.3843 H   0  0  0  0  0  0  0  0  0  0  0  0
  1  2  1  0
  2  3  1  0
  3  4  1  0
  4  5  2  0
  5  6  1  0
  6  7  2  0
  7  8  1  0
  8  9  1  0
  9 10  1  0
  9 11  2  0
 11 12  1  0
 12 13  2  0
 12 14  1  0
 14 15  1  0
 15 16  1  0
 16 17  1  0
 17 18  1  0
 17 19  1  0
 19 20  1  0
 20 21  1  0
 21 22  1  0
 11 23  1  0
 23 24  2  0
 24  4  1  0
 23  7  1  0
  1 25  1  0
  1 26  1  0
  1 27  1  0
  2 28  1  0
  2 29  1  0
  5 30  1  0
  6 31  1  0
 10 32  1  0
 10 33  1  0
 10 34  1  0
 15 35  1  0
 15 36  1  0
 16 37  1  0
 16 38  1  0
 17 39  1  6
 18 40  1  0
 18 41  1  0
 18 42  1  0
 19 43  1  0
 19 44  1  0
 20 45  1  0
 20 46  1  0
 21 47  1  0
 22 48  1  0
 22 49  1  0
 22 50  1  0
 24 51  1  0
M  CHG  2  14  -1  17   1
M  END
>  <UniqueID>  (12) 
12

>  <SMILES>  (12) 
CCOc1ccc2oc(C)c(C(=O)[N-]CC[N@H+](C)CCNC)c2c1

>  <Energy>  (12) 
82.51901630897359

>  <Genealogy>  (12) 
CCOc1ccc2oc(C)c(C(=O)[N-]CC[NH+](C)CCNC)c2c1 (protonated)
CCOc1ccc2oc(C)c(C(=O)[N-]CC[N@H+](C)CCNC)c2c1 (chirality)
CCOc1ccc2oc(C)c(C(=O)[N-]CC[N@H+](C)CCNC)c2c1 (3D coordinates assigned)
CCOc1ccc2oc(C)c(C(=O)[N-]CC[N@H+](C)CCNC)c2c1 (optimized conformer: 82.51901630897359 kcal/mol)

>  <smiles>  (12) 
CCOc1ccc2oc(C)c(C(=O)NCCN(C)CCNC)c2c1

>  <score_type>  (12) 
oracle

>  <origin>  (12) 
adg

>  <m_score__min__energy>  (12) 
-5.54

>  <m_primary>  (12) 
energy

$$$$
12:0
     RDKit          3D

 50 54  0  0  0  0  0  0  0  0999 V2000
   55.9580   19.6990   44.3670 C   0  0  0  0  0  0  0  0  0  0  0  0
   56.2630   21.0500   43.9190 N   0  0  0  0  0  0  0  0  0  0  0  0
   56.6700   22.0660   44.7010 C   0  0  0  0  0  0  0  0  0  0  0  0
   56.7820   23.1950   43.9140 C   0  0  0  0  0  0  0  0  0  0  0  0
   57.1930   24.5420   44.3590 C   0  0  0  0  0  0  0  0  0  0  0  0
   57.0260   24.9600   45.6880 C   0  0  0  0  0  0  0  0  0  0  0  0
   57.4310   26.2430   46.0620 C   0  0  0  0  0  0  0  0  0  0  0  0
   58.0080   27.1030   45.1170 C   0  0  0  0  0  0  0  0  0  0  0  0
   58.4150   28.4770   45.4840 C   0  0  0  0  0  0  0  0  0  0  0  0
   59.4730   28.7690   46.3460 C   0  0  0  0  0  0  0  0  0  0  0  0
   59.5360   30.1410   46.3640 C   0  0  0  0  0  0  0  0  0  0  0  0
   60.4070   30.9420   47.0250 N   0  0  0  0  0  0  0  0  0  0  0  0
   60.3110   32.3030   46.8960 C   0  0  0  0  0  0  0  0  0  0  0  0
   61.2460   33.1490   47.6030 N   0  0  0  0  0  0  0  0  0  0  0  0
   60.7790   33.9300   48.7570 C   0  0  0  0  0  0  0  0  0  0  0  0
   61.9400   34.2150   49.7120 C   0  0  0  0  0  0  0  0  0  0  0  0
   63.0320   34.7820   49.0170 O   0  0  0  0  0  0  0  0  0  0  0  0
   63.5610   33.8330   48.1130 C   0  0  0  0  0  0  0  0  0  0  0  0
   62.5470   33.4980   47.0140 C   0  0  0  0  0  0  0  0  0  0  0  0
   59.2900   32.8540   46.0710 C   0  0  0  0  0  0  0  0  0  0  0  0
   58.3980   32.0070   45.3880 C   0  0  0  0  0  0  0  0  0  0  0  0
   58.5520   30.6330   45.5590 C   0  0  0  0  0  0  0  0  0  0  0  0
   57.8380   29.6240   45.0200 N   0  0  0  0  0  0  0  0  0  0  0  0
   56.6910   29.7530   44.1220 C   0  0  0  0  0  0  0  0  0  0  0  0
   58.1400   26.6540   43.7950 C   0  0  0  0  0  0  0  0  0  0  0  0
   57.7400   25.4010   43.4550 N   0  0  0  0  0  0  0  0  0  0  0  0
   56.4090   22.7820   42.6420 C   0  0  0  0  0  0  0  0  0  0  0  0
   56.0900   21.4730   42.6760 N   0  0  0  0  0  0  0  0  0  0  0  0
   55.9515   19.6700   45.4666 H   0  0  0  0  0  0  0  0  0  0  0  0
   54.9699   19.4008   43.9865 H   0  0  0  0  0  0  0  0  0  0  0  0
   56.7221   19.0052   43.9865 H   0  0  0  0  0  0  0  0  0  0  0  0
   56.8775   22.0076   45.7797 H   0  0  0  0  0  0  0  0  0  0  0  0
   56.5792   24.2819   46.4300 H   0  0  0  0  0  0  0  0  0  0  0  0
   57.2970   26.5797   47.1006 H   0  0  0  0  0  0  0  0  0  0  0  0
   60.1135   28.0589   46.8897 H   0  0  0  0  0  0  0  0  0  0  0  0
   60.3579   34.8828   48.4036 H   0  0  0  0  0  0  0  0  0  0  0  0
   60.0102   33.3527   49.2915 H   0  0  0  0  0  0  0  0  0  0  0  0
   61.6037   34.9165   50.4897 H   0  0  0  0  0  0  0  0  0  0  0  0
   62.2643   33.2672   50.1665 H   0  0  0  0  0  0  0  0  0  0  0  0
   64.4702   34.2445   47.6504 H   0  0  0  0  0  0  0  0  0  0  0  0
   63.7942   32.9122   48.6677 H   0  0  0  0  0  0  0  0  0  0  0  0
   62.4241   34.3712   46.3564 H   0  0  0  0  0  0  0  0  0  0  0  0
   62.9185   32.6382   46.4371 H   0  0  0  0  0  0  0  0  0  0  0  0
   59.1982   33.9452   45.9672 H   0  0  0  0  0  0  0  0  0  0  0  0
   57.6069   32.4153   44.7418 H   0  0  0  0  0  0  0  0  0  0  0  0
   55.7706   29.8565   44.7154 H   0  0  0  0  0  0  0  0  0  0  0  0
   56.8202   30.6423   43.4876 H   0  0  0  0  0  0  0  0  0  0  0  0
   56.6195   28.8572   43.4876 H   0  0  0  0  0  0  0  0  0  0  0  0
   58.5689   27.3187   43.0307 H   0  0  0  0  0  0  0  0  0  0  0  0
   56.3786   23.4220   41.7479 H   0  0  0  0  0  0  0  0  0  0  0  0
  1  2  1  0
  2  3  1  0
  3  4  2  0
  4  5  1  0
  5  6  2  0
  6  7  1  0
  7  8  2  0
  8  9  1  0
  9 10  2  0
 10 11  1  0
 11 12  2  0
 12 13  1  0
 13 14  1  0
 14 15  1  0
 15 16  1  0
 16 17  1  0
 17 18  1  0
 18 19  1  0
 13 20  2  0
 20 21  1  0
 21 22  2  0
 22 23  1  0
 23 24  1  0
  8 25  1  0
 25 26  2  0
  4 27  1  0
 27 28  2  0
 28  2  1  0
 26  5  1  0
 23  9  1  0
 22 11  1  0
 19 14  1  0
  1 29  1  0
  1 30  1  0
  1 31  1  0
  3 32  1  0
  6 33  1  0
  7 34  1  0
 10 35  1  0
 15 36  1  0
 15 37  1  0
 16 38  1  0
 16 39  1  0
 18 40  1  0
 18 41  1  0
 19 42  1  0
 19 43  1  0
 20 44  1  0
 21 45  1  0
 24 46  1  0
 24 47  1  0
 24 48  1  0
 25 49  1  0
 27 50  1  0
M  END
>  <UniqueID>  (13) 
13

>  <SMILES>  (13) 
Cn1cc(-c2ccc(-c3cc4nc(N5CCOCC5)ccc4n3C)cn2)cn1

>  <Energy>  (13) 
130.51357741310866

>  <Genealogy>  (13) 
Cn1cc(-c2ccc(-c3cc4nc(N5CCOCC5)ccc4n3C)cn2)cn1 (3D coordinates assigned)
Cn1cc(-c2ccc(-c3cc4nc(N5CCOCC5)ccc4n3C)cn2)cn1 (nonaromatic ring conformer: 130.51357741310866 kcal/mol)

>  <smiles>  (13) 
Cn1cc(-c2ccc(-c3cc4nc(N5CCOCC5)ccc4n3C)cn2)cn1

>  <score_type>  (13) 
oracle

>  <origin>  (13) 
adg

>  <m_score__min__energy>  (13) 
-7.9800000000000004

>  <m_primary>  (13) 
energy

$$$$
13:0
     RDKit          3D

 63 66  0  0  0  0  0  0  0  0999 V2000
   63.9750   33.4250   49.6200 C   0  0  0  0  0  0  0  0  0  0  0  0
   63.9080   33.1900   48.1170 C   0  0  0  0  0  0  0  0  0  0  0  0
   63.6100   31.7790   47.8470 N   0  0  0  0  0  0  0  0  0  0  0  0
   62.7540   31.2220   48.9010 C   0  0  0  0  0  0  0  0  0  0  0  0
   61.3690   30.8480   48.3350 C   0  0  0  0  0  0  0  0  0  0  0  0
   61.2430   31.2630   46.9350 N   0  0  0  0  0  0  0  0  0  0  0  0
   60.0160   31.0520   46.2200 C   0  0  0  0  0  0  0  0  0  0  0  0
   59.6430   29.7270   45.8980 C   0  0  0  0  0  0  0  0  0  0  0  0
   60.4650   28.6310   46.2550 C   0  0  0  0  0  0  0  0  0  0  0  0
   60.0690   27.3240   45.9960 C   0  0  0  0  0  0  0  0  0  0  0  0
   58.8410   27.0770   45.3970 C   0  0  0  0  0  0  0  0  0  0  0  0
   58.0260   28.1380   45.0080 C   0  0  0  0  0  0  0  0  0  0  0  0
   58.4300   29.4870   45.2040 C   0  0  0  0  0  0  0  0  0  0  0  0
   57.6750   30.5440   44.7440 N   0  0  0  0  0  0  0  0  0  0  0  0
   56.5800   30.2970   43.7770 C   0  0  0  0  0  0  0  0  0  0  0  0
   57.9580   31.8350   45.1530 C   0  0  0  0  0  0  0  0  0  0  0  0
   57.0510   32.8910   44.8830 C   0  0  0  0  0  0  0  0  0  0  0  0
   57.3630   34.2090   45.1740 C   0  0  0  0  0  0  0  0  0  0  0  0
   58.5660   34.5140   45.7800 C   0  0  0  0  0  0  0  0  0  0  0  0
   59.4590   33.5090   46.1540 C   0  0  0  0  0  0  0  0  0  0  0  0
   60.8960   34.1110   47.0610 S   0  0  0  0  0  0  0  0  0  0  0  0
   60.0030   34.5580   48.5870 C   0  0  0  0  0  0  0  0  0  0  0  0
   60.5260   33.7160   49.7600 C   0  0  0  0  0  0  0  0  0  0  0  0
   59.6750   33.8890   51.0290 C   0  0  0  0  0  0  0  0  0  0  0  0
   58.8140   32.7160   51.2500 N   0  0  0  0  0  0  0  0  0  0  0  0
   57.8660   32.7310   52.2410 C   0  0  0  0  0  0  0  0  0  0  0  0
   57.0650   31.6090   52.4740 C   0  0  0  0  0  0  0  0  0  0  0  0
   57.2300   30.4720   51.6840 C   0  0  0  0  0  0  0  0  0  0  0  0
   58.1880   30.4680   50.6720 C   0  0  0  0  0  0  0  0  0  0  0  0
   58.9810   31.6030   50.4700 C   0  0  0  0  0  0  0  0  0  0  0  0
   59.1660   32.1340   45.8630 C   0  0  0  0  0  0  0  0  0  0  0  0
   63.7105   32.4972   50.1483 H   0  0  0  0  0  0  0  0  0  0  0  0
   64.9952   33.7276   49.8987 H   0  0  0  0  0  0  0  0  0  0  0  0
   63.2677   34.2200   49.8987 H   0  0  0  0  0  0  0  0  0  0  0  0
   63.1168   33.8196   47.6839 H   0  0  0  0  0  0  0  0  0  0  0  0
   64.8770   33.4492   47.6655 H   0  0  0  0  0  0  0  0  0  0  0  0
   64.5200   31.2570   47.8580 H   0  0  0  0  0  0  0  0  0  0  0  0
   63.2305   30.3212   49.3152 H   0  0  0  0  0  0  0  0  0  0  0  0
   62.6226   31.9792   49.6880 H   0  0  0  0  0  0  0  0  0  0  0  0
   61.2364   29.7580   48.4002 H   0  0  0  0  0  0  0  0  0  0  0  0
   60.5984   31.3665   48.9244 H   0  0  0  0  0  0  0  0  0  0  0  0
   62.1130   31.2360   46.3580 H   0  0  0  0  0  0  0  0  0  0  0  0
   61.4322   28.8166   46.7450 H   0  0  0  0  0  0  0  0  0  0  0  0
   60.7283   26.4857   46.2655 H   0  0  0  0  0  0  0  0  0  0  0  0
   58.5108   26.0412   45.2292 H   0  0  0  0  0  0  0  0  0  0  0  0
   57.0525   27.9282   44.5408 H   0  0  0  0  0  0  0  0  0  0  0  0
   55.6487   30.0869   44.3234 H   0  0  0  0  0  0  0  0  0  0  0  0
   56.4415   31.1865   43.1448 H   0  0  0  0  0  0  0  0  0  0  0  0
   56.8368   29.4342   43.1448 H   0  0  0  0  0  0  0  0  0  0  0  0
   56.0755   32.6579   44.4313 H   0  0  0  0  0  0  0  0  0  0  0  0
   56.6537   35.0114   44.9228 H   0  0  0  0  0  0  0  0  0  0  0  0
   58.8244   35.5660   45.9709 H   0  0  0  0  0  0  0  0  0  0  0  0
   60.1612   35.6247   48.8038 H   0  0  0  0  0  0  0  0  0  0  0  0
   58.9290   34.3635   48.4501 H   0  0  0  0  0  0  0  0  0  0  0  0
   60.5131   32.6557   49.4675 H   0  0  0  0  0  0  0  0  0  0  0  0
   61.5460   34.0574   49.9903 H   0  0  0  0  0  0  0  0  0  0  0  0
   60.3416   34.0143   51.8950 H   0  0  0  0  0  0  0  0  0  0  0  0
   59.0352   34.7751   50.9041 H   0  0  0  0  0  0  0  0  0  0  0  0
   57.7349   33.6327   52.8572 H   0  0  0  0  0  0  0  0  0  0  0  0
   56.3105   31.6231   53.2743 H   0  0  0  0  0  0  0  0  0  0  0  0
   56.6070   29.5824   51.8587 H   0  0  0  0  0  0  0  0  0  0  0  0
   58.3198   29.5795   50.0370 H   0  0  0  0  0  0  0  0  0  0  0  0
   59.7447   31.6012   49.6783 H   0  0  0  0  0  0  0  0  0  0  0  0
  1  2  1  0
  2  3  1  0
  3  4  1  0
  4  5  1  0
  5  6  1  0
  6  7  1  0
  7  8  2  0
  8  9  1  0
  9 10  2  0
 10 11  1  0
 11 12  2  0
 12 13  1  0
 13 14  2  0
 14 15  1  0
 14 16  1  0
 16 17  2  0
 17 18  1  0
 18 19  2  0
 19 20  1  0
 20 21  1  0
 21 22  1  0
 22 23  1  0
 23 24  1  0
 24 25  1  0
 25 26  2  0
 26 27  1  0
 27 28  2  0
 28 29  1  0
 29 30  2  0
 20 31  2  0
 31  7  1  0
 13  8  1  0
 31 16  1  0
 30 25  1  0
  1 32  1  0
  1 33  1  0
  1 34  1  0
  2 35  1  0
  2 36  1  0
  3 37  1  0
  4 38  1  0
  4 39  1  0
  5 40  1  0
  5 41  1  0
  6 42  1  0
  9 43  1  0
 10 44  1  0
 11 45  1  0
 12 46  1  0
 15 47  1  0
 15 48  1  0
 15 49  1  0
 17 50  1  0
 18 51  1  0
 19 52  1  0
 22 53  1  0
 22 54  1  0
 23 55  1  0
 23 56  1  0
 24 57  1  0
 24 58  1  0
 26 59  1  0
 27 60  1  0
 28 61  1  0
 29 62  1  0
 30 63  1  0
M  CHG  2  14   1  25   1
M  END
>  <UniqueID>  (14) 
14

>  <SMILES>  (14) 
CCNCCNc1c2ccccc2[n+](C)c2cccc(SCCC[n+]3ccccc3)c12

>  <Energy>  (14) 
92.2878764589514

>  <Genealogy>  (14) 
CCNCCNc1c2ccccc2[n+](C)c2cccc(SCCC[n+]3ccccc3)c12 (3D coordinates assigned)
CCNCCNc1c2ccccc2[n+](C)c2cccc(SCCC[n+]3ccccc3)c12 (optimized conformer: 92.2878764589514 kcal/mol)

>  <smiles>  (14) 
CCNCCNc1c2ccccc2[n+](C)c2cccc(SCCC[n+]3ccccc3)c12

>  <score_type>  (14) 
oracle

>  <origin>  (14) 
adg

>  <m_score__min__energy>  (14) 
-5.1200000000000001

>  <m_primary>  (14) 
energy

$$$$
14:0
     RDKit          3D

 72 74  0  0  0  0  0  0  0  0999 V2000
   66.3130   33.1180   50.2870 C   0  0  0  0  0  0  0  0  0  0  0  0
   65.3370   31.9490   50.1130 C   0  0  0  0  0  0  0  0  0  0  0  0
   63.9240   32.3250   50.3890 N   0  0  0  0  0  0  0  0  0  0  0  0
   63.2550   31.4230   51.3660 C   0  0  0  0  0  0  0  0  0  0  0  0
   63.9480   30.0660   51.5590 C   0  0  0  0  0  0  0  0  0  0  0  0
   63.8320   33.7490   50.8160 C   0  0  0  0  0  0  0  0  0  0  0  0
   62.9810   34.5900   49.8480 C   0  0  0  0  0  0  0  0  0  0  0  0
   62.3190   33.7500   48.9190 O   0  0  0  0  0  0  0  0  0  0  0  0
   62.8910   33.8460   47.6290 C   0  0  0  0  0  0  0  0  0  0  0  0
   63.3520   32.4720   47.1200 C   0  0  0  0  0  0  0  0  0  0  0  0
   62.9930   31.4430   48.0210 O   0  0  0  0  0  0  0  0  0  0  0  0
   61.7020   30.9490   47.7330 C   0  0  0  0  0  0  0  0  0  0  0  0
   60.8080   31.1700   48.9510 C   0  0  0  0  0  0  0  0  0  0  0  0
   59.3960   31.0200   48.6020 N   0  0  0  0  0  0  0  0  0  0  0  0
   58.9650   31.2550   47.2560 C   0  0  0  0  0  0  0  0  0  0  0  0
   58.7520   30.1740   46.3880 C   0  0  0  0  0  0  0  0  0  0  0  0
   58.3530   30.4140   45.0600 C   0  0  0  0  0  0  0  0  0  0  0  0
   58.1040   31.7000   44.6260 N   0  0  0  0  0  0  0  0  0  0  0  0
   57.4690   31.9230   43.3120 C   0  0  0  0  0  0  0  0  0  0  0  0
   58.4370   32.7700   45.4310 C   0  0  0  0  0  0  0  0  0  0  0  0
   58.8040   32.5640   46.7770 C   0  0  0  0  0  0  0  0  0  0  0  0
   58.8750   33.7660   47.6960 C   0  0  0  0  0  0  0  0  0  0  0  0
   59.6420   34.9460   47.0710 C   0  0  0  0  0  0  0  0  0  0  0  0
   59.6040   34.9870   45.5290 C   0  0  0  0  0  0  0  0  0  0  0  0
   58.4270   34.2060   44.9320 C   0  0  0  0  0  0  0  0  0  0  0  0
   58.2950   29.1990   44.1480 C   0  0  0  0  0  0  0  0  0  0  0  0
   57.4920   28.0700   44.8110 C   0  0  0  0  0  0  0  0  0  0  0  0
   57.8640   27.8250   46.2950 C   0  0  0  0  0  0  0  0  0  0  0  0
   58.9850   28.7390   46.8210 C   0  0  0  0  0  0  0  0  0  0  0  0
   66.4710   33.3073   51.3590 H   0  0  0  0  0  0  0  0  0  0  0  0
   67.2736   32.8672   49.8134 H   0  0  0  0  0  0  0  0  0  0  0  0
   65.8948   34.0184   49.8134 H   0  0  0  0  0  0  0  0  0  0  0  0
   65.4070   31.5852   49.0773 H   0  0  0  0  0  0  0  0  0  0  0  0
   65.6192   31.1738   50.8406 H   0  0  0  0  0  0  0  0  0  0  0  0
   63.3910   32.2150   49.4930 H   0  0  0  0  0  0  0  0  0  0  0  0
   63.2235   31.9341   52.3395 H   0  0  0  0  0  0  0  0  0  0  0  0
   62.2555   31.2086   50.9598 H   0  0  0  0  0  0  0  0  0  0  0  0
   64.0542   29.8581   52.6339 H   0  0  0  0  0  0  0  0  0  0  0  0
   63.3432   29.2755   51.0906 H   0  0  0  0  0  0  0  0  0  0  0  0
   64.9430   30.0925   51.0906 H   0  0  0  0  0  0  0  0  0  0  0  0
   63.3765   33.7906   51.8164 H   0  0  0  0  0  0  0  0  0  0  0  0
   64.8495   34.1669   50.8230 H   0  0  0  0  0  0  0  0  0  0  0  0
   62.2331   35.1573   50.4214 H   0  0  0  0  0  0  0  0  0  0  0  0
   63.6391   35.2807   49.3004 H   0  0  0  0  0  0  0  0  0  0  0  0
   62.1417   34.2528   46.9340 H   0  0  0  0  0  0  0  0  0  0  0  0
   63.7680   34.5076   47.6861 H   0  0  0  0  0  0  0  0  0  0  0  0
   62.8819   32.2748   46.1453 H   0  0  0  0  0  0  0  0  0  0  0  0
   64.4481   32.4859   47.0279 H   0  0  0  0  0  0  0  0  0  0  0  0
   61.2859   31.4844   46.8669 H   0  0  0  0  0  0  0  0  0  0  0  0
   61.7561   29.8756   47.4987 H   0  0  0  0  0  0  0  0  0  0  0  0
   61.0670   30.4327   49.7252 H   0  0  0  0  0  0  0  0  0  0  0  0
   60.9694   32.1930   49.3217 H   0  0  0  0  0  0  0  0  0  0  0  0
   58.7440   30.5170   49.2440 H   0  0  0  0  0  0  0  0  0  0  0  0
   56.4404   32.2842   43.4584 H   0  0  0  0  0  0  0  0  0  0  0  0
   58.0443   32.6729   42.7493 H   0  0  0  0  0  0  0  0  0  0  0  0
   57.4492   30.9781   42.7493 H   0  0  0  0  0  0  0  0  0  0  0  0
   57.8507   34.0942   47.9262 H   0  0  0  0  0  0  0  0  0  0  0  0
   59.4170   33.4599   48.6030 H   0  0  0  0  0  0  0  0  0  0  0  0
   59.2037   35.8807   47.4507 H   0  0  0  0  0  0  0  0  0  0  0  0
   60.6971   34.8199   47.3554 H   0  0  0  0  0  0  0  0  0  0  0  0
   59.5252   36.0365   45.2092 H   0  0  0  0  0  0  0  0  0  0  0  0
   60.5280   34.5126   45.1668 H   0  0  0  0  0  0  0  0  0  0  0  0
   57.4839   34.6870   45.2307 H   0  0  0  0  0  0  0  0  0  0  0  0
   58.5193   34.2038   43.8359 H   0  0  0  0  0  0  0  0  0  0  0  0
   57.8116   29.4796   43.2006 H   0  0  0  0  0  0  0  0  0  0  0  0
   59.3193   28.8452   43.9593 H   0  0  0  0  0  0  0  0  0  0  0  0
   56.4239   28.3278   44.7594 H   0  0  0  0  0  0  0  0  0  0  0  0
   57.7292   27.1452   44.2647 H   0  0  0  0  0  0  0  0  0  0  0  0
   56.9661   27.9916   46.9082 H   0  0  0  0  0  0  0  0  0  0  0  0
   58.2386   26.7929   46.3619 H   0  0  0  0  0  0  0  0  0  0  0  0
   59.0042   28.6917   47.9198 H   0  0  0  0  0  0  0  0  0  0  0  0
   59.9451   28.3957   46.4082 H   0  0  0  0  0  0  0  0  0  0  0  0
  1  2  1  0
  2  3  1  0
  3  4  1  0
  4  5  1  0
  3  6  1  0
  6  7  1  0
  7  8  1  0
  8  9  1  0
  9 10  1  0
 10 11  1  0
 11 12  1  0
 12 13  1  0
 13 14  1  0
 14 15  1  0
 15 16  2  0
 16 17  1  0
 17 18  2  0
 18 19  1  0
 18 20  1  0
 20 21  2  0
 21 22  1  0
 22 23  1  0
 23 24  1  0
 24 25  1  0
 17 26  1  0
 26 27  1  0
 27 28  1  0
 28 29  1  0
 21 15  1  0
 29 16  1  0
 25 20  1  0
  1 30  1  0
  1 31  1  0
  1 32  1  0
  2 33  1  0
  2 34  1  0
  3 35  1  0
  4 36  1  0
  4 37  1  0
  5 38  1  0
  5 39  1  0
  5 40  1  0
  6 41  1  0
  6 42  1  0
  7 43  1  0
  7 44  1  0
  9 45  1  0
  9 46  1  0
 10 47  1  0
 10 48  1  0
 12 49  1  0
 12 50  1  0
 13 51  1  0
 13 52  1  0
 14 53  1  0
 19 54  1  0
 19 55  1  0
 19 56  1  0
 22 57  1  0
 22 58  1  0
 23 59  1  0
 23 60  1  0
 24 61  1  0
 24 62  1  0
 25 63  1  0
 25 64  1  0
 26 65  1  0
 26 66  1  0
 27 67  1  0
 27 68  1  0
 28 69  1  0
 28 70  1  0
 29 71  1  0
 29 72  1  0
M  CHG  2   3   1  18   1
M  END
>  <UniqueID>  (15) 
15

>  <SMILES>  (15) 
CC[NH+](CC)CCOCCOCCNc1c2c([n+](C)c3c1CCCC3)CCCC2

>  <Energy>  (15) 
101.3753368131887

>  <Genealogy>  (15) 
CC[NH+](CC)CCOCCOCCNc1c2c([n+](C)c3c1CCCC3)CCCC2 (protonated)
CC[NH+](CC)CCOCCOCCNc1c2c([n+](C)c3c1CCCC3)CCCC2 (3D coordinates assigned)
CC[NH+](CC)CCOCCOCCNc1c2c([n+](C)c3c1CCCC3)CCCC2 (nonaromatic ring conformer: 101.3753368131887 kcal/mol)

>  <smiles>  (15) 
CCN(CC)CCOCCOCCNc1c2c([n+](C)c3c1CCCC3)CCCC2

>  <score_type>  (15) 
oracle

>  <origin>  (15) 
adg

>  <m_score__min__energy>  (15) 
-3.96

>  <m_primary>  (15) 
energy

$$$$
15:0
     RDKit          3D

 25 24  0  0  0  0  0  0  0  0999 V2000
   60.2300   33.0090   47.8300 C   0  0  0  0  0  0  0  0  0  0  0  0
   58.7180   32.8780   47.9850 C   0  0  0  0  0  0  0  0  0  0  0  0
   58.0810   32.7080   46.6820 N   0  0  0  0  0  0  0  0  0  0  0  0
   58.2050   33.6760   45.6300 C   0  0  0  0  0  0  0  0  0  0  0  0
   58.8040   34.7670   45.8350 O   0  0  0  0  0  0  0  0  0  0  0  0
   57.6670   33.3740   44.2620 C   0  0  0  0  0  0  0  0  0  0  0  0
   57.8260   31.8910   43.9250 C   0  0  0  0  0  0  0  0  0  0  0  0
   56.7900   31.1090   44.5980 N   0  0  0  0  0  0  0  0  0  0  0  0
   56.3250   29.9650   44.1880 C   0  0  0  0  0  0  0  0  0  0  0  0
   55.1650   29.4240   44.8200 N   0  0  0  0  0  0  0  0  0  0  0  0
   56.9490   29.2370   43.1220 N   0  0  0  0  0  0  0  0  0  0  0  0
   60.6984   33.0496   48.8245 H   0  0  0  0  0  0  0  0  0  0  0  0
   60.6184   32.1411   47.2769 H   0  0  0  0  0  0  0  0  0  0  0  0
   60.4634   33.9307   47.2769 H   0  0  0  0  0  0  0  0  0  0  0  0
   58.4934   32.0040   48.6141 H   0  0  0  0  0  0  0  0  0  0  0  0
   58.3287   33.7939   48.4535 H   0  0  0  0  0  0  0  0  0  0  0  0
   57.5030   31.8530   46.5200 H   0  0  0  0  0  0  0  0  0  0  0  0
   56.5996   33.6378   44.2291 H   0  0  0  0  0  0  0  0  0  0  0  0
   58.2328   33.9631   43.5253 H   0  0  0  0  0  0  0  0  0  0  0  0
   57.7367   31.7535   42.8373 H   0  0  0  0  0  0  0  0  0  0  0  0
   58.8142   31.5483   44.2657 H   0  0  0  0  0  0  0  0  0  0  0  0
   54.6990   29.9370   45.6020 H   0  0  0  0  0  0  0  0  0  0  0  0
   54.7700   28.5090   44.5110 H   0  0  0  0  0  0  0  0  0  0  0  0
   57.7940   29.5890   42.6230 H   0  0  0  0  0  0  0  0  0  0  0  0
   56.5530   28.3190   42.8200 H   0  0  0  0  0  0  0  0  0  0  0  0
  1  2  1  0
  2  3  1  0
  3  4  1  0
  4  5  2  0
  4  6  1  0
  6  7  1  0
  7  8  1  0
  8  9  2  3
  9 10  1  0
  9 11  1  0
  1 12  1  0
  1 13  1  0
  1 14  1  0
  2 15  1  0
  2 16  1  0
  3 17  1  0
  6 18  1  0
  6 19  1  0
  7 20  1  0
  7 21  1  0
 10 22  1  0
 10 23  1  0
 11 24  1  0
 11 25  1  0
M  END
>  <UniqueID>  (16) 
16

>  <SMILES>  (16) 
CCNC(=O)CCN=C(N)N

>  <Energy>  (16) 
8.381123722578895

>  <Genealogy>  (16) 
CCNC(=O)CCN=C(N)N (3D coordinates assigned)
CCNC(=O)CCN=C(N)N (optimized conformer: 8.381123722578895 kcal/mol)

>  <smiles>  (16) 
CCNC(=O)CCN=C(N)N

>  <score_type>  (16) 
oracle

>  <origin>  (16) 
adg

>  <m_score__min__energy>  (16) 
-5.3499999999999996

>  <m_primary>  (16) 
energy

$$$$
16:0
     RDKit          3D

 41 43  0  0  0  0  0  0  0  0999 V2000
   63.5110   33.6770   49.9690 C   0  0  0  0  0  0  0  0  0  0  0  0
   64.0400   33.0830   48.6530 C   0  0  0  0  0  0  0  0  0  0  0  0
   63.0190   32.9650   47.5810 N   0  0  1  0  0  0  0  0  0  0  0  0
   63.3360   33.8330   46.4300 C   0  0  0  0  0  0  0  0  0  0  0  0
   62.8090   31.5530   47.1720 C   0  0  0  0  0  0  0  0  0  0  0  0
   61.4520   31.0010   47.6440 C   0  0  0  0  0  0  0  0  0  0  0  0
   60.8620   31.8830   48.5800 O   0  0  0  0  0  0  0  0  0  0  0  0
   59.5080   32.1530   48.2600 C   0  0  2  0  0  0  0  0  0  0  0  0
   58.8790   30.9110   47.5530 C   0  0  0  0  0  0  0  0  0  0  0  0
   58.5300   31.4170   46.1900 C   0  0  0  0  0  0  0  0  0  0  0  0
   57.9360   30.7520   45.1130 C   0  0  0  0  0  0  0  0  0  0  0  0
   57.7070   31.4730   43.9190 C   0  0  0  0  0  0  0  0  0  0  0  0
   58.0690   32.8380   43.8210 C   0  0  0  0  0  0  0  0  0  0  0  0
   58.6630   33.4790   44.9230 C   0  0  0  0  0  0  0  0  0  0  0  0
   59.0590   34.8280   44.9430 C   0  0  0  0  0  0  0  0  0  0  0  0
   59.6430   35.3660   46.1140 C   0  0  0  0  0  0  0  0  0  0  0  0
   59.8330   34.5610   47.2590 C   0  0  0  0  0  0  0  0  0  0  0  0
   59.4330   33.2210   47.2080 C   0  0  0  0  0  0  0  0  0  0  0  0
   58.8720   32.7270   46.0750 C   0  0  0  0  0  0  0  0  0  0  0  0
   63.9752   33.1558   50.8193 H   0  0  0  0  0  0  0  0  0  0  0  0
   63.7604   34.7474   50.0146 H   0  0  0  0  0  0  0  0  0  0  0  0
   62.4190   33.5527   50.0146 H   0  0  0  0  0  0  0  0  0  0  0  0
   64.8519   33.7280   48.2858 H   0  0  0  0  0  0  0  0  0  0  0  0
   64.3758   32.0608   48.8817 H   0  0  0  0  0  0  0  0  0  0  0  0
   62.1250   33.3200   48.0000 H   0  0  0  0  0  0  0  0  0  0  0  0
   63.6922   34.8083   46.7933 H   0  0  0  0  0  0  0  0  0  0  0  0
   64.1197   33.3607   45.8194 H   0  0  0  0  0  0  0  0  0  0  0  0
   62.4324   33.9769   45.8194 H   0  0  0  0  0  0  0  0  0  0  0  0
   62.8523   31.4930   46.0745 H   0  0  0  0  0  0  0  0  0  0  0  0
   63.5987   30.9472   47.6403 H   0  0  0  0  0  0  0  0  0  0  0  0
   60.7835   30.8914   46.7773 H   0  0  0  0  0  0  0  0  0  0  0  0
   61.6104   30.0238   48.1236 H   0  0  0  0  0  0  0  0  0  0  0  0
   59.0010   32.4298   49.1961 H   0  0  0  0  0  0  0  0  0  0  0  0
   59.6040   30.0860   47.4912 H   0  0  0  0  0  0  0  0  0  0  0  0
   58.0096   30.5082   48.0933 H   0  0  0  0  0  0  0  0  0  0  0  0
   57.6534   29.6920   45.1931 H   0  0  0  0  0  0  0  0  0  0  0  0
   57.2433   30.9689   43.0582 H   0  0  0  0  0  0  0  0  0  0  0  0
   57.8870   33.3936   42.8893 H   0  0  0  0  0  0  0  0  0  0  0  0
   58.9158   35.4606   44.0545 H   0  0  0  0  0  0  0  0  0  0  0  0
   59.9521   36.4215   46.1329 H   0  0  0  0  0  0  0  0  0  0  0  0
   60.2854   34.9783   48.1707 H   0  0  0  0  0  0  0  0  0  0  0  0
  1  2  1  0
  2  3  1  0
  3  4  1  0
  3  5  1  0
  5  6  1  0
  6  7  1  0
  7  8  1  0
  8  9  1  0
  9 10  1  0
 10 11  2  0
 11 12  1  0
 12 13  2  0
 13 14  1  0
 14 15  2  0
 15 16  1  0
 16 17  2  0
 17 18  1  0
 18 19  2  0
 18  8  1  0
 19 10  1  0
 19 14  1  0
  1 20  1  0
  1 21  1  0
  1 22  1  0
  2 23  1  0
  2 24  1  0
  3 25  1  1
  4 26  1  0
  4 27  1  0
  4 28  1  0
  5 29  1  0
  5 30  1  0
  6 31  1  0
  6 32  1  0
  8 33  1  1
  9 34  1  0
  9 35  1  0
 11 36  1  0
 12 37  1  0
 13 38  1  0
 15 39  1  0
 16 40  1  0
 17 41  1  0
M  CHG  1   3   1
M  END
>  <UniqueID>  (17) 
17

>  <SMILES>  (17) 
CC[N@@H+](C)CCO[C@@H]1Cc2cccc3cccc1c23

>  <Energy>  (17) 
67.63765767005005

>  <Genealogy>  (17) 
CC[NH+](C)CCOC1Cc2cccc3cccc1c23 (protonated)
CC[N@@H+](C)CCO[C@@H]1Cc2cccc3cccc1c23 (chirality)
CC[N@@H+](C)CCO[C@@H]1Cc2cccc3cccc1c23 (3D coordinates assigned)
CC[N@@H+](C)CCO[C@@H]1Cc2cccc3cccc1c23 (nonaromatic ring conformer: 67.63765767005005 kcal/mol)

>  <smiles>  (17) 
CCN(C)CCOC1Cc2cccc3cccc1c23

>  <score_type>  (17) 
oracle

>  <origin>  (17) 
adg

>  <m_score__min__energy>  (17) 
-5.1900000000000004

>  <m_primary>  (17) 
energy

$$$$
17:0
     RDKit          3D

 61 65  0  0  0  0  0  0  0  0999 V2000
   55.8810   29.7230   43.0460 C   0  0  0  0  0  0  0  0  0  0  0  0
   57.3050   29.6400   43.3720 N   0  0  0  0  0  0  0  0  0  0  0  0
   57.7350   29.4700   44.7330 C   0  0  0  0  0  0  0  0  0  0  0  0
   57.4330   28.2910   45.4090 C   0  0  0  0  0  0  0  0  0  0  0  0
   57.8920   28.0760   46.7070 C   0  0  0  0  0  0  0  0  0  0  0  0
   58.7630   29.0040   47.3490 C   0  0  0  0  0  0  0  0  0  0  0  0
   58.8090   30.3240   46.7840 C   0  0  0  0  0  0  0  0  0  0  0  0
   59.0860   31.4670   47.5690 C   0  0  0  0  0  0  0  0  0  0  0  0
   59.1710   32.7580   46.9690 C   0  0  0  0  0  0  0  0  0  0  0  0
   59.4570   33.9310   47.7020 C   0  0  0  0  0  0  0  0  0  0  0  0
   59.4870   35.1900   47.0640 C   0  0  0  0  0  0  0  0  0  0  0  0
   59.2760   35.2850   45.6930 C   0  0  0  0  0  0  0  0  0  0  0  0
   59.0010   34.1460   44.9440 C   0  0  0  0  0  0  0  0  0  0  0  0
   58.9280   32.8960   45.5680 C   0  0  0  0  0  0  0  0  0  0  0  0
   58.5290   31.7790   44.8240 C   0  0  0  0  0  0  0  0  0  0  0  0
   58.3850   30.5230   45.4370 C   0  0  0  0  0  0  0  0  0  0  0  0
   59.1520   31.2920   49.0350 C   0  0  0  0  0  0  0  0  0  0  0  0
   58.2460   31.9380   49.9780 N   0  0  0  0  0  0  0  0  0  0  0  0
   57.8530   31.1040   51.1370 C   0  0  0  0  0  0  0  0  0  0  0  0
   58.1410   31.8100   52.4820 C   0  0  0  0  0  0  0  0  0  0  0  0
   59.0160   33.0000   52.3840 N   0  0  0  0  0  0  0  0  0  0  0  0
   58.2510   34.2600   52.4190 C   0  0  0  0  0  0  0  0  0  0  0  0
   60.1030   32.9800   53.3770 C   0  0  0  0  0  0  0  0  0  0  0  0
   60.1890   30.6280   49.5180 C   0  0  0  0  0  0  0  0  0  0  0  0
   61.0670   31.3470   50.3560 C   0  0  0  0  0  0  0  0  0  0  0  0
   61.8550   30.6570   51.2830 C   0  0  0  0  0  0  0  0  0  0  0  0
   61.8160   29.2620   51.3230 C   0  0  0  0  0  0  0  0  0  0  0  0
   61.0580   28.5480   50.3850 C   0  0  0  0  0  0  0  0  0  0  0  0
   60.2880   29.2040   49.3720 C   0  0  0  0  0  0  0  0  0  0  0  0
   59.6780   28.4930   48.4060 N   0  0  0  0  0  0  0  0  0  0  0  0
   60.0090   27.0430   48.2780 C   0  0  0  0  0  0  0  0  0  0  0  0
   55.2935   29.7572   43.9753 H   0  0  0  0  0  0  0  0  0  0  0  0
   55.6918   30.6337   42.4588 H   0  0  0  0  0  0  0  0  0  0  0  0
   55.5872   28.8405   42.4588 H   0  0  0  0  0  0  0  0  0  0  0  0
   57.9360   29.2470   42.6430 H   0  0  0  0  0  0  0  0  0  0  0  0
   56.8250   27.5203   44.9127 H   0  0  0  0  0  0  0  0  0  0  0  0
   57.5757   27.1716   47.2473 H   0  0  0  0  0  0  0  0  0  0  0  0
   59.6585   33.8628   48.7812 H   0  0  0  0  0  0  0  0  0  0  0  0
   59.6779   36.0989   47.6535 H   0  0  0  0  0  0  0  0  0  0  0  0
   59.3269   36.2661   45.1982 H   0  0  0  0  0  0  0  0  0  0  0  0
   58.8406   34.2281   43.8589 H   0  0  0  0  0  0  0  0  0  0  0  0
   58.3261   31.8859   43.7482 H   0  0  0  0  0  0  0  0  0  0  0  0
   57.3920   32.2910   49.4610 H   0  0  0  0  0  0  0  0  0  0  0  0
   58.6910   32.8190   50.3310 H   0  0  0  0  0  0  0  0  0  0  0  0
   56.7760   30.8899   51.0717 H   0  0  0  0  0  0  0  0  0  0  0  0
   58.4452   30.1776   51.1056 H   0  0  0  0  0  0  0  0  0  0  0  0
   57.1805   32.1263   52.9149 H   0  0  0  0  0  0  0  0  0  0  0  0
   58.6791   31.0807   53.1054 H   0  0  0  0  0  0  0  0  0  0  0  0
   58.0735   34.5523   53.4645 H   0  0  0  0  0  0  0  0  0  0  0  0
   58.8221   35.0500   51.9093 H   0  0  0  0  0  0  0  0  0  0  0  0
   57.2866   34.1177   51.9093 H   0  0  0  0  0  0  0  0  0  0  0  0
   59.6744   32.9879   54.3900 H   0  0  0  0  0  0  0  0  0  0  0  0
   60.7068   32.0706   53.2414 H   0  0  0  0  0  0  0  0  0  0  0  0
   60.7399   33.8666   53.2414 H   0  0  0  0  0  0  0  0  0  0  0  0
   61.1315   32.4425   50.2809 H   0  0  0  0  0  0  0  0  0  0  0  0
   62.5030   31.2114   51.9779 H   0  0  0  0  0  0  0  0  0  0  0  0
   62.3830   28.7206   52.0946 H   0  0  0  0  0  0  0  0  0  0  0  0
   61.0546   27.4489   50.4285 H   0  0  0  0  0  0  0  0  0  0  0  0
   60.1101   26.6002   49.2798 H   0  0  0  0  0  0  0  0  0  0  0  0
   59.2048   26.5303   47.7299 H   0  0  0  0  0  0  0  0  0  0  0  0
   60.9560   26.9301   47.7299 H   0  0  0  0  0  0  0  0  0  0  0  0
  1  2  1  0
  2  3  1  0
  3  4  2  0
  4  5  1  0
  5  6  2  0
  6  7  1  0
  7  8  2  0
  8  9  1  0
  9 10  2  0
 10 11  1  0
 11 12  2  0
 12 13  1  0
 13 14  2  0
 14 15  1  0
 15 16  2  0
  8 17  1  0
 17 18  1  0
 18 19  1  0
 19 20  1  0
 20 21  1  0
 21 22  1  0
 21 23  1  0
 17 24  2  0
 24 25  1  0
 25 26  2  0
 26 27  1  0
 27 28  2  0
 28 29  1  0
 29 30  2  0
 30 31  1  0
 16  3  1  0
 29 24  1  0
 30  6  1  0
 16  7  1  0
 14  9  1  0
  1 32  1  0
  1 33  1  0
  1 34  1  0
  2 35  1  0
  4 36  1  0
  5 37  1  0
 10 38  1  0
 11 39  1  0
 12 40  1  0
 13 41  1  0
 15 42  1  0
 18 43  1  0
 18 44  1  0
 19 45  1  0
 19 46  1  0
 20 47  1  0
 20 48  1  0
 22 49  1  0
 22 50  1  0
 22 51  1  0
 23 52  1  0
 23 53  1  0
 23 54  1  0
 25 55  1  0
 26 56  1  0
 27 57  1  0
 28 58  1  0
 31 59  1  0
 31 60  1  0
 31 61  1  0
M  CHG  2  18   1  30   1
M  END
>  <UniqueID>  (18) 
18

>  <SMILES>  (18) 
CNc1ccc2c3c(c4ccccc4cc13)C([NH2+]CCN(C)C)=c1ccccc1=[N+]2C

>  <Energy>  (18) 
178.34009809885703

>  <Genealogy>  (18) 
CNc1ccc2c3c(c4ccccc4cc13)C([NH2+]CCN(C)C)=c1ccccc1=[N+]2C (protonated)
CNc1ccc2c3c(c4ccccc4cc13)C([NH2+]CCN(C)C)=c1ccccc1=[N+]2C (3D coordinates assigned)
CNc1ccc2c3c(c4ccccc4cc13)C([NH2+]CCN(C)C)=c1ccccc1=[N+]2C (nonaromatic ring conformer: 178.34009809885703 kcal/mol)

>  <smiles>  (18) 
CNc1ccc2c3c(c4ccccc4cc13)C(NCCN(C)C)=c1ccccc1=[N+]2C

>  <score_type>  (18) 
oracle

>  <origin>  (18) 
adg

>  <m_score__min__energy>  (18) 
-5.4199999999999999

>  <m_primary>  (18) 
energy

$$$$
18:0
     RDKit          3D

 76 79  0  0  0  0  0  0  0  0999 V2000
   60.2620   29.5910   47.4610 C   0  0  0  0  0  0  0  0  0  0  0  0
   59.3000   28.4400   47.1560 C   0  0  0  0  0  0  0  0  0  0  0  0
   59.8240   27.5450   46.1020 N   0  0  0  0  0  0  0  0  0  0  0  0
   60.7480   26.5640   46.7110 C   0  0  0  0  0  0  0  0  0  0  0  0
   58.7480   26.8620   45.3410 C   0  0  0  0  0  0  0  0  0  0  0  0
   57.4020   26.9650   46.0710 C   0  0  0  0  0  0  0  0  0  0  0  0
   56.4580   27.6040   45.2420 O   0  0  0  0  0  0  0  0  0  0  0  0
   56.4710   29.0030   45.4210 C   0  0  0  0  0  0  0  0  0  0  0  0
   56.0330   29.7560   44.1580 C   0  0  0  0  0  0  0  0  0  0  0  0
   57.2220   29.9530   43.2930 N   0  0  0  0  0  0  0  0  0  0  0  0
   57.1600   31.1130   42.3740 C   0  0  0  0  0  0  0  0  0  0  0  0
   58.1140   32.2530   42.7780 C   0  0  0  0  0  0  0  0  0  0  0  0
   58.2480   32.3550   44.2390 N   0  0  0  0  0  0  0  0  0  0  0  0
   57.0340   32.8810   44.9100 C   0  0  0  0  0  0  0  0  0  0  0  0
   57.3960   34.1610   45.6810 C   0  0  0  0  0  0  0  0  0  0  0  0
   58.7810   34.5980   45.4480 N   0  0  0  0  0  0  0  0  0  0  0  0
   59.6850   34.1130   46.4570 C   0  0  0  0  0  0  0  0  0  0  0  0
   59.2140   33.7810   47.7280 C   0  0  0  0  0  0  0  0  0  0  0  0
   60.1030   33.3600   48.7230 C   0  0  0  0  0  0  0  0  0  0  0  0
   59.5630   33.3370   50.1320 C   0  0  0  0  0  0  0  0  0  0  0  0
   61.4750   33.1420   48.3890 C   0  0  0  0  0  0  0  0  0  0  0  0
   61.9120   33.6230   47.1210 C   0  0  0  0  0  0  0  0  0  0  0  0
   63.2670   33.6770   46.8070 C   0  0  0  0  0  0  0  0  0  0  0  0
   64.2150   33.2240   47.7100 C   0  0  0  0  0  0  0  0  0  0  0  0
   63.8170   32.6070   48.8950 C   0  0  0  0  0  0  0  0  0  0  0  0
   64.7840   32.0280   49.7250 C   0  0  0  0  0  0  0  0  0  0  0  0
   64.4200   31.2900   50.8110 N   0  0  0  0  0  0  0  0  0  0  0  0
   65.4580   30.7020   51.6510 C   0  0  0  0  0  0  0  0  0  0  0  0
   63.1020   31.1020   51.1060 C   0  0  0  0  0  0  0  0  0  0  0  0
   62.1020   31.6810   50.3270 C   0  0  0  0  0  0  0  0  0  0  0  0
   62.4400   32.5050   49.2320 C   0  0  0  0  0  0  0  0  0  0  0  0
   61.0170   34.0650   46.2060 N   0  0  0  0  0  0  0  0  0  0  0  0
   58.8040   31.1220   44.8440 C   0  0  0  0  0  0  0  0  0  0  0  0
   58.4940   29.8500   44.0300 C   0  0  0  0  0  0  0  0  0  0  0  0
   60.3599   29.7081   48.5504 H   0  0  0  0  0  0  0  0  0  0  0  0
   61.2478   29.3700   47.0259 H   0  0  0  0  0  0  0  0  0  0  0  0
   59.8696   30.5220   47.0259 H   0  0  0  0  0  0  0  0  0  0  0  0
   59.1443   27.8545   48.0741 H   0  0  0  0  0  0  0  0  0  0  0  0
   58.3553   28.8731   46.7954 H   0  0  0  0  0  0  0  0  0  0  0  0
   60.6843   26.6317   47.8071 H   0  0  0  0  0  0  0  0  0  0  0  0
   60.4697   25.5495   46.3895 H   0  0  0  0  0  0  0  0  0  0  0  0
   61.7773   26.7811   46.3895 H   0  0  0  0  0  0  0  0  0  0  0  0
   58.6558   27.3309   44.3502 H   0  0  0  0  0  0  0  0  0  0  0  0
   59.0112   25.7984   45.2432 H   0  0  0  0  0  0  0  0  0  0  0  0
   57.0441   25.9555   46.3216 H   0  0  0  0  0  0  0  0  0  0  0  0
   57.5322   27.5510   46.9928 H   0  0  0  0  0  0  0  0  0  0  0  0
   55.7859   29.2609   46.2420 H   0  0  0  0  0  0  0  0  0  0  0  0
   57.5041   29.3032   45.6504 H   0  0  0  0  0  0  0  0  0  0  0  0
   55.2752   29.1682   43.6193 H   0  0  0  0  0  0  0  0  0  0  0  0
   55.5988   30.7293   44.4303 H   0  0  0  0  0  0  0  0  0  0  0  0
   57.4280   30.7736   41.3626 H   0  0  0  0  0  0  0  0  0  0  0  0
   56.1354   31.5112   42.4156 H   0  0  0  0  0  0  0  0  0  0  0  0
   59.1051   32.0607   42.3412 H   0  0  0  0  0  0  0  0  0  0  0  0
   57.6967   33.1995   42.4040 H   0  0  0  0  0  0  0  0  0  0  0  0
   56.2671   33.1106   44.1556 H   0  0  0  0  0  0  0  0  0  0  0  0
   56.6425   32.1272   45.6090 H   0  0  0  0  0  0  0  0  0  0  0  0
   56.7162   34.9656   45.3640 H   0  0  0  0  0  0  0  0  0  0  0  0
   57.2962   33.9392   46.7538 H   0  0  0  0  0  0  0  0  0  0  0  0
   58.8070   35.6440   45.4550 H   0  0  0  0  0  0  0  0  0  0  0  0
   59.0810   34.2800   44.4980 H   0  0  0  0  0  0  0  0  0  0  0  0
   58.1386   33.8506   47.9486 H   0  0  0  0  0  0  0  0  0  0  0  0
   60.3992   33.3726   50.8458 H   0  0  0  0  0  0  0  0  0  0  0  0
   58.9099   34.2081   50.2886 H   0  0  0  0  0  0  0  0  0  0  0  0
   58.9863   32.4135   50.2886 H   0  0  0  0  0  0  0  0  0  0  0  0
   63.5871   34.0819   45.8356 H   0  0  0  0  0  0  0  0  0  0  0  0
   65.2854   33.3516   47.4912 H   0  0  0  0  0  0  0  0  0  0  0  0
   65.8508   32.1705   49.4978 H   0  0  0  0  0  0  0  0  0  0  0  0
   65.1993   30.8485   52.7101 H   0  0  0  0  0  0  0  0  0  0  0  0
   65.5359   29.6256   51.4381 H   0  0  0  0  0  0  0  0  0  0  0  0
   66.4213   31.1886   51.4381 H   0  0  0  0  0  0  0  0  0  0  0  0
   62.8238   30.4838   51.9723 H   0  0  0  0  0  0  0  0  0  0  0  0
   61.0446   31.4950   50.5665 H   0  0  0  0  0  0  0  0  0  0  0  0
   59.8960   31.2314   44.9184 H   0  0  0  0  0  0  0  0  0  0  0  0
   58.3314   31.0011   45.8299 H   0  0  0  0  0  0  0  0  0  0  0  0
   59.3081   29.6845   43.3090 H   0  0  0  0  0  0  0  0  0  0  0  0
   58.4062   29.0117   44.7367 H   0  0  0  0  0  0  0  0  0  0  0  0
  1  2  1  0
  2  3  1  0
  3  4  1  0
  3  5  1  0
  5  6  1  0
  6  7  1  0
  7  8  1  0
  8  9  1  0
  9 10  1  0
 10 11  1  0
 11 12  1  0
 12 13  1  0
 13 14  1  0
 14 15  1  0
 15 16  1  0
 16 17  1  0
 17 18  2  0
 18 19  1  0
 19 20  1  0
 19 21  2  0
 21 22  1  0
 22 23  1  0
 23 24  2  0
 24 25  1  0
 25 26  2  0
 26 27  1  0
 27 28  1  0
 27 29  2  0
 29 30  1  0
 30 31  2  0
 22 32  2  0
 13 33  1  0
 33 34  1  0
 34 10  1  0
 32 17  1  0
 31 21  1  0
 31 25  1  0
  1 35  1  0
  1 36  1  0
  1 37  1  0
  2 38  1  0
  2 39  1  0
  4 40  1  0
  4 41  1  0
  4 42  1  0
  5 43  1  0
  5 44  1  0
  6 45  1  0
  6 46  1  0
  8 47  1  0
  8 48  1  0
  9 49  1  0
  9 50  1  0
 11 51  1  0
 11 52  1  0
 12 53  1  0
 12 54  1  0
 14 55  1  0
 14 56  1  0
 15 57  1  0
 15 58  1  0
 16 59  1  0
 16 60  1  0
 18 61  1  0
 20 62  1  0
 20 63  1  0
 20 64  1  0
 23 65  1  0
 24 66  1  0
 26 67  1  0
 28 68  1  0
 28 69  1  0
 28 70  1  0
 29 71  1  0
 30 72  1  0
 33 73  1  0
 33 74  1  0
 34 75  1  0
 34 76  1  0
M  CHG  2  16   1  27   1
M  END
>  <UniqueID>  (19) 
19

>  <SMILES>  (19) 
CCN(C)CCOCCN1CCN(CC[NH2+]c2cc(C)c3c(ccc4c[n+](C)ccc43)n2)CC1

>  <Energy>  (19) 
124.20854484391522

>  <Genealogy>  (19) 
CCN(C)CCOCCN1CCN(CC[NH2+]c2cc(C)c3c(ccc4c[n+](C)ccc43)n2)CC1 (protonated)
CCN(C)CCOCCN1CCN(CC[NH2+]c2cc(C)c3c(ccc4c[n+](C)ccc43)n2)CC1 (3D coordinates assigned)
CCN(C)CCOCCN1CCN(CC[NH2+]c2cc(C)c3c(ccc4c[n+](C)ccc43)n2)CC1 (nonaromatic ring conformer: 124.20854484391522 kcal/mol)

>  <smiles>  (19) 
CCN(C)CCOCCN1CCN(CCNc2cc(C)c3c(ccc4c[n+](C)ccc43)n2)CC1

>  <score_type>  (19) 
oracle

>  <origin>  (19) 
adg

>  <m_score__min__energy>  (19) 
-5.5999999999999996

>  <m_primary>  (19) 
energy

$$$$
19:0
     RDKit          3D

 51 51  0  0  0  0  0  0  0  0999 V2000
   61.6910   33.5010   46.7590 C   0  0  0  0  0  0  0  0  0  0  0  0
   60.5320   32.4940   46.7390 C   0  0  0  0  0  0  0  0  0  0  0  0
   59.2830   32.9930   47.3670 N   0  0  0  0  0  0  0  0  0  0  0  0
   58.0570   32.7080   46.5860 C   0  0  0  0  0  0  0  0  0  0  0  0
   57.7830   33.7880   45.5400 C   0  0  0  0  0  0  0  0  0  0  0  0
   59.3780   34.4250   47.7380 C   0  0  0  0  0  0  0  0  0  0  0  0
   59.6770   34.5880   49.2350 C   0  0  0  0  0  0  0  0  0  0  0  0
   60.2440   33.4080   49.7690 O   0  0  0  0  0  0  0  0  0  0  0  0
   59.5390   32.9860   50.9180 C   0  0  0  0  0  0  0  0  0  0  0  0
   58.9840   31.5810   50.6800 C   0  0  0  0  0  0  0  0  0  0  0  0
   59.1070   31.1880   49.2660 N   0  0  0  0  0  0  0  0  0  0  0  0
   59.1050   29.7230   49.1340 C   0  0  0  0  0  0  0  0  0  0  0  0
   60.3300   29.2120   48.3520 C   0  0  0  0  0  0  0  0  0  0  0  0
   60.0170   28.0930   47.3370 C   0  0  0  0  0  0  0  0  0  0  0  0
   59.0650   28.5390   46.2450 C   0  0  0  0  0  0  0  0  0  0  0  0
   59.3770   29.6990   45.5100 C   0  0  0  0  0  0  0  0  0  0  0  0
   58.5150   30.1640   44.5140 C   0  0  0  0  0  0  0  0  0  0  0  0
   57.3340   29.4760   44.2330 C   0  0  0  0  0  0  0  0  0  0  0  0
   56.2530   30.0630   42.9820 Cl  0  0  0  0  0  0  0  0  0  0  0  0
   57.0160   28.3160   44.9430 C   0  0  0  0  0  0  0  0  0  0  0  0
   57.8710   27.8380   45.9440 C   0  0  0  0  0  0  0  0  0  0  0  0
   57.4130   26.3490   46.7640 Cl  0  0  0  0  0  0  0  0  0  0  0  0
   61.9576   33.7326   47.8008 H   0  0  0  0  0  0  0  0  0  0  0  0
   62.5619   33.0679   46.2453 H   0  0  0  0  0  0  0  0  0  0  0  0
   61.3838   34.4239   46.2453 H   0  0  0  0  0  0  0  0  0  0  0  0
   60.3138   32.2396   45.6913 H   0  0  0  0  0  0  0  0  0  0  0  0
   60.8577   31.6247   47.3291 H   0  0  0  0  0  0  0  0  0  0  0  0
   58.1774   31.7411   46.0755 H   0  0  0  0  0  0  0  0  0  0  0  0
   57.2065   32.6855   47.2832 H   0  0  0  0  0  0  0  0  0  0  0  0
   57.5427   34.7351   46.0452 H   0  0  0  0  0  0  0  0  0  0  0  0
   58.6751   33.9240   44.9110 H   0  0  0  0  0  0  0  0  0  0  0  0
   56.9340   33.4822   44.9110 H   0  0  0  0  0  0  0  0  0  0  0  0
   60.1856   34.8941   47.1569 H   0  0  0  0  0  0  0  0  0  0  0  0
   58.4143   34.9079   47.5190 H   0  0  0  0  0  0  0  0  0  0  0  0
   60.3827   35.4205   49.3725 H   0  0  0  0  0  0  0  0  0  0  0  0
   58.7329   34.7928   49.7611 H   0  0  0  0  0  0  0  0  0  0  0  0
   60.2193   32.9713   51.7822 H   0  0  0  0  0  0  0  0  0  0  0  0
   58.7107   33.6812   51.1193 H   0  0  0  0  0  0  0  0  0  0  0  0
   59.5432   30.8653   51.3005 H   0  0  0  0  0  0  0  0  0  0  0  0
   57.9173   31.5796   50.9486 H   0  0  0  0  0  0  0  0  0  0  0  0
   58.3010   31.5870   48.7280 H   0  0  0  0  0  0  0  0  0  0  0  0
   59.9970   31.5690   48.8770 H   0  0  0  0  0  0  0  0  0  0  0  0
   59.1135   29.2759   50.1390 H   0  0  0  0  0  0  0  0  0  0  0  0
   58.2016   29.4334   48.5772 H   0  0  0  0  0  0  0  0  0  0  0  0
   60.7672   30.0603   47.8049 H   0  0  0  0  0  0  0  0  0  0  0  0
   61.0178   28.7796   49.0936 H   0  0  0  0  0  0  0  0  0  0  0  0
   60.9588   27.7680   46.8708 H   0  0  0  0  0  0  0  0  0  0  0  0
   59.5296   27.2744   47.8868 H   0  0  0  0  0  0  0  0  0  0  0  0
   60.3085   30.2442   45.7223 H   0  0  0  0  0  0  0  0  0  0  0  0
   58.7676   31.0741   43.9502 H   0  0  0  0  0  0  0  0  0  0  0  0
   56.0868   27.7736   44.7142 H   0  0  0  0  0  0  0  0  0  0  0  0
  1  2  1  0
  2  3  1  0
  3  4  1  0
  4  5  1  0
  3  6  1  0
  6  7  1  0
  7  8  1  0
  8  9  1  0
  9 10  1  0
 10 11  1  0
 11 12  1  0
 12 13  1  0
 13 14  1  0
 14 15  1  0
 15 16  2  0
 16 17  1  0
 17 18  2  0
 18 19  1  0
 18 20  1  0
 20 21  2  0
 21 22  1  0
 21 15  1  0
  1 23  1  0
  1 24  1  0
  1 25  1  0
  2 26  1  0
  2 27  1  0
  4 28  1  0
  4 29  1  0
  5 30  1  0
  5 31  1  0
  5 32  1  0
  6 33  1  0
  6 34  1  0
  7 35  1  0
  7 36  1  0
  9 37  1  0
  9 38  1  0
 10 39  1  0
 10 40  1  0
 11 41  1  0
 11 42  1  0
 12 43  1  0
 12 44  1  0
 13 45  1  0
 13 46  1  0
 14 47  1  0
 14 48  1  0
 16 49  1  0
 17 50  1  0
 20 51  1  0
M  CHG  1  11   1
M  END
>  <UniqueID>  (20) 
20

>  <SMILES>  (20) 
CCN(CC)CCOCC[NH2+]CCCc1ccc(Cl)cc1Cl

>  <Energy>  (20) 
44.56563768849443

>  <Genealogy>  (20) 
CCN(CC)CCOCC[NH2+]CCCc1ccc(Cl)cc1Cl (protonated)
CCN(CC)CCOCC[NH2+]CCCc1ccc(Cl)cc1Cl (3D coordinates assigned)
CCN(CC)CCOCC[NH2+]CCCc1ccc(Cl)cc1Cl (optimized conformer: 44.56563768849443 kcal/mol)

>  <smiles>  (20) 
CCN(CC)CCOCCNCCCc1ccc(Cl)cc1Cl

>  <score_type>  (20) 
oracle

>  <origin>  (20) 
adg

>  <m_score__min__energy>  (20) 
-4.4000000000000004

>  <m_primary>  (20) 
energy

$$$$
20:0
     RDKit          3D

 25 26  0  0  0  0  0  0  0  0999 V2000
   58.2280   34.2270   45.0640 C   0  0  0  0  0  0  0  0  0  0  0  0
   57.6590   32.9490   45.6710 C   0  0  0  0  0  0  0  0  0  0  0  0
   58.2520   31.7650   45.0440 N   0  0  0  0  0  0  0  0  0  0  0  0
   58.1890   30.4300   45.5900 C   0  0  0  0  0  0  0  0  0  0  0  0
   57.0870   29.5900   45.3290 C   0  0  0  0  0  0  0  0  0  0  0  0
   57.0440   28.2930   45.8470 C   0  0  0  0  0  0  0  0  0  0  0  0
   58.0960   27.8130   46.6320 C   0  0  0  0  0  0  0  0  0  0  0  0
   59.1880   28.6370   46.9090 C   0  0  0  0  0  0  0  0  0  0  0  0
   59.2460   29.9360   46.3910 C   0  0  0  0  0  0  0  0  0  0  0  0
   60.7730   31.0060   46.8410 Br  0  0  0  0  0  0  0  0  0  0  0  0
   58.0420   26.5180   47.1610 O   0  0  0  0  0  0  0  0  0  0  0  0
   57.1420   25.5140   46.6770 C   0  0  0  0  0  0  0  0  0  0  0  0
   55.8910   26.1170   46.1020 C   0  0  0  0  0  0  0  0  0  0  0  0
   54.8510   25.4190   45.9810 O   0  0  0  0  0  0  0  0  0  0  0  0
   55.9060   27.4610   45.6190 N   0  0  0  0  0  0  0  0  0  0  0  0
   58.5327   34.9114   45.8694 H   0  0  0  0  0  0  0  0  0  0  0  0
   59.1014   33.9804   44.4424 H   0  0  0  0  0  0  0  0  0  0  0  0
   57.4604   34.7110   44.4424 H   0  0  0  0  0  0  0  0  0  0  0  0
   57.8776   32.9336   46.7490 H   0  0  0  0  0  0  0  0  0  0  0  0
   56.5726   32.9312   45.4997 H   0  0  0  0  0  0  0  0  0  0  0  0
   58.7480   31.9230   44.1390 H   0  0  0  0  0  0  0  0  0  0  0  0
   56.2541   29.9589   44.7124 H   0  0  0  0  0  0  0  0  0  0  0  0
   60.0087   28.2629   47.5387 H   0  0  0  0  0  0  0  0  0  0  0  0
   57.6479   24.9295   45.8944 H   0  0  0  0  0  0  0  0  0  0  0  0
   56.8552   24.8743   47.5246 H   0  0  0  0  0  0  0  0  0  0  0  0
  1  2  1  0
  2  3  1  0
  3  4  1  0
  4  5  2  0
  5  6  1  0
  6  7  2  0
  7  8  1  0
  8  9  2  0
  9 10  1  0
  7 11  1  0
 11 12  1  0
 12 13  1  0
 13 14  2  0
 13 15  1  0
  9  4  1  0
 15  6  1  0
  1 16  1  0
  1 17  1  0
  1 18  1  0
  2 19  1  0
  2 20  1  0
  3 21  1  0
  5 22  1  0
  8 23  1  0
 12 24  1  0
 12 25  1  0
M  CHG  1  15  -1
M  END
>  <UniqueID>  (21) 
21

>  <SMILES>  (21) 
CCNc1cc2c(cc1Br)OCC(=O)[N-]2

>  <Energy>  (21) 
25.68853156972986

>  <Genealogy>  (21) 
CCNc1cc2c(cc1Br)OCC(=O)[N-]2 (protonated)
CCNc1cc2c(cc1Br)OCC(=O)[N-]2 (3D coordinates assigned)
CCNc1cc2c(cc1Br)OCC(=O)[N-]2 (nonaromatic ring conformer: 25.68853156972986 kcal/mol)

>  <smiles>  (21) 
CCNc1cc2c(cc1Br)OCC(=O)N2

>  <score_type>  (21) 
oracle

>  <origin>  (21) 
adg

>  <m_score__min__energy>  (21) 
-7.3799999999999999

>  <m_primary>  (21) 
energy

$$$$
21:0
     RDKit          3D

101105  0  0  0  0  0  0  0  0999 V2000
   53.7540   24.1890   45.4080 C   0  0  0  0  0  0  0  0  0  0  0  0
   55.1710   24.2770   45.9740 C   0  0  0  0  0  0  0  0  0  0  0  0
   55.9770   25.3230   45.3030 N   0  0  0  0  0  0  0  0  0  0  0  0
   57.0620   24.8190   44.4270 C   0  0  0  0  0  0  0  0  0  0  0  0
   56.6220   23.7430   43.4210 C   0  0  0  0  0  0  0  0  0  0  0  0
   56.3290   26.5130   46.1140 C   0  0  0  0  0  0  0  0  0  0  0  0
   56.8750   27.7050   45.3090 C   0  0  0  0  0  0  0  0  0  0  0  0
   55.8450   28.5960   44.9100 O   0  0  0  0  0  0  0  0  0  0  0  0
   56.2480   29.4120   43.8240 C   0  0  0  0  0  0  0  0  0  0  0  0
   57.3460   30.4070   44.2420 C   0  0  0  0  0  0  0  0  0  0  0  0
   57.4780   30.4440   45.6990 N   0  0  0  0  0  0  0  0  0  0  0  0
   58.6140   31.0760   46.3140 C   0  0  0  0  0  0  0  0  0  0  0  0
   58.9040   32.4250   46.0460 C   0  0  0  0  0  0  0  0  0  0  0  0
   58.1550   33.1520   45.0980 C   0  0  0  0  0  0  0  0  0  0  0  0
   58.3890   34.5070   44.8870 C   0  0  0  0  0  0  0  0  0  0  0  0
   59.3760   35.1620   45.6120 C   0  0  0  0  0  0  0  0  0  0  0  0
   60.1580   34.4550   46.5270 C   0  0  0  0  0  0  0  0  0  0  0  0
   59.9650   33.0660   46.7380 C   0  0  0  0  0  0  0  0  0  0  0  0
   60.7720   32.3410   47.5940 N   0  0  0  0  0  0  0  0  0  0  0  0
   62.0470   32.9210   48.0740 C   0  0  0  0  0  0  0  0  0  0  0  0
   60.4160   31.0550   47.9580 C   0  0  0  0  0  0  0  0  0  0  0  0
   61.0610   30.3780   49.0210 C   0  0  0  0  0  0  0  0  0  0  0  0
   60.7730   29.0320   49.3160 C   0  0  0  0  0  0  0  0  0  0  0  0
   61.4460   28.3220   50.3240 O   0  0  0  0  0  0  0  0  0  0  0  0
   62.3480   28.9070   51.2590 C   0  0  0  0  0  0  0  0  0  0  0  0
   61.8480   28.7610   52.7120 C   0  0  0  0  0  0  0  0  0  0  0  0
   60.6190   29.5450   53.0850 N   0  0  1  0  0  0  0  0  0  0  0  0
   60.8960   30.9990   52.9230 C   0  0  0  0  0  0  0  0  0  0  0  0
   59.4600   29.1350   52.2440 C   0  0  0  0  0  0  0  0  0  0  0  0
   58.1030   29.6700   52.7480 C   0  0  0  0  0  0  0  0  0  0  0  0
   57.8170   29.3560   54.1760 N   0  0  2  0  0  0  0  0  0  0  0  0
   57.5450   27.9000   54.3280 C   0  0  0  0  0  0  0  0  0  0  0  0
   56.5910   30.1330   54.5590 C   0  0  0  0  0  0  0  0  0  0  0  0
   55.4480   30.0560   53.5600 C   0  0  0  0  0  0  0  0  0  0  0  0
   54.4960   29.0260   53.6480 C   0  0  0  0  0  0  0  0  0  0  0  0
   53.4390   28.9520   52.7350 C   0  0  0  0  0  0  0  0  0  0  0  0
   53.3310   29.8880   51.6940 C   0  0  0  0  0  0  0  0  0  0  0  0
   52.1550   29.8330   50.7490 C   0  0  0  0  0  0  0  0  0  0  0  0
   52.5740   29.7240   49.4320 F   0  0  0  0  0  0  0  0  0  0  0  0
   51.4060   30.9850   50.8830 F   0  0  0  0  0  0  0  0  0  0  0  0
   51.3620   28.7370   51.0380 F   0  0  0  0  0  0  0  0  0  0  0  0
   54.2840   30.9190   51.6030 C   0  0  0  0  0  0  0  0  0  0  0  0
   55.3410   30.9920   52.5180 C   0  0  0  0  0  0  0  0  0  0  0  0
   58.9680   29.7780   55.0230 C   0  0  0  0  0  0  0  0  0  0  0  0
   60.3320   29.2470   54.5200 C   0  0  0  0  0  0  0  0  0  0  0  0
   59.7940   28.3710   48.5780 C   0  0  0  0  0  0  0  0  0  0  0  0
   59.0840   29.0410   47.5850 C   0  0  0  0  0  0  0  0  0  0  0  0
   59.3690   30.3850   47.2750 C   0  0  0  0  0  0  0  0  0  0  0  0
   53.0307   24.1441   46.2356 H   0  0  0  0  0  0  0  0  0  0  0  0
   53.5500   25.0762   44.7905 H   0  0  0  0  0  0  0  0  0  0  0  0
   53.6614   23.2834   44.7905 H   0  0  0  0  0  0  0  0  0  0  0  0
   55.1100   24.5106   47.0472 H   0  0  0  0  0  0  0  0  0  0  0  0
   55.6640   23.3087   45.8027 H   0  0  0  0  0  0  0  0  0  0  0  0
   57.4711   25.6700   43.8627 H   0  0  0  0  0  0  0  0  0  0  0  0
   57.8025   24.3449   45.0879 H   0  0  0  0  0  0  0  0  0  0  0  0
   56.2602   22.8582   43.9653 H   0  0  0  0  0  0  0  0  0  0  0  0
   55.8142   24.1404   42.7890 H   0  0  0  0  0  0  0  0  0  0  0  0
   57.4768   23.4605   42.7890 H   0  0  0  0  0  0  0  0  0  0  0  0
   55.4246   26.8446   46.6452 H   0  0  0  0  0  0  0  0  0  0  0  0
   57.1388   26.1988   46.7889 H   0  0  0  0  0  0  0  0  0  0  0  0
   57.5966   28.2533   45.9324 H   0  0  0  0  0  0  0  0  0  0  0  0
   57.3522   27.3099   44.4001 H   0  0  0  0  0  0  0  0  0  0  0  0
   56.6352   28.7700   43.0191 H   0  0  0  0  0  0  0  0  0  0  0  0
   55.3745   29.9862   43.4814 H   0  0  0  0  0  0  0  0  0  0  0  0
   58.3038   30.0956   43.7997 H   0  0  0  0  0  0  0  0  0  0  0  0
   57.0710   31.4103   43.8846 H   0  0  0  0  0  0  0  0  0  0  0  0
   56.6500   30.2180   46.2890 H   0  0  0  0  0  0  0  0  0  0  0  0
   57.3740   32.6401   44.5166 H   0  0  0  0  0  0  0  0  0  0  0  0
   57.7924   35.0595   44.1461 H   0  0  0  0  0  0  0  0  0  0  0  0
   59.5418   36.2395   45.4650 H   0  0  0  0  0  0  0  0  0  0  0  0
   60.9376   34.9846   47.0943 H   0  0  0  0  0  0  0  0  0  0  0  0
   62.0567   32.9254   49.1739 H   0  0  0  0  0  0  0  0  0  0  0  0
   62.8876   32.3167   47.7023 H   0  0  0  0  0  0  0  0  0  0  0  0
   62.1438   33.9518   47.7023 H   0  0  0  0  0  0  0  0  0  0  0  0
   61.8032   30.9154   49.6296 H   0  0  0  0  0  0  0  0  0  0  0  0
   63.3255   28.4108   51.1680 H   0  0  0  0  0  0  0  0  0  0  0  0
   62.4248   29.9805   51.0318 H   0  0  0  0  0  0  0  0  0  0  0  0
   61.6296   27.6967   52.8841 H   0  0  0  0  0  0  0  0  0  0  0  0
   62.6541   29.1713   53.3380 H   0  0  0  0  0  0  0  0  0  0  0  0
   60.9853   31.4679   53.9140 H   0  0  0  0  0  0  0  0  0  0  0  0
   61.8359   31.1336   52.3676 H   0  0  0  0  0  0  0  0  0  0  0  0
   60.0714   31.4697   52.3676 H   0  0  0  0  0  0  0  0  0  0  0  0
   59.4149   28.0360   52.2280 H   0  0  0  0  0  0  0  0  0  0  0  0
   59.6221   29.5650   51.2446 H   0  0  0  0  0  0  0  0  0  0  0  0
   57.3068   29.2278   52.1311 H   0  0  0  0  0  0  0  0  0  0  0  0
   58.1447   30.7662   52.6668 H   0  0  0  0  0  0  0  0  0  0  0  0
   57.4975   27.6455   55.3971 H   0  0  0  0  0  0  0  0  0  0  0  0
   56.5854   27.6543   53.8496 H   0  0  0  0  0  0  0  0  0  0  0  0
   58.3512   27.3245   53.8496 H   0  0  0  0  0  0  0  0  0  0  0  0
   56.2289   29.7470   55.5233 H   0  0  0  0  0  0  0  0  0  0  0  0
   56.8949   31.1894   54.6001 H   0  0  0  0  0  0  0  0  0  0  0  0
   54.5830   28.2705   54.4428 H   0  0  0  0  0  0  0  0  0  0  0  0
   52.6872   28.1551   52.8332 H   0  0  0  0  0  0  0  0  0  0  0  0
   54.1979   31.6733   50.8070 H   0  0  0  0  0  0  0  0  0  0  0  0
   56.0935   31.7884   52.4203 H   0  0  0  0  0  0  0  0  0  0  0  0
   58.8041   29.4042   56.0445 H   0  0  0  0  0  0  0  0  0  0  0  0
   59.0137   30.8763   54.9830 H   0  0  0  0  0  0  0  0  0  0  0  0
   60.3469   28.1553   54.6543 H   0  0  0  0  0  0  0  0  0  0  0  0
   61.1056   29.7621   55.1084 H   0  0  0  0  0  0  0  0  0  0  0  0
   59.5800   27.3113   48.7812 H   0  0  0  0  0  0  0  0  0  0  0  0
   58.2902   28.5137   47.0355 H   0  0  0  0  0  0  0  0  0  0  0  0
  1  2  1  0
  2  3  1  0
  3  4  1  0
  4  5  1  0
  3  6  1  0
  6  7  1  0
  7  8  1  0
  8  9  1  0
  9 10  1  0
 10 11  1  0
 11 12  1  0
 12 13  2  0
 13 14  1  0
 14 15  2  0
 15 16  1  0
 16 17  2  0
 17 18  1  0
 18 19  2  0
 19 20  1  0
 19 21  1  0
 21 22  2  0
 22 23  1  0
 23 24  1  0
 24 25  1  0
 25 26  1  0
 27 26  1  6
 27 28  1  0
 27 29  1  0
 29 30  1  0
 30 31  1  0
 31 32  1  6
 31 33  1  0
 33 34  1  0
 34 35  2  0
 35 36  1  0
 36 37  2  0
 37 38  1  0
 38 39  1  0
 38 40  1  0
 38 41  1  0
 37 42  1  0
 42 43  2  0
 31 44  1  0
 44 45  1  0
 23 46  2  0
 46 47  1  0
 47 48  2  0
 48 12  1  0
 18 13  1  0
 48 21  1  0
 45 27  1  0
 43 34  1  0
  1 49  1  0
  1 50  1  0
  1 51  1  0
  2 52  1  0
  2 53  1  0
  4 54  1  0
  4 55  1  0
  5 56  1  0
  5 57  1  0
  5 58  1  0
  6 59  1  0
  6 60  1  0
  7 61  1  0
  7 62  1  0
  9 63  1  0
  9 64  1  0
 10 65  1  0
 10 66  1  0
 11 67  1  0
 14 68  1  0
 15 69  1  0
 16 70  1  0
 17 71  1  0
 20 72  1  0
 20 73  1  0
 20 74  1  0
 22 75  1  0
 25 76  1  0
 25 77  1  0
 26 78  1  0
 26 79  1  0
 28 80  1  0
 28 81  1  0
 28 82  1  0
 29 83  1  0
 29 84  1  0
 30 85  1  0
 30 86  1  0
 32 87  1  0
 32 88  1  0
 32 89  1  0
 33 90  1  0
 33 91  1  0
 35 92  1  0
 36 93  1  0
 42 94  1  0
 43 95  1  0
 44 96  1  0
 44 97  1  0
 45 98  1  0
 45 99  1  0
 46100  1  0
 47101  1  0
M  CHG  3  19   1  27   1  31   1
M  END
>  <UniqueID>  (22) 
22

>  <SMILES>  (22) 
CCN(CC)CCOCCNc1c2ccccc2[n+](C)c2cc(OCC[N+]3(C)CC[N+](C)(Cc4ccc(C(F)(F)F)cc4)CC3)ccc12

>  <Energy>  (22) 
166.56131500054244

>  <Genealogy>  (22) 
CCN(CC)CCOCCNc1c2ccccc2[n+](C)c2cc(OCC[N+]3(C)CC[N+](C)(Cc4ccc(C(F)(F)F)cc4)CC3)ccc12 (3D coordinates assigned)
CCN(CC)CCOCCNc1c2ccccc2[n+](C)c2cc(OCC[N+]3(C)CC[N+](C)(Cc4ccc(C(F)(F)F)cc4)CC3)ccc12 (nonaromatic ring conformer: 166.56131500054244 kcal/mol)

>  <smiles>  (22) 
CCN(CC)CCOCCNc1c2ccccc2[n+](C)c2cc(OCC[N+]3(C)CC[N+](C)(Cc4ccc(C(F)(F)F)cc4)CC3)ccc12

>  <score_type>  (22) 
oracle

>  <origin>  (22) 
adg

>  <m_score__min__energy>  (22) 
-5.6399999999999997

>  <m_primary>  (22) 
energy

$$$$
22:0
     RDKit          3D

 48 50  0  0  0  0  0  0  0  0999 V2000
   57.4975   34.0384   43.6052 H   0  0  0  0  0  0  0  0  0  0  0  0
   57.7610   33.5060   44.5310 C   0  0  0  0  0  0  0  0  0  0  0  0
   57.7310   34.2080   45.6780 C   0  0  0  0  0  0  0  0  0  0  0  0
   56.8481   34.8380   45.8616 H   0  0  0  0  0  0  0  0  0  0  0  0
   58.8100   34.2020   46.7340 C   0  0  0  0  0  0  0  0  0  0  0  0
   59.7362   34.6105   46.3036 H   0  0  0  0  0  0  0  0  0  0  0  0
   58.4731   34.8174   47.5812 H   0  0  0  0  0  0  0  0  0  0  0  0
   59.0680   32.8340   47.2220 N   0  0  0  0  0  0  0  0  0  0  0  0
   59.4560   32.2390   46.4590 H   0  0  0  0  0  0  0  0  0  0  0  0
   58.1740   32.3550   47.4700 H   0  0  0  0  0  0  0  0  0  0  0  0
   59.9630   32.8490   48.3690 C   0  0  0  0  0  0  0  0  0  0  0  0
   61.3570   33.0580   48.1960 C   0  0  0  0  0  0  0  0  0  0  0  0
   61.9520   33.0730   46.9090 C   0  0  0  0  0  0  0  0  0  0  0  0
   61.3195   32.9411   46.0188 H   0  0  0  0  0  0  0  0  0  0  0  0
   63.3240   33.2520   46.7540 C   0  0  0  0  0  0  0  0  0  0  0  0
   63.7642   33.2745   45.7462 H   0  0  0  0  0  0  0  0  0  0  0  0
   64.1370   33.4020   47.8680 C   0  0  0  0  0  0  0  0  0  0  0  0
   65.2222   33.5307   47.7423 H   0  0  0  0  0  0  0  0  0  0  0  0
   63.5820   33.3900   49.1450 C   0  0  0  0  0  0  0  0  0  0  0  0
   64.2397   33.4949   50.0204 H   0  0  0  0  0  0  0  0  0  0  0  0
   62.1840   33.2450   49.3380 C   0  0  0  0  0  0  0  0  0  0  0  0
   61.6290   33.2660   50.6010 N   0  0  0  0  0  0  0  0  0  0  0  0
   62.4140   33.7770   51.7460 C   0  0  0  0  0  0  0  0  0  0  0  0
   61.9358   33.4657   52.6865 H   0  0  0  0  0  0  0  0  0  0  0  0
   63.4349   33.3699   51.7015 H   0  0  0  0  0  0  0  0  0  0  0  0
   62.4550   34.8753   51.7015 H   0  0  0  0  0  0  0  0  0  0  0  0
   60.3400   32.8150   50.7950 C   0  0  0  0  0  0  0  0  0  0  0  0
   59.8500   32.5190   52.0930 C   0  0  0  0  0  0  0  0  0  0  0  0
   60.5191   32.6259   52.9596 H   0  0  0  0  0  0  0  0  0  0  0  0
   58.5390   32.0960   52.2910 C   0  0  0  0  0  0  0  0  0  0  0  0
   58.1767   31.8876   53.3085 H   0  0  0  0  0  0  0  0  0  0  0  0
   57.6890   31.9370   51.2070 C   0  0  0  0  0  0  0  0  0  0  0  0
   56.6502   31.6130   51.3677 H   0  0  0  0  0  0  0  0  0  0  0  0
   58.1460   32.1860   49.9170 C   0  0  0  0  0  0  0  0  0  0  0  0
   57.4647   32.0440   49.0652 H   0  0  0  0  0  0  0  0  0  0  0  0
   59.4730   32.6190   49.6820 C   0  0  0  0  0  0  0  0  0  0  0  0
   58.1270   32.0470   44.4120 C   0  0  0  0  0  0  0  0  0  0  0  0
   59.2182   31.9531   44.3099 H   0  0  0  0  0  0  0  0  0  0  0  0
   57.6296   31.6228   43.5274 H   0  0  0  0  0  0  0  0  0  0  0  0
   57.6870   31.3160   45.6060 N   0  0  0  0  0  0  0  0  0  0  0  0
   56.6410   31.3800   45.6450 H   0  0  0  0  0  0  0  0  0  0  0  0
   58.0430   29.8940   45.5160 C   0  0  0  0  0  0  0  0  0  0  0  0
   57.8144   29.4000   46.4719 H   0  0  0  0  0  0  0  0  0  0  0  0
   59.1172   29.8038   45.2970 H   0  0  0  0  0  0  0  0  0  0  0  0
   57.2470   29.2270   44.4000 C   0  0  0  0  0  0  0  0  0  0  0  0
   56.4736   28.5790   44.8381 H   0  0  0  0  0  0  0  0  0  0  0  0
   56.7697   29.9988   43.7783 H   0  0  0  0  0  0  0  0  0  0  0  0
   57.9234   28.6220   43.7783 H   0  0  0  0  0  0  0  0  0  0  0  0
  1  2  1  0
  2  3  2  0
  3  4  1  0
  3  5  1  0
  5  6  1  0
  5  7  1  0
  5  8  1  0
  8  9  1  0
  8 10  1  0
  8 11  1  0
 11 12  2  0
 12 13  1  0
 13 14  1  0
 13 15  2  0
 15 16  1  0
 15 17  1  0
 17 18  1  0
 17 19  2  0
 19 20  1  0
 19 21  1  0
 21 22  2  0
 22 23  1  0
 23 24  1  0
 23 25  1  0
 23 26  1  0
 22 27  1  0
 27 28  2  0
 28 29  1  0
 28 30  1  0
 30 31  1  0
 30 32  2  0
 32 33  1  0
 32 34  1  0
 34 35  1  0
 34 36  2  0
  2 37  1  0
 37 38  1  0
 37 39  1  0
 37 40  1  0
 40 41  1  0
 40 42  1  0
 42 43  1  0
 42 44  1  0
 42 45  1  0
 45 46  1  0
 45 47  1  0
 45 48  1  0
 36 11  1  0
 21 12  1  0
 36 27  1  0
M  CHG  2   8   1  22   1
M  END
>  <UniqueID>  (23) 
23

>  <SMILES>  (23) 
CCNC/C=C\C[NH2+]c1c2ccccc2[n+](C)c2ccccc12

>  <Energy>  (23) 
71.95983318230307

>  <Genealogy>  (23) 
CCNCC=CC[NH2+]c1c2ccccc2[n+](C)c2ccccc12 (protonated)
CCNC/C=C\C[NH2+]c1c2ccccc2[n+](C)c2ccccc12 (cis-trans isomerization)
CCNC/C=C\C[NH2+]c1c2ccccc2[n+](C)c2ccccc12 (3D coordinates assigned)
CCNC/C=C\C[NH2+]c1c2ccccc2[n+](C)c2ccccc12 (optimized conformer: 71.95983318230307 kcal/mol)

>  <smiles>  (23) 
CCNCC=CCNc1c2ccccc2[n+](C)c2ccccc12

>  <score_type>  (23) 
oracle

>  <origin>  (23) 
adg

>  <m_score__min__energy>  (23) 
-3.8999999999999999

>  <m_primary>  (23) 
energy

$$$$
23:0
     RDKit          3D

 38 39  0  0  0  0  0  0  0  0999 V2000
   57.1200   28.5260   45.2620 C   0  0  0  0  0  0  0  0  0  0  0  0
   55.8820   29.3250   44.8720 C   0  0  0  0  0  0  0  0  0  0  0  0
   56.1760   30.7530   44.8640 N   0  0  0  0  0  0  0  0  0  0  0  0
   57.0180   31.3810   43.8920 C   0  0  0  0  0  0  0  0  0  0  0  0
   56.8060   31.2180   42.6600 O   0  0  0  0  0  0  0  0  0  0  0  0
   58.1480   32.2510   44.3460 C   0  0  0  0  0  0  0  0  0  0  0  0
   57.6300   33.4200   45.0890 N   0  0  0  0  0  0  0  0  0  0  0  0
   58.4540   34.6280   44.9420 C   0  0  0  0  0  0  0  0  0  0  0  0
   59.8420   34.5030   45.5910 C   0  0  0  0  0  0  0  0  0  0  0  0
   59.8960   33.6630   46.8090 N   0  0  0  0  0  0  0  0  0  0  0  0
   61.1700   33.5220   47.5140 C   0  0  0  0  0  0  0  0  0  0  0  0
   62.3960   33.4330   46.8090 C   0  0  0  0  0  0  0  0  0  0  0  0
   63.6110   33.2990   47.4870 C   0  0  0  0  0  0  0  0  0  0  0  0
   63.6380   33.2470   48.8800 C   0  0  0  0  0  0  0  0  0  0  0  0
   65.1650   33.0770   49.7250 Cl  0  0  0  0  0  0  0  0  0  0  0  0
   62.4450   33.3250   49.5980 C   0  0  0  0  0  0  0  0  0  0  0  0
   61.2250   33.4590   48.9290 C   0  0  0  0  0  0  0  0  0  0  0  0
   58.7450   32.8430   47.2470 C   0  0  0  0  0  0  0  0  0  0  0  0
   57.4320   33.1440   46.5160 C   0  0  0  0  0  0  0  0  0  0  0  0
   57.1949   28.4777   46.3584 H   0  0  0  0  0  0  0  0  0  0  0  0
   57.0423   27.5072   44.8545 H   0  0  0  0  0  0  0  0  0  0  0  0
   58.0163   29.0165   44.8545 H   0  0  0  0  0  0  0  0  0  0  0  0
   55.5544   29.0175   43.8680 H   0  0  0  0  0  0  0  0  0  0  0  0
   55.0873   29.1301   45.6071 H   0  0  0  0  0  0  0  0  0  0  0  0
   58.8125   31.6696   45.0020 H   0  0  0  0  0  0  0  0  0  0  0  0
   58.7032   32.6048   43.4648 H   0  0  0  0  0  0  0  0  0  0  0  0
   58.5877   34.8304   43.8691 H   0  0  0  0  0  0  0  0  0  0  0  0
   57.9272   35.4450   45.4568 H   0  0  0  0  0  0  0  0  0  0  0  0
   60.5271   34.0690   44.8479 H   0  0  0  0  0  0  0  0  0  0  0  0
   60.1228   35.5182   45.9081 H   0  0  0  0  0  0  0  0  0  0  0  0
   62.3915   33.4700   45.7096 H   0  0  0  0  0  0  0  0  0  0  0  0
   64.5506   33.2342   46.9187 H   0  0  0  0  0  0  0  0  0  0  0  0
   62.4642   33.2808   50.6969 H   0  0  0  0  0  0  0  0  0  0  0  0
   60.2927   33.5165   49.5099 H   0  0  0  0  0  0  0  0  0  0  0  0
   58.9950   31.7847   47.0814 H   0  0  0  0  0  0  0  0  0  0  0  0
   58.5746   33.0856   48.3063 H   0  0  0  0  0  0  0  0  0  0  0  0
   56.7654   32.2749   46.6173 H   0  0  0  0  0  0  0  0  0  0  0  0
   56.9965   34.0454   46.9719 H   0  0  0  0  0  0  0  0  0  0  0  0
  1  2  1  0
  2  3  1  0
  3  4  1  0
  4  5  2  0
  4  6  1  0
  6  7  1  0
  7  8  1  0
  8  9  1  0
  9 10  1  0
 10 11  1  0
 11 12  2  0
 12 13  1  0
 13 14  2  0
 14 15  1  0
 14 16  1  0
 16 17  2  0
 10 18  1  0
 18 19  1  0
 19  7  1  0
 17 11  1  0
  1 20  1  0
  1 21  1  0
  1 22  1  0
  2 23  1  0
  2 24  1  0
  6 25  1  0
  6 26  1  0
  8 27  1  0
  8 28  1  0
  9 29  1  0
  9 30  1  0
 12 31  1  0
 13 32  1  0
 16 33  1  0
 17 34  1  0
 18 35  1  0
 18 36  1  0
 19 37  1  0
 19 38  1  0
M  CHG  1   3  -1
M  END
>  <UniqueID>  (24) 
24

>  <SMILES>  (24) 
CC[N-]C(=O)CN1CCN(c2ccc(Cl)cc2)CC1

>  <Energy>  (24) 
42.7481384660216

>  <Genealogy>  (24) 
CC[N-]C(=O)CN1CCN(c2ccc(Cl)cc2)CC1 (protonated)
CC[N-]C(=O)CN1CCN(c2ccc(Cl)cc2)CC1 (3D coordinates assigned)
CC[N-]C(=O)CN1CCN(c2ccc(Cl)cc2)CC1 (nonaromatic ring conformer: 42.7481384660216 kcal/mol)

>  <smiles>  (24) 
CCNC(=O)CN1CCN(c2ccc(Cl)cc2)CC1

>  <score_type>  (24) 
oracle

>  <origin>  (24) 
adg

>  <m_score__min__energy>  (24) 
-8.3599999999999994

>  <m_primary>  (24) 
energy

$$$$
24:0
     RDKit          3D

 73 75  0  0  0  0  0  0  0  0999 V2000
   63.1730   32.4560   47.1660 C   0  0  0  0  0  0  0  0  0  0  0  0
   62.2990   31.2930   47.6270 C   0  0  0  0  0  0  0  0  0  0  0  0
   62.2870   31.2180   49.0960 N   0  0  0  0  0  0  0  0  0  0  0  0
   63.0480   32.3080   49.7300 C   0  0  0  0  0  0  0  0  0  0  0  0
   62.1300   33.3950   50.3190 C   0  0  0  0  0  0  0  0  0  0  0  0
   60.7720   33.0940   50.0460 O   0  0  0  0  0  0  0  0  0  0  0  0
   59.9220   33.7730   50.9480 C   0  0  0  0  0  0  0  0  0  0  0  0
   58.5760   33.0440   51.0130 C   0  0  0  0  0  0  0  0  0  0  0  0
   58.1830   32.3800   49.6760 C   0  0  0  0  0  0  0  0  0  0  0  0
   59.1800   31.4120   49.1780 N   0  0  0  0  0  0  0  0  0  0  0  0
   59.2280   31.3730   47.7200 C   0  0  0  0  0  0  0  0  0  0  0  0
   59.2710   32.5780   46.9830 C   0  0  0  0  0  0  0  0  0  0  0  0
   59.9550   33.7150   47.4670 C   0  0  0  0  0  0  0  0  0  0  0  0
   59.9840   34.8980   46.7310 C   0  0  0  0  0  0  0  0  0  0  0  0
   59.3600   34.9620   45.4900 C   0  0  0  0  0  0  0  0  0  0  0  0
   58.7000   33.8460   44.9800 C   0  0  0  0  0  0  0  0  0  0  0  0
   58.6350   32.6350   45.7160 C   0  0  0  0  0  0  0  0  0  0  0  0
   57.9720   31.5250   45.2310 N   0  0  0  0  0  0  0  0  0  0  0  0
   57.0160   31.6640   44.1090 C   0  0  0  0  0  0  0  0  0  0  0  0
   58.2300   30.2820   45.7800 C   0  0  0  0  0  0  0  0  0  0  0  0
   57.8010   29.0930   45.1410 C   0  0  0  0  0  0  0  0  0  0  0  0
   58.0500   27.8480   45.7010 C   0  0  0  0  0  0  0  0  0  0  0  0
   58.8070   27.7390   46.8580 C   0  0  0  0  0  0  0  0  0  0  0  0
   59.3070   28.8830   47.4990 C   0  0  0  0  0  0  0  0  0  0  0  0
   60.3440   28.7260   48.4870 N   0  0  0  0  0  0  0  0  0  0  0  0
   60.7650   27.4410   49.0490 C   0  0  0  0  0  0  0  0  0  0  0  0
   61.0490   27.5660   50.5510 C   0  0  0  0  0  0  0  0  0  0  0  0
   61.5980   28.9500   50.9270 C   0  0  0  0  0  0  0  0  0  0  0  0
   60.5350   29.9740   51.0370 N   0  0  0  0  0  0  0  0  0  0  0  0
   60.8570   30.9720   52.0740 C   0  0  0  0  0  0  0  0  0  0  0  0
   59.2560   29.3210   51.3660 C   0  0  0  0  0  0  0  0  0  0  0  0
   58.9440   30.1750   47.0090 C   0  0  0  0  0  0  0  0  0  0  0  0
   63.5712   32.9859   48.0439 H   0  0  0  0  0  0  0  0  0  0  0  0
   64.0069   32.0706   46.5609 H   0  0  0  0  0  0  0  0  0  0  0  0
   62.5709   33.1498   46.5609 H   0  0  0  0  0  0  0  0  0  0  0  0
   61.2721   31.4433   47.2624 H   0  0  0  0  0  0  0  0  0  0  0  0
   62.7073   30.3549   47.2229 H   0  0  0  0  0  0  0  0  0  0  0  0
   61.2960   31.2350   49.4350 H   0  0  0  0  0  0  0  0  0  0  0  0
   63.6620   31.8866   50.5396 H   0  0  0  0  0  0  0  0  0  0  0  0
   63.6723   32.7777   48.9556 H   0  0  0  0  0  0  0  0  0  0  0  0
   62.2788   33.4445   51.4078 H   0  0  0  0  0  0  0  0  0  0  0  0
   62.3811   34.3624   49.8596 H   0  0  0  0  0  0  0  0  0  0  0  0
   60.3816   33.7878   51.9473 H   0  0  0  0  0  0  0  0  0  0  0  0
   59.7676   34.8068   50.6053 H   0  0  0  0  0  0  0  0  0  0  0  0
   58.6369   32.2644   51.7867 H   0  0  0  0  0  0  0  0  0  0  0  0
   57.8066   33.7950   51.2454 H   0  0  0  0  0  0  0  0  0  0  0  0
   57.2280   31.8529   49.8177 H   0  0  0  0  0  0  0  0  0  0  0  0
   58.1126   33.1827   48.9272 H   0  0  0  0  0  0  0  0  0  0  0  0
   58.9700   30.4760   49.5740 H   0  0  0  0  0  0  0  0  0  0  0  0
   60.0940   31.6620   49.6060 H   0  0  0  0  0  0  0  0  0  0  0  0
   60.4713   33.6661   48.4371 H   0  0  0  0  0  0  0  0  0  0  0  0
   60.5011   35.7821   47.1322 H   0  0  0  0  0  0  0  0  0  0  0  0
   59.3875   35.8960   44.9095 H   0  0  0  0  0  0  0  0  0  0  0  0
   58.2218   33.9048   43.9911 H   0  0  0  0  0  0  0  0  0  0  0  0
   56.0015   31.8115   44.5078 H   0  0  0  0  0  0  0  0  0  0  0  0
   57.2973   32.5307   43.4928 H   0  0  0  0  0  0  0  0  0  0  0  0
   57.0389   30.7531   43.4928 H   0  0  0  0  0  0  0  0  0  0  0  0
   57.2613   29.1576   44.1847 H   0  0  0  0  0  0  0  0  0  0  0  0
   57.6449   26.9429   45.2248 H   0  0  0  0  0  0  0  0  0  0  0  0
   59.0179   26.7445   47.2780 H   0  0  0  0  0  0  0  0  0  0  0  0
   60.8750   29.5770   48.7810 H   0  0  0  0  0  0  0  0  0  0  0  0
   59.9658   26.7012   48.8941 H   0  0  0  0  0  0  0  0  0  0  0  0
   61.6879   27.1220   48.5427 H   0  0  0  0  0  0  0  0  0  0  0  0
   60.1134   27.3945   51.1034 H   0  0  0  0  0  0  0  0  0  0  0  0
   61.8126   26.8186   50.8125 H   0  0  0  0  0  0  0  0  0  0  0  0
   62.1143   28.8729   51.8952 H   0  0  0  0  0  0  0  0  0  0  0  0
   62.2825   29.2655   50.1258 H   0  0  0  0  0  0  0  0  0  0  0  0
   60.7131   30.5261   53.0692 H   0  0  0  0  0  0  0  0  0  0  0  0
   61.9038   31.2913   51.9631 H   0  0  0  0  0  0  0  0  0  0  0  0
   60.1943   31.8429   51.9631 H   0  0  0  0  0  0  0  0  0  0  0  0
   59.1440   29.2638   52.4588 H   0  0  0  0  0  0  0  0  0  0  0  0
   58.4261   29.9057   50.9424 H   0  0  0  0  0  0  0  0  0  0  0  0
   59.2429   28.3059   50.9424 H   0  0  0  0  0  0  0  0  0  0  0  0
  1  2  1  0
  2  3  1  0
  3  4  1  0
  4  5  1  0
  5  6  1  0
  6  7  1  0
  7  8  1  0
  8  9  1  0
  9 10  1  0
 10 11  1  0
 11 12  2  0
 12 13  1  0
 13 14  2  0
 14 15  1  0
 15 16  2  0
 16 17  1  0
 17 18  2  0
 18 19  1  0
 18 20  1  0
 20 21  2  0
 21 22  1  0
 22 23  2  0
 23 24  1  0
 24 25  1  0
 25 26  1  0
 26 27  1  0
 27 28  1  0
 28 29  1  0
 29 30  1  0
 29 31  1  0
 24 32  2  0
 32 11  1  0
 17 12  1  0
 32 20  1  0
  1 33  1  0
  1 34  1  0
  1 35  1  0
  2 36  1  0
  2 37  1  0
  3 38  1  0
  4 39  1  0
  4 40  1  0
  5 41  1  0
  5 42  1  0
  7 43  1  0
  7 44  1  0
  8 45  1  0
  8 46  1  0
  9 47  1  0
  9 48  1  0
 10 49  1  0
 10 50  1  0
 13 51  1  0
 14 52  1  0
 15 53  1  0
 16 54  1  0
 19 55  1  0
 19 56  1  0
 19 57  1  0
 21 58  1  0
 22 59  1  0
 23 60  1  0
 25 61  1  0
 26 62  1  0
 26 63  1  0
 27 64  1  0
 27 65  1  0
 28 66  1  0
 28 67  1  0
 30 68  1  0
 30 69  1  0
 30 70  1  0
 31 71  1  0
 31 72  1  0
 31 73  1  0
M  CHG  2  10   1  18   1
M  END
>  <UniqueID>  (25) 
25

>  <SMILES>  (25) 
CCNCCOCCC[NH2+]c1c2ccccc2[n+](C)c2cccc(NCCCN(C)C)c12

>  <Energy>  (25) 
109.04511012797047

>  <Genealogy>  (25) 
CCNCCOCCC[NH2+]c1c2ccccc2[n+](C)c2cccc(NCCCN(C)C)c12 (protonated)
CCNCCOCCC[NH2+]c1c2ccccc2[n+](C)c2cccc(NCCCN(C)C)c12 (3D coordinates assigned)
CCNCCOCCC[NH2+]c1c2ccccc2[n+](C)c2cccc(NCCCN(C)C)c12 (optimized conformer: 109.04511012797047 kcal/mol)

>  <smiles>  (25) 
CCNCCOCCCNc1c2ccccc2[n+](C)c2cccc(NCCCN(C)C)c12

>  <score_type>  (25) 
oracle

>  <origin>  (25) 
adg

>  <m_score__min__energy>  (25) 
-4.0700000000000003

>  <m_primary>  (25) 
energy

$$$$
25:0
     RDKit          3D

 63 66  0  0  0  0  0  0  0  0999 V2000
   57.0830   31.4580   51.6310 C   0  0  0  0  0  0  0  0  0  0  0  0
   58.2270   32.4540   51.4900 C   0  0  0  0  0  0  0  0  0  0  0  0
   59.1160   32.0900   50.3580 N   0  0  0  0  0  0  0  0  0  0  0  0
   58.9720   33.0880   49.2670 C   0  0  0  0  0  0  0  0  0  0  0  0
   59.9910   34.2120   49.4330 C   0  0  0  0  0  0  0  0  0  0  0  0
   58.7890   30.7260   49.8700 C   0  0  0  0  0  0  0  0  0  0  0  0
   60.0470   29.8570   49.6430 C   0  0  0  0  0  0  0  0  0  0  0  0
   60.2240   29.4300   48.2380 N   0  0  0  0  0  0  0  0  0  0  0  0
   60.0690   30.5270   47.2890 C   0  0  0  0  0  0  0  0  0  0  0  0
   61.0300   31.5710   47.1860 C   0  0  0  0  0  0  0  0  0  0  0  0
   62.3440   31.4520   47.7070 C   0  0  0  0  0  0  0  0  0  0  0  0
   63.2590   32.4960   47.6000 C   0  0  0  0  0  0  0  0  0  0  0  0
   62.9070   33.6690   46.9510 C   0  0  0  0  0  0  0  0  0  0  0  0
   61.6410   33.8020   46.3900 C   0  0  0  0  0  0  0  0  0  0  0  0
   60.6790   32.7660   46.4930 C   0  0  0  0  0  0  0  0  0  0  0  0
   59.4360   32.8890   45.9120 N   0  0  0  0  0  0  0  0  0  0  0  0
   58.9340   34.2190   45.5010 C   0  0  0  0  0  0  0  0  0  0  0  0
   58.6670   31.7650   45.7010 C   0  0  0  0  0  0  0  0  0  0  0  0
   57.5790   31.7760   44.7960 C   0  0  0  0  0  0  0  0  0  0  0  0
   56.7910   30.6440   44.6010 C   0  0  0  0  0  0  0  0  0  0  0  0
   57.0700   29.4650   45.2810 C   0  0  0  0  0  0  0  0  0  0  0  0
   56.2360   28.3190   45.0490 N   0  0  0  0  0  0  0  0  0  0  0  0
   56.2580   27.0830   45.7780 C   0  0  0  0  0  0  0  0  0  0  0  0
   55.1990   26.6990   46.3410 O   0  0  0  0  0  0  0  0  0  0  0  0
   57.4640   26.2250   45.8460 C   0  0  0  0  0  0  0  0  0  0  0  0
   58.5980   26.6590   46.5550 C   0  0  0  0  0  0  0  0  0  0  0  0
   59.7450   25.8610   46.6110 C   0  0  0  0  0  0  0  0  0  0  0  0
   59.7680   24.6200   45.9690 C   0  0  0  0  0  0  0  0  0  0  0  0
   58.6410   24.1720   45.2770 C   0  0  0  0  0  0  0  0  0  0  0  0
   57.4910   24.9660   45.2190 C   0  0  0  0  0  0  0  0  0  0  0  0
   58.1350   29.4330   46.1930 C   0  0  0  0  0  0  0  0  0  0  0  0
   58.9560   30.5660   46.4050 C   0  0  0  0  0  0  0  0  0  0  0  0
   56.8800   31.2813   52.6976 H   0  0  0  0  0  0  0  0  0  0  0  0
   56.1817   31.8641   51.1486 H   0  0  0  0  0  0  0  0  0  0  0  0
   57.3612   30.5094   51.1486 H   0  0  0  0  0  0  0  0  0  0  0  0
   57.8107   33.4565   51.3119 H   0  0  0  0  0  0  0  0  0  0  0  0
   58.8186   32.4402   52.4173 H   0  0  0  0  0  0  0  0  0  0  0  0
   59.1347   32.5919   48.2988 H   0  0  0  0  0  0  0  0  0  0  0  0
   57.9597   33.5165   49.3081 H   0  0  0  0  0  0  0  0  0  0  0  0
   60.1600   34.3985   50.5038 H   0  0  0  0  0  0  0  0  0  0  0  0
   60.9391   33.9206   48.9574 H   0  0  0  0  0  0  0  0  0  0  0  0
   59.6083   35.1271   48.9574 H   0  0  0  0  0  0  0  0  0  0  0  0
   58.1481   30.2302   50.6139 H   0  0  0  0  0  0  0  0  0  0  0  0
   58.2792   30.8327   48.9011 H   0  0  0  0  0  0  0  0  0  0  0  0
   60.9308   30.4386   49.9440 H   0  0  0  0  0  0  0  0  0  0  0  0
   59.9228   28.9448   50.2450 H   0  0  0  0  0  0  0  0  0  0  0  0
   59.5320   28.6800   48.0090 H   0  0  0  0  0  0  0  0  0  0  0  0
   61.1440   28.9520   48.1860 H   0  0  0  0  0  0  0  0  0  0  0  0
   62.6454   30.5183   48.2044 H   0  0  0  0  0  0  0  0  0  0  0  0
   64.2649   32.3895   48.0321 H   0  0  0  0  0  0  0  0  0  0  0  0
   63.6293   34.4955   46.8795 H   0  0  0  0  0  0  0  0  0  0  0  0
   61.3816   34.7284   45.8565 H   0  0  0  0  0  0  0  0  0  0  0  0
   58.7079   34.8180   46.3955 H   0  0  0  0  0  0  0  0  0  0  0  0
   59.7008   34.7310   44.9010 H   0  0  0  0  0  0  0  0  0  0  0  0
   58.0202   34.0966   44.9010 H   0  0  0  0  0  0  0  0  0  0  0  0
   57.3515   32.6952   44.2364 H   0  0  0  0  0  0  0  0  0  0  0  0
   55.9414   30.6838   43.9034 H   0  0  0  0  0  0  0  0  0  0  0  0
   58.5828   27.6317   47.0685 H   0  0  0  0  0  0  0  0  0  0  0  0
   60.6308   26.2108   47.1614 H   0  0  0  0  0  0  0  0  0  0  0  0
   60.6733   23.9965   46.0088 H   0  0  0  0  0  0  0  0  0  0  0  0
   58.6576   23.1926   44.7764 H   0  0  0  0  0  0  0  0  0  0  0  0
   56.6029   24.6040   44.6802 H   0  0  0  0  0  0  0  0  0  0  0  0
   58.3361   28.5088   46.7547 H   0  0  0  0  0  0  0  0  0  0  0  0
  1  2  1  0
  2  3  1  0
  3  4  1  0
  4  5  1  0
  3  6  1  0
  6  7  1  0
  7  8  1  0
  8  9  1  0
  9 10  2  0
 10 11  1  0
 11 12  2  0
 12 13  1  0
 13 14  2  0
 14 15  1  0
 15 16  2  0
 16 17  1  0
 16 18  1  0
 18 19  2  0
 19 20  1  0
 20 21  2  0
 21 22  1  0
 22 23  1  0
 23 24  2  0
 23 25  1  0
 25 26  2  0
 26 27  1  0
 27 28  2  0
 28 29  1  0
 29 30  2  0
 21 31  1  0
 31 32  2  0
 32  9  1  0
 15 10  1  0
 32 18  1  0
 30 25  1  0
  1 33  1  0
  1 34  1  0
  1 35  1  0
  2 36  1  0
  2 37  1  0
  4 38  1  0
  4 39  1  0
  5 40  1  0
  5 41  1  0
  5 42  1  0
  6 43  1  0
  6 44  1  0
  7 45  1  0
  7 46  1  0
  8 47  1  0
  8 48  1  0
 11 49  1  0
 12 50  1  0
 13 51  1  0
 14 52  1  0
 17 53  1  0
 17 54  1  0
 17 55  1  0
 19 56  1  0
 20 57  1  0
 26 58  1  0
 27 59  1  0
 28 60  1  0
 29 61  1  0
 30 62  1  0
 31 63  1  0
M  CHG  3   8   1  16   1  22  -1
M  END
>  <UniqueID>  (26) 
26

>  <SMILES>  (26) 
CCN(CC)CC[NH2+]c1c2ccccc2[n+](C)c2ccc([N-]C(=O)c3ccccc3)cc12

>  <Energy>  (26) 
100.31136889500235

>  <Genealogy>  (26) 
CCN(CC)CC[NH2+]c1c2ccccc2[n+](C)c2ccc([N-]C(=O)c3ccccc3)cc12 (protonated)
CCN(CC)CC[NH2+]c1c2ccccc2[n+](C)c2ccc([N-]C(=O)c3ccccc3)cc12 (3D coordinates assigned)
CCN(CC)CC[NH2+]c1c2ccccc2[n+](C)c2ccc([N-]C(=O)c3ccccc3)cc12 (optimized conformer: 100.31136889500235 kcal/mol)

>  <smiles>  (26) 
CCN(CC)CCNc1c2ccccc2[n+](C)c2ccc(NC(=O)c3ccccc3)cc12

>  <score_type>  (26) 
oracle

>  <origin>  (26) 
adg

>  <m_score__min__energy>  (26) 
-7.2599999999999998

>  <m_primary>  (26) 
energy

$$$$
26:0
     RDKit          3D

 69 71  0  0  0  0  0  0  0  0999 V2000
   63.2040   33.8370   46.3940 C   0  0  0  0  0  0  0  0  0  0  0  0
   63.6850   32.6170   47.1660 C   0  0  0  0  0  0  0  0  0  0  0  0
   63.0850   32.6120   48.4470 O   0  0  0  0  0  0  0  0  0  0  0  0
   63.9930   32.1320   49.4200 C   0  0  0  0  0  0  0  0  0  0  0  0
   63.3110   31.0860   50.3070 C   0  0  0  0  0  0  0  0  0  0  0  0
   61.9270   31.0030   50.0180 O   0  0  0  0  0  0  0  0  0  0  0  0
   61.4980   29.6550   50.0170 C   0  0  0  0  0  0  0  0  0  0  0  0
   60.7640   29.3540   48.7160 C   0  0  0  0  0  0  0  0  0  0  0  0
   61.0060   30.3880   47.7110 N   0  0  0  0  0  0  0  0  0  0  0  0
   59.9210   30.8960   46.9170 C   0  0  0  0  0  0  0  0  0  0  0  0
   59.1920   30.0050   46.1100 C   0  0  0  0  0  0  0  0  0  0  0  0
   59.2200   28.6170   46.3530 C   0  0  0  0  0  0  0  0  0  0  0  0
   58.4810   27.7420   45.5600 C   0  0  0  0  0  0  0  0  0  0  0  0
   57.6920   28.2350   44.5270 C   0  0  0  0  0  0  0  0  0  0  0  0
   57.6600   29.6020   44.2610 C   0  0  0  0  0  0  0  0  0  0  0  0
   58.4370   30.5110   45.0250 C   0  0  0  0  0  0  0  0  0  0  0  0
   58.4910   31.8560   44.7230 N   0  0  0  0  0  0  0  0  0  0  0  0
   58.0340   32.3350   43.3990 C   0  0  0  0  0  0  0  0  0  0  0  0
   58.9790   32.7530   45.6570 C   0  0  0  0  0  0  0  0  0  0  0  0
   58.7830   34.1460   45.4960 C   0  0  0  0  0  0  0  0  0  0  0  0
   59.2700   35.0550   46.4250 C   0  0  0  0  0  0  0  0  0  0  0  0
   59.8960   34.6070   47.5760 C   0  0  0  0  0  0  0  0  0  0  0  0
   60.0680   33.2360   47.8230 C   0  0  0  0  0  0  0  0  0  0  0  0
   60.4800   32.8530   49.1590 N   0  0  0  0  0  0  0  0  0  0  0  0
   60.0460   33.8420   50.1600 C   0  0  0  0  0  0  0  0  0  0  0  0
   60.3440   33.3490   51.5860 C   0  0  0  0  0  0  0  0  0  0  0  0
   59.7910   31.9370   51.8350 C   0  0  0  0  0  0  0  0  0  0  0  0
   58.5840   31.6940   51.0130 N   0  0  0  0  0  0  0  0  0  0  0  0
   58.3650   30.2490   50.8290 C   0  0  0  0  0  0  0  0  0  0  0  0
   57.3900   32.2960   51.6350 C   0  0  0  0  0  0  0  0  0  0  0  0
   59.6750   32.2870   46.8140 C   0  0  0  0  0  0  0  0  0  0  0  0
   62.8951   34.6204   47.1017 H   0  0  0  0  0  0  0  0  0  0  0  0
   64.0201   34.2157   45.7611 H   0  0  0  0  0  0  0  0  0  0  0  0
   62.3490   33.5568   45.7611 H   0  0  0  0  0  0  0  0  0  0  0  0
   63.4020   31.7029   46.6234 H   0  0  0  0  0  0  0  0  0  0  0  0
   64.7795   32.6530   47.2702 H   0  0  0  0  0  0  0  0  0  0  0  0
   64.8572   31.6741   48.9165 H   0  0  0  0  0  0  0  0  0  0  0  0
   64.3264   32.9725   50.0464 H   0  0  0  0  0  0  0  0  0  0  0  0
   63.7755   30.1049   50.1290 H   0  0  0  0  0  0  0  0  0  0  0  0
   63.4331   31.3839   51.3588 H   0  0  0  0  0  0  0  0  0  0  0  0
   62.3716   28.9926   50.1063 H   0  0  0  0  0  0  0  0  0  0  0  0
   60.8201   29.4864   50.8667 H   0  0  0  0  0  0  0  0  0  0  0  0
   61.1128   28.3869   48.3246 H   0  0  0  0  0  0  0  0  0  0  0  0
   59.6850   29.3254   48.9279 H   0  0  0  0  0  0  0  0  0  0  0  0
   61.8910   30.9430   47.7700 H   0  0  0  0  0  0  0  0  0  0  0  0
   59.8315   28.2207   47.1770 H   0  0  0  0  0  0  0  0  0  0  0  0
   58.5218   26.6596   45.7514 H   0  0  0  0  0  0  0  0  0  0  0  0
   57.0912   27.5436   43.9179 H   0  0  0  0  0  0  0  0  0  0  0  0
   57.0240   29.9819   43.4479 H   0  0  0  0  0  0  0  0  0  0  0  0
   57.2805   33.1248   43.5349 H   0  0  0  0  0  0  0  0  0  0  0  0
   58.8908   32.7381   42.8391 H   0  0  0  0  0  0  0  0  0  0  0  0
   57.5911   31.4981   42.8391 H   0  0  0  0  0  0  0  0  0  0  0  0
   58.2339   34.5151   44.6172 H   0  0  0  0  0  0  0  0  0  0  0  0
   59.1583   36.1346   46.2463 H   0  0  0  0  0  0  0  0  0  0  0  0
   60.2651   35.3386   48.3099 H   0  0  0  0  0  0  0  0  0  0  0  0
   61.5030   32.6620   49.2090 H   0  0  0  0  0  0  0  0  0  0  0  0
   60.0320   31.9360   49.3960 H   0  0  0  0  0  0  0  0  0  0  0  0
   60.5808   34.7876   49.9870 H   0  0  0  0  0  0  0  0  0  0  0  0
   58.9606   33.9896   50.0596 H   0  0  0  0  0  0  0  0  0  0  0  0
   61.4336   33.3352   51.7364 H   0  0  0  0  0  0  0  0  0  0  0  0
   59.8532   34.0352   52.2919 H   0  0  0  0  0  0  0  0  0  0  0  0
   60.5611   31.1965   51.5731 H   0  0  0  0  0  0  0  0  0  0  0  0
   59.5191   31.8464   52.8970 H   0  0  0  0  0  0  0  0  0  0  0  0
   58.2911   29.7612   51.8122 H   0  0  0  0  0  0  0  0  0  0  0  0
   57.4322   30.0879   50.2687 H   0  0  0  0  0  0  0  0  0  0  0  0
   59.2082   29.8188   50.2687 H   0  0  0  0  0  0  0  0  0  0  0  0
   57.4837   32.2488   52.7300 H   0  0  0  0  0  0  0  0  0  0  0  0
   57.3022   33.3461   51.3195 H   0  0  0  0  0  0  0  0  0  0  0  0
   56.4935   31.7422   51.3195 H   0  0  0  0  0  0  0  0  0  0  0  0
  1  2  1  0
  2  3  1  0
  3  4  1  0
  4  5  1  0
  5  6  1  0
  6  7  1  0
  7  8  1  0
  8  9  1  0
  9 10  1  0
 10 11  2  0
 11 12  1  0
 12 13  2  0
 13 14  1  0
 14 15  2  0
 15 16  1  0
 16 17  2  0
 17 18  1  0
 17 19  1  0
 19 20  2  0
 20 21  1  0
 21 22  2  0
 22 23  1  0
 23 24  1  0
 24 25  1  0
 25 26  1  0
 26 27  1  0
 27 28  1  0
 28 29  1  0
 28 30  1  0
 23 31  2  0
 31 10  1  0
 16 11  1  0
 31 19  1  0
  1 32  1  0
  1 33  1  0
  1 34  1  0
  2 35  1  0
  2 36  1  0
  4 37  1  0
  4 38  1  0
  5 39  1  0
  5 40  1  0
  7 41  1  0
  7 42  1  0
  8 43  1  0
  8 44  1  0
  9 45  1  0
 12 46  1  0
 13 47  1  0
 14 48  1  0
 15 49  1  0
 18 50  1  0
 18 51  1  0
 18 52  1  0
 20 53  1  0
 21 54  1  0
 22 55  1  0
 24 56  1  0
 24 57  1  0
 25 58  1  0
 25 59  1  0
 26 60  1  0
 26 61  1  0
 27 62  1  0
 27 63  1  0
 29 64  1  0
 29 65  1  0
 29 66  1  0
 30 67  1  0
 30 68  1  0
 30 69  1  0
M  CHG  2  17   1  24   1
M  END
>  <UniqueID>  (27) 
27

>  <SMILES>  (27) 
CCOCCOCCNc1c2ccccc2[n+](C)c2cccc([NH2+]CCCN(C)C)c12

>  <Energy>  (27) 
100.55210377026066

>  <Genealogy>  (27) 
CCOCCOCCNc1c2ccccc2[n+](C)c2cccc([NH2+]CCCN(C)C)c12 (protonated)
CCOCCOCCNc1c2ccccc2[n+](C)c2cccc([NH2+]CCCN(C)C)c12 (3D coordinates assigned)
CCOCCOCCNc1c2ccccc2[n+](C)c2cccc([NH2+]CCCN(C)C)c12 (optimized conformer: 100.55210377026066 kcal/mol)

>  <smiles>  (27) 
CCOCCOCCNc1c2ccccc2[n+](C)c2cccc(NCCCN(C)C)c12

>  <score_type>  (27) 
oracle

>  <origin>  (27) 
adg

>  <m_score__min__energy>  (27) 
-3.4100000000000001

>  <m_primary>  (27) 
energy

$$$$
27:0
     RDKit          3D

 71 74  0  0  0  0  0  0  0  0999 V2000
   64.8630   32.8590   49.7230 C   0  0  0  0  0  0  0  0  0  0  0  0
   63.6880   31.8740   49.7270 C   0  0  0  0  0  0  0  0  0  0  0  0
   62.5240   32.3820   48.9510 N   0  0  0  0  0  0  0  0  0  0  0  0
   62.7420   32.1640   47.4930 C   0  0  0  0  0  0  0  0  0  0  0  0
   63.0880   33.4640   46.7570 C   0  0  0  0  0  0  0  0  0  0  0  0
   62.3020   33.8310   49.2180 C   0  0  0  0  0  0  0  0  0  0  0  0
   61.0700   34.1100   50.1050 C   0  0  0  0  0  0  0  0  0  0  0  0
   60.5330   32.8920   50.5820 O   0  0  0  0  0  0  0  0  0  0  0  0
   59.3390   33.1190   51.3080 C   0  0  0  0  0  0  0  0  0  0  0  0
   58.8570   31.8130   51.9480 C   0  0  0  0  0  0  0  0  0  0  0  0
   57.8270   31.0850   51.0730 C   0  0  0  0  0  0  0  0  0  0  0  0
   58.1780   29.6660   50.8980 N   0  0  0  0  0  0  0  0  0  0  0  0
   59.6280   29.4840   50.7580 C   0  0  0  0  0  0  0  0  0  0  0  0
   59.9580   28.9990   49.3450 C   0  0  0  0  0  0  0  0  0  0  0  0
   58.7330   28.7700   48.5800 N   0  0  0  0  0  0  0  0  0  0  0  0
   58.5520   29.3040   47.2610 C   0  0  0  0  0  0  0  0  0  0  0  0
   58.3500   28.4650   46.1490 C   0  0  0  0  0  0  0  0  0  0  0  0
   58.3390   27.0630   46.2950 C   0  0  0  0  0  0  0  0  0  0  0  0
   58.1460   26.2370   45.1900 C   0  0  0  0  0  0  0  0  0  0  0  0
   57.9710   26.7890   43.9250 C   0  0  0  0  0  0  0  0  0  0  0  0
   57.9650   28.1750   43.7560 C   0  0  0  0  0  0  0  0  0  0  0  0
   58.1270   29.0450   44.8610 C   0  0  0  0  0  0  0  0  0  0  0  0
   58.0760   30.4230   44.7140 N   0  0  0  0  0  0  0  0  0  0  0  0
   57.4570   31.0110   43.5110 C   0  0  0  0  0  0  0  0  0  0  0  0
   58.4780   31.2220   45.7650 C   0  0  0  0  0  0  0  0  0  0  0  0
   58.6410   30.6720   47.0350 C   0  0  0  0  0  0  0  0  0  0  0  0
   59.0200   31.8650   48.1640 S   0  0  0  0  0  0  0  0  0  0  0  0
   59.0280   33.1090   47.0400 C   0  0  0  0  0  0  0  0  0  0  0  0
   59.3470   34.4440   47.2830 C   0  0  0  0  0  0  0  0  0  0  0  0
   59.4200   35.3200   46.1950 C   0  0  0  0  0  0  0  0  0  0  0  0
   59.2100   34.8450   44.8900 C   0  0  0  0  0  0  0  0  0  0  0  0
   58.8980   33.4950   44.6630 C   0  0  0  0  0  0  0  0  0  0  0  0
   58.7540   32.6210   45.7590 C   0  0  0  0  0  0  0  0  0  0  0  0
   65.1461   33.0963   50.7591 H   0  0  0  0  0  0  0  0  0  0  0  0
   65.7199   32.4054   49.2035 H   0  0  0  0  0  0  0  0  0  0  0  0
   64.5660   33.7820   49.2035 H   0  0  0  0  0  0  0  0  0  0  0  0
   64.0212   30.9238   49.2841 H   0  0  0  0  0  0  0  0  0  0  0  0
   63.3649   31.7390   50.7698 H   0  0  0  0  0  0  0  0  0  0  0  0
   61.6680   31.8530   49.2450 H   0  0  0  0  0  0  0  0  0  0  0  0
   63.5698   31.4516   47.3614 H   0  0  0  0  0  0  0  0  0  0  0  0
   61.8059   31.7741   47.0667 H   0  0  0  0  0  0  0  0  0  0  0  0
   63.2988   34.2559   47.4908 H   0  0  0  0  0  0  0  0  0  0  0  0
   63.9747   33.3033   46.1261 H   0  0  0  0  0  0  0  0  0  0  0  0
   62.2388   33.7653   46.1261 H   0  0  0  0  0  0  0  0  0  0  0  0
   63.1930   34.2329   49.7226 H   0  0  0  0  0  0  0  0  0  0  0  0
   62.1193   34.3154   48.2474 H   0  0  0  0  0  0  0  0  0  0  0  0
   61.3697   34.7354   50.9589 H   0  0  0  0  0  0  0  0  0  0  0  0
   60.3070   34.6331   49.5098 H   0  0  0  0  0  0  0  0  0  0  0  0
   59.5280   33.8626   52.0962 H   0  0  0  0  0  0  0  0  0  0  0  0
   58.5646   33.4912   50.6211 H   0  0  0  0  0  0  0  0  0  0  0  0
   59.7231   31.1521   52.1001 H   0  0  0  0  0  0  0  0  0  0  0  0
   58.3724   32.0634   52.9032 H   0  0  0  0  0  0  0  0  0  0  0  0
   56.8390   31.1529   51.5517 H   0  0  0  0  0  0  0  0  0  0  0  0
   57.8145   31.5632   50.0825 H   0  0  0  0  0  0  0  0  0  0  0  0
   57.8800   29.1570   51.7650 H   0  0  0  0  0  0  0  0  0  0  0  0
   60.1354   30.4424   50.9424 H   0  0  0  0  0  0  0  0  0  0  0  0
   59.9710   28.7353   51.4872 H   0  0  0  0  0  0  0  0  0  0  0  0
   60.5661   29.7602   48.8343 H   0  0  0  0  0  0  0  0  0  0  0  0
   60.5139   28.0525   49.4159 H   0  0  0  0  0  0  0  0  0  0  0  0
   57.9250   28.3040   49.0510 H   0  0  0  0  0  0  0  0  0  0  0  0
   58.4841   26.6173   47.2901 H   0  0  0  0  0  0  0  0  0  0  0  0
   58.1319   25.1446   45.3181 H   0  0  0  0  0  0  0  0  0  0  0  0
   57.8368   26.1306   43.0541 H   0  0  0  0  0  0  0  0  0  0  0  0
   57.8324   28.5973   42.7490 H   0  0  0  0  0  0  0  0  0  0  0  0
   56.6900   31.7396   43.8122 H   0  0  0  0  0  0  0  0  0  0  0  0
   58.2283   31.5171   42.9119 H   0  0  0  0  0  0  0  0  0  0  0  0
   56.9912   30.2147   42.9119 H   0  0  0  0  0  0  0  0  0  0  0  0
   59.5369   34.8002   48.3063 H   0  0  0  0  0  0  0  0  0  0  0  0
   59.6426   36.3842   46.3619 H   0  0  0  0  0  0  0  0  0  0  0  0
   59.2907   35.5366   44.0384 H   0  0  0  0  0  0  0  0  0  0  0  0
   58.7668   33.1221   43.6365 H   0  0  0  0  0  0  0  0  0  0  0  0
  1  2  1  0
  2  3  1  0
  3  4  1  0
  4  5  1  0
  3  6  1  0
  6  7  1  0
  7  8  1  0
  8  9  1  0
  9 10  1  0
 10 11  1  0
 11 12  1  0
 12 13  1  0
 13 14  1  0
 14 15  1  0
 15 16  1  0
 16 17  2  0
 17 18  1  0
 18 19  2  0
 19 20  1  0
 20 21  2  0
 21 22  1  0
 22 23  2  0
 23 24  1  0
 23 25  1  0
 25 26  2  0
 26 27  1  0
 27 28  1  0
 28 29  2  0
 29 30  1  0
 30 31  2  0
 31 32  1  0
 32 33  2  0
 26 16  1  0
 33 28  1  0
 22 17  1  0
 33 25  1  0
  1 34  1  0
  1 35  1  0
  1 36  1  0
  2 37  1  0
  2 38  1  0
  3 39  1  0
  4 40  1  0
  4 41  1  0
  5 42  1  0
  5 43  1  0
  5 44  1  0
  6 45  1  0
  6 46  1  0
  7 47  1  0
  7 48  1  0
  9 49  1  0
  9 50  1  0
 10 51  1  0
 10 52  1  0
 11 53  1  0
 11 54  1  0
 12 55  1  0
 13 56  1  0
 13 57  1  0
 14 58  1  0
 14 59  1  0
 15 60  1  0
 18 61  1  0
 19 62  1  0
 20 63  1  0
 21 64  1  0
 24 65  1  0
 24 66  1  0
 24 67  1  0
 29 68  1  0
 30 69  1  0
 31 70  1  0
 32 71  1  0
M  CHG  2   3   1  23   1
M  END
>  <UniqueID>  (28) 
28

>  <SMILES>  (28) 
CC[NH+](CC)CCOCCCNCCNc1c2ccccc2[n+](C)c2c1sc1ccccc12

>  <Energy>  (28) 
132.73955574585094

>  <Genealogy>  (28) 
CC[NH+](CC)CCOCCCNCCNc1c2ccccc2[n+](C)c2c1sc1ccccc12 (protonated)
CC[NH+](CC)CCOCCCNCCNc1c2ccccc2[n+](C)c2c1sc1ccccc12 (3D coordinates assigned)
CC[NH+](CC)CCOCCCNCCNc1c2ccccc2[n+](C)c2c1sc1ccccc12 (optimized conformer: 132.73955574585094 kcal/mol)

>  <smiles>  (28) 
CCN(CC)CCOCCCNCCNc1c2ccccc2[n+](C)c2c1sc1ccccc12

>  <score_type>  (28) 
oracle

>  <origin>  (28) 
adg

>  <m_score__min__energy>  (28) 
-4.5700000000000003

>  <m_primary>  (28) 
energy

$$$$
28:0
     RDKit          3D

 94 97  0  0  0  0  0  0  0  0999 V2000
   57.5080   30.8140   55.1350 C   0  0  0  0  0  0  0  0  0  0  0  0
   58.1330   29.5340   54.5690 C   0  0  0  0  0  0  0  0  0  0  0  0
   57.2840   28.8800   53.5400 N   0  0  1  0  0  0  0  0  0  0  0  0
   56.9120   27.5040   53.9440 C   0  0  0  0  0  0  0  0  0  0  0  0
   56.0610   29.6910   53.2950 C   0  0  0  0  0  0  0  0  0  0  0  0
   56.1510   30.4830   51.9750 C   0  0  0  0  0  0  0  0  0  0  0  0
   57.3020   30.1150   51.2360 O   0  0  0  0  0  0  0  0  0  0  0  0
   58.3510   31.0530   51.3970 C   0  0  0  0  0  0  0  0  0  0  0  0
   59.6990   30.3480   51.5610 C   0  0  0  0  0  0  0  0  0  0  0  0
   59.5380   28.9520   51.3830 O   0  0  0  0  0  0  0  0  0  0  0  0
   60.6430   28.4080   50.6950 C   0  0  0  0  0  0  0  0  0  0  0  0
   60.3170   28.3330   49.2080 C   0  0  0  0  0  0  0  0  0  0  0  0
   59.0620   29.0260   48.9150 N   0  0  0  0  0  0  0  0  0  0  0  0
   58.8100   29.5550   47.6040 C   0  0  0  0  0  0  0  0  0  0  0  0
   58.5530   28.6900   46.5280 C   0  0  0  0  0  0  0  0  0  0  0  0
   58.5840   27.2920   46.7010 C   0  0  0  0  0  0  0  0  0  0  0  0
   58.3730   26.4340   45.6230 C   0  0  0  0  0  0  0  0  0  0  0  0
   58.1440   26.9570   44.3550 C   0  0  0  0  0  0  0  0  0  0  0  0
   58.1070   28.3370   44.1590 C   0  0  0  0  0  0  0  0  0  0  0  0
   58.2820   29.2340   45.2440 C   0  0  0  0  0  0  0  0  0  0  0  0
   58.2140   30.6050   45.0760 N   0  0  0  0  0  0  0  0  0  0  0  0
   57.6570   31.1730   43.8280 C   0  0  0  0  0  0  0  0  0  0  0  0
   58.6500   31.4490   46.0810 C   0  0  0  0  0  0  0  0  0  0  0  0
   58.8740   32.8280   45.8530 C   0  0  0  0  0  0  0  0  0  0  0  0
   59.2620   33.6910   46.8930 C   0  0  0  0  0  0  0  0  0  0  0  0
   59.4810   35.0620   46.6840 O   0  0  0  0  0  0  0  0  0  0  0  0
   59.6420   35.6730   45.4090 C   0  0  0  0  0  0  0  0  0  0  0  0
   59.4380   33.1860   48.1820 C   0  0  0  0  0  0  0  0  0  0  0  0
   59.7930   34.0880   49.1990 O   0  0  0  0  0  0  0  0  0  0  0  0
   60.4540   33.7650   50.4230 C   0  0  0  0  0  0  0  0  0  0  0  0
   61.9560   34.1230   50.3780 C   0  0  0  0  0  0  0  0  0  0  0  0
   62.8190   33.3990   49.3740 N   0  0  0  0  0  0  0  0  0  0  0  0
   64.2570   33.3930   49.8320 C   0  0  0  0  0  0  0  0  0  0  0  0
   64.8180   32.0620   50.3680 C   0  0  0  0  0  0  0  0  0  0  0  0
   62.3210   31.9720   49.3730 C   0  0  0  0  0  0  0  0  0  0  0  0
   62.4270   31.2120   48.0300 C   0  0  0  0  0  0  0  0  0  0  0  0
   63.5150   31.7580   47.1190 C   0  0  0  0  0  0  0  0  0  0  0  0
   63.3070   33.2460   46.8570 C   0  0  0  0  0  0  0  0  0  0  0  0
   62.6080   33.9980   48.0150 C   0  0  0  0  0  0  0  0  0  0  0  0
   59.2700   31.8130   48.4160 C   0  0  0  0  0  0  0  0  0  0  0  0
   58.9080   30.9360   47.3760 C   0  0  0  0  0  0  0  0  0  0  0  0
   57.5265   30.7761   56.2342 H   0  0  0  0  0  0  0  0  0  0  0  0
   58.0815   31.6863   54.7885 H   0  0  0  0  0  0  0  0  0  0  0  0
   56.4674   30.8982   54.7885 H   0  0  0  0  0  0  0  0  0  0  0  0
   59.1018   29.7882   54.1143 H   0  0  0  0  0  0  0  0  0  0  0  0
   58.2444   28.8253   55.4029 H   0  0  0  0  0  0  0  0  0  0  0  0
   57.8420   28.8220   52.6530 H   0  0  0  0  0  0  0  0  0  0  0  0
   56.8937   27.4365   55.0418 H   0  0  0  0  0  0  0  0  0  0  0  0
   55.9160   27.2614   53.5451 H   0  0  0  0  0  0  0  0  0  0  0  0
   57.6500   26.7926   53.5451 H   0  0  0  0  0  0  0  0  0  0  0  0
   55.1919   29.0184   53.2476 H   0  0  0  0  0  0  0  0  0  0  0  0
   55.9597   30.4125   54.1191 H   0  0  0  0  0  0  0  0  0  0  0  0
   55.2552   30.2769   51.3708 H   0  0  0  0  0  0  0  0  0  0  0  0
   56.2180   31.5545   52.2148 H   0  0  0  0  0  0  0  0  0  0  0  0
   58.3909   31.7032   50.5106 H   0  0  0  0  0  0  0  0  0  0  0  0
   58.1540   31.6459   52.3024 H   0  0  0  0  0  0  0  0  0  0  0  0
   60.4053   30.7323   50.8103 H   0  0  0  0  0  0  0  0  0  0  0  0
   60.0883   30.5416   52.5714 H   0  0  0  0  0  0  0  0  0  0  0  0
   61.5237   29.0493   50.8471 H   0  0  0  0  0  0  0  0  0  0  0  0
   60.8585   27.3998   51.0784 H   0  0  0  0  0  0  0  0  0  0  0  0
   61.1306   28.8035   48.6364 H   0  0  0  0  0  0  0  0  0  0  0  0
   60.2104   27.2758   48.9236 H   0  0  0  0  0  0  0  0  0  0  0  0
   58.2830   29.0510   49.6160 H   0  0  0  0  0  0  0  0  0  0  0  0
   58.7771   26.8725   47.6993 H   0  0  0  0  0  0  0  0  0  0  0  0
   58.3876   25.3447   45.7751 H   0  0  0  0  0  0  0  0  0  0  0  0
   57.9913   26.2788   43.5025 H   0  0  0  0  0  0  0  0  0  0  0  0
   57.9396   28.7362   43.1478 H   0  0  0  0  0  0  0  0  0  0  0  0
   56.9067   31.9381   44.0763 H   0  0  0  0  0  0  0  0  0  0  0  0
   58.4664   31.6304   43.2401 H   0  0  0  0  0  0  0  0  0  0  0  0
   57.1839   30.3727   43.2401 H   0  0  0  0  0  0  0  0  0  0  0  0
   58.7415   33.2336   44.8391 H   0  0  0  0  0  0  0  0  0  0  0  0
   59.9203   36.7290   45.5410 H   0  0  0  0  0  0  0  0  0  0  0  0
   60.4336   35.1523   44.8502 H   0  0  0  0  0  0  0  0  0  0  0  0
   58.6966   35.6100   44.8502 H   0  0  0  0  0  0  0  0  0  0  0  0
   59.9793   34.3250   51.2422 H   0  0  0  0  0  0  0  0  0  0  0  0
   60.3666   32.6800   50.5818 H   0  0  0  0  0  0  0  0  0  0  0  0
   62.0311   35.1987   50.1609 H   0  0  0  0  0  0  0  0  0  0  0  0
   62.3463   33.8100   51.3576 H   0  0  0  0  0  0  0  0  0  0  0  0
   64.8786   33.6936   48.9757 H   0  0  0  0  0  0  0  0  0  0  0  0
   64.2846   34.0796   50.6910 H   0  0  0  0  0  0  0  0  0  0  0  0
   64.8114   32.0777   51.4679 H   0  0  0  0  0  0  0  0  0  0  0  0
   64.1940   31.2301   50.0094 H   0  0  0  0  0  0  0  0  0  0  0  0
   65.8492   31.9278   50.0094 H   0  0  0  0  0  0  0  0  0  0  0  0
   62.9022   31.4133   50.1214 H   0  0  0  0  0  0  0  0  0  0  0  0
   61.2446   32.0360   49.5905 H   0  0  0  0  0  0  0  0  0  0  0  0
   62.6461   30.1552   48.2423 H   0  0  0  0  0  0  0  0  0  0  0  0
   61.4678   31.3370   47.5062 H   0  0  0  0  0  0  0  0  0  0  0  0
   64.4941   31.6097   47.5979 H   0  0  0  0  0  0  0  0  0  0  0  0
   63.4726   31.2221   46.1593 H   0  0  0  0  0  0  0  0  0  0  0  0
   64.2908   33.7083   46.6886 H   0  0  0  0  0  0  0  0  0  0  0  0
   62.6459   33.3253   45.9814 H   0  0  0  0  0  0  0  0  0  0  0  0
   62.9901   35.0293   48.0329 H   0  0  0  0  0  0  0  0  0  0  0  0
   61.5280   33.9378   47.8151 H   0  0  0  0  0  0  0  0  0  0  0  0
   59.4238   31.4148   49.4298 H   0  0  0  0  0  0  0  0  0  0  0  0
  1  2  1  0
  2  3  1  0
  3  4  1  0
  3  5  1  0
  5  6  1  0
  6  7  1  0
  7  8  1  0
  8  9  1  0
  9 10  1  0
 10 11  1  0
 11 12  1  0
 12 13  1  0
 13 14  1  0
 14 15  2  0
 15 16  1  0
 16 17  2  0
 17 18  1  0
 18 19  2  0
 19 20  1  0
 20 21  2  0
 21 22  1  0
 21 23  1  0
 23 24  2  0
 24 25  1  0
 25 26  1  0
 26 27  1  0
 25 28  2  0
 28 29  1  0
 29 30  1  0
 30 31  1  0
 31 32  1  0
 32 33  1  0
 33 34  1  0
 32 35  1  0
 35 36  1  0
 36 37  1  0
 37 38  1  0
 38 39  1  0
 28 40  1  0
 40 41  2  0
 41 14  1  0
 20 15  1  0
 41 23  1  0
 39 32  1  0
  1 42  1  0
  1 43  1  0
  1 44  1  0
  2 45  1  0
  2 46  1  0
  3 47  1  6
  4 48  1  0
  4 49  1  0
  4 50  1  0
  5 51  1  0
  5 52  1  0
  6 53  1  0
  6 54  1  0
  8 55  1  0
  8 56  1  0
  9 57  1  0
  9 58  1  0
 11 59  1  0
 11 60  1  0
 12 61  1  0
 12 62  1  0
 13 63  1  0
 16 64  1  0
 17 65  1  0
 18 66  1  0
 19 67  1  0
 22 68  1  0
 22 69  1  0
 22 70  1  0
 24 71  1  0
 27 72  1  0
 27 73  1  0
 27 74  1  0
 30 75  1  0
 30 76  1  0
 31 77  1  0
 31 78  1  0
 33 79  1  0
 33 80  1  0
 34 81  1  0
 34 82  1  0
 34 83  1  0
 35 84  1  0
 35 85  1  0
 36 86  1  0
 36 87  1  0
 37 88  1  0
 37 89  1  0
 38 90  1  0
 38 91  1  0
 39 92  1  0
 39 93  1  0
 40 94  1  0
M  CHG  3   3   1  21   1  32   1
M  END
>  <UniqueID>  (29) 
29

>  <SMILES>  (29) 
CC[N@@H+](C)CCOCCOCCNc1c2ccccc2[n+](C)c2cc(OC)c(OCC[N+]3(CC)CCCCC3)cc12

>  <Energy>  (29) 
151.38467466237995

>  <Genealogy>  (29) 
CC[NH+](C)CCOCCOCCNc1c2ccccc2[n+](C)c2cc(OC)c(OCC[N+]3(CC)CCCCC3)cc12 (protonated)
CC[N@@H+](C)CCOCCOCCNc1c2ccccc2[n+](C)c2cc(OC)c(OCC[N+]3(CC)CCCCC3)cc12 (chirality)
CC[N@@H+](C)CCOCCOCCNc1c2ccccc2[n+](C)c2cc(OC)c(OCC[N+]3(CC)CCCCC3)cc12 (3D coordinates assigned)
CC[N@@H+](C)CCOCCOCCNc1c2ccccc2[n+](C)c2cc(OC)c(OCC[N+]3(CC)CCCCC3)cc12 (nonaromatic ring conformer: 151.38467466237995 kcal/mol)

>  <smiles>  (29) 
CCN(C)CCOCCOCCNc1c2ccccc2[n+](C)c2cc(OC)c(OCC[N+]3(CC)CCCCC3)cc12

>  <score_type>  (29) 
oracle

>  <origin>  (29) 
adg

>  <m_score__min__energy>  (29) 
-3.2400000000000002

>  <m_primary>  (29) 
energy

$$$$
29:0
     RDKit          3D

 63 65  0  0  0  0  0  0  0  0999 V2000
   58.4800   32.6210   51.2450 C   0  0  0  0  0  0  0  0  0  0  0  0
   59.6230   33.5100   50.7710 C   0  0  0  0  0  0  0  0  0  0  0  0
   60.7400   32.6840   50.2910 N   0  0  0  0  0  0  0  0  0  0  0  0
   60.6230   31.2890   50.7480 C   0  0  0  0  0  0  0  0  0  0  0  0
   61.3900   30.3280   49.8290 C   0  0  0  0  0  0  0  0  0  0  0  0
   60.5940   29.9530   48.5640 C   0  0  0  0  0  0  0  0  0  0  0  0
   59.6490   31.0130   48.2140 N   0  0  0  0  0  0  0  0  0  0  0  0
   59.3400   31.3080   46.8380 C   0  0  0  0  0  0  0  0  0  0  0  0
   58.6280   30.3600   46.0770 C   0  0  0  0  0  0  0  0  0  0  0  0
   58.4550   29.0370   46.5420 C   0  0  0  0  0  0  0  0  0  0  0  0
   57.6950   28.1190   45.8230 C   0  0  0  0  0  0  0  0  0  0  0  0
   57.0830   28.5020   44.6360 C   0  0  0  0  0  0  0  0  0  0  0  0
   57.2460   29.7980   44.1510 C   0  0  0  0  0  0  0  0  0  0  0  0
   58.0440   30.7460   44.8410 C   0  0  0  0  0  0  0  0  0  0  0  0
   58.2060   32.0340   44.3710 N   0  0  0  0  0  0  0  0  0  0  0  0
   57.7690   32.3810   42.9990 C   0  0  0  0  0  0  0  0  0  0  0  0
   58.8010   32.9930   45.1660 C   0  0  0  0  0  0  0  0  0  0  0  0
   58.6620   34.3720   44.8810 C   0  0  0  0  0  0  0  0  0  0  0  0
   59.2940   35.3320   45.6600 C   0  0  0  0  0  0  0  0  0  0  0  0
   60.1570   34.9480   46.6750 C   0  0  0  0  0  0  0  0  0  0  0  0
   60.3740   33.5870   46.9600 C   0  0  0  0  0  0  0  0  0  0  0  0
   61.4600   33.2100   47.8530 N   0  0  0  0  0  0  0  0  0  0  0  0
   62.7650   33.1710   47.1630 C   0  0  0  0  0  0  0  0  0  0  0  0
   63.9320   33.2690   48.1570 C   0  0  0  0  0  0  0  0  0  0  0  0
   63.4320   33.4160   49.5300 N   0  0  0  0  0  0  0  0  0  0  0  0
   64.5480   33.4260   50.4820 C   0  0  0  0  0  0  0  0  0  0  0  0
   65.5550   32.3420   50.1170 C   0  0  0  0  0  0  0  0  0  0  0  0
   59.5280   32.6170   46.3290 C   0  0  0  0  0  0  0  0  0  0  0  0
   58.4596   32.6051   52.3447 H   0  0  0  0  0  0  0  0  0  0  0  0
   57.5262   33.0170   50.8663 H   0  0  0  0  0  0  0  0  0  0  0  0
   58.6290   31.5991   50.8663 H   0  0  0  0  0  0  0  0  0  0  0  0
   59.2681   34.1532   49.9522 H   0  0  0  0  0  0  0  0  0  0  0  0
   59.9689   34.1300   51.6112 H   0  0  0  0  0  0  0  0  0  0  0  0
   61.6210   33.0730   50.7020 H   0  0  0  0  0  0  0  0  0  0  0  0
   61.0313   31.2114   51.7665 H   0  0  0  0  0  0  0  0  0  0  0  0
   59.5596   31.0084   50.7291 H   0  0  0  0  0  0  0  0  0  0  0  0
   62.3307   30.8091   49.5232 H   0  0  0  0  0  0  0  0  0  0  0  0
   61.5718   29.4019   50.3940 H   0  0  0  0  0  0  0  0  0  0  0  0
   61.2936   29.8028   47.7286 H   0  0  0  0  0  0  0  0  0  0  0  0
   60.0311   29.0288   48.7617 H   0  0  0  0  0  0  0  0  0  0  0  0
   59.3660   31.6890   48.9600 H   0  0  0  0  0  0  0  0  0  0  0  0
   58.9278   28.7281   47.4859 H   0  0  0  0  0  0  0  0  0  0  0  0
   57.5789   27.0902   46.1946 H   0  0  0  0  0  0  0  0  0  0  0  0
   56.4684   27.7804   44.0778 H   0  0  0  0  0  0  0  0  0  0  0  0
   56.7466   30.0913   43.2158 H   0  0  0  0  0  0  0  0  0  0  0  0
   56.9085   33.0643   43.0501 H   0  0  0  0  0  0  0  0  0  0  0  0
   58.5955   32.8716   42.4640 H   0  0  0  0  0  0  0  0  0  0  0  0
   57.4785   31.4648   42.4640 H   0  0  0  0  0  0  0  0  0  0  0  0
   58.0432   34.6886   44.0285 H   0  0  0  0  0  0  0  0  0  0  0  0
   59.1096   36.3999   45.4714 H   0  0  0  0  0  0  0  0  0  0  0  0
   60.6784   35.7164   47.2646 H   0  0  0  0  0  0  0  0  0  0  0  0
   61.5010   33.8890   48.6480 H   0  0  0  0  0  0  0  0  0  0  0  0
   61.3050   32.2490   48.2210 H   0  0  0  0  0  0  0  0  0  0  0  0
   62.8473   32.2250   46.6077 H   0  0  0  0  0  0  0  0  0  0  0  0
   62.8200   34.0323   46.4810 H   0  0  0  0  0  0  0  0  0  0  0  0
   64.5412   32.3555   48.0902 H   0  0  0  0  0  0  0  0  0  0  0  0
   64.5389   34.1511   47.9048 H   0  0  0  0  0  0  0  0  0  0  0  0
   62.8340   32.5820   49.7440 H   0  0  0  0  0  0  0  0  0  0  0  0
   65.0431   34.4078   50.4524 H   0  0  0  0  0  0  0  0  0  0  0  0
   64.1611   33.2332   51.4935 H   0  0  0  0  0  0  0  0  0  0  0  0
   65.9664   31.8992   51.0361 H   0  0  0  0  0  0  0  0  0  0  0  0
   65.0547   31.5609   49.5257 H   0  0  0  0  0  0  0  0  0  0  0  0
   66.3708   32.7835   49.5257 H   0  0  0  0  0  0  0  0  0  0  0  0
  1  2  1  0
  2  3  1  0
  3  4  1  0
  4  5  1  0
  5  6  1  0
  6  7  1  0
  7  8  1  0
  8  9  2  0
  9 10  1  0
 10 11  2  0
 11 12  1  0
 12 13  2  0
 13 14  1  0
 14 15  2  0
 15 16  1  0
 15 17  1  0
 17 18  2  0
 18 19  1  0
 19 20  2  0
 20 21  1  0
 21 22  1  0
 22 23  1  0
 23 24  1  0
 24 25  1  0
 25 26  1  0
 26 27  1  0
 21 28  2  0
 28  8  1  0
 14  9  1  0
 28 17  1  0
  1 29  1  0
  1 30  1  0
  1 31  1  0
  2 32  1  0
  2 33  1  0
  3 34  1  0
  4 35  1  0
  4 36  1  0
  5 37  1  0
  5 38  1  0
  6 39  1  0
  6 40  1  0
  7 41  1  0
 10 42  1  0
 11 43  1  0
 12 44  1  0
 13 45  1  0
 16 46  1  0
 16 47  1  0
 16 48  1  0
 18 49  1  0
 19 50  1  0
 20 51  1  0
 22 52  1  0
 22 53  1  0
 23 54  1  0
 23 55  1  0
 24 56  1  0
 24 57  1  0
 25 58  1  0
 26 59  1  0
 26 60  1  0
 27 61  1  0
 27 62  1  0
 27 63  1  0
M  CHG  2  15   1  22   1
M  END
>  <UniqueID>  (30) 
30

>  <SMILES>  (30) 
CCNCCCNc1c2ccccc2[n+](C)c2cccc([NH2+]CCNCC)c12

>  <Energy>  (30) 
90.60348050904537

>  <Genealogy>  (30) 
CCNCCCNc1c2ccccc2[n+](C)c2cccc([NH2+]CCNCC)c12 (protonated)
CCNCCCNc1c2ccccc2[n+](C)c2cccc([NH2+]CCNCC)c12 (3D coordinates assigned)
CCNCCCNc1c2ccccc2[n+](C)c2cccc([NH2+]CCNCC)c12 (optimized conformer: 90.60348050904537 kcal/mol)

>  <smiles>  (30) 
CCNCCCNc1c2ccccc2[n+](C)c2cccc(NCCNCC)c12

>  <score_type>  (30) 
oracle

>  <origin>  (30) 
adg

>  <m_score__min__energy>  (30) 
-3.4100000000000001

>  <m_primary>  (30) 
energy

$$$$
30:0
     RDKit          3D

 54 55  0  0  0  0  0  0  0  0999 V2000
   61.8990   30.4940   50.0810 C   0  0  0  0  0  0  0  0  0  0  0  0
   60.7490   30.9680   50.9640 C   0  0  0  0  0  0  0  0  0  0  0  0
   59.5590   30.1110   50.7650 N   0  0  0  0  0  0  0  0  0  0  0  0
   59.1140   29.4840   52.0340 C   0  0  0  0  0  0  0  0  0  0  0  0
   57.6630   29.8730   52.3330 C   0  0  0  0  0  0  0  0  0  0  0  0
   57.0550   30.4610   51.2140 O   0  0  0  0  0  0  0  0  0  0  0  0
   59.7970   29.0990   49.7100 C   0  0  0  0  0  0  0  0  0  0  0  0
   58.8980   29.3770   48.5070 C   0  0  0  0  0  0  0  0  0  0  0  0
   58.9920   31.0980   48.0560 S   0  0  0  0  0  0  0  0  0  0  0  0
   58.1690   32.0900   49.1340 O   0  0  0  0  0  0  0  0  0  0  0  0
   58.4910   31.3740   46.3910 C   0  0  0  0  0  0  0  0  0  0  0  0
   58.5980   30.3210   45.4750 C   0  0  0  0  0  0  0  0  0  0  0  0
   58.2500   30.5100   44.1380 C   0  0  0  0  0  0  0  0  0  0  0  0
   57.7810   31.7540   43.7000 C   0  0  0  0  0  0  0  0  0  0  0  0
   57.4390   31.9640   42.2540 C   0  0  0  0  0  0  0  0  0  0  0  0
   57.6990   32.8210   44.6070 C   0  0  0  0  0  0  0  0  0  0  0  0
   58.0490   32.6440   45.9590 C   0  0  0  0  0  0  0  0  0  0  0  0
   57.9680   33.7450   46.8860 N   0  0  0  0  0  0  0  0  0  0  0  0
   58.9260   34.8520   46.8850 C   0  0  0  0  0  0  0  0  0  0  0  0
   60.2830   34.3700   47.3180 C   0  0  0  0  0  0  0  0  0  0  0  0
   61.2140   33.9360   46.3600 C   0  0  0  0  0  0  0  0  0  0  0  0
   62.4610   33.4450   46.7600 C   0  0  0  0  0  0  0  0  0  0  0  0
   62.7830   33.3760   48.1190 C   0  0  0  0  0  0  0  0  0  0  0  0
   61.8570   33.7930   49.0790 C   0  0  0  0  0  0  0  0  0  0  0  0
   60.6090   34.2840   48.6820 C   0  0  0  0  0  0  0  0  0  0  0  0
   62.7305   30.1513   50.7144 H   0  0  0  0  0  0  0  0  0  0  0  0
   61.5557   29.6641   49.4459 H   0  0  0  0  0  0  0  0  0  0  0  0
   62.2402   31.3248   49.4459 H   0  0  0  0  0  0  0  0  0  0  0  0
   61.0581   30.9199   52.0186 H   0  0  0  0  0  0  0  0  0  0  0  0
   60.4932   32.0027   50.6920 H   0  0  0  0  0  0  0  0  0  0  0  0
   59.1862   28.3901   51.9442 H   0  0  0  0  0  0  0  0  0  0  0  0
   59.7572   29.8356   52.8541 H   0  0  0  0  0  0  0  0  0  0  0  0
   57.1003   28.9707   52.6145 H   0  0  0  0  0  0  0  0  0  0  0  0
   57.6604   30.6037   53.1552 H   0  0  0  0  0  0  0  0  0  0  0  0
   57.7290   30.4460   50.4850 H   0  0  0  0  0  0  0  0  0  0  0  0
   60.8502   29.1417   49.3953 H   0  0  0  0  0  0  0  0  0  0  0  0
   59.5671   28.1002   50.1094 H   0  0  0  0  0  0  0  0  0  0  0  0
   59.2261   28.7600   47.6575 H   0  0  0  0  0  0  0  0  0  0  0  0
   57.8588   29.1303   48.7700 H   0  0  0  0  0  0  0  0  0  0  0  0
   58.3710   31.7160   50.0280 H   0  0  0  0  0  0  0  0  0  0  0  0
   58.9589   29.3381   45.8120 H   0  0  0  0  0  0  0  0  0  0  0  0
   58.3444   29.6781   43.4246 H   0  0  0  0  0  0  0  0  0  0  0  0
   56.5039   32.5382   42.1780 H   0  0  0  0  0  0  0  0  0  0  0  0
   58.2512   32.5192   41.7620 H   0  0  0  0  0  0  0  0  0  0  0  0
   57.3113   30.9885   41.7620 H   0  0  0  0  0  0  0  0  0  0  0  0
   57.3575   33.8067   44.2580 H   0  0  0  0  0  0  0  0  0  0  0  0
   57.2230   33.7380   47.6190 H   0  0  0  0  0  0  0  0  0  0  0  0
   58.9964   35.2697   45.8698 H   0  0  0  0  0  0  0  0  0  0  0  0
   58.5802   35.6243   47.5878 H   0  0  0  0  0  0  0  0  0  0  0  0
   60.9612   33.9825   45.2904 H   0  0  0  0  0  0  0  0  0  0  0  0
   63.1889   33.1129   46.0051 H   0  0  0  0  0  0  0  0  0  0  0  0
   63.7655   32.9934   48.4325 H   0  0  0  0  0  0  0  0  0  0  0  0
   62.1099   33.7350   50.1480 H   0  0  0  0  0  0  0  0  0  0  0  0
   59.8797   34.6041   49.4407 H   0  0  0  0  0  0  0  0  0  0  0  0
  1  2  1  0
  2  3  1  0
  3  4  1  0
  4  5  1  0
  5  6  1  0
  3  7  1  0
  7  8  1  0
  8  9  1  0
  9 10  1  1
  9 11  1  0
 11 12  2  0
 12 13  1  0
 13 14  2  0
 14 15  1  0
 14 16  1  0
 16 17  2  0
 17 18  1  0
 18 19  1  0
 19 20  1  0
 20 21  2  0
 21 22  1  0
 22 23  2  0
 23 24  1  0
 24 25  2  0
 17 11  1  0
 25 20  1  0
  1 26  1  0
  1 27  1  0
  1 28  1  0
  2 29  1  0
  2 30  1  0
  4 31  1  0
  4 32  1  0
  5 33  1  0
  5 34  1  0
  6 35  1  0
  7 36  1  0
  7 37  1  0
  8 38  1  0
  8 39  1  0
 10 40  1  0
 12 41  1  0
 13 42  1  0
 15 43  1  0
 15 44  1  0
 15 45  1  0
 16 46  1  0
 18 47  1  0
 19 48  1  0
 19 49  1  0
 21 50  1  0
 22 51  1  0
 23 52  1  0
 24 53  1  0
 25 54  1  0
M  CHG  1   9   1
M  END
>  <UniqueID>  (31) 
31

>  <SMILES>  (31) 
CCN(CCO)CC[S@+](O)c1ccc(C)cc1NCc1ccccc1

>  <Energy>  (31) 
46.96352229573055

>  <Genealogy>  (31) 
CCN(CCO)CC[S+](O)c1ccc(C)cc1NCc1ccccc1 (protonated)
CCN(CCO)CC[S@+](O)c1ccc(C)cc1NCc1ccccc1 (chirality)
CCN(CCO)CC[S@+](O)c1ccc(C)cc1NCc1ccccc1 (3D coordinates assigned)
CCN(CCO)CC[S@+](O)c1ccc(C)cc1NCc1ccccc1 (optimized conformer: 46.96352229573055 kcal/mol)

>  <smiles>  (31) 
CCN(CCO)CC[S+]([O-])c1ccc(C)cc1NCc1ccccc1

>  <score_type>  (31) 
oracle

>  <origin>  (31) 
adg

>  <m_score__min__energy>  (31) 
-6.4100000000000001

>  <m_primary>  (31) 
energy

$$$$
31:0
     RDKit          3D

 47 49  0  0  0  0  0  0  0  0999 V2000
   61.5830   29.3190   51.5300 C   0  0  0  0  0  0  0  0  0  0  0  0
   60.9960   30.6480   52.0210 C   0  0  0  0  0  0  0  0  0  0  0  0
   60.5920   31.5390   50.9040 N   0  0  0  0  0  0  0  0  0  0  0  0
   59.1680   31.2910   50.5520 C   0  0  0  0  0  0  0  0  0  0  0  0
   58.5170   32.4490   49.7630 C   0  0  0  0  0  0  0  0  0  0  0  0
   59.5330   33.3160   49.1540 N   0  0  0  0  0  0  0  0  0  0  0  0
   59.3680   33.8300   47.8190 C   0  0  0  0  0  0  0  0  0  0  0  0
   59.7860   34.9880   47.5420 O   0  0  0  0  0  0  0  0  0  0  0  0
   58.7850   32.9970   46.7410 C   0  0  0  0  0  0  0  0  0  0  0  0
   57.8560   33.5890   45.8670 C   0  0  0  0  0  0  0  0  0  0  0  0
   57.2300   32.8320   44.8770 C   0  0  0  0  0  0  0  0  0  0  0  0
   57.5170   31.4730   44.7500 C   0  0  0  0  0  0  0  0  0  0  0  0
   56.6540   30.4400   43.3950 Br  0  0  0  0  0  0  0  0  0  0  0  0
   58.4410   30.8690   45.6080 C   0  0  0  0  0  0  0  0  0  0  0  0
   59.0910   31.6190   46.6080 C   0  0  0  0  0  0  0  0  0  0  0  0
   60.0960   31.0050   47.4410 N   0  0  0  0  0  0  0  0  0  0  0  0
   61.4650   30.7590   46.9840 C   0  0  0  0  0  0  0  0  0  0  0  0
   62.3890   31.8160   47.5030 C   0  0  0  0  0  0  0  0  0  0  0  0
   62.5820   33.0730   46.9460 C   0  0  0  0  0  0  0  0  0  0  0  0
   63.4400   33.8820   47.7000 C   0  0  0  0  0  0  0  0  0  0  0  0
   63.9100   33.2720   48.8560 C   0  0  0  0  0  0  0  0  0  0  0  0
   63.2540   31.7250   48.9430 S   0  0  0  0  0  0  0  0  0  0  0  0
   60.6140   33.8380   49.9970 C   0  0  0  0  0  0  0  0  0  0  0  0
   60.8050   32.9650   51.2450 C   0  0  0  0  0  0  0  0  0  0  0  0
   61.8575   28.6975   52.3951 H   0  0  0  0  0  0  0  0  0  0  0  0
   60.8347   28.7902   50.9214 H   0  0  0  0  0  0  0  0  0  0  0  0
   62.4778   29.5160   50.9214 H   0  0  0  0  0  0  0  0  0  0  0  0
   60.1120   30.4357   52.6402 H   0  0  0  0  0  0  0  0  0  0  0  0
   61.7777   31.1663   52.5957 H   0  0  0  0  0  0  0  0  0  0  0  0
   61.1720   31.3020   50.0630 H   0  0  0  0  0  0  0  0  0  0  0  0
   59.1146   30.3790   49.9392 H   0  0  0  0  0  0  0  0  0  0  0  0
   58.6138   31.1919   51.4970 H   0  0  0  0  0  0  0  0  0  0  0  0
   57.8816   32.0292   48.9693 H   0  0  0  0  0  0  0  0  0  0  0  0
   57.9188   33.0524   50.4617 H   0  0  0  0  0  0  0  0  0  0  0  0
   57.6209   34.6591   45.9651 H   0  0  0  0  0  0  0  0  0  0  0  0
   56.5091   33.3073   44.1955 H   0  0  0  0  0  0  0  0  0  0  0  0
   58.6628   29.7969   45.5012 H   0  0  0  0  0  0  0  0  0  0  0  0
   59.8460   30.7430   48.4220 H   0  0  0  0  0  0  0  0  0  0  0  0
   61.7975   29.7763   47.3496 H   0  0  0  0  0  0  0  0  0  0  0  0
   61.4821   30.7803   45.8843 H   0  0  0  0  0  0  0  0  0  0  0  0
   62.1090   33.3997   46.0081 H   0  0  0  0  0  0  0  0  0  0  0  0
   63.7162   34.9050   47.4047 H   0  0  0  0  0  0  0  0  0  0  0  0
   64.5943   33.7233   49.5895 H   0  0  0  0  0  0  0  0  0  0  0  0
   61.5493   33.8484   49.4181 H   0  0  0  0  0  0  0  0  0  0  0  0
   60.3494   34.8565   50.3175 H   0  0  0  0  0  0  0  0  0  0  0  0
   61.8267   33.0987   51.6301 H   0  0  0  0  0  0  0  0  0  0  0  0
   60.0750   33.2658   52.0109 H   0  0  0  0  0  0  0  0  0  0  0  0
  1  2  1  0
  2  3  1  0
  3  4  1  0
  4  5  1  0
  5  6  1  0
  6  7  1  0
  7  8  2  0
  7  9  1  0
  9 10  2  0
 10 11  1  0
 11 12  2  0
 12 13  1  0
 12 14  1  0
 14 15  2  0
 15 16  1  0
 16 17  1  0
 17 18  1  0
 18 19  2  0
 19 20  1  0
 20 21  2  0
 21 22  1  0
  6 23  1  0
 23 24  1  0
 24  3  1  0
 15  9  1  0
 22 18  1  0
  1 25  1  0
  1 26  1  0
  1 27  1  0
  2 28  1  0
  2 29  1  0
  3 30  1  0
  4 31  1  0
  4 32  1  0
  5 33  1  0
  5 34  1  0
 10 35  1  0
 11 36  1  0
 14 37  1  0
 16 38  1  0
 17 39  1  0
 17 40  1  0
 19 41  1  0
 20 42  1  0
 21 43  1  0
 23 44  1  0
 23 45  1  0
 24 46  1  0
 24 47  1  0
M  CHG  1   3   1
M  END
>  <UniqueID>  (32) 
32

>  <SMILES>  (32) 
CC[NH+]1CCN(C(=O)c2ccc(Br)cc2NCc2cccs2)CC1

>  <Energy>  (32) 
85.71411874242806

>  <Genealogy>  (32) 
CC[NH+]1CCN(C(=O)c2ccc(Br)cc2NCc2cccs2)CC1 (protonated)
CC[NH+]1CCN(C(=O)c2ccc(Br)cc2NCc2cccs2)CC1 (3D coordinates assigned)
CC[NH+]1CCN(C(=O)c2ccc(Br)cc2NCc2cccs2)CC1 (nonaromatic ring conformer: 85.71411874242806 kcal/mol)

>  <smiles>  (32) 
CCN1CCN(C(=O)c2ccc(Br)cc2NCc2cccs2)CC1

>  <score_type>  (32) 
oracle

>  <origin>  (32) 
adg

>  <m_score__min__energy>  (32) 
-5.5999999999999996

>  <m_primary>  (32) 
energy

$$$$
