0:0
     RDKit          3D

 37 38  0  0  0  0  0  0  0  0999 V2000
   63.3900   33.9560   46.3850 C   0  0  0  0  0  0  0  0  0  0  0  0
   63.5470   33.4780   47.8320 C   0  0  0  0  0  0  0  0  0  0  0  0
   63.7600   32.0200   47.9200 N   0  0  0  0  0  0  0  0  0  0  0  0
   62.6520   31.2370   47.3380 C   0  0  0  0  0  0  0  0  0  0  0  0
   61.3110   31.5310   48.0310 C   0  0  0  0  0  0  0  0  0  0  0  0
   60.1990   31.5770   47.0250 C   0  0  0  0  0  0  0  0  0  0  0  0
   59.4020   30.5090   46.6280 C   0  0  0  0  0  0  0  0  0  0  0  0
   58.4420   30.9340   45.7720 N   0  0  0  0  0  0  0  0  0  0  0  0
   57.3790   30.1060   45.2020 C   0  0  0  0  0  0  0  0  0  0  0  0
   57.3620   30.2350   43.6840 C   0  0  0  0  0  0  0  0  0  0  0  0
   58.6060   32.2690   45.6490 C   0  0  0  0  0  0  0  0  0  0  0  0
   57.8310   33.1700   44.9140 C   0  0  0  0  0  0  0  0  0  0  0  0
   58.1790   34.5320   44.9620 C   0  0  0  0  0  0  0  0  0  0  0  0
   59.2750   34.9640   45.7390 C   0  0  0  0  0  0  0  0  0  0  0  0
   60.0350   34.0390   46.4760 C   0  0  0  0  0  0  0  0  0  0  0  0
   59.6720   32.6940   46.4040 C   0  0  0  0  0  0  0  0  0  0  0  0
   63.0467   35.0011   46.3793 H   0  0  0  0  0  0  0  0  0  0  0  0
   64.3586   33.8854   45.8684 H   0  0  0  0  0  0  0  0  0  0  0  0
   62.6520   33.3248   45.8684 H   0  0  0  0  0  0  0  0  0  0  0  0
   64.4107   33.9895   48.2818 H   0  0  0  0  0  0  0  0  0  0  0  0
   62.6161   33.7152   48.3678 H   0  0  0  0  0  0  0  0  0  0  0  0
   63.8880   31.7550   48.9250 H   0  0  0  0  0  0  0  0  0  0  0  0
   64.6490   31.7660   47.4280 H   0  0  0  0  0  0  0  0  0  0  0  0
   62.5625   31.4878   46.2707 H   0  0  0  0  0  0  0  0  0  0  0  0
   62.8799   30.1701   47.4789 H   0  0  0  0  0  0  0  0  0  0  0  0
   61.1020   30.7395   48.7658 H   0  0  0  0  0  0  0  0  0  0  0  0
   61.3767   32.5072   48.5337 H   0  0  0  0  0  0  0  0  0  0  0  0
   59.5323   29.4688   46.9611 H   0  0  0  0  0  0  0  0  0  0  0  0
   57.5529   29.0546   45.4745 H   0  0  0  0  0  0  0  0  0  0  0  0
   56.4109   30.4443   45.5999 H   0  0  0  0  0  0  0  0  0  0  0  0
   57.2229   31.2905   43.4072 H   0  0  0  0  0  0  0  0  0  0  0  0
   58.3159   29.8712   43.2744 H   0  0  0  0  0  0  0  0  0  0  0  0
   56.5350   29.6365   43.2744 H   0  0  0  0  0  0  0  0  0  0  0  0
   56.9748   32.8246   44.3160 H   0  0  0  0  0  0  0  0  0  0  0  0
   57.5925   35.2658   44.3897 H   0  0  0  0  0  0  0  0  0  0  0  0
   59.5365   36.0321   45.7682 H   0  0  0  0  0  0  0  0  0  0  0  0
   60.8879   34.3651   47.0893 H   0  0  0  0  0  0  0  0  0  0  0  0
  1  2  1  0
  2  3  1  0
  3  4  1  0
  4  5  1  0
  5  6  1  0
  6  7  2  0
  7  8  1  0
  8  9  1  0
  9 10  1  0
  8 11  1  0
 11 12  2  0
 12 13  1  0
 13 14  2  0
 14 15  1  0
 15 16  2  0
 16  6  1  0
 16 11  1  0
  1 17  1  0
  1 18  1  0
  1 19  1  0
  2 20  1  0
  2 21  1  0
  3 22  1  0
  3 23  1  0
  4 24  1  0
  4 25  1  0
  5 26  1  0
  5 27  1  0
  7 28  1  0
  9 29  1  0
  9 30  1  0
 10 31  1  0
 10 32  1  0
 10 33  1  0
 12 34  1  0
 13 35  1  0
 14 36  1  0
 15 37  1  0
M  CHG  1   3   1
M  END
>  <UniqueID>  (1) 
1

>  <SMILES>  (1) 
CC[NH2+]CCc1cn(CC)c2ccccc12

>  <Energy>  (1) 
63.33929973937989

>  <Genealogy>  (1) 
CC[NH2+]CCc1cn(CC)c2ccccc12 (protonated)
CC[NH2+]CCc1cn(CC)c2ccccc12 (3D coordinates assigned)
CC[NH2+]CCc1cn(CC)c2ccccc12 (optimized conformer: 63.33929973937989 kcal/mol)

>  <smiles>  (1) 
CCNCCc1cn(CC)c2ccccc12

>  <score_type>  (1) 
oracle

>  <origin>  (1) 
adg

>  <m_score__min__energy>  (1) 
-4.5800000000000001

>  <m_primary>  (1) 
energy

$$$$
1:0
     RDKit          3D

 54 56  0  0  0  0  0  0  0  0999 V2000
   56.2860   25.6770   46.2590 C   0  0  0  0  0  0  0  0  0  0  0  0
   57.6990   26.0020   46.7350 C   0  0  0  0  0  0  0  0  0  0  0  0
   58.1460   27.2970   46.1710 N   0  0  0  0  0  0  0  0  0  0  0  0
   59.5070   27.6430   46.6450 C   0  0  0  0  0  0  0  0  0  0  0  0
   59.4260   28.4600   47.9320 C   0  0  0  0  0  0  0  0  0  0  0  0
   58.0830   27.2840   44.6910 C   0  0  0  0  0  0  0  0  0  0  0  0
   58.1550   28.7160   44.1460 C   0  0  0  0  0  0  0  0  0  0  0  0
   56.7730   29.3440   43.9220 C   0  0  0  0  0  0  0  0  0  0  0  0
   56.5140   30.3840   44.8700 O   0  0  0  0  0  0  0  0  0  0  0  0
   57.3960   31.4100   45.2500 C   0  0  0  0  0  0  0  0  0  0  0  0
   57.1340   32.7020   44.7810 C   0  0  0  0  0  0  0  0  0  0  0  0
   57.9620   33.7730   45.1300 C   0  0  0  0  0  0  0  0  0  0  0  0
   59.0760   33.5610   45.9580 C   0  0  0  0  0  0  0  0  0  0  0  0
   59.9320   34.6030   46.3470 C   0  0  0  0  0  0  0  0  0  0  0  0
   59.7290   35.7880   45.9660 O   0  0  0  0  0  0  0  0  0  0  0  0
   61.0200   34.3220   47.1740 C   0  0  0  0  0  0  0  0  0  0  0  0
   61.2420   32.9990   47.5980 C   0  0  0  0  0  0  0  0  0  0  0  0
   62.3780   32.6390   48.4830 C   0  0  0  0  0  0  0  0  0  0  0  0
   63.6160   33.3070   48.4060 C   0  0  0  0  0  0  0  0  0  0  0  0
   64.6740   32.9350   49.2390 C   0  0  0  0  0  0  0  0  0  0  0  0
   64.5150   31.8940   50.1560 C   0  0  0  0  0  0  0  0  0  0  0  0
   63.2890   31.2210   50.2520 C   0  0  0  0  0  0  0  0  0  0  0  0
   63.1300   30.0740   51.2050 C   0  0  0  0  0  0  0  0  0  0  0  0
   62.2330   31.5830   49.4010 C   0  0  0  0  0  0  0  0  0  0  0  0
   60.4030   32.0380   47.2110 O   0  0  0  0  0  0  0  0  0  0  0  0
   59.3540   32.2600   46.4260 C   0  0  0  0  0  0  0  0  0  0  0  0
   58.5230   31.1930   46.0670 C   0  0  0  0  0  0  0  0  0  0  0  0
   55.6312   25.5264   47.1300 H   0  0  0  0  0  0  0  0  0  0  0  0
   55.9028   26.5105   45.6520 H   0  0  0  0  0  0  0  0  0  0  0  0
   56.3054   24.7599   45.6520 H   0  0  0  0  0  0  0  0  0  0  0  0
   57.7071   26.0623   47.8333 H   0  0  0  0  0  0  0  0  0  0  0  0
   58.3821   25.2091   46.3963 H   0  0  0  0  0  0  0  0  0  0  0  0
   60.0709   26.7182   46.8367 H   0  0  0  0  0  0  0  0  0  0  0  0
   60.0148   28.2396   45.8729 H   0  0  0  0  0  0  0  0  0  0  0  0
   59.4928   27.7862   48.7989 H   0  0  0  0  0  0  0  0  0  0  0  0
   60.2572   29.1799   47.9622 H   0  0  0  0  0  0  0  0  0  0  0  0
   58.4696   29.0027   47.9622 H   0  0  0  0  0  0  0  0  0  0  0  0
   58.9288   26.7019   44.2963 H   0  0  0  0  0  0  0  0  0  0  0  0
   57.1334   26.8269   44.3758 H   0  0  0  0  0  0  0  0  0  0  0  0
   58.7095   29.3369   44.8650 H   0  0  0  0  0  0  0  0  0  0  0  0
   58.6574   28.6705   43.1685 H   0  0  0  0  0  0  0  0  0  0  0  0
   56.7316   29.7660   42.9070 H   0  0  0  0  0  0  0  0  0  0  0  0
   56.0112   28.5608   44.0495 H   0  0  0  0  0  0  0  0  0  0  0  0
   56.2653   32.8773   44.1293 H   0  0  0  0  0  0  0  0  0  0  0  0
   57.7405   34.7832   44.7554 H   0  0  0  0  0  0  0  0  0  0  0  0
   61.6982   35.1277   47.4917 H   0  0  0  0  0  0  0  0  0  0  0  0
   63.7505   34.1269   47.6852 H   0  0  0  0  0  0  0  0  0  0  0  0
   65.6360   33.4642   49.1723 H   0  0  0  0  0  0  0  0  0  0  0  0
   65.3538   31.6013   50.8046 H   0  0  0  0  0  0  0  0  0  0  0  0
   63.1816   30.4464   52.2388 H   0  0  0  0  0  0  0  0  0  0  0  0
   62.1562   29.5905   51.0376 H   0  0  0  0  0  0  0  0  0  0  0  0
   63.9355   29.3438   51.0376 H   0  0  0  0  0  0  0  0  0  0  0  0
   61.2809   31.0345   49.4526 H   0  0  0  0  0  0  0  0  0  0  0  0
   58.7512   30.1782   46.4250 H   0  0  0  0  0  0  0  0  0  0  0  0
  1  2  1  0
  2  3  1  0
  3  4  1  0
  4  5  1  0
  3  6  1  0
  6  7  1  0
  7  8  1  0
  8  9  1  0
  9 10  1  0
 10 11  2  0
 11 12  1  0
 12 13  2  0
 13 14  1  0
 14 15  2  0
 14 16  1  0
 16 17  2  0
 17 18  1  0
 18 19  2  0
 19 20  1  0
 20 21  2  0
 21 22  1  0
 22 23  1  0
 22 24  2  0
 17 25  1  0
 25 26  1  0
 26 27  2  0
 27 10  1  0
 26 13  1  0
 24 18  1  0
  1 28  1  0
  1 29  1  0
  1 30  1  0
  2 31  1  0
  2 32  1  0
  4 33  1  0
  4 34  1  0
  5 35  1  0
  5 36  1  0
  5 37  1  0
  6 38  1  0
  6 39  1  0
  7 40  1  0
  7 41  1  0
  8 42  1  0
  8 43  1  0
 11 44  1  0
 12 45  1  0
 16 46  1  0
 19 47  1  0
 20 48  1  0
 21 49  1  0
 23 50  1  0
 23 51  1  0
 23 52  1  0
 24 53  1  0
 27 54  1  0
M  END
>  <UniqueID>  (2) 
2

>  <SMILES>  (2) 
CCN(CC)CCCOc1ccc2c(=O)cc(-c3cccc(C)c3)oc2c1

>  <Energy>  (2) 
60.63502762186822

>  <Genealogy>  (2) 
CCN(CC)CCCOc1ccc2c(=O)cc(-c3cccc(C)c3)oc2c1 (3D coordinates assigned)
CCN(CC)CCCOc1ccc2c(=O)cc(-c3cccc(C)c3)oc2c1 (optimized conformer: 60.63502762186822 kcal/mol)

>  <smiles>  (2) 
CCN(CC)CCCOc1ccc2c(=O)cc(-c3cccc(C)c3)oc2c1

>  <score_type>  (2) 
oracle

>  <origin>  (2) 
adg

>  <m_score__min__energy>  (2) 
-7.4400000000000004

>  <m_primary>  (2) 
energy

$$$$
2:0
     RDKit          3D

 53 55  0  0  0  0  0  0  0  0999 V2000
   63.8800   31.2260   50.5370 C   0  0  0  0  0  0  0  0  0  0  0  0
   65.1780   31.9200   50.1370 C   0  0  0  0  0  0  0  0  0  0  0  0
   64.9000   33.1640   49.4190 N   0  0  0  0  0  0  0  0  0  0  0  0
   63.6320   33.5050   48.8240 C   0  0  0  0  0  0  0  0  0  0  0  0
   62.5680   34.0350   49.5800 C   0  0  0  0  0  0  0  0  0  0  0  0
   61.3550   34.3610   48.9660 C   0  0  0  0  0  0  0  0  0  0  0  0
   61.1830   34.1590   47.5850 C   0  0  0  0  0  0  0  0  0  0  0  0
   59.9880   34.4910   46.9310 O   0  0  0  0  0  0  0  0  0  0  0  0
   59.2160   33.6150   46.1500 C   0  0  0  0  0  0  0  0  0  0  0  0
   58.9070   33.9180   44.8110 C   0  0  0  0  0  0  0  0  0  0  0  0
   58.1100   33.0560   44.0560 C   0  0  0  0  0  0  0  0  0  0  0  0
   57.6010   31.8890   44.6310 C   0  0  0  0  0  0  0  0  0  0  0  0
   56.5740   30.7850   43.6620 S   0  0  0  0  0  0  0  0  0  0  0  0
   57.3450   29.3210   44.3540 C   0  0  0  0  0  0  0  0  0  0  0  0
   56.6380   28.5230   45.2600 C   0  0  0  0  0  0  0  0  0  0  0  0
   57.2520   27.3900   45.7960 C   0  0  0  0  0  0  0  0  0  0  0  0
   58.5580   27.0670   45.4240 C   0  0  0  0  0  0  0  0  0  0  0  0
   59.2320   27.8850   44.5140 C   0  0  0  0  0  0  0  0  0  0  0  0
   58.6190   28.9870   44.0000 N   0  0  0  0  0  0  0  0  0  0  0  0
   57.8840   31.5880   45.9670 C   0  0  0  0  0  0  0  0  0  0  0  0
   58.6950   32.4410   46.7330 C   0  0  0  0  0  0  0  0  0  0  0  0
   58.9690   32.0910   48.1750 C   0  0  0  0  0  0  0  0  0  0  0  0
   59.4740   30.7070   48.2890 N   0  0  0  0  0  0  0  0  0  0  0  0
   60.6980   30.5510   47.4860 C   0  0  0  0  0  0  0  0  0  0  0  0
   59.7630   30.3670   49.6930 C   0  0  0  0  0  0  0  0  0  0  0  0
   62.2460   33.6570   46.8300 C   0  0  0  0  0  0  0  0  0  0  0  0
   63.4580   33.3280   47.4420 C   0  0  0  0  0  0  0  0  0  0  0  0
   63.8078   31.1874   51.6339 H   0  0  0  0  0  0  0  0  0  0  0  0
   63.0246   31.7871   50.1328 H   0  0  0  0  0  0  0  0  0  0  0  0
   63.8715   30.2030   50.1328 H   0  0  0  0  0  0  0  0  0  0  0  0
   65.7593   32.1481   51.0426 H   0  0  0  0  0  0  0  0  0  0  0  0
   65.7477   31.2502   49.4760 H   0  0  0  0  0  0  0  0  0  0  0  0
   65.6780   33.8590   49.3590 H   0  0  0  0  0  0  0  0  0  0  0  0
   62.6925   34.1935   50.6614 H   0  0  0  0  0  0  0  0  0  0  0  0
   60.5319   34.7771   49.5655 H   0  0  0  0  0  0  0  0  0  0  0  0
   59.2963   34.8407   44.3561 H   0  0  0  0  0  0  0  0  0  0  0  0
   57.8824   33.2959   43.0069 H   0  0  0  0  0  0  0  0  0  0  0  0
   55.6091   28.7858   45.5468 H   0  0  0  0  0  0  0  0  0  0  0  0
   56.7083   26.7534   46.5095 H   0  0  0  0  0  0  0  0  0  0  0  0
   59.0513   26.1776   45.8430 H   0  0  0  0  0  0  0  0  0  0  0  0
   60.2605   27.6383   44.2119 H   0  0  0  0  0  0  0  0  0  0  0  0
   59.1420   29.5870   43.3230 H   0  0  0  0  0  0  0  0  0  0  0  0
   57.4683   30.6764   46.4212 H   0  0  0  0  0  0  0  0  0  0  0  0
   59.7216   32.7845   48.5783 H   0  0  0  0  0  0  0  0  0  0  0  0
   58.0310   32.1735   48.7436 H   0  0  0  0  0  0  0  0  0  0  0  0
   61.5640   30.4406   48.1552 H   0  0  0  0  0  0  0  0  0  0  0  0
   60.6087   29.6570   46.8514 H   0  0  0  0  0  0  0  0  0  0  0  0
   60.8358   31.4388   46.8514 H   0  0  0  0  0  0  0  0  0  0  0  0
   59.1948   31.0355   50.3566 H   0  0  0  0  0  0  0  0  0  0  0  0
   59.4707   29.3242   49.8854 H   0  0  0  0  0  0  0  0  0  0  0  0
   60.8393   30.4875   49.8854 H   0  0  0  0  0  0  0  0  0  0  0  0
   62.1277   33.5197   45.7450 H   0  0  0  0  0  0  0  0  0  0  0  0
   64.2834   32.9267   46.8357 H   0  0  0  0  0  0  0  0  0  0  0  0
  1  2  1  0
  2  3  1  0
  3  4  1  0
  4  5  2  0
  5  6  1  0
  6  7  2  0
  7  8  1  0
  8  9  1  0
  9 10  2  0
 10 11  1  0
 11 12  2  0
 12 13  1  0
 13 14  1  0
 14 15  2  0
 15 16  1  0
 16 17  2  0
 17 18  1  0
 18 19  2  0
 12 20  1  0
 20 21  2  0
 21 22  1  0
 22 23  1  0
 23 24  1  0
 23 25  1  0
  7 26  1  0
 26 27  2  0
 27  4  1  0
 21  9  1  0
 19 14  1  0
  1 28  1  0
  1 29  1  0
  1 30  1  0
  2 31  1  0
  2 32  1  0
  3 33  1  0
  5 34  1  0
  6 35  1  0
 10 36  1  0
 11 37  1  0
 15 38  1  0
 16 39  1  0
 17 40  1  0
 18 41  1  0
 19 42  1  0
 20 43  1  0
 22 44  1  0
 22 45  1  0
 24 46  1  0
 24 47  1  0
 24 48  1  0
 25 49  1  0
 25 50  1  0
 25 51  1  0
 26 52  1  0
 27 53  1  0
M  CHG  1  19   1
M  END
>  <UniqueID>  (3) 
3

>  <SMILES>  (3) 
CCNc1ccc(Oc2ccc(Sc3cccc[nH+]3)cc2CN(C)C)cc1

>  <Energy>  (3) 
53.49881886452241

>  <Genealogy>  (3) 
CCNc1ccc(Oc2ccc(Sc3cccc[nH+]3)cc2CN(C)C)cc1 (protonated)
CCNc1ccc(Oc2ccc(Sc3cccc[nH+]3)cc2CN(C)C)cc1 (3D coordinates assigned)
CCNc1ccc(Oc2ccc(Sc3cccc[nH+]3)cc2CN(C)C)cc1 (optimized conformer: 53.49881886452241 kcal/mol)

>  <smiles>  (3) 
CCNc1ccc(Oc2ccc(Sc3ccccn3)cc2CN(C)C)cc1

>  <score_type>  (3) 
oracle

>  <origin>  (3) 
adg

>  <m_score__min__energy>  (3) 
-6.6399999999999997

>  <m_primary>  (3) 
energy

$$$$
3:0
     RDKit          3D

 43 44  0  0  0  0  0  0  0  0999 V2000
   56.5860   29.8630   42.8180 C   0  0  0  0  0  0  0  0  0  0  0  0
   55.4610   29.6930   43.8250 C   0  0  0  0  0  0  0  0  0  0  0  0
   55.9980   29.2300   45.0610 O   0  0  0  0  0  0  0  0  0  0  0  0
   57.1990   29.6760   45.6350 C   0  0  0  0  0  0  0  0  0  0  0  0
   57.7150   30.9600   45.3760 C   0  0  0  0  0  0  0  0  0  0  0  0
   58.8930   31.4270   46.0140 C   0  0  0  0  0  0  0  0  0  0  0  0
   59.5560   30.5540   46.9040 C   0  0  0  0  0  0  0  0  0  0  0  0
   59.0360   29.2720   47.1580 C   0  0  0  0  0  0  0  0  0  0  0  0
   57.8860   28.8230   46.5110 C   0  0  0  0  0  0  0  0  0  0  0  0
   57.4020   27.5050   46.8030 N   0  0  0  0  0  0  0  0  0  0  0  0
   56.6640   26.6700   45.9030 C   0  0  0  0  0  0  0  0  0  0  0  0
   57.3420   25.8370   44.8560 C   0  0  0  0  0  0  0  0  0  0  0  0
   55.4110   26.6120   46.0120 O   0  0  0  0  0  0  0  0  0  0  0  0
   60.7420   30.9830   47.5150 C   0  0  0  0  0  0  0  0  0  0  0  0
   61.3340   30.2250   48.3340 O   0  0  0  0  0  0  0  0  0  0  0  0
   61.2620   32.2130   47.2210 N   0  0  0  0  0  0  0  0  0  0  0  0
   62.5220   32.6490   47.8620 C   0  0  0  0  0  0  0  0  0  0  0  0
   62.2470   33.7360   48.8970 C   0  0  0  0  0  0  0  0  0  0  0  0
   60.5930   33.0630   46.3780 C   0  0  0  0  0  0  0  0  0  0  0  0
   61.0820   34.2040   46.1350 O   0  0  0  0  0  0  0  0  0  0  0  0
   59.4000   32.6940   45.7970 N   0  0  0  0  0  0  0  0  0  0  0  0
   58.7070   33.6750   44.9270 C   0  0  0  0  0  0  0  0  0  0  0  0
   57.4060   34.1470   45.5740 C   0  0  0  0  0  0  0  0  0  0  0  0
   57.5371   30.0067   43.3516 H   0  0  0  0  0  0  0  0  0  0  0  0
   56.6519   28.9646   42.1867 H   0  0  0  0  0  0  0  0  0  0  0  0
   56.3835   30.7407   42.1867 H   0  0  0  0  0  0  0  0  0  0  0  0
   54.9597   30.6595   43.9818 H   0  0  0  0  0  0  0  0  0  0  0  0
   54.7337   28.9613   43.4433 H   0  0  0  0  0  0  0  0  0  0  0  0
   57.1933   31.6156   44.6632 H   0  0  0  0  0  0  0  0  0  0  0  0
   59.5445   28.6140   47.8780 H   0  0  0  0  0  0  0  0  0  0  0  0
   57.9647   25.0719   45.3427 H   0  0  0  0  0  0  0  0  0  0  0  0
   56.5827   25.3471   44.2287 H   0  0  0  0  0  0  0  0  0  0  0  0
   57.9758   26.4811   44.2287 H   0  0  0  0  0  0  0  0  0  0  0  0
   62.9927   31.7875   48.3582 H   0  0  0  0  0  0  0  0  0  0  0  0
   63.1922   33.0546   47.0897 H   0  0  0  0  0  0  0  0  0  0  0  0
   62.3534   33.3152   49.9078 H   0  0  0  0  0  0  0  0  0  0  0  0
   62.9654   34.5585   48.7647 H   0  0  0  0  0  0  0  0  0  0  0  0
   61.2239   34.1179   48.7647 H   0  0  0  0  0  0  0  0  0  0  0  0
   59.3647   34.5417   44.7650 H   0  0  0  0  0  0  0  0  0  0  0  0
   58.4696   33.1911   43.9681 H   0  0  0  0  0  0  0  0  0  0  0  0
   57.5066   34.1105   46.6688 H   0  0  0  0  0  0  0  0  0  0  0  0
   57.1936   35.1795   45.2595 H   0  0  0  0  0  0  0  0  0  0  0  0
   56.5810   33.4909   45.2595 H   0  0  0  0  0  0  0  0  0  0  0  0
  1  2  1  0
  2  3  1  0
  3  4  1  0
  4  5  2  0
  5  6  1  0
  6  7  2  0
  7  8  1  0
  8  9  2  0
  9 10  1  0
 10 11  1  0
 11 12  1  0
 11 13  2  0
  7 14  1  0
 14 15  2  0
 14 16  1  0
 16 17  1  0
 17 18  1  0
 16 19  1  0
 19 20  2  0
 19 21  1  0
 21 22  1  0
 22 23  1  0
  9  4  1  0
 21  6  1  0
  1 24  1  0
  1 25  1  0
  1 26  1  0
  2 27  1  0
  2 28  1  0
  5 29  1  0
  8 30  1  0
 12 31  1  0
 12 32  1  0
 12 33  1  0
 17 34  1  0
 17 35  1  0
 18 36  1  0
 18 37  1  0
 18 38  1  0
 22 39  1  0
 22 40  1  0
 23 41  1  0
 23 42  1  0
 23 43  1  0
M  CHG  1  10  -1
M  END
>  <UniqueID>  (4) 
4

>  <SMILES>  (4) 
CCOc1cc2c(cc1[N-]C(C)=O)c(=O)n(CC)c(=O)n2CC

>  <Energy>  (4) 
54.37330972820064

>  <Genealogy>  (4) 
CCOc1cc2c(cc1[N-]C(C)=O)c(=O)n(CC)c(=O)n2CC (protonated)
CCOc1cc2c(cc1[N-]C(C)=O)c(=O)n(CC)c(=O)n2CC (3D coordinates assigned)
CCOc1cc2c(cc1[N-]C(C)=O)c(=O)n(CC)c(=O)n2CC (optimized conformer: 54.37330972820064 kcal/mol)

>  <smiles>  (4) 
CCOc1cc2c(cc1NC(C)=O)c(=O)n(CC)c(=O)n2CC

>  <score_type>  (4) 
oracle

>  <origin>  (4) 
adg

>  <m_score__min__energy>  (4) 
-8.6500000000000004

>  <m_primary>  (4) 
energy

$$$$
4:0
     RDKit          3D

 41 43  0  0  0  0  0  0  0  0999 V2000
   58.7880   34.5770   46.9560 C   0  0  0  0  0  0  0  0  0  0  0  0
   58.7680   33.2210   46.3830 N   0  0  0  0  0  0  0  0  0  0  0  0
   60.1060   32.6020   46.4580 C   0  0  0  0  0  0  0  0  0  0  0  0
   60.0650   31.4050   47.3720 C   0  0  0  0  0  0  0  0  0  0  0  0
   58.9130   30.6110   47.4720 C   0  0  0  0  0  0  0  0  0  0  0  0
   58.8890   29.5250   48.3490 C   0  0  0  0  0  0  0  0  0  0  0  0
   60.0180   29.2420   49.1180 C   0  0  0  0  0  0  0  0  0  0  0  0
   61.1280   30.0250   49.0200 N   0  0  0  0  0  0  0  0  0  0  0  0
   61.1740   31.0900   48.1730 C   0  0  0  0  0  0  0  0  0  0  0  0
   58.2430   33.2400   44.9990 C   0  0  0  0  0  0  0  0  0  0  0  0
   57.5730   31.9380   44.7180 C   0  0  0  0  0  0  0  0  0  0  0  0
   58.2320   30.8150   44.3760 N   0  0  0  0  0  0  0  0  0  0  0  0
   57.2140   29.9350   44.2740 C   0  0  0  0  0  0  0  0  0  0  0  0
   57.4050   28.4840   43.9760 C   0  0  0  0  0  0  0  0  0  0  0  0
   58.4110   27.8910   44.9310 C   0  0  0  0  0  0  0  0  0  0  0  0
   59.7580   28.2850   44.8320 C   0  0  0  0  0  0  0  0  0  0  0  0
   60.7220   27.7260   45.6720 C   0  0  0  0  0  0  0  0  0  0  0  0
   60.3580   26.7580   46.6090 C   0  0  0  0  0  0  0  0  0  0  0  0
   59.0270   26.3470   46.7090 C   0  0  0  0  0  0  0  0  0  0  0  0
   58.0500   26.9010   45.8750 C   0  0  0  0  0  0  0  0  0  0  0  0
   56.3930   26.3310   46.0430 Cl  0  0  0  0  0  0  0  0  0  0  0  0
   56.0190   30.4880   44.5570 N   0  0  0  0  0  0  0  0  0  0  0  0
   56.2840   31.7310   44.8250 O   0  0  0  0  0  0  0  0  0  0  0  0
   58.7870   34.5111   48.0540 H   0  0  0  0  0  0  0  0  0  0  0  0
   59.6940   35.1033   46.6211 H   0  0  0  0  0  0  0  0  0  0  0  0
   57.8979   35.1298   46.6211 H   0  0  0  0  0  0  0  0  0  0  0  0
   60.4175   32.2829   45.4524 H   0  0  0  0  0  0  0  0  0  0  0  0
   60.8237   33.3359   46.8533 H   0  0  0  0  0  0  0  0  0  0  0  0
   58.0292   30.8438   46.8599 H   0  0  0  0  0  0  0  0  0  0  0  0
   57.9887   28.8986   48.4328 H   0  0  0  0  0  0  0  0  0  0  0  0
   60.0117   28.3836   49.8058 H   0  0  0  0  0  0  0  0  0  0  0  0
   61.9600   29.8060   49.6120 H   0  0  0  0  0  0  0  0  0  0  0  0
   62.0836   31.7059   48.1161 H   0  0  0  0  0  0  0  0  0  0  0  0
   57.5173   34.0595   44.8907 H   0  0  0  0  0  0  0  0  0  0  0  0
   59.0692   33.3945   44.2894 H   0  0  0  0  0  0  0  0  0  0  0  0
   56.4444   27.9596   44.0864 H   0  0  0  0  0  0  0  0  0  0  0  0
   57.7741   28.3717   42.9459 H   0  0  0  0  0  0  0  0  0  0  0  0
   60.0533   29.0389   44.0874 H   0  0  0  0  0  0  0  0  0  0  0  0
   61.7707   28.0490   45.5954 H   0  0  0  0  0  0  0  0  0  0  0  0
   61.1200   26.3184   47.2693 H   0  0  0  0  0  0  0  0  0  0  0  0
   58.7451   25.5828   47.4483 H   0  0  0  0  0  0  0  0  0  0  0  0
  1  2  1  0
  2  3  1  0
  3  4  1  0
  4  5  2  0
  5  6  1  0
  6  7  2  0
  7  8  1  0
  8  9  2  0
  2 10  1  0
 10 11  1  0
 11 12  2  0
 12 13  1  0
 13 14  1  0
 14 15  1  0
 15 16  2  0
 16 17  1  0
 17 18  2  0
 18 19  1  0
 19 20  2  0
 20 21  1  0
 13 22  2  0
 22 23  1  0
  9  4  1  0
 23 11  1  0
 20 15  1  0
  1 24  1  0
  1 25  1  0
  1 26  1  0
  3 27  1  0
  3 28  1  0
  5 29  1  0
  6 30  1  0
  7 31  1  0
  8 32  1  0
  9 33  1  0
 10 34  1  0
 10 35  1  0
 14 36  1  0
 14 37  1  0
 16 38  1  0
 17 39  1  0
 18 40  1  0
 19 41  1  0
M  CHG  1   8   1
M  END
>  <UniqueID>  (5) 
5

>  <SMILES>  (5) 
CN(Cc1ccc[nH+]c1)Cc1nc(Cc2ccccc2Cl)no1

>  <Energy>  (5) 
74.36829443331929

>  <Genealogy>  (5) 
CN(Cc1ccc[nH+]c1)Cc1nc(Cc2ccccc2Cl)no1 (protonated)
CN(Cc1ccc[nH+]c1)Cc1nc(Cc2ccccc2Cl)no1 (3D coordinates assigned)
CN(Cc1ccc[nH+]c1)Cc1nc(Cc2ccccc2Cl)no1 (optimized conformer: 74.36829443331929 kcal/mol)

>  <smiles>  (5) 
CN(Cc1cccnc1)Cc1nc(Cc2ccccc2Cl)no1

>  <score_type>  (5) 
oracle

>  <origin>  (5) 
adg

>  <m_score__min__energy>  (5) 
-7.2599999999999998

>  <m_primary>  (5) 
energy

$$$$
5:0
     RDKit          3D

 40 43  0  0  0  0  0  0  0  0999 V2000
   59.2600   34.9970   44.8720 C   0  0  0  0  0  0  0  0  0  0  0  0
   57.8570   34.4710   45.1430 C   0  0  0  0  0  0  0  0  0  0  0  0
   57.8850   33.0220   45.3220 N   0  0  0  0  0  0  0  0  0  0  0  0
   56.9770   32.1130   44.8860 C   0  0  0  0  0  0  0  0  0  0  0  0
   57.3330   30.8270   45.1540 N   0  0  0  0  0  0  0  0  0  0  0  0
   58.5230   30.9660   45.7700 C   0  0  0  0  0  0  0  0  0  0  0  0
   59.3770   29.9940   46.2870 C   0  0  0  0  0  0  0  0  0  0  0  0
   59.0700   28.5900   46.2020 N   0  0  0  0  0  0  0  0  0  0  0  0
   58.8850   27.7960   47.4210 C   0  0  0  0  0  0  0  0  0  0  0  0
   58.1640   26.4870   47.0940 C   0  0  0  0  0  0  0  0  0  0  0  0
   57.1760   26.7290   46.1140 O   0  0  0  0  0  0  0  0  0  0  0  0
   57.7800   26.9530   44.8490 C   0  0  0  0  0  0  0  0  0  0  0  0
   58.9790   27.9300   44.8940 C   0  0  0  0  0  0  0  0  0  0  0  0
   60.5400   30.4230   46.8730 N   0  0  0  0  0  0  0  0  0  0  0  0
   60.8550   31.7630   46.9540 C   0  0  0  0  0  0  0  0  0  0  0  0
   62.1140   32.2080   47.5840 C   0  0  0  0  0  0  0  0  0  0  0  0
   62.9510   33.2120   47.1040 C   0  0  0  0  0  0  0  0  0  0  0  0
   64.0790   33.4270   47.9040 C   0  0  0  0  0  0  0  0  0  0  0  0
   64.1400   32.5980   49.0160 C   0  0  0  0  0  0  0  0  0  0  0  0
   62.7890   31.5990   49.0010 S   0  0  0  0  0  0  0  0  0  0  0  0
   59.9970   32.6990   46.4460 N   0  0  0  0  0  0  0  0  0  0  0  0
   58.8510   32.2740   45.8670 C   0  0  0  0  0  0  0  0  0  0  0  0
   59.7707   35.1885   45.8273 H   0  0  0  0  0  0  0  0  0  0  0  0
   59.8267   34.2503   44.2965 H   0  0  0  0  0  0  0  0  0  0  0  0
   59.1961   35.9323   44.2965 H   0  0  0  0  0  0  0  0  0  0  0  0
   57.4629   34.9419   46.0557 H   0  0  0  0  0  0  0  0  0  0  0  0
   57.2121   34.7133   44.2855 H   0  0  0  0  0  0  0  0  0  0  0  0
   56.0464   32.3878   44.3679 H   0  0  0  0  0  0  0  0  0  0  0  0
   59.8679   27.5697   47.8600 H   0  0  0  0  0  0  0  0  0  0  0  0
   58.2782   28.3714   48.1357 H   0  0  0  0  0  0  0  0  0  0  0  0
   58.8893   25.7540   46.7110 H   0  0  0  0  0  0  0  0  0  0  0  0
   57.6901   26.0907   48.0041 H   0  0  0  0  0  0  0  0  0  0  0  0
   58.1336   25.9877   44.4577 H   0  0  0  0  0  0  0  0  0  0  0  0
   57.0155   27.4133   44.2058 H   0  0  0  0  0  0  0  0  0  0  0  0
   59.9071   27.3695   44.7084 H   0  0  0  0  0  0  0  0  0  0  0  0
   58.8333   28.6999   44.1220 H   0  0  0  0  0  0  0  0  0  0  0  0
   61.2080   29.7100   47.2390 H   0  0  0  0  0  0  0  0  0  0  0  0
   62.7455   33.7809   46.1852 H   0  0  0  0  0  0  0  0  0  0  0  0
   64.8452   34.1818   47.6734 H   0  0  0  0  0  0  0  0  0  0  0  0
   64.9355   32.5956   49.7757 H   0  0  0  0  0  0  0  0  0  0  0  0
  1  2  1  0
  2  3  1  0
  3  4  1  0
  4  5  2  0
  5  6  1  0
  6  7  2  0
  7  8  1  0
  8  9  1  0
  9 10  1  0
 10 11  1  0
 11 12  1  0
 12 13  1  0
  7 14  1  0
 14 15  2  0
 15 16  1  0
 16 17  2  0
 17 18  1  0
 18 19  2  0
 19 20  1  0
 15 21  1  0
 21 22  2  0
 22  3  1  0
 22  6  1  0
 13  8  1  0
 20 16  1  0
  1 23  1  0
  1 24  1  0
  1 25  1  0
  2 26  1  0
  2 27  1  0
  4 28  1  0
  9 29  1  0
  9 30  1  0
 10 31  1  0
 10 32  1  0
 12 33  1  0
 12 34  1  0
 13 35  1  0
 13 36  1  0
 14 37  1  0
 17 38  1  0
 18 39  1  0
 19 40  1  0
M  CHG  1  14   1
M  END
>  <UniqueID>  (6) 
6

>  <SMILES>  (6) 
CCn1cnc2c(N3CCOCC3)[nH+]c(-c3cccs3)nc21

>  <Energy>  (6) 
116.173067815858

>  <Genealogy>  (6) 
CCn1cnc2c(N3CCOCC3)[nH+]c(-c3cccs3)nc21 (protonated)
CCn1cnc2c(N3CCOCC3)[nH+]c(-c3cccs3)nc21 (3D coordinates assigned)
CCn1cnc2c(N3CCOCC3)[nH+]c(-c3cccs3)nc21 (nonaromatic ring conformer: 116.173067815858 kcal/mol)

>  <smiles>  (6) 
CCn1cnc2c(N3CCOCC3)nc(-c3cccs3)nc21

>  <score_type>  (6) 
oracle

>  <origin>  (6) 
adg

>  <m_score__min__energy>  (6) 
-5.3799999999999999

>  <m_primary>  (6) 
energy

$$$$
6:0
     RDKit          3D

 50 52  0  0  0  0  0  0  0  0999 V2000
   62.9920   33.0450   47.4680 C   0  0  0  0  0  0  0  0  0  0  0  0
   62.2430   33.8370   46.4010 C   0  0  0  0  0  0  0  0  0  0  0  0
   60.7890   33.7860   46.6350 N   0  0  0  0  0  0  0  0  0  0  0  0
   59.9620   34.9170   46.1820 C   0  0  0  0  0  0  0  0  0  0  0  0
   59.2440   34.5890   44.8690 C   0  0  0  0  0  0  0  0  0  0  0  0
   58.3510   33.4210   45.0590 N   0  0  0  0  0  0  0  0  0  0  0  0
   57.0670   33.8200   45.6590 C   0  0  0  0  0  0  0  0  0  0  0  0
   58.1090   32.7230   43.7860 C   0  0  0  0  0  0  0  0  0  0  0  0
   60.1570   32.6750   47.3240 C   0  0  0  0  0  0  0  0  0  0  0  0
   60.0060   31.4130   46.7280 C   0  0  0  0  0  0  0  0  0  0  0  0
   59.3760   30.3860   47.4470 C   0  0  0  0  0  0  0  0  0  0  0  0
   59.2020   29.0440   46.8390 C   0  0  0  0  0  0  0  0  0  0  0  0
   59.4110   27.8770   47.5990 C   0  0  0  0  0  0  0  0  0  0  0  0
   59.2410   26.6150   47.0220 C   0  0  0  0  0  0  0  0  0  0  0  0
   58.8630   26.5030   45.6810 C   0  0  0  0  0  0  0  0  0  0  0  0
   58.6540   27.6530   44.9170 C   0  0  0  0  0  0  0  0  0  0  0  0
   58.8220   28.9180   45.4900 C   0  0  0  0  0  0  0  0  0  0  0  0
   58.9170   30.6350   48.7080 N   0  0  0  0  0  0  0  0  0  0  0  0
   59.0590   31.8660   49.2780 C   0  0  0  0  0  0  0  0  0  0  0  0
   58.5630   32.1560   50.6390 C   0  0  0  0  0  0  0  0  0  0  0  0
   57.6080   31.4460   51.3650 C   0  0  0  0  0  0  0  0  0  0  0  0
   57.3560   31.9880   52.6320 C   0  0  0  0  0  0  0  0  0  0  0  0
   58.1040   33.1220   52.9150 C   0  0  0  0  0  0  0  0  0  0  0  0
   59.0780   33.4500   51.5860 S   0  0  0  0  0  0  0  0  0  0  0  0
   59.6730   32.8590   48.5820 N   0  0  0  0  0  0  0  0  0  0  0  0
   62.6736   33.3817   48.4656 H   0  0  0  0  0  0  0  0  0  0  0  0
   62.7687   31.9740   47.3539 H   0  0  0  0  0  0  0  0  0  0  0  0
   64.0738   33.2082   47.3539 H   0  0  0  0  0  0  0  0  0  0  0  0
   62.5762   34.8849   46.4295 H   0  0  0  0  0  0  0  0  0  0  0  0
   62.4574   33.3934   45.4175 H   0  0  0  0  0  0  0  0  0  0  0  0
   59.2119   35.1445   46.9538 H   0  0  0  0  0  0  0  0  0  0  0  0
   60.6194   35.7825   46.0121 H   0  0  0  0  0  0  0  0  0  0  0  0
   58.6466   35.4571   44.5535 H   0  0  0  0  0  0  0  0  0  0  0  0
   59.9914   34.3511   44.0978 H   0  0  0  0  0  0  0  0  0  0  0  0
   57.1508   33.7939   46.7555 H   0  0  0  0  0  0  0  0  0  0  0  0
   56.8120   34.8398   45.3349 H   0  0  0  0  0  0  0  0  0  0  0  0
   56.2789   33.1244   45.3349 H   0  0  0  0  0  0  0  0  0  0  0  0
   57.7549   31.7016   43.9894 H   0  0  0  0  0  0  0  0  0  0  0  0
   57.3470   33.2671   43.2086 H   0  0  0  0  0  0  0  0  0  0  0  0
   59.0442   32.6786   43.2086 H   0  0  0  0  0  0  0  0  0  0  0  0
   60.3774   31.2313   45.7087 H   0  0  0  0  0  0  0  0  0  0  0  0
   59.7102   27.9590   48.6543 H   0  0  0  0  0  0  0  0  0  0  0  0
   59.4049   25.7091   47.6241 H   0  0  0  0  0  0  0  0  0  0  0  0
   58.7302   25.5095   45.2278 H   0  0  0  0  0  0  0  0  0  0  0  0
   58.3565   27.5639   43.8618 H   0  0  0  0  0  0  0  0  0  0  0  0
   58.6560   29.8198   44.8823 H   0  0  0  0  0  0  0  0  0  0  0  0
   58.4700   29.8620   49.2450 H   0  0  0  0  0  0  0  0  0  0  0  0
   57.1019   30.5481   50.9807 H   0  0  0  0  0  0  0  0  0  0  0  0
   56.6319   31.5546   53.3375 H   0  0  0  0  0  0  0  0  0  0  0  0
   58.0659   33.7047   53.8472 H   0  0  0  0  0  0  0  0  0  0  0  0
  1  2  1  0
  2  3  1  0
  3  4  1  0
  4  5  1  0
  5  6  1  0
  6  7  1  0
  6  8  1  0
  3  9  1  0
  9 10  2  0
 10 11  1  0
 11 12  1  0
 12 13  2  0
 13 14  1  0
 14 15  2  0
 15 16  1  0
 16 17  2  0
 11 18  2  0
 18 19  1  0
 19 20  1  0
 20 21  2  0
 21 22  1  0
 22 23  2  0
 23 24  1  0
 19 25  2  0
 25  9  1  0
 17 12  1  0
 24 20  1  0
  1 26  1  0
  1 27  1  0
  1 28  1  0
  2 29  1  0
  2 30  1  0
  4 31  1  0
  4 32  1  0
  5 33  1  0
  5 34  1  0
  7 35  1  0
  7 36  1  0
  7 37  1  0
  8 38  1  0
  8 39  1  0
  8 40  1  0
 10 41  1  0
 13 42  1  0
 14 43  1  0
 15 44  1  0
 16 45  1  0
 17 46  1  0
 18 47  1  0
 21 48  1  0
 22 49  1  0
 23 50  1  0
M  CHG  1  18   1
M  END
>  <UniqueID>  (7) 
7

>  <SMILES>  (7) 
CCN(CCN(C)C)c1cc(-c2ccccc2)[nH+]c(-c2cccs2)n1

>  <Energy>  (7) 
80.2148090640333

>  <Genealogy>  (7) 
CCN(CCN(C)C)c1cc(-c2ccccc2)[nH+]c(-c2cccs2)n1 (protonated)
CCN(CCN(C)C)c1cc(-c2ccccc2)[nH+]c(-c2cccs2)n1 (3D coordinates assigned)
CCN(CCN(C)C)c1cc(-c2ccccc2)[nH+]c(-c2cccs2)n1 (optimized conformer: 80.2148090640333 kcal/mol)

>  <smiles>  (7) 
CCN(CCN(C)C)c1cc(-c2ccccc2)nc(-c2cccs2)n1

>  <score_type>  (7) 
oracle

>  <origin>  (7) 
adg

>  <m_score__min__energy>  (7) 
-5.9199999999999999

>  <m_primary>  (7) 
energy

$$$$
7:0
     RDKit          3D

 50 52  0  0  0  0  0  0  0  0999 V2000
   63.3910   33.7100   46.8430 C   0  0  0  0  0  0  0  0  0  0  0  0
   63.0670   32.3830   47.5200 C   0  0  0  0  0  0  0  0  0  0  0  0
   61.9740   31.7350   46.8670 O   0  0  0  0  0  0  0  0  0  0  0  0
   61.1310   30.7710   47.4440 C   0  0  0  0  0  0  0  0  0  0  0  0
   61.3050   30.2940   48.7570 C   0  0  0  0  0  0  0  0  0  0  0  0
   60.4350   29.3340   49.2780 C   0  0  0  0  0  0  0  0  0  0  0  0
   59.3880   28.8380   48.4990 C   0  0  0  0  0  0  0  0  0  0  0  0
   59.1990   29.2950   47.1860 C   0  0  0  0  0  0  0  0  0  0  0  0
   58.1110   28.7640   46.4070 N   0  0  0  0  0  0  0  0  0  0  0  0
   57.9070   29.0800   44.9920 C   0  0  0  0  0  0  0  0  0  0  0  0
   56.5700   29.7180   44.7830 C   0  0  0  0  0  0  0  0  0  0  0  0
   55.5210   29.0260   44.8850 O   0  0  0  0  0  0  0  0  0  0  0  0
   56.4930   31.1230   44.5150 N   0  0  0  0  0  0  0  0  0  0  0  0
   57.5570   32.0640   44.8450 C   0  0  0  0  0  0  0  0  0  0  0  0
   57.1560   32.9220   46.0470 C   0  0  0  0  0  0  0  0  0  0  0  0
   58.3500   33.4440   46.7180 N   0  0  0  0  0  0  0  0  0  0  0  0
   59.2330   34.3550   46.2310 C   0  0  0  0  0  0  0  0  0  0  0  0
   59.1730   34.9520   44.8580 C   0  0  0  0  0  0  0  0  0  0  0  0
   60.2150   34.6480   47.1750 C   0  0  0  0  0  0  0  0  0  0  0  0
   59.8890   33.8910   48.2790 C   0  0  0  0  0  0  0  0  0  0  0  0
   60.5110   33.7980   49.5210 C   0  0  0  0  0  0  0  0  0  0  0  0
   59.9400   32.9430   50.4800 C   0  0  0  0  0  0  0  0  0  0  0  0
   58.7710   32.2100   50.1790 C   0  0  0  0  0  0  0  0  0  0  0  0
   58.1630   32.3250   48.9150 C   0  0  0  0  0  0  0  0  0  0  0  0
   58.7550   33.1770   47.9780 C   0  0  0  0  0  0  0  0  0  0  0  0
   60.0800   30.2640   46.6680 C   0  0  0  0  0  0  0  0  0  0  0  0
   63.5782   34.4765   47.6094 H   0  0  0  0  0  0  0  0  0  0  0  0
   64.2868   33.5924   46.2156 H   0  0  0  0  0  0  0  0  0  0  0  0
   62.5418   34.0185   46.2156 H   0  0  0  0  0  0  0  0  0  0  0  0
   63.9514   31.7304   47.4766 H   0  0  0  0  0  0  0  0  0  0  0  0
   62.7874   32.5791   48.5656 H   0  0  0  0  0  0  0  0  0  0  0  0
   62.1295   30.6790   49.3750 H   0  0  0  0  0  0  0  0  0  0  0  0
   60.5751   28.9674   50.3056 H   0  0  0  0  0  0  0  0  0  0  0  0
   58.7061   28.0832   48.9178 H   0  0  0  0  0  0  0  0  0  0  0  0
   57.4320   28.1250   46.8830 H   0  0  0  0  0  0  0  0  0  0  0  0
   58.6941   29.7725   44.6590 H   0  0  0  0  0  0  0  0  0  0  0  0
   57.9500   28.1474   44.4103 H   0  0  0  0  0  0  0  0  0  0  0  0
   58.4728   31.5051   45.0879 H   0  0  0  0  0  0  0  0  0  0  0  0
   57.7334   32.7209   43.9805 H   0  0  0  0  0  0  0  0  0  0  0  0
   56.5361   33.7629   45.7024 H   0  0  0  0  0  0  0  0  0  0  0  0
   56.5880   32.3023   46.7564 H   0  0  0  0  0  0  0  0  0  0  0  0
   59.0633   36.0436   44.9373 H   0  0  0  0  0  0  0  0  0  0  0  0
   60.0995   34.7151   44.3144 H   0  0  0  0  0  0  0  0  0  0  0  0
   58.3122   34.5355   44.3144 H   0  0  0  0  0  0  0  0  0  0  0  0
   61.0666   35.3352   47.0630 H   0  0  0  0  0  0  0  0  0  0  0  0
   61.4203   34.3751   49.7449 H   0  0  0  0  0  0  0  0  0  0  0  0
   60.4068   32.8444   51.4711 H   0  0  0  0  0  0  0  0  0  0  0  0
   58.3328   31.5448   50.9376 H   0  0  0  0  0  0  0  0  0  0  0  0
   57.2500   31.7618   48.6718 H   0  0  0  0  0  0  0  0  0  0  0  0
   59.9411   30.6282   45.6394 H   0  0  0  0  0  0  0  0  0  0  0  0
  1  2  1  0
  2  3  1  0
  3  4  1  0
  4  5  2  0
  5  6  1  0
  6  7  2  0
  7  8  1  0
  8  9  1  0
  9 10  1  0
 10 11  1  0
 11 12  2  0
 11 13  1  0
 13 14  1  0
 14 15  1  0
 15 16  1  0
 16 17  1  0
 17 18  1  0
 17 19  2  0
 19 20  1  0
 20 21  2  0
 21 22  1  0
 22 23  2  0
 23 24  1  0
 24 25  2  0
  8 26  2  0
 26  4  1  0
 25 16  1  0
 25 20  1  0
  1 27  1  0
  1 28  1  0
  1 29  1  0
  2 30  1  0
  2 31  1  0
  5 32  1  0
  6 33  1  0
  7 34  1  0
  9 35  1  0
 10 36  1  0
 10 37  1  0
 14 38  1  0
 14 39  1  0
 15 40  1  0
 15 41  1  0
 18 42  1  0
 18 43  1  0
 18 44  1  0
 19 45  1  0
 21 46  1  0
 22 47  1  0
 23 48  1  0
 24 49  1  0
 26 50  1  0
M  CHG  1  13  -1
M  END
>  <UniqueID>  (8) 
8

>  <SMILES>  (8) 
CCOc1cccc(NCC(=O)[N-]CCn2c(C)cc3ccccc32)c1

>  <Energy>  (8) 
76.13404217364923

>  <Genealogy>  (8) 
CCOc1cccc(NCC(=O)[N-]CCn2c(C)cc3ccccc32)c1 (protonated)
CCOc1cccc(NCC(=O)[N-]CCn2c(C)cc3ccccc32)c1 (3D coordinates assigned)
CCOc1cccc(NCC(=O)[N-]CCn2c(C)cc3ccccc32)c1 (optimized conformer: 76.13404217364923 kcal/mol)

>  <smiles>  (8) 
CCOc1cccc(NCC(=O)NCCn2c(C)cc3ccccc32)c1

>  <score_type>  (8) 
oracle

>  <origin>  (8) 
adg

>  <m_score__min__energy>  (8) 
-10.07

>  <m_primary>  (8) 
energy

$$$$
8:0
     RDKit          3D

 78 80  0  0  0  0  0  0  0  0999 V2000
   55.3210   21.3660   45.5940 C   0  0  0  0  0  0  0  0  0  0  0  0
   56.4920   20.4350   45.9000 C   0  0  0  0  0  0  0  0  0  0  0  0
   57.4070   20.3480   44.7530 N   0  0  0  0  0  0  0  0  0  0  0  0
   57.5370   21.6550   44.0870 C   0  0  0  0  0  0  0  0  0  0  0  0
   58.6870   22.4640   44.7070 C   0  0  0  0  0  0  0  0  0  0  0  0
   58.2220   23.6590   45.5740 C   0  0  0  0  0  0  0  0  0  0  0  0
   57.2450   24.5720   44.9350 N   0  0  0  0  0  0  0  0  0  0  0  0
   56.0420   24.8380   45.7490 C   0  0  0  0  0  0  0  0  0  0  0  0
   56.2640   24.4490   47.2090 C   0  0  0  0  0  0  0  0  0  0  0  0
   57.8540   25.7810   44.3320 C   0  0  0  0  0  0  0  0  0  0  0  0
   58.8740   26.3770   45.3030 C   0  0  0  0  0  0  0  0  0  0  0  0
   59.0920   27.8070   44.9920 N   0  0  0  0  0  0  0  0  0  0  0  0
   59.6810   28.5460   46.1200 C   0  0  0  0  0  0  0  0  0  0  0  0
   57.9110   28.4790   44.4030 C   0  0  0  0  0  0  0  0  0  0  0  0
   56.6500   28.4700   45.2960 C   0  0  0  0  0  0  0  0  0  0  0  0
   55.6600   29.3650   44.8200 O   0  0  0  0  0  0  0  0  0  0  0  0
   55.8790   29.7150   43.4640 C   0  0  0  0  0  0  0  0  0  0  0  0
   56.6360   31.0400   43.3460 C   0  0  0  0  0  0  0  0  0  0  0  0
   56.6470   31.7150   44.6010 O   0  0  0  0  0  0  0  0  0  0  0  0
   57.7700   32.3650   45.1350 C   0  0  0  0  0  0  0  0  0  0  0  0
   58.1130   33.6860   44.7830 C   0  0  0  0  0  0  0  0  0  0  0  0
   59.2400   34.2980   45.3400 C   0  0  0  0  0  0  0  0  0  0  0  0
   60.0340   33.6050   46.2620 C   0  0  0  0  0  0  0  0  0  0  0  0
   61.1610   34.2010   46.8420 C   0  0  0  0  0  0  0  0  0  0  0  0
   61.9290   33.4850   47.7710 C   0  0  0  0  0  0  0  0  0  0  0  0
   63.0570   34.0600   48.3700 C   0  0  0  0  0  0  0  0  0  0  0  0
   63.8060   33.3290   49.2950 C   0  0  0  0  0  0  0  0  0  0  0  0
   63.4350   32.0240   49.6290 C   0  0  0  0  0  0  0  0  0  0  0  0
   62.3040   31.4290   49.0360 C   0  0  0  0  0  0  0  0  0  0  0  0
   61.9010   30.1210   49.3480 O   0  0  0  0  0  0  0  0  0  0  0  0
   60.7730   29.7980   50.1540 C   0  0  0  0  0  0  0  0  0  0  0  0
   61.5530   32.1640   48.1040 C   0  0  0  0  0  0  0  0  0  0  0  0
   60.4560   31.6060   47.5210 N   0  0  0  0  0  0  0  0  0  0  0  0
   59.6940   32.2820   46.6200 C   0  0  0  0  0  0  0  0  0  0  0  0
   58.5710   31.6700   46.0500 C   0  0  0  0  0  0  0  0  0  0  0  0
   54.8771   21.7189   46.5366 H   0  0  0  0  0  0  0  0  0  0  0  0
   55.6801   22.2279   45.0125 H   0  0  0  0  0  0  0  0  0  0  0  0
   54.5622   20.8219   45.0125 H   0  0  0  0  0  0  0  0  0  0  0  0
   57.0418   20.8221   46.7706 H   0  0  0  0  0  0  0  0  0  0  0  0
   56.0964   19.4305   46.1107 H   0  0  0  0  0  0  0  0  0  0  0  0
   58.3490   20.0350   45.0870 H   0  0  0  0  0  0  0  0  0  0  0  0
   57.0340   19.6490   44.0670 H   0  0  0  0  0  0  0  0  0  0  0  0
   57.7409   21.4975   43.0176 H   0  0  0  0  0  0  0  0  0  0  0  0
   56.5988   22.2146   44.2163 H   0  0  0  0  0  0  0  0  0  0  0  0
   59.2826   21.7892   45.3394 H   0  0  0  0  0  0  0  0  0  0  0  0
   59.2663   22.8841   43.8716 H   0  0  0  0  0  0  0  0  0  0  0  0
   57.7607   23.2552   46.4873 H   0  0  0  0  0  0  0  0  0  0  0  0
   59.1218   24.2638   45.7602 H   0  0  0  0  0  0  0  0  0  0  0  0
   55.8033   25.9105   45.6961 H   0  0  0  0  0  0  0  0  0  0  0  0
   55.2126   24.2351   45.3509 H   0  0  0  0  0  0  0  0  0  0  0  0
   55.8259   25.2167   47.8637 H   0  0  0  0  0  0  0  0  0  0  0  0
   55.7830   23.4799   47.4075 H   0  0  0  0  0  0  0  0  0  0  0  0
   57.3431   24.3702   47.4075 H   0  0  0  0  0  0  0  0  0  0  0  0
   58.3578   25.5082   43.3930 H   0  0  0  0  0  0  0  0  0  0  0  0
   57.0684   26.5226   44.1250 H   0  0  0  0  0  0  0  0  0  0  0  0
   58.4969   26.2812   46.3319 H   0  0  0  0  0  0  0  0  0  0  0  0
   59.8267   25.8362   45.2034 H   0  0  0  0  0  0  0  0  0  0  0  0
   59.3323   28.1085   47.0671 H   0  0  0  0  0  0  0  0  0  0  0  0
   60.7779   28.4812   46.0681 H   0  0  0  0  0  0  0  0  0  0  0  0
   59.3732   29.6008   46.0681 H   0  0  0  0  0  0  0  0  0  0  0  0
   58.1790   29.5262   44.1993 H   0  0  0  0  0  0  0  0  0  0  0  0
   57.6527   27.9136   43.4955 H   0  0  0  0  0  0  0  0  0  0  0  0
   56.2321   27.4526   45.3112 H   0  0  0  0  0  0  0  0  0  0  0  0
   56.9445   28.7925   46.3056 H   0  0  0  0  0  0  0  0  0  0  0  0
   56.4677   28.9218   42.9800 H   0  0  0  0  0  0  0  0  0  0  0  0
   54.9013   29.8293   42.9731 H   0  0  0  0  0  0  0  0  0  0  0  0
   57.6711   30.8402   43.0320 H   0  0  0  0  0  0  0  0  0  0  0  0
   56.1333   31.6751   42.6017 H   0  0  0  0  0  0  0  0  0  0  0  0
   57.4897   34.2393   44.0651 H   0  0  0  0  0  0  0  0  0  0  0  0
   59.5036   35.3267   45.0531 H   0  0  0  0  0  0  0  0  0  0  0  0
   61.4429   35.2287   46.5692 H   0  0  0  0  0  0  0  0  0  0  0  0
   63.3531   35.0875   48.1119 H   0  0  0  0  0  0  0  0  0  0  0  0
   64.6921   33.7829   49.7627 H   0  0  0  0  0  0  0  0  0  0  0  0
   64.0302   31.4572   50.3601 H   0  0  0  0  0  0  0  0  0  0  0  0
   61.0470   29.8765   51.2164 H   0  0  0  0  0  0  0  0  0  0  0  0
   59.9529   30.4974   49.9342 H   0  0  0  0  0  0  0  0  0  0  0  0
   60.4474   28.7705   49.9342 H   0  0  0  0  0  0  0  0  0  0  0  0
   58.3159   30.6354   46.3229 H   0  0  0  0  0  0  0  0  0  0  0  0
  1  2  1  0
  2  3  1  0
  3  4  1  0
  4  5  1  0
  5  6  1  0
  6  7  1  0
  7  8  1  0
  8  9  1  0
  7 10  1  0
 10 11  1  0
 11 12  1  0
 12 13  1  0
 12 14  1  0
 14 15  1  0
 15 16  1  0
 16 17  1  0
 17 18  1  0
 18 19  1  0
 19 20  1  0
 20 21  2  0
 21 22  1  0
 22 23  2  0
 23 24  1  0
 24 25  2  0
 25 26  1  0
 26 27  2  0
 27 28  1  0
 28 29  2  0
 29 30  1  0
 30 31  1  0
 29 32  1  0
 32 33  2  0
 33 34  1  0
 34 35  2  0
 35 20  1  0
 34 23  1  0
 32 25  1  0
  1 36  1  0
  1 37  1  0
  1 38  1  0
  2 39  1  0
  2 40  1  0
  3 41  1  0
  3 42  1  0
  4 43  1  0
  4 44  1  0
  5 45  1  0
  5 46  1  0
  6 47  1  0
  6 48  1  0
  8 49  1  0
  8 50  1  0
  9 51  1  0
  9 52  1  0
  9 53  1  0
 10 54  1  0
 10 55  1  0
 11 56  1  0
 11 57  1  0
 13 58  1  0
 13 59  1  0
 13 60  1  0
 14 61  1  0
 14 62  1  0
 15 63  1  0
 15 64  1  0
 17 65  1  0
 17 66  1  0
 18 67  1  0
 18 68  1  0
 21 69  1  0
 22 70  1  0
 24 71  1  0
 26 72  1  0
 27 73  1  0
 28 74  1  0
 31 75  1  0
 31 76  1  0
 31 77  1  0
 35 78  1  0
M  CHG  1   3   1
M  END
>  <UniqueID>  (9) 
9

>  <SMILES>  (9) 
CC[NH2+]CCCN(CC)CCN(C)CCOCCOc1ccc2cc3cccc(OC)c3nc2c1

>  <Energy>  (9) 
86.43849663568538

>  <Genealogy>  (9) 
CC[NH2+]CCCN(CC)CCN(C)CCOCCOc1ccc2cc3cccc(OC)c3nc2c1 (protonated)
CC[NH2+]CCCN(CC)CCN(C)CCOCCOc1ccc2cc3cccc(OC)c3nc2c1 (3D coordinates assigned)
CC[NH2+]CCCN(CC)CCN(C)CCOCCOc1ccc2cc3cccc(OC)c3nc2c1 (optimized conformer: 86.43849663568538 kcal/mol)

>  <smiles>  (9) 
CCNCCCN(CC)CCN(C)CCOCCOc1ccc2cc3cccc(OC)c3nc2c1

>  <score_type>  (9) 
oracle

>  <origin>  (9) 
adg

>  <m_score__min__energy>  (9) 
-7.0099999999999998

>  <m_primary>  (9) 
energy

$$$$
9:0
     RDKit          3D

 46 48  0  0  0  0  0  0  0  0999 V2000
   57.7650   26.3560   45.0250 C   0  0  0  0  0  0  0  0  0  0  0  0
   56.7240   27.0530   45.8900 C   0  0  0  0  0  0  0  0  0  0  0  0
   56.2110   28.2390   45.1910 N   0  0  0  0  0  0  0  0  0  0  0  0
   57.0190   28.5600   44.0070 C   0  0  0  0  0  0  0  0  0  0  0  0
   56.5770   29.8990   43.3840 C   0  0  0  0  0  0  0  0  0  0  0  0
   57.0450   31.1280   44.1790 C   0  0  0  0  0  0  0  0  0  0  0  0
   57.3330   30.8130   45.5840 N   0  0  0  0  0  0  0  0  0  0  0  0
   58.4680   31.3520   46.2910 C   0  0  0  0  0  0  0  0  0  0  0  0
   59.1840   30.5510   47.2000 C   0  0  0  0  0  0  0  0  0  0  0  0
   58.6920   29.2940   47.6090 C   0  0  0  0  0  0  0  0  0  0  0  0
   59.3970   28.5150   48.5220 C   0  0  0  0  0  0  0  0  0  0  0  0
   60.5930   28.9780   49.0560 C   0  0  0  0  0  0  0  0  0  0  0  0
   61.1010   30.2170   48.6670 C   0  0  0  0  0  0  0  0  0  0  0  0
   60.4240   31.0180   47.7130 C   0  0  0  0  0  0  0  0  0  0  0  0
   60.9360   32.2280   47.2870 N   0  0  0  0  0  0  0  0  0  0  0  0
   62.3510   32.5700   47.5530 C   0  0  0  0  0  0  0  0  0  0  0  0
   60.1220   33.1190   46.6140 C   0  0  0  0  0  0  0  0  0  0  0  0
   60.4880   34.4780   46.4410 C   0  0  0  0  0  0  0  0  0  0  0  0
   59.6480   35.3700   45.7730 C   0  0  0  0  0  0  0  0  0  0  0  0
   60.0210   36.6650   45.6220 F   0  0  0  0  0  0  0  0  0  0  0  0
   58.4160   34.9420   45.2940 C   0  0  0  0  0  0  0  0  0  0  0  0
   58.0180   33.6200   45.4720 C   0  0  0  0  0  0  0  0  0  0  0  0
   58.8680   32.6880   46.1040 C   0  0  0  0  0  0  0  0  0  0  0  0
   58.5054   25.8603   45.6701 H   0  0  0  0  0  0  0  0  0  0  0  0
   57.2712   25.6057   44.3900 H   0  0  0  0  0  0  0  0  0  0  0  0
   58.2706   27.0984   44.3900 H   0  0  0  0  0  0  0  0  0  0  0  0
   55.8937   26.3603   46.0920 H   0  0  0  0  0  0  0  0  0  0  0  0
   57.1873   27.3620   46.8386 H   0  0  0  0  0  0  0  0  0  0  0  0
   55.2390   28.0190   44.8670 H   0  0  0  0  0  0  0  0  0  0  0  0
   58.0764   28.6318   44.3016 H   0  0  0  0  0  0  0  0  0  0  0  0
   56.8804   27.7634   43.2612 H   0  0  0  0  0  0  0  0  0  0  0  0
   56.9912   29.9636   42.3670 H   0  0  0  0  0  0  0  0  0  0  0  0
   55.4771   29.9105   43.3875 H   0  0  0  0  0  0  0  0  0  0  0  0
   57.9590   31.5233   43.7117 H   0  0  0  0  0  0  0  0  0  0  0  0
   56.2301   31.8667   44.1625 H   0  0  0  0  0  0  0  0  0  0  0  0
   56.7120   30.1290   46.0710 H   0  0  0  0  0  0  0  0  0  0  0  0
   57.7394   28.9247   47.2014 H   0  0  0  0  0  0  0  0  0  0  0  0
   59.0065   27.5311   48.8212 H   0  0  0  0  0  0  0  0  0  0  0  0
   61.1407   28.3657   49.7875 H   0  0  0  0  0  0  0  0  0  0  0  0
   62.0419   30.5786   49.1073 H   0  0  0  0  0  0  0  0  0  0  0  0
   62.5204   32.6109   48.6391 H   0  0  0  0  0  0  0  0  0  0  0  0
   63.0032   31.8036   47.1088 H   0  0  0  0  0  0  0  0  0  0  0  0
   62.5812   33.5496   47.1088 H   0  0  0  0  0  0  0  0  0  0  0  0
   61.4492   34.8347   46.8396 H   0  0  0  0  0  0  0  0  0  0  0  0
   57.7538   35.6492   44.7731 H   0  0  0  0  0  0  0  0  0  0  0  0
   57.0285   33.2980   45.1155 H   0  0  0  0  0  0  0  0  0  0  0  0
  1  2  1  0
  2  3  1  0
  3  4  1  0
  4  5  1  0
  5  6  1  0
  6  7  1  0
  7  8  1  0
  8  9  2  0
  9 10  1  0
 10 11  2  0
 11 12  1  0
 12 13  2  0
 13 14  1  0
 14 15  2  0
 15 16  1  0
 15 17  1  0
 17 18  2  0
 18 19  1  0
 19 20  1  0
 19 21  2  0
 21 22  1  0
 22 23  2  0
 23  8  1  0
 14  9  1  0
 23 17  1  0
  1 24  1  0
  1 25  1  0
  1 26  1  0
  2 27  1  0
  2 28  1  0
  3 29  1  0
  4 30  1  0
  4 31  1  0
  5 32  1  0
  5 33  1  0
  6 34  1  0
  6 35  1  0
  7 36  1  0
 10 37  1  0
 11 38  1  0
 12 39  1  0
 13 40  1  0
 16 41  1  0
 16 42  1  0
 16 43  1  0
 18 44  1  0
 21 45  1  0
 22 46  1  0
M  CHG  1  15   1
M  END
>  <UniqueID>  (10) 
10

>  <SMILES>  (10) 
CCNCCCNc1c2ccccc2[n+](C)c2cc(F)ccc12

>  <Energy>  (10) 
68.51784800758448

>  <Genealogy>  (10) 
CCNCCCNc1c2ccccc2[n+](C)c2cc(F)ccc12 (3D coordinates assigned)
CCNCCCNc1c2ccccc2[n+](C)c2cc(F)ccc12 (optimized conformer: 68.51784800758448 kcal/mol)

>  <smiles>  (10) 
CCNCCCNc1c2ccccc2[n+](C)c2cc(F)ccc12

>  <score_type>  (10) 
oracle

>  <origin>  (10) 
adg

>  <m_score__min__energy>  (10) 
-5.8399999999999999

>  <m_primary>  (10) 
energy

$$$$
10:0
     RDKit          3D

 28 28  0  0  0  0  0  0  0  0999 V2000
   58.1390   26.7530   42.6030 C   0  0  0  0  0  0  0  0  0  0  0  0
   58.2960   27.4740   43.9450 C   0  0  0  0  0  0  0  0  0  0  0  0
   58.1680   28.9390   43.8050 N   0  0  0  0  0  0  0  0  0  0  0  0
   56.8380   29.3550   43.3070 C   0  0  0  0  0  0  0  0  0  0  0  0
   56.2200   30.5060   44.1190 C   0  0  0  0  0  0  0  0  0  0  0  0
   57.0320   30.8530   45.2430 O   0  0  0  0  0  0  0  0  0  0  0  0
   57.7110   32.0660   45.4480 C   0  0  0  0  0  0  0  0  0  0  0  0
   57.7850   32.9610   44.3730 C   0  0  0  0  0  0  0  0  0  0  0  0
   58.4350   34.1910   44.5110 C   0  0  0  0  0  0  0  0  0  0  0  0
   59.0230   34.5370   45.7290 C   0  0  0  0  0  0  0  0  0  0  0  0
   58.9670   33.6520   46.8080 C   0  0  0  0  0  0  0  0  0  0  0  0
   59.7780   34.1250   48.4710 Br  0  0  0  0  0  0  0  0  0  0  0  0
   58.3190   32.4180   46.6720 C   0  0  0  0  0  0  0  0  0  0  0  0
   57.9081   25.6924   42.7814 H   0  0  0  0  0  0  0  0  0  0  0  0
   57.3205   27.2155   42.0319 H   0  0  0  0  0  0  0  0  0  0  0  0
   59.0757   26.8333   42.0319 H   0  0  0  0  0  0  0  0  0  0  0  0
   57.5183   27.1139   44.6346 H   0  0  0  0  0  0  0  0  0  0  0  0
   59.3026   27.2565   44.3316 H   0  0  0  0  0  0  0  0  0  0  0  0
   58.9030   29.2890   43.1480 H   0  0  0  0  0  0  0  0  0  0  0  0
   58.3700   29.3880   44.7260 H   0  0  0  0  0  0  0  0  0  0  0  0
   56.9424   29.6812   42.2617 H   0  0  0  0  0  0  0  0  0  0  0  0
   56.1668   28.4889   43.4044 H   0  0  0  0  0  0  0  0  0  0  0  0
   56.1166   31.3866   43.4680 H   0  0  0  0  0  0  0  0  0  0  0  0
   55.2394   30.1756   44.4922 H   0  0  0  0  0  0  0  0  0  0  0  0
   57.3266   32.6931   43.4096 H   0  0  0  0  0  0  0  0  0  0  0  0
   58.4831   34.8862   43.6599 H   0  0  0  0  0  0  0  0  0  0  0  0
   59.5305   35.5067   45.8389 H   0  0  0  0  0  0  0  0  0  0  0  0
   58.2838   31.7207   47.5220 H   0  0  0  0  0  0  0  0  0  0  0  0
  1  2  1  0
  2  3  1  0
  3  4  1  0
  4  5  1  0
  5  6  1  0
  6  7  1  0
  7  8  2  0
  8  9  1  0
  9 10  2  0
 10 11  1  0
 11 12  1  0
 11 13  2  0
 13  7  1  0
  1 14  1  0
  1 15  1  0
  1 16  1  0
  2 17  1  0
  2 18  1  0
  3 19  1  0
  3 20  1  0
  4 21  1  0
  4 22  1  0
  5 23  1  0
  5 24  1  0
  8 25  1  0
  9 26  1  0
 10 27  1  0
 13 28  1  0
M  CHG  1   3   1
M  END
>  <UniqueID>  (11) 
11

>  <SMILES>  (11) 
CC[NH2+]CCOc1cccc(Br)c1

>  <Energy>  (11) 
27.051715549396388

>  <Genealogy>  (11) 
CC[NH2+]CCOc1cccc(Br)c1 (protonated)
CC[NH2+]CCOc1cccc(Br)c1 (3D coordinates assigned)
CC[NH2+]CCOc1cccc(Br)c1 (optimized conformer: 27.051715549396388 kcal/mol)

>  <smiles>  (11) 
CCNCCOc1cccc(Br)c1

>  <score_type>  (11) 
oracle

>  <origin>  (11) 
adg

>  <m_score__min__energy>  (11) 
-4.4100000000000001

>  <m_primary>  (11) 
energy

$$$$
11:0
     RDKit          3D

 70 73  0  0  0  0  0  0  0  0999 V2000
   58.1580   33.9640   52.7010 C   0  0  0  0  0  0  0  0  0  0  0  0
   57.4850   32.6330   52.3650 C   0  0  0  0  0  0  0  0  0  0  0  0
   58.2400   31.9120   51.3260 N   0  0  0  0  0  0  0  0  0  0  0  0
   57.8990   30.4760   51.2810 C   0  0  0  0  0  0  0  0  0  0  0  0
   58.5370   29.7350   50.0940 C   0  0  0  0  0  0  0  0  0  0  0  0
   59.5330   30.5690   49.4190 N   0  0  0  0  0  0  0  0  0  0  0  0
   59.3890   30.9280   48.0340 C   0  0  0  0  0  0  0  0  0  0  0  0
   59.3160   29.9130   47.0630 C   0  0  0  0  0  0  0  0  0  0  0  0
   59.5230   28.5580   47.4090 C   0  0  0  0  0  0  0  0  0  0  0  0
   59.4870   27.5610   46.4380 C   0  0  0  0  0  0  0  0  0  0  0  0
   59.2590   27.8920   45.1080 C   0  0  0  0  0  0  0  0  0  0  0  0
   59.0360   29.2200   44.7460 C   0  0  0  0  0  0  0  0  0  0  0  0
   59.0240   30.2520   45.7180 C   0  0  0  0  0  0  0  0  0  0  0  0
   58.7400   31.5610   45.3840 N   0  0  0  0  0  0  0  0  0  0  0  0
   58.1200   31.8680   44.0730 C   0  0  0  0  0  0  0  0  0  0  0  0
   59.0190   32.5800   46.2740 C   0  0  0  0  0  0  0  0  0  0  0  0
   59.0200   33.9340   45.8590 C   0  0  0  0  0  0  0  0  0  0  0  0
   59.2660   34.9630   46.7580 C   0  0  0  0  0  0  0  0  0  0  0  0
   59.5620   34.6800   48.0820 C   0  0  0  0  0  0  0  0  0  0  0  0
   59.6430   33.3510   48.5310 C   0  0  0  0  0  0  0  0  0  0  0  0
   60.0450   33.0640   49.8480 O   0  0  0  0  0  0  0  0  0  0  0  0
   60.9650   33.8090   50.6430 C   0  0  0  0  0  0  0  0  0  0  0  0
   62.3280   33.0900   50.8310 C   0  0  0  0  0  0  0  0  0  0  0  0
   63.1800   32.8850   49.6060 N   0  0  0  0  0  0  0  0  0  0  0  0
   64.5860   32.6060   50.0110 C   0  0  0  0  0  0  0  0  0  0  0  0
   63.1400   34.1710   48.8120 C   0  0  0  0  0  0  0  0  0  0  0  0
   62.9410   34.0040   47.2920 C   0  0  0  0  0  0  0  0  0  0  0  0
   63.7520   32.8350   46.7530 C   0  0  0  0  0  0  0  0  0  0  0  0
   63.3910   31.5260   47.4660 C   0  0  0  0  0  0  0  0  0  0  0  0
   62.6500   31.7390   48.8030 C   0  0  0  0  0  0  0  0  0  0  0  0
   59.3400   32.2840   47.6320 C   0  0  0  0  0  0  0  0  0  0  0  0
   58.2166   34.0798   53.7933 H   0  0  0  0  0  0  0  0  0  0  0  0
   59.1723   33.9796   52.2757 H   0  0  0  0  0  0  0  0  0  0  0  0
   57.5693   34.7902   52.2757 H   0  0  0  0  0  0  0  0  0  0  0  0
   57.4388   32.0132   53.2726 H   0  0  0  0  0  0  0  0  0  0  0  0
   56.4719   32.8359   51.9875 H   0  0  0  0  0  0  0  0  0  0  0  0
   59.2610   31.9890   51.5410 H   0  0  0  0  0  0  0  0  0  0  0  0
   58.0720   32.3590   50.3960 H   0  0  0  0  0  0  0  0  0  0  0  0
   58.2457   30.0057   52.2130 H   0  0  0  0  0  0  0  0  0  0  0  0
   56.8079   30.4044   51.1607 H   0  0  0  0  0  0  0  0  0  0  0  0
   59.0257   28.8212   50.4630 H   0  0  0  0  0  0  0  0  0  0  0  0
   57.7443   29.4884   49.3723 H   0  0  0  0  0  0  0  0  0  0  0  0
   60.4370   30.7680   49.9030 H   0  0  0  0  0  0  0  0  0  0  0  0
   59.7148   28.2882   48.4580 H   0  0  0  0  0  0  0  0  0  0  0  0
   59.6393   26.5098   46.7241 H   0  0  0  0  0  0  0  0  0  0  0  0
   59.2544   27.1051   44.3393 H   0  0  0  0  0  0  0  0  0  0  0  0
   58.8666   29.4711   43.6885 H   0  0  0  0  0  0  0  0  0  0  0  0
   57.1447   32.3509   44.2328 H   0  0  0  0  0  0  0  0  0  0  0  0
   58.7762   32.5453   43.5067 H   0  0  0  0  0  0  0  0  0  0  0  0
   57.9791   30.9356   43.5067 H   0  0  0  0  0  0  0  0  0  0  0  0
   58.8221   34.1751   44.8041 H   0  0  0  0  0  0  0  0  0  0  0  0
   59.2258   36.0082   46.4177 H   0  0  0  0  0  0  0  0  0  0  0  0
   59.7354   35.5047   48.7890 H   0  0  0  0  0  0  0  0  0  0  0  0
   61.1448   34.7782   50.1548 H   0  0  0  0  0  0  0  0  0  0  0  0
   60.5161   33.9274   51.6402 H   0  0  0  0  0  0  0  0  0  0  0  0
   62.9170   33.6821   51.5469 H   0  0  0  0  0  0  0  0  0  0  0  0
   62.0661   32.0748   51.1638 H   0  0  0  0  0  0  0  0  0  0  0  0
   64.6555   32.5922   51.1087 H   0  0  0  0  0  0  0  0  0  0  0  0
   64.8956   31.6289   49.6117 H   0  0  0  0  0  0  0  0  0  0  0  0
   65.2452   33.3908   49.6117 H   0  0  0  0  0  0  0  0  0  0  0  0
   62.3108   34.7823   49.1977 H   0  0  0  0  0  0  0  0  0  0  0  0
   64.1286   34.6364   48.9389 H   0  0  0  0  0  0  0  0  0  0  0  0
   61.8751   33.8249   47.0878 H   0  0  0  0  0  0  0  0  0  0  0  0
   63.2838   34.9230   46.7941 H   0  0  0  0  0  0  0  0  0  0  0  0
   63.5488   32.7244   45.6776 H   0  0  0  0  0  0  0  0  0  0  0  0
   64.8176   33.0427   46.9302 H   0  0  0  0  0  0  0  0  0  0  0  0
   62.7460   30.9333   46.8007 H   0  0  0  0  0  0  0  0  0  0  0  0
   64.3354   31.0116   47.6972 H   0  0  0  0  0  0  0  0  0  0  0  0
   61.5884   31.9281   48.5859 H   0  0  0  0  0  0  0  0  0  0  0  0
   62.7988   30.8289   49.4027 H   0  0  0  0  0  0  0  0  0  0  0  0
  1  2  1  0
  2  3  1  0
  3  4  1  0
  4  5  1  0
  5  6  1  0
  6  7  1  0
  7  8  2  0
  8  9  1  0
  9 10  2  0
 10 11  1  0
 11 12  2  0
 12 13  1  0
 13 14  2  0
 14 15  1  0
 14 16  1  0
 16 17  2  0
 17 18  1  0
 18 19  2  0
 19 20  1  0
 20 21  1  0
 21 22  1  0
 22 23  1  0
 23 24  1  0
 24 25  1  0
 24 26  1  0
 26 27  1  0
 27 28  1  0
 28 29  1  0
 29 30  1  0
 20 31  2  0
 31  7  1  0
 13  8  1  0
 31 16  1  0
 30 24  1  0
  1 32  1  0
  1 33  1  0
  1 34  1  0
  2 35  1  0
  2 36  1  0
  3 37  1  0
  3 38  1  0
  4 39  1  0
  4 40  1  0
  5 41  1  0
  5 42  1  0
  6 43  1  0
  9 44  1  0
 10 45  1  0
 11 46  1  0
 12 47  1  0
 15 48  1  0
 15 49  1  0
 15 50  1  0
 17 51  1  0
 18 52  1  0
 19 53  1  0
 22 54  1  0
 22 55  1  0
 23 56  1  0
 23 57  1  0
 25 58  1  0
 25 59  1  0
 25 60  1  0
 26 61  1  0
 26 62  1  0
 27 63  1  0
 27 64  1  0
 28 65  1  0
 28 66  1  0
 29 67  1  0
 29 68  1  0
 30 69  1  0
 30 70  1  0
M  CHG  3   3   1  14   1  24   1
M  END
>  <UniqueID>  (12) 
12

>  <SMILES>  (12) 
CC[NH2+]CCNc1c2ccccc2[n+](C)c2cccc(OCC[N+]3(C)CCCCC3)c12

>  <Energy>  (12) 
115.88375728107907

>  <Genealogy>  (12) 
CC[NH2+]CCNc1c2ccccc2[n+](C)c2cccc(OCC[N+]3(C)CCCCC3)c12 (protonated)
CC[NH2+]CCNc1c2ccccc2[n+](C)c2cccc(OCC[N+]3(C)CCCCC3)c12 (3D coordinates assigned)
CC[NH2+]CCNc1c2ccccc2[n+](C)c2cccc(OCC[N+]3(C)CCCCC3)c12 (nonaromatic ring conformer: 115.88375728107907 kcal/mol)

>  <smiles>  (12) 
CCNCCNc1c2ccccc2[n+](C)c2cccc(OCC[N+]3(C)CCCCC3)c12

>  <score_type>  (12) 
oracle

>  <origin>  (12) 
adg

>  <m_score__min__energy>  (12) 
-3.5299999999999998

>  <m_primary>  (12) 
energy

$$$$
12:0
     RDKit          3D

 69 71  0  0  0  0  0  0  0  0999 V2000
   57.6650   30.8600   51.3060 C   0  0  0  0  0  0  0  0  0  0  0  0
   59.0170   31.5530   51.4640 C   0  0  0  0  0  0  0  0  0  0  0  0
   59.3100   32.3800   50.2710 N   0  0  0  0  0  0  0  0  0  0  0  0
   59.6360   33.7720   50.6600 C   0  0  0  0  0  0  0  0  0  0  0  0
   58.9880   34.1220   51.9970 C   0  0  0  0  0  0  0  0  0  0  0  0
   58.1860   32.3560   49.3050 C   0  0  0  0  0  0  0  0  0  0  0  0
   58.4650   33.2500   48.0890 C   0  0  0  0  0  0  0  0  0  0  0  0
   57.8890   32.6770   46.9330 O   0  0  0  0  0  0  0  0  0  0  0  0
   57.4830   33.6930   46.0420 C   0  0  0  0  0  0  0  0  0  0  0  0
   58.3430   33.6210   44.7770 C   0  0  0  0  0  0  0  0  0  0  0  0
   58.5050   32.2780   44.3560 O   0  0  0  0  0  0  0  0  0  0  0  0
   57.4210   31.8990   43.5340 C   0  0  0  0  0  0  0  0  0  0  0  0
   56.8570   30.5590   43.9980 C   0  0  0  0  0  0  0  0  0  0  0  0
   57.3810   30.2260   45.3320 N   0  0  0  0  0  0  0  0  0  0  0  0
   58.3790   29.1460   45.2750 C   0  0  0  0  0  0  0  0  0  0  0  0
   59.7270   29.6320   45.8430 C   0  0  0  0  0  0  0  0  0  0  0  0
   59.6430   30.8470   46.6830 N   0  0  0  0  0  0  0  0  0  0  0  0
   60.6490   30.9220   47.7310 C   0  0  0  0  0  0  0  0  0  0  0  0
   61.6590   31.9280   47.7820 C   0  0  0  0  0  0  0  0  0  0  0  0
   61.7940   32.9080   46.7670 C   0  0  0  0  0  0  0  0  0  0  0  0
   62.8120   33.8550   46.8120 C   0  0  0  0  0  0  0  0  0  0  0  0
   63.7330   33.8450   47.8490 C   0  0  0  0  0  0  0  0  0  0  0  0
   63.6390   32.8950   48.8600 C   0  0  0  0  0  0  0  0  0  0  0  0
   62.5920   31.9380   48.8780 C   0  0  0  0  0  0  0  0  0  0  0  0
   62.4920   31.0060   49.9000 N   0  0  0  0  0  0  0  0  0  0  0  0
   63.3650   31.0860   51.0910 C   0  0  0  0  0  0  0  0  0  0  0  0
   61.5740   29.9910   49.7880 C   0  0  0  0  0  0  0  0  0  0  0  0
   61.4390   28.8870   50.6600 C   0  0  0  0  0  0  0  0  0  0  0  0
   60.3980   28.0330   50.3130 C   0  0  0  0  0  0  0  0  0  0  0  0
   59.6590   28.6230   48.9240 S   0  0  0  0  0  0  0  0  0  0  0  0
   60.6600   29.9640   48.7480 C   0  0  0  0  0  0  0  0  0  0  0  0
   57.2450   30.6447   52.2996 H   0  0  0  0  0  0  0  0  0  0  0  0
   56.9785   31.5174   50.7523 H   0  0  0  0  0  0  0  0  0  0  0  0
   57.7979   29.9188   50.7523 H   0  0  0  0  0  0  0  0  0  0  0  0
   58.9934   32.1968   52.3556 H   0  0  0  0  0  0  0  0  0  0  0  0
   59.8013   30.7894   51.5730 H   0  0  0  0  0  0  0  0  0  0  0  0
   60.7274   33.8763   50.7489 H   0  0  0  0  0  0  0  0  0  0  0  0
   59.2500   34.4553   49.8892 H   0  0  0  0  0  0  0  0  0  0  0  0
   59.6316   33.7744   52.8185 H   0  0  0  0  0  0  0  0  0  0  0  0
   58.8595   35.2122   52.0680 H   0  0  0  0  0  0  0  0  0  0  0  0
   58.0059   33.6317   52.0680 H   0  0  0  0  0  0  0  0  0  0  0  0
   58.0338   31.3225   48.9605 H   0  0  0  0  0  0  0  0  0  0  0  0
   57.2882   32.7378   49.8132 H   0  0  0  0  0  0  0  0  0  0  0  0
   58.0290   34.2454   48.2595 H   0  0  0  0  0  0  0  0  0  0  0  0
   59.5519   33.3416   47.9466 H   0  0  0  0  0  0  0  0  0  0  0  0
   56.4250   33.5499   45.7771 H   0  0  0  0  0  0  0  0  0  0  0  0
   57.6063   34.6764   46.5193 H   0  0  0  0  0  0  0  0  0  0  0  0
   57.8543   34.1940   43.9753 H   0  0  0  0  0  0  0  0  0  0  0  0
   59.3341   34.0434   44.9992 H   0  0  0  0  0  0  0  0  0  0  0  0
   56.6341   32.6653   43.5928 H   0  0  0  0  0  0  0  0  0  0  0  0
   57.7717   31.8029   42.4958 H   0  0  0  0  0  0  0  0  0  0  0  0
   55.7597   30.6218   44.0431 H   0  0  0  0  0  0  0  0  0  0  0  0
   57.1574   29.7756   43.2867 H   0  0  0  0  0  0  0  0  0  0  0  0
   57.8560   31.0810   45.7110 H   0  0  0  0  0  0  0  0  0  0  0  0
   58.0225   28.2910   45.8681 H   0  0  0  0  0  0  0  0  0  0  0  0
   58.5205   28.8448   44.2265 H   0  0  0  0  0  0  0  0  0  0  0  0
   60.1532   28.8223   46.4536 H   0  0  0  0  0  0  0  0  0  0  0  0
   60.3515   29.8962   44.9768 H   0  0  0  0  0  0  0  0  0  0  0  0
   59.6260   31.6940   46.0760 H   0  0  0  0  0  0  0  0  0  0  0  0
   58.7020   30.8490   47.1390 H   0  0  0  0  0  0  0  0  0  0  0  0
   61.0814   32.9200   45.9291 H   0  0  0  0  0  0  0  0  0  0  0  0
   62.8869   34.6157   46.0210 H   0  0  0  0  0  0  0  0  0  0  0  0
   64.5408   34.5913   47.8717 H   0  0  0  0  0  0  0  0  0  0  0  0
   64.3917   32.8853   49.6621 H   0  0  0  0  0  0  0  0  0  0  0  0
   62.7497   31.0296   52.0011 H   0  0  0  0  0  0  0  0  0  0  0  0
   64.0793   30.2495   51.0789 H   0  0  0  0  0  0  0  0  0  0  0  0
   63.9154   32.0383   51.0789 H   0  0  0  0  0  0  0  0  0  0  0  0
   62.0934   28.7197   51.5282 H   0  0  0  0  0  0  0  0  0  0  0  0
   60.1067   27.1226   50.8573 H   0  0  0  0  0  0  0  0  0  0  0  0
  1  2  1  0
  2  3  1  0
  3  4  1  0
  4  5  1  0
  3  6  1  0
  6  7  1  0
  7  8  1  0
  8  9  1  0
  9 10  1  0
 10 11  1  0
 11 12  1  0
 12 13  1  0
 13 14  1  0
 14 15  1  0
 15 16  1  0
 16 17  1  0
 17 18  1  0
 18 19  2  0
 19 20  1  0
 20 21  2  0
 21 22  1  0
 22 23  2  0
 23 24  1  0
 24 25  2  0
 25 26  1  0
 25 27  1  0
 27 28  1  0
 28 29  2  0
 29 30  1  0
 30 31  1  0
 31 18  1  0
 24 19  1  0
 31 27  2  0
  1 32  1  0
  1 33  1  0
  1 34  1  0
  2 35  1  0
  2 36  1  0
  4 37  1  0
  4 38  1  0
  5 39  1  0
  5 40  1  0
  5 41  1  0
  6 42  1  0
  6 43  1  0
  7 44  1  0
  7 45  1  0
  9 46  1  0
  9 47  1  0
 10 48  1  0
 10 49  1  0
 12 50  1  0
 12 51  1  0
 13 52  1  0
 13 53  1  0
 14 54  1  0
 15 55  1  0
 15 56  1  0
 16 57  1  0
 16 58  1  0
 17 59  1  0
 17 60  1  0
 20 61  1  0
 21 62  1  0
 22 63  1  0
 23 64  1  0
 26 65  1  0
 26 66  1  0
 26 67  1  0
 28 68  1  0
 29 69  1  0
M  CHG  2  17   1  25   1
M  END
>  <UniqueID>  (13) 
13

>  <SMILES>  (13) 
CCN(CC)CCOCCOCCNCC[NH2+]c1c2ccccc2[n+](C)c2ccsc12

>  <Energy>  (13) 
109.09587177121179

>  <Genealogy>  (13) 
CCN(CC)CCOCCOCCNCC[NH2+]c1c2ccccc2[n+](C)c2ccsc12 (protonated)
CCN(CC)CCOCCOCCNCC[NH2+]c1c2ccccc2[n+](C)c2ccsc12 (3D coordinates assigned)
CCN(CC)CCOCCOCCNCC[NH2+]c1c2ccccc2[n+](C)c2ccsc12 (optimized conformer: 109.09587177121179 kcal/mol)

>  <smiles>  (13) 
CCN(CC)CCOCCOCCNCCNc1c2ccccc2[n+](C)c2ccsc12

>  <score_type>  (13) 
oracle

>  <origin>  (13) 
adg

>  <m_score__min__energy>  (13) 
-4.3399999999999999

>  <m_primary>  (13) 
energy

$$$$
13:0
     RDKit          3D

 51 54  0  0  0  0  0  0  0  0999 V2000
   63.3430   33.8370   46.5350 C   0  0  0  0  0  0  0  0  0  0  0  0
   63.3870   32.6290   47.4670 C   0  0  0  0  0  0  0  0  0  0  0  0
   62.0710   32.3910   48.0780 N   0  0  0  0  0  0  0  0  0  0  0  0
   62.1610   31.7630   49.4070 C   0  0  0  0  0  0  0  0  0  0  0  0
   61.3630   30.4440   49.4910 C   0  0  0  0  0  0  0  0  0  0  0  0
   60.2040   30.3890   48.4700 C   0  0  0  0  0  0  0  0  0  0  0  0
   60.6490   30.4120   47.0600 N   0  0  0  0  0  0  0  0  0  0  0  0
   59.5470   30.4780   46.1220 C   0  0  0  0  0  0  0  0  0  0  0  0
   59.0190   31.7390   45.6980 C   0  0  0  0  0  0  0  0  0  0  0  0
   59.4810   32.9600   46.2490 C   0  0  0  0  0  0  0  0  0  0  0  0
   58.9340   34.1800   45.8610 C   0  0  0  0  0  0  0  0  0  0  0  0
   57.9080   34.2210   44.9280 C   0  0  0  0  0  0  0  0  0  0  0  0
   57.4340   33.0440   44.3570 C   0  0  0  0  0  0  0  0  0  0  0  0
   57.9900   31.7860   44.6990 C   0  0  0  0  0  0  0  0  0  0  0  0
   57.5460   30.6240   44.0960 N   0  0  0  0  0  0  0  0  0  0  0  0
   56.6270   30.6570   42.9420 C   0  0  0  0  0  0  0  0  0  0  0  0
   57.9710   29.4230   44.5940 C   0  0  0  0  0  0  0  0  0  0  0  0
   57.5140   28.2120   44.2030 N   0  0  0  0  0  0  0  0  0  0  0  0
   58.2150   27.3160   44.9110 C   0  0  0  0  0  0  0  0  0  0  0  0
   58.0830   25.9320   44.8220 C   0  0  0  0  0  0  0  0  0  0  0  0
   58.9040   25.1340   45.6260 C   0  0  0  0  0  0  0  0  0  0  0  0
   59.8330   25.7290   46.4970 C   0  0  0  0  0  0  0  0  0  0  0  0
   59.9500   27.1270   46.5770 C   0  0  0  0  0  0  0  0  0  0  0  0
   59.1190   27.9260   45.7650 C   0  0  0  0  0  0  0  0  0  0  0  0
   58.9550   29.3130   45.5700 C   0  0  0  0  0  0  0  0  0  0  0  0
   63.3094   34.7600   47.1324 H   0  0  0  0  0  0  0  0  0  0  0  0
   64.2415   33.8435   45.9005 H   0  0  0  0  0  0  0  0  0  0  0  0
   62.4464   33.7781   45.9005 H   0  0  0  0  0  0  0  0  0  0  0  0
   63.6829   31.7399   46.8908 H   0  0  0  0  0  0  0  0  0  0  0  0
   64.1156   32.8278   48.2668 H   0  0  0  0  0  0  0  0  0  0  0  0
   61.5630   33.3020   48.1560 H   0  0  0  0  0  0  0  0  0  0  0  0
   63.2178   31.5509   49.6264 H   0  0  0  0  0  0  0  0  0  0  0  0
   61.7296   32.4627   50.1380 H   0  0  0  0  0  0  0  0  0  0  0  0
   62.0465   29.6048   49.2947 H   0  0  0  0  0  0  0  0  0  0  0  0
   60.9252   30.3811   50.4982 H   0  0  0  0  0  0  0  0  0  0  0  0
   59.6363   29.4622   48.6394 H   0  0  0  0  0  0  0  0  0  0  0  0
   59.5946   31.2910   48.6283 H   0  0  0  0  0  0  0  0  0  0  0  0
   61.2230   29.5610   46.8690 H   0  0  0  0  0  0  0  0  0  0  0  0
   61.3290   31.1740   46.9160 H   0  0  0  0  0  0  0  0  0  0  0  0
   60.2870   32.9436   46.9974 H   0  0  0  0  0  0  0  0  0  0  0  0
   59.3168   35.1151   46.2959 H   0  0  0  0  0  0  0  0  0  0  0  0
   57.4680   35.1868   44.6388 H   0  0  0  0  0  0  0  0  0  0  0  0
   56.6127   33.0907   43.6268 H   0  0  0  0  0  0  0  0  0  0  0  0
   55.5881   30.6943   43.3016 H   0  0  0  0  0  0  0  0  0  0  0  0
   56.8361   31.5482   42.3321 H   0  0  0  0  0  0  0  0  0  0  0  0
   56.7717   29.7531   42.3321 H   0  0  0  0  0  0  0  0  0  0  0  0
   56.7570   27.9850   43.5220 H   0  0  0  0  0  0  0  0  0  0  0  0
   57.3518   25.4781   44.1369 H   0  0  0  0  0  0  0  0  0  0  0  0
   58.8223   24.0382   45.5764 H   0  0  0  0  0  0  0  0  0  0  0  0
   60.4758   25.0929   47.1232 H   0  0  0  0  0  0  0  0  0  0  0  0
   60.6768   27.5898   47.2608 H   0  0  0  0  0  0  0  0  0  0  0  0
  1  2  1  0
  2  3  1  0
  3  4  1  0
  4  5  1  0
  5  6  1  0
  6  7  1  0
  7  8  1  0
  8  9  2  0
  9 10  1  0
 10 11  2  0
 11 12  1  0
 12 13  2  0
 13 14  1  0
 14 15  2  0
 15 16  1  0
 15 17  1  0
 17 18  1  0
 18 19  1  0
 19 20  2  0
 20 21  1  0
 21 22  2  0
 22 23  1  0
 23 24  2  0
 24 25  1  0
 25  8  1  0
 14  9  1  0
 25 17  2  0
 24 19  1  0
  1 26  1  0
  1 27  1  0
  1 28  1  0
  2 29  1  0
  2 30  1  0
  3 31  1  0
  4 32  1  0
  4 33  1  0
  5 34  1  0
  5 35  1  0
  6 36  1  0
  6 37  1  0
  7 38  1  0
  7 39  1  0
 10 40  1  0
 11 41  1  0
 12 42  1  0
 13 43  1  0
 16 44  1  0
 16 45  1  0
 16 46  1  0
 18 47  1  0
 20 48  1  0
 21 49  1  0
 22 50  1  0
 23 51  1  0
M  CHG  2   7   1  15   1
M  END
>  <UniqueID>  (14) 
14

>  <SMILES>  (14) 
CCNCCC[NH2+]c1c2ccccc2[n+](C)c2[nH]c3ccccc3c12

>  <Energy>  (14) 
111.17884154513733

>  <Genealogy>  (14) 
CCNCCC[NH2+]c1c2ccccc2[n+](C)c2[nH]c3ccccc3c12 (protonated)
CCNCCC[NH2+]c1c2ccccc2[n+](C)c2[nH]c3ccccc3c12 (3D coordinates assigned)
CCNCCC[NH2+]c1c2ccccc2[n+](C)c2[nH]c3ccccc3c12 (optimized conformer: 111.17884154513733 kcal/mol)

>  <smiles>  (14) 
CCNCCCNc1c2ccccc2[n+](C)c2[nH]c3ccccc3c12

>  <score_type>  (14) 
oracle

>  <origin>  (14) 
adg

>  <m_score__min__energy>  (14) 
-5.1500000000000004

>  <m_primary>  (14) 
energy

$$$$
14:0
     RDKit          3D

 66 68  0  0  1  0  0  0  0  0999 V2000
   62.7570   34.5170   49.7320 C   0  0  0  0  0  0  0  0  0  0  0  0
   63.8000   33.4640   49.3800 C   0  0  0  0  0  0  0  0  0  0  0  0
   63.4810   32.7030   48.2490 N   0  0  0  0  0  0  0  0  0  0  0  0
   63.7870   33.2020   46.9720 C   0  0  0  0  0  0  0  0  0  0  0  0
   62.4880   33.7940   46.3980 C   0  0  0  0  0  0  0  0  0  0  0  0
   62.5980   31.5980   48.3680 C   0  0  0  0  0  0  0  0  0  0  0  0
   62.5570   30.9870   49.7500 C   0  0  0  0  0  0  0  0  0  0  0  0
   61.3180   30.8450   50.2880 O   0  0  0  0  0  0  0  0  0  0  0  0
   61.0590   29.7240   51.0100 C   0  0  0  0  0  0  0  0  0  0  0  0
   59.7180   29.1010   50.8790 C   0  0  0  0  0  0  0  0  0  0  0  0
   58.9490   29.2560   49.8020 O   0  0  0  0  0  0  0  0  0  0  0  0
   59.2750   28.7210   48.6010 C   0  0  0  0  0  0  0  0  0  0  0  0
   59.7640   29.7680   47.6080 C   0  0  0  0  0  0  0  0  0  0  0  0
   58.7920   30.8240   47.4450 N   0  0  0  0  0  0  0  0  0  0  0  0
   59.0740   32.0020   47.8610 C   0  0  0  0  0  0  0  0  0  0  0  0
   59.3090   32.1950   49.1630 N   0  0  0  0  0  0  0  0  0  0  0  0
   59.6090   33.4320   49.6020 C   0  0  0  0  0  0  0  0  0  0  0  0
   59.7490   33.5930   51.0340 C   0  0  0  0  0  0  0  0  0  0  0  0
   59.6790   32.6440   51.9270 C   0  0  0  0  0  0  0  0  0  0  0  0
   58.5310   31.8860   52.3160 C   0  0  0  0  0  0  0  0  0  0  0  0
   57.4120   31.9570   51.4780 C   0  0  0  0  0  0  0  0  0  0  0  0
   56.2950   31.2090   51.6730 C   0  0  0  0  0  0  0  0  0  0  0  0
   56.1940   30.3220   52.7190 C   0  0  0  0  0  0  0  0  0  0  0  0
   54.7380   29.3770   52.9390 Cl  0  0  0  0  0  0  0  0  0  0  0  0
   57.2690   30.2220   53.5600 C   0  0  0  0  0  0  0  0  0  0  0  0
   58.4250   30.9970   53.3560 C   0  0  0  0  0  0  0  0  0  0  0  0
   59.6510   34.3910   48.6900 N   0  0  0  0  0  0  0  0  0  0  0  0
   59.4270   34.2680   47.3730 C   0  0  0  0  0  0  0  0  0  0  0  0
   59.4960   35.3390   46.4950 C   0  0  0  0  0  0  0  0  0  0  0  0
   59.2450   35.0820   45.1640 C   0  0  0  0  0  0  0  0  0  0  0  0
   58.9350   33.8110   44.6950 C   0  0  0  0  0  0  0  0  0  0  0  0
   58.8730   32.7610   45.5960 C   0  0  0  0  0  0  0  0  0  0  0  0
   59.1190   33.0070   46.9100 C   0  0  0  0  0  0  0  0  0  0  0  0
   62.6746   34.6002   50.8257 H   0  0  0  0  0  0  0  0  0  0  0  0
   63.0597   35.4876   49.3122 H   0  0  0  0  0  0  0  0  0  0  0  0
   61.7835   34.2235   49.3122 H   0  0  0  0  0  0  0  0  0  0  0  0
   64.7573   33.9734   49.1955 H   0  0  0  0  0  0  0  0  0  0  0  0
   63.8482   32.7670   50.2296 H   0  0  0  0  0  0  0  0  0  0  0  0
   64.5578   33.9832   47.0463 H   0  0  0  0  0  0  0  0  0  0  0  0
   64.1764   32.4049   46.3217 H   0  0  0  0  0  0  0  0  0  0  0  0
   61.8264   34.0955   47.2234 H   0  0  0  0  0  0  0  0  0  0  0  0
   62.7269   34.6721   45.7801 H   0  0  0  0  0  0  0  0  0  0  0  0
   61.9820   33.0376   45.7801 H   0  0  0  0  0  0  0  0  0  0  0  0
   61.5838   31.9368   48.1098 H   0  0  0  0  0  0  0  0  0  0  0  0
   62.9716   30.8187   47.6875 H   0  0  0  0  0  0  0  0  0  0  0  0
   63.0189   29.9903   49.6941 H   0  0  0  0  0  0  0  0  0  0  0  0
   63.0940   31.6871   50.4068 H   0  0  0  0  0  0  0  0  0  0  0  0
   61.8007   28.9672   50.7150 H   0  0  0  0  0  0  0  0  0  0  0  0
   61.1043   30.0572   52.0574 H   0  0  0  0  0  0  0  0  0  0  0  0
   59.8752   28.0176   50.9861 H   0  0  0  0  0  0  0  0  0  0  0  0
   59.1444   29.6499   51.6404 H   0  0  0  0  0  0  0  0  0  0  0  0
   60.0720   27.9778   48.7508 H   0  0  0  0  0  0  0  0  0  0  0  0
   58.3670   28.2624   48.1824 H   0  0  0  0  0  0  0  0  0  0  0  0
   60.7059   30.2004   47.9765 H   0  0  0  0  0  0  0  0  0  0  0  0
   59.9174   29.2808   46.6338 H   0  0  0  0  0  0  0  0  0  0  0  0
   59.2580   31.3900   49.8180 H   0  0  0  0  0  0  0  0  0  0  0  0
   59.9318   34.6124   51.4046 H   0  0  0  0  0  0  0  0  0  0  0  0
   60.6182   32.3971   52.4436 H   0  0  0  0  0  0  0  0  0  0  0  0
   57.4384   32.6493   50.6236 H   0  0  0  0  0  0  0  0  0  0  0  0
   55.4501   31.3155   50.9767 H   0  0  0  0  0  0  0  0  0  0  0  0
   57.2284   29.5242   54.4094 H   0  0  0  0  0  0  0  0  0  0  0  0
   59.2701   30.8871   54.0515 H   0  0  0  0  0  0  0  0  0  0  0  0
   59.7410   36.3523   46.8461 H   0  0  0  0  0  0  0  0  0  0  0  0
   59.2918   35.9142   44.4462 H   0  0  0  0  0  0  0  0  0  0  0  0
   58.7420   33.6417   43.6254 H   0  0  0  0  0  0  0  0  0  0  0  0
   58.6287   31.7445   45.2538 H   0  0  0  0  0  0  0  0  0  0  0  0
  1  2  1  0
  2  3  1  0
  3  4  1  0
  4  5  1  0
  3  6  1  0
  6  7  1  0
  7  8  1  0
  8  9  1  0
  9 10  1  0
 10 11  1  0
 11 12  1  0
 12 13  1  0
 13 14  1  0
 14 15  2  0
 15 16  1  0
 16 17  1  0
 17 18  1  0
 18 19  2  0
 19 20  1  0
 20 21  2  0
 21 22  1  0
 22 23  2  0
 23 24  1  0
 23 25  1  0
 25 26  2  0
 17 27  2  0
 27 28  1  0
 28 29  2  0
 29 30  1  0
 30 31  2  0
 31 32  1  0
 32 33  2  0
 33 15  1  0
 26 20  1  0
 33 28  1  0
  1 34  1  0
  1 35  1  0
  1 36  1  0
  2 37  1  0
  2 38  1  0
  4 39  1  0
  4 40  1  0
  5 41  1  0
  5 42  1  0
  5 43  1  0
  6 44  1  0
  6 45  1  0
  7 46  1  0
  7 47  1  0
  9 48  1  0
  9 49  1  0
 10 50  1  0
 10 51  1  0
 12 52  1  0
 12 53  1  0
 13 54  1  0
 13 55  1  0
 16 56  1  0
 18 57  1  0
 19 58  1  0
 21 59  1  0
 22 60  1  0
 25 61  1  0
 26 62  1  0
 29 63  1  0
 30 64  1  0
 31 65  1  0
 32 66  1  0
M  END
>  <smiles>  (15) 
CCN(CC)CCOCCOCCN=c1[nH]c(C=Cc2ccc(Cl)cc2)nc2ccccc12

>  <score_type>  (15) 
oracle

>  <origin>  (15) 
adg

>  <m_score__min__energy>  (15) 
-8.0800000000000001

>  <m_primary>  (15) 
energy

$$$$
15:0
     RDKit          3D

 41 43  0  0  0  0  0  0  0  0999 V2000
   57.8090   25.3910   46.8390 C   0  0  0  0  0  0  0  0  0  0  0  0
   58.1280   26.6640   46.1820 N   0  0  0  0  0  0  0  0  0  0  0  0
   59.5280   27.0600   45.9940 C   0  0  0  0  0  0  0  0  0  0  0  0
   57.0490   27.5000   45.7080 C   0  0  0  0  0  0  0  0  0  0  0  0
   55.8600   27.0900   45.8150 O   0  0  0  0  0  0  0  0  0  0  0  0
   57.3090   28.7900   45.1210 N   0  0  0  0  0  0  0  0  0  0  0  0
   56.2990   29.6090   44.5080 C   0  0  0  0  0  0  0  0  0  0  0  0
   55.0880   29.2600   44.5210 O   0  0  0  0  0  0  0  0  0  0  0  0
   56.6760   30.9110   43.8670 C   0  0  0  0  0  0  0  0  0  0  0  0
   56.8790   31.9230   44.8550 O   0  0  0  0  0  0  0  0  0  0  0  0
   58.0830   32.1640   45.5360 C   0  0  0  0  0  0  0  0  0  0  0  0
   58.8570   33.3180   45.3210 C   0  0  0  0  0  0  0  0  0  0  0  0
   60.0530   33.5090   46.0170 C   0  0  0  0  0  0  0  0  0  0  0  0
   60.5090   32.5490   46.9500 C   0  0  0  0  0  0  0  0  0  0  0  0
   59.7170   31.3930   47.1620 C   0  0  0  0  0  0  0  0  0  0  0  0
   58.5200   31.2150   46.4590 C   0  0  0  0  0  0  0  0  0  0  0  0
   60.0930   30.4610   48.0280 O   0  0  0  0  0  0  0  0  0  0  0  0
   61.2090   30.5370   48.7380 C   0  0  0  0  0  0  0  0  0  0  0  0
   61.4850   29.6020   49.5370 O   0  0  0  0  0  0  0  0  0  0  0  0
   62.0670   31.6430   48.6000 C   0  0  0  0  0  0  0  0  0  0  0  0
   63.2570   31.7360   49.3480 C   0  0  0  0  0  0  0  0  0  0  0  0
   64.0970   32.8370   49.2030 C   0  0  0  0  0  0  0  0  0  0  0  0
   63.7660   33.8560   48.3130 C   0  0  0  0  0  0  0  0  0  0  0  0
   62.5910   33.7810   47.5610 C   0  0  0  0  0  0  0  0  0  0  0  0
   61.7170   32.6760   47.6900 C   0  0  0  0  0  0  0  0  0  0  0  0
   57.8422   25.5233   47.9305 H   0  0  0  0  0  0  0  0  0  0  0  0
   56.8017   25.0661   46.5395 H   0  0  0  0  0  0  0  0  0  0  0  0
   58.5441   24.6295   46.5395 H   0  0  0  0  0  0  0  0  0  0  0  0
   60.0058   27.1951   46.9756 H   0  0  0  0  0  0  0  0  0  0  0  0
   60.0584   26.2767   45.4327 H   0  0  0  0  0  0  0  0  0  0  0  0
   59.5695   28.0051   45.4327 H   0  0  0  0  0  0  0  0  0  0  0  0
   58.2840   29.1630   45.1170 H   0  0  0  0  0  0  0  0  0  0  0  0
   57.6050   30.7751   43.2938 H   0  0  0  0  0  0  0  0  0  0  0  0
   55.8584   31.2264   43.2021 H   0  0  0  0  0  0  0  0  0  0  0  0
   58.5182   34.0760   44.5994 H   0  0  0  0  0  0  0  0  0  0  0  0
   60.6473   34.4170   45.8372 H   0  0  0  0  0  0  0  0  0  0  0  0
   57.9154   30.3135   46.6373 H   0  0  0  0  0  0  0  0  0  0  0  0
   63.5244   30.9336   50.0513 H   0  0  0  0  0  0  0  0  0  0  0  0
   65.0235   32.9021   49.7923 H   0  0  0  0  0  0  0  0  0  0  0  0
   64.4328   34.7238   48.2017 H   0  0  0  0  0  0  0  0  0  0  0  0
   62.3423   34.5912   46.8598 H   0  0  0  0  0  0  0  0  0  0  0  0
  1  2  1  0
  2  3  1  0
  2  4  1  0
  4  5  2  0
  4  6  1  0
  6  7  1  0
  7  8  2  0
  7  9  1  0
  9 10  1  0
 10 11  1  0
 11 12  2  0
 12 13  1  0
 13 14  2  0
 14 15  1  0
 15 16  2  0
 15 17  1  0
 17 18  1  0
 18 19  2  0
 18 20  1  0
 20 21  2  0
 21 22  1  0
 22 23  2  0
 23 24  1  0
 24 25  2  0
 16 11  1  0
 25 20  1  0
 25 14  1  0
  1 26  1  0
  1 27  1  0
  1 28  1  0
  3 29  1  0
  3 30  1  0
  3 31  1  0
  6 32  1  0
  9 33  1  0
  9 34  1  0
 12 35  1  0
 13 36  1  0
 16 37  1  0
 21 38  1  0
 22 39  1  0
 23 40  1  0
 24 41  1  0
M  END
>  <UniqueID>  (16) 
15

>  <SMILES>  (16) 
CN(C)C(=O)NC(=O)COc1ccc2c(c1)oc(=O)c1ccccc12

>  <Energy>  (16) 
52.87400834565987

>  <Genealogy>  (16) 
CN(C)C(=O)NC(=O)COc1ccc2c(c1)oc(=O)c1ccccc12 (3D coordinates assigned)
CN(C)C(=O)NC(=O)COc1ccc2c(c1)oc(=O)c1ccccc12 (optimized conformer: 52.87400834565987 kcal/mol)

>  <smiles>  (16) 
CN(C)C(=O)NC(=O)COc1ccc2c(c1)oc(=O)c1ccccc12

>  <score_type>  (16) 
oracle

>  <origin>  (16) 
adg

>  <m_score__min__energy>  (16) 
-7.9199999999999999

>  <m_primary>  (16) 
energy

$$$$
16:0
     RDKit          3D

 50 53  0  0  0  0  0  0  0  0999 V2000
   61.1700   30.0770   49.2880 C   0  0  0  0  0  0  0  0  0  0  0  0
   61.7950   31.1900   49.9170 O   0  0  0  0  0  0  0  0  0  0  0  0
   63.1510   31.2460   50.2750 C   0  0  0  0  0  0  0  0  0  0  0  0
   63.7300   30.2960   51.1400 C   0  0  0  0  0  0  0  0  0  0  0  0
   65.0880   30.3640   51.4590 C   0  0  0  0  0  0  0  0  0  0  0  0
   65.8830   31.3760   50.9220 C   0  0  0  0  0  0  0  0  0  0  0  0
   65.3220   32.3260   50.0680 C   0  0  0  0  0  0  0  0  0  0  0  0
   63.9580   32.2710   49.7400 C   0  0  0  0  0  0  0  0  0  0  0  0
   63.3960   33.2750   48.8740 N   0  0  0  0  0  0  0  0  0  0  0  0
   63.5040   33.1370   47.4160 C   0  0  0  0  0  0  0  0  0  0  0  0
   62.3290   33.8400   46.7190 C   0  0  0  0  0  0  0  0  0  0  0  0
   61.1070   33.7220   47.5440 N   0  0  0  0  0  0  0  0  0  0  0  0
   59.8770   34.0700   46.7900 C   0  0  0  0  0  0  0  0  0  0  0  0
   59.2020   32.8850   46.1380 C   0  0  0  0  0  0  0  0  0  0  0  0
   59.5870   31.6060   46.3930 N   0  0  0  0  0  0  0  0  0  0  0  0
   58.7300   30.8750   45.6590 C   0  0  0  0  0  0  0  0  0  0  0  0
   58.6640   29.4870   45.5680 C   0  0  0  0  0  0  0  0  0  0  0  0
   57.6540   28.9310   44.7610 C   0  0  0  0  0  0  0  0  0  0  0  0
   56.7430   29.7670   44.0770 C   0  0  0  0  0  0  0  0  0  0  0  0
   56.8350   31.1670   44.1920 C   0  0  0  0  0  0  0  0  0  0  0  0
   57.8570   31.6860   44.9920 C   0  0  0  0  0  0  0  0  0  0  0  0
   58.1520   32.9670   45.2720 N   0  0  0  0  0  0  0  0  0  0  0  0
   57.3970   34.1560   44.8720 C   0  0  0  0  0  0  0  0  0  0  0  0
   61.2280   34.4900   48.8100 C   0  0  0  0  0  0  0  0  0  0  0  0
   62.6400   34.4020   49.4330 C   0  0  0  0  0  0  0  0  0  0  0  0
   60.7845   29.3905   50.0562 H   0  0  0  0  0  0  0  0  0  0  0  0
   60.3381   30.4298   48.6608 H   0  0  0  0  0  0  0  0  0  0  0  0
   61.9043   29.5503   48.6608 H   0  0  0  0  0  0  0  0  0  0  0  0
   63.1081   29.4954   51.5669 H   0  0  0  0  0  0  0  0  0  0  0  0
   65.5312   29.6180   52.1350 H   0  0  0  0  0  0  0  0  0  0  0  0
   66.9531   31.4253   51.1719 H   0  0  0  0  0  0  0  0  0  0  0  0
   65.9528   33.1237   49.6487 H   0  0  0  0  0  0  0  0  0  0  0  0
   64.4480   33.5899   47.0787 H   0  0  0  0  0  0  0  0  0  0  0  0
   63.4819   32.0680   47.1578 H   0  0  0  0  0  0  0  0  0  0  0  0
   62.5724   34.9035   46.5786 H   0  0  0  0  0  0  0  0  0  0  0  0
   62.1524   33.3654   45.7425 H   0  0  0  0  0  0  0  0  0  0  0  0
   60.9990   32.7100   47.8040 H   0  0  0  0  0  0  0  0  0  0  0  0
   59.1637   34.5348   47.4865 H   0  0  0  0  0  0  0  0  0  0  0  0
   60.1807   34.7497   45.9802 H   0  0  0  0  0  0  0  0  0  0  0  0
   59.3770   28.8470   46.1085 H   0  0  0  0  0  0  0  0  0  0  0  0
   57.5732   27.8384   44.6620 H   0  0  0  0  0  0  0  0  0  0  0  0
   55.9566   29.3208   43.4504 H   0  0  0  0  0  0  0  0  0  0  0  0
   56.1278   31.8290   43.6708 H   0  0  0  0  0  0  0  0  0  0  0  0
   57.0560   34.6929   45.7695 H   0  0  0  0  0  0  0  0  0  0  0  0
   58.0421   34.8156   44.2730 H   0  0  0  0  0  0  0  0  0  0  0  0
   56.5257   33.8527   44.2730 H   0  0  0  0  0  0  0  0  0  0  0  0
   61.0006   35.5462   48.6032 H   0  0  0  0  0  0  0  0  0  0  0  0
   60.5209   34.0531   49.5306 H   0  0  0  0  0  0  0  0  0  0  0  0
   63.1826   35.3362   49.2261 H   0  0  0  0  0  0  0  0  0  0  0  0
   62.5341   34.2477   50.5170 H   0  0  0  0  0  0  0  0  0  0  0  0
  1  2  1  0
  2  3  1  0
  3  4  2  0
  4  5  1  0
  5  6  2  0
  6  7  1  0
  7  8  2  0
  8  9  1  0
  9 10  1  0
 10 11  1  0
 11 12  1  0
 12 13  1  0
 13 14  1  0
 14 15  2  0
 15 16  1  0
 16 17  2  0
 17 18  1  0
 18 19  2  0
 19 20  1  0
 20 21  2  0
 21 22  1  0
 22 23  1  0
 12 24  1  0
 24 25  1  0
  8  3  1  0
 25  9  1  0
 22 14  1  0
 21 16  1  0
  1 26  1  0
  1 27  1  0
  1 28  1  0
  4 29  1  0
  5 30  1  0
  6 31  1  0
  7 32  1  0
 10 33  1  0
 10 34  1  0
 11 35  1  0
 11 36  1  0
 12 37  1  0
 13 38  1  0
 13 39  1  0
 17 40  1  0
 18 41  1  0
 19 42  1  0
 20 43  1  0
 23 44  1  0
 23 45  1  0
 23 46  1  0
 24 47  1  0
 24 48  1  0
 25 49  1  0
 25 50  1  0
M  CHG  1  12   1
M  END
>  <UniqueID>  (17) 
16

>  <SMILES>  (17) 
COc1ccccc1N1CC[NH+](Cc2nc3ccccc3n2C)CC1

>  <Energy>  (17) 
103.62593459701657

>  <Genealogy>  (17) 
COc1ccccc1N1CC[NH+](Cc2nc3ccccc3n2C)CC1 (protonated)
COc1ccccc1N1CC[NH+](Cc2nc3ccccc3n2C)CC1 (3D coordinates assigned)
COc1ccccc1N1CC[NH+](Cc2nc3ccccc3n2C)CC1 (nonaromatic ring conformer: 103.62593459701657 kcal/mol)

>  <smiles>  (17) 
COc1ccccc1N1CCN(Cc2nc3ccccc3n2C)CC1

>  <score_type>  (17) 
oracle

>  <origin>  (17) 
adg

>  <m_score__min__energy>  (17) 
-5.1399999999999997

>  <m_primary>  (17) 
energy

$$$$
17:0
     RDKit          3D

 49 51  0  0  0  0  0  0  0  0999 V2000
   60.3940   27.1400   48.5600 C   0  0  0  0  0  0  0  0  0  0  0  0
   59.9640   27.0820   47.2070 O   0  0  0  0  0  0  0  0  0  0  0  0
   59.5030   28.1810   46.4580 C   0  0  0  0  0  0  0  0  0  0  0  0
   59.9990   29.4730   46.6890 C   0  0  0  0  0  0  0  0  0  0  0  0
   59.5220   30.5600   45.9670 C   0  0  0  0  0  0  0  0  0  0  0  0
   58.5330   30.3860   44.9970 C   0  0  0  0  0  0  0  0  0  0  0  0
   58.0440   31.5040   44.3000 C   0  0  0  0  0  0  0  0  0  0  0  0
   57.0450   31.3540   43.3410 C   0  0  0  0  0  0  0  0  0  0  0  0
   56.5350   30.0900   43.0600 C   0  0  0  0  0  0  0  0  0  0  0  0
   57.0120   28.9660   43.7370 C   0  0  0  0  0  0  0  0  0  0  0  0
   58.0170   29.0880   44.7270 C   0  0  0  0  0  0  0  0  0  0  0  0
   58.5200   27.9710   45.4610 C   0  0  0  0  0  0  0  0  0  0  0  0
   58.0010   26.5520   45.2550 C   0  0  0  0  0  0  0  0  0  0  0  0
   57.3760   25.9710   46.5340 C   0  0  0  0  0  0  0  0  0  0  0  0
   55.8950   25.7440   46.3850 C   0  0  0  0  0  0  0  0  0  0  0  0
   55.1700   26.6950   45.9900 O   0  0  0  0  0  0  0  0  0  0  0  0
   55.2900   24.4620   46.6090 N   0  0  0  0  0  0  0  0  0  0  0  0
   55.0310   23.4570   45.5840 C   0  0  0  0  0  0  0  0  0  0  0  0
   56.1710   23.4330   44.5570 C   0  0  2  0  0  0  0  0  0  0  0  0
   55.6570   23.1000   43.1520 C   0  0  0  0  0  0  0  0  0  0  0  0
   56.6240   22.0710   42.6160 C   0  0  0  0  0  0  0  0  0  0  0  0
   57.1970   21.4150   43.8550 C   0  0  0  0  0  0  0  0  0  0  0  0
   57.1630   22.4050   44.9420 N   0  0  0  0  0  0  0  0  0  0  0  0
   58.4920   22.9980   45.1560 C   0  0  0  0  0  0  0  0  0  0  0  0
   59.5263   27.0230   49.2258 H   0  0  0  0  0  0  0  0  0  0  0  0
   61.1144   26.3309   48.7508 H   0  0  0  0  0  0  0  0  0  0  0  0
   60.8743   28.1111   48.7508 H   0  0  0  0  0  0  0  0  0  0  0  0
   60.7761   29.6274   47.4521 H   0  0  0  0  0  0  0  0  0  0  0  0
   59.9263   31.5645   46.1609 H   0  0  0  0  0  0  0  0  0  0  0  0
   58.4524   32.5030   44.5129 H   0  0  0  0  0  0  0  0  0  0  0  0
   56.6593   32.2343   42.8060 H   0  0  0  0  0  0  0  0  0  0  0  0
   55.7497   29.9756   42.2983 H   0  0  0  0  0  0  0  0  0  0  0  0
   56.6021   27.9735   43.4984 H   0  0  0  0  0  0  0  0  0  0  0  0
   57.2383   26.5653   44.4624 H   0  0  0  0  0  0  0  0  0  0  0  0
   58.8552   25.9168   44.9778 H   0  0  0  0  0  0  0  0  0  0  0  0
   57.8614   25.0105   46.7619 H   0  0  0  0  0  0  0  0  0  0  0  0
   57.5286   26.6965   47.3467 H   0  0  0  0  0  0  0  0  0  0  0  0
   54.9501   22.4680   46.0586 H   0  0  0  0  0  0  0  0  0  0  0  0
   54.0921   23.7073   45.0685 H   0  0  0  0  0  0  0  0  0  0  0  0
   56.6264   24.4342   44.5427 H   0  0  0  0  0  0  0  0  0  0  0  0
   54.6392   22.6857   43.2008 H   0  0  0  0  0  0  0  0  0  0  0  0
   55.6037   23.9912   42.5094 H   0  0  0  0  0  0  0  0  0  0  0  0
   56.1005   21.3327   41.9909 H   0  0  0  0  0  0  0  0  0  0  0  0
   57.4018   22.5169   41.9786 H   0  0  0  0  0  0  0  0  0  0  0  0
   56.5920   20.5378   44.1282 H   0  0  0  0  0  0  0  0  0  0  0  0
   58.2285   21.0801   43.6713 H   0  0  0  0  0  0  0  0  0  0  0  0
   58.6855   23.0843   46.2354 H   0  0  0  0  0  0  0  0  0  0  0  0
   59.2582   22.3564   44.6963 H   0  0  0  0  0  0  0  0  0  0  0  0
   58.5262   23.9968   44.6963 H   0  0  0  0  0  0  0  0  0  0  0  0
  1  2  1  0
  2  3  1  0
  3  4  2  0
  4  5  1  0
  5  6  2  0
  6  7  1  0
  7  8  2  0
  8  9  1  0
  9 10  2  0
 10 11  1  0
 11 12  2  0
 12 13  1  0
 13 14  1  0
 14 15  1  0
 15 16  2  0
 15 17  1  0
 17 18  1  0
 18 19  1  0
 19 20  1  0
 20 21  1  0
 21 22  1  0
 22 23  1  0
 23 24  1  0
 12  3  1  0
 23 19  1  0
 11  6  1  0
  1 25  1  0
  1 26  1  0
  1 27  1  0
  4 28  1  0
  5 29  1  0
  7 30  1  0
  8 31  1  0
  9 32  1  0
 10 33  1  0
 13 34  1  0
 13 35  1  0
 14 36  1  0
 14 37  1  0
 18 38  1  0
 18 39  1  0
 19 40  1  6
 20 41  1  0
 20 42  1  0
 21 43  1  0
 21 44  1  0
 22 45  1  0
 22 46  1  0
 24 47  1  0
 24 48  1  0
 24 49  1  0
M  CHG  1  17  -1
M  END
>  <UniqueID>  (18) 
17

>  <SMILES>  (18) 
COc1ccc2ccccc2c1CCC(=O)[N-]C[C@@H]1CCCN1C

>  <Energy>  (18) 
53.227572262398596

>  <Genealogy>  (18) 
COc1ccc2ccccc2c1CCC(=O)[N-]CC1CCCN1C (protonated)
COc1ccc2ccccc2c1CCC(=O)[N-]C[C@@H]1CCCN1C (chirality)
COc1ccc2ccccc2c1CCC(=O)[N-]C[C@@H]1CCCN1C (3D coordinates assigned)
COc1ccc2ccccc2c1CCC(=O)[N-]C[C@@H]1CCCN1C (nonaromatic ring conformer: 53.227572262398596 kcal/mol)

>  <smiles>  (18) 
COc1ccc2ccccc2c1CCC(=O)NCC1CCCN1C

>  <score_type>  (18) 
oracle

>  <origin>  (18) 
adg

>  <m_score__min__energy>  (18) 
-10.33

>  <m_primary>  (18) 
energy

$$$$
18:0
     RDKit          3D

 70 74  0  0  0  0  0  0  0  0999 V2000
   59.6150   28.2630   47.2220 C   0  0  0  0  0  0  0  0  0  0  0  0
   60.0340   29.2440   46.1110 C   0  0  0  0  0  0  0  0  0  0  0  0
   60.9680   28.6010   45.0780 C   0  0  0  0  0  0  0  0  0  0  0  0
   58.8520   29.9330   45.4390 C   0  0  0  0  0  0  0  0  0  0  0  0
   58.5030   31.2890   45.5170 C   0  0  0  0  0  0  0  0  0  0  0  0
   59.1290   32.4110   46.2430 C   0  0  0  0  0  0  0  0  0  0  0  0
   60.0380   33.0920   45.7000 O   0  0  0  0  0  0  0  0  0  0  0  0
   58.6580   32.7700   47.5490 N   0  0  0  0  0  0  0  0  0  0  0  0
   58.9750   34.0580   48.1690 C   0  0  0  0  0  0  0  0  0  0  0  0
   60.0020   33.8950   49.3170 C   0  0  0  0  0  0  0  0  0  0  0  0
   61.3120   33.3490   48.8980 N   0  0  0  0  0  0  0  0  0  0  0  0
   61.3290   31.8930   48.6950 C   0  0  0  0  0  0  0  0  0  0  0  0
   62.7820   31.3840   48.5980 C   0  0  0  0  0  0  0  0  0  0  0  0
   63.7180   32.3700   48.0040 N   0  0  0  0  0  0  0  0  0  0  0  0
   64.4980   33.0860   49.0350 C   0  0  0  0  0  0  0  0  0  0  0  0
   63.0420   33.3060   47.0820 C   0  0  0  0  0  0  0  0  0  0  0  0
   61.9170   34.1010   47.7780 C   0  0  0  0  0  0  0  0  0  0  0  0
   57.3860   31.4170   44.7250 C   0  0  0  0  0  0  0  0  0  0  0  0
   57.0700   30.2260   44.1980 N   0  0  0  0  0  0  0  0  0  0  0  0
   57.9360   29.3260   44.6380 N   0  0  0  0  0  0  0  0  0  0  0  0
   57.7840   27.9310   44.3190 C   0  0  0  0  0  0  0  0  0  0  0  0
   57.9490   27.5110   43.0360 N   0  0  0  0  0  0  0  0  0  0  0  0
   57.7700   26.2070   42.6960 C   0  0  0  0  0  0  0  0  0  0  0  0
   57.3970   25.2620   43.6680 C   0  0  0  0  0  0  0  0  0  0  0  0
   57.2060   25.7250   44.9880 C   0  0  0  0  0  0  0  0  0  0  0  0
   57.3880   27.0420   45.2640 N   0  0  0  0  0  0  0  0  0  0  0  0
   56.7910   24.8330   46.0940 C   0  0  0  0  0  0  0  0  0  0  0  0
   57.4170   24.9500   47.3460 C   0  0  0  0  0  0  0  0  0  0  0  0
   57.0270   24.1350   48.4130 C   0  0  0  0  0  0  0  0  0  0  0  0
   55.9960   23.2090   48.2450 C   0  0  0  0  0  0  0  0  0  0  0  0
   55.3650   23.0810   47.0090 C   0  0  0  0  0  0  0  0  0  0  0  0
   55.7530   23.8890   45.9220 C   0  0  0  0  0  0  0  0  0  0  0  0
   55.1150   23.6870   44.5690 C   0  0  0  0  0  0  0  0  0  0  0  0
   56.0980   22.9990   43.6170 C   0  0  0  0  0  0  0  0  0  0  0  0
   57.4050   23.7820   43.3240 C   0  0  0  0  0  0  0  0  0  0  0  0
   59.8091   28.7174   48.2048 H   0  0  0  0  0  0  0  0  0  0  0  0
   58.5424   28.0383   47.1274 H   0  0  0  0  0  0  0  0  0  0  0  0
   60.1943   27.3327   47.1274 H   0  0  0  0  0  0  0  0  0  0  0  0
   60.6059   30.0317   46.6234 H   0  0  0  0  0  0  0  0  0  0  0  0
   61.7665   28.0513   45.5977 H   0  0  0  0  0  0  0  0  0  0  0  0
   60.3943   27.9055   44.4477 H   0  0  0  0  0  0  0  0  0  0  0  0
   61.4129   29.3851   44.4477 H   0  0  0  0  0  0  0  0  0  0  0  0
   58.1120   32.0700   48.0990 H   0  0  0  0  0  0  0  0  0  0  0  0
   59.3953   34.7290   47.4054 H   0  0  0  0  0  0  0  0  0  0  0  0
   58.0490   34.4770   48.5897 H   0  0  0  0  0  0  0  0  0  0  0  0
   60.1709   34.8834   49.7693 H   0  0  0  0  0  0  0  0  0  0  0  0
   59.5711   33.1671   50.0201 H   0  0  0  0  0  0  0  0  0  0  0  0
   60.8282   31.4024   49.5427 H   0  0  0  0  0  0  0  0  0  0  0  0
   60.8030   31.6557   47.7585 H   0  0  0  0  0  0  0  0  0  0  0  0
   63.1327   31.1380   49.6112 H   0  0  0  0  0  0  0  0  0  0  0  0
   62.7731   30.5070   47.9341 H   0  0  0  0  0  0  0  0  0  0  0  0
   64.1585   32.7744   50.0338 H   0  0  0  0  0  0  0  0  0  0  0  0
   65.5654   32.8466   48.9193 H   0  0  0  0  0  0  0  0  0  0  0  0
   64.3507   34.1699   48.9193 H   0  0  0  0  0  0  0  0  0  0  0  0
   63.7856   34.0149   46.6891 H   0  0  0  0  0  0  0  0  0  0  0  0
   62.5867   32.7140   46.2744 H   0  0  0  0  0  0  0  0  0  0  0  0
   62.3360   35.0405   48.1676 H   0  0  0  0  0  0  0  0  0  0  0  0
   61.1289   34.2918   47.0347 H   0  0  0  0  0  0  0  0  0  0  0  0
   56.8361   32.3536   44.5507 H   0  0  0  0  0  0  0  0  0  0  0  0
   57.9180   25.8890   41.6534 H   0  0  0  0  0  0  0  0  0  0  0  0
   58.2200   25.6883   47.4880 H   0  0  0  0  0  0  0  0  0  0  0  0
   57.5330   24.2236   49.3857 H   0  0  0  0  0  0  0  0  0  0  0  0
   55.6810   22.5790   49.0899 H   0  0  0  0  0  0  0  0  0  0  0  0
   54.5584   22.3440   46.8812 H   0  0  0  0  0  0  0  0  0  0  0  0
   54.2181   23.0600   44.6804 H   0  0  0  0  0  0  0  0  0  0  0  0
   54.8392   24.6671   44.1527 H   0  0  0  0  0  0  0  0  0  0  0  0
   56.3753   22.0304   44.0585 H   0  0  0  0  0  0  0  0  0  0  0  0
   55.5748   22.9143   42.6531 H   0  0  0  0  0  0  0  0  0  0  0  0
   58.2146   23.3090   43.8991 H   0  0  0  0  0  0  0  0  0  0  0  0
   57.5349   23.7362   42.2327 H   0  0  0  0  0  0  0  0  0  0  0  0
  1  2  1  0
  2  3  1  0
  2  4  1  0
  4  5  2  0
  5  6  1  0
  6  7  2  0
  6  8  1  0
  8  9  1  0
  9 10  1  0
 10 11  1  0
 11 12  1  0
 12 13  1  0
 13 14  1  0
 14 15  1  0
 14 16  1  0
 16 17  1  0
  5 18  1  0
 18 19  2  0
 19 20  1  0
 20 21  1  0
 21 22  2  0
 22 23  1  0
 23 24  2  0
 24 25  1  0
 25 26  2  0
 25 27  1  0
 27 28  2  0
 28 29  1  0
 29 30  2  0
 30 31  1  0
 31 32  2  0
 32 33  1  0
 33 34  1  0
 34 35  1  0
 20  4  1  0
 26 21  1  0
 32 27  1  0
 17 11  1  0
 35 24  1  0
  1 36  1  0
  1 37  1  0
  1 38  1  0
  2 39  1  0
  3 40  1  0
  3 41  1  0
  3 42  1  0
  8 43  1  0
  9 44  1  0
  9 45  1  0
 10 46  1  0
 10 47  1  0
 12 48  1  0
 12 49  1  0
 13 50  1  0
 13 51  1  0
 15 52  1  0
 15 53  1  0
 15 54  1  0
 16 55  1  0
 16 56  1  0
 17 57  1  0
 17 58  1  0
 18 59  1  0
 23 60  1  0
 28 61  1  0
 29 62  1  0
 30 63  1  0
 31 64  1  0
 33 65  1  0
 33 66  1  0
 34 67  1  0
 34 68  1  0
 35 69  1  0
 35 70  1  0
M  END
>  <UniqueID>  (19) 
18

>  <SMILES>  (19) 
CC(C)c1c(C(=O)NCCN2CCN(C)CC2)cnn1-c1ncc2c(n1)-c1ccccc1CCC2

>  <Energy>  (19) 
137.11656808849622

>  <Genealogy>  (19) 
CC(C)c1c(C(=O)NCCN2CCN(C)CC2)cnn1-c1ncc2c(n1)-c1ccccc1CCC2 (3D coordinates assigned)
CC(C)c1c(C(=O)NCCN2CCN(C)CC2)cnn1-c1ncc2c(n1)-c1ccccc1CCC2 (nonaromatic ring conformer: 137.11656808849622 kcal/mol)

>  <smiles>  (19) 
CC(C)c1c(C(=O)NCCN2CCN(C)CC2)cnn1-c1ncc2c(n1)-c1ccccc1CCC2

>  <score_type>  (19) 
oracle

>  <origin>  (19) 
adg

>  <m_score__min__energy>  (19) 
-7.8799999999999999

>  <m_primary>  (19) 
energy

$$$$
19:0
     RDKit          3D

 77 81  0  0  0  0  0  0  0  0999 V2000
   63.0050   34.2220   49.1730 C   0  0  0  0  0  0  0  0  0  0  0  0
   64.0810   33.2480   48.6620 C   0  0  0  0  0  0  0  0  0  0  0  0
   63.8650   32.8060   47.2590 N   0  0  2  0  0  0  0  0  0  0  0  0
   63.3970   33.8730   46.3530 C   0  0  0  0  0  0  0  0  0  0  0  0
   63.0250   31.5730   47.1980 C   0  0  0  0  0  0  0  0  0  0  0  0
   62.1580   31.2340   48.4460 C   0  0  0  0  0  0  0  0  0  0  0  0
   60.7850   31.7420   48.3660 N   0  0  0  0  0  0  0  0  0  0  0  0
   60.0430   31.6100   47.1450 C   0  0  0  0  0  0  0  0  0  0  0  0
   59.6580   32.7430   46.3870 C   0  0  0  0  0  0  0  0  0  0  0  0
   60.0380   34.0380   46.7920 C   0  0  0  0  0  0  0  0  0  0  0  0
   59.6560   35.1560   46.0550 C   0  0  0  0  0  0  0  0  0  0  0  0
   58.9030   35.0050   44.8980 C   0  0  0  0  0  0  0  0  0  0  0  0
   58.5050   33.7380   44.4720 C   0  0  0  0  0  0  0  0  0  0  0  0
   58.8600   32.5770   45.2060 C   0  0  0  0  0  0  0  0  0  0  0  0
   58.4450   31.3150   44.8080 N   0  0  0  0  0  0  0  0  0  0  0  0
   57.5680   31.1480   43.6330 C   0  0  0  0  0  0  0  0  0  0  0  0
   58.8510   30.2310   45.5500 C   0  0  0  0  0  0  0  0  0  0  0  0
   58.5430   28.9280   45.3190 N   0  0  0  0  0  0  0  0  0  0  0  0
   59.0950   28.2500   46.3470 C   0  0  0  0  0  0  0  0  0  0  0  0
   59.0060   26.8800   46.5780 C   0  0  0  0  0  0  0  0  0  0  0  0
   59.6310   26.3600   47.7240 C   0  0  0  0  0  0  0  0  0  0  0  0
   60.3370   27.2140   48.6130 C   0  0  0  0  0  0  0  0  0  0  0  0
   61.0140   26.7260   49.7400 O   0  0  0  0  0  0  0  0  0  0  0  0
   60.8310   27.2030   51.0700 C   0  0  0  0  0  0  0  0  0  0  0  0
   61.4890   28.5920   51.1930 C   0  0  0  0  0  0  0  0  0  0  0  0
   60.7040   29.6150   51.9590 N   0  0  0  0  0  0  0  0  0  0  0  0
   60.9610   29.4410   53.4120 C   0  0  0  0  0  0  0  0  0  0  0  0
   61.0980   31.0040   51.5410 C   0  0  0  0  0  0  0  0  0  0  0  0
   59.9520   32.0160   51.6930 C   0  0  0  0  0  0  0  0  0  0  0  0
   58.7800   31.6480   50.7690 C   0  0  0  0  0  0  0  0  0  0  0  0
   58.6770   30.1310   50.5260 C   0  0  0  0  0  0  0  0  0  0  0  0
   59.2390   29.3500   51.7240 C   0  0  0  0  0  0  0  0  0  0  0  0
   60.3830   28.5990   48.3630 C   0  0  0  0  0  0  0  0  0  0  0  0
   59.7590   29.0880   47.2150 C   0  0  0  0  0  0  0  0  0  0  0  0
   59.6140   30.3650   46.6980 C   0  0  0  0  0  0  0  0  0  0  0  0
   63.0039   34.2230   50.2730 H   0  0  0  0  0  0  0  0  0  0  0  0
   63.2237   35.2355   48.8057 H   0  0  0  0  0  0  0  0  0  0  0  0
   62.0182   33.9038   48.8057 H   0  0  0  0  0  0  0  0  0  0  0  0
   65.0593   33.7473   48.7227 H   0  0  0  0  0  0  0  0  0  0  0  0
   64.0301   32.3498   49.2949 H   0  0  0  0  0  0  0  0  0  0  0  0
   64.8110   32.5290   46.9090 H   0  0  0  0  0  0  0  0  0  0  0  0
   63.0250   34.7211   46.9466 H   0  0  0  0  0  0  0  0  0  0  0  0
   64.2311   34.2073   45.7186 H   0  0  0  0  0  0  0  0  0  0  0  0
   62.5861   33.4858   45.7186 H   0  0  0  0  0  0  0  0  0  0  0  0
   62.3429   31.6805   46.3418 H   0  0  0  0  0  0  0  0  0  0  0  0
   63.7456   30.7453   47.1229 H   0  0  0  0  0  0  0  0  0  0  0  0
   62.1177   30.1401   48.5540 H   0  0  0  0  0  0  0  0  0  0  0  0
   62.6321   31.7240   49.3092 H   0  0  0  0  0  0  0  0  0  0  0  0
   60.5620   32.6080   48.8940 H   0  0  0  0  0  0  0  0  0  0  0  0
   60.6436   34.1673   47.7011 H   0  0  0  0  0  0  0  0  0  0  0  0
   59.9514   36.1612   46.3901 H   0  0  0  0  0  0  0  0  0  0  0  0
   58.6182   35.8918   44.3128 H   0  0  0  0  0  0  0  0  0  0  0  0
   57.9074   33.6375   43.5540 H   0  0  0  0  0  0  0  0  0  0  0  0
   56.5389   30.9520   43.9685 H   0  0  0  0  0  0  0  0  0  0  0  0
   57.5877   32.0660   43.0273 H   0  0  0  0  0  0  0  0  0  0  0  0
   57.9237   30.3014   43.0273 H   0  0  0  0  0  0  0  0  0  0  0  0
   57.9980   28.4990   44.5370 H   0  0  0  0  0  0  0  0  0  0  0  0
   58.4619   26.2233   45.8832 H   0  0  0  0  0  0  0  0  0  0  0  0
   59.5731   25.2819   47.9347 H   0  0  0  0  0  0  0  0  0  0  0  0
   59.7561   27.2820   51.2901 H   0  0  0  0  0  0  0  0  0  0  0  0
   61.2924   26.5056   51.7847 H   0  0  0  0  0  0  0  0  0  0  0  0
   62.4590   28.4637   51.6956 H   0  0  0  0  0  0  0  0  0  0  0  0
   61.5680   28.9797   50.1666 H   0  0  0  0  0  0  0  0  0  0  0  0
   60.1846   29.9667   53.9872 H   0  0  0  0  0  0  0  0  0  0  0  0
   60.9408   28.3700   53.6623 H   0  0  0  0  0  0  0  0  0  0  0  0
   61.9479   29.8575   53.6623 H   0  0  0  0  0  0  0  0  0  0  0  0
   61.9428   31.3327   52.1640 H   0  0  0  0  0  0  0  0  0  0  0  0
   61.3690   30.9662   50.4756 H   0  0  0  0  0  0  0  0  0  0  0  0
   59.6041   32.0143   52.7365 H   0  0  0  0  0  0  0  0  0  0  0  0
   60.3215   33.0147   51.4170 H   0  0  0  0  0  0  0  0  0  0  0  0
   57.8440   31.9961   51.2302 H   0  0  0  0  0  0  0  0  0  0  0  0
   58.9551   32.1319   49.7968 H   0  0  0  0  0  0  0  0  0  0  0  0
   57.6210   29.8593   50.3811 H   0  0  0  0  0  0  0  0  0  0  0  0
   59.2629   29.8755   49.6308 H   0  0  0  0  0  0  0  0  0  0  0  0
   58.6803   29.6402   52.6260 H   0  0  0  0  0  0  0  0  0  0  0  0
   59.1278   28.2784   51.5021 H   0  0  0  0  0  0  0  0  0  0  0  0
   60.8988   29.2794   49.0566 H   0  0  0  0  0  0  0  0  0  0  0  0
  1  2  1  0
  2  3  1  0
  3  4  1  0
  3  5  1  0
  5  6  1  0
  6  7  1  0
  7  8  1  0
  8  9  2  0
  9 10  1  0
 10 11  2  0
 11 12  1  0
 12 13  2  0
 13 14  1  0
 14 15  2  0
 15 16  1  0
 15 17  1  0
 17 18  1  0
 18 19  1  0
 19 20  2  0
 20 21  1  0
 21 22  2  0
 22 23  1  0
 23 24  1  0
 24 25  1  0
 25 26  1  0
 26 27  1  0
 26 28  1  0
 28 29  1  0
 29 30  1  0
 30 31  1  0
 31 32  1  0
 22 33  1  0
 33 34  2  0
 34 35  1  0
 35  8  1  0
 14  9  1  0
 35 17  2  0
 34 19  1  0
 32 26  1  0
  1 36  1  0
  1 37  1  0
  1 38  1  0
  2 39  1  0
  2 40  1  0
  3 41  1  6
  4 42  1  0
  4 43  1  0
  4 44  1  0
  5 45  1  0
  5 46  1  0
  6 47  1  0
  6 48  1  0
  7 49  1  0
 10 50  1  0
 11 51  1  0
 12 52  1  0
 13 53  1  0
 16 54  1  0
 16 55  1  0
 16 56  1  0
 18 57  1  0
 20 58  1  0
 21 59  1  0
 24 60  1  0
 24 61  1  0
 25 62  1  0
 25 63  1  0
 27 64  1  0
 27 65  1  0
 27 66  1  0
 28 67  1  0
 28 68  1  0
 29 69  1  0
 29 70  1  0
 30 71  1  0
 30 72  1  0
 31 73  1  0
 31 74  1  0
 32 75  1  0
 32 76  1  0
 33 77  1  0
M  CHG  3   3   1  15   1  26   1
M  END
>  <UniqueID>  (20) 
19

>  <SMILES>  (20) 
CC[N@H+](C)CCNc1c2ccccc2[n+](C)c2[nH]c3ccc(OCC[N+]4(C)CCCCC4)cc3c12

>  <Energy>  (20) 
162.68011110068724

>  <Genealogy>  (20) 
CC[NH+](C)CCNc1c2ccccc2[n+](C)c2[nH]c3ccc(OCC[N+]4(C)CCCCC4)cc3c12 (protonated)
CC[N@H+](C)CCNc1c2ccccc2[n+](C)c2[nH]c3ccc(OCC[N+]4(C)CCCCC4)cc3c12 (chirality)
CC[N@H+](C)CCNc1c2ccccc2[n+](C)c2[nH]c3ccc(OCC[N+]4(C)CCCCC4)cc3c12 (3D coordinates assigned)
CC[N@H+](C)CCNc1c2ccccc2[n+](C)c2[nH]c3ccc(OCC[N+]4(C)CCCCC4)cc3c12 (nonaromatic ring conformer: 162.68011110068724 kcal/mol)

>  <smiles>  (20) 
CCN(C)CCNc1c2ccccc2[n+](C)c2[nH]c3ccc(OCC[N+]4(C)CCCCC4)cc3c12

>  <score_type>  (20) 
oracle

>  <origin>  (20) 
adg

>  <m_score__min__energy>  (20) 
-4.3899999999999997

>  <m_primary>  (20) 
energy

$$$$
20:0
     RDKit          3D

 67 71  0  0  0  0  0  0  0  0999 V2000
   59.6460   35.3120   46.0040 C   0  0  0  0  0  0  0  0  0  0  0  0
   59.3280   34.9040   47.4410 C   0  0  0  0  0  0  0  0  0  0  0  0
   60.1130   33.7160   47.8390 N   0  0  0  0  0  0  0  0  0  0  0  0
   61.5740   33.9550   47.9260 C   0  0  0  0  0  0  0  0  0  0  0  0
   62.3090   32.8970   47.1160 C   0  0  0  0  0  0  0  0  0  0  0  0
   59.5580   32.9950   49.0100 C   0  0  0  0  0  0  0  0  0  0  0  0
   58.8790   31.6420   48.6970 C   0  0  0  0  0  0  0  0  0  0  0  0
   59.6750   30.8090   47.7980 N   0  0  0  0  0  0  0  0  0  0  0  0
   59.0440   30.0830   46.7320 C   0  0  0  0  0  0  0  0  0  0  0  0
   58.5450   30.7690   45.6120 C   0  0  0  0  0  0  0  0  0  0  0  0
   58.6630   32.1700   45.5080 C   0  0  0  0  0  0  0  0  0  0  0  0
   58.1870   32.8400   44.3830 C   0  0  0  0  0  0  0  0  0  0  0  0
   57.5890   32.1300   43.3470 C   0  0  0  0  0  0  0  0  0  0  0  0
   57.4710   30.7410   43.4270 C   0  0  0  0  0  0  0  0  0  0  0  0
   57.9540   30.0320   44.5530 C   0  0  0  0  0  0  0  0  0  0  0  0
   57.8760   28.6550   44.6270 N   0  0  0  0  0  0  0  0  0  0  0  0
   57.7700   27.8900   43.3640 C   0  0  0  0  0  0  0  0  0  0  0  0
   58.1200   28.0120   45.8280 C   0  0  0  0  0  0  0  0  0  0  0  0
   58.8480   28.6950   46.8350 C   0  0  0  0  0  0  0  0  0  0  0  0
   59.3540   27.9730   47.9300 C   0  0  0  0  0  0  0  0  0  0  0  0
   59.0720   26.6570   48.0750 N   0  0  0  0  0  0  0  0  0  0  0  0
   58.2520   26.0010   47.2210 C   0  0  0  0  0  0  0  0  0  0  0  0
   57.9140   24.7140   47.4880 N   0  0  0  0  0  0  0  0  0  0  0  0
   56.9970   24.0300   46.7580 C   0  0  0  0  0  0  0  0  0  0  0  0
   56.6610   22.6980   47.0890 C   0  0  0  0  0  0  0  0  0  0  0  0
   57.3600   22.0120   48.0920 O   0  0  0  0  0  0  0  0  0  0  0  0
   56.7500   21.5140   49.2790 C   0  0  0  0  0  0  0  0  0  0  0  0
   55.5850   22.0630   46.4140 C   0  0  0  0  0  0  0  0  0  0  0  0
   55.1350   20.7610   46.6980 O   0  0  0  0  0  0  0  0  0  0  0  0
   55.7720   19.5450   46.3230 C   0  0  0  0  0  0  0  0  0  0  0  0
   54.9120   22.7520   45.3960 C   0  0  0  0  0  0  0  0  0  0  0  0
   55.2710   24.0530   45.0480 C   0  0  0  0  0  0  0  0  0  0  0  0
   56.3080   24.6990   45.7270 C   0  0  0  0  0  0  0  0  0  0  0  0
   56.6520   26.0230   45.4190 C   0  0  0  0  0  0  0  0  0  0  0  0
   57.6940   26.6750   46.1090 C   0  0  0  0  0  0  0  0  0  0  0  0
   60.3222   36.1796   46.0103 H   0  0  0  0  0  0  0  0  0  0  0  0
   60.1308   34.4730   45.4834 H   0  0  0  0  0  0  0  0  0  0  0  0
   58.7140   35.5773   45.4834 H   0  0  0  0  0  0  0  0  0  0  0  0
   59.5718   35.7388   48.1146 H   0  0  0  0  0  0  0  0  0  0  0  0
   58.2583   34.6563   47.5071 H   0  0  0  0  0  0  0  0  0  0  0  0
   61.8072   34.9522   47.5244 H   0  0  0  0  0  0  0  0  0  0  0  0
   61.8931   33.8999   48.9773 H   0  0  0  0  0  0  0  0  0  0  0  0
   62.8010   32.1887   47.7988 H   0  0  0  0  0  0  0  0  0  0  0  0
   61.5910   32.3563   46.4818 H   0  0  0  0  0  0  0  0  0  0  0  0
   63.0662   33.3812   46.4818 H   0  0  0  0  0  0  0  0  0  0  0  0
   60.3822   32.8060   49.7136 H   0  0  0  0  0  0  0  0  0  0  0  0
   58.7677   33.6428   49.4171 H   0  0  0  0  0  0  0  0  0  0  0  0
   58.7274   31.0972   49.6405 H   0  0  0  0  0  0  0  0  0  0  0  0
   57.9241   31.8565   48.1948 H   0  0  0  0  0  0  0  0  0  0  0  0
   60.5940   30.4450   48.1380 H   0  0  0  0  0  0  0  0  0  0  0  0
   59.1351   32.7392   46.3223 H   0  0  0  0  0  0  0  0  0  0  0  0
   58.2843   33.9335   44.3138 H   0  0  0  0  0  0  0  0  0  0  0  0
   57.2085   32.6636   42.4635 H   0  0  0  0  0  0  0  0  0  0  0  0
   56.9955   30.1894   42.6026 H   0  0  0  0  0  0  0  0  0  0  0  0
   57.6223   26.8241   43.5922 H   0  0  0  0  0  0  0  0  0  0  0  0
   56.9148   28.2620   42.7807 H   0  0  0  0  0  0  0  0  0  0  0  0
   58.6941   28.0155   42.7807 H   0  0  0  0  0  0  0  0  0  0  0  0
   59.9840   28.4814   48.6747 H   0  0  0  0  0  0  0  0  0  0  0  0
   57.2624   21.9323   50.1579 H   0  0  0  0  0  0  0  0  0  0  0  0
   55.6903   21.8083   49.2979 H   0  0  0  0  0  0  0  0  0  0  0  0
   56.8262   20.4168   49.2979 H   0  0  0  0  0  0  0  0  0  0  0  0
   56.0629   18.9896   47.2268 H   0  0  0  0  0  0  0  0  0  0  0  0
   55.0771   18.9360   45.7262 H   0  0  0  0  0  0  0  0  0  0  0  0
   56.6683   19.7695   45.7262 H   0  0  0  0  0  0  0  0  0  0  0  0
   54.0866   22.2578   44.8627 H   0  0  0  0  0  0  0  0  0  0  0  0
   54.7376   24.5720   44.2380 H   0  0  0  0  0  0  0  0  0  0  0  0
   56.1029   26.5585   44.6305 H   0  0  0  0  0  0  0  0  0  0  0  0
  1  2  1  0
  2  3  1  0
  3  4  1  0
  4  5  1  0
  3  6  1  0
  6  7  1  0
  7  8  1  0
  8  9  1  0
  9 10  2  0
 10 11  1  0
 11 12  2  0
 12 13  1  0
 13 14  2  0
 14 15  1  0
 15 16  2  0
 16 17  1  0
 16 18  1  0
 18 19  2  0
 19 20  1  0
 20 21  2  0
 21 22  1  0
 22 23  2  0
 23 24  1  0
 24 25  2  0
 25 26  1  0
 26 27  1  0
 25 28  1  0
 28 29  1  0
 29 30  1  0
 28 31  2  0
 31 32  1  0
 32 33  2  0
 33 34  1  0
 34 35  2  0
 19  9  1  0
 35 22  1  0
 15 10  1  0
 35 18  1  0
 33 24  1  0
  1 36  1  0
  1 37  1  0
  1 38  1  0
  2 39  1  0
  2 40  1  0
  4 41  1  0
  4 42  1  0
  5 43  1  0
  5 44  1  0
  5 45  1  0
  6 46  1  0
  6 47  1  0
  7 48  1  0
  7 49  1  0
  8 50  1  0
 11 51  1  0
 12 52  1  0
 13 53  1  0
 14 54  1  0
 17 55  1  0
 17 56  1  0
 17 57  1  0
 20 58  1  0
 27 59  1  0
 27 60  1  0
 27 61  1  0
 30 62  1  0
 30 63  1  0
 30 64  1  0
 31 65  1  0
 32 66  1  0
 34 67  1  0
M  CHG  1  16   1
M  END
>  <UniqueID>  (21) 
20

>  <SMILES>  (21) 
CCN(CC)CCNc1c2ccccc2[n+](C)c2c1cnc1nc3c(OC)c(OC)ccc3cc12

>  <Energy>  (21) 
126.52324056860527

>  <Genealogy>  (21) 
CCN(CC)CCNc1c2ccccc2[n+](C)c2c1cnc1nc3c(OC)c(OC)ccc3cc12 (3D coordinates assigned)
CCN(CC)CCNc1c2ccccc2[n+](C)c2c1cnc1nc3c(OC)c(OC)ccc3cc12 (optimized conformer: 126.52324056860527 kcal/mol)

>  <smiles>  (21) 
CCN(CC)CCNc1c2ccccc2[n+](C)c2c1cnc1nc3c(OC)c(OC)ccc3cc12

>  <score_type>  (21) 
oracle

>  <origin>  (21) 
adg

>  <m_score__min__energy>  (21) 
-6.8300000000000001

>  <m_primary>  (21) 
energy

$$$$
21:0
     RDKit          3D

 42 44  0  0  0  0  0  0  0  0999 V2000
   60.8170   34.5770   48.6640 C   0  0  0  0  0  0  0  0  0  0  0  0
   59.9810   34.2680   47.4470 C   0  0  0  0  0  0  0  0  0  0  0  0
   59.9460   35.1980   46.3980 C   0  0  0  0  0  0  0  0  0  0  0  0
   59.1960   34.9470   45.2520 C   0  0  0  0  0  0  0  0  0  0  0  0
   58.4610   33.7700   45.1410 C   0  0  0  0  0  0  0  0  0  0  0  0
   58.4490   32.8250   46.1830 C   0  0  0  0  0  0  0  0  0  0  0  0
   57.6540   31.6210   46.0410 N   0  0  0  0  0  0  0  0  0  0  0  0
   58.0490   30.8370   44.8430 C   0  0  0  0  0  0  0  0  0  0  0  0
   56.9850   30.9520   43.7340 C   0  0  0  0  0  0  0  0  0  0  0  0
   55.6850   30.2040   44.1130 C   0  0  0  0  0  0  0  0  0  0  0  0
   55.8480   29.2810   45.1790 O   0  0  0  0  0  0  0  0  0  0  0  0
   57.0070   28.4970   44.9800 C   0  0  0  0  0  0  0  0  0  0  0  0
   58.2810   29.3400   45.1770 C   0  0  0  0  0  0  0  0  0  0  0  0
   59.2130   33.0810   47.3550 C   0  0  0  0  0  0  0  0  0  0  0  0
   59.2170   32.1100   48.4720 C   0  0  0  0  0  0  0  0  0  0  0  0
   58.5410   32.2580   49.6660 C   0  0  0  0  0  0  0  0  0  0  0  0
   58.8200   31.1000   50.3650 C   0  0  0  0  0  0  0  0  0  0  0  0
   59.6160   30.3020   49.6260 N   0  0  0  0  0  0  0  0  0  0  0  0
   59.8540   30.9200   48.4800 N   0  0  0  0  0  0  0  0  0  0  0  0
   60.6750   30.3420   47.4210 C   0  0  0  0  0  0  0  0  0  0  0  0
   60.2354   34.3620   49.5726 H   0  0  0  0  0  0  0  0  0  0  0  0
   61.7240   33.9547   48.6534 H   0  0  0  0  0  0  0  0  0  0  0  0
   61.1012   35.6396   48.6534 H   0  0  0  0  0  0  0  0  0  0  0  0
   60.5165   36.1348   46.4813 H   0  0  0  0  0  0  0  0  0  0  0  0
   59.1843   35.6805   44.4324 H   0  0  0  0  0  0  0  0  0  0  0  0
   57.8818   33.5763   44.2261 H   0  0  0  0  0  0  0  0  0  0  0  0
   56.6460   31.8920   45.9900 H   0  0  0  0  0  0  0  0  0  0  0  0
   57.7380   31.0320   46.9020 H   0  0  0  0  0  0  0  0  0  0  0  0
   58.9984   31.2636   44.4872 H   0  0  0  0  0  0  0  0  0  0  0  0
   56.7513   32.0146   43.5722 H   0  0  0  0  0  0  0  0  0  0  0  0
   57.3906   30.4955   42.8191 H   0  0  0  0  0  0  0  0  0  0  0  0
   54.9304   30.9474   44.4096 H   0  0  0  0  0  0  0  0  0  0  0  0
   55.3785   29.6243   43.2298 H   0  0  0  0  0  0  0  0  0  0  0  0
   57.0089   27.6672   45.7021 H   0  0  0  0  0  0  0  0  0  0  0  0
   56.9972   28.1101   43.9503 H   0  0  0  0  0  0  0  0  0  0  0  0
   58.6027   29.2565   46.2256 H   0  0  0  0  0  0  0  0  0  0  0  0
   59.0503   28.9557   44.4911 H   0  0  0  0  0  0  0  0  0  0  0  0
   57.9200   33.1068   49.9883 H   0  0  0  0  0  0  0  0  0  0  0  0
   58.4485   30.8644   51.3732 H   0  0  0  0  0  0  0  0  0  0  0  0
   61.4967   29.7635   47.8685 H   0  0  0  0  0  0  0  0  0  0  0  0
   60.0566   29.6790   46.7981 H   0  0  0  0  0  0  0  0  0  0  0  0
   61.0906   31.1478   46.7981 H   0  0  0  0  0  0  0  0  0  0  0  0
  1  2  1  0
  2  3  2  0
  3  4  1  0
  4  5  2  0
  5  6  1  0
  6  7  1  0
  7  8  1  0
  8  9  1  0
  9 10  1  0
 10 11  1  0
 11 12  1  0
 12 13  1  0
  6 14  2  0
 14 15  1  0
 15 16  2  0
 16 17  1  0
 17 18  2  0
 18 19  1  0
 19 20  1  0
 14  2  1  0
 19 15  1  0
 13  8  1  0
  1 21  1  0
  1 22  1  0
  1 23  1  0
  3 24  1  0
  4 25  1  0
  5 26  1  0
  7 27  1  0
  7 28  1  0
  8 29  1  0
  9 30  1  0
  9 31  1  0
 10 32  1  0
 10 33  1  0
 12 34  1  0
 12 35  1  0
 13 36  1  0
 13 37  1  0
 16 38  1  0
 17 39  1  0
 20 40  1  0
 20 41  1  0
 20 42  1  0
M  CHG  1   7   1
M  END
>  <UniqueID>  (22) 
21

>  <SMILES>  (22) 
Cc1cccc([NH2+]C2CCOCC2)c1-c1ccnn1C

>  <Energy>  (22) 
90.24925288861837

>  <Genealogy>  (22) 
Cc1cccc([NH2+]C2CCOCC2)c1-c1ccnn1C (protonated)
Cc1cccc([NH2+]C2CCOCC2)c1-c1ccnn1C (3D coordinates assigned)
Cc1cccc([NH2+]C2CCOCC2)c1-c1ccnn1C (nonaromatic ring conformer: 90.24925288861837 kcal/mol)

>  <smiles>  (22) 
Cc1cccc(NC2CCOCC2)c1-c1ccnn1C

>  <score_type>  (22) 
oracle

>  <origin>  (22) 
adg

>  <m_score__min__energy>  (22) 
-5.6799999999999997

>  <m_primary>  (22) 
energy

$$$$
22:0
     RDKit          3D

 42 44  0  0  0  0  0  0  0  0999 V2000
   57.2780   32.5880   40.5470 C   0  0  0  0  0  0  0  0  0  0  0  0
   58.1230   32.3560   41.7960 C   0  0  0  0  0  0  0  0  0  0  0  0
   57.3960   32.7100   42.9720 O   0  0  0  0  0  0  0  0  0  0  0  0
   57.9440   32.8850   44.2550 C   0  0  0  0  0  0  0  0  0  0  0  0
   58.7900   33.9640   44.5730 C   0  0  0  0  0  0  0  0  0  0  0  0
   59.3110   34.1000   45.8600 C   0  0  0  0  0  0  0  0  0  0  0  0
   59.0060   33.1600   46.8560 C   0  0  0  0  0  0  0  0  0  0  0  0
   59.5510   33.3040   48.2280 C   0  0  0  0  0  0  0  0  0  0  0  0
   60.8520   33.8290   48.4280 C   0  0  0  0  0  0  0  0  0  0  0  0
   61.3520   33.9550   49.7360 C   0  0  0  0  0  0  0  0  0  0  0  0
   62.7410   34.4770   49.9800 C   0  0  0  0  0  0  0  0  0  0  0  0
   63.2730   33.8660   51.0990 F   0  0  0  0  0  0  0  0  0  0  0  0
   63.5440   34.2100   48.8860 F   0  0  0  0  0  0  0  0  0  0  0  0
   60.5530   33.5440   50.7560 N   0  0  0  0  0  0  0  0  0  0  0  0
   60.8260   33.5570   52.0520 N   0  0  0  0  0  0  0  0  0  0  0  0
   59.7400   33.0570   52.6880 C   0  0  0  0  0  0  0  0  0  0  0  0
   58.7600   32.7220   51.7620 C   0  0  0  0  0  0  0  0  0  0  0  0
   57.0370   31.9740   52.1030 Br  0  0  0  0  0  0  0  0  0  0  0  0
   59.3280   33.0490   50.5550 C   0  0  0  0  0  0  0  0  0  0  0  0
   58.8020   32.9200   49.3100 N   0  0  0  0  0  0  0  0  0  0  0  0
   58.1680   32.0780   46.5380 C   0  0  0  0  0  0  0  0  0  0  0  0
   57.6300   31.9380   45.2420 C   0  0  0  0  0  0  0  0  0  0  0  0
   56.7870   30.8700   44.8880 O   0  0  0  0  0  0  0  0  0  0  0  0
   57.1510   29.7510   44.0790 C   0  0  0  0  0  0  0  0  0  0  0  0
   56.2940   29.6930   42.8180 C   0  0  0  0  0  0  0  0  0  0  0  0
   56.2562   32.8685   40.8425 H   0  0  0  0  0  0  0  0  0  0  0  0
   57.7221   33.3975   39.9490 H   0  0  0  0  0  0  0  0  0  0  0  0
   57.2465   31.6653   39.9490 H   0  0  0  0  0  0  0  0  0  0  0  0
   58.4020   31.2934   41.8505 H   0  0  0  0  0  0  0  0  0  0  0  0
   59.0232   32.9852   41.7349 H   0  0  0  0  0  0  0  0  0  0  0  0
   59.0423   34.7057   43.8009 H   0  0  0  0  0  0  0  0  0  0  0  0
   59.9664   34.9513   46.0959 H   0  0  0  0  0  0  0  0  0  0  0  0
   61.4652   34.1352   47.5676 H   0  0  0  0  0  0  0  0  0  0  0  0
   62.6945   35.5645   50.1386 H   0  0  0  0  0  0  0  0  0  0  0  0
   59.6475   32.9342   53.7772 H   0  0  0  0  0  0  0  0  0  0  0  0
   57.8340   32.5490   49.1920 H   0  0  0  0  0  0  0  0  0  0  0  0
   57.9287   31.3311   47.3093 H   0  0  0  0  0  0  0  0  0  0  0  0
   58.2090   29.8422   43.7922 H   0  0  0  0  0  0  0  0  0  0  0  0
   56.9895   28.8297   44.6580 H   0  0  0  0  0  0  0  0  0  0  0  0
   55.2329   29.6212   43.0988 H   0  0  0  0  0  0  0  0  0  0  0  0
   56.4550   30.6041   42.2230 H   0  0  0  0  0  0  0  0  0  0  0  0
   56.5763   28.8119   42.2230 H   0  0  0  0  0  0  0  0  0  0  0  0
  1  2  1  0
  2  3  1  0
  3  4  1  0
  4  5  2  0
  5  6  1  0
  6  7  2  0
  7  8  1  0
  8  9  1  0
  9 10  2  0
 10 11  1  0
 11 12  1  0
 11 13  1  0
 10 14  1  0
 14 15  1  0
 15 16  2  0
 16 17  1  0
 17 18  1  0
 17 19  2  0
 19 20  1  0
  7 21  1  0
 21 22  2  0
 22 23  1  0
 23 24  1  0
 24 25  1  0
 22  4  1  0
 20  8  2  0
 19 14  1  0
  1 26  1  0
  1 27  1  0
  1 28  1  0
  2 29  1  0
  2 30  1  0
  5 31  1  0
  6 32  1  0
  9 33  1  0
 11 34  1  0
 16 35  1  0
 20 36  1  0
 21 37  1  0
 24 38  1  0
 24 39  1  0
 25 40  1  0
 25 41  1  0
 25 42  1  0
M  CHG  1  20   1
M  END
>  <UniqueID>  (23) 
22

>  <SMILES>  (23) 
CCOc1ccc(-c2cc(C(F)F)n3ncc(Br)c3[nH+]2)cc1OCC

>  <Energy>  (23) 
81.17825489034384

>  <Genealogy>  (23) 
CCOc1ccc(-c2cc(C(F)F)n3ncc(Br)c3[nH+]2)cc1OCC (protonated)
CCOc1ccc(-c2cc(C(F)F)n3ncc(Br)c3[nH+]2)cc1OCC (3D coordinates assigned)
CCOc1ccc(-c2cc(C(F)F)n3ncc(Br)c3[nH+]2)cc1OCC (optimized conformer: 81.17825489034384 kcal/mol)

>  <smiles>  (23) 
CCOc1ccc(-c2cc(C(F)F)n3ncc(Br)c3n2)cc1OCC

>  <score_type>  (23) 
oracle

>  <origin>  (23) 
adg

>  <m_score__min__energy>  (23) 
-5.6100000000000003

>  <m_primary>  (23) 
energy

$$$$
23:0
     RDKit          3D

 48 51  0  0  0  0  0  0  0  0999 V2000
   63.3230   32.7590   47.1610 C   0  0  0  0  0  0  0  0  0  0  0  0
   63.0080   32.7490   48.6600 C   0  0  0  0  0  0  0  0  0  0  0  0
   62.4260   31.4700   49.1060 N   0  0  0  0  0  0  0  0  0  0  0  0
   61.6960   30.7850   48.0270 C   0  0  0  0  0  0  0  0  0  0  0  0
   60.7640   29.7080   48.5990 C   0  0  0  0  0  0  0  0  0  0  0  0
   59.3680   29.9950   48.2670 N   0  0  0  0  0  0  0  0  0  0  0  0
   59.0120   30.7360   47.0910 C   0  0  0  0  0  0  0  0  0  0  0  0
   59.0330   32.1490   47.0660 C   0  0  0  0  0  0  0  0  0  0  0  0
   59.2780   32.8850   48.2410 C   0  0  0  0  0  0  0  0  0  0  0  0
   59.2730   34.2780   48.2220 C   0  0  0  0  0  0  0  0  0  0  0  0
   59.0060   34.9610   47.0390 C   0  0  0  0  0  0  0  0  0  0  0  0
   58.7470   34.2590   45.8620 C   0  0  0  0  0  0  0  0  0  0  0  0
   58.7640   32.8440   45.8370 C   0  0  0  0  0  0  0  0  0  0  0  0
   58.5100   32.1340   44.6720 N   0  0  0  0  0  0  0  0  0  0  0  0
   58.3410   32.8200   43.3760 C   0  0  0  0  0  0  0  0  0  0  0  0
   58.3960   30.7700   44.7540 C   0  0  0  0  0  0  0  0  0  0  0  0
   58.0440   29.9270   43.7500 N   0  0  0  0  0  0  0  0  0  0  0  0
   58.0750   28.6960   44.2990 C   0  0  0  0  0  0  0  0  0  0  0  0
   57.7760   27.4920   43.6630 C   0  0  0  0  0  0  0  0  0  0  0  0
   57.8490   26.3100   44.4200 C   0  0  0  0  0  0  0  0  0  0  0  0
   58.2050   26.3540   45.7850 C   0  0  0  0  0  0  0  0  0  0  0  0
   58.2800   24.8680   46.7150 Cl  0  0  0  0  0  0  0  0  0  0  0  0
   58.4950   27.5820   46.4070 C   0  0  0  0  0  0  0  0  0  0  0  0
   58.4330   28.7410   45.6290 C   0  0  0  0  0  0  0  0  0  0  0  0
   58.6360   30.0790   45.9240 C   0  0  0  0  0  0  0  0  0  0  0  0
   64.4128   32.7936   47.0156 H   0  0  0  0  0  0  0  0  0  0  0  0
   62.9197   31.8476   46.6955 H   0  0  0  0  0  0  0  0  0  0  0  0
   62.8627   33.6430   46.6955 H   0  0  0  0  0  0  0  0  0  0  0  0
   63.9396   32.9261   49.2174 H   0  0  0  0  0  0  0  0  0  0  0  0
   62.2662   33.5385   48.8510 H   0  0  0  0  0  0  0  0  0  0  0  0
   61.7900   31.6330   49.9210 H   0  0  0  0  0  0  0  0  0  0  0  0
   63.2130   30.8560   49.4240 H   0  0  0  0  0  0  0  0  0  0  0  0
   61.0975   31.5222   47.4718 H   0  0  0  0  0  0  0  0  0  0  0  0
   62.4246   30.3026   47.3588 H   0  0  0  0  0  0  0  0  0  0  0  0
   61.0410   28.7308   48.1766 H   0  0  0  0  0  0  0  0  0  0  0  0
   60.8697   29.6974   49.6939 H   0  0  0  0  0  0  0  0  0  0  0  0
   58.6090   29.6720   48.9070 H   0  0  0  0  0  0  0  0  0  0  0  0
   59.4755   32.3544   49.1841 H   0  0  0  0  0  0  0  0  0  0  0  0
   59.4807   34.8398   49.1447 H   0  0  0  0  0  0  0  0  0  0  0  0
   58.9992   36.0610   47.0323 H   0  0  0  0  0  0  0  0  0  0  0  0
   58.5260   34.8140   44.9383 H   0  0  0  0  0  0  0  0  0  0  0  0
   58.0812   33.8745   43.5505 H   0  0  0  0  0  0  0  0  0  0  0  0
   59.2800   32.7632   42.8059 H   0  0  0  0  0  0  0  0  0  0  0  0
   57.5359   32.3335   42.8059 H   0  0  0  0  0  0  0  0  0  0  0  0
   57.7670   30.1460   42.7690 H   0  0  0  0  0  0  0  0  0  0  0  0
   57.4915   27.4678   42.6007 H   0  0  0  0  0  0  0  0  0  0  0  0
   57.6269   25.3431   43.9449 H   0  0  0  0  0  0  0  0  0  0  0  0
   58.7623   27.6284   47.4730 H   0  0  0  0  0  0  0  0  0  0  0  0
  1  2  1  0
  2  3  1  0
  3  4  1  0
  4  5  1  0
  5  6  1  0
  6  7  1  0
  7  8  2  0
  8  9  1  0
  9 10  2  0
 10 11  1  0
 11 12  2  0
 12 13  1  0
 13 14  2  0
 14 15  1  0
 14 16  1  0
 16 17  1  0
 17 18  1  0
 18 19  2  0
 19 20  1  0
 20 21  2  0
 21 22  1  0
 21 23  1  0
 23 24  2  0
 24 25  1  0
 25  7  1  0
 13  8  1  0
 25 16  2  0
 24 18  1  0
  1 26  1  0
  1 27  1  0
  1 28  1  0
  2 29  1  0
  2 30  1  0
  3 31  1  0
  3 32  1  0
  4 33  1  0
  4 34  1  0
  5 35  1  0
  5 36  1  0
  6 37  1  0
  9 38  1  0
 10 39  1  0
 11 40  1  0
 12 41  1  0
 15 42  1  0
 15 43  1  0
 15 44  1  0
 17 45  1  0
 19 46  1  0
 20 47  1  0
 23 48  1  0
M  CHG  2   3   1  14   1
M  END
>  <UniqueID>  (24) 
23

>  <SMILES>  (24) 
CC[NH2+]CCNc1c2ccccc2[n+](C)c2[nH]c3ccc(Cl)cc3c12

>  <Energy>  (24) 
103.96942833456063

>  <Genealogy>  (24) 
CC[NH2+]CCNc1c2ccccc2[n+](C)c2[nH]c3ccc(Cl)cc3c12 (protonated)
CC[NH2+]CCNc1c2ccccc2[n+](C)c2[nH]c3ccc(Cl)cc3c12 (3D coordinates assigned)
CC[NH2+]CCNc1c2ccccc2[n+](C)c2[nH]c3ccc(Cl)cc3c12 (optimized conformer: 103.96942833456063 kcal/mol)

>  <smiles>  (24) 
CCNCCNc1c2ccccc2[n+](C)c2[nH]c3ccc(Cl)cc3c12

>  <score_type>  (24) 
oracle

>  <origin>  (24) 
adg

>  <m_score__min__energy>  (24) 
-4.71

>  <m_primary>  (24) 
energy

$$$$
24:0
     RDKit          3D

 43 45  0  0  0  0  0  0  0  0999 V2000
   57.7590   34.2240   44.5440 C   0  0  0  0  0  0  0  0  0  0  0  0
   57.3740   33.7370   45.9400 C   0  0  0  0  0  0  0  0  0  0  0  0
   58.3100   32.7080   46.4050 N   0  0  0  0  0  0  0  0  0  0  0  0
   58.4160   31.3990   46.0540 C   0  0  0  0  0  0  0  0  0  0  0  0
   57.6320   30.6830   45.0290 C   0  0  0  0  0  0  0  0  0  0  0  0
   58.0650   29.7040   44.1490 C   0  0  0  0  0  0  0  0  0  0  0  0
   56.9510   29.3220   43.4320 C   0  0  0  0  0  0  0  0  0  0  0  0
   55.9060   30.0810   43.9160 C   0  0  0  0  0  0  0  0  0  0  0  0
   56.3420   30.8760   44.8660 O   0  0  0  0  0  0  0  0  0  0  0  0
   59.3600   30.7710   46.7910 N   0  0  0  0  0  0  0  0  0  0  0  0
   59.8720   31.6790   47.6020 N   0  0  0  0  0  0  0  0  0  0  0  0
   59.2490   32.8440   47.3670 C   0  0  0  0  0  0  0  0  0  0  0  0
   59.6330   34.3760   48.2270 S   0  0  0  0  0  0  0  0  0  0  0  0
   61.4000   33.9710   48.4820 C   0  0  0  0  0  0  0  0  0  0  0  0
   61.6310   33.2910   49.8360 C   0  0  0  0  0  0  0  0  0  0  0  0
   60.6770   32.2490   50.0520 O   0  0  0  0  0  0  0  0  0  0  0  0
   59.5230   32.3340   50.8520 C   0  0  0  0  0  0  0  0  0  0  0  0
   59.2330   33.4720   51.6280 C   0  0  0  0  0  0  0  0  0  0  0  0
   58.0640   33.5300   52.3920 C   0  0  0  0  0  0  0  0  0  0  0  0
   57.1640   32.4620   52.3760 C   0  0  0  0  0  0  0  0  0  0  0  0
   57.4330   31.3320   51.6020 C   0  0  0  0  0  0  0  0  0  0  0  0
   58.6170   31.2510   50.8520 C   0  0  0  0  0  0  0  0  0  0  0  0
   58.8810   30.0240   50.0250 C   0  0  0  0  0  0  0  0  0  0  0  0
   58.4391   35.0843   44.6304 H   0  0  0  0  0  0  0  0  0  0  0  0
   58.2621   33.4122   43.9983 H   0  0  0  0  0  0  0  0  0  0  0  0
   56.8530   34.5262   43.9983 H   0  0  0  0  0  0  0  0  0  0  0  0
   57.3955   34.5870   46.6379 H   0  0  0  0  0  0  0  0  0  0  0  0
   56.3637   33.3040   45.8980 H   0  0  0  0  0  0  0  0  0  0  0  0
   59.0875   29.3121   44.0441 H   0  0  0  0  0  0  0  0  0  0  0  0
   56.9050   28.5651   42.6352 H   0  0  0  0  0  0  0  0  0  0  0  0
   54.8663   30.0284   43.5606 H   0  0  0  0  0  0  0  0  0  0  0  0
   60.6340   31.5000   48.2920 H   0  0  0  0  0  0  0  0  0  0  0  0
   61.7306   33.2936   47.6809 H   0  0  0  0  0  0  0  0  0  0  0  0
   61.9749   34.9086   48.4643 H   0  0  0  0  0  0  0  0  0  0  0  0
   62.6437   32.8620   49.8556 H   0  0  0  0  0  0  0  0  0  0  0  0
   61.5170   34.0426   50.6311 H   0  0  0  0  0  0  0  0  0  0  0  0
   59.9314   34.3218   51.6332 H   0  0  0  0  0  0  0  0  0  0  0  0
   57.8526   34.4176   53.0064 H   0  0  0  0  0  0  0  0  0  0  0  0
   56.2421   32.5115   52.9741 H   0  0  0  0  0  0  0  0  0  0  0  0
   56.7133   30.5004   51.5796 H   0  0  0  0  0  0  0  0  0  0  0  0
   59.0654   29.1668   50.6893 H   0  0  0  0  0  0  0  0  0  0  0  0
   58.0073   29.8147   49.3903 H   0  0  0  0  0  0  0  0  0  0  0  0
   59.7634   30.1925   49.3903 H   0  0  0  0  0  0  0  0  0  0  0  0
  1  2  1  0
  2  3  1  0
  3  4  1  0
  4  5  1  0
  5  6  2  0
  6  7  1  0
  7  8  2  0
  8  9  1  0
  4 10  2  0
 10 11  1  0
 11 12  2  0
 12 13  1  0
 13 14  1  0
 14 15  1  0
 15 16  1  0
 16 17  1  0
 17 18  2  0
 18 19  1  0
 19 20  2  0
 20 21  1  0
 21 22  2  0
 22 23  1  0
 12  3  1  0
 22 17  1  0
  9  5  1  0
  1 24  1  0
  1 25  1  0
  1 26  1  0
  2 27  1  0
  2 28  1  0
  6 29  1  0
  7 30  1  0
  8 31  1  0
 11 32  1  0
 14 33  1  0
 14 34  1  0
 15 35  1  0
 15 36  1  0
 18 37  1  0
 19 38  1  0
 20 39  1  0
 21 40  1  0
 23 41  1  0
 23 42  1  0
 23 43  1  0
M  CHG  1  11   1
M  END
>  <UniqueID>  (25) 
24

>  <SMILES>  (25) 
CCn1c(-c2ccco2)n[nH+]c1SCCOc1ccccc1C

>  <Energy>  (25) 
103.92553753197063

>  <Genealogy>  (25) 
CCn1c(-c2ccco2)n[nH+]c1SCCOc1ccccc1C (protonated)
CCn1c(-c2ccco2)n[nH+]c1SCCOc1ccccc1C (3D coordinates assigned)
CCn1c(-c2ccco2)n[nH+]c1SCCOc1ccccc1C (optimized conformer: 103.92553753197063 kcal/mol)

>  <smiles>  (25) 
CCn1c(SCCOc2ccccc2C)nnc1-c1ccco1

>  <score_type>  (25) 
oracle

>  <origin>  (25) 
adg

>  <m_score__min__energy>  (25) 
-5.5800000000000001

>  <m_primary>  (25) 
energy

$$$$
25:0
     RDKit          3D

 45 47  0  0  0  0  0  0  0  0999 V2000
   54.0210   24.1840   45.3420 C   0  0  0  0  0  0  0  0  0  0  0  0
   55.3480   24.6280   45.9620 C   0  0  0  0  0  0  0  0  0  0  0  0
   55.4970   26.0910   45.9890 N   0  0  0  0  0  0  0  0  0  0  0  0
   56.6830   26.5190   46.7430 C   0  0  0  0  0  0  0  0  0  0  0  0
   57.9210   25.7380   46.2820 C   0  0  0  0  0  0  0  0  0  0  0  0
   58.3600   26.1090   44.8570 C   0  0  0  0  0  0  0  0  0  0  0  0
   57.5040   27.0980   44.2800 O   0  0  0  0  0  0  0  0  0  0  0  0
   57.6890   28.4880   44.3510 C   0  0  0  0  0  0  0  0  0  0  0  0
   56.9580   29.2880   43.4720 C   0  0  0  0  0  0  0  0  0  0  0  0
   57.0800   30.6740   43.5070 C   0  0  0  0  0  0  0  0  0  0  0  0
   57.9540   31.2860   44.4170 C   0  0  0  0  0  0  0  0  0  0  0  0
   58.0300   32.6750   44.4750 C   0  0  0  0  0  0  0  0  0  0  0  0
   58.8280   33.2890   45.4360 C   0  0  0  0  0  0  0  0  0  0  0  0
   58.8290   34.6890   45.5500 C   0  0  0  0  0  0  0  0  0  0  0  0
   59.5840   35.3120   46.5410 C   0  0  0  0  0  0  0  0  0  0  0  0
   60.3320   34.5460   47.4330 C   0  0  0  0  0  0  0  0  0  0  0  0
   60.3480   33.1540   47.3250 C   0  0  0  0  0  0  0  0  0  0  0  0
   59.6210   32.4940   46.3020 C   0  0  0  0  0  0  0  0  0  0  0  0
   59.6510   31.1180   46.1430 N   0  0  0  0  0  0  0  0  0  0  0  0
   60.6670   30.3120   46.8550 C   0  0  0  0  0  0  0  0  0  0  0  0
   58.7480   30.5020   45.2910 C   0  0  0  0  0  0  0  0  0  0  0  0
   58.5680   29.0960   45.2680 C   0  0  0  0  0  0  0  0  0  0  0  0
   53.3047   23.9443   46.1417 H   0  0  0  0  0  0  0  0  0  0  0  0
   53.6173   24.9960   44.7194 H   0  0  0  0  0  0  0  0  0  0  0  0
   54.1873   23.2925   44.7194 H   0  0  0  0  0  0  0  0  0  0  0  0
   55.3993   24.2493   46.9935 H   0  0  0  0  0  0  0  0  0  0  0  0
   56.1593   24.2214   45.3403 H   0  0  0  0  0  0  0  0  0  0  0  0
   55.5630   26.4540   45.0090 H   0  0  0  0  0  0  0  0  0  0  0  0
   56.8498   27.5935   46.5768 H   0  0  0  0  0  0  0  0  0  0  0  0
   56.5156   26.3232   47.8124 H   0  0  0  0  0  0  0  0  0  0  0  0
   58.7498   25.9528   46.9726 H   0  0  0  0  0  0  0  0  0  0  0  0
   57.6584   24.6698   46.2811 H   0  0  0  0  0  0  0  0  0  0  0  0
   59.3866   26.5025   44.8915 H   0  0  0  0  0  0  0  0  0  0  0  0
   58.3053   25.2034   44.2349 H   0  0  0  0  0  0  0  0  0  0  0  0
   56.2790   28.8189   42.7447 H   0  0  0  0  0  0  0  0  0  0  0  0
   56.4876   31.2928   42.8170 H   0  0  0  0  0  0  0  0  0  0  0  0
   57.4593   33.2872   43.7612 H   0  0  0  0  0  0  0  0  0  0  0  0
   58.2312   35.2958   44.8539 H   0  0  0  0  0  0  0  0  0  0  0  0
   59.5898   36.4092   46.6195 H   0  0  0  0  0  0  0  0  0  0  0  0
   60.9125   35.0403   48.2259 H   0  0  0  0  0  0  0  0  0  0  0  0
   60.9328   32.5610   48.0436 H   0  0  0  0  0  0  0  0  0  0  0  0
   60.5278   30.4224   47.9406 H   0  0  0  0  0  0  0  0  0  0  0  0
   60.5561   29.2535   46.5769 H   0  0  0  0  0  0  0  0  0  0  0  0
   61.6725   30.6608   46.5769 H   0  0  0  0  0  0  0  0  0  0  0  0
   59.1250   28.4686   45.9794 H   0  0  0  0  0  0  0  0  0  0  0  0
  1  2  1  0
  2  3  1  0
  3  4  1  0
  4  5  1  0
  5  6  1  0
  6  7  1  0
  7  8  1  0
  8  9  2  0
  9 10  1  0
 10 11  2  0
 11 12  1  0
 12 13  2  0
 13 14  1  0
 14 15  2  0
 15 16  1  0
 16 17  2  0
 17 18  1  0
 18 19  2  0
 19 20  1  0
 19 21  1  0
 21 22  2  0
 22  8  1  0
 21 11  1  0
 18 13  1  0
  1 23  1  0
  1 24  1  0
  1 25  1  0
  2 26  1  0
  2 27  1  0
  3 28  1  0
  4 29  1  0
  4 30  1  0
  5 31  1  0
  5 32  1  0
  6 33  1  0
  6 34  1  0
  9 35  1  0
 10 36  1  0
 12 37  1  0
 14 38  1  0
 15 39  1  0
 16 40  1  0
 17 41  1  0
 20 42  1  0
 20 43  1  0
 20 44  1  0
 22 45  1  0
M  CHG  1  19   1
M  END
>  <UniqueID>  (26) 
25

>  <SMILES>  (26) 
CCNCCCOc1ccc2cc3ccccc3[n+](C)c2c1

>  <Energy>  (26) 
59.26399223499874

>  <Genealogy>  (26) 
CCNCCCOc1ccc2cc3ccccc3[n+](C)c2c1 (3D coordinates assigned)
CCNCCCOc1ccc2cc3ccccc3[n+](C)c2c1 (optimized conformer: 59.26399223499874 kcal/mol)

>  <smiles>  (26) 
CCNCCCOc1ccc2cc3ccccc3[n+](C)c2c1

>  <score_type>  (26) 
oracle

>  <origin>  (26) 
adg

>  <m_score__min__energy>  (26) 
-6.1200000000000001

>  <m_primary>  (26) 
energy

$$$$
26:0
     RDKit          3D

 36 36  0  0  0  0  0  0  0  0999 V2000
   57.7770   32.1480   41.8660 C   0  0  0  0  0  0  0  0  0  0  0  0
   57.2090   31.4140   43.0760 C   0  0  0  0  0  0  0  0  0  0  0  0
   56.6100   30.0590   42.6720 C   0  0  0  0  0  0  0  0  0  0  0  0
   55.4020   29.6730   43.5330 C   0  0  0  0  0  0  0  0  0  0  0  0
   55.8360   29.2490   44.8730 N   0  0  0  0  0  0  0  0  0  0  0  0
   57.1610   28.6110   44.8570 C   0  0  0  0  0  0  0  0  0  0  0  0
   57.8010   28.5510   46.2580 C   0  0  0  0  0  0  0  0  0  0  0  0
   58.5250   29.8570   46.6120 C   0  0  0  0  0  0  0  0  0  0  0  0
   57.8150   31.0260   46.0910 N   0  0  0  0  0  0  0  0  0  0  0  0
   58.4420   32.3090   46.0110 C   0  0  0  0  0  0  0  0  0  0  0  0
   59.6580   32.5210   46.3790 N   0  0  0  0  0  0  0  0  0  0  0  0
   59.9910   33.9250   46.1690 C   0  0  0  0  0  0  0  0  0  0  0  0
   58.7150   34.5580   45.5870 C   0  0  0  0  0  0  0  0  0  0  0  0
   57.7790   33.4550   45.5200 N   0  0  0  0  0  0  0  0  0  0  0  0
   58.4172   32.9753   42.2063 H   0  0  0  0  0  0  0  0  0  0  0  0
   58.3721   31.4494   41.2595 H   0  0  0  0  0  0  0  0  0  0  0  0
   56.9515   32.5488   41.2595 H   0  0  0  0  0  0  0  0  0  0  0  0
   58.0152   31.2469   43.8054 H   0  0  0  0  0  0  0  0  0  0  0  0
   56.4110   32.0309   43.5149 H   0  0  0  0  0  0  0  0  0  0  0  0
   56.2913   30.1132   41.6206 H   0  0  0  0  0  0  0  0  0  0  0  0
   57.3852   29.2927   42.8197 H   0  0  0  0  0  0  0  0  0  0  0  0
   54.7331   30.5411   43.6274 H   0  0  0  0  0  0  0  0  0  0  0  0
   54.8746   28.8372   43.0499 H   0  0  0  0  0  0  0  0  0  0  0  0
   55.1400   28.5690   45.2590 H   0  0  0  0  0  0  0  0  0  0  0  0
   57.0548   27.5857   44.4729 H   0  0  0  0  0  0  0  0  0  0  0  0
   57.8170   29.2162   44.2141 H   0  0  0  0  0  0  0  0  0  0  0  0
   57.0117   28.3688   47.0022 H   0  0  0  0  0  0  0  0  0  0  0  0
   58.5425   27.7385   46.2599 H   0  0  0  0  0  0  0  0  0  0  0  0
   58.5951   29.9407   47.7066 H   0  0  0  0  0  0  0  0  0  0  0  0
   59.5251   29.8304   46.1547 H   0  0  0  0  0  0  0  0  0  0  0  0
   56.8200   30.9460   45.7810 H   0  0  0  0  0  0  0  0  0  0  0  0
   60.2598   34.4046   47.1217 H   0  0  0  0  0  0  0  0  0  0  0  0
   60.8542   34.0475   45.4983 H   0  0  0  0  0  0  0  0  0  0  0  0
   58.3366   35.3530   46.2464 H   0  0  0  0  0  0  0  0  0  0  0  0
   58.8842   35.0311   44.6085 H   0  0  0  0  0  0  0  0  0  0  0  0
   56.7950   33.4980   45.1730 H   0  0  0  0  0  0  0  0  0  0  0  0
  1  2  1  0
  2  3  1  0
  3  4  1  0
  4  5  1  0
  5  6  1  0
  6  7  1  0
  7  8  1  0
  8  9  1  0
  9 10  1  0
 10 11  2  0
 11 12  1  0
 12 13  1  0
 13 14  1  0
 14 10  1  0
  1 15  1  0
  1 16  1  0
  1 17  1  0
  2 18  1  0
  2 19  1  0
  3 20  1  0
  3 21  1  0
  4 22  1  0
  4 23  1  0
  5 24  1  0
  6 25  1  0
  6 26  1  0
  7 27  1  0
  7 28  1  0
  8 29  1  0
  8 30  1  0
  9 31  1  0
 12 32  1  0
 12 33  1  0
 13 34  1  0
 13 35  1  0
 14 36  1  0
M  END
>  <UniqueID>  (27) 
26

>  <SMILES>  (27) 
CCCCNCCCNC1=NCCN1

>  <Energy>  (27) 
32.4171169640112

>  <Genealogy>  (27) 
CCCCNCCCNC1=NCCN1 (3D coordinates assigned)
CCCCNCCCNC1=NCCN1 (nonaromatic ring conformer: 32.4171169640112 kcal/mol)

>  <smiles>  (27) 
CCCCNCCCNC1=NCCN1

>  <score_type>  (27) 
oracle

>  <origin>  (27) 
adg

>  <m_score__min__energy>  (27) 
-4.96

>  <m_primary>  (27) 
energy

$$$$
27:0
     RDKit          3D

 40 41  0  0  0  0  0  0  0  0999 V2000
   55.9290   30.0670   52.8220 C   0  0  0  0  0  0  0  0  0  0  0  0
   56.9840   29.7390   51.9240 O   0  0  0  0  0  0  0  0  0  0  0  0
   57.7930   30.6830   51.2740 C   0  0  0  0  0  0  0  0  0  0  0  0
   58.6100   30.3510   50.1760 C   0  0  0  0  0  0  0  0  0  0  0  0
   59.3990   31.3290   49.5630 C   0  0  0  0  0  0  0  0  0  0  0  0
   59.3900   32.6480   50.0410 C   0  0  0  0  0  0  0  0  0  0  0  0
   60.2110   33.7090   49.3580 C   0  0  0  0  0  0  0  0  0  0  0  0
   59.6270   34.0380   47.9780 C   0  0  0  0  0  0  0  0  0  0  0  0
   60.2660   33.2230   46.9340 N   0  0  0  0  0  0  0  0  0  0  0  0
   59.2640   32.4760   46.2030 C   0  0  0  0  0  0  0  0  0  0  0  0
   59.1390   31.0950   46.4320 C   0  0  0  0  0  0  0  0  0  0  0  0
   58.1730   30.3420   45.7650 C   0  0  0  0  0  0  0  0  0  0  0  0
   57.3010   30.9500   44.8520 C   0  0  0  0  0  0  0  0  0  0  0  0
   56.3090   30.1660   44.1620 N   0  0  0  0  0  0  0  0  0  0  0  0
   56.3080   30.0920   42.9160 O   0  0  0  0  0  0  0  0  0  0  0  0
   55.3430   29.4850   44.8660 O   0  0  0  0  0  0  0  0  0  0  0  0
   57.4090   32.3330   44.6230 C   0  0  0  0  0  0  0  0  0  0  0  0
   58.3710   33.1070   45.2960 C   0  0  0  0  0  0  0  0  0  0  0  0
   58.4540   34.5830   45.0010 C   0  0  0  0  0  0  0  0  0  0  0  0
   58.5660   32.9810   51.1260 C   0  0  0  0  0  0  0  0  0  0  0  0
   57.7770   32.0020   51.7390 C   0  0  0  0  0  0  0  0  0  0  0  0
   56.2819   29.9573   53.8580 H   0  0  0  0  0  0  0  0  0  0  0  0
   55.6116   31.1062   52.6509 H   0  0  0  0  0  0  0  0  0  0  0  0
   55.0783   29.3909   52.6509 H   0  0  0  0  0  0  0  0  0  0  0  0
   58.6275   29.3178   49.7990 H   0  0  0  0  0  0  0  0  0  0  0  0
   60.0297   31.0631   48.7019 H   0  0  0  0  0  0  0  0  0  0  0  0
   60.2126   34.6188   49.9762 H   0  0  0  0  0  0  0  0  0  0  0  0
   61.2374   33.3351   49.2290 H   0  0  0  0  0  0  0  0  0  0  0  0
   58.5464   33.8326   47.9852 H   0  0  0  0  0  0  0  0  0  0  0  0
   59.8129   35.1000   47.7600 H   0  0  0  0  0  0  0  0  0  0  0  0
   60.9370   32.5550   47.3800 H   0  0  0  0  0  0  0  0  0  0  0  0
   60.8230   33.8290   46.2900 H   0  0  0  0  0  0  0  0  0  0  0  0
   59.8127   30.6010   47.1476 H   0  0  0  0  0  0  0  0  0  0  0  0
   58.0949   29.2617   45.9572 H   0  0  0  0  0  0  0  0  0  0  0  0
   56.7300   32.8174   43.9058 H   0  0  0  0  0  0  0  0  0  0  0  0
   58.4856   35.1446   45.9463 H   0  0  0  0  0  0  0  0  0  0  0  0
   59.3652   34.7903   44.4207 H   0  0  0  0  0  0  0  0  0  0  0  0
   57.5718   34.8911   44.4207 H   0  0  0  0  0  0  0  0  0  0  0  0
   58.5401   34.0164   51.4965 H   0  0  0  0  0  0  0  0  0  0  0  0
   57.1389   32.2716   52.5935 H   0  0  0  0  0  0  0  0  0  0  0  0
  1  2  1  0
  2  3  1  0
  3  4  2  0
  4  5  1  0
  5  6  2  0
  6  7  1  0
  7  8  1  0
  8  9  1  0
  9 10  1  0
 10 11  2  0
 11 12  1  0
 12 13  2  0
 13 14  1  0
 14 15  2  0
 14 16  1  0
 13 17  1  0
 17 18  2  0
 18 19  1  0
  6 20  1  0
 20 21  2  0
 21  3  1  0
 18 10  1  0
  1 22  1  0
  1 23  1  0
  1 24  1  0
  4 25  1  0
  5 26  1  0
  7 27  1  0
  7 28  1  0
  8 29  1  0
  8 30  1  0
  9 31  1  0
  9 32  1  0
 11 33  1  0
 12 34  1  0
 17 35  1  0
 19 36  1  0
 19 37  1  0
 19 38  1  0
 20 39  1  0
 21 40  1  0
M  CHG  3   9   1  14   1  16  -1
M  END
>  <UniqueID>  (28) 
27

>  <SMILES>  (28) 
COc1ccc(CC[NH2+]c2ccc([N+](=O)[O-])cc2C)cc1

>  <Energy>  (28) 
39.66849281395372

>  <Genealogy>  (28) 
COc1ccc(CC[NH2+]c2ccc([N+](=O)[O-])cc2C)cc1 (protonated)
COc1ccc(CC[NH2+]c2ccc([N+](=O)[O-])cc2C)cc1 (3D coordinates assigned)
COc1ccc(CC[NH2+]c2ccc([N+](=O)[O-])cc2C)cc1 (optimized conformer: 39.66849281395372 kcal/mol)

>  <smiles>  (28) 
COc1ccc(CCNc2ccc([N+](=O)[O-])cc2C)cc1

>  <score_type>  (28) 
oracle

>  <origin>  (28) 
adg

>  <m_score__min__energy>  (28) 
-5.3300000000000001

>  <m_primary>  (28) 
energy

$$$$
28:0
     RDKit          3D

 60 63  0  0  0  0  0  0  0  0999 V2000
   62.1930   33.9340   49.4800 C   0  0  0  0  0  0  0  0  0  0  0  0
   62.0460   32.4120   49.5750 C   0  0  0  0  0  0  0  0  0  0  0  0
   62.2770   31.7380   48.2630 N   0  0  0  0  0  0  0  0  0  0  0  0
   62.3370   32.7190   47.1470 C   0  0  0  0  0  0  0  0  0  0  0  0
   63.7620   33.1500   46.7610 C   0  0  0  0  0  0  0  0  0  0  0  0
   61.2760   30.6770   47.9810 C   0  0  0  0  0  0  0  0  0  0  0  0
   60.1310   30.6540   49.0030 C   0  0  0  0  0  0  0  0  0  0  0  0
   58.8410   30.7560   48.3210 N   0  0  0  0  0  0  0  0  0  0  0  0
   58.7510   31.2380   46.9730 C   0  0  0  0  0  0  0  0  0  0  0  0
   58.9300   32.6090   46.6700 C   0  0  0  0  0  0  0  0  0  0  0  0
   59.2960   33.5260   47.6750 C   0  0  0  0  0  0  0  0  0  0  0  0
   59.5040   34.8690   47.3730 C   0  0  0  0  0  0  0  0  0  0  0  0
   59.3700   35.3210   46.0660 C   0  0  0  0  0  0  0  0  0  0  0  0
   59.0180   34.4370   45.0460 C   0  0  0  0  0  0  0  0  0  0  0  0
   58.7740   33.0680   45.3180 C   0  0  0  0  0  0  0  0  0  0  0  0
   58.4140   32.1800   44.3140 N   0  0  0  0  0  0  0  0  0  0  0  0
   58.1350   32.6450   42.9420 C   0  0  0  0  0  0  0  0  0  0  0  0
   58.3400   30.8470   44.6210 C   0  0  0  0  0  0  0  0  0  0  0  0
   58.0990   29.8320   43.7530 N   0  0  0  0  0  0  0  0  0  0  0  0
   58.0910   28.7160   44.5070 C   0  0  0  0  0  0  0  0  0  0  0  0
   57.8730   27.4170   44.0590 C   0  0  0  0  0  0  0  0  0  0  0  0
   57.8940   26.3650   45.0000 C   0  0  0  0  0  0  0  0  0  0  0  0
   57.6520   24.9560   44.5300 C   0  0  0  0  0  0  0  0  0  0  0  0
   58.1450   26.6490   46.3760 C   0  0  0  0  0  0  0  0  0  0  0  0
   58.1680   25.5500   47.4050 C   0  0  0  0  0  0  0  0  0  0  0  0
   58.3740   27.9810   46.7890 C   0  0  0  0  0  0  0  0  0  0  0  0
   58.3290   28.9960   45.8330 C   0  0  0  0  0  0  0  0  0  0  0  0
   58.4980   30.3720   45.9100 C   0  0  0  0  0  0  0  0  0  0  0  0
   62.2344   34.3623   50.4924 H   0  0  0  0  0  0  0  0  0  0  0  0
   63.1191   34.1799   48.9397 H   0  0  0  0  0  0  0  0  0  0  0  0
   61.3311   34.3526   48.9397 H   0  0  0  0  0  0  0  0  0  0  0  0
   62.7777   32.0306   50.3024 H   0  0  0  0  0  0  0  0  0  0  0  0
   61.0151   32.1922   49.8896 H   0  0  0  0  0  0  0  0  0  0  0  0
   63.2200   31.2810   48.2670 H   0  0  0  0  0  0  0  0  0  0  0  0
   61.8627   32.2660   46.2639 H   0  0  0  0  0  0  0  0  0  0  0  0
   61.8166   33.6239   47.4939 H   0  0  0  0  0  0  0  0  0  0  0  0
   64.3509   33.3281   47.6729 H   0  0  0  0  0  0  0  0  0  0  0  0
   64.2372   32.3554   46.1670 H   0  0  0  0  0  0  0  0  0  0  0  0
   63.7171   34.0748   46.1670 H   0  0  0  0  0  0  0  0  0  0  0  0
   60.8515   30.8509   46.9812 H   0  0  0  0  0  0  0  0  0  0  0  0
   61.7937   29.7083   48.0412 H   0  0  0  0  0  0  0  0  0  0  0  0
   60.1687   29.7118   49.5694 H   0  0  0  0  0  0  0  0  0  0  0  0
   60.2435   31.5086   49.6864 H   0  0  0  0  0  0  0  0  0  0  0  0
   57.9650   30.6460   48.8770 H   0  0  0  0  0  0  0  0  0  0  0  0
   59.4189   33.1766   48.7108 H   0  0  0  0  0  0  0  0  0  0  0  0
   59.7754   35.5748   48.1719 H   0  0  0  0  0  0  0  0  0  0  0  0
   59.5425   36.3824   45.8342 H   0  0  0  0  0  0  0  0  0  0  0  0
   58.9285   34.8084   44.0145 H   0  0  0  0  0  0  0  0  0  0  0  0
   57.5694   33.5876   42.9822 H   0  0  0  0  0  0  0  0  0  0  0  0
   59.0839   32.8091   42.4104 H   0  0  0  0  0  0  0  0  0  0  0  0
   57.5436   31.8850   42.4104 H   0  0  0  0  0  0  0  0  0  0  0  0
   57.9700   29.8660   42.7180 H   0  0  0  0  0  0  0  0  0  0  0  0
   57.6881   27.2140   42.9938 H   0  0  0  0  0  0  0  0  0  0  0  0
   57.5382   24.2935   45.4007 H   0  0  0  0  0  0  0  0  0  0  0  0
   56.7353   24.9243   43.9229 H   0  0  0  0  0  0  0  0  0  0  0  0
   58.5056   24.6203   43.9229 H   0  0  0  0  0  0  0  0  0  0  0  0
   58.1588   25.9910   48.4127 H   0  0  0  0  0  0  0  0  0  0  0  0
   57.2831   24.9093   47.2770 H   0  0  0  0  0  0  0  0  0  0  0  0
   59.0790   24.9469   47.2770 H   0  0  0  0  0  0  0  0  0  0  0  0
   58.5836   28.2129   47.8436 H   0  0  0  0  0  0  0  0  0  0  0  0
  1  2  1  0
  2  3  1  0
  3  4  1  0
  4  5  1  0
  3  6  1  0
  6  7  1  0
  7  8  1  0
  8  9  1  0
  9 10  2  0
 10 11  1  0
 11 12  2  0
 12 13  1  0
 13 14  2  0
 14 15  1  0
 15 16  2  0
 16 17  1  0
 16 18  1  0
 18 19  1  0
 19 20  1  0
 20 21  2  0
 21 22  1  0
 22 23  1  0
 22 24  2  0
 24 25  1  0
 24 26  1  0
 26 27  2  0
 27 28  1  0
 28  9  1  0
 15 10  1  0
 28 18  2  0
 27 20  1  0
  1 29  1  0
  1 30  1  0
  1 31  1  0
  2 32  1  0
  2 33  1  0
  3 34  1  0
  4 35  1  0
  4 36  1  0
  5 37  1  0
  5 38  1  0
  5 39  1  0
  6 40  1  0
  6 41  1  0
  7 42  1  0
  7 43  1  0
  8 44  1  0
 11 45  1  0
 12 46  1  0
 13 47  1  0
 14 48  1  0
 17 49  1  0
 17 50  1  0
 17 51  1  0
 19 52  1  0
 21 53  1  0
 23 54  1  0
 23 55  1  0
 23 56  1  0
 25 57  1  0
 25 58  1  0
 25 59  1  0
 26 60  1  0
M  CHG  2   3   1  16   1
M  END
>  <UniqueID>  (29) 
28

>  <SMILES>  (29) 
CC[NH+](CC)CCNc1c2ccccc2[n+](C)c2[nH]c3cc(C)c(C)cc3c12

>  <Energy>  (29) 
121.83785075963726

>  <Genealogy>  (29) 
CC[NH+](CC)CCNc1c2ccccc2[n+](C)c2[nH]c3cc(C)c(C)cc3c12 (protonated)
CC[NH+](CC)CCNc1c2ccccc2[n+](C)c2[nH]c3cc(C)c(C)cc3c12 (3D coordinates assigned)
CC[NH+](CC)CCNc1c2ccccc2[n+](C)c2[nH]c3cc(C)c(C)cc3c12 (optimized conformer: 121.83785075963726 kcal/mol)

>  <smiles>  (29) 
CCN(CC)CCNc1c2ccccc2[n+](C)c2[nH]c3cc(C)c(C)cc3c12

>  <score_type>  (29) 
oracle

>  <origin>  (29) 
adg

>  <m_score__min__energy>  (29) 
-5.5599999999999996

>  <m_primary>  (29) 
energy

$$$$
