0:0
     RDKit          3D

 33 35  0  0  0  0  0  0  0  0999 V2000
   62.8220   31.7980   47.5520 O   0  0  0  0  0  0  0  0  0  0  0  0
   61.7720   32.3530   47.1330 C   0  0  0  0  0  0  0  0  0  0  0  0
   61.8170   33.8030   46.7490 C   0  0  0  0  0  0  0  0  0  0  0  0
   60.3120   34.6120   47.3690 S   0  0  0  0  0  0  0  0  0  0  0  0
   59.2390   33.5910   46.3550 C   0  0  0  0  0  0  0  0  0  0  0  0
   58.2320   34.1920   45.5960 C   0  0  0  0  0  0  0  0  0  0  0  0
   57.3750   33.4110   44.8200 C   0  0  0  0  0  0  0  0  0  0  0  0
   57.5280   32.0160   44.7750 C   0  0  0  0  0  0  0  0  0  0  0  0
   56.6500   31.2150   43.9620 N   0  0  0  0  0  0  0  0  0  0  0  0
   56.7600   31.2090   42.7190 O   0  0  0  0  0  0  0  0  0  0  0  0
   55.6770   30.4350   44.5440 O   0  0  0  0  0  0  0  0  0  0  0  0
   58.5640   31.4180   45.5170 C   0  0  0  0  0  0  0  0  0  0  0  0
   59.4210   32.1960   46.3170 C   0  0  0  0  0  0  0  0  0  0  0  0
   60.5440   31.5990   47.0060 N   0  0  0  0  0  0  0  0  0  0  0  0
   60.3600   30.3780   47.8060 C   0  0  0  0  0  0  0  0  0  0  0  0
   59.8670   29.2630   46.9250 C   0  0  0  0  0  0  0  0  0  0  0  0
   58.7170   28.5380   47.2750 C   0  0  0  0  0  0  0  0  0  0  0  0
   58.2310   27.5360   46.4280 C   0  0  0  0  0  0  0  0  0  0  0  0
   58.8830   27.2590   45.2240 C   0  0  0  0  0  0  0  0  0  0  0  0
   60.0210   27.9870   44.8620 C   0  0  0  0  0  0  0  0  0  0  0  0
   60.5090   28.9890   45.7060 C   0  0  0  0  0  0  0  0  0  0  0  0
   62.7036   34.2774   47.1949 H   0  0  0  0  0  0  0  0  0  0  0  0
   61.8737   33.9011   45.6549 H   0  0  0  0  0  0  0  0  0  0  0  0
   58.1142   35.2856   45.6102 H   0  0  0  0  0  0  0  0  0  0  0  0
   56.5738   33.8915   44.2393 H   0  0  0  0  0  0  0  0  0  0  0  0
   58.7054   30.3281   45.4708 H   0  0  0  0  0  0  0  0  0  0  0  0
   61.3203   30.0892   48.2582 H   0  0  0  0  0  0  0  0  0  0  0  0
   59.6211   30.5698   48.5980 H   0  0  0  0  0  0  0  0  0  0  0  0
   58.1961   28.7584   48.2185 H   0  0  0  0  0  0  0  0  0  0  0  0
   57.3340   26.9654   46.7106 H   0  0  0  0  0  0  0  0  0  0  0  0
   58.5015   26.4686   44.5609 H   0  0  0  0  0  0  0  0  0  0  0  0
   60.5325   27.7710   43.9124 H   0  0  0  0  0  0  0  0  0  0  0  0
   61.3994   29.5652   45.4143 H   0  0  0  0  0  0  0  0  0  0  0  0
  1  2  2  0
  2  3  1  0
  3  4  1  0
  4  5  1  0
  5  6  2  0
  6  7  1  0
  7  8  2  0
  8  9  1  0
  9 10  2  0
  9 11  1  0
  8 12  1  0
 12 13  2  0
 13 14  1  0
 14 15  1  0
 15 16  1  0
 16 17  2  0
 17 18  1  0
 18 19  2  0
 19 20  1  0
 20 21  2  0
 14  2  1  0
 21 16  1  0
 13  5  1  0
  3 22  1  0
  3 23  1  0
  6 24  1  0
  7 25  1  0
 12 26  1  0
 15 27  1  0
 15 28  1  0
 17 29  1  0
 18 30  1  0
 19 31  1  0
 20 32  1  0
 21 33  1  0
M  CHG  2   9   1  11  -1
M  END
>  <UniqueID>  (1) 
1

>  <SMILES>  (1) 
O=C1CSc2ccc([N+](=O)[O-])cc2N1Cc1ccccc1

>  <Energy>  (1) 
42.70711507679564

>  <Genealogy>  (1) 
O=C1CSc2ccc([N+](=O)[O-])cc2N1Cc1ccccc1 (3D coordinates assigned)
O=C1CSc2ccc([N+](=O)[O-])cc2N1Cc1ccccc1 (nonaromatic ring conformer: 42.70711507679564 kcal/mol)

>  <smiles>  (1) 
O=C1CSc2ccc([N+](=O)[O-])cc2N1Cc1ccccc1

>  <score_type>  (1) 
oracle

>  <origin>  (1) 
adg

>  <m_score__min__energy>  (1) 
-7.4400000000000004

>  <m_primary>  (1) 
energy

$$$$
1:0
     RDKit          3D

 42 43  0  0  0  0  0  0  0  0999 V2000
   63.1370   33.5310   46.8820 C   0  0  0  0  0  0  0  0  0  0  0  0
   62.4950   32.7700   48.0420 C   0  0  0  0  0  0  0  0  0  0  0  0
   62.3850   33.6030   49.2590 N   0  0  0  0  0  0  0  0  0  0  0  0
   63.7110   33.8190   49.8630 C   0  0  0  0  0  0  0  0  0  0  0  0
   61.3900   33.1340   50.2550 C   0  0  0  0  0  0  0  0  0  0  0  0
   60.0230   33.8590   50.1870 C   0  0  0  0  0  0  0  0  0  0  0  0
   59.9230   34.7360   49.0070 N   0  0  0  0  0  0  0  0  0  0  0  0
   59.3840   34.0360   47.8640 C   0  0  0  0  0  0  0  0  0  0  0  0
   58.9200   32.7170   47.9930 C   0  0  0  0  0  0  0  0  0  0  0  0
   58.3840   32.0430   46.8930 C   0  0  0  0  0  0  0  0  0  0  0  0
   58.3040   32.6740   45.6380 C   0  0  0  0  0  0  0  0  0  0  0  0
   57.7330   31.9580   44.4690 C   0  0  0  0  0  0  0  0  0  0  0  0
   57.8900   32.4730   43.1680 C   0  0  0  0  0  0  0  0  0  0  0  0
   57.3520   31.7960   42.0680 C   0  0  0  0  0  0  0  0  0  0  0  0
   56.6520   30.6020   42.2530 C   0  0  0  0  0  0  0  0  0  0  0  0
   56.4890   30.0810   43.5400 C   0  0  0  0  0  0  0  0  0  0  0  0
   57.0260   30.7530   44.6420 C   0  0  0  0  0  0  0  0  0  0  0  0
   58.7730   33.9930   45.5100 C   0  0  0  0  0  0  0  0  0  0  0  0
   59.3070   34.6680   46.6110 C   0  0  0  0  0  0  0  0  0  0  0  0
   63.7984   34.3150   47.2792 H   0  0  0  0  0  0  0  0  0  0  0  0
   63.7237   32.8336   46.2660 H   0  0  0  0  0  0  0  0  0  0  0  0
   62.3508   33.9919   46.2660 H   0  0  0  0  0  0  0  0  0  0  0  0
   61.4875   32.4473   47.7405 H   0  0  0  0  0  0  0  0  0  0  0  0
   63.1357   31.9075   48.2779 H   0  0  0  0  0  0  0  0  0  0  0  0
   63.6213   33.8044   50.9592 H   0  0  0  0  0  0  0  0  0  0  0  0
   64.3953   33.0205   49.5404 H   0  0  0  0  0  0  0  0  0  0  0  0
   64.1065   34.7934   49.5404 H   0  0  0  0  0  0  0  0  0  0  0  0
   61.2181   32.0602   50.0896 H   0  0  0  0  0  0  0  0  0  0  0  0
   61.8121   33.3541   51.2467 H   0  0  0  0  0  0  0  0  0  0  0  0
   59.2231   33.1055   50.1386 H   0  0  0  0  0  0  0  0  0  0  0  0
   59.9247   34.4853   51.0859 H   0  0  0  0  0  0  0  0  0  0  0  0
   60.8830   35.0800   48.7650 H   0  0  0  0  0  0  0  0  0  0  0  0
   59.3460   35.5790   49.2360 H   0  0  0  0  0  0  0  0  0  0  0  0
   58.9790   32.2105   48.9677 H   0  0  0  0  0  0  0  0  0  0  0  0
   58.0217   31.0109   47.0089 H   0  0  0  0  0  0  0  0  0  0  0  0
   58.4392   33.4138   43.0154 H   0  0  0  0  0  0  0  0  0  0  0  0
   57.4808   32.2053   41.0551 H   0  0  0  0  0  0  0  0  0  0  0  0
   56.2292   30.0719   41.3869 H   0  0  0  0  0  0  0  0  0  0  0  0
   55.9372   29.1406   43.6858 H   0  0  0  0  0  0  0  0  0  0  0  0
   56.8951   30.3371   45.6519 H   0  0  0  0  0  0  0  0  0  0  0  0
   58.7192   34.4984   44.5344 H   0  0  0  0  0  0  0  0  0  0  0  0
   59.6693   35.7003   46.4963 H   0  0  0  0  0  0  0  0  0  0  0  0
  1  2  1  0
  2  3  1  0
  3  4  1  0
  3  5  1  0
  5  6  1  0
  6  7  1  0
  7  8  1  0
  8  9  2  0
  9 10  1  0
 10 11  2  0
 11 12  1  0
 12 13  2  0
 13 14  1  0
 14 15  2  0
 15 16  1  0
 16 17  2  0
 11 18  1  0
 18 19  2  0
 19  8  1  0
 17 12  1  0
  1 20  1  0
  1 21  1  0
  1 22  1  0
  2 23  1  0
  2 24  1  0
  4 25  1  0
  4 26  1  0
  4 27  1  0
  5 28  1  0
  5 29  1  0
  6 30  1  0
  6 31  1  0
  7 32  1  0
  7 33  1  0
  9 34  1  0
 10 35  1  0
 13 36  1  0
 14 37  1  0
 15 38  1  0
 16 39  1  0
 17 40  1  0
 18 41  1  0
 19 42  1  0
M  CHG  1   7   1
M  END
>  <UniqueID>  (2) 
2

>  <SMILES>  (2) 
CCN(C)CC[NH2+]c1ccc(-c2ccccc2)cc1

>  <Energy>  (2) 
49.98631574890647

>  <Genealogy>  (2) 
CCN(C)CC[NH2+]c1ccc(-c2ccccc2)cc1 (protonated)
CCN(C)CC[NH2+]c1ccc(-c2ccccc2)cc1 (3D coordinates assigned)
CCN(C)CC[NH2+]c1ccc(-c2ccccc2)cc1 (optimized conformer: 49.98631574890647 kcal/mol)

>  <smiles>  (2) 
CCN(C)CCNc1ccc(-c2ccccc2)cc1

>  <score_type>  (2) 
oracle

>  <origin>  (2) 
adg

>  <m_score__min__energy>  (2) 
-5.04

>  <m_primary>  (2) 
energy

$$$$
2:0
     RDKit          3D

 40 41  0  0  0  0  0  0  0  0999 V2000
   59.2560   22.6350   44.8280 C   0  0  0  0  0  0  0  0  0  0  0  0
   57.7970   22.8390   45.2160 C   0  0  0  0  0  0  0  0  0  0  0  0
   57.1110   23.6800   44.2250 N   0  0  0  0  0  0  0  0  0  0  0  0
   56.3750   23.0590   43.1190 C   0  0  0  0  0  0  0  0  0  0  0  0
   56.7970   21.6030   42.9470 C   0  0  0  0  0  0  0  0  0  0  0  0
   57.3590   25.0960   44.1990 C   0  0  0  0  0  0  0  0  0  0  0  0
   57.7700   25.7010   43.0010 C   0  0  0  0  0  0  0  0  0  0  0  0
   57.9950   27.0750   42.9410 C   0  0  0  0  0  0  0  0  0  0  0  0
   57.7980   27.8790   44.0720 C   0  0  0  0  0  0  0  0  0  0  0  0
   58.0470   29.2930   43.9850 N   0  0  0  0  0  0  0  0  0  0  0  0
   57.1930   30.2910   44.5660 C   0  0  0  0  0  0  0  0  0  0  0  0
   56.0080   30.0010   44.8850 O   0  0  0  0  0  0  0  0  0  0  0  0
   57.6660   31.6730   44.7570 C   0  0  0  0  0  0  0  0  0  0  0  0
   57.7910   32.3510   45.9670 C   0  0  0  0  0  0  0  0  0  0  0  0
   58.2550   33.6650   45.8190 C   0  0  0  0  0  0  0  0  0  0  0  0
   58.4950   34.0290   44.5000 C   0  0  0  0  0  0  0  0  0  0  0  0
   58.1270   32.7150   43.5190 S   0  0  0  0  0  0  0  0  0  0  0  0
   57.4110   27.2760   45.2810 C   0  0  0  0  0  0  0  0  0  0  0  0
   57.1970   25.8890   45.3580 C   0  0  0  0  0  0  0  0  0  0  0  0
   56.7600   25.2930   46.6690 C   0  0  0  0  0  0  0  0  0  0  0  0
   59.8687   22.5493   45.7375 H   0  0  0  0  0  0  0  0  0  0  0  0
   59.3520   21.7147   44.2332 H   0  0  0  0  0  0  0  0  0  0  0  0
   59.6007   23.4937   44.2332 H   0  0  0  0  0  0  0  0  0  0  0  0
   57.2967   21.8608   45.2683 H   0  0  0  0  0  0  0  0  0  0  0  0
   57.7569   23.3397   46.1946 H   0  0  0  0  0  0  0  0  0  0  0  0
   55.2969   23.1005   43.3332 H   0  0  0  0  0  0  0  0  0  0  0  0
   56.5987   23.6061   42.1913 H   0  0  0  0  0  0  0  0  0  0  0  0
   56.9310   21.1408   43.9361 H   0  0  0  0  0  0  0  0  0  0  0  0
   56.0195   21.0592   42.3904 H   0  0  0  0  0  0  0  0  0  0  0  0
   57.7448   21.5592   42.3904 H   0  0  0  0  0  0  0  0  0  0  0  0
   57.9158   25.0850   42.1014 H   0  0  0  0  0  0  0  0  0  0  0  0
   58.3299   27.5323   41.9983 H   0  0  0  0  0  0  0  0  0  0  0  0
   58.8340   29.6100   43.3750 H   0  0  0  0  0  0  0  0  0  0  0  0
   57.5498   31.9004   46.9410 H   0  0  0  0  0  0  0  0  0  0  0  0
   58.4144   34.3452   46.6686 H   0  0  0  0  0  0  0  0  0  0  0  0
   58.8622   35.0076   44.1571 H   0  0  0  0  0  0  0  0  0  0  0  0
   57.2738   27.8973   46.1783 H   0  0  0  0  0  0  0  0  0  0  0  0
   57.1877   25.8764   47.4977 H   0  0  0  0  0  0  0  0  0  0  0  0
   55.6621   25.3146   46.7338 H   0  0  0  0  0  0  0  0  0  0  0  0
   57.1107   24.2524   46.7338 H   0  0  0  0  0  0  0  0  0  0  0  0
  1  2  1  0
  2  3  1  0
  3  4  1  0
  4  5  1  0
  3  6  1  0
  6  7  2  0
  7  8  1  0
  8  9  2  0
  9 10  1  0
 10 11  1  0
 11 12  2  0
 11 13  1  0
 13 14  2  0
 14 15  1  0
 15 16  2  0
 16 17  1  0
  9 18  1  0
 18 19  2  0
 19 20  1  0
 19  6  1  0
 17 13  1  0
  1 21  1  0
  1 22  1  0
  1 23  1  0
  2 24  1  0
  2 25  1  0
  4 26  1  0
  4 27  1  0
  5 28  1  0
  5 29  1  0
  5 30  1  0
  7 31  1  0
  8 32  1  0
 10 33  1  0
 14 34  1  0
 15 35  1  0
 16 36  1  0
 18 37  1  0
 20 38  1  0
 20 39  1  0
 20 40  1  0
M  END
>  <UniqueID>  (3) 
3

>  <SMILES>  (3) 
CCN(CC)c1ccc(NC(=O)c2cccs2)cc1C

>  <Energy>  (3) 
66.86806409564534

>  <Genealogy>  (3) 
CCN(CC)c1ccc(NC(=O)c2cccs2)cc1C (3D coordinates assigned)
CCN(CC)c1ccc(NC(=O)c2cccs2)cc1C (optimized conformer: 66.86806409564534 kcal/mol)

>  <smiles>  (3) 
CCN(CC)c1ccc(NC(=O)c2cccs2)cc1C

>  <score_type>  (3) 
oracle

>  <origin>  (3) 
adg

>  <m_score__min__energy>  (3) 
-7.0800000000000001

>  <m_primary>  (3) 
energy

$$$$
3:0
     RDKit          3D

 56 59  0  0  0  0  0  0  0  0999 V2000
   57.0721   32.8301   47.8483 H   0  0  0  0  0  0  0  0  0  0  0  0
   57.7970   33.3590   47.2120 C   0  0  0  0  0  0  0  0  0  0  0  0
   59.0920   33.4800   47.6120 N   0  0  0  0  0  0  0  0  0  0  0  0
   60.0200   34.1290   46.8530 C   0  0  0  0  0  0  0  0  0  0  0  0
   61.2530   34.2360   47.2530 N   0  0  0  0  0  0  0  0  0  0  0  0
   62.4140   33.8690   46.4470 C   0  0  0  0  0  0  0  0  0  0  0  0
   63.0658   34.7471   46.3283 H   0  0  0  0  0  0  0  0  0  0  0  0
   62.0703   33.5194   45.4623 H   0  0  0  0  0  0  0  0  0  0  0  0
   63.2010   32.7430   47.1300 C   0  0  0  0  0  0  0  0  0  0  0  0
   64.1987   33.1264   47.3900 H   0  0  0  0  0  0  0  0  0  0  0  0
   63.2421   31.9055   46.4181 H   0  0  0  0  0  0  0  0  0  0  0  0
   62.5370   32.2050   48.4160 C   0  0  0  0  0  0  0  0  0  0  0  0
   62.6363   32.9715   49.1987 H   0  0  0  0  0  0  0  0  0  0  0  0
   63.0532   31.2649   48.6606 H   0  0  0  0  0  0  0  0  0  0  0  0
   61.1070   31.8700   48.2810 N   0  0  0  0  0  0  0  0  0  0  0  0
   60.5390   32.4520   48.9390 H   0  0  0  0  0  0  0  0  0  0  0  0
   60.7980   30.4480   48.4920 C   0  0  0  0  0  0  0  0  0  0  0  0
   60.2779   30.3322   49.4543 H   0  0  0  0  0  0  0  0  0  0  0  0
   61.7410   29.8816   48.4919 H   0  0  0  0  0  0  0  0  0  0  0  0
   59.9190   29.9150   47.3900 C   0  0  0  0  0  0  0  0  0  0  0  0
   59.5700   28.5620   47.3730 C   0  0  0  0  0  0  0  0  0  0  0  0
   59.9529   27.8881   48.1535 H   0  0  0  0  0  0  0  0  0  0  0  0
   58.7350   28.0600   46.3670 C   0  0  0  0  0  0  0  0  0  0  0  0
   58.4310   26.6120   46.3640 C   0  0  0  0  0  0  0  0  0  0  0  0
   57.1500   26.1520   46.7090 C   0  0  0  0  0  0  0  0  0  0  0  0
   56.3705   26.8710   47.0011 H   0  0  0  0  0  0  0  0  0  0  0  0
   56.8610   24.7860   46.6830 C   0  0  0  0  0  0  0  0  0  0  0  0
   55.8560   24.4358   46.9612 H   0  0  0  0  0  0  0  0  0  0  0  0
   57.8390   23.8590   46.3060 C   0  0  0  0  0  0  0  0  0  0  0  0
   57.5000   22.4970   46.2980 O   0  0  0  0  0  0  0  0  0  0  0  0
   57.7180   21.6210   45.1970 C   0  0  0  0  0  0  0  0  0  0  0  0
   57.9678   20.6172   45.5710 H   0  0  0  0  0  0  0  0  0  0  0  0
   56.8057   21.5676   44.5847 H   0  0  0  0  0  0  0  0  0  0  0  0
   58.5489   22.0014   44.5847 H   0  0  0  0  0  0  0  0  0  0  0  0
   59.1210   24.3190   45.9480 C   0  0  0  0  0  0  0  0  0  0  0  0
   59.8976   23.5998   45.6485 H   0  0  0  0  0  0  0  0  0  0  0  0
   59.4100   25.6870   45.9720 C   0  0  0  0  0  0  0  0  0  0  0  0
   60.4107   26.0397   45.6818 H   0  0  0  0  0  0  0  0  0  0  0  0
   58.2250   28.9470   45.3880 C   0  0  0  0  0  0  0  0  0  0  0  0
   57.3310   28.5270   44.3800 C   0  0  0  0  0  0  0  0  0  0  0  0
   57.0107   27.4755   44.3372 H   0  0  0  0  0  0  0  0  0  0  0  0
   56.8500   29.4380   43.4360 C   0  0  0  0  0  0  0  0  0  0  0  0
   56.1582   29.0995   42.6506 H   0  0  0  0  0  0  0  0  0  0  0  0
   57.2440   30.7750   43.4860 C   0  0  0  0  0  0  0  0  0  0  0  0
   56.8691   31.4855   42.7346 H   0  0  0  0  0  0  0  0  0  0  0  0
   58.1120   31.2140   44.4860 C   0  0  0  0  0  0  0  0  0  0  0  0
   58.4134   32.2712   44.5236 H   0  0  0  0  0  0  0  0  0  0  0  0
   58.6030   30.3130   45.4450 C   0  0  0  0  0  0  0  0  0  0  0  0
   59.4330   30.7560   46.4330 N   0  0  0  0  0  0  0  0  0  0  0  0
   59.6940   31.7670   46.4670 H   0  0  0  0  0  0  0  0  0  0  0  0
   59.6440   34.6900   45.6270 C   0  0  0  0  0  0  0  0  0  0  0  0
   60.3844   35.2162   45.0066 H   0  0  0  0  0  0  0  0  0  0  0  0
   58.3190   34.5750   45.1990 C   0  0  0  0  0  0  0  0  0  0  0  0
   58.0106   35.0110   44.2373 H   0  0  0  0  0  0  0  0  0  0  0  0
   57.3880   33.9060   45.9940 C   0  0  0  0  0  0  0  0  0  0  0  0
   56.3428   33.8104   45.6648 H   0  0  0  0  0  0  0  0  0  0  0  0
  1  2  1  0
  2  3  1  0
  3  4  1  0
  4  5  2  0
  5  6  1  0
  6  7  1  0
  6  8  1  0
  6  9  1  0
  9 10  1  0
  9 11  1  0
  9 12  1  0
 12 13  1  0
 12 14  1  0
 12 15  1  0
 15 16  1  0
 15 17  1  0
 17 18  1  0
 17 19  1  0
 17 20  1  0
 20 21  2  0
 21 22  1  0
 21 23  1  0
 23 24  1  0
 24 25  2  0
 25 26  1  0
 25 27  1  0
 27 28  1  0
 27 29  2  0
 29 30  1  0
 30 31  1  0
 31 32  1  0
 31 33  1  0
 31 34  1  0
 29 35  1  0
 35 36  1  0
 35 37  2  0
 37 38  1  0
 23 39  2  0
 39 40  1  0
 40 41  1  0
 40 42  2  0
 42 43  1  0
 42 44  1  0
 44 45  1  0
 44 46  2  0
 46 47  1  0
 46 48  1  0
 48 49  2  0
 49 50  1  0
  4 51  1  0
 51 52  1  0
 51 53  2  0
 53 54  1  0
 53 55  1  0
 55 56  1  0
 55  2  2  0
 49 20  1  0
 37 24  1  0
 48 39  1  0
M  CHG  2   3  -1  49   1
M  END
>  <UniqueID>  (4) 
4

>  <SMILES>  (4) 
COc1ccc(-c2cc(CNCCC/N=c3/cccc[n-]3)[nH+]c3ccccc23)cc1

>  <Energy>  (4) 
70.05214374067384

>  <Genealogy>  (4) 
COc1ccc(-c2cc(CNCCCN=c3cccc[n-]3)[nH+]c3ccccc23)cc1 (protonated)
COc1ccc(-c2cc(CNCCC/N=c3/cccc[n-]3)[nH+]c3ccccc23)cc1 (cis-trans isomerization)
COc1ccc(-c2cc(CNCCC/N=c3/cccc[n-]3)[nH+]c3ccccc23)cc1 (3D coordinates assigned)
COc1ccc(-c2cc(CNCCC/N=c3/cccc[n-]3)[nH+]c3ccccc23)cc1 (optimized conformer: 70.05214374067384 kcal/mol)

>  <smiles>  (4) 
COc1ccc(-c2cc(CNCCCN=c3cccc[nH]3)nc3ccccc23)cc1

>  <score_type>  (4) 
oracle

>  <origin>  (4) 
adg

>  <m_score__min__energy>  (4) 
-8.6099999999999994

>  <m_primary>  (4) 
energy

$$$$
4:0
     RDKit          3D

 43 45  0  0  0  0  0  0  0  0999 V2000
   54.7400   28.9660   45.5250 H   0  0  0  0  0  0  0  0  0  0  0  0
   55.4770   29.3180   44.9270 O   0  0  0  0  0  0  0  0  0  0  0  0
   56.5990   28.5590   44.6830 N   0  0  0  0  0  0  0  0  0  0  0  0
   56.4810   27.6730   44.1430 H   0  0  0  0  0  0  0  0  0  0  0  0
   57.7840   28.9310   45.0860 C   0  0  0  0  0  0  0  0  0  0  0  0
   58.4870   28.1650   46.1430 C   0  0  0  0  0  0  0  0  0  0  0  0
   58.1020   26.8540   46.4950 C   0  0  0  0  0  0  0  0  0  0  0  0
   57.0300   26.2360   45.8340 O   0  0  0  0  0  0  0  0  0  0  0  0
   56.6960   24.8770   45.9190 C   0  0  0  0  0  0  0  0  0  0  0  0
   56.5810   24.2110   47.1520 C   0  0  0  0  0  0  0  0  0  0  0  0
   56.7445   24.7617   48.0901 H   0  0  0  0  0  0  0  0  0  0  0  0
   56.2600   22.8530   47.1890 C   0  0  0  0  0  0  0  0  0  0  0  0
   56.1619   22.3384   48.1562 H   0  0  0  0  0  0  0  0  0  0  0  0
   56.0630   22.1460   46.0000 C   0  0  0  0  0  0  0  0  0  0  0  0
   55.8025   21.0779   46.0364 H   0  0  0  0  0  0  0  0  0  0  0  0
   56.1950   22.7880   44.7620 C   0  0  0  0  0  0  0  0  0  0  0  0
   55.9970   22.0330   43.5970 O   0  0  0  0  0  0  0  0  0  0  0  0
   57.0010   21.2360   42.9760 C   0  0  0  0  0  0  0  0  0  0  0  0
   57.6136   20.7497   43.7495 H   0  0  0  0  0  0  0  0  0  0  0  0
   56.5240   20.4679   42.3495 H   0  0  0  0  0  0  0  0  0  0  0  0
   57.6408   21.8748   42.3495 H   0  0  0  0  0  0  0  0  0  0  0  0
   56.5200   24.1580   44.7300 C   0  0  0  0  0  0  0  0  0  0  0  0
   56.6367   24.6680   43.7624 H   0  0  0  0  0  0  0  0  0  0  0  0
   58.7700   26.2010   47.4880 N   0  0  0  0  0  0  0  0  0  0  0  0
   59.8220   26.7600   48.1420 C   0  0  0  0  0  0  0  0  0  0  0  0
   60.3330   26.2019   48.9404 H   0  0  0  0  0  0  0  0  0  0  0  0
   60.2530   28.0400   47.8010 C   0  0  0  0  0  0  0  0  0  0  0  0
   61.1112   28.4933   48.3187 H   0  0  0  0  0  0  0  0  0  0  0  0
   59.5860   28.7410   46.7970 C   0  0  0  0  0  0  0  0  0  0  0  0
   59.9231   29.7499   46.5167 H   0  0  0  0  0  0  0  0  0  0  0  0
   58.4370   30.0910   44.5350 N   0  0  0  0  0  0  0  0  0  0  0  0
   59.4830   30.1140   44.5700 H   0  0  0  0  0  0  0  0  0  0  0  0
   57.7220   31.3160   44.1770 C   0  0  0  0  0  0  0  0  0  0  0  0
   57.8924   31.5375   43.1131 H   0  0  0  0  0  0  0  0  0  0  0  0
   56.6480   31.1706   44.3651 H   0  0  0  0  0  0  0  0  0  0  0  0
   58.2090   32.4640   45.0040 C   0  0  0  0  0  0  0  0  0  0  0  0
   59.2710   32.4200   45.7740 O   0  0  0  0  0  0  0  0  0  0  0  0
   59.3990   33.5820   46.3740 C   0  0  0  0  0  0  0  0  0  0  0  0
   60.1997   33.8444   47.0812 H   0  0  0  0  0  0  0  0  0  0  0  0
   58.3770   34.4240   45.9830 C   0  0  0  0  0  0  0  0  0  0  0  0
   58.2122   35.4609   46.3112 H   0  0  0  0  0  0  0  0  0  0  0  0
   57.6050   33.7020   45.0980 C   0  0  0  0  0  0  0  0  0  0  0  0
   56.6980   34.0411   44.5762 H   0  0  0  0  0  0  0  0  0  0  0  0
  1  2  1  0
  2  3  1  0
  3  4  1  0
  3  5  2  0
  5  6  1  0
  6  7  1  0
  7  8  1  0
  8  9  1  0
  9 10  2  0
 10 11  1  0
 10 12  1  0
 12 13  1  0
 12 14  2  0
 14 15  1  0
 14 16  1  0
 16 17  1  0
 17 18  1  0
 18 19  1  0
 18 20  1  0
 18 21  1  0
 16 22  2  0
 22 23  1  0
  7 24  2  0
 24 25  1  0
 25 26  1  0
 25 27  2  0
 27 28  1  0
 27 29  1  0
 29 30  1  0
  5 31  1  0
 31 32  1  0
 31 33  1  0
 33 34  1  0
 33 35  1  0
 33 36  1  0
 36 37  1  0
 37 38  1  0
 38 39  1  0
 38 40  2  0
 40 41  1  0
 40 42  1  0
 42 43  1  0
 29  6  2  0
 42 36  2  0
 22  9  1  0
M  CHG  1   3   1
M  END
>  <UniqueID>  (5) 
5

>  <SMILES>  (5) 
COc1cccc(Oc2ncccc2/C(NCc2ccco2)=[NH+]/O)c1

>  <Energy>  (5) 
81.53361952837331

>  <Genealogy>  (5) 
COc1cccc(Oc2ncccc2C(NCc2ccco2)=[NH+]O)c1 (protonated)
COc1cccc(Oc2ncccc2/C(NCc2ccco2)=[NH+]/O)c1 (cis-trans isomerization)
COc1cccc(Oc2ncccc2/C(NCc2ccco2)=[NH+]/O)c1 (3D coordinates assigned)
COc1cccc(Oc2ncccc2/C(NCc2ccco2)=[NH+]/O)c1 (optimized conformer: 81.53361952837331 kcal/mol)

>  <smiles>  (5) 
COc1cccc(Oc2ncccc2C(=NO)NCc2ccco2)c1

>  <score_type>  (5) 
oracle

>  <origin>  (5) 
adg

>  <m_score__min__energy>  (5) 
-6.1900000000000004

>  <m_primary>  (5) 
energy

$$$$
5:0
     RDKit          3D

 36 37  0  0  0  0  0  0  0  0999 V2000
   55.8920   19.6100   43.8790 C   0  0  0  0  0  0  0  0  0  0  0  0
   55.9600   21.0090   43.6300 O   0  0  0  0  0  0  0  0  0  0  0  0
   56.7050   21.9150   44.4000 C   0  0  0  0  0  0  0  0  0  0  0  0
   58.1010   21.8180   44.3700 C   0  0  0  0  0  0  0  0  0  0  0  0
   58.8890   22.7050   45.1050 C   0  0  0  0  0  0  0  0  0  0  0  0
   58.2880   23.6920   45.8870 C   0  0  0  0  0  0  0  0  0  0  0  0
   56.8940   23.7910   45.9540 C   0  0  0  0  0  0  0  0  0  0  0  0
   56.3200   24.8320   46.7580 N   0  0  0  0  0  0  0  0  0  0  0  0
   56.2270   26.2210   46.4180 C   0  0  0  0  0  0  0  0  0  0  0  0
   55.1470   26.7120   45.9950 O   0  0  0  0  0  0  0  0  0  0  0  0
   57.4150   27.1040   46.6240 C   0  0  0  0  0  0  0  0  0  0  0  0
   58.7170   26.6780   45.4120 S   0  0  0  0  0  0  0  0  0  0  0  0
   58.0160   27.5880   43.9890 C   0  0  0  0  0  0  0  0  0  0  0  0
   57.8840   29.0580   44.2830 C   0  0  0  0  0  0  0  0  0  0  0  0
   58.8650   29.7180   45.0420 C   0  0  0  0  0  0  0  0  0  0  0  0
   58.7310   31.0770   45.3390 C   0  0  0  0  0  0  0  0  0  0  0  0
   57.6180   31.7890   44.8790 C   0  0  0  0  0  0  0  0  0  0  0  0
   57.4160   33.6370   45.3140 Br  0  0  0  0  0  0  0  0  0  0  0  0
   56.6420   31.1410   44.1160 C   0  0  0  0  0  0  0  0  0  0  0  0
   56.7720   29.7810   43.8200 C   0  0  0  0  0  0  0  0  0  0  0  0
   56.1010   22.9140   45.1900 C   0  0  0  0  0  0  0  0  0  0  0  0
   55.8833   19.4307   44.9643 H   0  0  0  0  0  0  0  0  0  0  0  0
   54.9730   19.2024   43.4326 H   0  0  0  0  0  0  0  0  0  0  0  0
   56.7672   19.1152   43.4326 H   0  0  0  0  0  0  0  0  0  0  0  0
   58.5808   21.0366   43.7624 H   0  0  0  0  0  0  0  0  0  0  0  0
   59.9855   22.6259   45.0677 H   0  0  0  0  0  0  0  0  0  0  0  0
   58.9140   24.3965   46.4543 H   0  0  0  0  0  0  0  0  0  0  0  0
   57.1180   28.1543   46.4876 H   0  0  0  0  0  0  0  0  0  0  0  0
   57.8041   26.9595   47.6427 H   0  0  0  0  0  0  0  0  0  0  0  0
   58.6770   27.4556   43.1198 H   0  0  0  0  0  0  0  0  0  0  0  0
   57.0127   27.1864   43.7839 H   0  0  0  0  0  0  0  0  0  0  0  0
   59.7426   29.1624   45.4041 H   0  0  0  0  0  0  0  0  0  0  0  0
   59.5016   31.5875   45.9352 H   0  0  0  0  0  0  0  0  0  0  0  0
   55.7704   31.7022   43.7480 H   0  0  0  0  0  0  0  0  0  0  0  0
   56.0001   29.2746   43.2218 H   0  0  0  0  0  0  0  0  0  0  0  0
   55.0053   23.0087   45.2096 H   0  0  0  0  0  0  0  0  0  0  0  0
  1  2  1  0
  2  3  1  0
  3  4  2  0
  4  5  1  0
  5  6  2  0
  6  7  1  0
  7  8  1  0
  8  9  1  0
  9 10  2  0
  9 11  1  0
 11 12  1  0
 12 13  1  0
 13 14  1  0
 14 15  2  0
 15 16  1  0
 16 17  2  0
 17 18  1  0
 17 19  1  0
 19 20  2  0
  7 21  2  0
 21  3  1  0
 20 14  1  0
  1 22  1  0
  1 23  1  0
  1 24  1  0
  4 25  1  0
  5 26  1  0
  6 27  1  0
 11 28  1  0
 11 29  1  0
 13 30  1  0
 13 31  1  0
 15 32  1  0
 16 33  1  0
 19 34  1  0
 20 35  1  0
 21 36  1  0
M  CHG  1   8  -1
M  END
>  <UniqueID>  (6) 
6

>  <SMILES>  (6) 
COc1cccc([N-]C(=O)CSCc2ccc(Br)cc2)c1

>  <Energy>  (6) 
31.963012459105357

>  <Genealogy>  (6) 
COc1cccc([N-]C(=O)CSCc2ccc(Br)cc2)c1 (protonated)
COc1cccc([N-]C(=O)CSCc2ccc(Br)cc2)c1 (3D coordinates assigned)
COc1cccc([N-]C(=O)CSCc2ccc(Br)cc2)c1 (optimized conformer: 31.963012459105357 kcal/mol)

>  <smiles>  (6) 
COc1cccc(NC(=O)CSCc2ccc(Br)cc2)c1

>  <score_type>  (6) 
oracle

>  <origin>  (6) 
adg

>  <m_score__min__energy>  (6) 
-9.1899999999999995

>  <m_primary>  (6) 
energy

$$$$
6:0
     RDKit          3D

 43 43  0  0  0  0  0  0  0  0999 V2000
   57.3970   32.3390   41.2620 C   0  0  0  0  0  0  0  0  0  0  0  0
   58.1440   32.5020   42.5820 C   0  0  0  0  0  0  0  0  0  0  0  0
   57.6220   31.5240   43.5620 N   0  0  0  0  0  0  0  0  0  0  0  0
   56.6460   30.5730   42.9690 C   0  0  0  0  0  0  0  0  0  0  0  0
   55.8090   29.8050   44.0050 C   0  0  0  0  0  0  0  0  0  0  0  0
   57.1750   32.1600   44.8220 C   0  0  0  0  0  0  0  0  0  0  0  0
   58.3500   32.5350   45.6890 C   0  0  0  0  0  0  0  0  0  0  0  0
   59.1260   31.5340   46.2930 C   0  0  0  0  0  0  0  0  0  0  0  0
   60.2060   31.8720   47.1120 C   0  0  0  0  0  0  0  0  0  0  0  0
   60.5350   33.2210   47.3420 C   0  0  0  0  0  0  0  0  0  0  0  0
   61.6430   33.5770   48.2030 N   0  0  0  0  0  0  0  0  0  0  0  0
   63.0270   33.3190   47.7770 C   0  0  0  0  0  0  0  0  0  0  0  0
   63.2740   33.8540   46.3670 C   0  0  0  0  0  0  0  0  0  0  0  0
   61.4090   34.2050   49.5140 C   0  0  0  0  0  0  0  0  0  0  0  0
   60.0340   33.8300   50.0600 C   0  0  0  0  0  0  0  0  0  0  0  0
   59.7600   34.2200   46.7230 C   0  0  0  0  0  0  0  0  0  0  0  0
   58.6800   33.8810   45.9040 C   0  0  0  0  0  0  0  0  0  0  0  0
   56.3407   32.1085   41.4645 H   0  0  0  0  0  0  0  0  0  0  0  0
   57.4644   33.2730   40.6848 H   0  0  0  0  0  0  0  0  0  0  0  0
   57.8473   31.5180   40.6848 H   0  0  0  0  0  0  0  0  0  0  0  0
   59.2176   32.3242   42.4213 H   0  0  0  0  0  0  0  0  0  0  0  0
   57.9974   33.5226   42.9653 H   0  0  0  0  0  0  0  0  0  0  0  0
   55.9601   31.1402   42.3227 H   0  0  0  0  0  0  0  0  0  0  0  0
   57.2300   29.8236   42.4146 H   0  0  0  0  0  0  0  0  0  0  0  0
   56.1243   30.0943   45.0183 H   0  0  0  0  0  0  0  0  0  0  0  0
   54.7447   30.0474   43.8689 H   0  0  0  0  0  0  0  0  0  0  0  0
   55.9591   28.7238   43.8689 H   0  0  0  0  0  0  0  0  0  0  0  0
   56.6016   33.0676   44.5823 H   0  0  0  0  0  0  0  0  0  0  0  0
   56.5504   31.4414   45.3729 H   0  0  0  0  0  0  0  0  0  0  0  0
   58.8821   30.4754   46.1203 H   0  0  0  0  0  0  0  0  0  0  0  0
   60.8044   31.0771   47.5811 H   0  0  0  0  0  0  0  0  0  0  0  0
   63.7169   33.8145   48.4759 H   0  0  0  0  0  0  0  0  0  0  0  0
   63.1964   32.2321   47.7744 H   0  0  0  0  0  0  0  0  0  0  0  0
   63.7344   34.8511   46.4286 H   0  0  0  0  0  0  0  0  0  0  0  0
   63.9482   33.1715   45.8287 H   0  0  0  0  0  0  0  0  0  0  0  0
   62.3173   33.9245   45.8287 H   0  0  0  0  0  0  0  0  0  0  0  0
   62.1816   33.8648   50.2193 H   0  0  0  0  0  0  0  0  0  0  0  0
   61.4531   35.2975   49.3932 H   0  0  0  0  0  0  0  0  0  0  0  0
   60.0616   33.8375   51.1596 H   0  0  0  0  0  0  0  0  0  0  0  0
   59.2884   34.5576   49.7069 H   0  0  0  0  0  0  0  0  0  0  0  0
   59.7610   32.8246   49.7069 H   0  0  0  0  0  0  0  0  0  0  0  0
   60.0075   35.2793   46.8859 H   0  0  0  0  0  0  0  0  0  0  0  0
   58.0858   34.6735   45.4256 H   0  0  0  0  0  0  0  0  0  0  0  0
  1  2  1  0
  2  3  1  0
  3  4  1  0
  4  5  1  0
  3  6  1  0
  6  7  1  0
  7  8  2  0
  8  9  1  0
  9 10  2  0
 10 11  1  0
 11 12  1  0
 12 13  1  0
 11 14  1  0
 14 15  1  0
 10 16  1  0
 16 17  2  0
 17  7  1  0
  1 18  1  0
  1 19  1  0
  1 20  1  0
  2 21  1  0
  2 22  1  0
  4 23  1  0
  4 24  1  0
  5 25  1  0
  5 26  1  0
  5 27  1  0
  6 28  1  0
  6 29  1  0
  8 30  1  0
  9 31  1  0
 12 32  1  0
 12 33  1  0
 13 34  1  0
 13 35  1  0
 13 36  1  0
 14 37  1  0
 14 38  1  0
 15 39  1  0
 15 40  1  0
 15 41  1  0
 16 42  1  0
 17 43  1  0
M  END
>  <UniqueID>  (7) 
7

>  <SMILES>  (7) 
CCN(CC)Cc1ccc(N(CC)CC)cc1

>  <Energy>  (7) 
39.403482252555214

>  <Genealogy>  (7) 
CCN(CC)Cc1ccc(N(CC)CC)cc1 (3D coordinates assigned)
CCN(CC)Cc1ccc(N(CC)CC)cc1 (optimized conformer: 39.403482252555214 kcal/mol)

>  <smiles>  (7) 
CCN(CC)Cc1ccc(N(CC)CC)cc1

>  <score_type>  (7) 
oracle

>  <origin>  (7) 
adg

>  <m_score__min__energy>  (7) 
-5.6299999999999999

>  <m_primary>  (7) 
energy

$$$$
7:0
     RDKit          3D

 32 35  0  0  0  0  0  0  0  0999 V2000
   59.3600   28.1640   53.4180 O   0  0  0  0  0  0  0  0  0  0  0  0
   58.2770   28.7840   53.2440 C   0  0  0  0  0  0  0  0  0  0  0  0
   58.1230   30.1570   52.7890 C   0  0  0  0  0  0  0  0  0  0  0  0
   59.1010   31.1030   52.4820 C   0  0  0  0  0  0  0  0  0  0  0  0
   58.6850   32.3960   52.1310 C   0  0  0  0  0  0  0  0  0  0  0  0
   57.3150   32.7250   52.1150 C   0  0  0  0  0  0  0  0  0  0  0  0
   56.3450   31.7590   52.4360 C   0  0  0  0  0  0  0  0  0  0  0  0
   56.7710   30.4630   52.7510 C   0  0  0  0  0  0  0  0  0  0  0  0
   56.0120   29.2650   53.1630 C   0  0  0  0  0  0  0  0  0  0  0  0
   56.9330   28.2730   53.4780 C   0  0  0  0  0  0  0  0  0  0  0  0
   56.5380   27.0260   53.9560 C   0  0  0  0  0  0  0  0  0  0  0  0
   55.1670   26.7800   54.1140 C   0  0  0  0  0  0  0  0  0  0  0  0
   54.2210   27.7670   53.7800 C   0  0  0  0  0  0  0  0  0  0  0  0
   54.6310   29.0230   53.2840 C   0  0  0  0  0  0  0  0  0  0  0  0
   53.6140   29.9990   52.8600 C   0  0  0  0  0  0  0  0  0  0  0  0
   53.5420   30.4030   51.5160 C   0  0  0  0  0  0  0  0  0  0  0  0
   52.5620   31.3130   51.1090 C   0  0  0  0  0  0  0  0  0  0  0  0
   51.6440   31.8160   52.0370 C   0  0  0  0  0  0  0  0  0  0  0  0
   50.6720   32.7230   51.6300 O   0  0  0  0  0  0  0  0  0  0  0  0
   51.7020   31.4050   53.3720 C   0  0  0  0  0  0  0  0  0  0  0  0
   52.6800   30.4940   53.7830 C   0  0  0  0  0  0  0  0  0  0  0  0
   60.1692   30.8423   52.5142 H   0  0  0  0  0  0  0  0  0  0  0  0
   59.4331   33.1579   51.8666 H   0  0  0  0  0  0  0  0  0  0  0  0
   57.0019   33.7455   51.8493 H   0  0  0  0  0  0  0  0  0  0  0  0
   55.2754   32.0158   52.4396 H   0  0  0  0  0  0  0  0  0  0  0  0
   57.2821   26.2545   54.2030 H   0  0  0  0  0  0  0  0  0  0  0  0
   54.8280   25.8081   54.5020 H   0  0  0  0  0  0  0  0  0  0  0  0
   53.1488   27.5569   53.9071 H   0  0  0  0  0  0  0  0  0  0  0  0
   54.2579   30.0026   50.7831 H   0  0  0  0  0  0  0  0  0  0  0  0
   52.5127   31.6339   50.0580 H   0  0  0  0  0  0  0  0  0  0  0  0
   50.9774   31.7987   54.1000 H   0  0  0  0  0  0  0  0  0  0  0  0
   52.7173   30.1647   54.8319 H   0  0  0  0  0  0  0  0  0  0  0  0
  1  2  2  0
  2  3  1  0
  3  4  2  0
  4  5  1  0
  5  6  2  0
  6  7  1  0
  7  8  2  0
  8  9  1  0
  9 10  2  0
 10 11  1  0
 11 12  2  0
 12 13  1  0
 13 14  2  0
 14 15  1  0
 15 16  2  0
 16 17  1  0
 17 18  2  0
 18 19  1  0
 18 20  1  0
 20 21  2  0
 10  2  1  0
 21 15  1  0
  8  3  1  0
 14  9  1  0
  4 22  1  0
  5 23  1  0
  6 24  1  0
  7 25  1  0
 11 26  1  0
 12 27  1  0
 13 28  1  0
 16 29  1  0
 17 30  1  0
 20 31  1  0
 21 32  1  0
M  CHG  1  19  -1
M  END
>  <UniqueID>  (8) 
8

>  <SMILES>  (8) 
O=C1c2ccccc2-c2c1cccc2-c1ccc([O-])cc1

>  <Energy>  (8) 
78.71726145918298

>  <Genealogy>  (8) 
O=C1c2ccccc2-c2c1cccc2-c1ccc([O-])cc1 (protonated)
O=C1c2ccccc2-c2c1cccc2-c1ccc([O-])cc1 (3D coordinates assigned)
O=C1c2ccccc2-c2c1cccc2-c1ccc([O-])cc1 (nonaromatic ring conformer: 78.71726145918298 kcal/mol)

>  <smiles>  (8) 
O=C1c2ccccc2-c2c1cccc2-c1ccc(O)cc1

>  <score_type>  (8) 
oracle

>  <origin>  (8) 
adg

>  <m_score__min__energy>  (8) 
-10.529999999999999

>  <m_primary>  (8) 
energy

$$$$
8:0
     RDKit          3D

 47 50  0  0  0  0  0  0  0  0999 V2000
   56.5930   22.3850   42.6380 C   0  0  0  0  0  0  0  0  0  0  0  0
   57.3960   21.2610   43.2920 C   0  0  0  0  0  0  0  0  0  0  0  0
   58.5270   21.7840   44.1920 C   0  0  0  0  0  0  0  0  0  0  0  0
   58.0940   22.0650   45.6450 C   0  0  0  0  0  0  0  0  0  0  0  0
   57.2150   23.2580   45.7410 N   0  0  0  0  0  0  0  0  0  0  0  0
   57.7970   24.5080   45.7200 C   0  0  0  0  0  0  0  0  0  0  0  0
   59.0500   24.6260   45.6120 O   0  0  0  0  0  0  0  0  0  0  0  0
   57.0150   25.6740   45.7960 C   0  0  0  0  0  0  0  0  0  0  0  0
   57.6500   27.0160   45.7660 C   0  0  0  0  0  0  0  0  0  0  0  0
   58.7930   27.1960   46.3680 N   0  0  0  0  0  0  0  0  0  0  0  0
   59.6170   28.7110   46.3830 S   0  0  0  0  0  0  0  0  0  0  0  0
   60.9270   28.5800   45.6590 O   0  0  0  0  0  0  0  0  0  0  0  0
   59.8470   29.1400   47.8040 O   0  0  0  0  0  0  0  0  0  0  0  0
   58.6090   29.8760   45.5740 C   0  0  0  0  0  0  0  0  0  0  0  0
   59.0080   31.2160   45.4910 C   0  0  0  0  0  0  0  0  0  0  0  0
   58.2000   32.1460   44.8330 C   0  0  0  0  0  0  0  0  0  0  0  0
   56.9950   31.7370   44.2550 C   0  0  0  0  0  0  0  0  0  0  0  0
   56.5980   30.4000   44.3360 C   0  0  0  0  0  0  0  0  0  0  0  0
   57.4030   29.4560   44.9990 C   0  0  0  0  0  0  0  0  0  0  0  0
   56.9730   28.0830   45.0670 N   0  0  0  0  0  0  0  0  0  0  0  0
   55.6270   25.5630   45.8900 C   0  0  0  0  0  0  0  0  0  0  0  0
   54.8470   26.7150   45.9830 O   0  0  0  0  0  0  0  0  0  0  0  0
   55.0250   24.3000   45.9090 C   0  0  0  0  0  0  0  0  0  0  0  0
   53.6250   24.1830   46.0060 C   0  0  0  0  0  0  0  0  0  0  0  0
   53.0210   22.9280   46.0300 C   0  0  0  0  0  0  0  0  0  0  0  0
   53.7990   21.7790   45.9600 C   0  0  0  0  0  0  0  0  0  0  0  0
   55.1880   21.8730   45.8650 C   0  0  0  0  0  0  0  0  0  0  0  0
   55.8380   23.1350   45.8360 C   0  0  0  0  0  0  0  0  0  0  0  0
   56.1424   23.0157   43.4184 H   0  0  0  0  0  0  0  0  0  0  0  0
   57.2601   22.9962   42.0124 H   0  0  0  0  0  0  0  0  0  0  0  0
   55.7985   21.9520   42.0124 H   0  0  0  0  0  0  0  0  0  0  0  0
   56.7141   20.6511   43.9028 H   0  0  0  0  0  0  0  0  0  0  0  0
   57.8587   20.6720   42.4864 H   0  0  0  0  0  0  0  0  0  0  0  0
   59.3303   21.0327   44.2097 H   0  0  0  0  0  0  0  0  0  0  0  0
   58.8539   22.7441   43.7663 H   0  0  0  0  0  0  0  0  0  0  0  0
   57.5489   21.1901   46.0290 H   0  0  0  0  0  0  0  0  0  0  0  0
   58.9994   22.2606   46.2383 H   0  0  0  0  0  0  0  0  0  0  0  0
   59.2460   26.4070   46.8830 H   0  0  0  0  0  0  0  0  0  0  0  0
   59.9579   31.5360   45.9441 H   0  0  0  0  0  0  0  0  0  0  0  0
   58.5116   33.1990   44.7698 H   0  0  0  0  0  0  0  0  0  0  0  0
   56.3585   32.4686   43.7358 H   0  0  0  0  0  0  0  0  0  0  0  0
   55.6493   30.0833   43.8781 H   0  0  0  0  0  0  0  0  0  0  0  0
   56.0900   27.8330   44.5670 H   0  0  0  0  0  0  0  0  0  0  0  0
   53.0040   25.0891   46.0632 H   0  0  0  0  0  0  0  0  0  0  0  0
   51.9266   22.8465   46.1045 H   0  0  0  0  0  0  0  0  0  0  0  0
   53.3175   20.7902   45.9796 H   0  0  0  0  0  0  0  0  0  0  0  0
   55.7897   20.9537   45.8117 H   0  0  0  0  0  0  0  0  0  0  0  0
  1  2  1  0
  2  3  1  0
  3  4  1  0
  4  5  1  0
  5  6  1  0
  6  7  2  0
  6  8  1  0
  8  9  1  0
  9 10  2  0
 10 11  1  0
 11 12  2  0
 11 13  2  0
 11 14  1  0
 14 15  2  0
 15 16  1  0
 16 17  2  0
 17 18  1  0
 18 19  2  0
 19 20  1  0
  8 21  2  0
 21 22  1  0
 21 23  1  0
 23 24  2  0
 24 25  1  0
 25 26  2  0
 26 27  1  0
 27 28  2  0
 28  5  1  0
 20  9  1  0
 28 23  1  0
 19 14  1  0
  1 29  1  0
  1 30  1  0
  1 31  1  0
  2 32  1  0
  2 33  1  0
  3 34  1  0
  3 35  1  0
  4 36  1  0
  4 37  1  0
 10 38  1  0
 15 39  1  0
 16 40  1  0
 17 41  1  0
 18 42  1  0
 20 43  1  0
 24 44  1  0
 25 45  1  0
 26 46  1  0
 27 47  1  0
M  CHG  2  10   1  22  -1
M  END
>  <UniqueID>  (9) 
9

>  <SMILES>  (9) 
CCCCn1c(=O)c(C2=[NH+]S(=O)(=O)c3ccccc3N2)c([O-])c2ccccc21

>  <Energy>  (9) 
69.98730687192274

>  <Genealogy>  (9) 
CCCCn1c(=O)c(C2=[NH+]S(=O)(=O)c3ccccc3N2)c([O-])c2ccccc21 (protonated)
CCCCn1c(=O)c(C2=[NH+]S(=O)(=O)c3ccccc3N2)c([O-])c2ccccc21 (3D coordinates assigned)
CCCCn1c(=O)c(C2=[NH+]S(=O)(=O)c3ccccc3N2)c([O-])c2ccccc21 (nonaromatic ring conformer: 69.98730687192274 kcal/mol)

>  <smiles>  (9) 
CCCCn1c(=O)c(C2=NS(=O)(=O)c3ccccc3N2)c(O)c2ccccc21

>  <score_type>  (9) 
oracle

>  <origin>  (9) 
adg

>  <m_score__min__energy>  (9) 
-10.130000000000001

>  <m_primary>  (9) 
energy

$$$$
9:0
     RDKit          3D

 44 45  0  0  0  0  0  0  0  0999 V2000
   57.0410   21.4550   42.9560 C   0  0  0  0  0  0  0  0  0  0  0  0
   56.4840   22.2990   44.0980 C   0  0  0  0  0  0  0  0  0  0  0  0
   56.0100   23.6690   43.5930 C   0  0  0  0  0  0  0  0  0  0  0  0
   57.0840   24.7570   43.7500 C   0  0  0  0  0  0  0  0  0  0  0  0
   56.8550   25.5750   44.9540 N   0  0  0  0  0  0  0  0  0  0  0  0
   55.7780   25.2770   45.8750 C   0  0  0  0  0  0  0  0  0  0  0  0
   55.8750   24.1730   46.8860 C   0  0  0  0  0  0  0  0  0  0  0  0
   54.7380   25.9910   45.8770 O   0  0  0  0  0  0  0  0  0  0  0  0
   57.6530   26.7570   45.1680 C   0  0  0  0  0  0  0  0  0  0  0  0
   59.0280   26.7870   45.3210 C   0  0  0  0  0  0  0  0  0  0  0  0
   59.3440   28.1130   45.5410 C   0  0  0  0  0  0  0  0  0  0  0  0
   60.6330   28.5950   45.7330 O   0  0  0  0  0  0  0  0  0  0  0  0
   58.2400   28.8910   45.5240 N   0  0  0  0  0  0  0  0  0  0  0  0
   58.2060   30.3200   45.6760 C   0  0  0  0  0  0  0  0  0  0  0  0
   58.6340   30.9130   46.8730 C   0  0  0  0  0  0  0  0  0  0  0  0
   58.6180   32.3030   47.0170 C   0  0  0  0  0  0  0  0  0  0  0  0
   58.1830   33.1220   45.9680 C   0  0  0  0  0  0  0  0  0  0  0  0
   58.1870   34.5110   46.1620 O   0  0  0  0  0  0  0  0  0  0  0  0
   59.3630   35.3090   46.2310 C   0  0  0  0  0  0  0  0  0  0  0  0
   57.7620   32.5290   44.7620 C   0  0  0  0  0  0  0  0  0  0  0  0
   57.7780   31.1380   44.6190 C   0  0  0  0  0  0  0  0  0  0  0  0
   57.1990   28.0580   45.2970 C   0  0  0  0  0  0  0  0  0  0  0  0
   55.8660   28.4550   45.2150 O   0  0  0  0  0  0  0  0  0  0  0  0
   57.6026   20.6041   43.3690 H   0  0  0  0  0  0  0  0  0  0  0  0
   56.2114   21.0814   42.3377 H   0  0  0  0  0  0  0  0  0  0  0  0
   57.7107   22.0708   42.3377 H   0  0  0  0  0  0  0  0  0  0  0  0
   55.6338   21.7704   44.5538 H   0  0  0  0  0  0  0  0  0  0  0  0
   57.2829   22.4567   44.8375 H   0  0  0  0  0  0  0  0  0  0  0  0
   55.7492   23.5816   42.5279 H   0  0  0  0  0  0  0  0  0  0  0  0
   55.1412   23.9666   44.1986 H   0  0  0  0  0  0  0  0  0  0  0  0
   58.0705   24.2764   43.8272 H   0  0  0  0  0  0  0  0  0  0  0  0
   57.0364   25.4170   42.8713 H   0  0  0  0  0  0  0  0  0  0  0  0
   55.8375   24.5994   47.8993 H   0  0  0  0  0  0  0  0  0  0  0  0
   55.0346   23.4764   46.7500 H   0  0  0  0  0  0  0  0  0  0  0  0
   56.8240   23.6336   46.7500 H   0  0  0  0  0  0  0  0  0  0  0  0
   59.7222   25.9349   45.2767 H   0  0  0  0  0  0  0  0  0  0  0  0
   58.9839   30.2808   47.7024 H   0  0  0  0  0  0  0  0  0  0  0  0
   58.9499   32.7574   47.9622 H   0  0  0  0  0  0  0  0  0  0  0  0
   59.6244   35.4864   47.2847 H   0  0  0  0  0  0  0  0  0  0  0  0
   60.1912   34.7856   45.7308 H   0  0  0  0  0  0  0  0  0  0  0  0
   59.1826   36.2720   45.7308 H   0  0  0  0  0  0  0  0  0  0  0  0
   57.4196   33.1619   43.9300 H   0  0  0  0  0  0  0  0  0  0  0  0
   57.4531   30.6821   43.6721 H   0  0  0  0  0  0  0  0  0  0  0  0
   55.1450   28.0350   45.7860 H   0  0  0  0  0  0  0  0  0  0  0  0
  1  2  1  0
  2  3  1  0
  3  4  1  0
  4  5  1  0
  5  6  1  0
  6  7  1  0
  6  8  2  0
  5  9  1  0
  9 10  1  0
 10 11  2  0
 11 12  1  0
 11 13  1  0
 13 14  1  0
 14 15  2  0
 15 16  1  0
 16 17  2  0
 17 18  1  0
 18 19  1  0
 17 20  1  0
 20 21  2  0
 13 22  1  0
 22 23  1  0
 22  9  2  0
 21 14  1  0
  1 24  1  0
  1 25  1  0
  1 26  1  0
  2 27  1  0
  2 28  1  0
  3 29  1  0
  3 30  1  0
  4 31  1  0
  4 32  1  0
  7 33  1  0
  7 34  1  0
  7 35  1  0
 10 36  1  0
 15 37  1  0
 16 38  1  0
 19 39  1  0
 19 40  1  0
 19 41  1  0
 20 42  1  0
 21 43  1  0
 23 44  1  0
M  CHG  1  12  -1
M  END
>  <UniqueID>  (10) 
10

>  <SMILES>  (10) 
CCCCN(C(C)=O)c1cc([O-])n(-c2ccc(OC)cc2)c1O

>  <Energy>  (10) 
75.97200493569522

>  <Genealogy>  (10) 
CCCCN(C(C)=O)c1cc([O-])n(-c2ccc(OC)cc2)c1O (protonated)
CCCCN(C(C)=O)c1cc([O-])n(-c2ccc(OC)cc2)c1O (3D coordinates assigned)
CCCCN(C(C)=O)c1cc([O-])n(-c2ccc(OC)cc2)c1O (optimized conformer: 75.97200493569522 kcal/mol)

>  <smiles>  (10) 
CCCCN(C(C)=O)c1cc(O)n(-c2ccc(OC)cc2)c1O

>  <score_type>  (10) 
oracle

>  <origin>  (10) 
adg

>  <m_score__min__energy>  (10) 
-9.1199999999999992

>  <m_primary>  (10) 
energy

$$$$
10:0
     RDKit          3D

 30 31  0  0  0  0  0  0  0  0999 V2000
   58.8190   27.8380   43.9840 C   0  0  0  0  0  0  0  0  0  0  0  0
   57.4410   28.1070   43.8180 O   0  0  0  0  0  0  0  0  0  0  0  0
   57.2610   29.3870   43.3490 N   0  0  1  0  0  0  0  0  0  0  0  0
   56.2810   29.3540   42.2510 C   0  0  0  0  0  0  0  0  0  0  0  0
   56.7480   30.1730   44.4490 C   0  0  0  0  0  0  0  0  0  0  0  0
   55.5290   30.0710   44.7700 O   0  0  0  0  0  0  0  0  0  0  0  0
   57.6350   31.0520   45.2620 C   0  0  0  0  0  0  0  0  0  0  0  0
   57.8020   32.3420   44.9100 C   0  0  0  0  0  0  0  0  0  0  0  0
   58.6410   33.2480   45.7120 C   0  0  0  0  0  0  0  0  0  0  0  0
   58.8930   34.5650   45.3000 C   0  0  0  0  0  0  0  0  0  0  0  0
   59.6490   35.4170   46.1130 C   0  0  0  0  0  0  0  0  0  0  0  0
   60.1420   34.9610   47.3390 C   0  0  0  0  0  0  0  0  0  0  0  0
   59.8850   33.6500   47.7550 C   0  0  0  0  0  0  0  0  0  0  0  0
   59.1430   32.7920   46.9360 C   0  0  0  0  0  0  0  0  0  0  0  0
   58.8720   31.4850   47.3410 O   0  0  0  0  0  0  0  0  0  0  0  0
   58.4230   30.4800   46.4270 C   0  0  0  0  0  0  0  0  0  0  0  0
   59.0569   27.7916   45.0570 H   0  0  0  0  0  0  0  0  0  0  0  0
   59.0641   26.8751   43.5121 H   0  0  0  0  0  0  0  0  0  0  0  0
   59.4082   28.6381   43.5121 H   0  0  0  0  0  0  0  0  0  0  0  0
   58.1370   29.8320   42.9790 H   0  0  0  0  0  0  0  0  0  0  0  0
   55.2638   29.3197   42.6683 H   0  0  0  0  0  0  0  0  0  0  0  0
   56.3932   30.2564   41.6321 H   0  0  0  0  0  0  0  0  0  0  0  0
   56.4537   28.4612   41.6321 H   0  0  0  0  0  0  0  0  0  0  0  0
   57.3028   32.7249   44.0077 H   0  0  0  0  0  0  0  0  0  0  0  0
   58.4972   34.9273   44.3398 H   0  0  0  0  0  0  0  0  0  0  0  0
   59.8556   36.4470   45.7868 H   0  0  0  0  0  0  0  0  0  0  0  0
   60.7329   35.6339   47.9777 H   0  0  0  0  0  0  0  0  0  0  0  0
   60.2656   33.2947   48.7240 H   0  0  0  0  0  0  0  0  0  0  0  0
   59.3007   29.9488   46.0302 H   0  0  0  0  0  0  0  0  0  0  0  0
   57.7527   29.8057   46.9802 H   0  0  0  0  0  0  0  0  0  0  0  0
  1  2  1  0
  2  3  1  0
  3  4  1  0
  3  5  1  0
  5  6  2  0
  5  7  1  0
  7  8  2  0
  8  9  1  0
  9 10  2  0
 10 11  1  0
 11 12  2  0
 12 13  1  0
 13 14  2  0
 14 15  1  0
 15 16  1  0
 16  7  1  0
 14  9  1  0
  1 17  1  0
  1 18  1  0
  1 19  1  0
  3 20  1  6
  4 21  1  0
  4 22  1  0
  4 23  1  0
  8 24  1  0
 10 25  1  0
 11 26  1  0
 12 27  1  0
 13 28  1  0
 16 29  1  0
 16 30  1  0
M  CHG  1   3   1
M  END
>  <UniqueID>  (11) 
11

>  <SMILES>  (11) 
CO[N@@H+](C)C(=O)C1=Cc2ccccc2OC1

>  <Energy>  (11) 
40.09291482342618

>  <Genealogy>  (11) 
CO[NH+](C)C(=O)C1=Cc2ccccc2OC1 (protonated)
CO[N@@H+](C)C(=O)C1=Cc2ccccc2OC1 (chirality)
CO[N@@H+](C)C(=O)C1=Cc2ccccc2OC1 (3D coordinates assigned)
CO[N@@H+](C)C(=O)C1=Cc2ccccc2OC1 (nonaromatic ring conformer: 40.09291482342618 kcal/mol)

>  <smiles>  (11) 
CON(C)C(=O)C1=Cc2ccccc2OC1

>  <score_type>  (11) 
oracle

>  <origin>  (11) 
adg

>  <m_score__min__energy>  (11) 
-4.9199999999999999

>  <m_primary>  (11) 
energy

$$$$
11:0
     RDKit          3D

 42 45  0  0  0  0  0  0  0  0999 V2000
   63.9540   33.0470   47.5800 C   0  0  0  0  0  0  0  0  0  0  0  0
   62.5110   33.4460   47.5800 C   0  0  0  0  0  0  0  0  0  0  0  0
   61.6570   33.3810   46.4980 C   0  0  0  0  0  0  0  0  0  0  0  0
   60.4630   33.8750   46.8800 N   0  0  0  0  0  0  0  0  0  0  0  0
   59.2420   33.9270   46.0820 C   0  0  0  0  0  0  0  0  0  0  0  0
   58.7590   32.5340   45.7950 C   0  0  0  0  0  0  0  0  0  0  0  0
   58.5250   31.4970   46.7070 C   0  0  0  0  0  0  0  0  0  0  0  0
   58.8750   31.4780   48.1390 C   0  0  0  0  0  0  0  0  0  0  0  0
   58.1980   32.3270   49.0290 C   0  0  0  0  0  0  0  0  0  0  0  0
   58.5210   32.3260   50.3890 C   0  0  0  0  0  0  0  0  0  0  0  0
   59.5050   31.4600   50.8740 C   0  0  0  0  0  0  0  0  0  0  0  0
   60.1610   30.5890   50.0000 C   0  0  0  0  0  0  0  0  0  0  0  0
   59.8460   30.5930   48.6370 C   0  0  0  0  0  0  0  0  0  0  0  0
   57.8870   30.5030   46.1160 O   0  0  0  0  0  0  0  0  0  0  0  0
   57.6840   30.8430   44.8680 C   0  0  0  0  0  0  0  0  0  0  0  0
   57.0310   30.1050   43.8830 C   0  0  0  0  0  0  0  0  0  0  0  0
   56.8830   30.6900   42.6120 C   0  0  0  0  0  0  0  0  0  0  0  0
   57.3860   31.9860   42.3580 C   0  0  0  0  0  0  0  0  0  0  0  0
   58.0480   32.7050   43.3720 C   0  0  0  0  0  0  0  0  0  0  0  0
   58.1900   32.0910   44.6170 C   0  0  0  0  0  0  0  0  0  0  0  0
   60.5990   34.2280   48.1740 C   0  0  0  0  0  0  0  0  0  0  0  0
   61.8510   34.0010   48.6200 N   0  0  0  0  0  0  0  0  0  0  0  0
   62.3440   34.2310   49.9740 C   0  0  0  0  0  0  0  0  0  0  0  0
   64.3074   32.9493   48.6171 H   0  0  0  0  0  0  0  0  0  0  0  0
   64.0680   32.0836   47.0615 H   0  0  0  0  0  0  0  0  0  0  0  0
   64.5468   33.8149   47.0615 H   0  0  0  0  0  0  0  0  0  0  0  0
   61.9070   32.9939   45.4992 H   0  0  0  0  0  0  0  0  0  0  0  0
   58.4664   34.4748   46.6373 H   0  0  0  0  0  0  0  0  0  0  0  0
   59.4519   34.4404   45.1321 H   0  0  0  0  0  0  0  0  0  0  0  0
   57.4095   32.9962   48.6542 H   0  0  0  0  0  0  0  0  0  0  0  0
   58.0003   33.0073   51.0780 H   0  0  0  0  0  0  0  0  0  0  0  0
   59.7630   31.4640   51.9433 H   0  0  0  0  0  0  0  0  0  0  0  0
   60.9265   29.8989   50.3845 H   0  0  0  0  0  0  0  0  0  0  0  0
   60.3599   29.9014   47.9533 H   0  0  0  0  0  0  0  0  0  0  0  0
   56.6435   29.0970   44.0924 H   0  0  0  0  0  0  0  0  0  0  0  0
   56.3726   30.1351   41.8110 H   0  0  0  0  0  0  0  0  0  0  0  0
   57.2597   32.4359   41.3622 H   0  0  0  0  0  0  0  0  0  0  0  0
   58.4399   33.7164   43.1888 H   0  0  0  0  0  0  0  0  0  0  0  0
   59.7898   34.6486   48.7890 H   0  0  0  0  0  0  0  0  0  0  0  0
   61.5958   33.8819   50.7009 H   0  0  0  0  0  0  0  0  0  0  0  0
   63.2836   33.6783   50.1209 H   0  0  0  0  0  0  0  0  0  0  0  0
   62.5242   35.3061   50.1209 H   0  0  0  0  0  0  0  0  0  0  0  0
  1  2  1  0
  2  3  2  0
  3  4  1  0
  4  5  1  0
  5  6  1  0
  6  7  2  0
  7  8  1  0
  8  9  2  0
  9 10  1  0
 10 11  2  0
 11 12  1  0
 12 13  2  0
  7 14  1  0
 14 15  1  0
 15 16  2  0
 16 17  1  0
 17 18  2  0
 18 19  1  0
 19 20  2  0
  4 21  1  0
 21 22  2  0
 22 23  1  0
 22  2  1  0
 20  6  1  0
 13  8  1  0
 20 15  1  0
  1 24  1  0
  1 25  1  0
  1 26  1  0
  3 27  1  0
  5 28  1  0
  5 29  1  0
  9 30  1  0
 10 31  1  0
 11 32  1  0
 12 33  1  0
 13 34  1  0
 16 35  1  0
 17 36  1  0
 18 37  1  0
 19 38  1  0
 21 39  1  0
 23 40  1  0
 23 41  1  0
 23 42  1  0
M  CHG  1  22   1
M  END
>  <UniqueID>  (12) 
12

>  <SMILES>  (12) 
Cc1cn(Cc2c(-c3ccccc3)oc3ccccc23)c[n+]1C

>  <Energy>  (12) 
111.52857379723619

>  <Genealogy>  (12) 
Cc1cn(Cc2c(-c3ccccc3)oc3ccccc23)c[n+]1C (3D coordinates assigned)
Cc1cn(Cc2c(-c3ccccc3)oc3ccccc23)c[n+]1C (optimized conformer: 111.52857379723619 kcal/mol)

>  <smiles>  (12) 
Cc1cn(Cc2c(-c3ccccc3)oc3ccccc23)c[n+]1C

>  <score_type>  (12) 
oracle

>  <origin>  (12) 
adg

>  <m_score__min__energy>  (12) 
-6.0300000000000002

>  <m_primary>  (12) 
energy

$$$$
12:0
     RDKit          3D

 25 26  0  0  0  0  0  0  0  0999 V2000
   57.4200   26.4750   47.4180 O   0  0  0  0  0  0  0  0  0  0  0  0
   56.9600   26.9160   46.3310 C   0  0  0  0  0  0  0  0  0  0  0  0
   57.8460   27.6900   45.3980 C   0  0  0  0  0  0  0  0  0  0  0  0
   57.0850   28.2410   44.3270 O   0  0  0  0  0  0  0  0  0  0  0  0
   56.3380   29.4140   44.4610 C   0  0  0  0  0  0  0  0  0  0  0  0
   55.1080   29.3670   44.7390 O   0  0  0  0  0  0  0  0  0  0  0  0
   56.9990   30.7100   44.2750 C   0  0  0  0  0  0  0  0  0  0  0  0
   57.4260   31.2430   43.0720 C   0  0  0  0  0  0  0  0  0  0  0  0
   57.9820   32.4650   43.3830 C   0  0  0  0  0  0  0  0  0  0  0  0
   57.8600   32.5960   44.7510 C   0  0  0  0  0  0  0  0  0  0  0  0
   58.4520   34.0890   45.7790 Br  0  0  0  0  0  0  0  0  0  0  0  0
   57.2720   31.5380   45.2570 O   0  0  0  0  0  0  0  0  0  0  0  0
   55.5910   26.6570   46.0040 N   0  0  0  0  0  0  0  0  0  0  0  0
   55.0940   25.3390   45.6340 C   0  0  0  0  0  0  0  0  0  0  0  0
   56.1230   24.5080   44.8900 C   0  0  0  0  0  0  0  0  0  0  0  0
   55.8010   24.2010   46.3450 C   0  0  0  0  0  0  0  0  0  0  0  0
   58.3316   28.5057   45.9537 H   0  0  0  0  0  0  0  0  0  0  0  0
   58.6038   27.0098   44.9819 H   0  0  0  0  0  0  0  0  0  0  0  0
   57.3397   30.7865   42.0749 H   0  0  0  0  0  0  0  0  0  0  0  0
   58.4305   33.1869   42.6847 H   0  0  0  0  0  0  0  0  0  0  0  0
   54.0426   25.6171   45.4694 H   0  0  0  0  0  0  0  0  0  0  0  0
   55.8025   23.8157   44.0975 H   0  0  0  0  0  0  0  0  0  0  0  0
   57.0411   24.7284   44.3256 H   0  0  0  0  0  0  0  0  0  0  0  0
   55.2478   23.2864   46.6049 H   0  0  0  0  0  0  0  0  0  0  0  0
   56.3899   24.1072   47.2693 H   0  0  0  0  0  0  0  0  0  0  0  0
  1  2  2  0
  2  3  1  0
  3  4  1  0
  4  5  1  0
  5  6  2  0
  5  7  1  0
  7  8  2  0
  8  9  1  0
  9 10  2  0
 10 11  1  0
 10 12  1  0
  2 13  1  0
 13 14  1  0
 14 15  1  0
 15 16  1  0
 12  7  1  0
 16 14  1  0
  3 17  1  0
  3 18  1  0
  8 19  1  0
  9 20  1  0
 14 21  1  0
 15 22  1  0
 15 23  1  0
 16 24  1  0
 16 25  1  0
M  CHG  1  13  -1
M  END
>  <UniqueID>  (13) 
13

>  <SMILES>  (13) 
O=C(COC(=O)c1ccc(Br)o1)[N-]C1CC1

>  <Energy>  (13) 
309.25818895540596

>  <Genealogy>  (13) 
O=C(COC(=O)c1ccc(Br)o1)[N-]C1CC1 (protonated)
O=C(COC(=O)c1ccc(Br)o1)[N-]C1CC1 (3D coordinates assigned)
O=C(COC(=O)c1ccc(Br)o1)[N-]C1CC1 (nonaromatic ring conformer: 309.25818895540596 kcal/mol)

>  <smiles>  (13) 
O=C(COC(=O)c1ccc(Br)o1)NC1CC1

>  <score_type>  (13) 
oracle

>  <origin>  (13) 
adg

>  <m_score__min__energy>  (13) 
-8.7899999999999991

>  <m_primary>  (13) 
energy

$$$$
13:0
     RDKit          3D

 37 39  0  0  0  0  0  0  0  0999 V2000
   53.5350   23.8080   44.9200 C   0  0  0  0  0  0  0  0  0  0  0  0
   54.9400   23.4830   44.4260 C   0  0  0  0  0  0  0  0  0  0  0  0
   55.9400   24.2990   45.1140 N   0  0  0  0  0  0  0  0  0  0  0  0
   57.1190   24.7620   44.4410 C   0  0  0  0  0  0  0  0  0  0  0  0
   57.3230   24.4560   43.2340 O   0  0  0  0  0  0  0  0  0  0  0  0
   58.0900   25.6550   45.1510 C   0  0  0  0  0  0  0  0  0  0  0  0
   57.5760   27.0210   45.1910 N   0  0  0  0  0  0  0  0  0  0  0  0
   56.2860   27.4240   45.6230 C   0  0  0  0  0  0  0  0  0  0  0  0
   55.5290   26.6980   46.3210 O   0  0  0  0  0  0  0  0  0  0  0  0
   55.9160   28.7280   45.1850 N   0  0  0  0  0  0  0  0  0  0  0  0
   57.0230   29.2300   44.3690 C   0  0  1  0  0  0  0  0  0  0  0  0
   56.5580   29.6050   42.9410 C   0  0  0  0  0  0  0  0  0  0  0  0
   57.0030   31.0610   42.6930 C   0  0  0  0  0  0  0  0  0  0  0  0
   57.5610   31.5010   43.9940 C   0  0  0  0  0  0  0  0  0  0  0  0
   58.0460   32.7750   44.3040 C   0  0  0  0  0  0  0  0  0  0  0  0
   58.5500   33.0110   45.5920 C   0  0  0  0  0  0  0  0  0  0  0  0
   58.5620   31.9790   46.5470 C   0  0  0  0  0  0  0  0  0  0  0  0
   58.0730   30.7060   46.2160 C   0  0  0  0  0  0  0  0  0  0  0  0
   57.5750   30.4920   44.9260 C   0  0  0  0  0  0  0  0  0  0  0  0
   58.0230   28.1090   44.3940 C   0  0  0  0  0  0  0  0  0  0  0  0
   59.1230   28.1110   43.7800 O   0  0  0  0  0  0  0  0  0  0  0  0
   53.5245   23.8104   46.0199 H   0  0  0  0  0  0  0  0  0  0  0  0
   53.2357   24.7991   44.5483 H   0  0  0  0  0  0  0  0  0  0  0  0
   52.8309   23.0490   44.5483 H   0  0  0  0  0  0  0  0  0  0  0  0
   55.1509   22.4202   44.6155 H   0  0  0  0  0  0  0  0  0  0  0  0
   54.9915   23.7004   43.3489 H   0  0  0  0  0  0  0  0  0  0  0  0
   55.7970   24.5650   46.1150 H   0  0  0  0  0  0  0  0  0  0  0  0
   58.2357   25.2905   46.1786 H   0  0  0  0  0  0  0  0  0  0  0  0
   59.0489   25.6460   44.6121 H   0  0  0  0  0  0  0  0  0  0  0  0
   57.0248   28.9359   42.2032 H   0  0  0  0  0  0  0  0  0  0  0  0
   55.4670   29.5045   42.8430 H   0  0  0  0  0  0  0  0  0  0  0  0
   57.7696   31.1052   41.9054 H   0  0  0  0  0  0  0  0  0  0  0  0
   56.1754   31.7009   42.3531 H   0  0  0  0  0  0  0  0  0  0  0  0
   58.0327   33.5777   43.5520 H   0  0  0  0  0  0  0  0  0  0  0  0
   58.9369   34.0064   45.8555 H   0  0  0  0  0  0  0  0  0  0  0  0
   58.9557   32.1700   47.5562 H   0  0  0  0  0  0  0  0  0  0  0  0
   58.0810   29.8923   46.9562 H   0  0  0  0  0  0  0  0  0  0  0  0
  1  2  1  0
  2  3  1  0
  3  4  1  0
  4  5  2  0
  4  6  1  0
  6  7  1  0
  7  8  1  0
  8  9  2  0
  8 10  1  0
 11 10  1  1
 11 12  1  0
 12 13  1  0
 13 14  1  0
 14 15  2  0
 15 16  1  0
 16 17  2  0
 17 18  1  0
 18 19  2  0
 11 20  1  0
 20 21  2  0
 20  7  1  0
 19 11  1  0
 19 14  1  0
  1 22  1  0
  1 23  1  0
  1 24  1  0
  2 25  1  0
  2 26  1  0
  3 27  1  0
  6 28  1  0
  6 29  1  0
 12 30  1  0
 12 31  1  0
 13 32  1  0
 13 33  1  0
 15 34  1  0
 16 35  1  0
 17 36  1  0
 18 37  1  0
M  CHG  1  10  -1
M  END
>  <UniqueID>  (14) 
14

>  <SMILES>  (14) 
CCNC(=O)CN1C(=O)[N-][C@]2(CCc3ccccc32)C1=O

>  <Energy>  (14) 
59.31858195137102

>  <Genealogy>  (14) 
CCNC(=O)CN1C(=O)[N-]C2(CCc3ccccc32)C1=O (protonated)
CCNC(=O)CN1C(=O)[N-][C@]2(CCc3ccccc32)C1=O (chirality)
CCNC(=O)CN1C(=O)[N-][C@]2(CCc3ccccc32)C1=O (3D coordinates assigned)
CCNC(=O)CN1C(=O)[N-][C@]2(CCc3ccccc32)C1=O (nonaromatic ring conformer: 59.31858195137102 kcal/mol)

>  <smiles>  (14) 
CCNC(=O)CN1C(=O)NC2(CCc3ccccc32)C1=O

>  <score_type>  (14) 
oracle

>  <origin>  (14) 
adg

>  <m_score__min__energy>  (14) 
-9.2200000000000006

>  <m_primary>  (14) 
energy

$$$$
14:0
     RDKit          3D

 53 55  0  0  0  0  0  0  0  0999 V2000
   57.3930   31.9710   41.7270 C   0  0  0  0  0  0  0  0  0  0  0  0
   57.8740   31.6290   43.1300 C   0  0  0  0  0  0  0  0  0  0  0  0
   56.7290   31.3410   43.9970 N   0  0  0  0  0  0  0  0  0  0  0  0
   56.5290   29.6230   44.1590 S   0  0  0  0  0  0  0  0  0  0  0  0
   56.6050   28.9730   42.8060 O   0  0  0  0  0  0  0  0  0  0  0  0
   55.1750   29.3360   44.7460 O   0  0  0  0  0  0  0  0  0  0  0  0
   57.7710   28.9580   45.2190 C   0  0  0  0  0  0  0  0  0  0  0  0
   57.5580   27.7320   45.8600 C   0  0  0  0  0  0  0  0  0  0  0  0
   58.5300   27.2110   46.7160 C   0  0  0  0  0  0  0  0  0  0  0  0
   59.7160   27.9140   46.9450 C   0  0  0  0  0  0  0  0  0  0  0  0
   59.9400   29.1560   46.3180 C   0  0  0  0  0  0  0  0  0  0  0  0
   61.1470   29.9160   46.5320 N   0  0  0  0  0  0  0  0  0  0  0  0
   61.3570   30.8490   47.6480 C   0  0  0  0  0  0  0  0  0  0  0  0
   61.8960   32.1880   47.1270 C   0  0  0  0  0  0  0  0  0  0  0  0
   62.0950   33.1870   48.2750 C   0  0  0  0  0  0  0  0  0  0  0  0
   60.8920   33.3430   49.1180 N   0  0  0  0  0  0  0  0  0  0  0  0
   60.0160   34.4960   48.8220 C   0  0  0  0  0  0  0  0  0  0  0  0
   59.3320   34.4110   47.4790 C   0  0  0  0  0  0  0  0  0  0  0  0
   58.1430   33.6760   47.3340 C   0  0  0  0  0  0  0  0  0  0  0  0
   57.5130   33.5910   46.0880 C   0  0  0  0  0  0  0  0  0  0  0  0
   58.0740   34.2250   44.9760 C   0  0  0  0  0  0  0  0  0  0  0  0
   59.2680   34.9380   45.1070 C   0  0  0  0  0  0  0  0  0  0  0  0
   59.9010   35.0240   46.3510 C   0  0  0  0  0  0  0  0  0  0  0  0
   60.2270   32.0910   49.5380 C   0  0  0  0  0  0  0  0  0  0  0  0
   60.0350   31.0970   48.3850 C   0  0  0  0  0  0  0  0  0  0  0  0
   58.9590   29.6650   45.4510 C   0  0  0  0  0  0  0  0  0  0  0  0
   56.4980   32.6073   41.7912 H   0  0  0  0  0  0  0  0  0  0  0  0
   58.1871   32.5084   41.1880 H   0  0  0  0  0  0  0  0  0  0  0  0
   57.1462   31.0444   41.1880 H   0  0  0  0  0  0  0  0  0  0  0  0
   58.5282   30.7458   43.0854 H   0  0  0  0  0  0  0  0  0  0  0  0
   58.4299   32.4854   43.5394 H   0  0  0  0  0  0  0  0  0  0  0  0
   56.9410   31.7120   44.9520 H   0  0  0  0  0  0  0  0  0  0  0  0
   56.6231   27.1781   45.6890 H   0  0  0  0  0  0  0  0  0  0  0  0
   58.3618   26.2437   47.2120 H   0  0  0  0  0  0  0  0  0  0  0  0
   60.4787   27.4956   47.6182 H   0  0  0  0  0  0  0  0  0  0  0  0
   61.9130   29.8090   45.8270 H   0  0  0  0  0  0  0  0  0  0  0  0
   62.0873   30.4027   48.3389 H   0  0  0  0  0  0  0  0  0  0  0  0
   62.8613   32.0171   46.6279 H   0  0  0  0  0  0  0  0  0  0  0  0
   61.1649   32.6082   46.4206 H   0  0  0  0  0  0  0  0  0  0  0  0
   62.9231   32.8342   48.9074 H   0  0  0  0  0  0  0  0  0  0  0  0
   62.3115   34.1672   47.8251 H   0  0  0  0  0  0  0  0  0  0  0  0
   59.2428   34.5537   49.6022 H   0  0  0  0  0  0  0  0  0  0  0  0
   60.6578   35.3891   48.7993 H   0  0  0  0  0  0  0  0  0  0  0  0
   57.7057   33.1651   48.2045 H   0  0  0  0  0  0  0  0  0  0  0  0
   56.5757   33.0249   45.9834 H   0  0  0  0  0  0  0  0  0  0  0  0
   57.5753   34.1625   43.9976 H   0  0  0  0  0  0  0  0  0  0  0  0
   59.7111   35.4327   44.2301 H   0  0  0  0  0  0  0  0  0  0  0  0
   60.8487   35.5742   46.4463 H   0  0  0  0  0  0  0  0  0  0  0  0
   60.8408   31.6119   50.3150 H   0  0  0  0  0  0  0  0  0  0  0  0
   59.2274   32.3589   49.9108 H   0  0  0  0  0  0  0  0  0  0  0  0
   59.6643   30.1437   48.7897 H   0  0  0  0  0  0  0  0  0  0  0  0
   59.3110   31.5208   47.6735 H   0  0  0  0  0  0  0  0  0  0  0  0
   59.1249   30.6293   44.9484 H   0  0  0  0  0  0  0  0  0  0  0  0
  1  2  1  0
  2  3  1  0
  3  4  1  0
  4  5  2  0
  4  6  2  0
  4  7  1  0
  7  8  2  0
  8  9  1  0
  9 10  2  0
 10 11  1  0
 11 12  1  0
 12 13  1  0
 13 14  1  0
 14 15  1  0
 15 16  1  0
 16 17  1  0
 17 18  1  0
 18 19  2  0
 19 20  1  0
 20 21  2  0
 21 22  1  0
 22 23  2  0
 16 24  1  0
 24 25  1  0
 11 26  2  0
 26  7  1  0
 25 13  1  0
 23 18  1  0
  1 27  1  0
  1 28  1  0
  1 29  1  0
  2 30  1  0
  2 31  1  0
  3 32  1  0
  8 33  1  0
  9 34  1  0
 10 35  1  0
 12 36  1  0
 13 37  1  0
 14 38  1  0
 14 39  1  0
 15 40  1  0
 15 41  1  0
 17 42  1  0
 17 43  1  0
 19 44  1  0
 20 45  1  0
 21 46  1  0
 22 47  1  0
 23 48  1  0
 24 49  1  0
 24 50  1  0
 25 51  1  0
 25 52  1  0
 26 53  1  0
M  END
>  <UniqueID>  (15) 
15

>  <SMILES>  (15) 
CCNS(=O)(=O)c1cccc(NC2CCN(Cc3ccccc3)CC2)c1

>  <Energy>  (15) 
54.169293312545946

>  <Genealogy>  (15) 
CCNS(=O)(=O)c1cccc(NC2CCN(Cc3ccccc3)CC2)c1 (3D coordinates assigned)
CCNS(=O)(=O)c1cccc(NC2CCN(Cc3ccccc3)CC2)c1 (nonaromatic ring conformer: 54.169293312545946 kcal/mol)

>  <smiles>  (15) 
CCNS(=O)(=O)c1cccc(NC2CCN(Cc3ccccc3)CC2)c1

>  <score_type>  (15) 
oracle

>  <origin>  (15) 
adg

>  <m_score__min__energy>  (15) 
-9.9199999999999999

>  <m_primary>  (15) 
energy

$$$$
15:0
     RDKit          3D

 50 50  0  0  0  0  0  0  0  0999 V2000
   58.0340   33.0810   47.0330 C   0  0  0  0  0  0  0  0  0  0  0  0
   58.1690   33.8420   45.7170 C   0  0  0  0  0  0  0  0  0  0  0  0
   59.5870   34.4070   45.5510 C   0  0  0  0  0  0  0  0  0  0  0  0
   60.4870   34.1290   46.7670 C   0  0  0  0  0  0  0  0  0  0  0  0
   61.9660   33.8590   46.4290 C   0  0  0  0  0  0  0  0  0  0  0  0
   62.7260   33.0890   47.5310 C   0  0  0  0  0  0  0  0  0  0  0  0
   61.8150   32.1190   48.3020 C   0  0  0  0  0  0  0  0  0  0  0  0
   61.8120   30.7890   47.6680 N   0  0  0  0  0  0  0  0  0  0  0  0
   60.4470   30.2740   47.4570 C   0  0  0  0  0  0  0  0  0  0  0  0
   60.3160   29.4790   46.1470 C   0  0  0  0  0  0  0  0  0  0  0  0
   59.0360   28.6860   46.1360 C   0  0  0  0  0  0  0  0  0  0  0  0
   58.9960   27.4010   46.6900 C   0  0  0  0  0  0  0  0  0  0  0  0
   57.8170   26.6550   46.6540 C   0  0  0  0  0  0  0  0  0  0  0  0
   56.6580   27.1790   46.0510 C   0  0  0  0  0  0  0  0  0  0  0  0
   55.4550   26.4580   45.9960 O   0  0  0  0  0  0  0  0  0  0  0  0
   55.3550   25.0810   45.6460 C   0  0  0  0  0  0  0  0  0  0  0  0
   56.6950   28.4610   45.4810 C   0  0  0  0  0  0  0  0  0  0  0  0
   55.5260   28.9560   44.8810 O   0  0  0  0  0  0  0  0  0  0  0  0
   55.5020   29.7540   43.7020 C   0  0  0  0  0  0  0  0  0  0  0  0
   57.8880   29.2080   45.5230 C   0  0  0  0  0  0  0  0  0  0  0  0
   58.1578   33.7787   47.8744 H   0  0  0  0  0  0  0  0  0  0  0  0
   57.0391   32.6148   47.0866 H   0  0  0  0  0  0  0  0  0  0  0  0
   58.8078   32.3010   47.0866 H   0  0  0  0  0  0  0  0  0  0  0  0
   57.9542   33.1583   44.8825 H   0  0  0  0  0  0  0  0  0  0  0  0
   57.4563   34.6799   45.7220 H   0  0  0  0  0  0  0  0  0  0  0  0
   60.0458   33.9488   44.6624 H   0  0  0  0  0  0  0  0  0  0  0  0
   59.4980   35.4986   45.4482 H   0  0  0  0  0  0  0  0  0  0  0  0
   60.4424   35.0036   47.4326 H   0  0  0  0  0  0  0  0  0  0  0  0
   60.1031   33.2091   47.2321 H   0  0  0  0  0  0  0  0  0  0  0  0
   62.0078   33.2689   45.5016 H   0  0  0  0  0  0  0  0  0  0  0  0
   62.4555   34.8387   46.3266 H   0  0  0  0  0  0  0  0  0  0  0  0
   63.5392   32.5142   47.0638 H   0  0  0  0  0  0  0  0  0  0  0  0
   63.1149   33.8265   48.2486 H   0  0  0  0  0  0  0  0  0  0  0  0
   62.1804   32.0252   49.3353 H   0  0  0  0  0  0  0  0  0  0  0  0
   60.7893   32.5162   48.2934 H   0  0  0  0  0  0  0  0  0  0  0  0
   62.2720   30.8670   46.7300 H   0  0  0  0  0  0  0  0  0  0  0  0
   62.3650   30.1150   48.2470 H   0  0  0  0  0  0  0  0  0  0  0  0
   60.1842   29.6152   48.2978 H   0  0  0  0  0  0  0  0  0  0  0  0
   59.7688   31.1377   47.3943 H   0  0  0  0  0  0  0  0  0  0  0  0
   60.3157   30.1783   45.2979 H   0  0  0  0  0  0  0  0  0  0  0  0
   61.1651   28.7843   46.0665 H   0  0  0  0  0  0  0  0  0  0  0  0
   59.8979   26.9773   47.1558 H   0  0  0  0  0  0  0  0  0  0  0  0
   57.7933   25.6499   47.1003 H   0  0  0  0  0  0  0  0  0  0  0  0
   55.3108   24.4723   46.5612 H   0  0  0  0  0  0  0  0  0  0  0  0
   54.4427   24.9187   45.0533 H   0  0  0  0  0  0  0  0  0  0  0  0
   56.2343   24.7885   45.0533 H   0  0  0  0  0  0  0  0  0  0  0  0
   55.4700   30.8178   43.9799 H   0  0  0  0  0  0  0  0  0  0  0  0
   56.4065   29.5573   43.1076 H   0  0  0  0  0  0  0  0  0  0  0  0
   54.6110   29.5033   43.1076 H   0  0  0  0  0  0  0  0  0  0  0  0
   57.9196   30.2102   45.0708 H   0  0  0  0  0  0  0  0  0  0  0  0
  1  2  1  0
  2  3  1  0
  3  4  1  0
  4  5  1  0
  5  6  1  0
  6  7  1  0
  7  8  1  0
  8  9  1  0
  9 10  1  0
 10 11  1  0
 11 12  2  0
 12 13  1  0
 13 14  2  0
 14 15  1  0
 15 16  1  0
 14 17  1  0
 17 18  1  0
 18 19  1  0
 17 20  2  0
 20 11  1  0
  1 21  1  0
  1 22  1  0
  1 23  1  0
  2 24  1  0
  2 25  1  0
  3 26  1  0
  3 27  1  0
  4 28  1  0
  4 29  1  0
  5 30  1  0
  5 31  1  0
  6 32  1  0
  6 33  1  0
  7 34  1  0
  7 35  1  0
  8 36  1  0
  8 37  1  0
  9 38  1  0
  9 39  1  0
 10 40  1  0
 10 41  1  0
 12 42  1  0
 13 43  1  0
 16 44  1  0
 16 45  1  0
 16 46  1  0
 19 47  1  0
 19 48  1  0
 19 49  1  0
 20 50  1  0
M  CHG  1   8   1
M  END
>  <UniqueID>  (16) 
16

>  <SMILES>  (16) 
CCCCCCC[NH2+]CCc1ccc(OC)c(OC)c1

>  <Energy>  (16) 
35.066160452644375

>  <Genealogy>  (16) 
CCCCCCC[NH2+]CCc1ccc(OC)c(OC)c1 (protonated)
CCCCCCC[NH2+]CCc1ccc(OC)c(OC)c1 (3D coordinates assigned)
CCCCCCC[NH2+]CCc1ccc(OC)c(OC)c1 (optimized conformer: 35.066160452644375 kcal/mol)

>  <smiles>  (16) 
CCCCCCCNCCc1ccc(OC)c(OC)c1

>  <score_type>  (16) 
oracle

>  <origin>  (16) 
adg

>  <m_score__min__energy>  (16) 
-5.0700000000000003

>  <m_primary>  (16) 
energy

$$$$
16:0
     RDKit          3D

 34 36  0  0  0  0  0  0  0  0999 V2000
   55.1260   26.6010   46.3580 O   0  0  0  0  0  0  0  0  0  0  0  0
   55.9990   25.9500   45.7220 C   0  0  0  0  0  0  0  0  0  0  0  0
   57.1600   26.6240   45.2110 N   0  0  0  0  0  0  0  0  0  0  0  0
   57.5040   27.9940   45.6080 C   0  0  1  0  0  0  0  0  0  0  0  0
   59.0250   28.1960   45.5470 C   0  0  0  0  0  0  0  0  0  0  0  0
   59.3600   29.5350   45.9090 O   0  0  0  0  0  0  0  0  0  0  0  0
   58.5870   30.6290   45.5090 C   0  0  0  0  0  0  0  0  0  0  0  0
   59.0580   31.8900   45.7040 N   0  0  0  0  0  0  0  0  0  0  0  0
   58.3510   32.9850   45.3220 C   0  0  0  0  0  0  0  0  0  0  0  0
   57.1090   32.8360   44.7040 C   0  0  0  0  0  0  0  0  0  0  0  0
   56.5970   31.5550   44.4960 C   0  0  0  0  0  0  0  0  0  0  0  0
   57.3220   30.4320   44.9230 C   0  0  0  0  0  0  0  0  0  0  0  0
   56.8070   29.0250   44.6830 C   0  0  2  0  0  0  0  0  0  0  0  0
   55.4110   28.9590   44.8490 O   0  0  0  0  0  0  0  0  0  0  0  0
   55.7930   24.5030   45.4800 C   0  0  0  0  0  0  0  0  0  0  0  0
   55.1270   23.7280   46.4470 C   0  0  0  0  0  0  0  0  0  0  0  0
   54.9180   22.3630   46.2380 C   0  0  0  0  0  0  0  0  0  0  0  0
   55.3790   21.7530   45.0690 C   0  0  0  0  0  0  0  0  0  0  0  0
   56.0590   22.5070   44.1080 C   0  0  0  0  0  0  0  0  0  0  0  0
   56.6560   21.7220   42.6550 Cl  0  0  0  0  0  0  0  0  0  0  0  0
   56.2730   23.8780   44.3110 C   0  0  0  0  0  0  0  0  0  0  0  0
   56.9850   24.5790   43.3910 F   0  0  0  0  0  0  0  0  0  0  0  0
   57.7300   26.1480   44.4750 H   0  0  0  0  0  0  0  0  0  0  0  0
   57.1553   28.1501   46.6395 H   0  0  0  0  0  0  0  0  0  0  0  0
   59.5123   27.4985   46.2442 H   0  0  0  0  0  0  0  0  0  0  0  0
   59.3712   28.0048   44.5206 H   0  0  0  0  0  0  0  0  0  0  0  0
   58.7584   33.9911   45.5002 H   0  0  0  0  0  0  0  0  0  0  0  0
   56.5387   33.7204   44.3837 H   0  0  0  0  0  0  0  0  0  0  0  0
   55.6251   31.4253   43.9973 H   0  0  0  0  0  0  0  0  0  0  0  0
   57.0493   28.7678   43.6413 H   0  0  0  0  0  0  0  0  0  0  0  0
   55.1580   27.9990   44.8740 H   0  0  0  0  0  0  0  0  0  0  0  0
   54.7686   24.2001   47.3736 H   0  0  0  0  0  0  0  0  0  0  0  0
   54.3889   21.7667   46.9960 H   0  0  0  0  0  0  0  0  0  0  0  0
   55.2069   20.6791   44.9045 H   0  0  0  0  0  0  0  0  0  0  0  0
  1  2  2  0
  2  3  1  0
  3  4  1  0
  4  5  1  0
  5  6  1  0
  6  7  1  0
  7  8  2  0
  8  9  1  0
  9 10  2  0
 10 11  1  0
 11 12  2  0
 12 13  1  0
 13 14  1  0
  2 15  1  0
 15 16  2  0
 16 17  1  0
 17 18  2  0
 18 19  1  0
 19 20  1  0
 19 21  2  0
 21 22  1  0
 13  4  1  0
 21 15  1  0
 12  7  1  0
  3 23  1  0
  4 24  1  1
  5 25  1  0
  5 26  1  0
  9 27  1  0
 10 28  1  0
 11 29  1  0
 13 30  1  6
 14 31  1  0
 16 32  1  0
 17 33  1  0
 18 34  1  0
M  END
>  <UniqueID>  (17) 
17

>  <SMILES>  (17) 
O=C(N[C@H]1COc2ncccc2[C@@H]1O)c1cccc(Cl)c1F

>  <Energy>  (17) 
41.5403081196601

>  <Genealogy>  (17) 
O=C(N[C@H]1COc2ncccc2[C@@H]1O)c1cccc(Cl)c1F (chirality)
O=C(N[C@H]1COc2ncccc2[C@@H]1O)c1cccc(Cl)c1F (3D coordinates assigned)
O=C(N[C@H]1COc2ncccc2[C@@H]1O)c1cccc(Cl)c1F (nonaromatic ring conformer: 41.5403081196601 kcal/mol)

>  <smiles>  (17) 
O=C(NC1COc2ncccc2C1O)c1cccc(Cl)c1F

>  <score_type>  (17) 
oracle

>  <origin>  (17) 
adg

>  <m_score__min__energy>  (17) 
-7.1600000000000001

>  <m_primary>  (17) 
energy

$$$$
17:0
     RDKit          3D

 56 58  0  0  0  0  0  0  0  0999 V2000
   58.5740   28.3370   44.8300 C   0  0  0  0  0  0  0  0  0  0  0  0
   57.2220   28.4350   45.5330 C   0  0  0  0  0  0  0  0  0  0  0  0
   56.6190   29.7080   45.2990 O   0  0  0  0  0  0  0  0  0  0  0  0
   57.0990   30.7030   44.4270 C   0  0  0  0  0  0  0  0  0  0  0  0
   56.8730   30.6490   43.0370 C   0  0  0  0  0  0  0  0  0  0  0  0
   57.3690   31.6500   42.2000 C   0  0  0  0  0  0  0  0  0  0  0  0
   58.0970   32.7110   42.7310 C   0  0  0  0  0  0  0  0  0  0  0  0
   58.3320   32.7770   44.1040 C   0  0  0  0  0  0  0  0  0  0  0  0
   57.8390   31.7790   44.9610 C   0  0  0  0  0  0  0  0  0  0  0  0
   58.1360   31.8790   46.4400 C   0  0  0  0  0  0  0  0  0  0  0  0
   59.0150   33.0320   46.7160 N   0  0  0  0  0  0  0  0  0  0  0  0
   58.8700   33.4850   48.1200 C   0  0  0  0  0  0  0  0  0  0  0  0
   60.1390   34.1750   48.6280 C   0  0  0  0  0  0  0  0  0  0  0  0
   61.2620   33.2130   48.6590 N   0  0  0  0  0  0  0  0  0  0  0  0
   62.5260   33.8970   48.8770 C   0  0  0  0  0  0  0  0  0  0  0  0
   62.5400   34.9390   49.5180 O   0  0  0  0  0  0  0  0  0  0  0  0
   63.8410   33.3440   48.3670 C   0  0  0  0  0  0  0  0  0  0  0  0
   64.5810   32.6100   49.4610 C   0  0  0  0  0  0  0  0  0  0  0  0
   65.9010   32.9720   49.7710 C   0  0  0  0  0  0  0  0  0  0  0  0
   66.5890   32.3340   50.8030 C   0  0  0  0  0  0  0  0  0  0  0  0
   65.9660   31.3330   51.5430 C   0  0  0  0  0  0  0  0  0  0  0  0
   64.6510   30.9600   51.2520 C   0  0  0  0  0  0  0  0  0  0  0  0
   63.9470   31.5900   50.2060 C   0  0  0  0  0  0  0  0  0  0  0  0
   62.6280   31.2300   49.8820 O   0  0  0  0  0  0  0  0  0  0  0  0
   61.9140   30.1530   50.4810 C   0  0  0  0  0  0  0  0  0  0  0  0
   61.3090   32.3060   47.4780 C   0  0  0  0  0  0  0  0  0  0  0  0
   60.4220   32.7800   46.3090 C   0  0  0  0  0  0  0  0  0  0  0  0
   59.3749   28.2790   45.5818 H   0  0  0  0  0  0  0  0  0  0  0  0
   58.5956   27.4349   44.2009 H   0  0  0  0  0  0  0  0  0  0  0  0
   58.7255   29.2265   44.2009 H   0  0  0  0  0  0  0  0  0  0  0  0
   56.5584   27.6459   45.1497 H   0  0  0  0  0  0  0  0  0  0  0  0
   57.3779   28.3127   46.6150 H   0  0  0  0  0  0  0  0  0  0  0  0
   56.3018   29.8122   42.6086 H   0  0  0  0  0  0  0  0  0  0  0  0
   57.1839   31.6002   41.1168 H   0  0  0  0  0  0  0  0  0  0  0  0
   58.4868   33.4972   42.0677 H   0  0  0  0  0  0  0  0  0  0  0  0
   58.9079   33.6172   44.5192 H   0  0  0  0  0  0  0  0  0  0  0  0
   57.1920   32.0039   46.9907 H   0  0  0  0  0  0  0  0  0  0  0  0
   58.6456   30.9591   46.7626 H   0  0  0  0  0  0  0  0  0  0  0  0
   58.0307   34.1934   48.1808 H   0  0  0  0  0  0  0  0  0  0  0  0
   58.6867   32.6005   48.7478 H   0  0  0  0  0  0  0  0  0  0  0  0
   60.3929   35.0093   47.9576 H   0  0  0  0  0  0  0  0  0  0  0  0
   59.9607   34.5537   49.6453 H   0  0  0  0  0  0  0  0  0  0  0  0
   61.0980   32.6020   49.4960 H   0  0  0  0  0  0  0  0  0  0  0  0
   63.6415   32.6484   47.5385 H   0  0  0  0  0  0  0  0  0  0  0  0
   64.4645   34.1830   48.0244 H   0  0  0  0  0  0  0  0  0  0  0  0
   66.3977   33.7664   49.1946 H   0  0  0  0  0  0  0  0  0  0  0  0
   67.6254   32.6223   51.0325 H   0  0  0  0  0  0  0  0  0  0  0  0
   66.5100   30.8344   52.3587 H   0  0  0  0  0  0  0  0  0  0  0  0
   64.1628   30.1706   51.8424 H   0  0  0  0  0  0  0  0  0  0  0  0
   61.9712   30.2393   51.5761 H   0  0  0  0  0  0  0  0  0  0  0  0
   60.8611   30.1902   50.1648 H   0  0  0  0  0  0  0  0  0  0  0  0
   62.3583   29.1977   50.1648 H   0  0  0  0  0  0  0  0  0  0  0  0
   62.3491   32.2461   47.1250 H   0  0  0  0  0  0  0  0  0  0  0  0
   60.9244   31.3280   47.8029 H   0  0  0  0  0  0  0  0  0  0  0  0
   60.8428   33.7125   45.9047 H   0  0  0  0  0  0  0  0  0  0  0  0
   60.4095   31.9769   45.5574 H   0  0  0  0  0  0  0  0  0  0  0  0
  1  2  1  0
  2  3  1  0
  3  4  1  0
  4  5  2  0
  5  6  1  0
  6  7  2  0
  7  8  1  0
  8  9  2  0
  9 10  1  0
 10 11  1  0
 11 12  1  0
 12 13  1  0
 13 14  1  0
 14 15  1  0
 15 16  2  0
 15 17  1  0
 17 18  1  0
 18 19  2  0
 19 20  1  0
 20 21  2  0
 21 22  1  0
 22 23  2  0
 23 24  1  0
 24 25  1  0
 14 26  1  0
 26 27  1  0
  9  4  1  0
 27 11  1  0
 23 18  1  0
  1 28  1  0
  1 29  1  0
  1 30  1  0
  2 31  1  0
  2 32  1  0
  5 33  1  0
  6 34  1  0
  7 35  1  0
  8 36  1  0
 10 37  1  0
 10 38  1  0
 12 39  1  0
 12 40  1  0
 13 41  1  0
 13 42  1  0
 14 43  1  0
 17 44  1  0
 17 45  1  0
 19 46  1  0
 20 47  1  0
 21 48  1  0
 22 49  1  0
 25 50  1  0
 25 51  1  0
 25 52  1  0
 26 53  1  0
 26 54  1  0
 27 55  1  0
 27 56  1  0
M  CHG  1  14   1
M  END
>  <UniqueID>  (18) 
18

>  <SMILES>  (18) 
CCOc1ccccc1CN1CC[NH+](C(=O)Cc2ccccc2OC)CC1

>  <Energy>  (18) 
69.23735777238053

>  <Genealogy>  (18) 
CCOc1ccccc1CN1CC[NH+](C(=O)Cc2ccccc2OC)CC1 (protonated)
CCOc1ccccc1CN1CC[NH+](C(=O)Cc2ccccc2OC)CC1 (3D coordinates assigned)
CCOc1ccccc1CN1CC[NH+](C(=O)Cc2ccccc2OC)CC1 (nonaromatic ring conformer: 69.23735777238053 kcal/mol)

>  <smiles>  (18) 
CCOc1ccccc1CN1CCN(C(=O)Cc2ccccc2OC)CC1

>  <score_type>  (18) 
oracle

>  <origin>  (18) 
adg

>  <m_score__min__energy>  (18) 
-6.4000000000000004

>  <m_primary>  (18) 
energy

$$$$
18:0
     RDKit          3D

 63 68  0  0  0  0  0  0  0  0999 V2000
   63.7420   29.1680   52.5670 C   0  0  0  0  0  0  0  0  0  0  0  0
   63.9280   30.2760   51.5810 C   0  0  0  0  0  0  0  0  0  0  0  0
   63.1270   30.3480   50.4790 N   0  0  0  0  0  0  0  0  0  0  0  0
   63.3090   31.3510   49.6240 N   0  0  0  0  0  0  0  0  0  0  0  0
   62.6430   31.6390   48.4970 C   0  0  0  0  0  0  0  0  0  0  0  0
   61.4990   30.8750   47.9660 C   0  0  0  0  0  0  0  0  0  0  0  0
   61.4830   30.4630   46.6280 C   0  0  0  0  0  0  0  0  0  0  0  0
   60.3930   29.7510   46.1200 C   0  0  0  0  0  0  0  0  0  0  0  0
   59.2970   29.4320   46.9450 C   0  0  0  0  0  0  0  0  0  0  0  0
   58.1300   28.6860   46.4020 C   0  0  0  0  0  0  0  0  0  0  0  0
   57.1790   29.1340   45.4930 C   0  0  0  0  0  0  0  0  0  0  0  0
   56.2870   28.1530   45.2520 N   0  0  0  0  0  0  0  0  0  0  0  0
   56.6440   27.1030   45.9730 N   0  0  0  0  0  0  0  0  0  0  0  0
   55.9170   25.8400   45.9920 C   0  0  0  0  0  0  0  0  0  0  0  0
   57.7510   27.3830   46.6840 C   0  0  0  0  0  0  0  0  0  0  0  0
   59.3310   29.8330   48.2960 C   0  0  0  0  0  0  0  0  0  0  0  0
   60.4240   30.5430   48.8000 C   0  0  0  0  0  0  0  0  0  0  0  0
   63.2100   32.8100   47.9940 C   0  0  0  0  0  0  0  0  0  0  0  0
   62.7480   33.6010   46.8010 C   0  0  0  0  0  0  0  0  0  0  0  0
   61.2640   33.8610   46.8510 C   0  0  0  0  0  0  0  0  0  0  0  0
   60.4960   33.8400   45.6730 C   0  0  0  0  0  0  0  0  0  0  0  0
   59.1260   34.1090   45.7200 C   0  0  0  0  0  0  0  0  0  0  0  0
   58.5110   34.4130   46.9370 C   0  0  0  0  0  0  0  0  0  0  0  0
   59.2680   34.4520   48.1110 C   0  0  0  0  0  0  0  0  0  0  0  0
   60.6400   34.1840   48.0700 C   0  0  0  0  0  0  0  0  0  0  0  0
   64.2160   33.2260   48.8060 N   0  0  0  0  0  0  0  0  0  0  0  0
   64.2410   32.2920   49.7790 C   0  0  0  0  0  0  0  0  0  0  0  0
   65.0750   32.2540   50.8960 C   0  0  0  0  0  0  0  0  0  0  0  0
   66.0830   33.2530   51.1270 N   0  0  0  0  0  0  0  0  0  0  0  0
   65.7010   34.5270   51.7420 C   0  0  0  0  0  0  0  0  0  0  0  0
   66.9010   35.1300   52.4800 C   0  0  0  0  0  0  0  0  0  0  0  0
   68.0380   35.1810   51.6360 O   0  0  0  0  0  0  0  0  0  0  0  0
   68.4460   33.8670   51.3040 C   0  0  0  0  0  0  0  0  0  0  0  0
   67.3800   33.1720   50.4520 C   0  0  0  0  0  0  0  0  0  0  0  0
   64.8880   31.2340   51.7880 N   0  0  0  0  0  0  0  0  0  0  0  0
   63.8096   29.5709   53.5883 H   0  0  0  0  0  0  0  0  0  0  0  0
   62.7540   28.7076   52.4191 H   0  0  0  0  0  0  0  0  0  0  0  0
   64.5255   28.4102   52.4191 H   0  0  0  0  0  0  0  0  0  0  0  0
   62.3337   30.7012   45.9725 H   0  0  0  0  0  0  0  0  0  0  0  0
   60.3910   29.4368   45.0658 H   0  0  0  0  0  0  0  0  0  0  0  0
   57.1576   30.1360   45.0396 H   0  0  0  0  0  0  0  0  0  0  0  0
   55.7408   25.5340   47.0338 H   0  0  0  0  0  0  0  0  0  0  0  0
   54.9523   25.9644   45.4783 H   0  0  0  0  0  0  0  0  0  0  0  0
   56.5091   25.0683   45.4783 H   0  0  0  0  0  0  0  0  0  0  0  0
   58.2668   26.6960   47.3711 H   0  0  0  0  0  0  0  0  0  0  0  0
   58.4895   29.5848   48.9595 H   0  0  0  0  0  0  0  0  0  0  0  0
   60.4401   30.8429   49.8582 H   0  0  0  0  0  0  0  0  0  0  0  0
   63.2791   34.5641   46.7833 H   0  0  0  0  0  0  0  0  0  0  0  0
   62.9655   33.0169   45.8946 H   0  0  0  0  0  0  0  0  0  0  0  0
   60.9763   33.6107   44.7103 H   0  0  0  0  0  0  0  0  0  0  0  0
   58.5297   34.0814   44.7961 H   0  0  0  0  0  0  0  0  0  0  0  0
   57.4315   34.6215   46.9711 H   0  0  0  0  0  0  0  0  0  0  0  0
   58.7840   34.6938   49.0688 H   0  0  0  0  0  0  0  0  0  0  0  0
   61.2339   34.2259   48.9949 H   0  0  0  0  0  0  0  0  0  0  0  0
   65.3662   35.2239   50.9596 H   0  0  0  0  0  0  0  0  0  0  0  0
   64.8849   34.3530   52.4588 H   0  0  0  0  0  0  0  0  0  0  0  0
   66.6483   36.1496   52.8063 H   0  0  0  0  0  0  0  0  0  0  0  0
   67.1350   34.4966   53.3483 H   0  0  0  0  0  0  0  0  0  0  0  0
   69.3881   33.9129   50.7380 H   0  0  0  0  0  0  0  0  0  0  0  0
   68.5879   33.2940   52.2322 H   0  0  0  0  0  0  0  0  0  0  0  0
   67.3143   33.6672   49.4720 H   0  0  0  0  0  0  0  0  0  0  0  0
   67.6545   32.1159   50.3129 H   0  0  0  0  0  0  0  0  0  0  0  0
   65.4980   31.1760   52.6350 H   0  0  0  0  0  0  0  0  0  0  0  0
  1  2  1  0
  2  3  2  0
  3  4  1  0
  4  5  1  0
  5  6  1  0
  6  7  2  0
  7  8  1  0
  8  9  2  0
  9 10  1  0
 10 11  1  0
 11 12  2  0
 12 13  1  0
 13 14  1  0
 13 15  1  0
  9 16  1  0
 16 17  2  0
  5 18  2  0
 18 19  1  0
 19 20  1  0
 20 21  2  0
 21 22  1  0
 22 23  2  0
 23 24  1  0
 24 25  2  0
 18 26  1  0
 26 27  2  0
 27 28  1  0
 28 29  1  0
 29 30  1  0
 30 31  1  0
 31 32  1  0
 32 33  1  0
 33 34  1  0
 28 35  2  0
 35  2  1  0
 27  4  1  0
 34 29  1  0
 17  6  1  0
 25 20  1  0
 15 10  2  0
  1 36  1  0
  1 37  1  0
  1 38  1  0
  7 39  1  0
  8 40  1  0
 11 41  1  0
 14 42  1  0
 14 43  1  0
 14 44  1  0
 15 45  1  0
 16 46  1  0
 17 47  1  0
 19 48  1  0
 19 49  1  0
 21 50  1  0
 22 51  1  0
 23 52  1  0
 24 53  1  0
 25 54  1  0
 30 55  1  0
 30 56  1  0
 31 57  1  0
 31 58  1  0
 33 59  1  0
 33 60  1  0
 34 61  1  0
 34 62  1  0
 35 63  1  0
M  CHG  1  35   1
M  END
>  <UniqueID>  (19) 
19

>  <SMILES>  (19) 
Cc1nn2c(-c3ccc(-c4cnn(C)c4)cc3)c(Cc3ccccc3)nc2c(N2CCOCC2)[nH+]1

>  <Energy>  (19) 
146.31570860079515

>  <Genealogy>  (19) 
Cc1nn2c(-c3ccc(-c4cnn(C)c4)cc3)c(Cc3ccccc3)nc2c(N2CCOCC2)[nH+]1 (protonated)
Cc1nn2c(-c3ccc(-c4cnn(C)c4)cc3)c(Cc3ccccc3)nc2c(N2CCOCC2)[nH+]1 (3D coordinates assigned)
Cc1nn2c(-c3ccc(-c4cnn(C)c4)cc3)c(Cc3ccccc3)nc2c(N2CCOCC2)[nH+]1 (nonaromatic ring conformer: 146.31570860079515 kcal/mol)

>  <smiles>  (19) 
Cc1nc(N2CCOCC2)c2nc(Cc3ccccc3)c(-c3ccc(-c4cnn(C)c4)cc3)n2n1

>  <score_type>  (19) 
oracle

>  <origin>  (19) 
adg

>  <m_score__min__energy>  (19) 
-8.0500000000000007

>  <m_primary>  (19) 
energy

$$$$
19:0
     RDKit          3D

 68 69  0  0  0  0  0  0  0  0999 V2000
   63.6360   33.2830   50.6420 C   0  0  0  0  0  0  0  0  0  0  0  0
   62.7500   34.2940   49.9140 C   0  0  0  0  0  0  0  0  0  0  0  0
   62.4090   33.8630   48.4780 C   0  0  0  0  0  0  0  0  0  0  0  0
   63.6010   33.3140   47.6710 C   0  0  0  0  0  0  0  0  0  0  0  0
   63.4060   31.8590   47.1900 C   0  0  0  0  0  0  0  0  0  0  0  0
   62.1500   31.2110   47.7980 C   0  0  0  0  0  0  0  0  0  0  0  0
   60.9710   31.1670   46.8140 C   0  0  0  0  0  0  0  0  0  0  0  0
   60.6260   29.7400   46.3630 C   0  0  0  0  0  0  0  0  0  0  0  0
   59.1160   29.5840   46.1370 C   0  0  0  0  0  0  0  0  0  0  0  0
   58.7490   29.6210   44.6340 C   0  0  0  0  0  0  0  0  0  0  0  0
   57.4040   30.3250   44.3120 C   0  0  1  0  0  0  0  0  0  0  0  0
   56.2550   29.3040   44.1610 C   0  0  0  0  0  0  0  0  0  0  0  0
   55.2520   29.5070   45.1210 O   0  0  0  0  0  0  0  0  0  0  0  0
   57.0450   31.3540   45.3130 N   0  0  0  0  0  0  0  0  0  0  0  0
   57.7720   32.6270   45.1590 C   0  0  0  0  0  0  0  0  0  0  0  0
   58.3210   33.1300   46.4640 C   0  0  0  0  0  0  0  0  0  0  0  0
   58.9900   34.3170   46.6680 C   0  0  0  0  0  0  0  0  0  0  0  0
   59.3550   34.3550   47.9280 O   0  0  0  0  0  0  0  0  0  0  0  0
   58.9430   33.2410   48.4990 C   0  0  0  0  0  0  0  0  0  0  0  0
   59.1740   32.9120   49.9310 C   0  0  0  0  0  0  0  0  0  0  0  0
   59.6090   33.9110   50.8230 C   0  0  0  0  0  0  0  0  0  0  0  0
   59.8410   33.6140   52.1660 C   0  0  0  0  0  0  0  0  0  0  0  0
   59.6450   32.3190   52.6400 C   0  0  0  0  0  0  0  0  0  0  0  0
   59.2180   31.3130   51.7730 C   0  0  0  0  0  0  0  0  0  0  0  0
   58.9780   31.5940   50.4110 C   0  0  0  0  0  0  0  0  0  0  0  0
   58.5330   30.6000   49.5190 O   0  0  0  0  0  0  0  0  0  0  0  0
   59.0030   29.2530   49.4590 C   0  0  0  0  0  0  0  0  0  0  0  0
   60.4950   29.1880   49.7700 C   0  0  0  0  0  0  0  0  0  0  0  0
   58.2950   32.4460   47.6200 N   0  0  0  0  0  0  0  0  0  0  0  0
   63.5230   33.4119   51.7286 H   0  0  0  0  0  0  0  0  0  0  0  0
   63.3358   32.2629   50.3606 H   0  0  0  0  0  0  0  0  0  0  0  0
   64.6867   33.4468   50.3606 H   0  0  0  0  0  0  0  0  0  0  0  0
   61.8127   34.4100   50.4780 H   0  0  0  0  0  0  0  0  0  0  0  0
   63.3089   35.2394   49.8519 H   0  0  0  0  0  0  0  0  0  0  0  0
   61.6394   33.0787   48.5292 H   0  0  0  0  0  0  0  0  0  0  0  0
   62.0694   34.7686   47.9539 H   0  0  0  0  0  0  0  0  0  0  0  0
   63.7483   33.9548   46.7891 H   0  0  0  0  0  0  0  0  0  0  0  0
   64.4729   33.3174   48.3417 H   0  0  0  0  0  0  0  0  0  0  0  0
   63.3105   31.8576   46.0942 H   0  0  0  0  0  0  0  0  0  0  0  0
   64.2794   31.2750   47.5157 H   0  0  0  0  0  0  0  0  0  0  0  0
   62.3956   30.1820   48.0994 H   0  0  0  0  0  0  0  0  0  0  0  0
   61.8427   31.8241   48.6581 H   0  0  0  0  0  0  0  0  0  0  0  0
   60.0882   31.6042   47.3033 H   0  0  0  0  0  0  0  0  0  0  0  0
   61.2646   31.7355   45.9193 H   0  0  0  0  0  0  0  0  0  0  0  0
   61.1547   29.5221   45.4233 H   0  0  0  0  0  0  0  0  0  0  0  0
   60.9364   29.0388   47.1516 H   0  0  0  0  0  0  0  0  0  0  0  0
   58.7912   28.6213   46.5585 H   0  0  0  0  0  0  0  0  0  0  0  0
   58.6092   30.4256   46.6318 H   0  0  0  0  0  0  0  0  0  0  0  0
   59.5502   30.1515   44.0986 H   0  0  0  0  0  0  0  0  0  0  0  0
   58.6356   28.5741   44.3160 H   0  0  0  0  0  0  0  0  0  0  0  0
   57.5506   30.8381   43.3501 H   0  0  0  0  0  0  0  0  0  0  0  0
   55.8151   29.4078   43.1582 H   0  0  0  0  0  0  0  0  0  0  0  0
   56.6703   28.2958   44.3063 H   0  0  0  0  0  0  0  0  0  0  0  0
   55.7100   29.7210   45.9760 H   0  0  0  0  0  0  0  0  0  0  0  0
   56.0200   31.5620   45.2390 H   0  0  0  0  0  0  0  0  0  0  0  0
   58.6066   32.4755   44.4587 H   0  0  0  0  0  0  0  0  0  0  0  0
   57.0620   33.3771   44.7805 H   0  0  0  0  0  0  0  0  0  0  0  0
   59.1832   35.0922   45.9119 H   0  0  0  0  0  0  0  0  0  0  0  0
   59.7675   34.9361   50.4570 H   0  0  0  0  0  0  0  0  0  0  0  0
   60.1795   34.4042   52.8523 H   0  0  0  0  0  0  0  0  0  0  0  0
   59.8273   32.0891   53.7001 H   0  0  0  0  0  0  0  0  0  0  0  0
   59.0671   30.2922   52.1541 H   0  0  0  0  0  0  0  0  0  0  0  0
   58.4542   28.6460   50.1941 H   0  0  0  0  0  0  0  0  0  0  0  0
   58.8363   28.8653   48.4432 H   0  0  0  0  0  0  0  0  0  0  0  0
   60.6424   29.1816   50.8601 H   0  0  0  0  0  0  0  0  0  0  0  0
   60.9202   28.2705   49.3371 H   0  0  0  0  0  0  0  0  0  0  0  0
   60.9983   30.0651   49.3371 H   0  0  0  0  0  0  0  0  0  0  0  0
   57.8890   31.4970   47.7720 H   0  0  0  0  0  0  0  0  0  0  0  0
  1  2  1  0
  2  3  1  0
  3  4  1  0
  4  5  1  0
  5  6  1  0
  6  7  1  0
  7  8  1  0
  8  9  1  0
  9 10  1  0
 10 11  1  0
 11 12  1  0
 12 13  1  0
 11 14  1  0
 14 15  1  0
 15 16  1  0
 16 17  2  0
 17 18  1  0
 18 19  1  0
 19 20  1  0
 20 21  2  0
 21 22  1  0
 22 23  2  0
 23 24  1  0
 24 25  2  0
 25 26  1  0
 26 27  1  0
 27 28  1  0
 19 29  2  0
 29 16  1  0
 25 20  1  0
  1 30  1  0
  1 31  1  0
  1 32  1  0
  2 33  1  0
  2 34  1  0
  3 35  1  0
  3 36  1  0
  4 37  1  0
  4 38  1  0
  5 39  1  0
  5 40  1  0
  6 41  1  0
  6 42  1  0
  7 43  1  0
  7 44  1  0
  8 45  1  0
  8 46  1  0
  9 47  1  0
  9 48  1  0
 10 49  1  0
 10 50  1  0
 11 51  1  6
 12 52  1  0
 12 53  1  0
 13 54  1  0
 14 55  1  0
 15 56  1  0
 15 57  1  0
 17 58  1  0
 21 59  1  0
 22 60  1  0
 23 61  1  0
 24 62  1  0
 27 63  1  0
 27 64  1  0
 28 65  1  0
 28 66  1  0
 28 67  1  0
 29 68  1  0
M  CHG  1  29   1
M  END
>  <UniqueID>  (20) 
20

>  <SMILES>  (20) 
CCCCCCCCCC[C@@H](CO)NCc1coc(-c2ccccc2OCC)[nH+]1

>  <Energy>  (20) 
87.71174616936084

>  <Genealogy>  (20) 
CCCCCCCCCCC(CO)NCc1coc(-c2ccccc2OCC)[nH+]1 (protonated)
CCCCCCCCCC[C@@H](CO)NCc1coc(-c2ccccc2OCC)[nH+]1 (chirality)
CCCCCCCCCC[C@@H](CO)NCc1coc(-c2ccccc2OCC)[nH+]1 (3D coordinates assigned)
CCCCCCCCCC[C@@H](CO)NCc1coc(-c2ccccc2OCC)[nH+]1 (optimized conformer: 87.71174616936084 kcal/mol)

>  <smiles>  (20) 
CCCCCCCCCCC(CO)NCc1coc(-c2ccccc2OCC)n1

>  <score_type>  (20) 
oracle

>  <origin>  (20) 
adg

>  <m_score__min__energy>  (20) 
-6.8600000000000003

>  <m_primary>  (20) 
energy

$$$$
20:0
     RDKit          3D

 46 49  0  0  0  0  0  0  0  0999 V2000
   57.3860   19.9640   44.8920 N   0  0  0  0  0  0  0  0  0  0  0  0
   56.5290   20.8600   45.6690 C   0  0  0  0  0  0  0  0  0  0  0  0
   57.2160   22.1980   45.9800 C   0  0  0  0  0  0  0  0  0  0  0  0
   56.4440   23.3270   45.4570 N   0  0  0  0  0  0  0  0  0  0  0  0
   56.8490   24.7110   45.4960 C   0  0  0  0  0  0  0  0  0  0  0  0
   57.4630   25.2700   44.3630 C   0  0  0  0  0  0  0  0  0  0  0  0
   57.8480   26.6140   44.3490 C   0  0  0  0  0  0  0  0  0  0  0  0
   57.6280   27.4230   45.4720 C   0  0  0  0  0  0  0  0  0  0  0  0
   58.0010   28.8520   45.4470 C   0  0  0  0  0  0  0  0  0  0  0  0
   58.8520   29.5410   46.3230 C   0  0  0  0  0  0  0  0  0  0  0  0
   59.4790   29.0270   47.5590 C   0  0  0  0  0  0  0  0  0  0  0  0
   60.1530   27.7900   47.5770 C   0  0  0  0  0  0  0  0  0  0  0  0
   60.7360   27.3220   48.7570 C   0  0  0  0  0  0  0  0  0  0  0  0
   60.6390   28.0710   49.9330 C   0  0  0  0  0  0  0  0  0  0  0  0
   61.4370   27.4280   51.5460 Br  0  0  0  0  0  0  0  0  0  0  0  0
   59.9500   29.2870   49.9300 C   0  0  0  0  0  0  0  0  0  0  0  0
   59.3660   29.7600   48.7510 C   0  0  0  0  0  0  0  0  0  0  0  0
   59.0310   30.7810   45.8980 O   0  0  0  0  0  0  0  0  0  0  0  0
   58.3340   30.9340   44.7990 C   0  0  0  0  0  0  0  0  0  0  0  0
   58.2400   32.0780   44.0090 C   0  0  0  0  0  0  0  0  0  0  0  0
   57.4530   32.0110   42.8450 C   0  0  0  0  0  0  0  0  0  0  0  0
   56.7910   30.8130   42.4970 C   0  0  0  0  0  0  0  0  0  0  0  0
   56.9040   29.6740   43.3140 C   0  0  0  0  0  0  0  0  0  0  0  0
   57.6760   29.7770   44.4740 C   0  0  0  0  0  0  0  0  0  0  0  0
   57.0370   26.8650   46.6140 C   0  0  0  0  0  0  0  0  0  0  0  0
   56.6510   25.5240   46.6300 C   0  0  0  0  0  0  0  0  0  0  0  0
   57.4890   20.3180   43.9130 H   0  0  0  0  0  0  0  0  0  0  0  0
   58.3330   19.9340   45.3320 H   0  0  0  0  0  0  0  0  0  0  0  0
   56.9890   18.9970   44.8870 H   0  0  0  0  0  0  0  0  0  0  0  0
   55.6117   21.0582   45.0952 H   0  0  0  0  0  0  0  0  0  0  0  0
   56.3049   20.3660   46.6259 H   0  0  0  0  0  0  0  0  0  0  0  0
   57.3141   22.3055   47.0703 H   0  0  0  0  0  0  0  0  0  0  0  0
   58.2048   22.2007   45.4980 H   0  0  0  0  0  0  0  0  0  0  0  0
   55.4800   23.1080   45.1140 H   0  0  0  0  0  0  0  0  0  0  0  0
   57.6429   24.6434   43.4770 H   0  0  0  0  0  0  0  0  0  0  0  0
   58.3253   27.0380   43.4532 H   0  0  0  0  0  0  0  0  0  0  0  0
   60.2205   27.1899   46.6576 H   0  0  0  0  0  0  0  0  0  0  0  0
   61.2727   26.3618   48.7606 H   0  0  0  0  0  0  0  0  0  0  0  0
   59.8670   29.8731   50.8571 H   0  0  0  0  0  0  0  0  0  0  0  0
   58.8148   30.7119   48.7574 H   0  0  0  0  0  0  0  0  0  0  0  0
   58.7646   33.0041   44.2868 H   0  0  0  0  0  0  0  0  0  0  0  0
   57.3525   32.8975   42.2016 H   0  0  0  0  0  0  0  0  0  0  0  0
   56.1832   30.7706   41.5812 H   0  0  0  0  0  0  0  0  0  0  0  0
   56.4009   28.7325   43.0484 H   0  0  0  0  0  0  0  0  0  0  0  0
   56.8761   27.4894   47.5052 H   0  0  0  0  0  0  0  0  0  0  0  0
   56.1893   25.0989   47.5334 H   0  0  0  0  0  0  0  0  0  0  0  0
  1  2  1  0
  2  3  1  0
  3  4  1  0
  4  5  1  0
  5  6  2  0
  6  7  1  0
  7  8  2  0
  8  9  1  0
  9 10  2  0
 10 11  1  0
 11 12  2  0
 12 13  1  0
 13 14  2  0
 14 15  1  0
 14 16  1  0
 16 17  2  0
 10 18  1  0
 18 19  1  0
 19 20  2  0
 20 21  1  0
 21 22  2  0
 22 23  1  0
 23 24  2  0
  8 25  1  0
 25 26  2  0
 26  5  1  0
 24  9  1  0
 17 11  1  0
 24 19  1  0
  1 27  1  0
  1 28  1  0
  1 29  1  0
  2 30  1  0
  2 31  1  0
  3 32  1  0
  3 33  1  0
  4 34  1  0
  6 35  1  0
  7 36  1  0
 12 37  1  0
 13 38  1  0
 16 39  1  0
 17 40  1  0
 20 41  1  0
 21 42  1  0
 22 43  1  0
 23 44  1  0
 25 45  1  0
 26 46  1  0
M  CHG  1   1   1
M  END
>  <UniqueID>  (21) 
21

>  <SMILES>  (21) 
[NH3+]CCNc1ccc(-c2c(-c3ccc(Br)cc3)oc3ccccc23)cc1

>  <Energy>  (21) 
90.54877646335567

>  <Genealogy>  (21) 
[NH3+]CCNc1ccc(-c2c(-c3ccc(Br)cc3)oc3ccccc23)cc1 (protonated)
[NH3+]CCNc1ccc(-c2c(-c3ccc(Br)cc3)oc3ccccc23)cc1 (3D coordinates assigned)
[NH3+]CCNc1ccc(-c2c(-c3ccc(Br)cc3)oc3ccccc23)cc1 (optimized conformer: 90.54877646335567 kcal/mol)

>  <smiles>  (21) 
NCCNc1ccc(-c2c(-c3ccc(Br)cc3)oc3ccccc23)cc1

>  <score_type>  (21) 
oracle

>  <origin>  (21) 
adg

>  <m_score__min__energy>  (21) 
-6.71

>  <m_primary>  (21) 
energy

$$$$
21:0
     RDKit          3D

 45 48  0  0  0  0  0  0  0  0999 V2000
   56.2450   20.1030   44.1210 C   0  0  0  0  0  0  0  0  0  0  0  0
   55.9000   21.3390   43.5030 O   0  0  0  0  0  0  0  0  0  0  0  0
   56.3750   22.5920   43.9180 C   0  0  0  0  0  0  0  0  0  0  0  0
   56.7900   23.5820   43.0080 C   0  0  0  0  0  0  0  0  0  0  0  0
   57.2560   24.8170   43.4720 C   0  0  0  0  0  0  0  0  0  0  0  0
   57.3160   25.0840   44.8500 C   0  0  0  0  0  0  0  0  0  0  0  0
   57.8140   26.3940   45.3390 C   0  0  0  0  0  0  0  0  0  0  0  0
   58.4820   26.4820   46.5710 C   0  0  0  0  0  0  0  0  0  0  0  0
   58.9380   27.7230   47.0370 C   0  0  0  0  0  0  0  0  0  0  0  0
   59.6470   27.8270   48.3390 C   0  0  0  0  0  0  0  0  0  0  0  0
   59.5890   29.0090   49.0980 C   0  0  0  0  0  0  0  0  0  0  0  0
   60.2590   29.0920   50.3190 C   0  0  0  0  0  0  0  0  0  0  0  0
   60.9850   27.9930   50.7780 C   0  0  0  0  0  0  0  0  0  0  0  0
   61.0360   26.8550   50.0370 N   0  0  0  0  0  0  0  0  0  0  0  0
   60.3910   26.7470   48.8440 C   0  0  0  0  0  0  0  0  0  0  0  0
   58.7140   28.8630   46.2540 C   0  0  0  0  0  0  0  0  0  0  0  0
   58.0440   28.7530   45.0250 C   0  0  0  0  0  0  0  0  0  0  0  0
   57.8170   29.9570   44.1870 C   0  0  0  0  0  0  0  0  0  0  0  0
   58.3880   31.1920   44.5480 C   0  0  0  0  0  0  0  0  0  0  0  0
   58.1770   32.3260   43.7590 C   0  0  0  0  0  0  0  0  0  0  0  0
   57.3960   32.2420   42.6030 C   0  0  0  0  0  0  0  0  0  0  0  0
   56.8260   31.0200   42.2340 C   0  0  0  0  0  0  0  0  0  0  0  0
   57.0330   29.8840   43.0200 C   0  0  0  0  0  0  0  0  0  0  0  0
   57.6120   27.5270   44.6030 N   0  0  0  0  0  0  0  0  0  0  0  0
   56.9000   24.0920   45.7550 C   0  0  0  0  0  0  0  0  0  0  0  0
   56.4350   22.8590   45.2890 C   0  0  0  0  0  0  0  0  0  0  0  0
   56.2128   20.2182   45.2145 H   0  0  0  0  0  0  0  0  0  0  0  0
   55.5292   19.3266   43.8129 H   0  0  0  0  0  0  0  0  0  0  0  0
   57.2594   19.8096   43.8129 H   0  0  0  0  0  0  0  0  0  0  0  0
   56.7478   23.3840   41.9268 H   0  0  0  0  0  0  0  0  0  0  0  0
   57.5777   25.5845   42.7526 H   0  0  0  0  0  0  0  0  0  0  0  0
   58.6478   25.5754   47.1716 H   0  0  0  0  0  0  0  0  0  0  0  0
   59.0139   29.8707   48.7282 H   0  0  0  0  0  0  0  0  0  0  0  0
   60.2151   30.0159   50.9144 H   0  0  0  0  0  0  0  0  0  0  0  0
   61.5162   28.0475   51.7397 H   0  0  0  0  0  0  0  0  0  0  0  0
   60.4522   25.8095   48.2718 H   0  0  0  0  0  0  0  0  0  0  0  0
   59.0636   29.8459   46.6027 H   0  0  0  0  0  0  0  0  0  0  0  0
   59.0039   31.2649   45.4565 H   0  0  0  0  0  0  0  0  0  0  0  0
   58.6268   33.2872   44.0485 H   0  0  0  0  0  0  0  0  0  0  0  0
   57.2300   33.1363   41.9843 H   0  0  0  0  0  0  0  0  0  0  0  0
   56.2133   30.9529   41.3229 H   0  0  0  0  0  0  0  0  0  0  0  0
   56.5803   28.9258   42.7251 H   0  0  0  0  0  0  0  0  0  0  0  0
   57.1140   27.4540   43.6870 H   0  0  0  0  0  0  0  0  0  0  0  0
   56.9407   24.2874   46.8368 H   0  0  0  0  0  0  0  0  0  0  0  0
   56.1131   22.0912   46.0080 H   0  0  0  0  0  0  0  0  0  0  0  0
  1  2  1  0
  2  3  1  0
  3  4  2  0
  4  5  1  0
  5  6  2  0
  6  7  1  0
  7  8  2  0
  8  9  1  0
  9 10  1  0
 10 11  2  0
 11 12  1  0
 12 13  2  0
 13 14  1  0
 14 15  2  0
  9 16  2  0
 16 17  1  0
 17 18  1  0
 18 19  2  0
 19 20  1  0
 20 21  2  0
 21 22  1  0
 22 23  2  0
 17 24  2  0
  6 25  1  0
 25 26  2  0
 26  3  1  0
 24  7  1  0
 15 10  1  0
 23 18  1  0
  1 27  1  0
  1 28  1  0
  1 29  1  0
  4 30  1  0
  5 31  1  0
  8 32  1  0
 11 33  1  0
 12 34  1  0
 13 35  1  0
 15 36  1  0
 16 37  1  0
 19 38  1  0
 20 39  1  0
 21 40  1  0
 22 41  1  0
 23 42  1  0
 24 43  1  0
 25 44  1  0
 26 45  1  0
M  CHG  1  24   1
M  END
>  <UniqueID>  (22) 
22

>  <SMILES>  (22) 
COc1ccc(-c2cc(-c3cccnc3)cc(-c3ccccc3)[nH+]2)cc1

>  <Energy>  (22) 
65.24409146805354

>  <Genealogy>  (22) 
COc1ccc(-c2cc(-c3cccnc3)cc(-c3ccccc3)[nH+]2)cc1 (protonated)
COc1ccc(-c2cc(-c3cccnc3)cc(-c3ccccc3)[nH+]2)cc1 (3D coordinates assigned)
COc1ccc(-c2cc(-c3cccnc3)cc(-c3ccccc3)[nH+]2)cc1 (optimized conformer: 65.24409146805354 kcal/mol)

>  <smiles>  (22) 
COc1ccc(-c2cc(-c3cccnc3)cc(-c3ccccc3)n2)cc1

>  <score_type>  (22) 
oracle

>  <origin>  (22) 
adg

>  <m_score__min__energy>  (22) 
-6.2599999999999998

>  <m_primary>  (22) 
energy

$$$$
22:0
     RDKit          3D

 32 33  0  0  0  0  0  0  0  0999 V2000
   57.3420   22.4610   44.1090 C   0  0  0  0  0  0  0  0  0  0  0  0
   58.0610   23.2320   45.5410 S   0  0  0  0  0  0  0  0  0  0  0  0
   59.5270   22.9080   45.6040 O   0  0  0  0  0  0  0  0  0  0  0  0
   57.3960   22.7070   46.7820 O   0  0  0  0  0  0  0  0  0  0  0  0
   57.8380   24.9760   45.4390 C   0  0  0  0  0  0  0  0  0  0  0  0
   57.4830   25.7090   46.5780 C   0  0  0  0  0  0  0  0  0  0  0  0
   57.2920   27.0910   46.4950 C   0  0  0  0  0  0  0  0  0  0  0  0
   57.4540   27.7620   45.2690 C   0  0  0  0  0  0  0  0  0  0  0  0
   57.2450   29.2270   45.1680 C   0  0  0  0  0  0  0  0  0  0  0  0
   56.0820   29.6780   44.9800 O   0  0  0  0  0  0  0  0  0  0  0  0
   58.3530   30.1390   45.2510 N   0  0  0  0  0  0  0  0  0  0  0  0
   58.1750   31.5540   45.4060 C   0  0  0  0  0  0  0  0  0  0  0  0
   58.1950   32.1050   46.6960 C   0  0  0  0  0  0  0  0  0  0  0  0
   58.0250   33.4800   46.8810 C   0  0  0  0  0  0  0  0  0  0  0  0
   57.8170   34.3130   45.7800 C   0  0  0  0  0  0  0  0  0  0  0  0
   57.7680   33.7720   44.4930 C   0  0  0  0  0  0  0  0  0  0  0  0
   57.9370   32.3960   44.2980 C   0  0  0  0  0  0  0  0  0  0  0  0
   57.7650   31.7530   42.6680 Cl  0  0  0  0  0  0  0  0  0  0  0  0
   57.7920   27.0150   44.1260 C   0  0  0  0  0  0  0  0  0  0  0  0
   57.9830   25.6330   44.2110 C   0  0  0  0  0  0  0  0  0  0  0  0
   56.6241   21.6912   44.4286 H   0  0  0  0  0  0  0  0  0  0  0  0
   56.8217   23.2200   43.5063 H   0  0  0  0  0  0  0  0  0  0  0  0
   58.1354   21.9949   43.5063 H   0  0  0  0  0  0  0  0  0  0  0  0
   57.3539   25.1951   47.5420 H   0  0  0  0  0  0  0  0  0  0  0  0
   57.0129   27.6584   47.3951 H   0  0  0  0  0  0  0  0  0  0  0  0
   59.2980   29.7970   44.9640 H   0  0  0  0  0  0  0  0  0  0  0  0
   58.3454   31.4508   47.5674 H   0  0  0  0  0  0  0  0  0  0  0  0
   58.0551   33.9061   47.8947 H   0  0  0  0  0  0  0  0  0  0  0  0
   57.6916   35.3960   45.9261 H   0  0  0  0  0  0  0  0  0  0  0  0
   57.5958   34.4303   43.6287 H   0  0  0  0  0  0  0  0  0  0  0  0
   57.9070   27.5228   43.1570 H   0  0  0  0  0  0  0  0  0  0  0  0
   58.2481   25.0597   43.3104 H   0  0  0  0  0  0  0  0  0  0  0  0
  1  2  1  0
  2  3  2  0
  2  4  2  0
  2  5  1  0
  5  6  2  0
  6  7  1  0
  7  8  2  0
  8  9  1  0
  9 10  2  0
  9 11  1  0
 11 12  1  0
 12 13  2  0
 13 14  1  0
 14 15  2  0
 15 16  1  0
 16 17  2  0
 17 18  1  0
  8 19  1  0
 19 20  2  0
 20  5  1  0
 17 12  1  0
  1 21  1  0
  1 22  1  0
  1 23  1  0
  6 24  1  0
  7 25  1  0
 11 26  1  0
 13 27  1  0
 14 28  1  0
 15 29  1  0
 16 30  1  0
 19 31  1  0
 20 32  1  0
M  END
>  <UniqueID>  (23) 
23

>  <SMILES>  (23) 
CS(=O)(=O)c1ccc(C(=O)Nc2ccccc2Cl)cc1

>  <Energy>  (23) 
38.02538865319389

>  <Genealogy>  (23) 
CS(=O)(=O)c1ccc(C(=O)Nc2ccccc2Cl)cc1 (3D coordinates assigned)
CS(=O)(=O)c1ccc(C(=O)Nc2ccccc2Cl)cc1 (optimized conformer: 38.02538865319389 kcal/mol)

>  <smiles>  (23) 
CS(=O)(=O)c1ccc(C(=O)Nc2ccccc2Cl)cc1

>  <score_type>  (23) 
oracle

>  <origin>  (23) 
adg

>  <m_score__min__energy>  (23) 
-7.6299999999999999

>  <m_primary>  (23) 
energy

$$$$
23:0
     RDKit          3D

 55 57  0  0  0  0  0  0  0  0999 V2000
   56.2610   29.7400   42.9520 C   0  0  0  0  0  0  0  0  0  0  0  0
   56.0620   29.9600   44.4520 C   0  0  0  0  0  0  0  0  0  0  0  0
   57.2090   30.6950   45.0370 N   0  0  0  0  0  0  0  0  0  0  0  0
   57.0200   32.1600   44.8700 C   0  0  0  0  0  0  0  0  0  0  0  0
   57.9980   32.7480   43.8550 C   0  0  0  0  0  0  0  0  0  0  0  0
   58.5050   30.2420   44.4590 C   0  0  0  0  0  0  0  0  0  0  0  0
   59.1530   29.1590   45.3500 C   0  0  0  0  0  0  0  0  0  0  0  0
   58.6280   29.1340   46.7270 N   0  0  0  0  0  0  0  0  0  0  0  0
   59.6190   29.4710   47.7580 C   0  0  0  0  0  0  0  0  0  0  0  0
   59.0160   30.2900   48.8640 C   0  0  0  0  0  0  0  0  0  0  0  0
   58.5320   29.7970   50.0620 C   0  0  0  0  0  0  0  0  0  0  0  0
   58.1390   30.8340   50.8300 N   0  0  0  0  0  0  0  0  0  0  0  0
   57.5740   30.7510   52.1520 C   0  0  0  0  0  0  0  0  0  0  0  0
   58.3660   31.0030   53.2890 C   0  0  0  0  0  0  0  0  0  0  0  0
   57.8140   30.9160   54.5710 C   0  0  0  0  0  0  0  0  0  0  0  0
   56.4690   30.5740   54.7330 C   0  0  0  0  0  0  0  0  0  0  0  0
   55.6740   30.3190   53.6140 C   0  0  0  0  0  0  0  0  0  0  0  0
   56.2200   30.4060   52.3300 C   0  0  0  0  0  0  0  0  0  0  0  0
   58.3640   31.9630   50.1720 N   0  0  0  0  0  0  0  0  0  0  0  0
   58.8930   31.6720   48.9670 C   0  0  0  0  0  0  0  0  0  0  0  0
   59.3340   32.6970   47.9950 C   0  0  0  0  0  0  0  0  0  0  0  0
   58.4260   33.6190   47.4490 C   0  0  0  0  0  0  0  0  0  0  0  0
   58.8620   34.5850   46.5380 C   0  0  0  0  0  0  0  0  0  0  0  0
   60.2090   34.6450   46.1710 C   0  0  0  0  0  0  0  0  0  0  0  0
   61.1230   33.7430   46.7190 C   0  0  0  0  0  0  0  0  0  0  0  0
   62.4310   33.8050   46.3660 F   0  0  0  0  0  0  0  0  0  0  0  0
   60.6900   32.7740   47.6320 C   0  0  0  0  0  0  0  0  0  0  0  0
   56.9912   28.9327   42.7935 H   0  0  0  0  0  0  0  0  0  0  0  0
   55.3014   29.4620   42.4917 H   0  0  0  0  0  0  0  0  0  0  0  0
   56.6336   30.6670   42.4917 H   0  0  0  0  0  0  0  0  0  0  0  0
   55.1424   30.5422   44.6115 H   0  0  0  0  0  0  0  0  0  0  0  0
   55.9865   28.9788   44.9436 H   0  0  0  0  0  0  0  0  0  0  0  0
   55.9928   32.3491   44.5249 H   0  0  0  0  0  0  0  0  0  0  0  0
   57.2066   32.6409   45.8416 H   0  0  0  0  0  0  0  0  0  0  0  0
   58.8235   33.2443   44.3862 H   0  0  0  0  0  0  0  0  0  0  0  0
   58.4002   31.9419   43.2239 H   0  0  0  0  0  0  0  0  0  0  0  0
   57.4747   33.4813   43.2239 H   0  0  0  0  0  0  0  0  0  0  0  0
   58.3271   29.8256   43.4565 H   0  0  0  0  0  0  0  0  0  0  0  0
   59.1857   31.1041   44.3996 H   0  0  0  0  0  0  0  0  0  0  0  0
   58.9706   28.1763   44.8907 H   0  0  0  0  0  0  0  0  0  0  0  0
   60.2247   29.3973   45.4184 H   0  0  0  0  0  0  0  0  0  0  0  0
   57.8230   29.7980   46.8050 H   0  0  0  0  0  0  0  0  0  0  0  0
   60.0215   28.5397   48.1831 H   0  0  0  0  0  0  0  0  0  0  0  0
   60.4148   30.0661   47.2863 H   0  0  0  0  0  0  0  0  0  0  0  0
   58.4766   28.7348   50.3423 H   0  0  0  0  0  0  0  0  0  0  0  0
   59.4262   31.2701   53.1678 H   0  0  0  0  0  0  0  0  0  0  0  0
   58.4396   31.1171   55.4531 H   0  0  0  0  0  0  0  0  0  0  0  0
   56.0365   30.5057   55.7421 H   0  0  0  0  0  0  0  0  0  0  0  0
   54.6155   30.0490   53.7430 H   0  0  0  0  0  0  0  0  0  0  0  0
   55.5879   30.2037   51.4528 H   0  0  0  0  0  0  0  0  0  0  0  0
   58.1820   32.9230   50.5450 H   0  0  0  0  0  0  0  0  0  0  0  0
   57.3659   33.5806   47.7400 H   0  0  0  0  0  0  0  0  0  0  0  0
   58.1437   35.2992   46.1092 H   0  0  0  0  0  0  0  0  0  0  0  0
   60.5493   35.4031   45.4502 H   0  0  0  0  0  0  0  0  0  0  0  0
   61.4141   32.0696   48.0673 H   0  0  0  0  0  0  0  0  0  0  0  0
  1  2  1  0
  2  3  1  0
  3  4  1  0
  4  5  1  0
  3  6  1  0
  6  7  1  0
  7  8  1  0
  8  9  1  0
  9 10  1  0
 10 11  2  0
 11 12  1  0
 12 13  1  0
 13 14  2  0
 14 15  1  0
 15 16  2  0
 16 17  1  0
 17 18  2  0
 12 19  1  0
 19 20  2  0
 20 21  1  0
 21 22  2  0
 22 23  1  0
 23 24  2  0
 24 25  1  0
 25 26  1  0
 25 27  2  0
 20 10  1  0
 27 21  1  0
 18 13  1  0
  1 28  1  0
  1 29  1  0
  1 30  1  0
  2 31  1  0
  2 32  1  0
  4 33  1  0
  4 34  1  0
  5 35  1  0
  5 36  1  0
  5 37  1  0
  6 38  1  0
  6 39  1  0
  7 40  1  0
  7 41  1  0
  8 42  1  0
  9 43  1  0
  9 44  1  0
 11 45  1  0
 14 46  1  0
 15 47  1  0
 16 48  1  0
 17 49  1  0
 18 50  1  0
 19 51  1  0
 22 52  1  0
 23 53  1  0
 24 54  1  0
 27 55  1  0
M  CHG  1  19   1
M  END
>  <UniqueID>  (24) 
24

>  <SMILES>  (24) 
CCN(CC)CCNCc1cn(-c2ccccc2)[nH+]c1-c1cccc(F)c1

>  <Energy>  (24) 
95.29575494041178

>  <Genealogy>  (24) 
CCN(CC)CCNCc1cn(-c2ccccc2)[nH+]c1-c1cccc(F)c1 (protonated)
CCN(CC)CCNCc1cn(-c2ccccc2)[nH+]c1-c1cccc(F)c1 (3D coordinates assigned)
CCN(CC)CCNCc1cn(-c2ccccc2)[nH+]c1-c1cccc(F)c1 (optimized conformer: 95.29575494041178 kcal/mol)

>  <smiles>  (24) 
CCN(CC)CCNCc1cn(-c2ccccc2)nc1-c1cccc(F)c1

>  <score_type>  (24) 
oracle

>  <origin>  (24) 
adg

>  <m_score__min__energy>  (24) 
-6.3200000000000003

>  <m_primary>  (24) 
energy

$$$$
24:0
     RDKit          3D

 50 51  0  0  0  0  0  0  0  0999 V2000
   63.1150   33.4670   47.1180 C   0  0  0  0  0  0  0  0  0  0  0  0
   62.2960   33.7350   48.3900 C   0  0  0  0  0  0  0  0  0  0  0  0
   60.8580   33.4080   48.2530 N   0  0  0  0  0  0  0  0  0  0  0  0
   60.3410   32.5920   49.3770 C   0  0  0  0  0  0  0  0  0  0  0  0
   58.8730   32.2690   49.1340 C   0  0  0  0  0  0  0  0  0  0  0  0
   60.0260   34.5920   47.9470 C   0  0  0  0  0  0  0  0  0  0  0  0
   59.4940   34.5210   46.5040 C   0  0  0  0  0  0  0  0  0  0  0  0
   59.8530   33.2550   45.8420 N   0  0  0  0  0  0  0  0  0  0  0  0
   58.6820   32.5100   45.4640 C   0  0  0  0  0  0  0  0  0  0  0  0
   57.4370   33.0360   45.1730 C   0  0  0  0  0  0  0  0  0  0  0  0
   56.5860   32.0270   44.8780 N   0  0  0  0  0  0  0  0  0  0  0  0
   57.3510   30.9180   44.9920 C   0  0  0  0  0  0  0  0  0  0  0  0
   58.6240   31.1750   45.3270 N   0  0  0  0  0  0  0  0  0  0  0  0
   59.6100   30.1460   45.6640 C   0  0  0  0  0  0  0  0  0  0  0  0
   59.3050   28.8450   44.8930 C   0  0  0  0  0  0  0  0  0  0  0  0
   57.8720   28.4940   44.9630 N   0  0  0  0  0  0  0  0  0  0  0  0
   57.4680   27.0820   44.9920 C   0  0  0  0  0  0  0  0  0  0  0  0
   56.7250   26.7500   46.2890 C   0  0  0  0  0  0  0  0  0  0  0  0
   55.3840   26.3800   46.0220 O   0  0  0  0  0  0  0  0  0  0  0  0
   55.3150   25.0250   45.6320 C   0  0  0  0  0  0  0  0  0  0  0  0
   56.8940   29.5440   44.8240 C   0  0  0  0  0  0  0  0  0  0  0  0
   55.6810   29.2900   44.5910 O   0  0  0  0  0  0  0  0  0  0  0  0
   64.1265   33.1360   47.3961 H   0  0  0  0  0  0  0  0  0  0  0  0
   62.6231   32.6829   46.5236 H   0  0  0  0  0  0  0  0  0  0  0  0
   63.1818   34.3902   46.5236 H   0  0  0  0  0  0  0  0  0  0  0  0
   62.7139   33.1276   49.2063 H   0  0  0  0  0  0  0  0  0  0  0  0
   62.3620   34.8141   48.5930 H   0  0  0  0  0  0  0  0  0  0  0  0
   60.9159   31.6568   49.4464 H   0  0  0  0  0  0  0  0  0  0  0  0
   60.4428   33.1546   50.3168 H   0  0  0  0  0  0  0  0  0  0  0  0
   58.3578   32.1557   50.0993 H   0  0  0  0  0  0  0  0  0  0  0  0
   58.4073   33.0862   48.5636 H   0  0  0  0  0  0  0  0  0  0  0  0
   58.7933   31.3318   48.5636 H   0  0  0  0  0  0  0  0  0  0  0  0
   59.1761   34.6269   48.6445 H   0  0  0  0  0  0  0  0  0  0  0  0
   60.6428   35.4965   48.0539 H   0  0  0  0  0  0  0  0  0  0  0  0
   58.3979   34.6116   46.5253 H   0  0  0  0  0  0  0  0  0  0  0  0
   59.9517   35.3428   45.9337 H   0  0  0  0  0  0  0  0  0  0  0  0
   60.4560   32.6760   46.4700 H   0  0  0  0  0  0  0  0  0  0  0  0
   60.4060   33.4670   44.9790 H   0  0  0  0  0  0  0  0  0  0  0  0
   57.1794   34.1054   45.1802 H   0  0  0  0  0  0  0  0  0  0  0  0
   60.6147   30.5024   45.3927 H   0  0  0  0  0  0  0  0  0  0  0  0
   59.5631   29.9432   46.7441 H   0  0  0  0  0  0  0  0  0  0  0  0
   59.5882   28.9802   43.8387 H   0  0  0  0  0  0  0  0  0  0  0  0
   59.8816   28.0293   45.3535 H   0  0  0  0  0  0  0  0  0  0  0  0
   56.8066   26.8795   44.1367 H   0  0  0  0  0  0  0  0  0  0  0  0
   58.3720   26.4578   44.9366 H   0  0  0  0  0  0  0  0  0  0  0  0
   57.2353   25.9161   46.7932 H   0  0  0  0  0  0  0  0  0  0  0  0
   56.7223   27.6430   46.9313 H   0  0  0  0  0  0  0  0  0  0  0  0
   55.2825   24.3869   46.5274 H   0  0  0  0  0  0  0  0  0  0  0  0
   54.4074   24.8618   45.0323 H   0  0  0  0  0  0  0  0  0  0  0  0
   56.2013   24.7704   45.0323 H   0  0  0  0  0  0  0  0  0  0  0  0
  1  2  1  0
  2  3  1  0
  3  4  1  0
  4  5  1  0
  3  6  1  0
  6  7  1  0
  7  8  1  0
  8  9  1  0
  9 10  2  0
 10 11  1  0
 11 12  2  0
 12 13  1  0
 13 14  1  0
 14 15  1  0
 15 16  1  0
 16 17  1  0
 17 18  1  0
 18 19  1  0
 19 20  1  0
 16 21  1  0
 21 22  2  0
 13  9  1  0
 21 12  1  0
  1 23  1  0
  1 24  1  0
  1 25  1  0
  2 26  1  0
  2 27  1  0
  4 28  1  0
  4 29  1  0
  5 30  1  0
  5 31  1  0
  5 32  1  0
  6 33  1  0
  6 34  1  0
  7 35  1  0
  7 36  1  0
  8 37  1  0
  8 38  1  0
 10 39  1  0
 14 40  1  0
 14 41  1  0
 15 42  1  0
 15 43  1  0
 17 44  1  0
 17 45  1  0
 18 46  1  0
 18 47  1  0
 20 48  1  0
 20 49  1  0
 20 50  1  0
M  CHG  1   8   1
M  END
>  <UniqueID>  (25) 
25

>  <SMILES>  (25) 
CCN(CC)CC[NH2+]c1cnc2n1CCN(CCOC)C2=O

>  <Energy>  (25) 
80.45580906900696

>  <Genealogy>  (25) 
CCN(CC)CC[NH2+]c1cnc2n1CCN(CCOC)C2=O (protonated)
CCN(CC)CC[NH2+]c1cnc2n1CCN(CCOC)C2=O (3D coordinates assigned)
CCN(CC)CC[NH2+]c1cnc2n1CCN(CCOC)C2=O (nonaromatic ring conformer: 80.45580906900696 kcal/mol)

>  <smiles>  (25) 
CCN(CC)CCNc1cnc2n1CCN(CCOC)C2=O

>  <score_type>  (25) 
oracle

>  <origin>  (25) 
adg

>  <m_score__min__energy>  (25) 
-4.9400000000000004

>  <m_primary>  (25) 
energy

$$$$
25:0
     RDKit          3D

 40 42  0  0  0  0  0  0  0  0999 V2000
   59.6890   33.8610   49.8530 C   0  0  0  0  0  0  0  0  0  0  0  0
   60.9370   34.1930   49.0370 C   0  0  0  0  0  0  0  0  0  0  0  0
   60.7770   33.8340   47.6080 N   0  0  0  0  0  0  0  0  0  0  0  0
   62.0690   33.8470   46.8870 C   0  0  0  0  0  0  0  0  0  0  0  0
   62.9990   32.7800   47.4550 C   0  0  0  0  0  0  0  0  0  0  0  0
   59.6980   34.5680   46.8940 C   0  0  0  0  0  0  0  0  0  0  0  0
   59.6530   34.3630   45.3650 C   0  0  0  0  0  0  0  0  0  0  0  0
   58.7920   33.2430   44.9870 N   0  0  0  0  0  0  0  0  0  0  0  0
   58.2050   33.1170   43.7910 N   0  0  0  0  0  0  0  0  0  0  0  0
   57.5930   31.9110   43.7560 C   0  0  0  0  0  0  0  0  0  0  0  0
   57.0190   31.2120   42.6950 C   0  0  0  0  0  0  0  0  0  0  0  0
   56.8380   31.7920   41.4830 F   0  0  0  0  0  0  0  0  0  0  0  0
   56.6770   29.8510   42.9180 C   0  0  0  0  0  0  0  0  0  0  0  0
   56.9680   29.2210   44.1650 C   0  0  0  0  0  0  0  0  0  0  0  0
   57.5740   29.9690   45.1950 C   0  0  0  0  0  0  0  0  0  0  0  0
   57.7970   31.2970   44.9400 C   0  0  0  0  0  0  0  0  0  0  0  0
   58.5360   32.1190   45.7000 C   0  0  0  0  0  0  0  0  0  0  0  0
   59.1550   31.6260   46.8950 N   0  0  0  0  0  0  0  0  0  0  0  0
   58.8790   30.2480   47.2680 C   0  0  0  0  0  0  0  0  0  0  0  0
   58.1250   29.4400   46.4720 C   0  0  0  0  0  0  0  0  0  0  0  0
   59.9248   33.9237   50.9256 H   0  0  0  0  0  0  0  0  0  0  0  0
   58.8909   34.5781   49.6105 H   0  0  0  0  0  0  0  0  0  0  0  0
   59.3527   32.8421   49.6105 H   0  0  0  0  0  0  0  0  0  0  0  0
   61.1338   35.2726   49.1122 H   0  0  0  0  0  0  0  0  0  0  0  0
   61.7746   33.6070   49.4431 H   0  0  0  0  0  0  0  0  0  0  0  0
   61.8921   33.6445   45.8204 H   0  0  0  0  0  0  0  0  0  0  0  0
   62.5384   34.8344   47.0086 H   0  0  0  0  0  0  0  0  0  0  0  0
   62.9688   32.8146   48.5540 H   0  0  0  0  0  0  0  0  0  0  0  0
   62.6724   31.7878   47.1103 H   0  0  0  0  0  0  0  0  0  0  0  0
   64.0265   32.9680   47.1103 H   0  0  0  0  0  0  0  0  0  0  0  0
   58.7334   34.2395   47.3083 H   0  0  0  0  0  0  0  0  0  0  0  0
   59.9068   35.6368   47.0489 H   0  0  0  0  0  0  0  0  0  0  0  0
   59.2690   35.2804   44.8949 H   0  0  0  0  0  0  0  0  0  0  0  0
   60.6737   34.1373   45.0225 H   0  0  0  0  0  0  0  0  0  0  0  0
   58.2880   33.7980   43.0030 H   0  0  0  0  0  0  0  0  0  0  0  0
   56.1825   29.2767   42.1207 H   0  0  0  0  0  0  0  0  0  0  0  0
   56.7215   28.1604   44.3213 H   0  0  0  0  0  0  0  0  0  0  0  0
   59.7910   32.2150   47.4750 H   0  0  0  0  0  0  0  0  0  0  0  0
   59.2863   29.8511   48.2096 H   0  0  0  0  0  0  0  0  0  0  0  0
   57.9242   28.4009   46.7718 H   0  0  0  0  0  0  0  0  0  0  0  0
  1  2  1  0
  2  3  1  0
  3  4  1  0
  4  5  1  0
  3  6  1  0
  6  7  1  0
  7  8  1  0
  8  9  1  0
  9 10  2  0
 10 11  1  0
 11 12  1  0
 11 13  2  0
 13 14  1  0
 14 15  2  0
 15 16  1  0
 16 17  2  0
 17 18  1  0
 18 19  1  0
 19 20  2  0
 17  8  1  0
 16 10  1  0
 20 15  1  0
  1 21  1  0
  1 22  1  0
  1 23  1  0
  2 24  1  0
  2 25  1  0
  4 26  1  0
  4 27  1  0
  5 28  1  0
  5 29  1  0
  5 30  1  0
  6 31  1  0
  6 32  1  0
  7 33  1  0
  7 34  1  0
  9 35  1  0
 13 36  1  0
 14 37  1  0
 18 38  1  0
 19 39  1  0
 20 40  1  0
M  CHG  1   9   1
M  END
>  <UniqueID>  (26) 
26

>  <SMILES>  (26) 
CCN(CC)CCn1[nH+]c2c(F)ccc3c2c1NC=C3

>  <Energy>  (26) 
96.60290466821185

>  <Genealogy>  (26) 
CCN(CC)CCn1[nH+]c2c(F)ccc3c2c1NC=C3 (protonated)
CCN(CC)CCn1[nH+]c2c(F)ccc3c2c1NC=C3 (3D coordinates assigned)
CCN(CC)CCn1[nH+]c2c(F)ccc3c2c1NC=C3 (nonaromatic ring conformer: 96.60290466821185 kcal/mol)

>  <smiles>  (26) 
CCN(CC)CCn1nc2c(F)ccc3c2c1NC=C3

>  <score_type>  (26) 
oracle

>  <origin>  (26) 
adg

>  <m_score__min__energy>  (26) 
-4.5

>  <m_primary>  (26) 
energy

$$$$
26:0
     RDKit          3D

 52 54  0  0  0  0  0  0  0  0999 V2000
   57.3490   33.7370   44.5060 C   0  0  0  0  0  0  0  0  0  0  0  0
   58.3430   33.9180   45.6170 C   0  0  0  0  0  0  0  0  0  0  0  0
   59.6270   34.4150   45.3470 C   0  0  0  0  0  0  0  0  0  0  0  0
   60.5480   34.5960   46.3820 C   0  0  0  0  0  0  0  0  0  0  0  0
   60.2030   34.2740   47.7050 C   0  0  0  0  0  0  0  0  0  0  0  0
   61.2090   34.4360   48.8230 C   0  0  0  0  0  0  0  0  0  0  0  0
   61.8940   33.1740   49.1820 N   0  0  0  0  0  0  0  0  0  0  0  0
   62.5730   32.4680   48.0810 C   0  0  0  0  0  0  0  0  0  0  0  0
   61.8170   31.2280   47.5590 C   0  0  0  0  0  0  0  0  0  0  0  0
   61.0480   30.4480   48.5760 N   0  0  2  0  0  0  0  0  0  0  0  0
   59.5910   30.5010   48.2680 C   0  0  0  0  0  0  0  0  0  0  0  0
   59.2100   29.6820   47.0550 C   0  0  0  0  0  0  0  0  0  0  0  0
   59.9320   28.5250   46.7260 C   0  0  0  0  0  0  0  0  0  0  0  0
   59.5740   27.7670   45.6100 C   0  0  0  0  0  0  0  0  0  0  0  0
   58.5000   28.1590   44.8090 C   0  0  0  0  0  0  0  0  0  0  0  0
   57.7800   29.3290   45.1080 C   0  0  0  0  0  0  0  0  0  0  0  0
   56.5900   29.7280   44.2720 C   0  0  0  0  0  0  0  0  0  0  0  0
   55.4200   29.2180   44.8090 F   0  0  0  0  0  0  0  0  0  0  0  0
   56.5030   31.1070   44.2310 F   0  0  0  0  0  0  0  0  0  0  0  0
   56.7180   29.2450   42.9800 F   0  0  0  0  0  0  0  0  0  0  0  0
   58.1280   30.0720   46.2500 C   0  0  0  0  0  0  0  0  0  0  0  0
   61.3450   30.8340   49.9850 C   0  0  1  0  0  0  0  0  0  0  0  0
   62.6900   30.2560   50.4750 C   0  0  0  0  0  0  0  0  0  0  0  0
   61.2260   32.3550   50.2120 C   0  0  0  0  0  0  0  0  0  0  0  0
   58.9010   33.8240   47.9800 C   0  0  0  0  0  0  0  0  0  0  0  0
   57.9780   33.6420   46.9450 C   0  0  0  0  0  0  0  0  0  0  0  0
   56.7310   33.1930   47.2370 F   0  0  0  0  0  0  0  0  0  0  0  0
   56.3514   33.5554   44.9325 H   0  0  0  0  0  0  0  0  0  0  0  0
   57.3228   34.6451   43.8859 H   0  0  0  0  0  0  0  0  0  0  0  0
   57.6446   32.8779   43.8859 H   0  0  0  0  0  0  0  0  0  0  0  0
   59.9104   34.6638   44.3137 H   0  0  0  0  0  0  0  0  0  0  0  0
   61.5494   34.9931   46.1594 H   0  0  0  0  0  0  0  0  0  0  0  0
   61.9675   35.1672   48.5068 H   0  0  0  0  0  0  0  0  0  0  0  0
   60.6558   34.7709   49.7129 H   0  0  0  0  0  0  0  0  0  0  0  0
   62.6977   33.1723   47.2453 H   0  0  0  0  0  0  0  0  0  0  0  0
   63.5312   32.1065   48.4825 H   0  0  0  0  0  0  0  0  0  0  0  0
   61.1080   31.5666   46.7892 H   0  0  0  0  0  0  0  0  0  0  0  0
   62.5943   30.5434   47.1887 H   0  0  0  0  0  0  0  0  0  0  0  0
   61.3280   29.4450   48.4610 H   0  0  0  0  0  0  0  0  0  0  0  0
   59.0355   30.1185   49.1370 H   0  0  0  0  0  0  0  0  0  0  0  0
   59.3407   31.5492   48.0474 H   0  0  0  0  0  0  0  0  0  0  0  0
   60.7831   28.2141   47.3497 H   0  0  0  0  0  0  0  0  0  0  0  0
   60.1402   26.8574   45.3608 H   0  0  0  0  0  0  0  0  0  0  0  0
   58.2154   27.5490   43.9390 H   0  0  0  0  0  0  0  0  0  0  0  0
   57.5468   30.9675   46.5152 H   0  0  0  0  0  0  0  0  0  0  0  0
   60.5680   30.3732   50.6127 H   0  0  0  0  0  0  0  0  0  0  0  0
   62.7070   30.2487   51.5748 H   0  0  0  0  0  0  0  0  0  0  0  0
   62.8061   29.2286   50.0996 H   0  0  0  0  0  0  0  0  0  0  0  0
   63.5153   30.8789   50.0996 H   0  0  0  0  0  0  0  0  0  0  0  0
   60.1584   32.6195   50.2243 H   0  0  0  0  0  0  0  0  0  0  0  0
   61.7299   32.5729   51.1652 H   0  0  0  0  0  0  0  0  0  0  0  0
   58.6048   33.6130   49.0182 H   0  0  0  0  0  0  0  0  0  0  0  0
  1  2  1  0
  2  3  2  0
  3  4  1  0
  4  5  2  0
  5  6  1  0
  6  7  1  0
  7  8  1  0
  8  9  1  0
  9 10  1  0
 10 11  1  0
 11 12  1  0
 12 13  2  0
 13 14  1  0
 14 15  2  0
 15 16  1  0
 16 17  1  0
 17 18  1  0
 17 19  1  0
 17 20  1  0
 16 21  2  0
 10 22  1  0
 22 23  1  0
 22 24  1  0
  5 25  1  0
 25 26  2  0
 26 27  1  0
 26  2  1  0
 24  7  1  0
 21 12  1  0
  1 28  1  0
  1 29  1  0
  1 30  1  0
  3 31  1  0
  4 32  1  0
  6 33  1  0
  6 34  1  0
  8 35  1  0
  8 36  1  0
  9 37  1  0
  9 38  1  0
 10 39  1  1
 11 40  1  0
 11 41  1  0
 13 42  1  0
 14 43  1  0
 15 44  1  0
 21 45  1  0
 22 46  1  1
 23 47  1  0
 23 48  1  0
 23 49  1  0
 24 50  1  0
 24 51  1  0
 25 52  1  0
M  CHG  1  10   1
M  END
>  <UniqueID>  (27) 
27

>  <SMILES>  (27) 
Cc1ccc(CN2CC[N@H+](Cc3cccc(C(F)(F)F)c3)[C@@H](C)C2)cc1F

>  <Energy>  (27) 
76.09933844021022

>  <Genealogy>  (27) 
Cc1ccc(CN2CC[NH+](Cc3cccc(C(F)(F)F)c3)C(C)C2)cc1F (protonated)
Cc1ccc(CN2CC[N@H+](Cc3cccc(C(F)(F)F)c3)[C@@H](C)C2)cc1F (chirality)
Cc1ccc(CN2CC[N@H+](Cc3cccc(C(F)(F)F)c3)[C@@H](C)C2)cc1F (3D coordinates assigned)
Cc1ccc(CN2CC[N@H+](Cc3cccc(C(F)(F)F)c3)[C@@H](C)C2)cc1F (nonaromatic ring conformer: 76.09933844021022 kcal/mol)

>  <smiles>  (27) 
Cc1ccc(CN2CCN(Cc3cccc(C(F)(F)F)c3)C(C)C2)cc1F

>  <score_type>  (27) 
oracle

>  <origin>  (27) 
adg

>  <m_score__min__energy>  (27) 
-6.1200000000000001

>  <m_primary>  (27) 
energy

$$$$
27:0
     RDKit          3D

 47 50  0  0  0  0  0  0  0  0999 V2000
   59.3930   32.0730   50.4560 C   0  0  0  0  0  0  0  0  0  0  0  0
   59.1550   32.1170   48.9810 C   0  0  0  0  0  0  0  0  0  0  0  0
   59.2180   33.3030   48.3220 N   0  0  0  0  0  0  0  0  0  0  0  0
   58.9960   33.3790   46.9850 C   0  0  0  0  0  0  0  0  0  0  0  0
   59.0640   34.6160   46.3330 C   0  0  0  0  0  0  0  0  0  0  0  0
   58.8260   34.6970   44.9590 C   0  0  0  0  0  0  0  0  0  0  0  0
   58.5150   33.5440   44.2310 C   0  0  0  0  0  0  0  0  0  0  0  0
   58.4450   32.3030   44.8730 C   0  0  0  0  0  0  0  0  0  0  0  0
   58.6920   32.2100   46.2560 C   0  0  0  0  0  0  0  0  0  0  0  0
   58.6370   30.9900   46.9560 C   0  0  0  0  0  0  0  0  0  0  0  0
   58.3530   29.7580   46.2790 N   0  0  0  0  0  0  0  0  0  0  0  0
   57.1370   29.6540   45.4680 C   0  0  0  0  0  0  0  0  0  0  0  0
   57.0220   28.2730   44.8190 C   0  0  0  0  0  0  0  0  0  0  0  0
   57.2940   27.2280   45.8150 N   0  0  0  0  0  0  0  0  0  0  0  0
   56.3380   26.1750   46.0330 C   0  0  0  0  0  0  0  0  0  0  0  0
   55.1060   26.4340   46.0090 O   0  0  0  0  0  0  0  0  0  0  0  0
   56.7560   24.8380   46.3370 N   0  0  0  0  0  0  0  0  0  0  0  0
   57.0110   23.8040   45.3790 C   0  0  0  0  0  0  0  0  0  0  0  0
   58.1550   22.9860   45.4600 C   0  0  0  0  0  0  0  0  0  0  0  0
   58.3810   21.9960   44.4990 C   0  0  0  0  0  0  0  0  0  0  0  0
   57.4800   21.8250   43.4440 C   0  0  0  0  0  0  0  0  0  0  0  0
   56.3550   22.6490   43.3460 C   0  0  0  0  0  0  0  0  0  0  0  0
   56.1260   23.6390   44.3060 C   0  0  0  0  0  0  0  0  0  0  0  0
   58.4640   27.3400   46.7030 C   0  0  0  0  0  0  0  0  0  0  0  0
   59.2640   28.6170   46.4250 C   0  0  0  0  0  0  0  0  0  0  0  0
   58.8620   30.9740   48.2990 N   0  0  0  0  0  0  0  0  0  0  0  0
   58.4450   32.2482   50.9858 H   0  0  0  0  0  0  0  0  0  0  0  0
   59.7913   31.0860   50.7339 H   0  0  0  0  0  0  0  0  0  0  0  0
   60.1178   32.8524   50.7339 H   0  0  0  0  0  0  0  0  0  0  0  0
   59.3051   35.5252   46.9034 H   0  0  0  0  0  0  0  0  0  0  0  0
   58.8833   35.6697   44.4485 H   0  0  0  0  0  0  0  0  0  0  0  0
   58.3248   33.6132   43.1498 H   0  0  0  0  0  0  0  0  0  0  0  0
   58.1968   31.3993   44.2970 H   0  0  0  0  0  0  0  0  0  0  0  0
   56.2609   29.8223   46.1115 H   0  0  0  0  0  0  0  0  0  0  0  0
   57.1836   30.4109   44.6712 H   0  0  0  0  0  0  0  0  0  0  0  0
   56.0054   28.1410   44.4202 H   0  0  0  0  0  0  0  0  0  0  0  0
   57.7549   28.1945   44.0025 H   0  0  0  0  0  0  0  0  0  0  0  0
   58.8726   23.1266   46.2818 H   0  0  0  0  0  0  0  0  0  0  0  0
   59.2689   21.3509   44.5732 H   0  0  0  0  0  0  0  0  0  0  0  0
   57.6561   21.0424   42.6913 H   0  0  0  0  0  0  0  0  0  0  0  0
   55.6492   22.5182   42.5125 H   0  0  0  0  0  0  0  0  0  0  0  0
   55.2454   24.2924   44.2182 H   0  0  0  0  0  0  0  0  0  0  0  0
   58.1191   27.3553   47.7474 H   0  0  0  0  0  0  0  0  0  0  0  0
   59.1198   26.4765   46.5180 H   0  0  0  0  0  0  0  0  0  0  0  0
   59.9523   28.8052   47.2622 H   0  0  0  0  0  0  0  0  0  0  0  0
   59.8354   28.4896   45.4937 H   0  0  0  0  0  0  0  0  0  0  0  0
   58.8170   30.0650   48.8120 H   0  0  0  0  0  0  0  0  0  0  0  0
  1  2  1  0
  2  3  2  0
  3  4  1  0
  4  5  2  0
  5  6  1  0
  6  7  2  0
  7  8  1  0
  8  9  2  0
  9 10  1  0
 10 11  1  0
 11 12  1  0
 12 13  1  0
 13 14  1  0
 14 15  1  0
 15 16  2  0
 15 17  1  0
 17 18  1  0
 18 19  2  0
 19 20  1  0
 20 21  2  0
 21 22  1  0
 22 23  2  0
 14 24  1  0
 24 25  1  0
 10 26  2  0
 26  2  1  0
  9  4  1  0
 25 11  1  0
 23 18  1  0
  1 27  1  0
  1 28  1  0
  1 29  1  0
  5 30  1  0
  6 31  1  0
  7 32  1  0
  8 33  1  0
 12 34  1  0
 12 35  1  0
 13 36  1  0
 13 37  1  0
 19 38  1  0
 20 39  1  0
 21 40  1  0
 22 41  1  0
 23 42  1  0
 24 43  1  0
 24 44  1  0
 25 45  1  0
 25 46  1  0
 26 47  1  0
M  CHG  2  17  -1  26   1
M  END
>  <UniqueID>  (28) 
28

>  <SMILES>  (28) 
Cc1nc2ccccc2c(N2CCN(C(=O)[N-]c3ccccc3)CC2)[nH+]1

>  <Energy>  (28) 
64.44668261209716

>  <Genealogy>  (28) 
Cc1nc2ccccc2c(N2CCN(C(=O)[N-]c3ccccc3)CC2)[nH+]1 (protonated)
Cc1nc2ccccc2c(N2CCN(C(=O)[N-]c3ccccc3)CC2)[nH+]1 (3D coordinates assigned)
Cc1nc2ccccc2c(N2CCN(C(=O)[N-]c3ccccc3)CC2)[nH+]1 (nonaromatic ring conformer: 64.44668261209716 kcal/mol)

>  <smiles>  (28) 
Cc1nc(N2CCN(C(=O)Nc3ccccc3)CC2)c2ccccc2n1

>  <score_type>  (28) 
oracle

>  <origin>  (28) 
adg

>  <m_score__min__energy>  (28) 
-8.7400000000000002

>  <m_primary>  (28) 
energy

$$$$
28:0
     RDKit          3D

 46 48  0  0  0  0  0  0  0  0999 V2000
   57.8390   32.3180   42.5560 C   0  0  0  0  0  0  0  0  0  0  0  0
   57.6580   32.1090   43.9960 N   0  0  0  0  0  0  0  0  0  0  0  0
   57.0030   30.9040   44.4480 C   0  0  0  0  0  0  0  0  0  0  0  0
   55.7430   30.8400   44.4260 O   0  0  0  0  0  0  0  0  0  0  0  0
   57.7720   29.7350   44.9430 C   0  0  0  0  0  0  0  0  0  0  0  0
   57.7550   28.5320   44.2270 C   0  0  0  0  0  0  0  0  0  0  0  0
   58.4420   27.4190   44.7050 C   0  0  0  0  0  0  0  0  0  0  0  0
   59.1700   27.4900   45.8970 C   0  0  0  0  0  0  0  0  0  0  0  0
   59.9470   26.0140   46.4600 Cl  0  0  0  0  0  0  0  0  0  0  0  0
   59.2400   28.7060   46.6150 C   0  0  0  0  0  0  0  0  0  0  0  0
   60.1630   28.7860   48.1420 S   0  0  0  0  0  0  0  0  0  0  0  0
   61.1420   27.6450   48.1570 O   0  0  0  0  0  0  0  0  0  0  0  0
   59.1940   28.5990   49.2760 O   0  0  0  0  0  0  0  0  0  0  0  0
   61.0770   30.2520   48.4310 N   0  0  0  0  0  0  0  0  0  0  0  0
   61.5130   30.8690   47.1630 C   0  0  0  0  0  0  0  0  0  0  0  0
   62.2990   32.1780   47.4200 C   0  0  0  0  0  0  0  0  0  0  0  0
   62.0940   32.7220   48.7140 O   0  0  0  0  0  0  0  0  0  0  0  0
   60.7310   32.6410   49.0640 C   0  0  0  0  0  0  0  0  0  0  0  0
   60.3550   31.1790   49.3360 C   0  0  0  0  0  0  0  0  0  0  0  0
   58.5270   29.8180   46.1260 C   0  0  0  0  0  0  0  0  0  0  0  0
   58.1850   33.0740   44.9390 C   0  0  0  0  0  0  0  0  0  0  0  0
   57.8050   33.0300   46.2940 C   0  0  0  0  0  0  0  0  0  0  0  0
   58.3390   33.9400   47.2110 C   0  0  0  0  0  0  0  0  0  0  0  0
   59.2490   34.9110   46.7860 C   0  0  0  0  0  0  0  0  0  0  0  0
   59.6210   34.9780   45.4410 C   0  0  0  0  0  0  0  0  0  0  0  0
   59.0900   34.0690   44.5210 C   0  0  0  0  0  0  0  0  0  0  0  0
   58.5510   33.1402   42.3915 H   0  0  0  0  0  0  0  0  0  0  0  0
   58.2298   31.3973   42.0981 H   0  0  0  0  0  0  0  0  0  0  0  0
   56.8720   32.5733   42.0981 H   0  0  0  0  0  0  0  0  0  0  0  0
   57.1960   28.4656   43.2819 H   0  0  0  0  0  0  0  0  0  0  0  0
   58.4118   26.4757   44.1400 H   0  0  0  0  0  0  0  0  0  0  0  0
   61.9480   29.9480   48.9290 H   0  0  0  0  0  0  0  0  0  0  0  0
   62.1600   30.1618   46.6234 H   0  0  0  0  0  0  0  0  0  0  0  0
   60.6203   31.1094   46.5669 H   0  0  0  0  0  0  0  0  0  0  0  0
   63.3719   31.9685   47.2974 H   0  0  0  0  0  0  0  0  0  0  0  0
   61.9309   32.9210   46.6971 H   0  0  0  0  0  0  0  0  0  0  0  0
   60.5492   33.2400   49.9685 H   0  0  0  0  0  0  0  0  0  0  0  0
   60.1180   33.0277   48.2365 H   0  0  0  0  0  0  0  0  0  0  0  0
   60.6104   30.9325   50.3772 H   0  0  0  0  0  0  0  0  0  0  0  0
   59.2758   31.0625   49.1580 H   0  0  0  0  0  0  0  0  0  0  0  0
   58.5615   30.7680   46.6795 H   0  0  0  0  0  0  0  0  0  0  0  0
   57.0822   32.2736   46.6337 H   0  0  0  0  0  0  0  0  0  0  0  0
   58.0421   33.8914   48.2691 H   0  0  0  0  0  0  0  0  0  0  0  0
   59.6725   35.6226   47.5101 H   0  0  0  0  0  0  0  0  0  0  0  0
   60.3325   35.7469   45.1055 H   0  0  0  0  0  0  0  0  0  0  0  0
   59.3814   34.1314   43.4621 H   0  0  0  0  0  0  0  0  0  0  0  0
  1  2  1  0
  2  3  1  0
  3  4  2  0
  3  5  1  0
  5  6  2  0
  6  7  1  0
  7  8  2  0
  8  9  1  0
  8 10  1  0
 10 11  1  0
 11 12  2  0
 11 13  2  0
 11 14  1  0
 14 15  1  0
 15 16  1  0
 16 17  1  0
 17 18  1  0
 18 19  1  0
 10 20  2  0
  2 21  1  0
 21 22  2  0
 22 23  1  0
 23 24  2  0
 24 25  1  0
 25 26  2  0
 20  5  1  0
 26 21  1  0
 19 14  1  0
  1 27  1  0
  1 28  1  0
  1 29  1  0
  6 30  1  0
  7 31  1  0
 14 32  1  0
 15 33  1  0
 15 34  1  0
 16 35  1  0
 16 36  1  0
 18 37  1  0
 18 38  1  0
 19 39  1  0
 19 40  1  0
 20 41  1  0
 22 42  1  0
 23 43  1  0
 24 44  1  0
 25 45  1  0
 26 46  1  0
M  CHG  1  14   1
M  END
>  <UniqueID>  (29) 
29

>  <SMILES>  (29) 
CN(C(=O)c1ccc(Cl)c(S(=O)(=O)[NH+]2CCOCC2)c1)c1ccccc1

>  <Energy>  (29) 
68.10946446929614

>  <Genealogy>  (29) 
CN(C(=O)c1ccc(Cl)c(S(=O)(=O)[NH+]2CCOCC2)c1)c1ccccc1 (protonated)
CN(C(=O)c1ccc(Cl)c(S(=O)(=O)[NH+]2CCOCC2)c1)c1ccccc1 (3D coordinates assigned)
CN(C(=O)c1ccc(Cl)c(S(=O)(=O)[NH+]2CCOCC2)c1)c1ccccc1 (nonaromatic ring conformer: 68.10946446929614 kcal/mol)

>  <smiles>  (29) 
CN(C(=O)c1ccc(Cl)c(S(=O)(=O)N2CCOCC2)c1)c1ccccc1

>  <score_type>  (29) 
oracle

>  <origin>  (29) 
adg

>  <m_score__min__energy>  (29) 
-8.0299999999999994

>  <m_primary>  (29) 
energy

$$$$
29:0
     RDKit          3D

100104  0  0  0  0  0  0  0  0999 V2000
   57.0170   33.0030   45.3410 C   0  0  0  0  0  0  0  0  0  0  0  0
   58.4070   32.5150   45.8030 C   0  0  0  0  0  0  0  0  0  0  0  0
   58.7770   31.2660   44.9730 C   0  0  0  0  0  0  0  0  0  0  0  0
   59.4690   33.6280   45.5510 C   0  0  0  0  0  0  0  0  0  0  0  0
   59.6330   34.5420   46.7690 C   0  0  0  0  0  0  0  0  0  0  0  0
   60.1920   33.7740   48.0180 C   0  0  1  0  0  0  0  0  0  0  0  0
   61.7190   33.8520   47.9900 C   0  0  0  0  0  0  0  0  0  0  0  0
   62.3320   34.2020   46.9430 O   0  0  0  0  0  0  0  0  0  0  0  0
   62.4470   33.4380   49.1110 O   0  0  0  0  0  0  0  0  0  0  0  0
   63.4660   32.4510   49.0400 C   0  0  0  0  0  0  0  0  0  0  0  0
   64.8750   33.0660   49.1950 C   0  0  0  0  0  0  0  0  0  0  0  0
   65.5260   32.9310   50.5420 N   0  0  0  0  0  0  0  0  0  0  0  0
   66.9090   33.4660   50.5550 C   0  0  0  0  0  0  0  0  0  0  0  0
   64.7200   33.6070   51.5890 C   0  0  0  0  0  0  0  0  0  0  0  0
   65.5890   31.4870   50.8810 C   0  0  0  0  0  0  0  0  0  0  0  0
   59.6740   34.4950   49.2840 C   0  0  0  0  0  0  0  0  0  0  0  0
   60.1430   33.7980   50.5600 C   0  0  0  0  0  0  0  0  0  0  0  0
   59.5590   32.3490   50.7300 C   0  0  1  0  0  0  0  0  0  0  0  0
   58.0430   32.5230   51.0780 C   0  0  0  0  0  0  0  0  0  0  0  0
   59.6740   31.5890   49.3880 C   0  0  0  0  0  0  0  0  0  0  0  0
   59.5980   30.2460   49.3980 C   0  0  0  0  0  0  0  0  0  0  0  0
   59.1110   29.5400   50.6110 C   0  0  0  0  0  0  0  0  0  0  0  0
   59.8980   29.9460   51.9000 C   0  0  1  0  0  0  0  0  0  0  0  0
   60.9700   28.8540   52.4710 C   0  0  1  0  0  0  0  0  0  0  0  0
   60.7020   28.7210   54.0040 C   0  0  0  0  0  0  0  0  0  0  0  0
   60.7830   27.4420   51.8180 C   0  0  0  0  0  0  0  0  0  0  0  0
   61.9030   26.3910   52.0080 C   0  0  0  0  0  0  0  0  0  0  0  0
   63.0760   26.7820   52.9130 C   0  0  1  0  0  0  0  0  0  0  0  0
   64.1000   25.8330   52.7140 O   0  0  0  0  0  0  0  0  0  0  0  0
   63.5970   28.2570   52.6900 C   0  0  1  0  0  0  0  0  0  0  0  0
   64.1790   28.7440   54.0520 C   0  0  0  0  0  0  0  0  0  0  0  0
   64.7500   28.2620   51.6250 C   0  0  0  0  0  0  0  0  0  0  0  0
   65.9330   27.6690   52.1030 O   0  0  0  0  0  0  0  0  0  0  0  0
   62.4540   29.2440   52.1550 C   0  0  2  0  0  0  0  0  0  0  0  0
   62.7320   30.7120   52.4920 C   0  0  0  0  0  0  0  0  0  0  0  0
   61.8700   31.6360   51.6550 C   0  0  0  0  0  0  0  0  0  0  0  0
   60.3320   31.5060   51.8860 C   0  0  1  0  0  0  0  0  0  0  0  0
   60.0130   32.1480   53.2740 C   0  0  0  0  0  0  0  0  0  0  0  0
   59.7060   32.2740   48.0140 C   0  0  1  0  0  0  0  0  0  0  0  0
   58.3310   32.1380   47.3170 C   0  0  0  0  0  0  0  0  0  0  0  0
   56.3941   33.2217   46.2208 H   0  0  0  0  0  0  0  0  0  0  0  0
   57.1308   33.9149   44.7365 H   0  0  0  0  0  0  0  0  0  0  0  0
   56.5358   32.2201   44.7365 H   0  0  0  0  0  0  0  0  0  0  0  0
   59.0231   30.4352   45.6506 H   0  0  0  0  0  0  0  0  0  0  0  0
   57.9245   30.9816   44.3386 H   0  0  0  0  0  0  0  0  0  0  0  0
   59.6468   31.4918   44.3386 H   0  0  0  0  0  0  0  0  0  0  0  0
   60.4363   33.1537   45.3286 H   0  0  0  0  0  0  0  0  0  0  0  0
   59.1270   34.2425   44.7052 H   0  0  0  0  0  0  0  0  0  0  0  0
   60.3298   35.3533   46.5114 H   0  0  0  0  0  0  0  0  0  0  0  0
   58.6396   34.9345   47.0318 H   0  0  0  0  0  0  0  0  0  0  0  0
   63.3075   31.7176   49.8444 H   0  0  0  0  0  0  0  0  0  0  0  0
   63.4094   31.9729   48.0510 H   0  0  0  0  0  0  0  0  0  0  0  0
   65.5325   32.5829   48.4572 H   0  0  0  0  0  0  0  0  0  0  0  0
   64.7360   34.1473   49.0484 H   0  0  0  0  0  0  0  0  0  0  0  0
   67.2425   33.5950   51.5953 H   0  0  0  0  0  0  0  0  0  0  0  0
   67.5792   32.7623   50.0397 H   0  0  0  0  0  0  0  0  0  0  0  0
   66.9312   34.4376   50.0397 H   0  0  0  0  0  0  0  0  0  0  0  0
   65.0814   33.3039   52.5827 H   0  0  0  0  0  0  0  0  0  0  0  0
   64.8178   34.6972   51.4801 H   0  0  0  0  0  0  0  0  0  0  0  0
   63.6634   33.3209   51.4801 H   0  0  0  0  0  0  0  0  0  0  0  0
   65.5942   31.3670   51.9744 H   0  0  0  0  0  0  0  0  0  0  0  0
   64.7124   30.9729   50.4599 H   0  0  0  0  0  0  0  0  0  0  0  0
   66.5070   31.0512   50.4599 H   0  0  0  0  0  0  0  0  0  0  0  0
   60.0484   35.5293   49.2841 H   0  0  0  0  0  0  0  0  0  0  0  0
   58.5743   34.4751   49.2655 H   0  0  0  0  0  0  0  0  0  0  0  0
   61.2407   33.7312   50.5375 H   0  0  0  0  0  0  0  0  0  0  0  0
   59.7803   34.3961   51.4090 H   0  0  0  0  0  0  0  0  0  0  0  0
   57.9169   32.5375   52.1707 H   0  0  0  0  0  0  0  0  0  0  0  0
   57.6757   33.4692   50.6540 H   0  0  0  0  0  0  0  0  0  0  0  0
   57.4709   31.6846   50.6540 H   0  0  0  0  0  0  0  0  0  0  0  0
   59.8962   29.6711   48.5089 H   0  0  0  0  0  0  0  0  0  0  0  0
   58.0479   29.7820   50.7565 H   0  0  0  0  0  0  0  0  0  0  0  0
   59.2639   28.4622   50.4530 H   0  0  0  0  0  0  0  0  0  0  0  0
   59.1764   29.8857   52.7281 H   0  0  0  0  0  0  0  0  0  0  0  0
   61.5509   29.1423   54.5625 H   0  0  0  0  0  0  0  0  0  0  0  0
   59.7839   29.2681   54.2646 H   0  0  0  0  0  0  0  0  0  0  0  0
   60.5824   27.6590   54.2646 H   0  0  0  0  0  0  0  0  0  0  0  0
   59.8591   27.0117   52.2319 H   0  0  0  0  0  0  0  0  0  0  0  0
   60.7793   27.6418   50.7363 H   0  0  0  0  0  0  0  0  0  0  0  0
   61.4419   25.4876   52.4338 H   0  0  0  0  0  0  0  0  0  0  0  0
   62.3440   26.2589   51.0090 H   0  0  0  0  0  0  0  0  0  0  0  0
   62.7289   26.7756   53.9568 H   0  0  0  0  0  0  0  0  0  0  0  0
   64.8990   26.1410   53.2170 H   0  0  0  0  0  0  0  0  0  0  0  0
   63.6211   28.2771   54.8771 H   0  0  0  0  0  0  0  0  0  0  0  0
   65.2396   28.4604   54.1199 H   0  0  0  0  0  0  0  0  0  0  0  0
   64.0869   29.8380   54.1199 H   0  0  0  0  0  0  0  0  0  0  0  0
   64.4118   27.7070   50.7375 H   0  0  0  0  0  0  0  0  0  0  0  0
   64.9773   29.3114   51.3862 H   0  0  0  0  0  0  0  0  0  0  0  0
   65.8760   26.7000   51.9020 H   0  0  0  0  0  0  0  0  0  0  0  0
   62.5294   29.1093   51.0659 H   0  0  0  0  0  0  0  0  0  0  0  0
   62.5144   30.8838   53.5565 H   0  0  0  0  0  0  0  0  0  0  0  0
   63.7886   30.9267   52.2741 H   0  0  0  0  0  0  0  0  0  0  0  0
   62.1614   32.6718   51.8833 H   0  0  0  0  0  0  0  0  0  0  0  0
   62.0452   31.3490   50.6077 H   0  0  0  0  0  0  0  0  0  0  0  0
   60.3482   31.4735   54.0757 H   0  0  0  0  0  0  0  0  0  0  0  0
   60.5374   33.1109   53.3618 H   0  0  0  0  0  0  0  0  0  0  0  0
   58.9288   32.3116   53.3618 H   0  0  0  0  0  0  0  0  0  0  0  0
   60.4771   31.7386   47.4407 H   0  0  0  0  0  0  0  0  0  0  0  0
   57.9875   31.0970   47.4077 H   0  0  0  0  0  0  0  0  0  0  0  0
   57.6301   32.8302   47.8065 H   0  0  0  0  0  0  0  0  0  0  0  0
  1  2  1  0
  2  3  1  0
  2  4  1  0
  4  5  1  0
  5  6  1  0
  6  7  1  6
  7  8  2  0
  7  9  1  0
  9 10  1  0
 10 11  1  0
 11 12  1  0
 12 13  1  0
 12 14  1  0
 12 15  1  0
  6 16  1  0
 16 17  1  0
 17 18  1  0
 18 19  1  1
 18 20  1  0
 20 21  2  0
 21 22  1  0
 22 23  1  0
 23 24  1  0
 24 25  1  1
 24 26  1  0
 26 27  1  0
 27 28  1  0
 28 29  1  0
 28 30  1  0
 30 31  1  1
 30 32  1  0
 32 33  1  0
 30 34  1  0
 34 35  1  0
 35 36  1  0
 36 37  1  0
 37 38  1  1
 20 39  1  0
 39 40  1  0
 40  2  1  0
 39  6  1  0
 37 18  1  0
 37 23  1  0
 34 24  1  0
  1 41  1  0
  1 42  1  0
  1 43  1  0
  3 44  1  0
  3 45  1  0
  3 46  1  0
  4 47  1  0
  4 48  1  0
  5 49  1  0
  5 50  1  0
 10 51  1  0
 10 52  1  0
 11 53  1  0
 11 54  1  0
 13 55  1  0
 13 56  1  0
 13 57  1  0
 14 58  1  0
 14 59  1  0
 14 60  1  0
 15 61  1  0
 15 62  1  0
 15 63  1  0
 16 64  1  0
 16 65  1  0
 17 66  1  0
 17 67  1  0
 19 68  1  0
 19 69  1  0
 19 70  1  0
 21 71  1  0
 22 72  1  0
 22 73  1  0
 23 74  1  1
 25 75  1  0
 25 76  1  0
 25 77  1  0
 26 78  1  0
 26 79  1  0
 27 80  1  0
 27 81  1  0
 28 82  1  1
 29 83  1  0
 31 84  1  0
 31 85  1  0
 31 86  1  0
 32 87  1  0
 32 88  1  0
 33 89  1  0
 34 90  1  6
 35 91  1  0
 35 92  1  0
 36 93  1  0
 36 94  1  0
 38 95  1  0
 38 96  1  0
 38 97  1  0
 39 98  1  6
 40 99  1  0
 40100  1  0
M  CHG  1  12   1
M  END
>  <UniqueID>  (30) 
30

>  <SMILES>  (30) 
CC1(C)CC[C@@]2(C(=O)OCC[N+](C)(C)C)CC[C@@]3(C)C(=CCC4C5(C)CCC(O)C(C)(CO)C5CCC43C)C2C1

>  <Energy>  (30) 
184.45984747062067

>  <Genealogy>  (30) 
CC1(C)CC[C@@]2(C(=O)OCC[N+](C)(C)C)CC[C@@]3(C)C(=CCC4C5(C)CCC(O)C(C)(CO)C5CCC43C)C2C1 (chirality)
CC1(C)CC[C@@]2(C(=O)OCC[N+](C)(C)C)CC[C@@]3(C)C(=CCC4C5(C)CCC(O)C(C)(CO)C5CCC43C)C2C1 (3D coordinates assigned)
CC1(C)CC[C@@]2(C(=O)OCC[N+](C)(C)C)CC[C@@]3(C)C(=CCC4C5(C)CCC(O)C(C)(CO)C5CCC43C)C2C1 (nonaromatic ring conformer: 184.45984747062067 kcal/mol)

>  <smiles>  (30) 
CC1(C)CCC2(C(=O)OCC[N+](C)(C)C)CCC3(C)C(=CCC4C5(C)CCC(O)C(C)(CO)C5CCC43C)C2C1

>  <score_type>  (30) 
oracle

>  <origin>  (30) 
adg

>  <m_score__min__energy>  (30) 
-7.46

>  <m_primary>  (30) 
energy

$$$$
30:0
     RDKit          3D

 40 41  0  0  0  0  0  0  0  0999 V2000
   56.2920   30.4020   42.9680 C   0  0  0  0  0  0  0  0  0  0  0  0
   56.4630   29.3880   44.0550 C   0  0  0  0  0  0  0  0  0  0  0  0
   55.5290   29.2060   44.8800 O   0  0  0  0  0  0  0  0  0  0  0  0
   57.7360   28.6550   44.2070 C   0  0  0  0  0  0  0  0  0  0  0  0
   58.0530   27.7830   43.3530 O   0  0  0  0  0  0  0  0  0  0  0  0
   58.6400   28.9510   45.2860 N   0  0  0  0  0  0  0  0  0  0  0  0
   60.0850   28.9390   45.0180 C   0  0  0  0  0  0  0  0  0  0  0  0
   60.8680   29.5350   46.1980 C   0  0  0  0  0  0  0  0  0  0  0  0
   60.0710   30.5980   46.8450 N   0  0  0  0  0  0  0  0  0  0  0  0
   60.8760   31.5170   47.6960 C   0  0  0  0  0  0  0  0  0  0  0  0
   60.3170   32.9420   47.9240 C   0  0  0  0  0  0  0  0  0  0  0  0
   59.3190   33.3900   46.8880 C   0  0  0  0  0  0  0  0  0  0  0  0
   57.9600   33.0530   47.0180 C   0  0  0  0  0  0  0  0  0  0  0  0
   57.0360   33.4660   46.0540 C   0  0  0  0  0  0  0  0  0  0  0  0
   57.4580   34.2260   44.9590 C   0  0  0  0  0  0  0  0  0  0  0  0
   58.8040   34.5790   44.8300 C   0  0  0  0  0  0  0  0  0  0  0  0
   59.7320   34.1670   45.7910 C   0  0  0  0  0  0  0  0  0  0  0  0
   58.8870   30.0280   47.5310 C   0  0  0  0  0  0  0  0  0  0  0  0
   58.1600   28.9620   46.6760 C   0  0  0  0  0  0  0  0  0  0  0  0
   56.1248   31.3934   43.4144 H   0  0  0  0  0  0  0  0  0  0  0  0
   57.1984   30.4284   42.3453 H   0  0  0  0  0  0  0  0  0  0  0  0
   55.4271   30.1297   42.3453 H   0  0  0  0  0  0  0  0  0  0  0  0
   60.4124   27.9014   44.8563 H   0  0  0  0  0  0  0  0  0  0  0  0
   60.2809   29.5484   44.1234 H   0  0  0  0  0  0  0  0  0  0  0  0
   61.0825   28.7430   46.9306 H   0  0  0  0  0  0  0  0  0  0  0  0
   61.8106   29.9640   45.8273 H   0  0  0  0  0  0  0  0  0  0  0  0
   59.7040   31.2110   46.0770 H   0  0  0  0  0  0  0  0  0  0  0  0
   60.9861   31.0430   48.6825 H   0  0  0  0  0  0  0  0  0  0  0  0
   61.8149   31.6661   47.1426 H   0  0  0  0  0  0  0  0  0  0  0  0
   59.8262   32.9661   48.9081 H   0  0  0  0  0  0  0  0  0  0  0  0
   61.1723   33.6304   47.8557 H   0  0  0  0  0  0  0  0  0  0  0  0
   57.6226   32.4618   47.8821 H   0  0  0  0  0  0  0  0  0  0  0  0
   55.9755   33.1927   46.1570 H   0  0  0  0  0  0  0  0  0  0  0  0
   56.7303   34.5462   44.1988 H   0  0  0  0  0  0  0  0  0  0  0  0
   59.1338   35.1819   43.9711 H   0  0  0  0  0  0  0  0  0  0  0  0
   60.7896   34.4518   45.6887 H   0  0  0  0  0  0  0  0  0  0  0  0
   59.2154   29.5614   48.4715 H   0  0  0  0  0  0  0  0  0  0  0  0
   58.1787   30.8500   47.7118 H   0  0  0  0  0  0  0  0  0  0  0  0
   58.3346   27.9709   47.1200 H   0  0  0  0  0  0  0  0  0  0  0  0
   57.0881   29.2088   46.6638 H   0  0  0  0  0  0  0  0  0  0  0  0
  1  2  1  0
  2  3  2  0
  2  4  1  0
  4  5  2  0
  4  6  1  0
  6  7  1  0
  7  8  1  0
  8  9  1  0
  9 10  1  0
 10 11  1  0
 11 12  1  0
 12 13  2  0
 13 14  1  0
 14 15  2  0
 15 16  1  0
 16 17  2  0
  9 18  1  0
 18 19  1  0
 19  6  1  0
 17 12  1  0
  1 20  1  0
  1 21  1  0
  1 22  1  0
  7 23  1  0
  7 24  1  0
  8 25  1  0
  8 26  1  0
  9 27  1  0
 10 28  1  0
 10 29  1  0
 11 30  1  0
 11 31  1  0
 13 32  1  0
 14 33  1  0
 15 34  1  0
 16 35  1  0
 17 36  1  0
 18 37  1  0
 18 38  1  0
 19 39  1  0
 19 40  1  0
M  CHG  1   9   1
M  END
>  <UniqueID>  (31) 
31

>  <SMILES>  (31) 
CC(=O)C(=O)N1CC[NH+](CCc2ccccc2)CC1

>  <Energy>  (31) 
51.395313388272584

>  <Genealogy>  (31) 
CC(=O)C(=O)N1CC[NH+](CCc2ccccc2)CC1 (protonated)
CC(=O)C(=O)N1CC[NH+](CCc2ccccc2)CC1 (3D coordinates assigned)
CC(=O)C(=O)N1CC[NH+](CCc2ccccc2)CC1 (nonaromatic ring conformer: 51.395313388272584 kcal/mol)

>  <smiles>  (31) 
CC(=O)C(=O)N1CCN(CCc2ccccc2)CC1

>  <score_type>  (31) 
oracle

>  <origin>  (31) 
adg

>  <m_score__min__energy>  (31) 
-5.5499999999999998

>  <m_primary>  (31) 
energy

$$$$
31:0
     RDKit          3D

 74 78  0  0  0  0  0  0  0  0999 V2000
   58.5290   32.7670   47.5040 O   0  0  0  0  0  0  0  0  0  0  0  0
   58.9780   31.5970   47.3620 C   0  0  0  0  0  0  0  0  0  0  0  0
   59.4800   30.8790   48.4980 N   0  0  0  0  0  0  0  0  0  0  0  0
   59.8840   31.5580   49.7360 C   0  0  2  0  0  0  0  0  0  0  0  0
   60.3070   30.5210   50.7910 C   0  0  0  0  0  0  0  0  0  0  0  0
   59.1440   29.5880   51.1870 C   0  0  0  0  0  0  0  0  0  0  0  0
   57.7520   30.2650   51.1150 C   0  0  1  0  0  0  0  0  0  0  0  0
   56.8810   29.7110   52.1030 O   0  0  0  0  0  0  0  0  0  0  0  0
   55.5460   30.0900   52.3210 C   0  0  0  0  0  0  0  0  0  0  0  0
   54.8980   29.9190   53.5580 C   0  0  0  0  0  0  0  0  0  0  0  0
   53.5630   30.2960   53.6950 C   0  0  0  0  0  0  0  0  0  0  0  0
   52.8640   30.8300   52.6020 C   0  0  0  0  0  0  0  0  0  0  0  0
   51.4240   31.2490   52.7570 C   0  0  0  0  0  0  0  0  0  0  0  0
   50.6040   30.1360   52.7360 F   0  0  0  0  0  0  0  0  0  0  0  0
   51.0350   32.0940   51.7290 F   0  0  0  0  0  0  0  0  0  0  0  0
   51.2660   31.9030   53.9640 F   0  0  0  0  0  0  0  0  0  0  0  0
   53.5560   31.0150   51.3940 C   0  0  0  0  0  0  0  0  0  0  0  0
   54.8550   30.6360   51.2840 N   0  0  0  0  0  0  0  0  0  0  0  0
   57.8630   31.7770   51.3470 C   0  0  0  0  0  0  0  0  0  0  0  0
   58.7460   32.4600   50.2800 C   0  0  0  0  0  0  0  0  0  0  0  0
   58.9490   30.9750   46.0670 N   0  0  0  0  0  0  0  0  0  0  0  0
   60.0500   30.1150   45.6190 C   0  0  0  0  0  0  0  0  0  0  0  0
   59.5220   28.7460   45.1550 C   0  0  0  0  0  0  0  0  0  0  0  0
   58.0650   28.7840   44.5660 C   0  0  0  0  0  0  0  0  0  0  0  0
   57.0210   28.3890   45.6610 C   0  0  0  0  0  0  0  0  0  0  0  0
   56.8200   26.8640   45.8030 C   0  0  0  0  0  0  0  0  0  0  0  0
   57.9850   26.1380   45.2720 N   0  0  0  0  0  0  0  0  0  0  0  0
   58.0490   24.7230   45.7000 C   0  0  0  0  0  0  0  0  0  0  0  0
   57.4060   23.7550   44.7280 C   0  0  0  0  0  0  0  0  0  0  0  0
   56.1470   24.0330   44.1760 C   0  0  0  0  0  0  0  0  0  0  0  0
   55.5750   23.1310   43.2740 C   0  0  0  0  0  0  0  0  0  0  0  0
   56.2410   21.9980   42.9260 N   0  0  0  0  0  0  0  0  0  0  0  0
   57.4670   21.7070   43.4380 C   0  0  0  0  0  0  0  0  0  0  0  0
   58.0730   22.5800   44.3450 C   0  0  0  0  0  0  0  0  0  0  0  0
   58.1240   26.3110   43.8120 C   0  0  0  0  0  0  0  0  0  0  0  0
   57.9420   27.7860   43.3840 C   0  0  0  0  0  0  0  0  0  0  0  0
   57.7560   30.2120   44.0310 C   0  0  0  0  0  0  0  0  0  0  0  0
   57.8530   31.2740   45.1410 C   0  0  0  0  0  0  0  0  0  0  0  0
   59.5670   29.8400   48.4180 H   0  0  0  0  0  0  0  0  0  0  0  0
   60.7428   32.2069   49.5096 H   0  0  0  0  0  0  0  0  0  0  0  0
   61.1263   29.9121   50.3812 H   0  0  0  0  0  0  0  0  0  0  0  0
   60.6262   31.0654   51.6920 H   0  0  0  0  0  0  0  0  0  0  0  0
   59.1454   28.7231   50.5073 H   0  0  0  0  0  0  0  0  0  0  0  0
   59.3069   29.2973   52.2353 H   0  0  0  0  0  0  0  0  0  0  0  0
   57.3438   30.0828   50.1099 H   0  0  0  0  0  0  0  0  0  0  0  0
   55.4419   29.4901   54.4125 H   0  0  0  0  0  0  0  0  0  0  0  0
   53.0558   30.1744   54.6635 H   0  0  0  0  0  0  0  0  0  0  0  0
   53.0433   31.4690   50.5332 H   0  0  0  0  0  0  0  0  0  0  0  0
   56.8557   32.2174   51.3099 H   0  0  0  0  0  0  0  0  0  0  0  0
   58.3301   31.9377   52.3298 H   0  0  0  0  0  0  0  0  0  0  0  0
   58.1045   32.7550   49.4365 H   0  0  0  0  0  0  0  0  0  0  0  0
   59.2262   33.3218   50.7665 H   0  0  0  0  0  0  0  0  0  0  0  0
   60.5707   30.6030   44.7819 H   0  0  0  0  0  0  0  0  0  0  0  0
   60.7400   29.9590   46.4614 H   0  0  0  0  0  0  0  0  0  0  0  0
   60.1984   28.3606   44.3779 H   0  0  0  0  0  0  0  0  0  0  0  0
   59.4863   28.1021   46.0461 H   0  0  0  0  0  0  0  0  0  0  0  0
   57.3641   28.7860   46.6278 H   0  0  0  0  0  0  0  0  0  0  0  0
   56.0544   28.8143   45.3531 H   0  0  0  0  0  0  0  0  0  0  0  0
   56.6914   26.6135   46.8663 H   0  0  0  0  0  0  0  0  0  0  0  0
   55.9270   26.5686   45.2327 H   0  0  0  0  0  0  0  0  0  0  0  0
   59.1068   24.4445   45.8166 H   0  0  0  0  0  0  0  0  0  0  0  0
   57.4851   24.6498   46.6416 H   0  0  0  0  0  0  0  0  0  0  0  0
   55.6132   24.9546   44.4510 H   0  0  0  0  0  0  0  0  0  0  0  0
   54.5837   23.3385   42.8448 H   0  0  0  0  0  0  0  0  0  0  0  0
   57.9823   20.7828   43.1375 H   0  0  0  0  0  0  0  0  0  0  0  0
   59.0665   22.3484   44.7566 H   0  0  0  0  0  0  0  0  0  0  0  0
   59.1260   25.9740   43.5081 H   0  0  0  0  0  0  0  0  0  0  0  0
   57.3390   25.7157   43.3228 H   0  0  0  0  0  0  0  0  0  0  0  0
   58.7119   28.0312   42.6376 H   0  0  0  0  0  0  0  0  0  0  0  0
   56.9253   27.8854   42.9761 H   0  0  0  0  0  0  0  0  0  0  0  0
   58.4779   30.4588   43.2385 H   0  0  0  0  0  0  0  0  0  0  0  0
   56.7262   30.2159   43.6444 H   0  0  0  0  0  0  0  0  0  0  0  0
   58.0297   32.2578   44.6817 H   0  0  0  0  0  0  0  0  0  0  0  0
   56.9095   31.2735   45.7066 H   0  0  0  0  0  0  0  0  0  0  0  0
  1  2  2  0
  2  3  1  0
  3  4  1  0
  4  5  1  0
  5  6  1  0
  6  7  1  0
  7  8  1  0
  8  9  1  0
  9 10  2  0
 10 11  1  0
 11 12  2  0
 12 13  1  0
 13 14  1  0
 13 15  1  0
 13 16  1  0
 12 17  1  0
 17 18  2  0
  7 19  1  0
 19 20  1  0
  2 21  1  0
 21 22  1  0
 22 23  1  0
 23 24  1  0
 24 25  1  0
 25 26  1  0
 26 27  1  0
 27 28  1  0
 28 29  1  0
 29 30  2  0
 30 31  1  0
 31 32  2  0
 32 33  1  0
 33 34  2  0
 27 35  1  0
 35 36  1  0
 24 37  1  0
 37 38  1  0
 20  4  1  0
 38 21  1  0
 18  9  1  0
 36 24  1  0
 34 29  1  0
  3 39  1  0
  4 40  1  6
  5 41  1  0
  5 42  1  0
  6 43  1  0
  6 44  1  0
  7 45  1  6
 10 46  1  0
 11 47  1  0
 17 48  1  0
 19 49  1  0
 19 50  1  0
 20 51  1  0
 20 52  1  0
 22 53  1  0
 22 54  1  0
 23 55  1  0
 23 56  1  0
 25 57  1  0
 25 58  1  0
 26 59  1  0
 26 60  1  0
 28 61  1  0
 28 62  1  0
 30 63  1  0
 31 64  1  0
 33 65  1  0
 34 66  1  0
 35 67  1  0
 35 68  1  0
 36 69  1  0
 36 70  1  0
 37 71  1  0
 37 72  1  0
 38 73  1  0
 38 74  1  0
M  END
>  <UniqueID>  (32) 
32

>  <SMILES>  (32) 
O=C(NC1CCC(Oc2ccc(C(F)(F)F)cn2)CC1)N1CCC2(CCN(Cc3ccncc3)CC2)CC1

>  <Energy>  (32) 
96.67183156228684

>  <Genealogy>  (32) 
O=C(NC1CCC(Oc2ccc(C(F)(F)F)cn2)CC1)N1CCC2(CCN(Cc3ccncc3)CC2)CC1 (3D coordinates assigned)
O=C(NC1CCC(Oc2ccc(C(F)(F)F)cn2)CC1)N1CCC2(CCN(Cc3ccncc3)CC2)CC1 (nonaromatic ring conformer: 96.67183156228684 kcal/mol)

>  <smiles>  (32) 
O=C(NC1CCC(Oc2ccc(C(F)(F)F)cn2)CC1)N1CCC2(CCN(Cc3ccncc3)CC2)CC1

>  <score_type>  (32) 
oracle

>  <origin>  (32) 
adg

>  <m_score__min__energy>  (32) 
-9.6099999999999994

>  <m_primary>  (32) 
energy

$$$$
32:0
     RDKit          3D

 29 31  0  0  0  0  0  0  0  0999 V2000
   57.7580   32.9040   43.9900 C   0  0  0  0  0  0  0  0  0  0  0  0
   57.4510   31.5540   44.5560 C   0  0  0  0  0  0  0  0  0  0  0  0
   56.3330   30.8350   44.1190 C   0  0  0  0  0  0  0  0  0  0  0  0
   56.0850   29.6030   44.6360 N   0  0  0  0  0  0  0  0  0  0  0  0
   56.9000   29.0510   45.5750 C   0  0  0  0  0  0  0  0  0  0  0  0
   58.0220   29.7770   46.0240 C   0  0  0  0  0  0  0  0  0  0  0  0
   58.2700   31.0050   45.4920 N   0  0  0  0  0  0  0  0  0  0  0  0
   58.8760   29.2090   46.9880 C   0  0  0  0  0  0  0  0  0  0  0  0
   60.0650   29.9330   47.5020 C   0  0  0  0  0  0  0  0  0  0  0  0
   60.2650   30.0730   48.8870 C   0  0  0  0  0  0  0  0  0  0  0  0
   61.3820   30.7610   49.3740 C   0  0  0  0  0  0  0  0  0  0  0  0
   62.3020   31.3190   48.4840 C   0  0  0  0  0  0  0  0  0  0  0  0
   62.1090   31.1950   47.1070 C   0  0  0  0  0  0  0  0  0  0  0  0
   60.9940   30.5070   46.6150 C   0  0  0  0  0  0  0  0  0  0  0  0
   58.5860   27.9230   47.4670 C   0  0  0  0  0  0  0  0  0  0  0  0
   57.4600   27.2360   46.9990 C   0  0  0  0  0  0  0  0  0  0  0  0
   57.2080   26.0840   47.4430 O   0  0  0  0  0  0  0  0  0  0  0  0
   56.6410   27.8070   46.0710 N   0  0  0  0  0  0  0  0  0  0  0  0
   55.5380   27.1130   45.6220 O   0  0  0  0  0  0  0  0  0  0  0  0
   57.9203   33.6176   44.8112 H   0  0  0  0  0  0  0  0  0  0  0  0
   58.6655   32.8444   43.3713 H   0  0  0  0  0  0  0  0  0  0  0  0
   56.9140   33.2428   43.3713 H   0  0  0  0  0  0  0  0  0  0  0  0
   55.6596   31.2640   43.3623 H   0  0  0  0  0  0  0  0  0  0  0  0
   59.5396   29.6394   49.5911 H   0  0  0  0  0  0  0  0  0  0  0  0
   61.5354   30.8623   50.4585 H   0  0  0  0  0  0  0  0  0  0  0  0
   63.1807   31.8574   48.8688 H   0  0  0  0  0  0  0  0  0  0  0  0
   62.8337   31.6383   46.4082 H   0  0  0  0  0  0  0  0  0  0  0  0
   60.8432   30.4146   45.5293 H   0  0  0  0  0  0  0  0  0  0  0  0
   59.2450   27.4534   48.2121 H   0  0  0  0  0  0  0  0  0  0  0  0
  1  2  1  0
  2  3  2  0
  3  4  1  0
  4  5  2  0
  5  6  1  0
  6  7  2  0
  6  8  1  0
  8  9  1  0
  9 10  2  0
 10 11  1  0
 11 12  2  0
 12 13  1  0
 13 14  2  0
  8 15  2  0
 15 16  1  0
 16 17  2  0
 16 18  1  0
 18 19  1  0
  7  2  1  0
 14  9  1  0
 18  5  1  0
  1 20  1  0
  1 21  1  0
  1 22  1  0
  3 23  1  0
 10 24  1  0
 11 25  1  0
 12 26  1  0
 13 27  1  0
 14 28  1  0
 15 29  1  0
M  CHG  1  19  -1
M  END
>  <UniqueID>  (33) 
33

>  <SMILES>  (33) 
Cc1cnc2c(n1)c(-c1ccccc1)cc(=O)n2[O-]

>  <Energy>  (33) 
42.53768198024254

>  <Genealogy>  (33) 
Cc1cnc2c(n1)c(-c1ccccc1)cc(=O)n2[O-] (protonated)
Cc1cnc2c(n1)c(-c1ccccc1)cc(=O)n2[O-] (3D coordinates assigned)
Cc1cnc2c(n1)c(-c1ccccc1)cc(=O)n2[O-] (optimized conformer: 42.53768198024254 kcal/mol)

>  <smiles>  (33) 
Cc1cnc2c(n1)c(-c1ccccc1)cc(=O)n2O

>  <score_type>  (33) 
oracle

>  <origin>  (33) 
adg

>  <m_score__min__energy>  (33) 
-9.1799999999999997

>  <m_primary>  (33) 
energy

$$$$
33:0
     RDKit          3D

 53 56  0  0  0  0  0  0  0  0999 V2000
   57.8620   27.1560   45.5820 C   0  0  0  0  0  0  0  0  0  0  0  0
   57.8010   28.1320   46.6170 O   0  0  0  0  0  0  0  0  0  0  0  0
   58.8450   29.0150   46.9330 C   0  0  0  0  0  0  0  0  0  0  0  0
   58.8880   29.5600   48.2220 C   0  0  0  0  0  0  0  0  0  0  0  0
   59.8980   30.4550   48.5820 C   0  0  0  0  0  0  0  0  0  0  0  0
   60.8850   30.8180   47.6530 C   0  0  0  0  0  0  0  0  0  0  0  0
   61.9700   31.7440   48.0440 C   0  0  0  0  0  0  0  0  0  0  0  0
   62.8470   31.3450   49.0680 C   0  0  0  0  0  0  0  0  0  0  0  0
   63.9140   32.1610   49.4490 C   0  0  0  0  0  0  0  0  0  0  0  0
   64.1190   33.3840   48.8140 C   0  0  0  0  0  0  0  0  0  0  0  0
   63.2510   33.8040   47.8070 C   0  0  0  0  0  0  0  0  0  0  0  0
   62.1610   33.0050   47.4170 C   0  0  0  0  0  0  0  0  0  0  0  0
   61.2210   33.5470   46.3610 C   0  0  0  0  0  0  0  0  0  0  0  0
   60.1940   34.4150   46.9760 N   0  0  0  0  0  0  0  0  0  0  0  0
   59.6690   35.4090   46.0140 C   0  0  0  0  0  0  0  0  0  0  0  0
   58.8840   34.7330   44.8740 C   0  0  0  0  0  0  0  0  0  0  0  0
   58.1170   33.5890   45.3820 N   0  0  0  0  0  0  0  0  0  0  0  0
   57.7310   32.5180   44.4950 C   0  0  0  0  0  0  0  0  0  0  0  0
   57.8000   32.6810   43.0990 C   0  0  0  0  0  0  0  0  0  0  0  0
   57.4190   31.6430   42.2460 C   0  0  0  0  0  0  0  0  0  0  0  0
   56.9450   30.4400   42.7720 C   0  0  0  0  0  0  0  0  0  0  0  0
   56.8560   30.2720   44.1570 C   0  0  0  0  0  0  0  0  0  0  0  0
   57.2460   31.3040   45.0140 C   0  0  0  0  0  0  0  0  0  0  0  0
   57.8120   33.5490   46.8160 C   0  0  0  0  0  0  0  0  0  0  0  0
   59.1130   33.6310   47.6370 C   0  0  0  0  0  0  0  0  0  0  0  0
   60.8580   30.2570   46.3680 C   0  0  0  0  0  0  0  0  0  0  0  0
   59.8410   29.3700   46.0040 C   0  0  0  0  0  0  0  0  0  0  0  0
   57.9247   26.1523   46.0277 H   0  0  0  0  0  0  0  0  0  0  0  0
   56.9578   27.2248   44.9594 H   0  0  0  0  0  0  0  0  0  0  0  0
   58.7506   27.3369   44.9594 H   0  0  0  0  0  0  0  0  0  0  0  0
   58.1194   29.2808   48.9578 H   0  0  0  0  0  0  0  0  0  0  0  0
   59.9198   30.8769   49.5976 H   0  0  0  0  0  0  0  0  0  0  0  0
   62.6910   30.3807   49.5738 H   0  0  0  0  0  0  0  0  0  0  0  0
   64.5935   31.8379   50.2514 H   0  0  0  0  0  0  0  0  0  0  0  0
   64.9674   34.0196   49.1077 H   0  0  0  0  0  0  0  0  0  0  0  0
   63.4205   34.7715   47.3117 H   0  0  0  0  0  0  0  0  0  0  0  0
   61.7977   34.1317   45.6291 H   0  0  0  0  0  0  0  0  0  0  0  0
   60.7210   32.7028   45.8637 H   0  0  0  0  0  0  0  0  0  0  0  0
   59.0008   36.1024   46.5457 H   0  0  0  0  0  0  0  0  0  0  0  0
   60.5219   35.9464   45.5738 H   0  0  0  0  0  0  0  0  0  0  0  0
   58.1920   35.4632   44.4291 H   0  0  0  0  0  0  0  0  0  0  0  0
   59.5968   34.3739   44.1171 H   0  0  0  0  0  0  0  0  0  0  0  0
   58.1564   33.6322   42.6769 H   0  0  0  0  0  0  0  0  0  0  0  0
   57.4926   31.7738   41.1563 H   0  0  0  0  0  0  0  0  0  0  0  0
   56.6420   29.6254   42.0977 H   0  0  0  0  0  0  0  0  0  0  0  0
   56.4784   29.3261   44.5725 H   0  0  0  0  0  0  0  0  0  0  0  0
   57.1732   31.1662   46.1029 H   0  0  0  0  0  0  0  0  0  0  0  0
   57.1648   34.4002   47.0741 H   0  0  0  0  0  0  0  0  0  0  0  0
   57.2988   32.6042   47.0485 H   0  0  0  0  0  0  0  0  0  0  0  0
   58.8837   34.1034   48.6036 H   0  0  0  0  0  0  0  0  0  0  0  0
   59.4863   32.6023   47.7485 H   0  0  0  0  0  0  0  0  0  0  0  0
   61.6423   30.5167   45.6418 H   0  0  0  0  0  0  0  0  0  0  0  0
   59.8189   28.9481   44.9884 H   0  0  0  0  0  0  0  0  0  0  0  0
  1  2  1  0
  2  3  1  0
  3  4  2  0
  4  5  1  0
  5  6  2  0
  6  7  1  0
  7  8  2  0
  8  9  1  0
  9 10  2  0
 10 11  1  0
 11 12  2  0
 12 13  1  0
 13 14  1  0
 14 15  1  0
 15 16  1  0
 16 17  1  0
 17 18  1  0
 18 19  2  0
 19 20  1  0
 20 21  2  0
 21 22  1  0
 22 23  2  0
 17 24  1  0
 24 25  1  0
  6 26  1  0
 26 27  2  0
 27  3  1  0
 12  7  1  0
 25 14  1  0
 23 18  1  0
  1 28  1  0
  1 29  1  0
  1 30  1  0
  4 31  1  0
  5 32  1  0
  8 33  1  0
  9 34  1  0
 10 35  1  0
 11 36  1  0
 13 37  1  0
 13 38  1  0
 15 39  1  0
 15 40  1  0
 16 41  1  0
 16 42  1  0
 19 43  1  0
 20 44  1  0
 21 45  1  0
 22 46  1  0
 23 47  1  0
 24 48  1  0
 24 49  1  0
 25 50  1  0
 25 51  1  0
 26 52  1  0
 27 53  1  0
M  END
>  <UniqueID>  (34) 
34

>  <SMILES>  (34) 
COc1ccc(-c2ccccc2CN2CCN(c3ccccc3)CC2)cc1

>  <Energy>  (34) 
71.9065162128441

>  <Genealogy>  (34) 
COc1ccc(-c2ccccc2CN2CCN(c3ccccc3)CC2)cc1 (3D coordinates assigned)
COc1ccc(-c2ccccc2CN2CCN(c3ccccc3)CC2)cc1 (nonaromatic ring conformer: 71.9065162128441 kcal/mol)

>  <smiles>  (34) 
COc1ccc(-c2ccccc2CN2CCN(c3ccccc3)CC2)cc1

>  <score_type>  (34) 
oracle

>  <origin>  (34) 
adg

>  <m_score__min__energy>  (34) 
-8.5500000000000007

>  <m_primary>  (34) 
energy

$$$$
34:0
     RDKit          3D

 70 75  0  0  0  0  0  0  0  0999 V2000
   56.1129   25.7499   47.1938 H   0  0  0  0  0  0  0  0  0  0  0  0
   56.9990   26.1310   46.6650 C   0  0  0  0  0  0  0  0  0  0  0  0
   57.0080   26.1860   45.2690 C   0  0  0  0  0  0  0  0  0  0  0  0
   56.1329   25.8375   44.7009 H   0  0  0  0  0  0  0  0  0  0  0  0
   58.1290   26.6840   44.5900 C   0  0  0  0  0  0  0  0  0  0  0  0
   58.1320   26.7250   43.0900 C   0  0  0  0  0  0  0  0  0  0  0  0
   58.2083   27.7690   42.7519 H   0  0  0  0  0  0  0  0  0  0  0  0
   58.9907   26.1525   42.7093 H   0  0  0  0  0  0  0  0  0  0  0  0
   57.1992   26.2836   42.7093 H   0  0  0  0  0  0  0  0  0  0  0  0
   59.2520   27.1040   45.3220 C   0  0  0  0  0  0  0  0  0  0  0  0
   60.1411   27.4764   44.7920 H   0  0  0  0  0  0  0  0  0  0  0  0
   59.2480   27.0520   46.7250 C   0  0  0  0  0  0  0  0  0  0  0  0
   60.4520   27.5080   47.5140 C   0  0  0  0  0  0  0  0  0  0  0  0
   60.7095   26.7336   48.2516 H   0  0  0  0  0  0  0  0  0  0  0  0
   61.2818   27.6725   46.8109 H   0  0  0  0  0  0  0  0  0  0  0  0
   60.1810   28.8160   48.2450 C   0  0  0  0  0  0  0  0  0  0  0  0
   60.4840   28.9880   49.6200 C   0  0  0  0  0  0  0  0  0  0  0  0
   60.0960   30.1890   50.2530 C   0  0  0  0  0  0  0  0  0  0  0  0
   59.5530   31.1960   49.5230 N   0  0  0  0  0  0  0  0  0  0  0  0
   59.3110   31.1030   48.1920 C   0  0  0  0  0  0  0  0  0  0  0  0
   58.7620   32.1910   47.4570 C   0  0  0  0  0  0  0  0  0  0  0  0
   58.5260   33.3670   47.9790 N   0  0  0  0  0  0  0  0  0  0  0  0
   59.3340   34.5830   47.9570 C   0  0  0  0  0  0  0  0  0  0  0  0
   58.9308   35.2760   47.2039 H   0  0  0  0  0  0  0  0  0  0  0  0
   59.3050   35.0570   48.9492 H   0  0  0  0  0  0  0  0  0  0  0  0
   60.7840   34.2350   47.6040 C   0  0  0  0  0  0  0  0  0  0  0  0
   60.7971   33.2646   47.0861 H   0  0  0  0  0  0  0  0  0  0  0  0
   61.1736   35.0417   46.9657 H   0  0  0  0  0  0  0  0  0  0  0  0
   61.6880   34.1440   48.8400 C   0  0  0  0  0  0  0  0  0  0  0  0
   61.6663   35.1035   49.3775 H   0  0  0  0  0  0  0  0  0  0  0  0
   61.3219   33.3389   49.4941 H   0  0  0  0  0  0  0  0  0  0  0  0
   63.0840   33.8410   48.4330 N   0  0  0  0  0  0  0  0  0  0  0  0
   63.1740   33.1490   47.1290 C   0  0  0  0  0  0  0  0  0  0  0  0
   62.3888   33.5400   46.4652 H   0  0  0  0  0  0  0  0  0  0  0  0
   64.1762   33.3354   46.7156 H   0  0  0  0  0  0  0  0  0  0  0  0
   62.9940   31.6230   47.2670 C   0  0  0  0  0  0  0  0  0  0  0  0
   62.3144   31.2693   46.4777 H   0  0  0  0  0  0  0  0  0  0  0  0
   63.9809   31.1465   47.1722 H   0  0  0  0  0  0  0  0  0  0  0  0
   62.4530   31.2830   48.5270 O   0  0  0  0  0  0  0  0  0  0  0  0
   63.3720   31.6230   49.5510 C   0  0  0  0  0  0  0  0  0  0  0  0
   62.8920   31.4555   50.5265 H   0  0  0  0  0  0  0  0  0  0  0  0
   64.2627   30.9897   49.4264 H   0  0  0  0  0  0  0  0  0  0  0  0
   63.8270   33.0990   49.4680 C   0  0  0  0  0  0  0  0  0  0  0  0
   63.6570   33.5798   50.4426 H   0  0  0  0  0  0  0  0  0  0  0  0
   64.8942   33.1145   49.2017 H   0  0  0  0  0  0  0  0  0  0  0  0
   58.4810   32.0050   46.0820 C   0  0  0  0  0  0  0  0  0  0  0  0
   57.9300   33.0310   45.2840 C   0  0  0  0  0  0  0  0  0  0  0  0
   57.6967   34.0073   45.7340 H   0  0  0  0  0  0  0  0  0  0  0  0
   57.6790   32.8150   43.9270 C   0  0  0  0  0  0  0  0  0  0  0  0
   57.2499   33.6212   43.3139 H   0  0  0  0  0  0  0  0  0  0  0  0
   57.9710   31.5790   43.3460 C   0  0  0  0  0  0  0  0  0  0  0  0
   57.7715   31.4139   42.2769 H   0  0  0  0  0  0  0  0  0  0  0  0
   58.5150   30.5540   44.1190 C   0  0  0  0  0  0  0  0  0  0  0  0
   58.7435   29.5816   43.6583 H   0  0  0  0  0  0  0  0  0  0  0  0
   58.7710   30.7590   45.4790 C   0  0  0  0  0  0  0  0  0  0  0  0
   59.3130   29.7560   46.2120 N   0  0  0  0  0  0  0  0  0  0  0  0
   59.5960   29.8890   47.5340 C   0  0  0  0  0  0  0  0  0  0  0  0
   60.3120   30.4160   51.7230 C   0  0  0  0  0  0  0  0  0  0  0  0
   61.1577   31.1066   51.8569 H   0  0  0  0  0  0  0  0  0  0  0  0
   59.3883   30.8389   52.1448 H   0  0  0  0  0  0  0  0  0  0  0  0
   60.6170   29.1120   52.4550 C   0  0  0  0  0  0  0  0  0  0  0  0
   60.9738   29.3370   53.4709 H   0  0  0  0  0  0  0  0  0  0  0  0
   59.7031   28.5026   52.5129 H   0  0  0  0  0  0  0  0  0  0  0  0
   61.6490   28.3730   51.7290 N   0  0  0  0  0  0  0  0  0  0  0  0
   61.9130   27.5380   52.3010 H   0  0  0  0  0  0  0  0  0  0  0  0
   61.1260   27.8850   50.4460 C   0  0  0  0  0  0  0  0  0  0  0  0
   61.9559   27.4504   49.8694 H   0  0  0  0  0  0  0  0  0  0  0  0
   60.3495   27.1373   50.6650 H   0  0  0  0  0  0  0  0  0  0  0  0
   58.1130   26.5590   47.3900 C   0  0  0  0  0  0  0  0  0  0  0  0
   58.1018   26.5098   48.4888 H   0  0  0  0  0  0  0  0  0  0  0  0
  1  2  1  0
  2  3  2  0
  3  4  1  0
  3  5  1  0
  5  6  1  0
  6  7  1  0
  6  8  1  0
  6  9  1  0
  5 10  2  0
 10 11  1  0
 10 12  1  0
 12 13  1  0
 13 14  1  0
 13 15  1  0
 13 16  1  0
 16 17  2  0
 17 18  1  0
 18 19  2  0
 19 20  1  0
 20 21  1  0
 21 22  2  0
 22 23  1  0
 23 24  1  0
 23 25  1  0
 23 26  1  0
 26 27  1  0
 26 28  1  0
 26 29  1  0
 29 30  1  0
 29 31  1  0
 29 32  1  0
 32 33  1  0
 33 34  1  0
 33 35  1  0
 33 36  1  0
 36 37  1  0
 36 38  1  0
 36 39  1  0
 39 40  1  0
 40 41  1  0
 40 42  1  0
 40 43  1  0
 43 44  1  0
 43 45  1  0
 21 46  1  0
 46 47  2  0
 47 48  1  0
 47 49  1  0
 49 50  1  0
 49 51  2  0
 51 52  1  0
 51 53  1  0
 53 54  1  0
 53 55  2  0
 55 56  1  0
 56 57  1  0
 18 58  1  0
 58 59  1  0
 58 60  1  0
 58 61  1  0
 61 62  1  0
 61 63  1  0
 61 64  1  0
 64 65  1  0
 64 66  1  0
 66 67  1  0
 66 68  1  0
 12 69  2  0
 69 70  1  0
 69  2  1  0
 57 16  1  0
 66 17  1  0
 57 20  2  0
 43 32  1  0
 55 46  1  0
M  CHG  1  56  -1
M  END
>  <UniqueID>  (35) 
35

>  <SMILES>  (35) 
Cc1cccc(Cc2c3c(nc4/c(=N\CCCN5CCOCC5)c5ccccc5[n-]c24)CCNC3)c1

>  <Energy>  (35) 
99.84344791680839

>  <Genealogy>  (35) 
Cc1cccc(Cc2c3c(nc4c(=NCCCN5CCOCC5)c5ccccc5[n-]c24)CCNC3)c1 (protonated)
Cc1cccc(Cc2c3c(nc4/c(=N\CCCN5CCOCC5)c5ccccc5[n-]c24)CCNC3)c1 (cis-trans isomerization)
Cc1cccc(Cc2c3c(nc4/c(=N\CCCN5CCOCC5)c5ccccc5[n-]c24)CCNC3)c1 (3D coordinates assigned)
Cc1cccc(Cc2c3c(nc4/c(=N\CCCN5CCOCC5)c5ccccc5[n-]c24)CCNC3)c1 (nonaromatic ring conformer: 99.84344791680839 kcal/mol)

>  <smiles>  (35) 
Cc1cccc(Cc2c3c(nc4c(=NCCCN5CCOCC5)c5ccccc5[nH]c24)CCNC3)c1

>  <score_type>  (35) 
oracle

>  <origin>  (35) 
adg

>  <m_score__min__energy>  (35) 
-10.73

>  <m_primary>  (35) 
energy

$$$$
35:0
     RDKit          3D

 54 56  0  0  0  0  0  0  0  0999 V2000
   56.9160   26.4850   45.7530 C   0  0  0  0  0  0  0  0  0  0  0  0
   56.1330   27.6670   45.6170 O   0  0  0  0  0  0  0  0  0  0  0  0
   56.6390   28.9140   45.2190 C   0  0  0  0  0  0  0  0  0  0  0  0
   56.1320   29.6040   44.1010 C   0  0  0  0  0  0  0  0  0  0  0  0
   56.6610   30.8430   43.7350 C   0  0  0  0  0  0  0  0  0  0  0  0
   57.7130   31.4080   44.4680 C   0  0  0  0  0  0  0  0  0  0  0  0
   58.2580   32.7610   44.0920 C   0  0  0  0  0  0  0  0  0  0  0  0
   57.5200   33.8700   44.8590 C   0  0  0  0  0  0  0  0  0  0  0  0
   58.1330   34.1590   46.1640 N   0  0  0  0  0  0  0  0  0  0  0  0
   59.3950   34.8980   46.0380 C   0  0  0  0  0  0  0  0  0  0  0  0
   60.4350   34.2680   46.9220 C   0  0  0  0  0  0  0  0  0  0  0  0
   61.6270   33.7810   46.3740 C   0  0  0  0  0  0  0  0  0  0  0  0
   62.6110   33.2280   47.1960 C   0  0  0  0  0  0  0  0  0  0  0  0
   62.4390   33.1580   48.5990 C   0  0  0  0  0  0  0  0  0  0  0  0
   63.4670   32.5780   49.4630 N   0  0  0  0  0  0  0  0  0  0  0  0
   64.8540   33.0810   49.3730 C   0  0  0  0  0  0  0  0  0  0  0  0
   65.8070   32.4400   50.3860 C   0  0  0  0  0  0  0  0  0  0  0  0
   65.5210   31.0720   50.5510 O   0  0  0  0  0  0  0  0  0  0  0  0
   64.2820   30.9540   51.2070 C   0  0  0  0  0  0  0  0  0  0  0  0
   63.1340   31.4050   50.2990 C   0  0  0  0  0  0  0  0  0  0  0  0
   61.2310   33.6640   49.1360 C   0  0  0  0  0  0  0  0  0  0  0  0
   60.2500   34.2170   48.3080 C   0  0  0  0  0  0  0  0  0  0  0  0
   58.2120   30.7300   45.5920 C   0  0  0  0  0  0  0  0  0  0  0  0
   57.6820   29.4810   45.9690 C   0  0  0  0  0  0  0  0  0  0  0  0
   58.1640   28.7730   47.0810 O   0  0  0  0  0  0  0  0  0  0  0  0
   59.3480   29.1060   47.7990 C   0  0  0  0  0  0  0  0  0  0  0  0
   57.0629   26.2633   46.8204 H   0  0  0  0  0  0  0  0  0  0  0  0
   56.3962   25.6434   45.2718 H   0  0  0  0  0  0  0  0  0  0  0  0
   57.8937   26.6354   45.2718 H   0  0  0  0  0  0  0  0  0  0  0  0
   55.3137   29.1638   43.5122 H   0  0  0  0  0  0  0  0  0  0  0  0
   56.2498   31.3785   42.8666 H   0  0  0  0  0  0  0  0  0  0  0  0
   59.3292   32.8012   44.3388 H   0  0  0  0  0  0  0  0  0  0  0  0
   58.1117   32.9165   43.0129 H   0  0  0  0  0  0  0  0  0  0  0  0
   57.5341   34.7874   44.2522 H   0  0  0  0  0  0  0  0  0  0  0  0
   56.4932   33.5212   45.0431 H   0  0  0  0  0  0  0  0  0  0  0  0
   58.3130   33.2590   46.6710 H   0  0  0  0  0  0  0  0  0  0  0  0
   59.7351   34.8672   44.9924 H   0  0  0  0  0  0  0  0  0  0  0  0
   59.2396   35.9436   46.3424 H   0  0  0  0  0  0  0  0  0  0  0  0
   61.7900   33.8342   45.2875 H   0  0  0  0  0  0  0  0  0  0  0  0
   63.5362   32.8399   46.7451 H   0  0  0  0  0  0  0  0  0  0  0  0
   65.2331   32.8756   48.3610 H   0  0  0  0  0  0  0  0  0  0  0  0
   64.8214   34.1573   49.5979 H   0  0  0  0  0  0  0  0  0  0  0  0
   66.8410   32.5507   50.0273 H   0  0  0  0  0  0  0  0  0  0  0  0
   65.6795   32.9443   51.3552 H   0  0  0  0  0  0  0  0  0  0  0  0
   64.1242   29.9031   51.4910 H   0  0  0  0  0  0  0  0  0  0  0  0
   64.2958   31.5970   52.0994 H   0  0  0  0  0  0  0  0  0  0  0  0
   62.8666   30.5695   49.6353 H   0  0  0  0  0  0  0  0  0  0  0  0
   62.3016   31.7014   50.9542 H   0  0  0  0  0  0  0  0  0  0  0  0
   61.0616   33.6214   50.2220 H   0  0  0  0  0  0  0  0  0  0  0  0
   59.3247   34.6155   48.7497 H   0  0  0  0  0  0  0  0  0  0  0  0
   59.0240   31.1785   46.1831 H   0  0  0  0  0  0  0  0  0  0  0  0
   59.1495   29.0502   48.8795 H   0  0  0  0  0  0  0  0  0  0  0  0
   60.1477   28.3979   47.5360 H   0  0  0  0  0  0  0  0  0  0  0  0
   59.6613   30.1271   47.5360 H   0  0  0  0  0  0  0  0  0  0  0  0
  1  2  1  0
  2  3  1  0
  3  4  2  0
  4  5  1  0
  5  6  2  0
  6  7  1  0
  7  8  1  0
  8  9  1  0
  9 10  1  0
 10 11  1  0
 11 12  2  0
 12 13  1  0
 13 14  2  0
 14 15  1  0
 15 16  1  0
 16 17  1  0
 17 18  1  0
 18 19  1  0
 19 20  1  0
 14 21  1  0
 21 22  2  0
  6 23  1  0
 23 24  2  0
 24 25  1  0
 25 26  1  0
 24  3  1  0
 22 11  1  0
 20 15  1  0
  1 27  1  0
  1 28  1  0
  1 29  1  0
  4 30  1  0
  5 31  1  0
  7 32  1  0
  7 33  1  0
  8 34  1  0
  8 35  1  0
  9 36  1  0
 10 37  1  0
 10 38  1  0
 12 39  1  0
 13 40  1  0
 16 41  1  0
 16 42  1  0
 17 43  1  0
 17 44  1  0
 19 45  1  0
 19 46  1  0
 20 47  1  0
 20 48  1  0
 21 49  1  0
 22 50  1  0
 23 51  1  0
 26 52  1  0
 26 53  1  0
 26 54  1  0
M  END
>  <UniqueID>  (36) 
36

>  <SMILES>  (36) 
COc1ccc(CCNCc2ccc(N3CCOCC3)cc2)cc1OC

>  <Energy>  (36) 
59.10778191357203

>  <Genealogy>  (36) 
COc1ccc(CCNCc2ccc(N3CCOCC3)cc2)cc1OC (3D coordinates assigned)
COc1ccc(CCNCc2ccc(N3CCOCC3)cc2)cc1OC (nonaromatic ring conformer: 59.10778191357203 kcal/mol)

>  <smiles>  (36) 
COc1ccc(CCNCc2ccc(N3CCOCC3)cc2)cc1OC

>  <score_type>  (36) 
oracle

>  <origin>  (36) 
adg

>  <m_score__min__energy>  (36) 
-7.9800000000000004

>  <m_primary>  (36) 
energy

$$$$
37:0
     RDKit          3D

 47 49  0  0  0  0  0  0  0  0999 V2000
   56.4480   29.7820   43.2580 C   0  0  0  0  0  0  0  0  0  0  0  0
   56.3330   30.4780   44.4940 O   0  0  0  0  0  0  0  0  0  0  0  0
   57.4040   31.0920   45.1600 C   0  0  0  0  0  0  0  0  0  0  0  0
   57.5390   32.4910   45.2450 C   0  0  0  0  0  0  0  0  0  0  0  0
   58.6260   33.0540   45.9200 C   0  0  0  0  0  0  0  0  0  0  0  0
   59.5960   32.2340   46.5210 C   0  0  0  0  0  0  0  0  0  0  0  0
   60.7190   32.8140   47.2150 N   0  0  0  0  0  0  0  0  0  0  0  0
   60.6180   34.1700   47.7690 C   0  0  0  0  0  0  0  0  0  0  0  0
   61.4470   34.3330   49.0640 C   0  0  0  0  0  0  0  0  0  0  0  0
   62.5290   33.3240   49.2240 N   0  0  0  0  0  0  0  0  0  0  0  0
   63.6080   33.8260   50.1070 C   0  0  0  0  0  0  0  0  0  0  0  0
   64.5960   32.7390   50.4650 C   0  0  0  0  0  0  0  0  0  0  0  0
   64.1540   31.5270   51.0190 C   0  0  0  0  0  0  0  0  0  0  0  0
   65.0690   30.5140   51.3210 C   0  0  0  0  0  0  0  0  0  0  0  0
   66.4380   30.7030   51.0830 C   0  0  0  0  0  0  0  0  0  0  0  0
   67.4140   29.6000   51.3700 C   0  0  0  0  0  0  0  0  0  0  0  0
   66.8790   31.9040   50.5080 C   0  0  0  0  0  0  0  0  0  0  0  0
   65.9640   32.9180   50.2060 C   0  0  0  0  0  0  0  0  0  0  0  0
   63.0900   32.9310   47.9160 C   0  0  0  0  0  0  0  0  0  0  0  0
   62.0350   32.1690   47.1080 C   0  0  0  0  0  0  0  0  0  0  0  0
   59.4570   30.8380   46.4340 C   0  0  0  0  0  0  0  0  0  0  0  0
   58.3700   30.2760   45.7600 C   0  0  0  0  0  0  0  0  0  0  0  0
   56.6245   28.7140   43.4536 H   0  0  0  0  0  0  0  0  0  0  0  0
   55.5181   29.9006   42.6825 H   0  0  0  0  0  0  0  0  0  0  0  0
   57.2903   30.1934   42.6825 H   0  0  0  0  0  0  0  0  0  0  0  0
   56.7862   33.1434   44.7785 H   0  0  0  0  0  0  0  0  0  0  0  0
   58.7228   34.1480   45.9812 H   0  0  0  0  0  0  0  0  0  0  0  0
   60.9853   34.8872   47.0202 H   0  0  0  0  0  0  0  0  0  0  0  0
   59.5627   34.3567   48.0169 H   0  0  0  0  0  0  0  0  0  0  0  0
   61.9054   35.3329   49.0571 H   0  0  0  0  0  0  0  0  0  0  0  0
   60.7528   34.1896   49.9051 H   0  0  0  0  0  0  0  0  0  0  0  0
   62.1210   32.4680   49.6710 H   0  0  0  0  0  0  0  0  0  0  0  0
   64.1428   34.6361   49.5896 H   0  0  0  0  0  0  0  0  0  0  0  0
   63.1462   34.1866   51.0380 H   0  0  0  0  0  0  0  0  0  0  0  0
   63.0828   31.3737   51.2164 H   0  0  0  0  0  0  0  0  0  0  0  0
   64.7134   29.5643   51.7473 H   0  0  0  0  0  0  0  0  0  0  0  0
   67.5210   29.4790   52.4581 H   0  0  0  0  0  0  0  0  0  0  0  0
   67.0456   28.6610   50.9312 H   0  0  0  0  0  0  0  0  0  0  0  0
   68.3908   29.8514   50.9312 H   0  0  0  0  0  0  0  0  0  0  0  0
   67.9482   32.0490   50.2938 H   0  0  0  0  0  0  0  0  0  0  0  0
   66.3183   33.8606   49.7632 H   0  0  0  0  0  0  0  0  0  0  0  0
   63.3933   33.8321   47.3629 H   0  0  0  0  0  0  0  0  0  0  0  0
   63.9643   32.2827   48.0753 H   0  0  0  0  0  0  0  0  0  0  0  0
   62.3391   32.1464   46.0511 H   0  0  0  0  0  0  0  0  0  0  0  0
   61.9574   31.1480   47.5099 H   0  0  0  0  0  0  0  0  0  0  0  0
   60.2089   30.1839   46.8996 H   0  0  0  0  0  0  0  0  0  0  0  0
   58.2724   29.1820   45.7003 H   0  0  0  0  0  0  0  0  0  0  0  0
  1  2  1  0
  2  3  1  0
  3  4  2  0
  4  5  1  0
  5  6  2  0
  6  7  1  0
  7  8  1  0
  8  9  1  0
  9 10  1  0
 10 11  1  0
 11 12  1  0
 12 13  2  0
 13 14  1  0
 14 15  2  0
 15 16  1  0
 15 17  1  0
 17 18  2  0
 10 19  1  0
 19 20  1  0
  6 21  1  0
 21 22  2  0
 22  3  1  0
 20  7  1  0
 18 12  1  0
  1 23  1  0
  1 24  1  0
  1 25  1  0
  4 26  1  0
  5 27  1  0
  8 28  1  0
  8 29  1  0
  9 30  1  0
  9 31  1  0
 10 32  1  0
 11 33  1  0
 11 34  1  0
 13 35  1  0
 14 36  1  0
 16 37  1  0
 16 38  1  0
 16 39  1  0
 17 40  1  0
 18 41  1  0
 19 42  1  0
 19 43  1  0
 20 44  1  0
 20 45  1  0
 21 46  1  0
 22 47  1  0
M  CHG  1  10   1
M  END
>  <UniqueID>  (37) 
37

>  <SMILES>  (37) 
COc1ccc(N2CC[NH+](Cc3ccc(C)cc3)CC2)cc1

>  <Energy>  (37) 
57.253335358703055

>  <Genealogy>  (37) 
COc1ccc(N2CC[NH+](Cc3ccc(C)cc3)CC2)cc1 (protonated)
COc1ccc(N2CC[NH+](Cc3ccc(C)cc3)CC2)cc1 (3D coordinates assigned)
COc1ccc(N2CC[NH+](Cc3ccc(C)cc3)CC2)cc1 (nonaromatic ring conformer: 57.253335358703055 kcal/mol)

>  <smiles>  (37) 
COc1ccc(N2CCN(Cc3ccc(C)cc3)CC2)cc1

>  <score_type>  (37) 
oracle

>  <origin>  (37) 
adg

>  <m_score__min__energy>  (37) 
-5.2699999999999996

>  <m_primary>  (37) 
energy

$$$$
38:0
     RDKit          3D

 38 41  0  0  0  0  0  0  0  0999 V2000
   59.9590   34.2340   48.9200 C   0  0  0  0  0  0  0  0  0  0  0  0
   59.4730   34.1100   47.5050 C   0  0  0  0  0  0  0  0  0  0  0  0
   59.6980   35.1470   46.5900 C   0  0  0  0  0  0  0  0  0  0  0  0
   59.2780   35.0170   45.2650 C   0  0  0  0  0  0  0  0  0  0  0  0
   58.6430   33.8470   44.8390 C   0  0  0  0  0  0  0  0  0  0  0  0
   58.4250   32.7870   45.7380 C   0  0  0  0  0  0  0  0  0  0  0  0
   57.7610   31.5320   45.3050 C   0  0  0  0  0  0  0  0  0  0  0  0
   58.3110   30.2620   45.2780 C   0  0  0  0  0  0  0  0  0  0  0  0
   57.2910   29.4580   44.8000 C   0  0  0  0  0  0  0  0  0  0  0  0
   57.3370   27.9920   44.5710 C   0  0  0  0  0  0  0  0  0  0  0  0
   56.9450   27.1110   45.5930 C   0  0  0  0  0  0  0  0  0  0  0  0
   56.9800   25.7280   45.3950 C   0  0  0  0  0  0  0  0  0  0  0  0
   57.4120   25.1930   44.1690 C   0  0  0  0  0  0  0  0  0  0  0  0
   57.4480   23.7660   43.9660 N   0  0  0  0  0  0  0  0  0  0  0  0
   58.1060   22.8500   44.7050 C   0  0  0  0  0  0  0  0  0  0  0  0
   57.9180   21.6020   44.2250 N   0  0  0  0  0  0  0  0  0  0  0  0
   57.1170   21.8100   43.1580 C   0  0  0  0  0  0  0  0  0  0  0  0
   56.8290   23.1120   42.9990 N   0  0  0  0  0  0  0  0  0  0  0  0
   57.8060   26.0740   43.1470 C   0  0  0  0  0  0  0  0  0  0  0  0
   57.7680   27.4570   43.3450 C   0  0  0  0  0  0  0  0  0  0  0  0
   56.2030   30.2180   44.5610 N   0  0  0  0  0  0  0  0  0  0  0  0
   56.4880   31.4730   44.8660 N   0  0  0  0  0  0  0  0  0  0  0  0
   58.8520   32.9280   47.0730 C   0  0  0  0  0  0  0  0  0  0  0  0
   59.1305   34.0226   49.6121 H   0  0  0  0  0  0  0  0  0  0  0  0
   60.7733   33.5149   49.0924 H   0  0  0  0  0  0  0  0  0  0  0  0
   60.3292   35.2554   49.0924 H   0  0  0  0  0  0  0  0  0  0  0  0
   60.2069   36.0659   46.9165 H   0  0  0  0  0  0  0  0  0  0  0  0
   59.4475   35.8386   44.5535 H   0  0  0  0  0  0  0  0  0  0  0  0
   58.3116   33.7544   43.7942 H   0  0  0  0  0  0  0  0  0  0  0  0
   59.3277   29.9604   45.5701 H   0  0  0  0  0  0  0  0  0  0  0  0
   56.6070   27.5141   46.5591 H   0  0  0  0  0  0  0  0  0  0  0  0
   56.6670   25.0527   46.2050 H   0  0  0  0  0  0  0  0  0  0  0  0
   58.7183   23.0891   45.5870 H   0  0  0  0  0  0  0  0  0  0  0  0
   56.7458   21.0108   42.4996 H   0  0  0  0  0  0  0  0  0  0  0  0
   56.2520   23.5340   42.2390 H   0  0  0  0  0  0  0  0  0  0  0  0
   58.1475   25.6711   42.1821 H   0  0  0  0  0  0  0  0  0  0  0  0
   58.0781   28.1326   42.5342 H   0  0  0  0  0  0  0  0  0  0  0  0
   58.6971   32.1032   47.7841 H   0  0  0  0  0  0  0  0  0  0  0  0
  1  2  1  0
  2  3  2  0
  3  4  1  0
  4  5  2  0
  5  6  1  0
  6  7  1  0
  7  8  1  0
  8  9  2  0
  9 10  1  0
 10 11  2  0
 11 12  1  0
 12 13  2  0
 13 14  1  0
 14 15  1  0
 15 16  2  0
 16 17  1  0
 17 18  2  0
 13 19  1  0
 19 20  2  0
  9 21  1  0
 21 22  1  0
  6 23  2  0
 23  2  1  0
 22  7  2  0
 20 10  1  0
 18 14  1  0
  1 24  1  0
  1 25  1  0
  1 26  1  0
  3 27  1  0
  4 28  1  0
  5 29  1  0
  8 30  1  0
 11 31  1  0
 12 32  1  0
 15 33  1  0
 17 34  1  0
 18 35  1  0
 19 36  1  0
 20 37  1  0
 23 38  1  0
M  CHG  2  18   1  21  -1
M  END
>  <UniqueID>  (38) 
38

>  <SMILES>  (38) 
Cc1cccc(-c2cc(-c3ccc(-n4cnc[nH+]4)cc3)[n-]n2)c1

>  <Energy>  (38) 
111.27768785432369

>  <Genealogy>  (38) 
Cc1cccc(-c2cc(-c3ccc(-n4cnc[nH+]4)cc3)[n-]n2)c1 (protonated)
Cc1cccc(-c2cc(-c3ccc(-n4cnc[nH+]4)cc3)[n-]n2)c1 (3D coordinates assigned)
Cc1cccc(-c2cc(-c3ccc(-n4cnc[nH+]4)cc3)[n-]n2)c1 (optimized conformer: 111.27768785432369 kcal/mol)

>  <smiles>  (38) 
Cc1cccc(-c2cc(-c3ccc(-n4cncn4)cc3)[nH]n2)c1

>  <score_type>  (38) 
oracle

>  <origin>  (38) 
adg

>  <m_score__min__energy>  (38) 
-9

>  <m_primary>  (38) 
energy

$$$$
39:0
     RDKit          3D

 41 42  0  0  0  0  0  0  0  0999 V2000
   57.0540   33.4650   46.7330 C   0  0  0  0  0  0  0  0  0  0  0  0
   57.9400   33.3130   45.5760 N   0  0  0  0  0  0  0  0  0  0  0  0
   59.0790   34.2240   45.3950 C   0  0  0  0  0  0  0  0  0  0  0  0
   60.0540   34.0530   46.5180 C   0  0  0  0  0  0  0  0  0  0  0  0
   61.3700   33.6190   46.4040 C   0  0  0  0  0  0  0  0  0  0  0  0
   62.0670   33.6150   47.5710 N   0  0  0  0  0  0  0  0  0  0  0  0
   61.3260   34.0490   48.6140 C   0  0  0  0  0  0  0  0  0  0  0  0
   59.7700   34.4630   48.1230 S   0  0  0  0  0  0  0  0  0  0  0  0
   57.6520   32.3030   44.5910 C   0  0  0  0  0  0  0  0  0  0  0  0
   58.3010   32.2680   43.5100 O   0  0  0  0  0  0  0  0  0  0  0  0
   56.6210   31.3370   44.8350 N   0  0  0  0  0  0  0  0  0  0  0  0
   56.1250   30.4050   43.8290 C   0  0  0  0  0  0  0  0  0  0  0  0
   56.6350   28.9850   44.0950 C   0  0  0  0  0  0  0  0  0  0  0  0
   55.9410   28.3820   45.2290 N   0  0  0  0  0  0  0  0  0  0  0  0
   56.2670   27.0980   45.7710 C   0  0  0  0  0  0  0  0  0  0  0  0
   55.3650   26.3510   46.2370 O   0  0  0  0  0  0  0  0  0  0  0  0
   57.6960   26.6610   45.8220 C   0  0  0  0  0  0  0  0  0  0  0  0
   58.5920   27.8480   46.0460 C   0  0  0  0  0  0  0  0  0  0  0  0
   58.3890   28.6890   47.1530 C   0  0  0  0  0  0  0  0  0  0  0  0
   59.2030   29.8110   47.3430 C   0  0  0  0  0  0  0  0  0  0  0  0
   60.2160   30.1050   46.4270 C   0  0  0  0  0  0  0  0  0  0  0  0
   60.4130   29.2810   45.3150 C   0  0  0  0  0  0  0  0  0  0  0  0
   59.6030   28.1580   45.1210 C   0  0  0  0  0  0  0  0  0  0  0  0
   57.6394   33.3646   47.6588 H   0  0  0  0  0  0  0  0  0  0  0  0
   56.5806   34.4575   46.7044 H   0  0  0  0  0  0  0  0  0  0  0  0
   56.2768   32.6871   46.7044 H   0  0  0  0  0  0  0  0  0  0  0  0
   59.5784   33.9980   44.4413 H   0  0  0  0  0  0  0  0  0  0  0  0
   58.7142   35.2617   45.3880 H   0  0  0  0  0  0  0  0  0  0  0  0
   61.8114   33.3043   45.4468 H   0  0  0  0  0  0  0  0  0  0  0  0
   61.6917   34.1223   49.6488 H   0  0  0  0  0  0  0  0  0  0  0  0
   55.0253   30.4023   43.8527 H   0  0  0  0  0  0  0  0  0  0  0  0
   56.4892   30.7285   42.8427 H   0  0  0  0  0  0  0  0  0  0  0  0
   56.4646   28.3684   43.2001 H   0  0  0  0  0  0  0  0  0  0  0  0
   57.7085   29.0371   44.3294 H   0  0  0  0  0  0  0  0  0  0  0  0
   57.8282   25.9447   46.6463 H   0  0  0  0  0  0  0  0  0  0  0  0
   57.9612   26.1851   44.8664 H   0  0  0  0  0  0  0  0  0  0  0  0
   57.5877   28.4647   47.8725 H   0  0  0  0  0  0  0  0  0  0  0  0
   59.0451   30.4627   48.2150 H   0  0  0  0  0  0  0  0  0  0  0  0
   60.8584   30.9846   46.5807 H   0  0  0  0  0  0  0  0  0  0  0  0
   61.2070   29.5167   44.5911 H   0  0  0  0  0  0  0  0  0  0  0  0
   59.7577   27.5154   44.2417 H   0  0  0  0  0  0  0  0  0  0  0  0
  1  2  1  0
  2  3  1  0
  3  4  1  0
  4  5  2  0
  5  6  1  0
  6  7  2  0
  7  8  1  0
  2  9  1  0
  9 10  2  0
  9 11  1  0
 11 12  1  0
 12 13  1  0
 13 14  1  0
 14 15  1  0
 15 16  2  0
 15 17  1  0
 17 18  1  0
 18 19  2  0
 19 20  1  0
 20 21  2  0
 21 22  1  0
 22 23  2  0
  8  4  1  0
 23 18  1  0
  1 24  1  0
  1 25  1  0
  1 26  1  0
  3 27  1  0
  3 28  1  0
  5 29  1  0
  7 30  1  0
 12 31  1  0
 12 32  1  0
 13 33  1  0
 13 34  1  0
 17 35  1  0
 17 36  1  0
 19 37  1  0
 20 38  1  0
 21 39  1  0
 22 40  1  0
 23 41  1  0
M  CHG  2  11  -1  14  -1
M  END
>  <UniqueID>  (39) 
39

>  <SMILES>  (39) 
CN(Cc1cncs1)C(=O)[N-]CC[N-]C(=O)Cc1ccccc1

>  <Energy>  (39) 
58.82327363822717

>  <Genealogy>  (39) 
CN(Cc1cncs1)C(=O)[N-]CC[N-]C(=O)Cc1ccccc1 (protonated)
CN(Cc1cncs1)C(=O)[N-]CC[N-]C(=O)Cc1ccccc1 (3D coordinates assigned)
CN(Cc1cncs1)C(=O)[N-]CC[N-]C(=O)Cc1ccccc1 (optimized conformer: 58.82327363822717 kcal/mol)

>  <smiles>  (39) 
CN(Cc1cncs1)C(=O)NCCNC(=O)Cc1ccccc1

>  <score_type>  (39) 
oracle

>  <origin>  (39) 
adg

>  <m_score__min__energy>  (39) 
-11.27

>  <m_primary>  (39) 
energy

$$$$
40:0
     RDKit          3D

 41 43  0  0  0  0  0  0  0  0999 V2000
   55.3420   29.9960   44.5030 O   0  0  0  0  0  0  0  0  0  0  0  0
   56.5800   30.2360   44.4950 C   0  0  0  0  0  0  0  0  0  0  0  0
   57.0380   31.6080   44.0390 C   0  0  0  0  0  0  0  0  0  0  0  0
   58.0740   32.2060   44.9110 N   0  0  0  0  0  0  0  0  0  0  0  0
   58.3110   33.6340   44.6480 C   0  0  0  0  0  0  0  0  0  0  0  0
   59.6490   34.0290   45.2720 C   0  0  0  0  0  0  0  0  0  0  0  0
   59.7770   33.4850   46.6300 N   0  0  0  0  0  0  0  0  0  0  0  0
   60.9830   33.7350   47.3750 C   0  0  0  0  0  0  0  0  0  0  0  0
   62.2350   33.5010   46.7840 C   0  0  0  0  0  0  0  0  0  0  0  0
   63.4110   33.7390   47.5010 C   0  0  0  0  0  0  0  0  0  0  0  0
   63.3490   34.2140   48.8120 C   0  0  0  0  0  0  0  0  0  0  0  0
   62.1090   34.4540   49.4090 C   0  0  0  0  0  0  0  0  0  0  0  0
   60.9280   34.2180   48.6980 C   0  0  0  0  0  0  0  0  0  0  0  0
   59.7350   34.4870   49.2880 F   0  0  0  0  0  0  0  0  0  0  0  0
   58.6130   32.8750   47.2890 C   0  0  0  0  0  0  0  0  0  0  0  0
   57.8760   31.8990   46.3470 C   0  0  0  0  0  0  0  0  0  0  0  0
   57.5210   29.1560   44.8950 C   0  0  0  0  0  0  0  0  0  0  0  0
   57.0870   28.0100   45.5920 C   0  0  0  0  0  0  0  0  0  0  0  0
   57.9990   27.0160   45.9580 C   0  0  0  0  0  0  0  0  0  0  0  0
   59.3510   27.1470   45.6310 C   0  0  0  0  0  0  0  0  0  0  0  0
   60.2330   26.1820   45.9890 F   0  0  0  0  0  0  0  0  0  0  0  0
   59.7920   28.2720   44.9310 C   0  0  0  0  0  0  0  0  0  0  0  0
   58.8850   29.2690   44.5610 C   0  0  0  0  0  0  0  0  0  0  0  0
   57.4485   31.5177   43.0225 H   0  0  0  0  0  0  0  0  0  0  0  0
   56.1610   32.2708   44.0781 H   0  0  0  0  0  0  0  0  0  0  0  0
   58.3416   33.8109   43.5627 H   0  0  0  0  0  0  0  0  0  0  0  0
   57.5004   34.2361   45.0843 H   0  0  0  0  0  0  0  0  0  0  0  0
   60.4663   33.6369   44.6489 H   0  0  0  0  0  0  0  0  0  0  0  0
   59.6995   35.1264   45.3277 H   0  0  0  0  0  0  0  0  0  0  0  0
   62.2907   33.1282   45.7506 H   0  0  0  0  0  0  0  0  0  0  0  0
   64.3877   33.5515   47.0310 H   0  0  0  0  0  0  0  0  0  0  0  0
   64.2758   34.3992   49.3747 H   0  0  0  0  0  0  0  0  0  0  0  0
   62.0613   34.8298   50.4417 H   0  0  0  0  0  0  0  0  0  0  0  0
   58.9536   32.3246   48.1784 H   0  0  0  0  0  0  0  0  0  0  0  0
   57.9149   33.6778   47.5686 H   0  0  0  0  0  0  0  0  0  0  0  0
   58.2459   30.8813   46.5404 H   0  0  0  0  0  0  0  0  0  0  0  0
   56.8002   31.9964   46.5550 H   0  0  0  0  0  0  0  0  0  0  0  0
   56.0235   27.8973   45.8495 H   0  0  0  0  0  0  0  0  0  0  0  0
   57.6511   26.1276   46.5054 H   0  0  0  0  0  0  0  0  0  0  0  0
   60.8558   28.3738   44.6702 H   0  0  0  0  0  0  0  0  0  0  0  0
   59.2391   30.1492   44.0044 H   0  0  0  0  0  0  0  0  0  0  0  0
  1  2  2  0
  2  3  1  0
  3  4  1  0
  4  5  1  0
  5  6  1  0
  6  7  1  0
  7  8  1  0
  8  9  2  0
  9 10  1  0
 10 11  2  0
 11 12  1  0
 12 13  2  0
 13 14  1  0
  7 15  1  0
 15 16  1  0
  2 17  1  0
 17 18  2  0
 18 19  1  0
 19 20  2  0
 20 21  1  0
 20 22  1  0
 22 23  2  0
 16  4  1  0
 23 17  1  0
 13  8  1  0
  3 24  1  0
  3 25  1  0
  5 26  1  0
  5 27  1  0
  6 28  1  0
  6 29  1  0
  9 30  1  0
 10 31  1  0
 11 32  1  0
 12 33  1  0
 15 34  1  0
 15 35  1  0
 16 36  1  0
 16 37  1  0
 18 38  1  0
 19 39  1  0
 22 40  1  0
 23 41  1  0
M  END
>  <UniqueID>  (40) 
40

>  <SMILES>  (40) 
O=C(CN1CCN(c2ccccc2F)CC1)c1ccc(F)cc1

>  <Energy>  (40) 
58.32877398338054

>  <Genealogy>  (40) 
O=C(CN1CCN(c2ccccc2F)CC1)c1ccc(F)cc1 (3D coordinates assigned)
O=C(CN1CCN(c2ccccc2F)CC1)c1ccc(F)cc1 (nonaromatic ring conformer: 58.32877398338054 kcal/mol)

>  <smiles>  (40) 
O=C(CN1CCN(c2ccccc2F)CC1)c1ccc(F)cc1

>  <score_type>  (40) 
oracle

>  <origin>  (40) 
adg

>  <m_score__min__energy>  (40) 
-7.5499999999999998

>  <m_primary>  (40) 
energy

$$$$
41:0
     RDKit          3D

 42 44  0  0  1  0  0  0  0  0999 V2000
   57.8640   27.4730   44.7010 C   0  0  0  0  0  0  0  0  0  0  0  0
   56.6300   27.6830   45.5650 C   0  0  0  0  0  0  0  0  0  0  0  0
   55.8790   28.7580   44.9030 N   0  0  0  0  0  0  0  0  0  0  0  0
   56.5060   29.7790   44.3860 C   0  0  0  0  0  0  0  0  0  0  0  0
   57.2960   30.4640   45.2290 N   0  0  0  0  0  0  0  0  0  0  0  0
   57.9840   31.5350   44.7820 C   0  0  0  0  0  0  0  0  0  0  0  0
   58.8420   32.2840   45.6880 C   0  0  0  0  0  0  0  0  0  0  0  0
   59.6480   31.6950   46.6400 C   0  0  0  0  0  0  0  0  0  0  0  0
   60.4460   32.4310   47.4790 C   0  0  0  0  0  0  0  0  0  0  0  0
   60.4510   33.8050   47.3750 C   0  0  0  0  0  0  0  0  0  0  0  0
   61.2460   34.5940   48.2070 O   0  0  0  0  0  0  0  0  0  0  0  0
   62.3220   34.0960   48.9180 C   0  0  0  0  0  0  0  0  0  0  0  0
   62.2910   34.0350   50.3010 C   0  0  0  0  0  0  0  0  0  0  0  0
   63.3790   33.5330   51.0180 C   0  0  0  0  0  0  0  0  0  0  0  0
   64.4900   33.0970   50.3060 C   0  0  0  0  0  0  0  0  0  0  0  0
   65.5290   32.6160   51.0200 F   0  0  0  0  0  0  0  0  0  0  0  0
   64.5040   33.1650   48.9230 C   0  0  0  0  0  0  0  0  0  0  0  0
   63.4160   33.6660   48.2390 C   0  0  0  0  0  0  0  0  0  0  0  0
   63.4330   33.7390   46.7350 C   0  0  0  0  0  0  0  0  0  0  0  0
   59.6600   34.4370   46.4360 C   0  0  0  0  0  0  0  0  0  0  0  0
   58.8710   33.6590   45.6110 C   0  0  0  0  0  0  0  0  0  0  0  0
   57.8210   31.8600   43.4530 C   0  0  0  0  0  0  0  0  0  0  0  0
   57.0050   31.1500   42.5920 C   0  0  0  0  0  0  0  0  0  0  0  0
   56.3440   30.0910   43.0910 N   0  0  0  0  0  0  0  0  0  0  0  0
   58.7423   27.3235   45.3462 H   0  0  0  0  0  0  0  0  0  0  0  0
   57.7204   26.5864   44.0660 H   0  0  0  0  0  0  0  0  0  0  0  0
   58.0218   28.3572   44.0660 H   0  0  0  0  0  0  0  0  0  0  0  0
   56.0288   26.7629   45.6102 H   0  0  0  0  0  0  0  0  0  0  0  0
   56.8914   27.9405   46.6020 H   0  0  0  0  0  0  0  0  0  0  0  0
   59.6510   30.5986   46.7295 H   0  0  0  0  0  0  0  0  0  0  0  0
   61.0761   31.9288   48.2279 H   0  0  0  0  0  0  0  0  0  0  0  0
   61.3992   34.3860   50.8409 H   0  0  0  0  0  0  0  0  0  0  0  0
   63.3573   33.4840   52.1167 H   0  0  0  0  0  0  0  0  0  0  0  0
   65.3873   32.8177   48.3670 H   0  0  0  0  0  0  0  0  0  0  0  0
   63.6721   34.7656   46.4204 H   0  0  0  0  0  0  0  0  0  0  0  0
   64.1944   33.0487   46.3430 H   0  0  0  0  0  0  0  0  0  0  0  0
   62.4449   33.4561   46.3430 H   0  0  0  0  0  0  0  0  0  0  0  0
   59.6582   35.5334   46.3471 H   0  0  0  0  0  0  0  0  0  0  0  0
   58.2396   34.1584   44.8614 H   0  0  0  0  0  0  0  0  0  0  0  0
   58.3678   32.7284   43.0570 H   0  0  0  0  0  0  0  0  0  0  0  0
   56.9003   31.4411   41.5364 H   0  0  0  0  0  0  0  0  0  0  0  0
   55.7000   29.4940   42.4970 H   0  0  0  0  0  0  0  0  0  0  0  0
  1  2  1  0
  2  3  1  0
  3  4  2  0
  4  5  1  0
  5  6  2  0
  6  7  1  0
  7  8  2  0
  8  9  1  0
  9 10  2  0
 10 11  1  0
 11 12  1  0
 12 13  2  0
 13 14  1  0
 14 15  2  0
 15 16  1  0
 15 17  1  0
 17 18  2  0
 18 19  1  0
 10 20  1  0
 20 21  2  0
  6 22  1  0
 22 23  2  0
 23 24  1  0
 24  4  1  0
 21  7  1  0
 18 12  1  0
  1 25  1  0
  1 26  1  0
  1 27  1  0
  2 28  1  0
  2 29  1  0
  8 30  1  0
  9 31  1  0
 13 32  1  0
 14 33  1  0
 17 34  1  0
 19 35  1  0
 19 36  1  0
 19 37  1  0
 20 38  1  0
 21 39  1  0
 22 40  1  0
 23 41  1  0
 24 42  1  0
M  END
>  <smiles>  (41) 
CCN=c1nc(-c2ccc(Oc3ccc(F)cc3C)cc2)cc[nH]1

>  <score_type>  (41) 
oracle

>  <origin>  (41) 
adg

>  <m_score__min__energy>  (41) 
-8.1300000000000008

>  <m_primary>  (41) 
energy

$$$$
42:0
     RDKit          3D

 39 41  0  0  0  0  0  0  0  0999 V2000
   56.6500   21.8320   42.6930 C   0  0  0  0  0  0  0  0  0  0  0  0
   56.3590   23.2690   43.0170 C   0  0  0  0  0  0  0  0  0  0  0  0
   57.2200   23.8220   44.0550 N   0  0  0  0  0  0  0  0  0  0  0  0
   57.9250   22.8530   44.8680 C   0  0  0  0  0  0  0  0  0  0  0  0
   59.2750   23.2850   45.3300 C   0  0  0  0  0  0  0  0  0  0  0  0
   57.3220   25.2370   44.2420 C   0  0  0  0  0  0  0  0  0  0  0  0
   56.9980   25.8440   45.4300 C   0  0  0  0  0  0  0  0  0  0  0  0
   57.1050   27.2280   45.6290 C   0  0  0  0  0  0  0  0  0  0  0  0
   57.5490   28.0350   44.6120 C   0  0  0  0  0  0  0  0  0  0  0  0
   57.6920   29.4770   44.7100 C   0  0  0  0  0  0  0  0  0  0  0  0
   57.5770   30.1560   45.8660 N   0  0  0  0  0  0  0  0  0  0  0  0
   57.7550   31.4620   45.6250 C   0  0  0  0  0  0  0  0  0  0  0  0
   57.7480   32.5990   46.3940 C   0  0  0  0  0  0  0  0  0  0  0  0
   57.9610   33.8600   45.8810 C   0  0  0  0  0  0  0  0  0  0  0  0
   58.1950   33.9950   44.5310 C   0  0  0  0  0  0  0  0  0  0  0  0
   58.2010   32.8520   43.7620 C   0  0  0  0  0  0  0  0  0  0  0  0
   57.9900   31.5940   44.2620 C   0  0  0  0  0  0  0  0  0  0  0  0
   57.9440   30.3640   43.7370 N   0  0  0  0  0  0  0  0  0  0  0  0
   57.8780   27.4460   43.4190 C   0  0  0  0  0  0  0  0  0  0  0  0
   57.7680   26.0570   43.2250 C   0  0  0  0  0  0  0  0  0  0  0  0
   56.7655   21.2618   43.6265 H   0  0  0  0  0  0  0  0  0  0  0  0
   55.8186   21.4125   42.1076 H   0  0  0  0  0  0  0  0  0  0  0  0
   57.5791   21.7690   42.1076 H   0  0  0  0  0  0  0  0  0  0  0  0
   56.4916   23.8649   42.1020 H   0  0  0  0  0  0  0  0  0  0  0  0
   55.3283   23.3098   43.3991 H   0  0  0  0  0  0  0  0  0  0  0  0
   57.3115   22.6411   45.7561 H   0  0  0  0  0  0  0  0  0  0  0  0
   58.0848   21.9720   44.2290 H   0  0  0  0  0  0  0  0  0  0  0  0
   59.3009   23.2933   46.4297 H   0  0  0  0  0  0  0  0  0  0  0  0
   60.0338   22.5848   44.9506 H   0  0  0  0  0  0  0  0  0  0  0  0
   59.4864   24.2956   44.9506 H   0  0  0  0  0  0  0  0  0  0  0  0
   56.6394   25.2184   46.2607 H   0  0  0  0  0  0  0  0  0  0  0  0
   56.8330   27.6667   46.6004 H   0  0  0  0  0  0  0  0  0  0  0  0
   57.5631   32.4985   47.4737 H   0  0  0  0  0  0  0  0  0  0  0  0
   57.9444   34.7423   46.5378 H   0  0  0  0  0  0  0  0  0  0  0  0
   58.3714   34.9832   44.0811 H   0  0  0  0  0  0  0  0  0  0  0  0
   58.3862   32.9555   42.6826 H   0  0  0  0  0  0  0  0  0  0  0  0
   58.0790   30.1110   42.7510 H   0  0  0  0  0  0  0  0  0  0  0  0
   58.2374   28.0757   42.5917 H   0  0  0  0  0  0  0  0  0  0  0  0
   58.0402   25.6199   42.2530 H   0  0  0  0  0  0  0  0  0  0  0  0
  1  2  1  0
  2  3  1  0
  3  4  1  0
  4  5  1  0
  3  6  1  0
  6  7  2  0
  7  8  1  0
  8  9  2  0
  9 10  1  0
 10 11  2  0
 11 12  1  0
 12 13  2  0
 13 14  1  0
 14 15  2  0
 15 16  1  0
 16 17  2  0
 17 18  1  0
  9 19  1  0
 19 20  2  0
 20  6  1  0
 18 10  1  0
 17 12  1  0
  1 21  1  0
  1 22  1  0
  1 23  1  0
  2 24  1  0
  2 25  1  0
  4 26  1  0
  4 27  1  0
  5 28  1  0
  5 29  1  0
  5 30  1  0
  7 31  1  0
  8 32  1  0
 13 33  1  0
 14 34  1  0
 15 35  1  0
 16 36  1  0
 18 37  1  0
 19 38  1  0
 20 39  1  0
M  END
>  <smiles>  (42) 
CCN(CC)c1ccc(-c2nc3ccccc3[nH]2)cc1

>  <score_type>  (42) 
oracle

>  <origin>  (42) 
adg

>  <m_score__min__energy>  (42) 
-6.8499999999999996

>  <m_primary>  (42) 
energy

$$$$
43:0
     RDKit          3D

 47 49  0  0  0  0  0  0  0  0999 V2000
   57.6540   32.1180   41.3550 C   0  0  0  0  0  0  0  0  0  0  0  0
   57.5980   32.1190   42.8500 C   0  0  0  0  0  0  0  0  0  0  0  0
   58.1370   33.0800   43.6790 C   0  0  0  0  0  0  0  0  0  0  0  0
   57.7880   32.6630   44.9520 C   0  0  0  0  0  0  0  0  0  0  0  0
   58.0930   33.3950   46.2320 C   0  0  1  0  0  0  0  0  0  0  0  0
   58.1510   32.3970   47.4100 C   0  0  0  0  0  0  0  0  0  0  0  0
   58.9810   32.9730   48.5650 C   0  0  0  0  0  0  0  0  0  0  0  0
   60.4020   33.2350   48.1840 N   0  0  1  0  0  0  0  0  0  0  0  0
   61.3110   32.1410   48.6250 C   0  0  0  0  0  0  0  0  0  0  0  0
   62.5290   32.6620   49.3780 C   0  0  0  0  0  0  0  0  0  0  0  0
   63.7700   32.6620   48.7140 C   0  0  0  0  0  0  0  0  0  0  0  0
   64.9290   33.0890   49.3590 C   0  0  0  0  0  0  0  0  0  0  0  0
   64.8690   33.5420   50.6720 C   0  0  0  0  0  0  0  0  0  0  0  0
   63.6470   33.5870   51.3420 C   0  0  0  0  0  0  0  0  0  0  0  0
   62.4590   33.1530   50.7180 C   0  0  0  0  0  0  0  0  0  0  0  0
   61.1370   33.3260   51.4500 C   0  0  0  0  0  0  0  0  0  0  0  0
   60.2980   34.2100   50.7930 F   0  0  0  0  0  0  0  0  0  0  0  0
   61.3410   33.8180   52.7240 F   0  0  0  0  0  0  0  0  0  0  0  0
   60.4930   32.1050   51.5300 F   0  0  0  0  0  0  0  0  0  0  0  0
   60.5850   33.4830   46.7270 C   0  0  0  0  0  0  0  0  0  0  0  0
   59.3920   34.2270   46.1130 C   0  0  0  0  0  0  0  0  0  0  0  0
   57.0610   31.5270   44.8830 N   0  0  0  0  0  0  0  0  0  0  0  0
   56.9520   31.2060   43.6040 N   0  0  0  0  0  0  0  0  0  0  0  0
   56.2290   30.0340   43.1240 C   0  0  0  0  0  0  0  0  0  0  0  0
   58.7039   32.0993   41.0274 H   0  0  0  0  0  0  0  0  0  0  0  0
   57.1336   31.2290   40.9692 H   0  0  0  0  0  0  0  0  0  0  0  0
   57.1657   33.0250   40.9692 H   0  0  0  0  0  0  0  0  0  0  0  0
   58.7124   33.9732   43.3941 H   0  0  0  0  0  0  0  0  0  0  0  0
   57.2811   34.1103   46.4300 H   0  0  0  0  0  0  0  0  0  0  0  0
   58.6113   31.4588   47.0667 H   0  0  0  0  0  0  0  0  0  0  0  0
   57.1276   32.2100   47.7673 H   0  0  0  0  0  0  0  0  0  0  0  0
   58.9675   32.2559   49.3990 H   0  0  0  0  0  0  0  0  0  0  0  0
   58.5312   33.9364   48.8471 H   0  0  0  0  0  0  0  0  0  0  0  0
   60.6830   34.1170   48.6750 H   0  0  0  0  0  0  0  0  0  0  0  0
   60.7516   31.4624   49.2857 H   0  0  0  0  0  0  0  0  0  0  0  0
   61.6715   31.6226   47.7243 H   0  0  0  0  0  0  0  0  0  0  0  0
   63.8258   32.3197   47.6701 H   0  0  0  0  0  0  0  0  0  0  0  0
   65.8925   33.0676   48.8287 H   0  0  0  0  0  0  0  0  0  0  0  0
   65.7875   33.8656   51.1834 H   0  0  0  0  0  0  0  0  0  0  0  0
   63.6089   33.9670   52.3736 H   0  0  0  0  0  0  0  0  0  0  0  0
   60.7018   32.5166   46.2148 H   0  0  0  0  0  0  0  0  0  0  0  0
   61.4780   34.1128   46.6005 H   0  0  0  0  0  0  0  0  0  0  0  0
   59.5982   34.4204   45.0499 H   0  0  0  0  0  0  0  0  0  0  0  0
   59.2520   35.1717   46.6588 H   0  0  0  0  0  0  0  0  0  0  0  0
   55.8680   29.4488   43.9826 H   0  0  0  0  0  0  0  0  0  0  0  0
   55.3724   30.3561   42.5137 H   0  0  0  0  0  0  0  0  0  0  0  0
   56.9012   29.4130   42.5137 H   0  0  0  0  0  0  0  0  0  0  0  0
  1  2  1  0
  2  3  2  0
  3  4  1  0
  4  5  1  0
  5  6  1  0
  6  7  1  0
  7  8  1  0
  8  9  1  0
  9 10  1  0
 10 11  2  0
 11 12  1  0
 12 13  2  0
 13 14  1  0
 14 15  2  0
 15 16  1  0
 16 17  1  0
 16 18  1  0
 16 19  1  0
  8 20  1  0
 20 21  1  0
  4 22  2  0
 22 23  1  0
 23 24  1  0
 23  2  1  0
 21  5  1  0
 15 10  1  0
  1 25  1  0
  1 26  1  0
  1 27  1  0
  3 28  1  0
  5 29  1  1
  6 30  1  0
  6 31  1  0
  7 32  1  0
  7 33  1  0
  8 34  1  1
  9 35  1  0
  9 36  1  0
 11 37  1  0
 12 38  1  0
 13 39  1  0
 14 40  1  0
 20 41  1  0
 20 42  1  0
 21 43  1  0
 21 44  1  0
 24 45  1  0
 24 46  1  0
 24 47  1  0
M  CHG  1   8   1
M  END
>  <UniqueID>  (43) 
41

>  <SMILES>  (43) 
Cc1cc(C2CC[NH+](Cc3ccccc3C(F)(F)F)CC2)nn1C

>  <Energy>  (43) 
90.09656082615167

>  <Genealogy>  (43) 
Cc1cc(C2CC[NH+](Cc3ccccc3C(F)(F)F)CC2)nn1C (protonated)
Cc1cc(C2CC[NH+](Cc3ccccc3C(F)(F)F)CC2)nn1C (3D coordinates assigned)
Cc1cc(C2CC[NH+](Cc3ccccc3C(F)(F)F)CC2)nn1C (nonaromatic ring conformer: 90.09656082615167 kcal/mol)

>  <smiles>  (43) 
Cc1cc(C2CCN(Cc3ccccc3C(F)(F)F)CC2)nn1C

>  <score_type>  (43) 
oracle

>  <origin>  (43) 
adg

>  <m_score__min__energy>  (43) 
-6.0999999999999996

>  <m_primary>  (43) 
energy

$$$$
