0:0
     RDKit          3D

 36 37  0  0  0  0  0  0  0  0999 V2000
   56.1910   24.4160   44.6180 C   0  0  0  0  0  0  0  0  0  0  0  0
   55.1060   24.9080   45.5690 C   0  0  0  0  0  0  0  0  0  0  0  0
   55.3940   26.2230   46.0050 O   0  0  0  0  0  0  0  0  0  0  0  0
   56.6930   26.2890   46.5560 C   0  0  0  0  0  0  0  0  0  0  0  0
   57.3490   27.6000   46.1320 C   0  0  0  0  0  0  0  0  0  0  0  0
   56.4800   28.3130   45.1930 N   0  0  0  0  0  0  0  0  0  0  0  0
   57.4390   29.0200   43.9270 S   0  0  0  0  0  0  0  0  0  0  0  0
   58.6940   28.2130   43.7470 O   0  0  0  0  0  0  0  0  0  0  0  0
   56.6690   28.9950   42.6360 O   0  0  0  0  0  0  0  0  0  0  0  0
   57.8740   30.6780   44.3410 C   0  0  0  0  0  0  0  0  0  0  0  0
   57.7590   31.7000   43.3900 C   0  0  0  0  0  0  0  0  0  0  0  0
   58.0860   33.0180   43.7260 C   0  0  0  0  0  0  0  0  0  0  0  0
   58.5260   33.3260   45.0210 C   0  0  0  0  0  0  0  0  0  0  0  0
   58.8550   34.6450   45.3700 C   0  0  0  0  0  0  0  0  0  0  0  0
   59.2910   34.9400   46.6650 C   0  0  0  0  0  0  0  0  0  0  0  0
   59.4000   33.9250   47.6190 C   0  0  0  0  0  0  0  0  0  0  0  0
   59.0760   32.6060   47.2840 C   0  0  0  0  0  0  0  0  0  0  0  0
   58.6380   32.2960   45.9870 C   0  0  0  0  0  0  0  0  0  0  0  0
   58.3080   30.9780   45.6380 C   0  0  0  0  0  0  0  0  0  0  0  0
   57.0412   24.0305   45.1998 H   0  0  0  0  0  0  0  0  0  0  0  0
   55.7864   23.6133   43.9840 H   0  0  0  0  0  0  0  0  0  0  0  0
   56.5283   25.2492   43.9840 H   0  0  0  0  0  0  0  0  0  0  0  0
   54.1372   24.9025   45.0481 H   0  0  0  0  0  0  0  0  0  0  0  0
   55.0677   24.2416   46.4433 H   0  0  0  0  0  0  0  0  0  0  0  0
   56.6303   26.2465   47.6534 H   0  0  0  0  0  0  0  0  0  0  0  0
   57.2926   25.4406   46.1944 H   0  0  0  0  0  0  0  0  0  0  0  0
   57.5181   28.2268   47.0200 H   0  0  0  0  0  0  0  0  0  0  0  0
   58.3092   27.3818   45.6417 H   0  0  0  0  0  0  0  0  0  0  0  0
   55.8490   27.6140   44.7370 H   0  0  0  0  0  0  0  0  0  0  0  0
   57.4098   31.4650   42.3737 H   0  0  0  0  0  0  0  0  0  0  0  0
   57.9977   33.8145   42.9725 H   0  0  0  0  0  0  0  0  0  0  0  0
   58.7696   35.4481   44.6232 H   0  0  0  0  0  0  0  0  0  0  0  0
   59.5492   35.9749   46.9339 H   0  0  0  0  0  0  0  0  0  0  0  0
   59.7417   34.1639   48.6369 H   0  0  0  0  0  0  0  0  0  0  0  0
   59.1646   31.8104   48.0384 H   0  0  0  0  0  0  0  0  0  0  0  0
   58.3906   30.1764   46.3868 H   0  0  0  0  0  0  0  0  0  0  0  0
  1  2  1  0
  2  3  1  0
  3  4  1  0
  4  5  1  0
  5  6  1  0
  6  7  1  0
  7  8  2  0
  7  9  2  0
  7 10  1  0
 10 11  2  0
 11 12  1  0
 12 13  2  0
 13 14  1  0
 14 15  2  0
 15 16  1  0
 16 17  2  0
 17 18  1  0
 18 19  2  0
 19 10  1  0
 18 13  1  0
  1 20  1  0
  1 21  1  0
  1 22  1  0
  2 23  1  0
  2 24  1  0
  4 25  1  0
  4 26  1  0
  5 27  1  0
  5 28  1  0
  6 29  1  0
 11 30  1  0
 12 31  1  0
 14 32  1  0
 15 33  1  0
 16 34  1  0
 17 35  1  0
 19 36  1  0
M  END
>  <UniqueID>  (1) 
1

>  <SMILES>  (1) 
CCOCCNS(=O)(=O)c1ccc2ccccc2c1

>  <Energy>  (1) 
33.492478823303394

>  <Genealogy>  (1) 
CCOCCNS(=O)(=O)c1ccc2ccccc2c1 (3D coordinates assigned)
CCOCCNS(=O)(=O)c1ccc2ccccc2c1 (optimized conformer: 33.492478823303394 kcal/mol)

>  <smiles>  (1) 
CCOCCNS(=O)(=O)c1ccc2ccccc2c1

>  <score_type>  (1) 
oracle

>  <origin>  (1) 
adg

>  <m_score__min__energy>  (1) 
-7.9699999999999998

>  <m_primary>  (1) 
energy

$$$$
1:0
     RDKit          3D

 40 43  0  0  0  0  0  0  0  0999 V2000
   56.9410   19.7110   46.1120 Cl  0  0  0  0  0  0  0  0  0  0  0  0
   56.7780   21.0750   45.0200 C   0  0  0  0  0  0  0  0  0  0  0  0
   56.7800   20.8670   43.6380 C   0  0  0  0  0  0  0  0  0  0  0  0
   56.6500   21.9520   42.7680 C   0  0  0  0  0  0  0  0  0  0  0  0
   56.5180   23.2490   43.2760 C   0  0  0  0  0  0  0  0  0  0  0  0
   56.5140   23.4680   44.6650 C   0  0  0  0  0  0  0  0  0  0  0  0
   56.3760   24.8330   45.2090 C   0  0  0  0  0  0  0  0  0  0  0  0
   57.1650   25.8710   44.8680 N   0  0  0  0  0  0  0  0  0  0  0  0
   56.6440   26.8660   45.6180 C   0  0  0  0  0  0  0  0  0  0  0  0
   57.1580   28.2520   45.6190 C   0  0  0  0  0  0  0  0  0  0  0  0
   58.1240   28.6540   46.5570 C   0  0  0  0  0  0  0  0  0  0  0  0
   58.6110   29.9640   46.5570 C   0  0  0  0  0  0  0  0  0  0  0  0
   58.1420   30.8970   45.6180 C   0  0  0  0  0  0  0  0  0  0  0  0
   58.6450   32.2480   45.6270 N   0  0  0  0  0  0  0  0  0  0  0  0
   58.3740   33.1450   44.5010 C   0  0  0  0  0  0  0  0  0  0  0  0
   58.3730   34.5970   44.9880 C   0  0  0  0  0  0  0  0  0  0  0  0
   59.5610   34.8910   45.6990 O   0  0  0  0  0  0  0  0  0  0  0  0
   59.6140   34.1160   46.8820 C   0  0  0  0  0  0  0  0  0  0  0  0
   59.7180   32.6240   46.5520 C   0  0  0  0  0  0  0  0  0  0  0  0
   57.1730   30.4970   44.6840 C   0  0  0  0  0  0  0  0  0  0  0  0
   56.6870   29.1870   44.6830 C   0  0  0  0  0  0  0  0  0  0  0  0
   55.6020   26.4500   46.3650 N   0  0  0  0  0  0  0  0  0  0  0  0
   55.4680   25.1900   46.0840 O   0  0  0  0  0  0  0  0  0  0  0  0
   56.6460   22.3710   45.5340 C   0  0  0  0  0  0  0  0  0  0  0  0
   56.8840   19.8486   43.2353 H   0  0  0  0  0  0  0  0  0  0  0  0
   56.6514   21.7863   41.6805 H   0  0  0  0  0  0  0  0  0  0  0  0
   56.4170   24.1001   42.5865 H   0  0  0  0  0  0  0  0  0  0  0  0
   58.4998   27.9321   47.2970 H   0  0  0  0  0  0  0  0  0  0  0  0
   59.3665   30.2662   47.2972 H   0  0  0  0  0  0  0  0  0  0  0  0
   59.1531   33.0165   43.7351 H   0  0  0  0  0  0  0  0  0  0  0  0
   57.3907   32.9038   44.0709 H   0  0  0  0  0  0  0  0  0  0  0  0
   58.2972   35.2682   44.1198 H   0  0  0  0  0  0  0  0  0  0  0  0
   57.5151   34.7419   45.6610 H   0  0  0  0  0  0  0  0  0  0  0  0
   60.4929   34.4170   47.4710 H   0  0  0  0  0  0  0  0  0  0  0  0
   58.6912   34.2861   47.4560 H   0  0  0  0  0  0  0  0  0  0  0  0
   60.6925   32.4198   46.0844 H   0  0  0  0  0  0  0  0  0  0  0  0
   59.6233   32.0380   47.4781 H   0  0  0  0  0  0  0  0  0  0  0  0
   56.7935   31.2205   43.9474 H   0  0  0  0  0  0  0  0  0  0  0  0
   55.9301   28.8859   43.9438 H   0  0  0  0  0  0  0  0  0  0  0  0
   56.6456   22.5312   46.6223 H   0  0  0  0  0  0  0  0  0  0  0  0
  1  2  1  0
  2  3  2  0
  3  4  1  0
  4  5  2  0
  5  6  1  0
  6  7  1  0
  7  8  2  0
  8  9  1  0
  9 10  1  0
 10 11  2  0
 11 12  1  0
 12 13  2  0
 13 14  1  0
 14 15  1  0
 15 16  1  0
 16 17  1  0
 17 18  1  0
 18 19  1  0
 13 20  1  0
 20 21  2  0
  9 22  2  0
 22 23  1  0
  6 24  2  0
 24  2  1  0
 23  7  1  0
 21 10  1  0
 19 14  1  0
  3 25  1  0
  4 26  1  0
  5 27  1  0
 11 28  1  0
 12 29  1  0
 15 30  1  0
 15 31  1  0
 16 32  1  0
 16 33  1  0
 18 34  1  0
 18 35  1  0
 19 36  1  0
 19 37  1  0
 20 38  1  0
 21 39  1  0
 24 40  1  0
M  END
>  <UniqueID>  (2) 
2

>  <SMILES>  (2) 
Clc1cccc(-c2nc(-c3ccc(N4CCOCC4)cc3)no2)c1

>  <Energy>  (2) 
82.54176116523722

>  <Genealogy>  (2) 
Clc1cccc(-c2nc(-c3ccc(N4CCOCC4)cc3)no2)c1 (3D coordinates assigned)
Clc1cccc(-c2nc(-c3ccc(N4CCOCC4)cc3)no2)c1 (nonaromatic ring conformer: 82.54176116523722 kcal/mol)

>  <smiles>  (2) 
Clc1cccc(-c2nc(-c3ccc(N4CCOCC4)cc3)no2)c1

>  <score_type>  (2) 
oracle

>  <origin>  (2) 
adg

>  <m_score__min__energy>  (2) 
-8.8599999999999994

>  <m_primary>  (2) 
energy

$$$$
2:0
     RDKit          3D

 54 57  0  0  0  0  0  0  0  0999 V2000
   61.1720   33.8410   50.5090 C   0  0  0  0  0  0  0  0  0  0  0  0
   60.0620   33.8550   49.4660 C   0  0  0  0  0  0  0  0  0  0  0  0
   60.6080   33.8630   48.1000 N   0  0  0  0  0  0  0  0  0  0  0  0
   62.0300   34.2160   47.9290 C   0  0  0  0  0  0  0  0  0  0  0  0
   62.7330   33.5340   46.7340 C   0  0  0  0  0  0  0  0  0  0  0  0
   63.5550   32.3600   47.1040 N   0  0  0  0  0  0  0  0  0  0  0  0
   63.0930   31.7180   48.3310 C   0  0  0  0  0  0  0  0  0  0  0  0
   61.9030   30.9350   48.3590 C   0  0  0  0  0  0  0  0  0  0  0  0
   61.0740   30.7820   47.2200 C   0  0  0  0  0  0  0  0  0  0  0  0
   59.8920   30.0500   47.2730 C   0  0  0  0  0  0  0  0  0  0  0  0
   59.4880   29.4680   48.4630 C   0  0  0  0  0  0  0  0  0  0  0  0
   60.2810   29.5890   49.5990 C   0  0  0  0  0  0  0  0  0  0  0  0
   61.5190   30.2820   49.5660 C   0  0  0  0  0  0  0  0  0  0  0  0
   62.3300   30.3390   50.6820 N   0  0  0  0  0  0  0  0  0  0  0  0
   62.0990   29.4140   51.8180 C   0  0  0  0  0  0  0  0  0  0  0  0
   63.3760   31.2360   50.7300 C   0  0  0  0  0  0  0  0  0  0  0  0
   64.0310   31.5300   51.9550 C   0  0  0  0  0  0  0  0  0  0  0  0
   65.1330   32.3780   51.9990 C   0  0  0  0  0  0  0  0  0  0  0  0
   65.6090   32.9570   50.8310 C   0  0  0  0  0  0  0  0  0  0  0  0
   64.9630   32.7250   49.6180 C   0  0  0  0  0  0  0  0  0  0  0  0
   63.8140   31.8950   49.5460 C   0  0  0  0  0  0  0  0  0  0  0  0
   59.6630   33.9450   47.0180 C   0  0  0  0  0  0  0  0  0  0  0  0
   59.8960   34.8020   45.9320 C   0  0  0  0  0  0  0  0  0  0  0  0
   58.9470   34.9190   44.9130 C   0  0  0  0  0  0  0  0  0  0  0  0
   57.7550   34.1950   44.9820 C   0  0  0  0  0  0  0  0  0  0  0  0
   57.5080   33.3540   46.0700 C   0  0  0  0  0  0  0  0  0  0  0  0
   58.4530   33.2390   47.0930 C   0  0  0  0  0  0  0  0  0  0  0  0
   60.7291   33.8466   51.5159 H   0  0  0  0  0  0  0  0  0  0  0  0
   61.7829   32.9351   50.3822 H   0  0  0  0  0  0  0  0  0  0  0  0
   61.8056   34.7312   50.3822 H   0  0  0  0  0  0  0  0  0  0  0  0
   59.4373   32.9590   49.5963 H   0  0  0  0  0  0  0  0  0  0  0  0
   59.4673   34.7697   49.6061 H   0  0  0  0  0  0  0  0  0  0  0  0
   62.0967   35.3049   47.7880 H   0  0  0  0  0  0  0  0  0  0  0  0
   62.5459   33.8602   48.8330 H   0  0  0  0  0  0  0  0  0  0  0  0
   61.9618   33.2048   46.0220 H   0  0  0  0  0  0  0  0  0  0  0  0
   63.4196   34.2782   46.3041 H   0  0  0  0  0  0  0  0  0  0  0  0
   63.6510   31.7040   46.3040 H   0  0  0  0  0  0  0  0  0  0  0  0
   64.5430   32.6700   47.2420 H   0  0  0  0  0  0  0  0  0  0  0  0
   61.3720   31.2530   46.2717 H   0  0  0  0  0  0  0  0  0  0  0  0
   59.2774   29.9333   46.3682 H   0  0  0  0  0  0  0  0  0  0  0  0
   58.5408   28.9106   48.5096 H   0  0  0  0  0  0  0  0  0  0  0  0
   59.9415   29.1380   50.5431 H   0  0  0  0  0  0  0  0  0  0  0  0
   62.2344   29.9560   52.7656 H   0  0  0  0  0  0  0  0  0  0  0  0
   61.0743   29.0176   51.7655 H   0  0  0  0  0  0  0  0  0  0  0  0
   62.8170   28.5823   51.7655 H   0  0  0  0  0  0  0  0  0  0  0  0
   63.6600   31.0787   52.8870 H   0  0  0  0  0  0  0  0  0  0  0  0
   65.6267   32.5894   52.9590 H   0  0  0  0  0  0  0  0  0  0  0  0
   66.4997   33.6016   50.8627 H   0  0  0  0  0  0  0  0  0  0  0  0
   65.3502   33.1931   48.7010 H   0  0  0  0  0  0  0  0  0  0  0  0
   60.8284   35.3835   45.8825 H   0  0  0  0  0  0  0  0  0  0  0  0
   59.1390   35.5816   44.0562 H   0  0  0  0  0  0  0  0  0  0  0  0
   57.0093   34.2869   44.1785 H   0  0  0  0  0  0  0  0  0  0  0  0
   56.5696   32.7824   46.1213 H   0  0  0  0  0  0  0  0  0  0  0  0
   58.2476   32.5932   47.9594 H   0  0  0  0  0  0  0  0  0  0  0  0
  1  2  1  0
  2  3  1  0
  3  4  1  0
  4  5  1  0
  5  6  1  0
  6  7  1  0
  7  8  1  0
  8  9  2  0
  9 10  1  0
 10 11  2  0
 11 12  1  0
 12 13  2  0
 13 14  1  0
 14 15  1  0
 14 16  2  0
 16 17  1  0
 17 18  2  0
 18 19  1  0
 19 20  2  0
 20 21  1  0
  3 22  1  0
 22 23  2  0
 23 24  1  0
 24 25  2  0
 25 26  1  0
 26 27  2  0
 21  7  2  0
 27 22  1  0
 13  8  1  0
 21 16  1  0
  1 28  1  0
  1 29  1  0
  1 30  1  0
  2 31  1  0
  2 32  1  0
  4 33  1  0
  4 34  1  0
  5 35  1  0
  5 36  1  0
  6 37  1  0
  6 38  1  0
  9 39  1  0
 10 40  1  0
 11 41  1  0
 12 42  1  0
 15 43  1  0
 15 44  1  0
 15 45  1  0
 17 46  1  0
 18 47  1  0
 19 48  1  0
 20 49  1  0
 23 50  1  0
 24 51  1  0
 25 52  1  0
 26 53  1  0
 27 54  1  0
M  CHG  2   6   1  14   1
M  END
>  <UniqueID>  (3) 
3

>  <SMILES>  (3) 
CCN(CC[NH2+]c1c2ccccc2[n+](C)c2ccccc12)c1ccccc1

>  <Energy>  (3) 
91.38227664484889

>  <Genealogy>  (3) 
CCN(CC[NH2+]c1c2ccccc2[n+](C)c2ccccc12)c1ccccc1 (protonated)
CCN(CC[NH2+]c1c2ccccc2[n+](C)c2ccccc12)c1ccccc1 (3D coordinates assigned)
CCN(CC[NH2+]c1c2ccccc2[n+](C)c2ccccc12)c1ccccc1 (optimized conformer: 91.38227664484889 kcal/mol)

>  <smiles>  (3) 
CCN(CCNc1c2ccccc2[n+](C)c2ccccc12)c1ccccc1

>  <score_type>  (3) 
oracle

>  <origin>  (3) 
adg

>  <m_score__min__energy>  (3) 
-5.0800000000000001

>  <m_primary>  (3) 
energy

$$$$
3:0
     RDKit          3D

 45 48  0  0  0  0  0  0  0  0999 V2000
   58.9440   34.5890   46.1590 C   0  0  0  0  0  0  0  0  0  0  0  0
   58.9470   34.1580   44.8020 O   0  0  0  0  0  0  0  0  0  0  0  0
   58.4390   32.9270   44.3610 C   0  0  0  0  0  0  0  0  0  0  0  0
   57.8540   32.7630   43.0920 C   0  0  0  0  0  0  0  0  0  0  0  0
   57.3600   31.5170   42.7030 C   0  0  0  0  0  0  0  0  0  0  0  0
   57.4430   30.4250   43.5680 C   0  0  0  0  0  0  0  0  0  0  0  0
   58.0240   30.5680   44.8400 C   0  0  0  0  0  0  0  0  0  0  0  0
   58.1150   29.4070   45.7640 C   0  0  0  0  0  0  0  0  0  0  0  0
   58.8010   29.5180   46.9830 C   0  0  0  0  0  0  0  0  0  0  0  0
   58.8670   28.4180   47.8510 C   0  0  0  0  0  0  0  0  0  0  0  0
   59.5920   28.4940   49.1410 C   0  0  0  0  0  0  0  0  0  0  0  0
   60.6410   27.5900   49.3910 C   0  0  0  0  0  0  0  0  0  0  0  0
   61.3470   27.6390   50.5950 C   0  0  0  0  0  0  0  0  0  0  0  0
   61.0090   28.5810   51.5680 C   0  0  0  0  0  0  0  0  0  0  0  0
   59.9580   29.4710   51.3410 C   0  0  0  0  0  0  0  0  0  0  0  0
   59.2410   29.4280   50.1400 C   0  0  0  0  0  0  0  0  0  0  0  0
   58.1680   30.2950   49.9660 O   0  0  0  0  0  0  0  0  0  0  0  0
   58.2910   27.2420   47.4810 N   0  0  0  0  0  0  0  0  0  0  0  0
   57.6230   27.0880   46.3050 C   0  0  0  0  0  0  0  0  0  0  0  0
   57.0190   25.7730   45.9730 C   0  0  0  0  0  0  0  0  0  0  0  0
   57.8380   24.6410   45.7870 C   0  0  0  0  0  0  0  0  0  0  0  0
   57.2740   23.3970   45.4920 C   0  0  0  0  0  0  0  0  0  0  0  0
   55.8900   23.2640   45.3800 C   0  0  0  0  0  0  0  0  0  0  0  0
   55.0640   24.3740   45.5660 C   0  0  0  0  0  0  0  0  0  0  0  0
   55.6190   25.6260   45.8600 C   0  0  0  0  0  0  0  0  0  0  0  0
   54.7690   26.7160   46.0200 O   0  0  0  0  0  0  0  0  0  0  0  0
   57.5180   28.1810   45.4290 C   0  0  0  0  0  0  0  0  0  0  0  0
   58.5200   31.8270   45.2240 C   0  0  0  0  0  0  0  0  0  0  0  0
   58.9501   33.7116   46.8224 H   0  0  0  0  0  0  0  0  0  0  0  0
   59.8379   35.2004   46.3515 H   0  0  0  0  0  0  0  0  0  0  0  0
   58.0417   35.1880   46.3515 H   0  0  0  0  0  0  0  0  0  0  0  0
   57.7858   33.6191   42.4046 H   0  0  0  0  0  0  0  0  0  0  0  0
   56.9030   31.3951   41.7099 H   0  0  0  0  0  0  0  0  0  0  0  0
   57.0515   29.4466   43.2526 H   0  0  0  0  0  0  0  0  0  0  0  0
   59.2863   30.4662   47.2576 H   0  0  0  0  0  0  0  0  0  0  0  0
   60.9069   26.8391   48.6324 H   0  0  0  0  0  0  0  0  0  0  0  0
   62.1713   26.9337   50.7769 H   0  0  0  0  0  0  0  0  0  0  0  0
   61.5705   28.6219   52.5130 H   0  0  0  0  0  0  0  0  0  0  0  0
   59.6918   30.2105   52.1106 H   0  0  0  0  0  0  0  0  0  0  0  0
   58.9302   24.7377   45.8748 H   0  0  0  0  0  0  0  0  0  0  0  0
   57.9229   22.5206   45.3478 H   0  0  0  0  0  0  0  0  0  0  0  0
   55.4492   22.2840   45.1450 H   0  0  0  0  0  0  0  0  0  0  0  0
   53.9727   24.2649   45.4813 H   0  0  0  0  0  0  0  0  0  0  0  0
   56.9687   28.0766   44.4817 H   0  0  0  0  0  0  0  0  0  0  0  0
   58.9782   31.9493   46.2165 H   0  0  0  0  0  0  0  0  0  0  0  0
  1  2  1  0
  2  3  1  0
  3  4  2  0
  4  5  1  0
  5  6  2  0
  6  7  1  0
  7  8  1  0
  8  9  2  0
  9 10  1  0
 10 11  1  0
 11 12  2  0
 12 13  1  0
 13 14  2  0
 14 15  1  0
 15 16  2  0
 16 17  1  0
 10 18  2  0
 18 19  1  0
 19 20  1  0
 20 21  2  0
 21 22  1  0
 22 23  2  0
 23 24  1  0
 24 25  2  0
 25 26  1  0
 19 27  2  0
  7 28  2  0
 28  3  1  0
 27  8  1  0
 16 11  1  0
 25 20  1  0
  1 29  1  0
  1 30  1  0
  1 31  1  0
  4 32  1  0
  5 33  1  0
  6 34  1  0
  9 35  1  0
 12 36  1  0
 13 37  1  0
 14 38  1  0
 15 39  1  0
 21 40  1  0
 22 41  1  0
 23 42  1  0
 24 43  1  0
 27 44  1  0
 28 45  1  0
M  CHG  2  17  -1  26  -1
M  END
>  <UniqueID>  (4) 
4

>  <SMILES>  (4) 
COc1cccc(-c2cc(-c3ccccc3[O-])nc(-c3ccccc3[O-])c2)c1

>  <Energy>  (4) 
66.06143133218202

>  <Genealogy>  (4) 
COc1cccc(-c2cc(-c3ccccc3[O-])nc(-c3ccccc3[O-])c2)c1 (protonated)
COc1cccc(-c2cc(-c3ccccc3[O-])nc(-c3ccccc3[O-])c2)c1 (3D coordinates assigned)
COc1cccc(-c2cc(-c3ccccc3[O-])nc(-c3ccccc3[O-])c2)c1 (optimized conformer: 66.06143133218202 kcal/mol)

>  <smiles>  (4) 
COc1cccc(-c2cc(-c3ccccc3O)nc(-c3ccccc3O)c2)c1

>  <score_type>  (4) 
oracle

>  <origin>  (4) 
adg

>  <m_score__min__energy>  (4) 
-14.25

>  <m_primary>  (4) 
energy

$$$$
4:0
     RDKit          3D

 20 21  0  0  0  0  0  0  0  0999 V2000
   54.8110   25.2090   45.6240 C   0  0  0  0  0  0  0  0  0  0  0  0
   55.1900   26.5300   45.9960 O   0  0  0  0  0  0  0  0  0  0  0  0
   56.4990   27.0320   45.9180 C   0  0  0  0  0  0  0  0  0  0  0  0
   57.6050   26.3270   46.4340 C   0  0  0  0  0  0  0  0  0  0  0  0
   58.8940   26.8620   46.3370 C   0  0  0  0  0  0  0  0  0  0  0  0
   59.1000   28.1010   45.7260 C   0  0  0  0  0  0  0  0  0  0  0  0
   58.0130   28.8110   45.2100 C   0  0  0  0  0  0  0  0  0  0  0  0
   58.1980   30.0190   44.6130 N   0  0  0  0  0  0  0  0  0  0  0  0
   57.1480   30.7200   44.1070 C   0  0  0  0  0  0  0  0  0  0  0  0
   55.8580   30.1930   44.2000 C   0  0  0  0  0  0  0  0  0  0  0  0
   55.6660   28.9860   44.7960 N   0  0  0  0  0  0  0  0  0  0  0  0
   56.7100   28.2770   45.3060 C   0  0  0  0  0  0  0  0  0  0  0  0
   54.6387   24.6083   46.5293 H   0  0  0  0  0  0  0  0  0  0  0  0
   53.8874   25.2467   45.0277 H   0  0  0  0  0  0  0  0  0  0  0  0
   55.6141   24.7513   45.0277 H   0  0  0  0  0  0  0  0  0  0  0  0
   57.4537   25.3499   46.9160 H   0  0  0  0  0  0  0  0  0  0  0  0
   59.7500   26.3038   46.7442 H   0  0  0  0  0  0  0  0  0  0  0  0
   60.1156   28.5168   45.6513 H   0  0  0  0  0  0  0  0  0  0  0  0
   57.3138   31.6960   43.6275 H   0  0  0  0  0  0  0  0  0  0  0  0
   55.0019   30.7513   43.7933 H   0  0  0  0  0  0  0  0  0  0  0  0
  1  2  1  0
  2  3  1  0
  3  4  2  0
  4  5  1  0
  5  6  2  0
  6  7  1  0
  7  8  2  0
  8  9  1  0
  9 10  2  0
 10 11  1  0
 11 12  2  0
 12  3  1  0
 12  7  1  0
  1 13  1  0
  1 14  1  0
  1 15  1  0
  4 16  1  0
  5 17  1  0
  6 18  1  0
  9 19  1  0
 10 20  1  0
M  END
>  <UniqueID>  (5) 
5

>  <SMILES>  (5) 
COc1cccc2nccnc12

>  <Energy>  (5) 
24.292538201939266

>  <Genealogy>  (5) 
COc1cccc2nccnc12 (3D coordinates assigned)
COc1cccc2nccnc12 (optimized conformer: 24.292538201939266 kcal/mol)

>  <smiles>  (5) 
COc1cccc2nccnc12

>  <score_type>  (5) 
oracle

>  <origin>  (5) 
adg

>  <m_score__min__energy>  (5) 
-5.6600000000000001

>  <m_primary>  (5) 
energy

$$$$
5:0
     RDKit          3D

 47 49  0  0  0  0  0  0  0  0999 V2000
   56.9210   27.1360   45.7360 C   0  0  0  0  0  0  0  0  0  0  0  0
   57.2540   28.5600   45.6440 N   0  0  0  0  0  0  0  0  0  0  0  0
   56.3990   29.4280   44.8760 C   0  0  0  0  0  0  0  0  0  0  0  0
   55.1550   29.2180   44.8680 O   0  0  0  0  0  0  0  0  0  0  0  0
   56.9520   30.5570   44.0880 C   0  0  0  0  0  0  0  0  0  0  0  0
   56.8850   30.5520   42.6840 C   0  0  0  0  0  0  0  0  0  0  0  0
   57.4200   31.6110   41.9470 C   0  0  0  0  0  0  0  0  0  0  0  0
   58.0180   32.6900   42.6000 C   0  0  0  0  0  0  0  0  0  0  0  0
   58.0700   32.7250   44.0020 C   0  0  0  0  0  0  0  0  0  0  0  0
   58.7540   33.8680   44.7070 C   0  0  0  0  0  0  0  0  0  0  0  0
   59.3710   33.4030   45.9570 N   0  0  0  0  0  0  0  0  0  0  0  0
   60.2320   34.4470   46.5320 C   0  0  0  0  0  0  0  0  0  0  0  0
   61.4450   33.8310   47.1810 C   0  0  0  0  0  0  0  0  0  0  0  0
   62.6470   33.7110   46.4630 C   0  0  0  0  0  0  0  0  0  0  0  0
   63.7610   33.1050   47.0530 C   0  0  0  0  0  0  0  0  0  0  0  0
   63.6800   32.6070   48.3570 C   0  0  0  0  0  0  0  0  0  0  0  0
   62.4810   32.7090   49.0710 C   0  0  0  0  0  0  0  0  0  0  0  0
   61.3650   33.3140   48.4840 C   0  0  0  0  0  0  0  0  0  0  0  0
   57.5430   31.6530   44.7400 C   0  0  0  0  0  0  0  0  0  0  0  0
   58.4790   29.0390   46.2400 C   0  0  0  0  0  0  0  0  0  0  0  0
   59.6640   29.1380   45.4890 C   0  0  0  0  0  0  0  0  0  0  0  0
   60.8300   29.6050   46.1000 C   0  0  0  0  0  0  0  0  0  0  0  0
   60.8080   29.9800   47.4440 C   0  0  0  0  0  0  0  0  0  0  0  0
   59.6130   29.8830   48.1590 C   0  0  0  0  0  0  0  0  0  0  0  0
   58.4900   29.4230   47.5490 N   0  0  0  0  0  0  0  0  0  0  0  0
   56.8525   26.8431   46.7941 H   0  0  0  0  0  0  0  0  0  0  0  0
   55.9557   26.9525   45.2415 H   0  0  0  0  0  0  0  0  0  0  0  0
   57.7048   26.5435   45.2415 H   0  0  0  0  0  0  0  0  0  0  0  0
   56.4083   29.7089   42.1625 H   0  0  0  0  0  0  0  0  0  0  0  0
   57.3699   31.5946   40.8483 H   0  0  0  0  0  0  0  0  0  0  0  0
   58.4496   33.5150   42.0142 H   0  0  0  0  0  0  0  0  0  0  0  0
   59.5329   34.2843   44.0513 H   0  0  0  0  0  0  0  0  0  0  0  0
   58.0068   34.6399   44.9434 H   0  0  0  0  0  0  0  0  0  0  0  0
   59.9490   32.5510   45.7600 H   0  0  0  0  0  0  0  0  0  0  0  0
   58.6180   33.1600   46.6440 H   0  0  0  0  0  0  0  0  0  0  0  0
   60.5562   35.1299   45.7329 H   0  0  0  0  0  0  0  0  0  0  0  0
   59.6621   34.9992   47.2938 H   0  0  0  0  0  0  0  0  0  0  0  0
   62.7120   34.0947   45.4341 H   0  0  0  0  0  0  0  0  0  0  0  0
   64.7023   33.0201   46.4902 H   0  0  0  0  0  0  0  0  0  0  0  0
   64.5585   32.1352   48.8214 H   0  0  0  0  0  0  0  0  0  0  0  0
   62.4161   32.3129   50.0952 H   0  0  0  0  0  0  0  0  0  0  0  0
   60.4215   33.3850   49.0450 H   0  0  0  0  0  0  0  0  0  0  0  0
   57.5931   31.6711   45.8387 H   0  0  0  0  0  0  0  0  0  0  0  0
   59.6725   28.8496   44.4275 H   0  0  0  0  0  0  0  0  0  0  0  0
   61.7637   29.6770   45.5229 H   0  0  0  0  0  0  0  0  0  0  0  0
   61.7215   30.3477   47.9342 H   0  0  0  0  0  0  0  0  0  0  0  0
   59.5808   30.1795   49.2178 H   0  0  0  0  0  0  0  0  0  0  0  0
  1  2  1  0
  2  3  1  0
  3  4  2  0
  3  5  1  0
  5  6  2  0
  6  7  1  0
  7  8  2  0
  8  9  1  0
  9 10  1  0
 10 11  1  0
 11 12  1  0
 12 13  1  0
 13 14  2  0
 14 15  1  0
 15 16  2  0
 16 17  1  0
 17 18  2  0
  9 19  2  0
  2 20  1  0
 20 21  2  0
 21 22  1  0
 22 23  2  0
 23 24  1  0
 24 25  2  0
 19  5  1  0
 25 20  1  0
 18 13  1  0
  1 26  1  0
  1 27  1  0
  1 28  1  0
  6 29  1  0
  7 30  1  0
  8 31  1  0
 10 32  1  0
 10 33  1  0
 11 34  1  0
 11 35  1  0
 12 36  1  0
 12 37  1  0
 14 38  1  0
 15 39  1  0
 16 40  1  0
 17 41  1  0
 18 42  1  0
 19 43  1  0
 21 44  1  0
 22 45  1  0
 23 46  1  0
 24 47  1  0
M  CHG  1  11   1
M  END
>  <UniqueID>  (6) 
6

>  <SMILES>  (6) 
CN(C(=O)c1cccc(C[NH2+]Cc2ccccc2)c1)c1ccccn1

>  <Energy>  (6) 
55.38324570616738

>  <Genealogy>  (6) 
CN(C(=O)c1cccc(C[NH2+]Cc2ccccc2)c1)c1ccccn1 (protonated)
CN(C(=O)c1cccc(C[NH2+]Cc2ccccc2)c1)c1ccccn1 (3D coordinates assigned)
CN(C(=O)c1cccc(C[NH2+]Cc2ccccc2)c1)c1ccccn1 (optimized conformer: 55.38324570616738 kcal/mol)

>  <smiles>  (6) 
CN(C(=O)c1cccc(CNCc2ccccc2)c1)c1ccccn1

>  <score_type>  (6) 
oracle

>  <origin>  (6) 
adg

>  <m_score__min__energy>  (6) 
-7.0999999999999996

>  <m_primary>  (6) 
energy

$$$$
6:0
     RDKit          3D

 58 61  0  0  0  0  0  0  0  0999 V2000
   64.4430   32.1330   53.6310 C   0  0  0  0  0  0  0  0  0  0  0  0
   64.4800   33.2030   52.6910 O   0  0  0  0  0  0  0  0  0  0  0  0
   63.7310   33.2470   51.5010 C   0  0  0  0  0  0  0  0  0  0  0  0
   64.3320   33.1260   50.2330 C   0  0  0  0  0  0  0  0  0  0  0  0
   63.5530   33.1580   49.0670 C   0  0  0  0  0  0  0  0  0  0  0  0
   64.1440   33.0590   47.8420 N   0  0  0  0  0  0  0  0  0  0  0  0
   63.4040   33.0990   46.7050 C   0  0  0  0  0  0  0  0  0  0  0  0
   62.0540   33.2170   46.7730 N   0  0  0  0  0  0  0  0  0  0  0  0
   61.4030   33.2990   47.9610 C   0  0  0  0  0  0  0  0  0  0  0  0
   60.0050   33.3980   47.9460 O   0  0  0  0  0  0  0  0  0  0  0  0
   59.2170   33.4980   46.7880 C   0  0  0  0  0  0  0  0  0  0  0  0
   59.3140   34.6590   46.0140 C   0  0  0  0  0  0  0  0  0  0  0  0
   58.5270   34.8110   44.8690 C   0  0  0  0  0  0  0  0  0  0  0  0
   57.6340   33.8070   44.4920 C   0  0  0  0  0  0  0  0  0  0  0  0
   57.5230   32.6370   45.2610 C   0  0  0  0  0  0  0  0  0  0  0  0
   56.6220   31.5830   44.8970 N   0  0  0  0  0  0  0  0  0  0  0  0
   56.9270   30.5020   44.0040 C   0  0  0  0  0  0  0  0  0  0  0  0
   56.4450   30.4970   42.8380 O   0  0  0  0  0  0  0  0  0  0  0  0
   57.7580   29.3670   44.4660 C   0  0  0  0  0  0  0  0  0  0  0  0
   57.6980   28.1240   43.8120 C   0  0  0  0  0  0  0  0  0  0  0  0
   58.4780   27.0540   44.2530 C   0  0  0  0  0  0  0  0  0  0  0  0
   59.3300   27.2080   45.3480 C   0  0  0  0  0  0  0  0  0  0  0  0
   59.4080   28.4390   46.0220 C   0  0  0  0  0  0  0  0  0  0  0  0
   60.3490   28.5990   47.2020 C   0  0  0  0  0  0  0  0  0  0  0  0
   59.7060   28.0900   48.4990 C   0  0  0  0  0  0  0  0  0  0  0  0
   60.8040   30.0570   47.3470 C   0  0  0  0  0  0  0  0  0  0  0  0
   58.6160   29.5120   45.5750 C   0  0  0  0  0  0  0  0  0  0  0  0
   58.3420   32.4720   46.3850 C   0  0  0  0  0  0  0  0  0  0  0  0
   62.1520   33.3030   49.1600 C   0  0  0  0  0  0  0  0  0  0  0  0
   61.5610   33.4700   50.4240 C   0  0  0  0  0  0  0  0  0  0  0  0
   62.3420   33.4160   51.5960 C   0  0  0  0  0  0  0  0  0  0  0  0
   61.7720   33.5240   52.8760 O   0  0  0  0  0  0  0  0  0  0  0  0
   60.3740   33.4630   53.1430 C   0  0  0  0  0  0  0  0  0  0  0  0
   64.4571   32.5415   54.6523 H   0  0  0  0  0  0  0  0  0  0  0  0
   63.5240   31.5467   53.4832 H   0  0  0  0  0  0  0  0  0  0  0  0
   65.3193   31.4847   53.4832 H   0  0  0  0  0  0  0  0  0  0  0  0
   65.4227   33.0053   50.1564 H   0  0  0  0  0  0  0  0  0  0  0  0
   65.1820   32.9580   47.7610 H   0  0  0  0  0  0  0  0  0  0  0  0
   63.9002   33.0356   45.7253 H   0  0  0  0  0  0  0  0  0  0  0  0
   60.0129   35.4561   46.3078 H   0  0  0  0  0  0  0  0  0  0  0  0
   58.6118   35.7251   44.2630 H   0  0  0  0  0  0  0  0  0  0  0  0
   57.0158   33.9322   43.5908 H   0  0  0  0  0  0  0  0  0  0  0  0
   57.0316   27.9938   42.9466 H   0  0  0  0  0  0  0  0  0  0  0  0
   58.4211   26.0850   43.7354 H   0  0  0  0  0  0  0  0  0  0  0  0
   59.9444   26.3604   45.6856 H   0  0  0  0  0  0  0  0  0  0  0  0
   61.2396   27.9834   47.0074 H   0  0  0  0  0  0  0  0  0  0  0  0
   60.2397   28.5124   49.3632 H   0  0  0  0  0  0  0  0  0  0  0  0
   58.6513   28.4006   48.5318 H   0  0  0  0  0  0  0  0  0  0  0  0
   59.7662   26.9921   48.5318 H   0  0  0  0  0  0  0  0  0  0  0  0
   60.8835   30.3119   48.4141 H   0  0  0  0  0  0  0  0  0  0  0  0
   61.7847   30.1847   46.8654 H   0  0  0  0  0  0  0  0  0  0  0  0
   60.0700   30.7198   46.8654 H   0  0  0  0  0  0  0  0  0  0  0  0
   58.6669   30.4782   46.0984 H   0  0  0  0  0  0  0  0  0  0  0  0
   58.3011   31.5334   46.9572 H   0  0  0  0  0  0  0  0  0  0  0  0
   60.4776   33.6447   50.4995 H   0  0  0  0  0  0  0  0  0  0  0  0
   60.2084   33.4558   54.2304 H   0  0  0  0  0  0  0  0  0  0  0  0
   59.8779   34.3404   52.7024 H   0  0  0  0  0  0  0  0  0  0  0  0
   59.9562   32.5458   52.7024 H   0  0  0  0  0  0  0  0  0  0  0  0
  1  2  1  0
  2  3  1  0
  3  4  2  0
  4  5  1  0
  5  6  2  0
  6  7  1  0
  7  8  2  0
  8  9  1  0
  9 10  1  0
 10 11  1  0
 11 12  2  0
 12 13  1  0
 13 14  2  0
 14 15  1  0
 15 16  1  0
 16 17  1  0
 17 18  2  0
 17 19  1  0
 19 20  2  0
 20 21  1  0
 21 22  2  0
 22 23  1  0
 23 24  1  0
 24 25  1  0
 24 26  1  0
 23 27  2  0
 15 28  2  0
  9 29  2  0
 29 30  1  0
 30 31  2  0
 31 32  1  0
 32 33  1  0
 31  3  1  0
 29  5  1  0
 28 11  1  0
 27 19  1  0
  1 34  1  0
  1 35  1  0
  1 36  1  0
  4 37  1  0
  6 38  1  0
  7 39  1  0
 12 40  1  0
 13 41  1  0
 14 42  1  0
 20 43  1  0
 21 44  1  0
 22 45  1  0
 24 46  1  0
 25 47  1  0
 25 48  1  0
 25 49  1  0
 26 50  1  0
 26 51  1  0
 26 52  1  0
 27 53  1  0
 28 54  1  0
 30 55  1  0
 33 56  1  0
 33 57  1  0
 33 58  1  0
M  CHG  2   6   1  16  -1
M  END
>  <UniqueID>  (7) 
7

>  <SMILES>  (7) 
COc1cc2[nH+]cnc(Oc3cccc([N-]C(=O)c4cccc(C(C)C)c4)c3)c2cc1OC

>  <Energy>  (7) 
74.48095692790137

>  <Genealogy>  (7) 
COc1cc2[nH+]cnc(Oc3cccc([N-]C(=O)c4cccc(C(C)C)c4)c3)c2cc1OC (protonated)
COc1cc2[nH+]cnc(Oc3cccc([N-]C(=O)c4cccc(C(C)C)c4)c3)c2cc1OC (3D coordinates assigned)
COc1cc2[nH+]cnc(Oc3cccc([N-]C(=O)c4cccc(C(C)C)c4)c3)c2cc1OC (optimized conformer: 74.48095692790137 kcal/mol)

>  <smiles>  (7) 
COc1cc2ncnc(Oc3cccc(NC(=O)c4cccc(C(C)C)c4)c3)c2cc1OC

>  <score_type>  (7) 
oracle

>  <origin>  (7) 
adg

>  <m_score__min__energy>  (7) 
-9.3800000000000008

>  <m_primary>  (7) 
energy

$$$$
7:0
     RDKit          3D

 49 50  0  0  0  0  0  0  0  0999 V2000
   59.9660   28.9260   44.5040 C   0  0  0  0  0  0  0  0  0  0  0  0
   60.4030   28.6100   45.9430 C   0  0  0  0  0  0  0  0  0  0  0  0
   59.4490   29.0590   46.9940 N   0  0  0  0  0  0  0  0  0  0  0  0
   60.0740   30.0830   47.8750 C   0  0  0  0  0  0  0  0  0  0  0  0
   59.2600   30.3370   49.1510 C   0  0  0  0  0  0  0  0  0  0  0  0
   58.8880   27.9410   47.8020 C   0  0  0  0  0  0  0  0  0  0  0  0
   59.3510   26.5360   47.3570 C   0  0  0  0  0  0  0  0  0  0  0  0
   58.1910   25.5740   47.0230 C   0  0  0  0  0  0  0  0  0  0  0  0
   56.8990   26.3170   46.6530 C   0  0  0  0  0  0  0  0  0  0  0  0
   57.0270   26.9940   45.2850 C   0  0  0  0  0  0  0  0  0  0  0  0
   56.2410   28.2280   45.2460 N   0  0  0  0  0  0  0  0  0  0  0  0
   56.7400   29.5100   44.8200 C   0  0  0  0  0  0  0  0  0  0  0  0
   56.6890   29.9250   43.4780 C   0  0  0  0  0  0  0  0  0  0  0  0
   57.1840   31.1820   43.1180 C   0  0  0  0  0  0  0  0  0  0  0  0
   57.1350   31.5430   41.9110 O   0  0  0  0  0  0  0  0  0  0  0  0
   57.7270   32.0280   44.1020 C   0  0  0  0  0  0  0  0  0  0  0  0
   58.2380   33.3020   43.7930 C   0  0  0  0  0  0  0  0  0  0  0  0
   58.7670   34.1100   44.8040 C   0  0  0  0  0  0  0  0  0  0  0  0
   58.7910   33.6570   46.1270 C   0  0  0  0  0  0  0  0  0  0  0  0
   58.2860   32.3940   46.4450 C   0  0  0  0  0  0  0  0  0  0  0  0
   57.7540   31.5760   45.4410 C   0  0  0  0  0  0  0  0  0  0  0  0
   57.2660   30.3470   45.7550 N   0  0  0  0  0  0  0  0  0  0  0  0
   59.0748   29.5704   44.5246 H   0  0  0  0  0  0  0  0  0  0  0  0
   60.7815   29.4447   43.9787 H   0  0  0  0  0  0  0  0  0  0  0  0
   59.7289   27.9891   43.9787 H   0  0  0  0  0  0  0  0  0  0  0  0
   60.5246   27.5205   46.0331 H   0  0  0  0  0  0  0  0  0  0  0  0
   61.3376   29.1644   46.1134 H   0  0  0  0  0  0  0  0  0  0  0  0
   58.6570   29.5220   46.4900 H   0  0  0  0  0  0  0  0  0  0  0  0
   61.0784   29.7370   48.1604 H   0  0  0  0  0  0  0  0  0  0  0  0
   60.1160   31.0271   47.3121 H   0  0  0  0  0  0  0  0  0  0  0  0
   59.8887   30.1408   50.0321 H   0  0  0  0  0  0  0  0  0  0  0  0
   58.9215   31.3835   49.1677 H   0  0  0  0  0  0  0  0  0  0  0  0
   58.3864   29.6687   49.1677 H   0  0  0  0  0  0  0  0  0  0  0  0
   59.1915   28.0875   48.8491 H   0  0  0  0  0  0  0  0  0  0  0  0
   57.7972   27.9703   47.6631 H   0  0  0  0  0  0  0  0  0  0  0  0
   59.9794   26.6457   46.4609 H   0  0  0  0  0  0  0  0  0  0  0  0
   59.8980   26.0960   48.2039 H   0  0  0  0  0  0  0  0  0  0  0  0
   58.4901   24.9421   46.1737 H   0  0  0  0  0  0  0  0  0  0  0  0
   57.9856   24.9734   47.9214 H   0  0  0  0  0  0  0  0  0  0  0  0
   56.0670   25.5981   46.6220 H   0  0  0  0  0  0  0  0  0  0  0  0
   56.7112   27.0917   47.4110 H   0  0  0  0  0  0  0  0  0  0  0  0
   58.0842   27.2326   45.0971 H   0  0  0  0  0  0  0  0  0  0  0  0
   56.6490   26.3079   44.5127 H   0  0  0  0  0  0  0  0  0  0  0  0
   55.2410   28.1720   45.5430 H   0  0  0  0  0  0  0  0  0  0  0  0
   56.2603   29.2618   42.7122 H   0  0  0  0  0  0  0  0  0  0  0  0
   58.2213   33.6630   42.7541 H   0  0  0  0  0  0  0  0  0  0  0  0
   59.1656   35.1053   44.5581 H   0  0  0  0  0  0  0  0  0  0  0  0
   59.2084   34.2966   46.9187 H   0  0  0  0  0  0  0  0  0  0  0  0
   58.3064   32.0413   47.4867 H   0  0  0  0  0  0  0  0  0  0  0  0
  1  2  1  0
  2  3  1  0
  3  4  1  0
  4  5  1  0
  3  6  1  0
  6  7  1  0
  7  8  1  0
  8  9  1  0
  9 10  1  0
 10 11  1  0
 11 12  1  0
 12 13  2  0
 13 14  1  0
 14 15  2  0
 14 16  1  0
 16 17  2  0
 17 18  1  0
 18 19  2  0
 19 20  1  0
 20 21  2  0
 21 22  1  0
 22 12  1  0
 21 16  1  0
  1 23  1  0
  1 24  1  0
  1 25  1  0
  2 26  1  0
  2 27  1  0
  3 28  1  0
  4 29  1  0
  4 30  1  0
  5 31  1  0
  5 32  1  0
  5 33  1  0
  6 34  1  0
  6 35  1  0
  7 36  1  0
  7 37  1  0
  8 38  1  0
  8 39  1  0
  9 40  1  0
  9 41  1  0
 10 42  1  0
 10 43  1  0
 11 44  1  0
 13 45  1  0
 17 46  1  0
 18 47  1  0
 19 48  1  0
 20 49  1  0
M  CHG  2   3   1  22  -1
M  END
>  <UniqueID>  (8) 
8

>  <SMILES>  (8) 
CC[NH+](CC)CCCCCNc1cc(=O)c2ccccc2[n-]1

>  <Energy>  (8) 
51.63945934654015

>  <Genealogy>  (8) 
CC[NH+](CC)CCCCCNc1cc(=O)c2ccccc2[n-]1 (protonated)
CC[NH+](CC)CCCCCNc1cc(=O)c2ccccc2[n-]1 (3D coordinates assigned)
CC[NH+](CC)CCCCCNc1cc(=O)c2ccccc2[n-]1 (optimized conformer: 51.63945934654015 kcal/mol)

>  <smiles>  (8) 
CCN(CC)CCCCCNc1cc(=O)c2ccccc2[nH]1

>  <score_type>  (8) 
oracle

>  <origin>  (8) 
adg

>  <m_score__min__energy>  (8) 
-6.7400000000000002

>  <m_primary>  (8) 
energy

$$$$
8:0
     RDKit          3D

 49 51  0  0  0  0  0  0  0  0999 V2000
   61.7800   30.8790   49.0300 C   0  0  0  0  0  0  0  0  0  0  0  0
   61.8050   31.9410   47.9140 C   0  0  0  0  0  0  0  0  0  0  0  0
   63.2620   32.2080   47.4830 C   0  0  0  0  0  0  0  0  0  0  0  0
   61.0450   31.4870   46.7870 O   0  0  0  0  0  0  0  0  0  0  0  0
   60.3910   30.2520   46.6820 C   0  0  0  0  0  0  0  0  0  0  0  0
   59.3850   29.9350   47.6020 C   0  0  0  0  0  0  0  0  0  0  0  0
   58.7470   28.6920   47.5470 C   0  0  0  0  0  0  0  0  0  0  0  0
   59.1160   27.7590   46.5750 C   0  0  0  0  0  0  0  0  0  0  0  0
   60.1340   28.0620   45.6670 C   0  0  0  0  0  0  0  0  0  0  0  0
   60.7770   29.3020   45.7230 C   0  0  0  0  0  0  0  0  0  0  0  0
   61.2110   33.2460   48.4640 C   0  0  0  0  0  0  0  0  0  0  0  0
   61.4670   33.5360   49.6280 O   0  0  0  0  0  0  0  0  0  0  0  0
   60.3470   34.1480   47.7040 N   0  0  0  0  0  0  0  0  0  0  0  0
   58.9060   33.9300   47.9940 C   0  0  0  0  0  0  0  0  0  0  0  0
   58.2370   32.8860   47.0880 C   0  0  0  0  0  0  0  0  0  0  0  0
   58.6450   33.0330   45.6840 N   0  0  0  0  0  0  0  0  0  0  0  0
   58.0350   32.2050   44.6670 C   0  0  0  0  0  0  0  0  0  0  0  0
   57.4390   30.9720   45.0040 C   0  0  0  0  0  0  0  0  0  0  0  0
   56.8200   30.1910   44.0240 C   0  0  0  0  0  0  0  0  0  0  0  0
   56.7900   30.6230   42.6970 C   0  0  0  0  0  0  0  0  0  0  0  0
   57.3900   31.8350   42.3450 C   0  0  0  0  0  0  0  0  0  0  0  0
   57.3540   32.3800   40.6770 Cl  0  0  0  0  0  0  0  0  0  0  0  0
   58.0180   32.6150   43.3200 C   0  0  0  0  0  0  0  0  0  0  0  0
   59.5180   34.1530   45.3090 C   0  0  0  0  0  0  0  0  0  0  0  0
   60.7140   34.2540   46.2620 C   0  0  0  0  0  0  0  0  0  0  0  0
   61.7917   31.3772   50.0106 H   0  0  0  0  0  0  0  0  0  0  0  0
   60.8673   30.2719   48.9381 H   0  0  0  0  0  0  0  0  0  0  0  0
   62.6631   30.2296   48.9381 H   0  0  0  0  0  0  0  0  0  0  0  0
   63.8933   32.3237   48.3764 H   0  0  0  0  0  0  0  0  0  0  0  0
   63.6277   31.3619   46.8827 H   0  0  0  0  0  0  0  0  0  0  0  0
   63.3039   33.1288   46.8827 H   0  0  0  0  0  0  0  0  0  0  0  0
   59.0953   30.6662   48.3710 H   0  0  0  0  0  0  0  0  0  0  0  0
   57.9541   28.4487   48.2695 H   0  0  0  0  0  0  0  0  0  0  0  0
   58.6053   26.7860   46.5244 H   0  0  0  0  0  0  0  0  0  0  0  0
   60.4298   27.3237   44.9071 H   0  0  0  0  0  0  0  0  0  0  0  0
   61.5863   29.5337   45.0149 H   0  0  0  0  0  0  0  0  0  0  0  0
   60.5350   35.1030   48.0950 H   0  0  0  0  0  0  0  0  0  0  0  0
   58.8101   33.5948   49.0373 H   0  0  0  0  0  0  0  0  0  0  0  0
   58.3958   34.8865   47.8076 H   0  0  0  0  0  0  0  0  0  0  0  0
   58.5183   31.8812   47.4362 H   0  0  0  0  0  0  0  0  0  0  0  0
   57.1487   33.0360   47.1430 H   0  0  0  0  0  0  0  0  0  0  0  0
   57.4615   30.6221   46.0466 H   0  0  0  0  0  0  0  0  0  0  0  0
   56.3550   29.2329   44.2993 H   0  0  0  0  0  0  0  0  0  0  0  0
   56.2947   30.0102   41.9294 H   0  0  0  0  0  0  0  0  0  0  0  0
   58.5040   33.5589   43.0321 H   0  0  0  0  0  0  0  0  0  0  0  0
   59.8858   33.9961   44.2842 H   0  0  0  0  0  0  0  0  0  0  0  0
   58.9393   35.0865   45.3696 H   0  0  0  0  0  0  0  0  0  0  0  0
   61.4172   33.4427   46.0228 H   0  0  0  0  0  0  0  0  0  0  0  0
   61.1553   35.2511   46.1168 H   0  0  0  0  0  0  0  0  0  0  0  0
  1  2  1  0
  2  3  1  0
  2  4  1  0
  4  5  1  0
  5  6  2  0
  6  7  1  0
  7  8  2  0
  8  9  1  0
  9 10  2  0
  2 11  1  0
 11 12  2  0
 11 13  1  0
 13 14  1  0
 14 15  1  0
 15 16  1  0
 16 17  1  0
 17 18  2  0
 18 19  1  0
 19 20  2  0
 20 21  1  0
 21 22  1  0
 21 23  2  0
 16 24  1  0
 24 25  1  0
 10  5  1  0
 25 13  1  0
 23 17  1  0
  1 26  1  0
  1 27  1  0
  1 28  1  0
  3 29  1  0
  3 30  1  0
  3 31  1  0
  6 32  1  0
  7 33  1  0
  8 34  1  0
  9 35  1  0
 10 36  1  0
 13 37  1  0
 14 38  1  0
 14 39  1  0
 15 40  1  0
 15 41  1  0
 18 42  1  0
 19 43  1  0
 20 44  1  0
 23 45  1  0
 24 46  1  0
 24 47  1  0
 25 48  1  0
 25 49  1  0
M  CHG  1  13   1
M  END
>  <UniqueID>  (9) 
9

>  <SMILES>  (9) 
CC(C)(Oc1ccccc1)C(=O)[NH+]1CCN(c2cccc(Cl)c2)CC1

>  <Energy>  (9) 
70.41851260684852

>  <Genealogy>  (9) 
CC(C)(Oc1ccccc1)C(=O)[NH+]1CCN(c2cccc(Cl)c2)CC1 (protonated)
CC(C)(Oc1ccccc1)C(=O)[NH+]1CCN(c2cccc(Cl)c2)CC1 (3D coordinates assigned)
CC(C)(Oc1ccccc1)C(=O)[NH+]1CCN(c2cccc(Cl)c2)CC1 (nonaromatic ring conformer: 70.41851260684852 kcal/mol)

>  <smiles>  (9) 
CC(C)(Oc1ccccc1)C(=O)N1CCN(c2cccc(Cl)c2)CC1

>  <score_type>  (9) 
oracle

>  <origin>  (9) 
adg

>  <m_score__min__energy>  (9) 
-6.4800000000000004

>  <m_primary>  (9) 
energy

$$$$
9:0
     RDKit          3D

 94 97  0  0  0  0  0  0  0  0999 V2000
   63.3200   33.6740   46.7930 C   0  0  0  0  0  0  0  0  0  0  0  0
   63.4360   32.3530   47.5640 C   0  0  0  0  0  0  0  0  0  0  0  0
   62.4750   32.2540   48.6970 N   0  0  0  0  0  0  0  0  0  0  0  0
   62.6480   33.3270   49.7140 C   0  0  0  0  0  0  0  0  0  0  0  0
   61.3380   33.8620   50.3150 C   0  0  0  0  0  0  0  0  0  0  0  0
   62.5250   30.9050   49.3270 C   0  0  0  0  0  0  0  0  0  0  0  0
   61.1550   30.4080   49.8520 C   0  0  0  0  0  0  0  0  0  0  0  0
   60.3670   29.7270   48.7990 N   0  0  0  0  0  0  0  0  0  0  0  0
   60.1060   28.3830   48.9080 C   0  0  0  0  0  0  0  0  0  0  0  0
   60.4420   27.7320   49.9350 O   0  0  0  0  0  0  0  0  0  0  0  0
   59.5060   27.7260   47.8470 C   0  0  0  0  0  0  0  0  0  0  0  0
   59.2580   26.3750   47.7120 C   0  0  0  0  0  0  0  0  0  0  0  0
   58.7320   26.2270   46.4460 C   0  0  0  0  0  0  0  0  0  0  0  0
   58.3660   25.0590   45.7930 C   0  0  0  0  0  0  0  0  0  0  0  0
   58.4330   23.9530   46.4010 O   0  0  0  0  0  0  0  0  0  0  0  0
   57.9420   25.1310   44.4880 N   0  0  0  0  0  0  0  0  0  0  0  0
   57.4580   23.9030   43.8170 C   0  0  0  0  0  0  0  0  0  0  0  0
   56.3880   23.1960   44.6670 C   0  0  0  0  0  0  0  0  0  0  0  0
   54.9660   23.7100   44.3470 C   0  0  0  0  0  0  0  0  0  0  0  0
   54.1900   24.1610   45.5310 N   0  0  0  0  0  0  0  0  0  0  0  0
   52.7710   24.3960   45.2060 C   0  0  0  0  0  0  0  0  0  0  0  0
   54.3140   23.2870   46.7260 C   0  0  0  0  0  0  0  0  0  0  0  0
   55.5420   23.6440   47.5880 C   0  0  0  0  0  0  0  0  0  0  0  0
   55.7860   22.5970   48.6830 C   0  0  0  0  0  0  0  0  0  0  0  0
   57.0020   21.8020   48.3930 N   0  0  0  0  0  0  0  0  0  0  0  0
   56.8410   21.0540   47.1360 C   0  0  0  0  0  0  0  0  0  0  0  0
   57.2990   20.8600   49.4900 C   0  0  0  0  0  0  0  0  0  0  0  0
   57.9120   26.3460   43.8260 C   0  0  0  0  0  0  0  0  0  0  0  0
   57.5760   26.3820   42.6070 O   0  0  0  0  0  0  0  0  0  0  0  0
   58.2410   27.5600   44.4980 C   0  0  0  0  0  0  0  0  0  0  0  0
   58.1530   28.7810   43.8150 C   0  0  0  0  0  0  0  0  0  0  0  0
   58.2280   30.0780   44.3240 C   0  0  0  0  0  0  0  0  0  0  0  0
   58.6000   30.5670   45.5970 C   0  0  0  0  0  0  0  0  0  0  0  0
   58.2710   31.9460   45.8970 N   0  0  0  0  0  0  0  0  0  0  0  0
   57.2810   32.7590   45.1850 C   0  0  0  0  0  0  0  0  0  0  0  0
   57.6090   34.2520   45.3450 C   0  0  0  0  0  0  0  0  0  0  0  0
   58.9650   34.4360   45.9120 N   0  0  0  0  0  0  0  0  0  0  0  0
   58.8830   34.6170   47.3730 C   0  0  0  0  0  0  0  0  0  0  0  0
   59.6280   35.6090   45.3130 C   0  0  0  0  0  0  0  0  0  0  0  0
   59.2150   29.7990   46.6260 C   0  0  0  0  0  0  0  0  0  0  0  0
   59.9410   30.4360   47.6900 C   0  0  0  0  0  0  0  0  0  0  0  0
   60.2450   31.6570   47.5920 O   0  0  0  0  0  0  0  0  0  0  0  0
   59.1120   28.4050   46.7120 C   0  0  0  0  0  0  0  0  0  0  0  0
   58.6410   27.4550   45.8260 C   0  0  0  0  0  0  0  0  0  0  0  0
   63.2467   34.5090   47.5053 H   0  0  0  0  0  0  0  0  0  0  0  0
   64.2098   33.8087   46.1604 H   0  0  0  0  0  0  0  0  0  0  0  0
   62.4204   33.6516   46.1604 H   0  0  0  0  0  0  0  0  0  0  0  0
   63.2441   31.5230   46.8681 H   0  0  0  0  0  0  0  0  0  0  0  0
   64.4500   32.3075   47.9879 H   0  0  0  0  0  0  0  0  0  0  0  0
   61.5150   32.4010   48.3090 H   0  0  0  0  0  0  0  0  0  0  0  0
   63.2620   32.9259   50.5338 H   0  0  0  0  0  0  0  0  0  0  0  0
   63.1190   34.1741   49.1938 H   0  0  0  0  0  0  0  0  0  0  0  0
   61.4009   33.8363   51.4129 H   0  0  0  0  0  0  0  0  0  0  0  0
   61.1775   34.8977   49.9811 H   0  0  0  0  0  0  0  0  0  0  0  0
   60.4983   33.2348   49.9811 H   0  0  0  0  0  0  0  0  0  0  0  0
   62.8909   30.1864   48.5789 H   0  0  0  0  0  0  0  0  0  0  0  0
   63.1922   30.9832   50.1980 H   0  0  0  0  0  0  0  0  0  0  0  0
   61.3268   29.7024   50.6782 H   0  0  0  0  0  0  0  0  0  0  0  0
   60.5831   31.2855   50.1880 H   0  0  0  0  0  0  0  0  0  0  0  0
   59.4409   25.5852   48.4554 H   0  0  0  0  0  0  0  0  0  0  0  0
   57.0236   24.1726   42.8430 H   0  0  0  0  0  0  0  0  0  0  0  0
   58.3084   23.2182   43.6831 H   0  0  0  0  0  0  0  0  0  0  0  0
   56.4296   22.1156   44.4646 H   0  0  0  0  0  0  0  0  0  0  0  0
   56.5976   23.4093   45.7256 H   0  0  0  0  0  0  0  0  0  0  0  0
   55.0561   24.5582   43.6525 H   0  0  0  0  0  0  0  0  0  0  0  0
   54.4158   22.8587   43.9196 H   0  0  0  0  0  0  0  0  0  0  0  0
   52.1927   24.4918   46.1368 H   0  0  0  0  0  0  0  0  0  0  0  0
   52.6776   25.3218   44.6194 H   0  0  0  0  0  0  0  0  0  0  0  0
   52.3842   23.5497   44.6194 H   0  0  0  0  0  0  0  0  0  0  0  0
   53.4075   23.3961   47.3395 H   0  0  0  0  0  0  0  0  0  0  0  0
   54.4393   22.2523   46.3743 H   0  0  0  0  0  0  0  0  0  0  0  0
   56.4296   23.6971   46.9405 H   0  0  0  0  0  0  0  0  0  0  0  0
   55.3521   24.6125   48.0737 H   0  0  0  0  0  0  0  0  0  0  0  0
   55.9120   23.1085   49.6487 H   0  0  0  0  0  0  0  0  0  0  0  0
   54.9219   21.9173   48.7180 H   0  0  0  0  0  0  0  0  0  0  0  0
   56.6145   20.0016   47.3620 H   0  0  0  0  0  0  0  0  0  0  0  0
   56.0161   21.4896   46.5532 H   0  0  0  0  0  0  0  0  0  0  0  0
   57.7721   21.1117   46.5532 H   0  0  0  0  0  0  0  0  0  0  0  0
   57.1410   21.3611   50.4564 H   0  0  0  0  0  0  0  0  0  0  0  0
   56.6321   19.9884   49.4155 H   0  0  0  0  0  0  0  0  0  0  0  0
   58.3452   20.5286   49.4155 H   0  0  0  0  0  0  0  0  0  0  0  0
   58.0043   28.7063   42.7277 H   0  0  0  0  0  0  0  0  0  0  0  0
   57.9469   30.8614   43.6048 H   0  0  0  0  0  0  0  0  0  0  0  0
   58.6620   32.3610   46.7720 H   0  0  0  0  0  0  0  0  0  0  0  0
   57.2947   32.4960   44.1170 H   0  0  0  0  0  0  0  0  0  0  0  0
   56.2841   32.5626   45.6064 H   0  0  0  0  0  0  0  0  0  0  0  0
   57.5611   34.7391   44.3599 H   0  0  0  0  0  0  0  0  0  0  0  0
   56.8764   34.7018   46.0313 H   0  0  0  0  0  0  0  0  0  0  0  0
   59.2867   33.7260   47.8761 H   0  0  0  0  0  0  0  0  0  0  0  0
   59.4687   35.5007   47.6664 H   0  0  0  0  0  0  0  0  0  0  0  0
   57.8325   34.7594   47.6664 H   0  0  0  0  0  0  0  0  0  0  0  0
   60.0002   36.2674   46.1117 H   0  0  0  0  0  0  0  0  0  0  0  0
   60.4711   35.2754   44.6902 H   0  0  0  0  0  0  0  0  0  0  0  0
   58.9073   36.1592   44.6902 H   0  0  0  0  0  0  0  0  0  0  0  0
  1  2  1  0
  2  3  1  0
  3  4  1  0
  4  5  1  0
  3  6  1  0
  6  7  1  0
  7  8  1  0
  8  9  1  0
  9 10  2  0
  9 11  1  0
 11 12  1  0
 12 13  2  0
 13 14  1  0
 14 15  2  0
 14 16  1  0
 16 17  1  0
 17 18  1  0
 18 19  1  0
 19 20  1  0
 20 21  1  0
 20 22  1  0
 22 23  1  0
 23 24  1  0
 24 25  1  0
 25 26  1  0
 25 27  1  0
 16 28  1  0
 28 29  2  0
 28 30  1  0
 30 31  1  0
 31 32  2  0
 32 33  1  0
 33 34  1  0
 34 35  1  0
 35 36  1  0
 36 37  1  0
 37 38  1  0
 37 39  1  0
 33 40  2  0
 40 41  1  0
 41 42  2  0
 40 43  1  0
 43 44  1  0
 41  8  1  0
 43 11  2  0
 44 13  1  0
 44 30  2  0
  1 45  1  0
  1 46  1  0
  1 47  1  0
  2 48  1  0
  2 49  1  0
  3 50  1  0
  4 51  1  0
  4 52  1  0
  5 53  1  0
  5 54  1  0
  5 55  1  0
  6 56  1  0
  6 57  1  0
  7 58  1  0
  7 59  1  0
 12 60  1  0
 17 61  1  0
 17 62  1  0
 18 63  1  0
 18 64  1  0
 19 65  1  0
 19 66  1  0
 21 67  1  0
 21 68  1  0
 21 69  1  0
 22 70  1  0
 22 71  1  0
 23 72  1  0
 23 73  1  0
 24 74  1  0
 24 75  1  0
 26 76  1  0
 26 77  1  0
 26 78  1  0
 27 79  1  0
 27 80  1  0
 27 81  1  0
 31 82  1  0
 32 83  1  0
 34 84  1  0
 35 85  1  0
 35 86  1  0
 36 87  1  0
 36 88  1  0
 38 89  1  0
 38 90  1  0
 38 91  1  0
 39 92  1  0
 39 93  1  0
 39 94  1  0
M  CHG  1   3   1
M  END
>  <UniqueID>  (10) 
10

>  <SMILES>  (10) 
CC[NH+](CC)CCn1c(=O)c2cc3c(=O)n(CCCN(C)CCCN(C)C)c(=O)c4ccc(NCCN(C)C)c(c1=O)c2c43

>  <Energy>  (10) 
170.94732056281103

>  <Genealogy>  (10) 
CC[NH+](CC)CCn1c(=O)c2cc3c(=O)n(CCCN(C)CCCN(C)C)c(=O)c4ccc(NCCN(C)C)c(c1=O)c2c43 (protonated)
CC[NH+](CC)CCn1c(=O)c2cc3c(=O)n(CCCN(C)CCCN(C)C)c(=O)c4ccc(NCCN(C)C)c(c1=O)c2c43 (3D coordinates assigned)
CC[NH+](CC)CCn1c(=O)c2cc3c(=O)n(CCCN(C)CCCN(C)C)c(=O)c4ccc(NCCN(C)C)c(c1=O)c2c43 (optimized conformer: 170.94732056281103 kcal/mol)

>  <smiles>  (10) 
CCN(CC)CCn1c(=O)c2cc3c(=O)n(CCCN(C)CCCN(C)C)c(=O)c4ccc(NCCN(C)C)c(c1=O)c2c43

>  <score_type>  (10) 
oracle

>  <origin>  (10) 
adg

>  <m_score__min__energy>  (10) 
-5.8499999999999996

>  <m_primary>  (10) 
energy

$$$$
10:0
     RDKit          3D

 52 55  0  0  0  0  0  0  0  0999 V2000
   63.4340   31.3260   49.6130 C   0  0  0  0  0  0  0  0  0  0  0  0
   62.4060   31.7470   48.6090 C   0  0  0  0  0  0  0  0  0  0  0  0
   61.4660   30.9120   48.1240 N   0  0  0  0  0  0  0  0  0  0  0  0
   60.7050   31.6610   47.3030 C   0  0  0  0  0  0  0  0  0  0  0  0
   61.1950   32.9530   47.3050 C   0  0  0  0  0  0  0  0  0  0  0  0
   62.2730   33.0020   48.1200 N   0  0  0  0  0  0  0  0  0  0  0  0
   63.0590   34.1870   48.4700 C   0  0  0  0  0  0  0  0  0  0  0  0
   60.5980   34.1080   46.5630 C   0  0  0  0  0  0  0  0  0  0  0  0
   59.1080   34.2960   46.9080 C   0  0  0  0  0  0  0  0  0  0  0  0
   58.1770   33.3230   46.2760 N   0  0  0  0  0  0  0  0  0  0  0  0
   58.1450   33.3730   44.8020 C   0  0  0  0  0  0  0  0  0  0  0  0
   57.5100   32.1310   44.2620 C   0  0  0  0  0  0  0  0  0  0  0  0
   57.8640   31.4800   43.0970 C   0  0  0  0  0  0  0  0  0  0  0  0
   57.0050   30.4050   42.9980 C   0  0  0  0  0  0  0  0  0  0  0  0
   56.1830   30.4700   44.1070 C   0  0  0  0  0  0  0  0  0  0  0  0
   56.5080   31.5100   44.8400 O   0  0  0  0  0  0  0  0  0  0  0  0
   58.1770   31.9590   46.8520 C   0  0  0  0  0  0  0  0  0  0  0  0
   59.4760   31.1390   46.5950 C   0  0  2  0  0  0  0  0  0  0  0  0
   59.2720   29.6580   46.9480 C   0  0  0  0  0  0  0  0  0  0  0  0
   60.4420   28.9250   46.6280 O   0  0  0  0  0  0  0  0  0  0  0  0
   60.2720   28.1670   45.4470 C   0  0  0  0  0  0  0  0  0  0  0  0
   58.8220   28.2780   44.9510 C   0  0  0  0  0  0  0  0  0  0  0  0
   57.9460   27.0490   45.1510 C   0  0  0  0  0  0  0  0  0  0  0  0
   58.4880   27.3820   43.7690 C   0  0  0  0  0  0  0  0  0  0  0  0
   63.0422   31.4864   50.6283 H   0  0  0  0  0  0  0  0  0  0  0  0
   63.6671   30.2600   49.4742 H   0  0  0  0  0  0  0  0  0  0  0  0
   64.3479   31.9223   49.4742 H   0  0  0  0  0  0  0  0  0  0  0  0
   61.3330   29.9020   48.3590 H   0  0  0  0  0  0  0  0  0  0  0  0
   63.1188   34.2771   49.5647 H   0  0  0  0  0  0  0  0  0  0  0  0
   64.0728   34.0905   48.0541 H   0  0  0  0  0  0  0  0  0  0  0  0
   62.5758   35.0834   48.0541 H   0  0  0  0  0  0  0  0  0  0  0  0
   61.1445   35.0245   46.8301 H   0  0  0  0  0  0  0  0  0  0  0  0
   60.6779   33.9024   45.4854 H   0  0  0  0  0  0  0  0  0  0  0  0
   58.9992   34.2096   47.9992 H   0  0  0  0  0  0  0  0  0  0  0  0
   58.8283   35.2832   46.5115 H   0  0  0  0  0  0  0  0  0  0  0  0
   57.5634   34.2493   44.4797 H   0  0  0  0  0  0  0  0  0  0  0  0
   59.1741   33.4477   44.4207 H   0  0  0  0  0  0  0  0  0  0  0  0
   58.6633   31.7598   42.3950 H   0  0  0  0  0  0  0  0  0  0  0  0
   56.9796   29.6496   42.1988 H   0  0  0  0  0  0  0  0  0  0  0  0
   55.3778   29.7579   44.3405 H   0  0  0  0  0  0  0  0  0  0  0  0
   58.0381   32.0473   47.9396 H   0  0  0  0  0  0  0  0  0  0  0  0
   57.3633   31.4129   46.3523 H   0  0  0  0  0  0  0  0  0  0  0  0
   59.6677   31.2541   45.5180 H   0  0  0  0  0  0  0  0  0  0  0  0
   59.0645   29.5639   48.0241 H   0  0  0  0  0  0  0  0  0  0  0  0
   58.4237   29.2598   46.3719 H   0  0  0  0  0  0  0  0  0  0  0  0
   60.9521   28.5467   44.6702 H   0  0  0  0  0  0  0  0  0  0  0  0
   60.4990   27.1122   45.6610 H   0  0  0  0  0  0  0  0  0  0  0  0
   58.7138   29.3471   45.1863 H   0  0  0  0  0  0  0  0  0  0  0  0
   58.3357   26.1790   45.6999 H   0  0  0  0  0  0  0  0  0  0  0  0
   56.9461   26.8661   45.5715 H   0  0  0  0  0  0  0  0  0  0  0  0
   59.2693   26.7523   43.3184 H   0  0  0  0  0  0  0  0  0  0  0  0
   58.0416   27.5392   42.7760 H   0  0  0  0  0  0  0  0  0  0  0  0
  1  2  1  0
  2  3  2  0
  3  4  1  0
  4  5  2  0
  5  6  1  0
  6  7  1  0
  5  8  1  0
  8  9  1  0
  9 10  1  0
 10 11  1  0
 11 12  1  0
 12 13  2  0
 13 14  1  0
 14 15  2  0
 15 16  1  0
 10 17  1  0
 17 18  1  0
 18 19  1  0
 19 20  1  0
 20 21  1  0
 21 22  1  0
 22 23  1  0
 23 24  1  0
  6  2  1  0
 16 12  1  0
 24 22  1  0
 18  4  1  0
  1 25  1  0
  1 26  1  0
  1 27  1  0
  3 28  1  0
  7 29  1  0
  7 30  1  0
  7 31  1  0
  8 32  1  0
  8 33  1  0
  9 34  1  0
  9 35  1  0
 11 36  1  0
 11 37  1  0
 13 38  1  0
 14 39  1  0
 15 40  1  0
 17 41  1  0
 17 42  1  0
 18 43  1  6
 19 44  1  0
 19 45  1  0
 21 46  1  0
 21 47  1  0
 22 48  1  0
 23 49  1  0
 23 50  1  0
 24 51  1  0
 24 52  1  0
M  CHG  1   3   1
M  END
>  <UniqueID>  (11) 
11

>  <SMILES>  (11) 
Cc1[nH+]c2c(n1C)CCN(Cc1ccco1)C[C@@H]2COCC1CC1

>  <Energy>  (11) 
383.24875887675387

>  <Genealogy>  (11) 
Cc1[nH+]c2c(n1C)CCN(Cc1ccco1)CC2COCC1CC1 (protonated)
Cc1[nH+]c2c(n1C)CCN(Cc1ccco1)C[C@@H]2COCC1CC1 (chirality)
Cc1[nH+]c2c(n1C)CCN(Cc1ccco1)C[C@@H]2COCC1CC1 (3D coordinates assigned)
Cc1[nH+]c2c(n1C)CCN(Cc1ccco1)C[C@@H]2COCC1CC1 (nonaromatic ring conformer: 383.24875887675387 kcal/mol)

>  <smiles>  (11) 
Cc1nc2c(n1C)CCN(Cc1ccco1)CC2COCC1CC1

>  <score_type>  (11) 
oracle

>  <origin>  (11) 
adg

>  <m_score__min__energy>  (11) 
-4.4500000000000002

>  <m_primary>  (11) 
energy

$$$$
11:0
     RDKit          3D

 39 40  0  0  0  0  0  0  0  0999 V2000
   58.8790   22.8530   45.1590 C   0  0  0  0  0  0  0  0  0  0  0  0
   57.8710   23.7680   45.8650 C   0  0  0  0  0  0  0  0  0  0  0  0
   57.0400   24.5640   44.9210 N   0  0  0  0  0  0  0  0  0  0  0  0
   56.9390   23.8870   43.6000 C   0  0  0  0  0  0  0  0  0  0  0  0
   55.5360   23.3310   43.3280 C   0  0  0  0  0  0  0  0  0  0  0  0
   55.6900   24.8970   45.4530 C   0  0  0  0  0  0  0  0  0  0  0  0
   55.5600   26.3270   46.0060 C   0  0  0  0  0  0  0  0  0  0  0  0
   56.8870   26.8490   46.3170 N   0  0  0  0  0  0  0  0  0  0  0  0
   57.7050   27.5590   45.3810 C   0  0  0  0  0  0  0  0  0  0  0  0
   58.1960   26.9390   44.4030 O   0  0  0  0  0  0  0  0  0  0  0  0
   57.9600   28.9990   45.5160 C   0  0  0  0  0  0  0  0  0  0  0  0
   58.9890   29.6750   46.6740 S   0  0  0  0  0  0  0  0  0  0  0  0
   58.7070   31.2630   46.2120 C   0  0  0  0  0  0  0  0  0  0  0  0
   59.2500   32.4240   46.7580 C   0  0  0  0  0  0  0  0  0  0  0  0
   58.8550   33.6590   46.2190 C   0  0  0  0  0  0  0  0  0  0  0  0
   59.5120   35.1470   46.8730 Cl  0  0  0  0  0  0  0  0  0  0  0  0
   57.9290   33.7070   45.1570 C   0  0  0  0  0  0  0  0  0  0  0  0
   57.3930   32.5220   44.6250 C   0  0  0  0  0  0  0  0  0  0  0  0
   57.7970   31.2940   45.1650 C   0  0  0  0  0  0  0  0  0  0  0  0
   57.3620   30.0200   44.7680 C   0  0  0  0  0  0  0  0  0  0  0  0
   56.1260   29.7450   43.5470 Cl  0  0  0  0  0  0  0  0  0  0  0  0
   59.4735   22.3133   45.9108 H   0  0  0  0  0  0  0  0  0  0  0  0
   58.3396   22.1297   44.5299 H   0  0  0  0  0  0  0  0  0  0  0  0
   59.5469   23.4597   44.5299 H   0  0  0  0  0  0  0  0  0  0  0  0
   57.2035   23.1451   46.4785 H   0  0  0  0  0  0  0  0  0  0  0  0
   58.4470   24.4804   46.4739 H   0  0  0  0  0  0  0  0  0  0  0  0
   57.5250   25.4820   44.7750 H   0  0  0  0  0  0  0  0  0  0  0  0
   57.1892   24.6127   42.8122 H   0  0  0  0  0  0  0  0  0  0  0  0
   57.6383   23.0380   43.6064 H   0  0  0  0  0  0  0  0  0  0  0  0
   55.0295   23.1303   44.2836 H   0  0  0  0  0  0  0  0  0  0  0  0
   54.9551   24.0669   42.7526 H   0  0  0  0  0  0  0  0  0  0  0  0
   55.6169   22.3970   42.7526 H   0  0  0  0  0  0  0  0  0  0  0  0
   54.9598   24.7750   44.6394 H   0  0  0  0  0  0  0  0  0  0  0  0
   55.5085   24.2160   46.2975 H   0  0  0  0  0  0  0  0  0  0  0  0
   55.0801   26.9694   45.2530 H   0  0  0  0  0  0  0  0  0  0  0  0
   54.9472   26.3134   46.9194 H   0  0  0  0  0  0  0  0  0  0  0  0
   59.9689   32.3746   47.5891 H   0  0  0  0  0  0  0  0  0  0  0  0
   57.6239   34.6789   44.7419 H   0  0  0  0  0  0  0  0  0  0  0  0
   56.6683   32.5579   43.7983 H   0  0  0  0  0  0  0  0  0  0  0  0
  1  2  1  0
  2  3  1  0
  3  4  1  0
  4  5  1  0
  3  6  1  0
  6  7  1  0
  7  8  1  0
  8  9  1  0
  9 10  2  0
  9 11  1  0
 11 12  1  0
 12 13  1  0
 13 14  2  0
 14 15  1  0
 15 16  1  0
 15 17  2  0
 17 18  1  0
 18 19  2  0
 19 20  1  0
 20 21  1  0
 20 11  2  0
 19 13  1  0
  1 22  1  0
  1 23  1  0
  1 24  1  0
  2 25  1  0
  2 26  1  0
  3 27  1  0
  4 28  1  0
  4 29  1  0
  5 30  1  0
  5 31  1  0
  5 32  1  0
  6 33  1  0
  6 34  1  0
  7 35  1  0
  7 36  1  0
 14 37  1  0
 17 38  1  0
 18 39  1  0
M  CHG  2   3   1   8  -1
M  END
>  <UniqueID>  (12) 
12

>  <SMILES>  (12) 
CC[NH+](CC)CC[N-]C(=O)c1sc2cc(Cl)ccc2c1Cl

>  <Energy>  (12) 
75.45469149800137

>  <Genealogy>  (12) 
CC[NH+](CC)CC[N-]C(=O)c1sc2cc(Cl)ccc2c1Cl (protonated)
CC[NH+](CC)CC[N-]C(=O)c1sc2cc(Cl)ccc2c1Cl (3D coordinates assigned)
CC[NH+](CC)CC[N-]C(=O)c1sc2cc(Cl)ccc2c1Cl (optimized conformer: 75.45469149800137 kcal/mol)

>  <smiles>  (12) 
CCN(CC)CCNC(=O)c1sc2cc(Cl)ccc2c1Cl

>  <score_type>  (12) 
oracle

>  <origin>  (12) 
adg

>  <m_score__min__energy>  (12) 
-6.6299999999999999

>  <m_primary>  (12) 
energy

$$$$
12:0
     RDKit          3D

 44 47  0  0  0  0  0  0  0  0999 V2000
   57.0300   21.0840   42.9870 C   0  0  0  0  0  0  0  0  0  0  0  0
   55.9580   21.9350   43.3810 O   0  0  0  0  0  0  0  0  0  0  0  0
   56.0180   22.8440   44.4500 C   0  0  0  0  0  0  0  0  0  0  0  0
   55.2450   22.5840   45.5850 C   0  0  0  0  0  0  0  0  0  0  0  0
   55.2760   23.4500   46.6790 C   0  0  0  0  0  0  0  0  0  0  0  0
   56.0810   24.5900   46.6480 C   0  0  0  0  0  0  0  0  0  0  0  0
   56.8610   24.8830   45.5120 C   0  0  0  0  0  0  0  0  0  0  0  0
   57.7550   26.0720   45.4710 C   0  0  0  0  0  0  0  0  0  0  0  0
   58.9640   26.1250   46.1770 C   0  0  0  0  0  0  0  0  0  0  0  0
   59.7620   27.2610   46.0770 C   0  0  0  0  0  0  0  0  0  0  0  0
   59.3420   28.3300   45.2850 C   0  0  0  0  0  0  0  0  0  0  0  0
   60.0630   29.3630   45.2000 O   0  0  0  0  0  0  0  0  0  0  0  0
   58.1510   28.2480   44.6150 N   0  0  0  0  0  0  0  0  0  0  0  0
   57.6480   29.3600   43.8020 C   0  0  0  0  0  0  0  0  0  0  0  0
   56.4750   29.9940   44.4770 C   0  0  0  0  0  0  0  0  0  0  0  0
   55.5340   29.2690   44.8970 O   0  0  0  0  0  0  0  0  0  0  0  0
   56.3940   31.4240   44.5490 N   0  0  0  0  0  0  0  0  0  0  0  0
   57.2750   32.3130   45.2510 C   0  0  0  0  0  0  0  0  0  0  0  0
   57.3460   33.6600   44.8280 C   0  0  0  0  0  0  0  0  0  0  0  0
   58.1940   34.5770   45.4710 C   0  0  0  0  0  0  0  0  0  0  0  0
   58.9830   34.1280   46.5330 C   0  0  0  0  0  0  0  0  0  0  0  0
   59.8520   34.8980   47.2370 N   0  0  0  0  0  0  0  0  0  0  0  0
   60.4950   34.1910   48.1990 C   0  0  0  0  0  0  0  0  0  0  0  0
   60.0020   32.5700   48.2030 S   0  0  0  0  0  0  0  0  0  0  0  0
   58.9290   32.8020   46.9320 C   0  0  0  0  0  0  0  0  0  0  0  0
   58.0980   31.8720   46.3140 C   0  0  0  0  0  0  0  0  0  0  0  0
   57.3920   27.1520   44.7220 N   0  0  0  0  0  0  0  0  0  0  0  0
   56.8230   23.9990   44.4160 C   0  0  0  0  0  0  0  0  0  0  0  0
   57.5307   20.6865   43.8822 H   0  0  0  0  0  0  0  0  0  0  0  0
   56.6352   20.2507   42.3873 H   0  0  0  0  0  0  0  0  0  0  0  0
   57.7520   21.6575   42.3873 H   0  0  0  0  0  0  0  0  0  0  0  0
   54.6065   21.6888   45.6163 H   0  0  0  0  0  0  0  0  0  0  0  0
   54.6648   23.2338   47.5676 H   0  0  0  0  0  0  0  0  0  0  0  0
   56.1065   25.2643   47.5167 H   0  0  0  0  0  0  0  0  0  0  0  0
   59.2792   25.2777   46.8037 H   0  0  0  0  0  0  0  0  0  0  0  0
   60.7177   27.3156   46.6189 H   0  0  0  0  0  0  0  0  0  0  0  0
   58.4442   30.1084   43.6752 H   0  0  0  0  0  0  0  0  0  0  0  0
   57.3368   28.9777   42.8186 H   0  0  0  0  0  0  0  0  0  0  0  0
   56.7277   33.9953   43.9823 H   0  0  0  0  0  0  0  0  0  0  0  0
   58.2359   35.6268   45.1451 H   0  0  0  0  0  0  0  0  0  0  0  0
   60.0110   35.9170   47.0620 H   0  0  0  0  0  0  0  0  0  0  0  0
   61.2404   34.6151   48.8878 H   0  0  0  0  0  0  0  0  0  0  0  0
   58.0816   30.8225   46.6432 H   0  0  0  0  0  0  0  0  0  0  0  0
   57.4290   24.2133   43.5234 H   0  0  0  0  0  0  0  0  0  0  0  0
  1  2  1  0
  2  3  1  0
  3  4  2  0
  4  5  1  0
  5  6  2  0
  6  7  1  0
  7  8  1  0
  8  9  1  0
  9 10  2  0
 10 11  1  0
 11 12  2  0
 11 13  1  0
 13 14  1  0
 14 15  1  0
 15 16  2  0
 15 17  1  0
 17 18  1  0
 18 19  2  0
 19 20  1  0
 20 21  2  0
 21 22  1  0
 22 23  2  0
 23 24  1  0
 24 25  1  0
 25 26  2  0
 13 27  1  0
  7 28  2  0
 28  3  1  0
 27  8  2  0
 26 18  1  0
 25 21  1  0
  1 29  1  0
  1 30  1  0
  1 31  1  0
  4 32  1  0
  5 33  1  0
  6 34  1  0
  9 35  1  0
 10 36  1  0
 14 37  1  0
 14 38  1  0
 19 39  1  0
 20 40  1  0
 22 41  1  0
 23 42  1  0
 26 43  1  0
 28 44  1  0
M  CHG  2  17  -1  22   1
M  END
>  <UniqueID>  (13) 
13

>  <SMILES>  (13) 
COc1cccc(-c2ccc(=O)n(CC(=O)[N-]c3ccc4[nH+]csc4c3)n2)c1

>  <Energy>  (13) 
89.16993365228106

>  <Genealogy>  (13) 
COc1cccc(-c2ccc(=O)n(CC(=O)[N-]c3ccc4[nH+]csc4c3)n2)c1 (protonated)
COc1cccc(-c2ccc(=O)n(CC(=O)[N-]c3ccc4[nH+]csc4c3)n2)c1 (3D coordinates assigned)
COc1cccc(-c2ccc(=O)n(CC(=O)[N-]c3ccc4[nH+]csc4c3)n2)c1 (optimized conformer: 89.16993365228106 kcal/mol)

>  <smiles>  (13) 
COc1cccc(-c2ccc(=O)n(CC(=O)Nc3ccc4ncsc4c3)n2)c1

>  <score_type>  (13) 
oracle

>  <origin>  (13) 
adg

>  <m_score__min__energy>  (13) 
-9.4600000000000009

>  <m_primary>  (13) 
energy

$$$$
13:0
     RDKit          3D

 47 50  0  0  0  0  0  0  0  0999 V2000
   62.6690   32.5770   47.5240 C   0  0  0  0  0  0  0  0  0  0  0  0
   61.3440   32.1090   47.7450 O   0  0  0  0  0  0  0  0  0  0  0  0
   60.2330   32.4620   46.9630 C   0  0  0  0  0  0  0  0  0  0  0  0
   59.8820   33.8080   46.7310 C   0  0  0  0  0  0  0  0  0  0  0  0
   58.7850   34.1230   45.9240 C   0  0  0  0  0  0  0  0  0  0  0  0
   58.0290   33.1060   45.3410 C   0  0  0  0  0  0  0  0  0  0  0  0
   58.3640   31.7680   45.5680 C   0  0  0  0  0  0  0  0  0  0  0  0
   59.4580   31.4400   46.3810 C   0  0  0  0  0  0  0  0  0  0  0  0
   59.7770   30.0590   46.6130 N   0  0  0  0  0  0  0  0  0  0  0  0
   59.1380   29.3480   47.7290 C   0  0  0  0  0  0  0  0  0  0  0  0
   59.4790   27.8550   47.7060 C   0  0  0  0  0  0  0  0  0  0  0  0
   59.3500   27.3360   46.3380 N   0  0  0  0  0  0  0  0  0  0  0  0
   58.7470   26.0550   46.0930 C   0  0  0  0  0  0  0  0  0  0  0  0
   59.5260   24.9640   45.8210 N   0  0  0  0  0  0  0  0  0  0  0  0
   58.9790   23.7310   45.5650 C   0  0  0  0  0  0  0  0  0  0  0  0
   59.8690   22.5790   45.2390 C   0  0  0  0  0  0  0  0  0  0  0  0
   57.6210   23.5700   45.5400 N   0  0  0  0  0  0  0  0  0  0  0  0
   56.8470   24.6480   45.8070 C   0  0  0  0  0  0  0  0  0  0  0  0
   57.3660   25.8730   46.0730 C   0  0  0  0  0  0  0  0  0  0  0  0
   56.2730   26.7120   46.1860 C   0  0  0  0  0  0  0  0  0  0  0  0
   55.1480   25.9780   45.9950 N   0  0  0  0  0  0  0  0  0  0  0  0
   55.5070   24.7170   45.7780 N   0  0  0  0  0  0  0  0  0  0  0  0
   54.5810   23.6440   45.4400 C   0  0  0  0  0  0  0  0  0  0  0  0
   59.9860   28.0450   45.2170 C   0  0  0  0  0  0  0  0  0  0  0  0
   60.6560   29.3460   45.6790 C   0  0  0  0  0  0  0  0  0  0  0  0
   63.1625   32.7513   48.4915 H   0  0  0  0  0  0  0  0  0  0  0  0
   63.2337   31.8239   46.9548 H   0  0  0  0  0  0  0  0  0  0  0  0
   62.6355   33.5177   46.9548 H   0  0  0  0  0  0  0  0  0  0  0  0
   60.4747   34.6144   47.1876 H   0  0  0  0  0  0  0  0  0  0  0  0
   58.5173   35.1754   45.7483 H   0  0  0  0  0  0  0  0  0  0  0  0
   57.1691   33.3569   44.7025 H   0  0  0  0  0  0  0  0  0  0  0  0
   57.7661   30.9683   45.1063 H   0  0  0  0  0  0  0  0  0  0  0  0
   59.4886   29.7810   48.6774 H   0  0  0  0  0  0  0  0  0  0  0  0
   58.0478   29.4566   47.6310 H   0  0  0  0  0  0  0  0  0  0  0  0
   60.5121   27.7110   48.0553 H   0  0  0  0  0  0  0  0  0  0  0  0
   58.7855   27.3139   48.3665 H   0  0  0  0  0  0  0  0  0  0  0  0
   60.2263   22.1165   46.1709 H   0  0  0  0  0  0  0  0  0  0  0  0
   59.3077   21.8364   44.6529 H   0  0  0  0  0  0  0  0  0  0  0  0
   60.7292   22.9346   44.6529 H   0  0  0  0  0  0  0  0  0  0  0  0
   56.3093   27.7913   46.3952 H   0  0  0  0  0  0  0  0  0  0  0  0
   54.1908   23.1919   46.3637 H   0  0  0  0  0  0  0  0  0  0  0  0
   53.7466   24.0518   44.8505 H   0  0  0  0  0  0  0  0  0  0  0  0
   55.1065   22.8782   44.8505 H   0  0  0  0  0  0  0  0  0  0  0  0
   60.7478   27.3913   44.7673 H   0  0  0  0  0  0  0  0  0  0  0  0
   59.2061   28.3008   44.4847 H   0  0  0  0  0  0  0  0  0  0  0  0
   61.6053   29.1084   46.1814 H   0  0  0  0  0  0  0  0  0  0  0  0
   60.8467   29.9845   44.8038 H   0  0  0  0  0  0  0  0  0  0  0  0
  1  2  1  0
  2  3  1  0
  3  4  2  0
  4  5  1  0
  5  6  2  0
  6  7  1  0
  7  8  2  0
  8  9  1  0
  9 10  1  0
 10 11  1  0
 11 12  1  0
 12 13  1  0
 13 14  2  0
 14 15  1  0
 15 16  1  0
 15 17  2  0
 17 18  1  0
 18 19  2  0
 19 20  1  0
 20 21  2  0
 21 22  1  0
 22 23  1  0
 12 24  1  0
 24 25  1  0
  8  3  1  0
 25  9  1  0
 19 13  1  0
 22 18  1  0
  1 26  1  0
  1 27  1  0
  1 28  1  0
  4 29  1  0
  5 30  1  0
  6 31  1  0
  7 32  1  0
 10 33  1  0
 10 34  1  0
 11 35  1  0
 11 36  1  0
 16 37  1  0
 16 38  1  0
 16 39  1  0
 20 40  1  0
 23 41  1  0
 23 42  1  0
 23 43  1  0
 24 44  1  0
 24 45  1  0
 25 46  1  0
 25 47  1  0
M  END
>  <UniqueID>  (14) 
14

>  <SMILES>  (14) 
COc1ccccc1N1CCN(c2nc(C)nc3c2cnn3C)CC1

>  <Energy>  (14) 
98.50075944309116

>  <Genealogy>  (14) 
COc1ccccc1N1CCN(c2nc(C)nc3c2cnn3C)CC1 (3D coordinates assigned)
COc1ccccc1N1CCN(c2nc(C)nc3c2cnn3C)CC1 (nonaromatic ring conformer: 98.50075944309116 kcal/mol)

>  <smiles>  (14) 
COc1ccccc1N1CCN(c2nc(C)nc3c2cnn3C)CC1

>  <score_type>  (14) 
oracle

>  <origin>  (14) 
adg

>  <m_score__min__energy>  (14) 
-7.4699999999999998

>  <m_primary>  (14) 
energy

$$$$
14:0
     RDKit          3D

 57 59  0  0  0  0  0  0  0  0999 V2000
   60.5200   30.5980   50.4390 C   0  0  0  0  0  0  0  0  0  0  0  0
   61.0790   30.2510   49.1770 O   0  0  0  0  0  0  0  0  0  0  0  0
   60.3280   29.9940   48.0210 C   0  0  0  0  0  0  0  0  0  0  0  0
   60.7840   30.3360   46.7340 C   0  0  0  0  0  0  0  0  0  0  0  0
   59.9970   30.0570   45.6110 C   0  0  0  0  0  0  0  0  0  0  0  0
   58.7510   29.4290   45.7560 C   0  0  0  0  0  0  0  0  0  0  0  0
   57.9080   29.1350   44.5400 C   0  0  0  0  0  0  0  0  0  0  0  0
   56.8870   30.1830   44.3320 N   0  0  0  0  0  0  0  0  0  0  0  0
   55.5240   29.6730   44.5470 C   0  0  0  0  0  0  0  0  0  0  0  0
   57.0410   31.0000   43.1010 C   0  0  0  0  0  0  0  0  0  0  0  0
   57.8550   32.3110   43.2330 C   0  0  0  0  0  0  0  0  0  0  0  0
   57.4060   33.2620   44.3560 C   0  0  0  0  0  0  0  0  0  0  0  0
   58.4500   33.4340   45.3900 N   0  0  0  0  0  0  0  0  0  0  0  0
   57.8660   33.3560   46.7420 C   0  0  0  0  0  0  0  0  0  0  0  0
   58.9960   33.1890   47.7620 C   0  0  0  0  0  0  0  0  0  0  0  0
   60.1650   33.9870   47.3730 N   0  0  0  0  0  0  0  0  0  0  0  0
   61.4490   33.7100   47.9560 C   0  0  0  0  0  0  0  0  0  0  0  0
   62.5420   33.3780   47.1380 C   0  0  0  0  0  0  0  0  0  0  0  0
   63.7930   33.1150   47.7040 C   0  0  0  0  0  0  0  0  0  0  0  0
   63.9650   33.1900   49.0880 C   0  0  0  0  0  0  0  0  0  0  0  0
   62.8880   33.5310   49.9090 C   0  0  0  0  0  0  0  0  0  0  0  0
   61.6330   33.7940   49.3490 C   0  0  0  0  0  0  0  0  0  0  0  0
   60.6080   34.1620   50.1590 F   0  0  0  0  0  0  0  0  0  0  0  0
   59.9840   35.1250   46.4650 C   0  0  0  0  0  0  0  0  0  0  0  0
   59.1980   34.7040   45.2060 C   0  0  0  0  0  0  0  0  0  0  0  0
   58.2940   29.0990   47.0400 C   0  0  0  0  0  0  0  0  0  0  0  0
   59.0800   29.3770   48.1620 C   0  0  0  0  0  0  0  0  0  0  0  0
   61.1573   30.2024   51.2436 H   0  0  0  0  0  0  0  0  0  0  0  0
   60.4590   31.6930   50.5244 H   0  0  0  0  0  0  0  0  0  0  0  0
   59.5116   30.1668   50.5244 H   0  0  0  0  0  0  0  0  0  0  0  0
   61.7620   30.8241   46.6106 H   0  0  0  0  0  0  0  0  0  0  0  0
   60.3575   30.3317   44.6087 H   0  0  0  0  0  0  0  0  0  0  0  0
   58.5592   29.0877   43.6548 H   0  0  0  0  0  0  0  0  0  0  0  0
   57.3949   28.1745   44.6956 H   0  0  0  0  0  0  0  0  0  0  0  0
   55.3262   29.5990   45.6265 H   0  0  0  0  0  0  0  0  0  0  0  0
   54.7985   30.3605   44.0876 H   0  0  0  0  0  0  0  0  0  0  0  0
   55.4280   28.6781   44.0876 H   0  0  0  0  0  0  0  0  0  0  0  0
   57.5381   30.3738   42.3455 H   0  0  0  0  0  0  0  0  0  0  0  0
   56.0219   31.3182   42.8361 H   0  0  0  0  0  0  0  0  0  0  0  0
   58.9049   32.0403   43.4184 H   0  0  0  0  0  0  0  0  0  0  0  0
   57.6965   32.8596   42.2928 H   0  0  0  0  0  0  0  0  0  0  0  0
   57.1754   34.2443   43.9179 H   0  0  0  0  0  0  0  0  0  0  0  0
   56.5205   32.8224   44.8384 H   0  0  0  0  0  0  0  0  0  0  0  0
   57.3081   34.2793   46.9570 H   0  0  0  0  0  0  0  0  0  0  0  0
   57.1798   32.4984   46.8025 H   0  0  0  0  0  0  0  0  0  0  0  0
   58.6437   33.5215   48.7496 H   0  0  0  0  0  0  0  0  0  0  0  0
   59.2867   32.1287   47.7989 H   0  0  0  0  0  0  0  0  0  0  0  0
   62.4128   33.3247   46.0469 H   0  0  0  0  0  0  0  0  0  0  0  0
   64.6429   32.8487   47.0585 H   0  0  0  0  0  0  0  0  0  0  0  0
   64.9495   32.9803   49.5317 H   0  0  0  0  0  0  0  0  0  0  0  0
   63.0266   33.5930   50.9985 H   0  0  0  0  0  0  0  0  0  0  0  0
   59.4293   35.9182   46.9876 H   0  0  0  0  0  0  0  0  0  0  0  0
   60.9748   35.4894   46.1557 H   0  0  0  0  0  0  0  0  0  0  0  0
   58.4815   35.5005   44.9568 H   0  0  0  0  0  0  0  0  0  0  0  0
   59.9281   34.5434   44.3991 H   0  0  0  0  0  0  0  0  0  0  0  0
   57.3122   28.6190   47.1649 H   0  0  0  0  0  0  0  0  0  0  0  0
   58.7144   29.1085   49.1641 H   0  0  0  0  0  0  0  0  0  0  0  0
  1  2  1  0
  2  3  1  0
  3  4  2  0
  4  5  1  0
  5  6  2  0
  6  7  1  0
  7  8  1  0
  8  9  1  0
  8 10  1  0
 10 11  1  0
 11 12  1  0
 12 13  1  0
 13 14  1  0
 14 15  1  0
 15 16  1  0
 16 17  1  0
 17 18  2  0
 18 19  1  0
 19 20  2  0
 20 21  1  0
 21 22  2  0
 22 23  1  0
 16 24  1  0
 24 25  1  0
  6 26  1  0
 26 27  2  0
 27  3  1  0
 25 13  1  0
 22 17  1  0
  1 28  1  0
  1 29  1  0
  1 30  1  0
  4 31  1  0
  5 32  1  0
  7 33  1  0
  7 34  1  0
  9 35  1  0
  9 36  1  0
  9 37  1  0
 10 38  1  0
 10 39  1  0
 11 40  1  0
 11 41  1  0
 12 42  1  0
 12 43  1  0
 14 44  1  0
 14 45  1  0
 15 46  1  0
 15 47  1  0
 18 48  1  0
 19 49  1  0
 20 50  1  0
 21 51  1  0
 24 52  1  0
 24 53  1  0
 25 54  1  0
 25 55  1  0
 26 56  1  0
 27 57  1  0
M  END
>  <UniqueID>  (15) 
15

>  <SMILES>  (15) 
COc1ccc(CN(C)CCCN2CCN(c3ccccc3F)CC2)cc1

>  <Energy>  (15) 
72.11689941703818

>  <Genealogy>  (15) 
COc1ccc(CN(C)CCCN2CCN(c3ccccc3F)CC2)cc1 (3D coordinates assigned)
COc1ccc(CN(C)CCCN2CCN(c3ccccc3F)CC2)cc1 (nonaromatic ring conformer: 72.11689941703818 kcal/mol)

>  <smiles>  (15) 
COc1ccc(CN(C)CCCN2CCN(c3ccccc3F)CC2)cc1

>  <score_type>  (15) 
oracle

>  <origin>  (15) 
adg

>  <m_score__min__energy>  (15) 
-7.6100000000000003

>  <m_primary>  (15) 
energy

$$$$
15:0
     RDKit          3D

 27 28  0  0  0  0  0  0  0  0999 V2000
   60.5470   30.2220   48.2170 C   0  0  0  0  0  0  0  0  0  0  0  0
   60.6510   30.1220   46.7000 C   0  0  0  0  0  0  0  0  0  0  0  0
   59.3940   30.5410   46.0760 N   0  0  0  0  0  0  0  0  0  0  0  0
   58.4950   29.7240   45.4860 C   0  0  0  0  0  0  0  0  0  0  0  0
   57.4460   30.4600   44.9410 C   0  0  0  0  0  0  0  0  0  0  0  0
   56.3030   29.8700   44.2090 C   0  0  0  0  0  0  0  0  0  0  0  0
   55.3070   29.4630   44.8670 O   0  0  0  0  0  0  0  0  0  0  0  0
   56.2800   29.7330   42.7170 C   0  0  0  0  0  0  0  0  0  0  0  0
   56.9720   28.5950   42.3460 F   0  0  0  0  0  0  0  0  0  0  0  0
   56.8810   30.8340   42.1330 F   0  0  0  0  0  0  0  0  0  0  0  0
   57.7360   31.7910   45.2280 C   0  0  0  0  0  0  0  0  0  0  0  0
   57.0380   32.9780   44.9800 C   0  0  0  0  0  0  0  0  0  0  0  0
   57.6090   34.1880   45.4130 C   0  0  0  0  0  0  0  0  0  0  0  0
   58.8470   34.1940   46.0880 C   0  0  0  0  0  0  0  0  0  0  0  0
   59.5210   32.9890   46.3470 C   0  0  0  0  0  0  0  0  0  0  0  0
   58.9330   31.7980   45.9100 C   0  0  0  0  0  0  0  0  0  0  0  0
   61.2662   29.5305   48.6802 H   0  0  0  0  0  0  0  0  0  0  0  0
   60.7724   31.2513   48.5329 H   0  0  0  0  0  0  0  0  0  0  0  0
   59.5274   29.9564   48.5329 H   0  0  0  0  0  0  0  0  0  0  0  0
   61.4653   30.7726   46.3484 H   0  0  0  0  0  0  0  0  0  0  0  0
   60.8573   29.0775   46.4234 H   0  0  0  0  0  0  0  0  0  0  0  0
   58.5797   28.6282   45.4420 H   0  0  0  0  0  0  0  0  0  0  0  0
   55.2349   29.6625   42.3812 H   0  0  0  0  0  0  0  0  0  0  0  0
   56.0686   32.9651   44.4603 H   0  0  0  0  0  0  0  0  0  0  0  0
   57.0859   35.1370   45.2237 H   0  0  0  0  0  0  0  0  0  0  0  0
   59.2876   35.1478   46.4137 H   0  0  0  0  0  0  0  0  0  0  0  0
   60.4840   32.9825   46.8785 H   0  0  0  0  0  0  0  0  0  0  0  0
  1  2  1  0
  2  3  1  0
  3  4  1  0
  4  5  2  0
  5  6  1  0
  6  7  2  0
  6  8  1  0
  8  9  1  0
  8 10  1  0
  5 11  1  0
 11 12  2  0
 12 13  1  0
 13 14  2  0
 14 15  1  0
 15 16  2  0
 16  3  1  0
 16 11  1  0
  1 17  1  0
  1 18  1  0
  1 19  1  0
  2 20  1  0
  2 21  1  0
  4 22  1  0
  8 23  1  0
 12 24  1  0
 13 25  1  0
 14 26  1  0
 15 27  1  0
M  END
>  <UniqueID>  (16) 
16

>  <SMILES>  (16) 
CCn1cc(C(=O)C(F)F)c2ccccc21

>  <Energy>  (16) 
59.30466650522484

>  <Genealogy>  (16) 
CCn1cc(C(=O)C(F)F)c2ccccc21 (3D coordinates assigned)
CCn1cc(C(=O)C(F)F)c2ccccc21 (optimized conformer: 59.30466650522484 kcal/mol)

>  <smiles>  (16) 
CCn1cc(C(=O)C(F)F)c2ccccc21

>  <score_type>  (16) 
oracle

>  <origin>  (16) 
adg

>  <m_score__min__energy>  (16) 
-6.0899999999999999

>  <m_primary>  (16) 
energy

$$$$
16:0
     RDKit          3D

 41 44  0  0  0  0  0  0  0  0999 V2000
   59.4915   28.1884   45.2001 H   0  0  0  0  0  0  0  0  0  0  0  0
   58.6380   28.4290   45.8510 C   0  0  0  0  0  0  0  0  0  0  0  0
   57.6800   27.5010   45.9930 C   0  0  0  0  0  0  0  0  0  0  0  0
   58.0630   25.8700   46.6420 S   0  0  0  0  0  0  0  0  0  0  0  0
   56.3080   25.5040   46.5640 C   0  0  0  0  0  0  0  0  0  0  0  0
   55.8310   24.4260   47.0010 O   0  0  0  0  0  0  0  0  0  0  0  0
   55.4770   26.5030   45.9890 N   0  0  0  0  0  0  0  0  0  0  0  0
   56.2600   27.6290   45.6430 C   0  0  0  0  0  0  0  0  0  0  0  0
   55.7610   28.6130   45.0360 O   0  0  0  0  0  0  0  0  0  0  0  0
   58.6260   29.7490   46.5070 C   0  0  0  0  0  0  0  0  0  0  0  0
   58.3720   30.9910   45.9420 C   0  0  0  0  0  0  0  0  0  0  0  0
   57.9950   31.2900   44.5460 C   0  0  0  0  0  0  0  0  0  0  0  0
   58.4700   32.4650   43.9380 C   0  0  0  0  0  0  0  0  0  0  0  0
   59.1105   33.1554   44.5065 H   0  0  0  0  0  0  0  0  0  0  0  0
   58.1320   32.7600   42.6140 C   0  0  0  0  0  0  0  0  0  0  0  0
   58.4975   33.6866   42.1473 H   0  0  0  0  0  0  0  0  0  0  0  0
   57.3300   31.8790   41.8820 C   0  0  0  0  0  0  0  0  0  0  0  0
   57.0060   32.1660   40.5980 F   0  0  0  0  0  0  0  0  0  0  0  0
   56.8750   30.6970   42.4720 C   0  0  0  0  0  0  0  0  0  0  0  0
   56.2520   29.9992   41.8932 H   0  0  0  0  0  0  0  0  0  0  0  0
   57.2100   30.3990   43.7970 C   0  0  0  0  0  0  0  0  0  0  0  0
   56.8570   29.4628   44.2540 H   0  0  0  0  0  0  0  0  0  0  0  0
   58.4340   31.9340   46.9040 N   0  0  0  0  0  0  0  0  0  0  0  0
   58.7480   31.3390   48.0460 N   0  0  0  0  0  0  0  0  0  0  0  0
   58.9150   32.0480   49.2920 C   0  0  0  0  0  0  0  0  0  0  0  0
   59.9130   33.0300   49.4450 C   0  0  0  0  0  0  0  0  0  0  0  0
   60.5788   33.2680   48.6023 H   0  0  0  0  0  0  0  0  0  0  0  0
   60.0630   33.7030   50.6580 C   0  0  0  0  0  0  0  0  0  0  0  0
   60.8446   34.4693   50.7666 H   0  0  0  0  0  0  0  0  0  0  0  0
   59.2240   33.4070   51.7350 C   0  0  0  0  0  0  0  0  0  0  0  0
   59.3463   33.9447   52.6868 H   0  0  0  0  0  0  0  0  0  0  0  0
   58.2300   32.4320   51.6110 C   0  0  0  0  0  0  0  0  0  0  0  0
   57.4150   32.1690   52.7230 O   0  0  0  0  0  0  0  0  0  0  0  0
   56.5870   31.0190   52.8610 C   0  0  0  0  0  0  0  0  0  0  0  0
   56.4325   30.8044   53.9287 H   0  0  0  0  0  0  0  0  0  0  0  0
   55.6155   31.2068   52.3804 H   0  0  0  0  0  0  0  0  0  0  0  0
   57.0733   30.1573   52.3804 H   0  0  0  0  0  0  0  0  0  0  0  0
   58.0800   31.7530   50.3870 C   0  0  0  0  0  0  0  0  0  0  0  0
   57.3013   30.9828   50.2846 H   0  0  0  0  0  0  0  0  0  0  0  0
   58.8830   30.0110   47.8390 C   0  0  0  0  0  0  0  0  0  0  0  0
   59.1518   29.2650   48.6013 H   0  0  0  0  0  0  0  0  0  0  0  0
  1  2  1  0
  2  3  2  0
  3  4  1  0
  4  5  1  0
  5  6  2  0
  5  7  1  0
  7  8  1  0
  8  9  2  0
  2 10  1  0
 10 11  1  0
 11 12  1  0
 12 13  2  0
 13 14  1  0
 13 15  1  0
 15 16  1  0
 15 17  2  0
 17 18  1  0
 17 19  1  0
 19 20  1  0
 19 21  2  0
 21 22  1  0
 11 23  2  0
 23 24  1  0
 24 25  1  0
 25 26  2  0
 26 27  1  0
 26 28  1  0
 28 29  1  0
 28 30  2  0
 30 31  1  0
 30 32  1  0
 32 33  1  0
 33 34  1  0
 34 35  1  0
 34 36  1  0
 34 37  1  0
 32 38  2  0
 38 39  1  0
 24 40  1  0
 40 41  1  0
  8  3  1  0
 40 10  2  0
 21 12  1  0
 38 25  1  0
M  CHG  1   7  -1
M  END
>  <UniqueID>  (17) 
17

>  <SMILES>  (17) 
COc1cccc(-n2cc(/C=C3/SC(=O)[N-]C3=O)c(-c3ccc(F)cc3)n2)c1

>  <Energy>  (17) 
108.78596972348474

>  <Genealogy>  (17) 
COc1cccc(-n2cc(C=C3SC(=O)[N-]C3=O)c(-c3ccc(F)cc3)n2)c1 (protonated)
COc1cccc(-n2cc(/C=C3/SC(=O)[N-]C3=O)c(-c3ccc(F)cc3)n2)c1 (cis-trans isomerization)
COc1cccc(-n2cc(/C=C3/SC(=O)[N-]C3=O)c(-c3ccc(F)cc3)n2)c1 (3D coordinates assigned)
COc1cccc(-n2cc(/C=C3/SC(=O)[N-]C3=O)c(-c3ccc(F)cc3)n2)c1 (nonaromatic ring conformer: 108.78596972348474 kcal/mol)

>  <smiles>  (17) 
COc1cccc(-n2cc(C=C3SC(=O)NC3=O)c(-c3ccc(F)cc3)n2)c1

>  <score_type>  (17) 
oracle

>  <origin>  (17) 
adg

>  <m_score__min__energy>  (17) 
-10.380000000000001

>  <m_primary>  (17) 
energy

$$$$
17:0
     RDKit          3D

 50 52  0  0  0  0  0  0  0  0999 V2000
   54.4250   29.3460   45.4920 H   0  0  0  0  0  0  0  0  0  0  0  0
   55.1520   28.9690   44.8440 N   0  0  0  0  0  0  0  0  0  0  0  0
   56.0280   29.8430   44.1360 C   0  0  0  0  0  0  0  0  0  0  0  0
   55.7770   30.1190   42.9320 O   0  0  0  0  0  0  0  0  0  0  0  0
   57.2120   30.4080   44.8230 C   0  0  0  0  0  0  0  0  0  0  0  0
   57.1800   31.7230   45.1770 N   0  0  0  0  0  0  0  0  0  0  0  0
   58.2220   32.3250   45.8050 C   0  0  0  0  0  0  0  0  0  0  0  0
   58.1650   33.6800   46.1410 C   0  0  0  0  0  0  0  0  0  0  0  0
   57.2655   34.2689   45.9083 H   0  0  0  0  0  0  0  0  0  0  0  0
   59.2550   34.2850   46.7740 C   0  0  0  0  0  0  0  0  0  0  0  0
   59.2082   35.3522   47.0363 H   0  0  0  0  0  0  0  0  0  0  0  0
   60.4070   33.5460   47.0780 C   0  0  0  0  0  0  0  0  0  0  0  0
   61.4760   34.2070   47.7020 O   0  0  0  0  0  0  0  0  0  0  0  0
   62.8360   33.7970   47.6130 C   0  0  0  0  0  0  0  0  0  0  0  0
   63.2485   33.6727   48.6251 H   0  0  0  0  0  0  0  0  0  0  0  0
   62.8961   32.8408   47.0725 H   0  0  0  0  0  0  0  0  0  0  0  0
   63.4146   34.5607   47.0725 H   0  0  0  0  0  0  0  0  0  0  0  0
   60.4560   32.1760   46.7480 C   0  0  0  0  0  0  0  0  0  0  0  0
   61.3502   31.5828   46.9900 H   0  0  0  0  0  0  0  0  0  0  0  0
   59.3650   31.5720   46.1120 C   0  0  0  0  0  0  0  0  0  0  0  0
   59.4090   30.2610   45.7640 N   0  0  0  0  0  0  0  0  0  0  0  0
   58.3750   29.6530   45.1160 C   0  0  0  0  0  0  0  0  0  0  0  0
   58.4540   28.3980   44.7780 N   0  0  0  0  0  0  0  0  0  0  0  0
   57.9710   27.2720   45.5290 C   0  0  0  0  0  0  0  0  0  0  0  0
   57.8580   27.3390   46.9600 N   0  0  0  0  0  0  0  0  0  0  0  0
   56.9130   27.1940   47.3850 H   0  0  0  0  0  0  0  0  0  0  0  0
   59.0310   27.1660   47.8140 C   0  0  0  0  0  0  0  0  0  0  0  0
   58.8140   26.4035   48.5766 H   0  0  0  0  0  0  0  0  0  0  0  0
   59.8804   26.8491   47.1910 H   0  0  0  0  0  0  0  0  0  0  0  0
   59.3820   28.4530   48.4910 C   0  0  0  0  0  0  0  0  0  0  0  0
   58.5010   29.3610   48.8410 O   0  0  0  0  0  0  0  0  0  0  0  0
   59.1400   30.3770   49.3740 C   0  0  0  0  0  0  0  0  0  0  0  0
   58.6649   31.2889   49.7647 H   0  0  0  0  0  0  0  0  0  0  0  0
   60.4980   30.1280   49.3700 C   0  0  0  0  0  0  0  0  0  0  0  0
   61.2929   30.7896   49.7448 H   0  0  0  0  0  0  0  0  0  0  0  0
   60.6560   28.8820   48.8010 C   0  0  0  0  0  0  0  0  0  0  0  0
   61.5997   28.3432   48.6301 H   0  0  0  0  0  0  0  0  0  0  0  0
   57.7060   26.1640   44.8950 N   0  0  0  0  0  0  0  0  0  0  0  0
   57.0180   26.2030   44.1090 H   0  0  0  0  0  0  0  0  0  0  0  0
   58.2960   24.8710   45.2620 C   0  0  0  0  0  0  0  0  0  0  0  0
   58.1289   24.6939   46.3347 H   0  0  0  0  0  0  0  0  0  0  0  0
   59.3712   24.9058   45.0326 H   0  0  0  0  0  0  0  0  0  0  0  0
   57.6720   23.7190   44.4640 C   0  0  0  0  0  0  0  0  0  0  0  0
   57.3530   22.9282   45.1589 H   0  0  0  0  0  0  0  0  0  0  0  0
   58.4213   23.3261   43.7610 H   0  0  0  0  0  0  0  0  0  0  0  0
   56.5480   24.1760   43.7290 O   0  0  0  0  0  0  0  0  0  0  0  0
   55.9320   23.1130   43.0340 C   0  0  0  0  0  0  0  0  0  0  0  0
   55.5160   22.3951   43.7561 H   0  0  0  0  0  0  0  0  0  0  0  0
   55.1229   23.5081   42.4021 H   0  0  0  0  0  0  0  0  0  0  0  0
   56.6771   22.6075   42.4021 H   0  0  0  0  0  0  0  0  0  0  0  0
  1  2  1  0
  2  3  1  0
  3  4  2  0
  3  5  1  0
  5  6  2  0
  6  7  1  0
  7  8  2  0
  8  9  1  0
  8 10  1  0
 10 11  1  0
 10 12  2  0
 12 13  1  0
 13 14  1  0
 14 15  1  0
 14 16  1  0
 14 17  1  0
 12 18  1  0
 18 19  1  0
 18 20  2  0
 20 21  1  0
 21 22  1  0
 22 23  2  0
 23 24  1  0
 24 25  1  0
 25 26  1  0
 25 27  1  0
 27 28  1  0
 27 29  1  0
 27 30  1  0
 30 31  1  0
 31 32  1  0
 32 33  1  0
 32 34  2  0
 34 35  1  0
 34 36  1  0
 36 37  1  0
 24 38  2  0
 38 39  1  0
 38 40  1  0
 40 41  1  0
 40 42  1  0
 40 43  1  0
 43 44  1  0
 43 45  1  0
 43 46  1  0
 46 47  1  0
 47 48  1  0
 47 49  1  0
 47 50  1  0
 22  5  1  0
 36 30  2  0
 20  7  1  0
M  CHG  3   2  -1  21  -1  38   1
M  END
>  <UniqueID>  (18) 
18

>  <SMILES>  (18) 
COCC[NH+]=C(/N=c1\[n-]c2cc(OC)ccc2nc1C([NH-])=O)NCc1ccco1

>  <Energy>  (18) 
86.14807666725159

>  <Genealogy>  (18) 
COCC[NH+]=C(N=c1[n-]c2cc(OC)ccc2nc1C([NH-])=O)NCc1ccco1 (protonated)
COCC[NH+]=C(/N=c1\[n-]c2cc(OC)ccc2nc1C([NH-])=O)NCc1ccco1 (cis-trans isomerization)
COCC[NH+]=C(/N=c1\[n-]c2cc(OC)ccc2nc1C([NH-])=O)NCc1ccco1 (3D coordinates assigned)
COCC[NH+]=C(/N=c1\[n-]c2cc(OC)ccc2nc1C([NH-])=O)NCc1ccco1 (optimized conformer: 86.14807666725159 kcal/mol)

>  <smiles>  (18) 
COCCN=C(N=c1[nH]c2cc(OC)ccc2nc1C(N)=O)NCc1ccco1

>  <score_type>  (18) 
oracle

>  <origin>  (18) 
adg

>  <m_score__min__energy>  (18) 
-9.4299999999999997

>  <m_primary>  (18) 
energy

$$$$
18:0
     RDKit          3D

 43 47  0  0  0  0  0  0  0  0999 V2000
   58.8420   34.5390   46.9770 C   0  0  0  0  0  0  0  0  0  0  0  0
   58.6830   33.0780   46.6610 C   0  0  0  0  0  0  0  0  0  0  0  0
   58.8080   32.0410   47.6010 C   0  0  0  0  0  0  0  0  0  0  0  0
   59.1560   32.1630   49.0270 C   0  0  0  0  0  0  0  0  0  0  0  0
   58.1720   31.9700   49.9440 N   0  0  0  0  0  0  0  0  0  0  0  0
   58.4000   32.0980   51.2750 C   0  0  0  0  0  0  0  0  0  0  0  0
   57.3640   31.8980   52.1940 C   0  0  0  0  0  0  0  0  0  0  0  0
   57.6110   32.0410   53.5640 C   0  0  0  0  0  0  0  0  0  0  0  0
   58.8890   32.3830   54.0150 C   0  0  0  0  0  0  0  0  0  0  0  0
   59.9280   32.5830   53.1000 C   0  0  0  0  0  0  0  0  0  0  0  0
   59.6890   32.4420   51.7250 C   0  0  0  0  0  0  0  0  0  0  0  0
   60.6880   32.6220   50.8150 N   0  0  0  0  0  0  0  0  0  0  0  0
   60.4650   32.4740   49.4750 C   0  0  0  0  0  0  0  0  0  0  0  0
   61.6070   32.6120   48.5380 C   0  0  0  0  0  0  0  0  0  0  0  0
   62.2770   31.4790   48.0440 C   0  0  0  0  0  0  0  0  0  0  0  0
   63.3460   31.6220   47.1550 C   0  0  0  0  0  0  0  0  0  0  0  0
   63.7650   32.8950   46.7630 C   0  0  0  0  0  0  0  0  0  0  0  0
   63.1190   34.0290   47.2640 C   0  0  0  0  0  0  0  0  0  0  0  0
   62.0480   33.8890   48.1520 C   0  0  0  0  0  0  0  0  0  0  0  0
   58.4670   30.5630   46.8550 S   0  0  0  0  0  0  0  0  0  0  0  0
   58.2060   31.2150   45.3340 C   0  0  0  0  0  0  0  0  0  0  0  0
   57.8800   30.5420   44.1590 C   0  0  0  0  0  0  0  0  0  0  0  0
   57.7080   31.2950   42.9880 C   0  0  0  0  0  0  0  0  0  0  0  0
   57.8650   32.6930   43.0140 C   0  0  0  0  0  0  0  0  0  0  0  0
   58.1940   33.3510   44.2110 C   0  0  0  0  0  0  0  0  0  0  0  0
   58.3620   32.5940   45.3780 C   0  0  0  0  0  0  0  0  0  0  0  0
   58.8572   34.6786   48.0680 H   0  0  0  0  0  0  0  0  0  0  0  0
   59.7854   34.9066   46.5471 H   0  0  0  0  0  0  0  0  0  0  0  0
   57.9997   35.1009   46.5471 H   0  0  0  0  0  0  0  0  0  0  0  0
   56.3577   31.6290   51.8404 H   0  0  0  0  0  0  0  0  0  0  0  0
   56.7975   31.8839   54.2876 H   0  0  0  0  0  0  0  0  0  0  0  0
   59.0783   32.4952   55.0928 H   0  0  0  0  0  0  0  0  0  0  0  0
   60.9327   32.8509   53.4588 H   0  0  0  0  0  0  0  0  0  0  0  0
   61.6520   32.8510   51.1530 H   0  0  0  0  0  0  0  0  0  0  0  0
   61.9581   30.4744   48.3589 H   0  0  0  0  0  0  0  0  0  0  0  0
   63.8579   30.7305   46.7636 H   0  0  0  0  0  0  0  0  0  0  0  0
   64.6036   33.0056   46.0598 H   0  0  0  0  0  0  0  0  0  0  0  0
   63.4533   35.0318   46.9595 H   0  0  0  0  0  0  0  0  0  0  0  0
   61.5478   34.7839   48.5507 H   0  0  0  0  0  0  0  0  0  0  0  0
   57.7605   29.4485   44.1495 H   0  0  0  0  0  0  0  0  0  0  0  0
   57.4493   30.7904   42.0454 H   0  0  0  0  0  0  0  0  0  0  0  0
   57.7292   33.2750   42.0905 H   0  0  0  0  0  0  0  0  0  0  0  0
   58.3178   34.4438   44.2316 H   0  0  0  0  0  0  0  0  0  0  0  0
  1  2  1  0
  2  3  2  0
  3  4  1  0
  4  5  2  0
  5  6  1  0
  6  7  2  0
  7  8  1  0
  8  9  2  0
  9 10  1  0
 10 11  2  0
 11 12  1  0
 12 13  2  0
 13 14  1  0
 14 15  2  0
 15 16  1  0
 16 17  2  0
 17 18  1  0
 18 19  2  0
  3 20  1  0
 20 21  1  0
 21 22  2  0
 22 23  1  0
 23 24  2  0
 24 25  1  0
 25 26  2  0
 26  2  1  0
 13  4  1  0
 19 14  1  0
 26 21  1  0
 11  6  1  0
  1 27  1  0
  1 28  1  0
  1 29  1  0
  7 30  1  0
  8 31  1  0
  9 32  1  0
 10 33  1  0
 12 34  1  0
 15 35  1  0
 16 36  1  0
 17 37  1  0
 18 38  1  0
 19 39  1  0
 22 40  1  0
 23 41  1  0
 24 42  1  0
 25 43  1  0
M  CHG  1  12   1
M  END
>  <UniqueID>  (19) 
19

>  <SMILES>  (19) 
Cc1c(-c2nc3ccccc3[nH+]c2-c2ccccc2)sc2ccccc12

>  <Energy>  (19) 
95.1524515634504

>  <Genealogy>  (19) 
Cc1c(-c2nc3ccccc3[nH+]c2-c2ccccc2)sc2ccccc12 (protonated)
Cc1c(-c2nc3ccccc3[nH+]c2-c2ccccc2)sc2ccccc12 (3D coordinates assigned)
Cc1c(-c2nc3ccccc3[nH+]c2-c2ccccc2)sc2ccccc12 (optimized conformer: 95.1524515634504 kcal/mol)

>  <smiles>  (19) 
Cc1c(-c2nc3ccccc3nc2-c2ccccc2)sc2ccccc12

>  <score_type>  (19) 
oracle

>  <origin>  (19) 
adg

>  <m_score__min__energy>  (19) 
-7.0499999999999998

>  <m_primary>  (19) 
energy

$$$$
19:0
     RDKit          3D

 45 49  0  0  0  0  0  0  0  0999 V2000
   59.8830   26.7880   46.0090 C   0  0  0  0  0  0  0  0  0  0  0  0
   58.6100   27.3660   46.2790 O   0  0  0  0  0  0  0  0  0  0  0  0
   58.1300   28.5580   45.7080 C   0  0  0  0  0  0  0  0  0  0  0  0
   57.4480   28.5530   44.4770 C   0  0  0  0  0  0  0  0  0  0  0  0
   56.9630   29.7420   43.9200 C   0  0  0  0  0  0  0  0  0  0  0  0
   56.2730   29.7250   42.5880 C   0  0  0  0  0  0  0  0  0  0  0  0
   57.1890   30.9550   44.5790 C   0  0  0  0  0  0  0  0  0  0  0  0
   57.8650   30.9860   45.8090 C   0  0  0  0  0  0  0  0  0  0  0  0
   58.3370   29.7850   46.3810 C   0  0  0  0  0  0  0  0  0  0  0  0
   59.0500   29.8600   47.6830 C   0  0  0  0  0  0  0  0  0  0  0  0
   59.5010   28.8230   48.2390 O   0  0  0  0  0  0  0  0  0  0  0  0
   59.2450   31.1580   48.3510 C   0  0  0  0  0  0  0  0  0  0  0  0
   58.7840   32.3070   47.8230 C   0  0  0  0  0  0  0  0  0  0  0  0
   59.0270   33.6560   48.4890 C   0  0  2  0  0  0  0  0  0  0  0  0
   59.9970   34.7560   47.3960 S   0  0  0  0  0  0  0  0  0  0  0  0
   61.5920   33.9570   47.6600 C   0  0  0  0  0  0  0  0  0  0  0  0
   62.4510   33.7720   46.5720 C   0  0  0  0  0  0  0  0  0  0  0  0
   63.7270   33.2410   46.7700 C   0  0  0  0  0  0  0  0  0  0  0  0
   64.1470   32.8860   48.0540 C   0  0  0  0  0  0  0  0  0  0  0  0
   63.2830   33.0410   49.1420 C   0  0  0  0  0  0  0  0  0  0  0  0
   61.9930   33.5710   48.9540 C   0  0  0  0  0  0  0  0  0  0  0  0
   61.0260   33.5730   50.0190 N   0  0  0  0  0  0  0  0  0  0  0  0
   61.2440   33.4640   51.3470 C   0  0  0  0  0  0  0  0  0  0  0  0
   60.0350   33.4060   52.0160 C   0  0  0  0  0  0  0  0  0  0  0  0
   59.0430   33.4750   51.0570 C   0  0  0  0  0  0  0  0  0  0  0  0
   59.6880   33.5840   49.8410 C   0  0  0  0  0  0  0  0  0  0  0  0
   58.0910   32.2750   46.5090 C   0  0  0  0  0  0  0  0  0  0  0  0
   57.6980   33.3510   45.9830 O   0  0  0  0  0  0  0  0  0  0  0  0
   60.3899   26.5579   46.9577 H   0  0  0  0  0  0  0  0  0  0  0  0
   59.7500   25.8620   45.4303 H   0  0  0  0  0  0  0  0  0  0  0  0
   60.4926   27.4976   45.4303 H   0  0  0  0  0  0  0  0  0  0  0  0
   57.2941   27.6023   43.9456 H   0  0  0  0  0  0  0  0  0  0  0  0
   55.1838   29.6982   42.7396 H   0  0  0  0  0  0  0  0  0  0  0  0
   56.5425   30.6301   42.0239 H   0  0  0  0  0  0  0  0  0  0  0  0
   56.5867   28.8343   42.0239 H   0  0  0  0  0  0  0  0  0  0  0  0
   56.8336   31.8937   44.1291 H   0  0  0  0  0  0  0  0  0  0  0  0
   59.7833   31.1893   49.3098 H   0  0  0  0  0  0  0  0  0  0  0  0
   58.0214   34.0679   48.6595 H   0  0  0  0  0  0  0  0  0  0  0  0
   62.1209   34.0452   45.5589 H   0  0  0  0  0  0  0  0  0  0  0  0
   64.4028   33.1020   45.9133 H   0  0  0  0  0  0  0  0  0  0  0  0
   65.1590   32.4839   48.2093 H   0  0  0  0  0  0  0  0  0  0  0  0
   63.6129   32.7474   50.1494 H   0  0  0  0  0  0  0  0  0  0  0  0
   62.2341   33.4269   51.8248 H   0  0  0  0  0  0  0  0  0  0  0  0
   59.8909   33.3212   53.1032 H   0  0  0  0  0  0  0  0  0  0  0  0
   57.9567   33.4484   51.2279 H   0  0  0  0  0  0  0  0  0  0  0  0
  1  2  1  0
  2  3  1  0
  3  4  2  0
  4  5  1  0
  5  6  1  0
  5  7  2  0
  7  8  1  0
  8  9  2  0
  9 10  1  0
 10 11  2  0
 10 12  1  0
 12 13  2  0
 13 14  1  0
 14 15  1  0
 15 16  1  0
 16 17  2  0
 17 18  1  0
 18 19  2  0
 19 20  1  0
 20 21  2  0
 21 22  1  0
 22 23  1  0
 23 24  2  0
 24 25  1  0
 25 26  2  0
 13 27  1  0
 27 28  2  0
  9  3  1  0
 26 14  1  0
 27  8  1  0
 21 16  1  0
 26 22  1  0
  1 29  1  0
  1 30  1  0
  1 31  1  0
  4 32  1  0
  6 33  1  0
  6 34  1  0
  6 35  1  0
  7 36  1  0
 12 37  1  0
 14 38  1  1
 17 39  1  0
 18 40  1  0
 19 41  1  0
 20 42  1  0
 23 43  1  0
 24 44  1  0
 25 45  1  0
M  END
>  <UniqueID>  (20) 
20

>  <SMILES>  (20) 
COc1cc(C)cc2c1C(=O)C=C([C@@H]1Sc3ccccc3-n3cccc31)C2=O

>  <Energy>  (20) 
88.62002888677654

>  <Genealogy>  (20) 
COc1cc(C)cc2c1C(=O)C=C([C@@H]1Sc3ccccc3-n3cccc31)C2=O (chirality)
COc1cc(C)cc2c1C(=O)C=C([C@@H]1Sc3ccccc3-n3cccc31)C2=O (3D coordinates assigned)
COc1cc(C)cc2c1C(=O)C=C([C@@H]1Sc3ccccc3-n3cccc31)C2=O (nonaromatic ring conformer: 88.62002888677654 kcal/mol)

>  <smiles>  (20) 
COc1cc(C)cc2c1C(=O)C=C(C1Sc3ccccc3-n3cccc31)C2=O

>  <score_type>  (20) 
oracle

>  <origin>  (20) 
adg

>  <m_score__min__energy>  (20) 
-8.8399999999999999

>  <m_primary>  (20) 
energy

$$$$
20:0
     RDKit          3D

 43 45  0  0  0  0  0  0  0  0999 V2000
   55.7630   25.7030   45.9770 C   0  0  0  0  0  0  0  0  0  0  0  0
   55.5990   27.0860   45.6800 O   0  0  0  0  0  0  0  0  0  0  0  0
   56.6320   27.9290   45.2450 C   0  0  0  0  0  0  0  0  0  0  0  0
   57.8680   27.3590   44.9250 C   0  0  0  0  0  0  0  0  0  0  0  0
   58.9150   28.1730   44.4920 C   0  0  0  0  0  0  0  0  0  0  0  0
   58.7340   29.5150   44.3820 N   0  0  0  0  0  0  0  0  0  0  0  0
   57.5450   30.1070   44.6820 C   0  0  0  0  0  0  0  0  0  0  0  0
   57.4060   31.6020   44.5620 C   0  0  0  0  0  0  0  0  0  0  0  0
   58.4420   32.3220   45.3400 N   0  0  0  0  0  0  0  0  0  0  0  0
   58.6480   33.6950   44.8220 C   0  0  0  0  0  0  0  0  0  0  0  0
   59.8780   34.3330   45.4850 C   0  0  0  0  0  0  0  0  0  0  0  0
   59.9990   33.8950   46.8800 N   0  0  0  0  0  0  0  0  0  0  0  0
   61.2880   33.8520   47.5200 C   0  0  0  0  0  0  0  0  0  0  0  0
   62.4260   33.4800   46.7840 C   0  0  0  0  0  0  0  0  0  0  0  0
   63.6850   33.4510   47.3940 C   0  0  0  0  0  0  0  0  0  0  0  0
   63.8170   33.7930   48.7410 C   0  0  0  0  0  0  0  0  0  0  0  0
   62.6930   34.1650   49.4810 C   0  0  0  0  0  0  0  0  0  0  0  0
   61.4310   34.1970   48.8770 C   0  0  0  0  0  0  0  0  0  0  0  0
   60.3510   34.5370   49.6240 F   0  0  0  0  0  0  0  0  0  0  0  0
   58.7950   33.4450   47.5830 C   0  0  0  0  0  0  0  0  0  0  0  0
   58.0650   32.3470   46.7780 C   0  0  0  0  0  0  0  0  0  0  0  0
   56.4700   29.3200   45.1210 C   0  0  0  0  0  0  0  0  0  0  0  0
   55.7798   25.5617   47.0678 H   0  0  0  0  0  0  0  0  0  0  0  0
   54.9261   25.1337   45.5463 H   0  0  0  0  0  0  0  0  0  0  0  0
   56.7099   25.3453   45.5463 H   0  0  0  0  0  0  0  0  0  0  0  0
   58.0144   26.2724   45.0144 H   0  0  0  0  0  0  0  0  0  0  0  0
   59.8885   27.7276   44.2393 H   0  0  0  0  0  0  0  0  0  0  0  0
   57.4987   31.8830   43.5026 H   0  0  0  0  0  0  0  0  0  0  0  0
   56.4222   31.8844   44.9649 H   0  0  0  0  0  0  0  0  0  0  0  0
   59.3450   31.7940   45.2570 H   0  0  0  0  0  0  0  0  0  0  0  0
   58.8024   33.6534   43.7337 H   0  0  0  0  0  0  0  0  0  0  0  0
   57.7604   34.3025   45.0524 H   0  0  0  0  0  0  0  0  0  0  0  0
   60.7815   34.0348   44.9330 H   0  0  0  0  0  0  0  0  0  0  0  0
   59.7635   35.4269   45.4657 H   0  0  0  0  0  0  0  0  0  0  0  0
   62.3264   33.2101   45.7223 H   0  0  0  0  0  0  0  0  0  0  0  0
   64.5713   33.1585   46.8118 H   0  0  0  0  0  0  0  0  0  0  0  0
   64.8071   33.7694   49.2197 H   0  0  0  0  0  0  0  0  0  0  0  0
   62.7998   34.4338   50.5423 H   0  0  0  0  0  0  0  0  0  0  0  0
   59.0812   33.0413   48.5654 H   0  0  0  0  0  0  0  0  0  0  0  0
   58.1167   34.3026   47.7030 H   0  0  0  0  0  0  0  0  0  0  0  0
   58.3092   31.3697   47.2198 H   0  0  0  0  0  0  0  0  0  0  0  0
   56.9886   32.5678   46.8284 H   0  0  0  0  0  0  0  0  0  0  0  0
   55.5056   29.7886   45.3669 H   0  0  0  0  0  0  0  0  0  0  0  0
  1  2  1  0
  2  3  1  0
  3  4  2  0
  4  5  1  0
  5  6  2  0
  6  7  1  0
  7  8  1  0
  8  9  1  0
  9 10  1  0
 10 11  1  0
 11 12  1  0
 12 13  1  0
 13 14  2  0
 14 15  1  0
 15 16  2  0
 16 17  1  0
 17 18  2  0
 18 19  1  0
 12 20  1  0
 20 21  1  0
  7 22  2  0
 22  3  1  0
 21  9  1  0
 18 13  1  0
  1 23  1  0
  1 24  1  0
  1 25  1  0
  4 26  1  0
  5 27  1  0
  8 28  1  0
  8 29  1  0
  9 30  1  0
 10 31  1  0
 10 32  1  0
 11 33  1  0
 11 34  1  0
 14 35  1  0
 15 36  1  0
 16 37  1  0
 17 38  1  0
 20 39  1  0
 20 40  1  0
 21 41  1  0
 21 42  1  0
 22 43  1  0
M  CHG  1   9   1
M  END
>  <UniqueID>  (21) 
21

>  <SMILES>  (21) 
COc1ccnc(C[NH+]2CCN(c3ccccc3F)CC2)c1

>  <Energy>  (21) 
55.99000597459222

>  <Genealogy>  (21) 
COc1ccnc(C[NH+]2CCN(c3ccccc3F)CC2)c1 (protonated)
COc1ccnc(C[NH+]2CCN(c3ccccc3F)CC2)c1 (3D coordinates assigned)
COc1ccnc(C[NH+]2CCN(c3ccccc3F)CC2)c1 (nonaromatic ring conformer: 55.99000597459222 kcal/mol)

>  <smiles>  (21) 
COc1ccnc(CN2CCN(c3ccccc3F)CC2)c1

>  <score_type>  (21) 
oracle

>  <origin>  (21) 
adg

>  <m_score__min__energy>  (21) 
-5.3799999999999999

>  <m_primary>  (21) 
energy

$$$$
21:0
     RDKit          3D

 49 51  0  0  0  0  0  0  0  0999 V2000
   58.8800   30.7910   50.1050 C   0  0  0  0  0  0  0  0  0  0  0  0
   60.2560   30.5130   49.5050 C   0  0  0  0  0  0  0  0  0  0  0  0
   60.1840   30.3260   48.0340 N   0  0  0  0  0  0  0  0  0  0  0  0
   61.5200   30.6030   47.4500 C   0  0  0  0  0  0  0  0  0  0  0  0
   61.8770   32.0890   47.4770 C   0  0  0  0  0  0  0  0  0  0  0  0
   59.7050   28.9590   47.6900 C   0  0  0  0  0  0  0  0  0  0  0  0
   59.5080   28.8070   46.1750 C   0  0  0  0  0  0  0  0  0  0  0  0
   58.0980   28.9770   45.7930 N   0  0  0  0  0  0  0  0  0  0  0  0
   57.4540   30.1120   45.4340 C   0  0  0  0  0  0  0  0  0  0  0  0
   57.9920   31.4820   45.5420 C   0  0  0  0  0  0  0  0  0  0  0  0
   58.1980   32.0530   46.8080 C   0  0  0  0  0  0  0  0  0  0  0  0
   58.7180   33.3460   46.9230 C   0  0  0  0  0  0  0  0  0  0  0  0
   59.0570   34.0690   45.7760 C   0  0  0  0  0  0  0  0  0  0  0  0
   59.7710   35.8340   45.9340 Br  0  0  0  0  0  0  0  0  0  0  0  0
   58.8860   33.4950   44.5130 C   0  0  0  0  0  0  0  0  0  0  0  0
   58.3640   32.2020   44.3950 C   0  0  0  0  0  0  0  0  0  0  0  0
   56.2480   29.8430   44.8970 N   0  0  0  0  0  0  0  0  0  0  0  0
   56.0960   28.5280   44.9170 N   0  0  0  0  0  0  0  0  0  0  0  0
   57.2110   28.0110   45.4640 C   0  0  0  0  0  0  0  0  0  0  0  0
   57.4240   26.5610   45.6320 C   0  0  0  0  0  0  0  0  0  0  0  0
   58.7200   26.0430   45.4800 C   0  0  0  0  0  0  0  0  0  0  0  0
   58.9600   24.6780   45.6500 C   0  0  0  0  0  0  0  0  0  0  0  0
   57.9070   23.8160   45.9590 C   0  0  0  0  0  0  0  0  0  0  0  0
   56.6090   24.3150   46.0850 C   0  0  0  0  0  0  0  0  0  0  0  0
   56.3540   25.6800   45.9120 C   0  0  0  0  0  0  0  0  0  0  0  0
   55.0340   26.1270   46.0060 O   0  0  0  0  0  0  0  0  0  0  0  0
   58.9490   30.7771   51.2027 H   0  0  0  0  0  0  0  0  0  0  0  0
   58.5276   31.7785   49.7723 H   0  0  0  0  0  0  0  0  0  0  0  0
   58.1719   30.0178   49.7723 H   0  0  0  0  0  0  0  0  0  0  0  0
   60.9193   31.3626   49.7247 H   0  0  0  0  0  0  0  0  0  0  0  0
   60.6443   29.5854   49.9508 H   0  0  0  0  0  0  0  0  0  0  0  0
   62.2771   30.0484   48.0237 H   0  0  0  0  0  0  0  0  0  0  0  0
   61.4956   30.2854   46.3971 H   0  0  0  0  0  0  0  0  0  0  0  0
   61.9584   32.4277   48.5204 H   0  0  0  0  0  0  0  0  0  0  0  0
   62.8381   32.2446   46.9650 H   0  0  0  0  0  0  0  0  0  0  0  0
   61.0915   32.6642   46.9650 H   0  0  0  0  0  0  0  0  0  0  0  0
   60.4467   28.2220   48.0315 H   0  0  0  0  0  0  0  0  0  0  0  0
   58.7376   28.7927   48.1864 H   0  0  0  0  0  0  0  0  0  0  0  0
   60.1121   29.5674   45.6583 H   0  0  0  0  0  0  0  0  0  0  0  0
   59.8228   27.7931   45.8870 H   0  0  0  0  0  0  0  0  0  0  0  0
   57.9492   31.4805   47.7137 H   0  0  0  0  0  0  0  0  0  0  0  0
   58.8604   33.7945   47.9173 H   0  0  0  0  0  0  0  0  0  0  0  0
   59.1621   34.0604   43.6107 H   0  0  0  0  0  0  0  0  0  0  0  0
   58.2446   31.7479   43.4002 H   0  0  0  0  0  0  0  0  0  0  0  0
   59.5515   26.7166   45.2254 H   0  0  0  0  0  0  0  0  0  0  0  0
   59.9803   24.2817   45.5402 H   0  0  0  0  0  0  0  0  0  0  0  0
   58.0996   22.7427   46.1034 H   0  0  0  0  0  0  0  0  0  0  0  0
   55.7812   23.6304   46.3219 H   0  0  0  0  0  0  0  0  0  0  0  0
   54.7810   27.1050   45.9550 H   0  0  0  0  0  0  0  0  0  0  0  0
  1  2  1  0
  2  3  1  0
  3  4  1  0
  4  5  1  0
  3  6  1  0
  6  7  1  0
  7  8  1  0
  8  9  1  0
  9 10  1  0
 10 11  2  0
 11 12  1  0
 12 13  2  0
 13 14  1  0
 13 15  1  0
 15 16  2  0
  9 17  2  0
 17 18  1  0
 18 19  2  0
 19 20  1  0
 20 21  2  0
 21 22  1  0
 22 23  2  0
 23 24  1  0
 24 25  2  0
 25 26  1  0
 19  8  1  0
 25 20  1  0
 16 10  1  0
  1 27  1  0
  1 28  1  0
  1 29  1  0
  2 30  1  0
  2 31  1  0
  4 32  1  0
  4 33  1  0
  5 34  1  0
  5 35  1  0
  5 36  1  0
  6 37  1  0
  6 38  1  0
  7 39  1  0
  7 40  1  0
 11 41  1  0
 12 42  1  0
 15 43  1  0
 16 44  1  0
 21 45  1  0
 22 46  1  0
 23 47  1  0
 24 48  1  0
 26 49  1  0
M  END
>  <UniqueID>  (22) 
22

>  <SMILES>  (22) 
CCN(CC)CCn1c(-c2ccc(Br)cc2)nnc1-c1ccccc1O

>  <Energy>  (22) 
91.84619401649421

>  <Genealogy>  (22) 
CCN(CC)CCn1c(-c2ccc(Br)cc2)nnc1-c1ccccc1O (3D coordinates assigned)
CCN(CC)CCn1c(-c2ccc(Br)cc2)nnc1-c1ccccc1O (optimized conformer: 91.84619401649421 kcal/mol)

>  <smiles>  (22) 
CCN(CC)CCn1c(-c2ccc(Br)cc2)nnc1-c1ccccc1O

>  <score_type>  (22) 
oracle

>  <origin>  (22) 
adg

>  <m_score__min__energy>  (22) 
-9.1999999999999993

>  <m_primary>  (22) 
energy

$$$$
22:0
     RDKit          3D

 60 62  0  0  0  0  0  0  0  0999 V2000
   59.3350   33.7610   51.1750 C   0  0  0  0  0  0  0  0  0  0  0  0
   59.5240   33.4760   49.6870 C   0  0  0  0  0  0  0  0  0  0  0  0
   59.7190   32.0320   49.4700 N   0  0  0  0  0  0  0  0  0  0  0  0
   59.9450   31.3300   50.7440 C   0  0  0  0  0  0  0  0  0  0  0  0
   60.4560   29.9070   50.4880 C   0  0  0  0  0  0  0  0  0  0  0  0
   61.2280   29.8300   49.2350 N   0  0  0  0  0  0  0  0  0  0  0  0
   60.4210   29.2060   48.2090 C   0  0  0  0  0  0  0  0  0  0  0  0
   59.9410   27.8780   48.3930 C   0  0  0  0  0  0  0  0  0  0  0  0
   60.1550   27.2300   49.5660 F   0  0  0  0  0  0  0  0  0  0  0  0
   59.2590   27.2110   47.3600 C   0  0  0  0  0  0  0  0  0  0  0  0
   59.0820   27.8860   46.1540 C   0  0  0  0  0  0  0  0  0  0  0  0
   59.5140   29.1640   45.9700 C   0  0  0  0  0  0  0  0  0  0  0  0
   59.2200   29.5820   44.7240 N   0  0  0  0  0  0  0  0  0  0  0  0
   58.5960   28.5090   44.1730 C   0  0  0  0  0  0  0  0  0  0  0  0
   58.5070   27.4550   45.0190 N   0  0  0  0  0  0  0  0  0  0  0  0
   57.8050   26.1980   44.7790 C   0  0  0  0  0  0  0  0  0  0  0  0
   60.1640   29.8770   46.9840 C   0  0  0  0  0  0  0  0  0  0  0  0
   60.5510   31.2130   46.8060 O   0  0  0  0  0  0  0  0  0  0  0  0
   59.6640   32.2540   46.4680 C   0  0  0  0  0  0  0  0  0  0  0  0
   58.2690   32.0480   46.4290 C   0  0  0  0  0  0  0  0  0  0  0  0
   57.4060   33.0920   46.0890 C   0  0  0  0  0  0  0  0  0  0  0  0
   57.9190   34.3520   45.7890 C   0  0  0  0  0  0  0  0  0  0  0  0
   59.2960   34.5810   45.8490 C   0  0  0  0  0  0  0  0  0  0  0  0
   60.1780   33.5410   46.1980 C   0  0  0  0  0  0  0  0  0  0  0  0
   61.6460   33.8440   46.3780 C   0  0  0  0  0  0  0  0  0  0  0  0
   62.0310   33.8350   47.8640 C   0  0  0  0  0  0  0  0  0  0  0  0
   62.5810   32.5200   48.2730 N   0  0  0  0  0  0  0  0  0  0  0  0
   63.3870   32.6410   49.5030 C   0  0  0  0  0  0  0  0  0  0  0  0
   63.4070   31.9490   47.1960 C   0  0  0  0  0  0  0  0  0  0  0  0
   59.8482   32.9871   51.7646 H   0  0  0  0  0  0  0  0  0  0  0  0
   59.7588   34.7470   51.4162 H   0  0  0  0  0  0  0  0  0  0  0  0
   58.2618   33.7542   51.4162 H   0  0  0  0  0  0  0  0  0  0  0  0
   58.6322   33.8097   49.1363 H   0  0  0  0  0  0  0  0  0  0  0  0
   60.4106   34.0178   49.3260 H   0  0  0  0  0  0  0  0  0  0  0  0
   60.5900   31.9140   48.8970 H   0  0  0  0  0  0  0  0  0  0  0  0
   60.6910   31.8821   51.3345 H   0  0  0  0  0  0  0  0  0  0  0  0
   58.9938   31.2736   51.2935 H   0  0  0  0  0  0  0  0  0  0  0  0
   61.1013   29.6025   51.3252 H   0  0  0  0  0  0  0  0  0  0  0  0
   59.5874   29.2377   50.4010 H   0  0  0  0  0  0  0  0  0  0  0  0
   62.1070   29.2840   49.3950 H   0  0  0  0  0  0  0  0  0  0  0  0
   61.5040   30.7940   48.9270 H   0  0  0  0  0  0  0  0  0  0  0  0
   58.8773   26.1888   47.4995 H   0  0  0  0  0  0  0  0  0  0  0  0
   58.2033   28.4971   43.1455 H   0  0  0  0  0  0  0  0  0  0  0  0
   57.5455   25.7334   45.7417 H   0  0  0  0  0  0  0  0  0  0  0  0
   56.8861   26.3946   44.2072 H   0  0  0  0  0  0  0  0  0  0  0  0
   58.4544   25.5187   44.2072 H   0  0  0  0  0  0  0  0  0  0  0  0
   57.8574   31.0564   46.6685 H   0  0  0  0  0  0  0  0  0  0  0  0
   56.3201   32.9193   46.0580 H   0  0  0  0  0  0  0  0  0  0  0  0
   57.2387   35.1682   45.5043 H   0  0  0  0  0  0  0  0  0  0  0  0
   59.6937   35.5811   45.6219 H   0  0  0  0  0  0  0  0  0  0  0  0
   62.2380   33.0831   45.8483 H   0  0  0  0  0  0  0  0  0  0  0  0
   61.8502   34.8445   45.9689 H   0  0  0  0  0  0  0  0  0  0  0  0
   62.7899   34.6112   48.0417 H   0  0  0  0  0  0  0  0  0  0  0  0
   61.1256   34.0309   48.4572 H   0  0  0  0  0  0  0  0  0  0  0  0
   62.7323   32.5427   50.3815 H   0  0  0  0  0  0  0  0  0  0  0  0
   64.1481   31.8470   49.5222 H   0  0  0  0  0  0  0  0  0  0  0  0
   63.8814   33.6234   49.5222 H   0  0  0  0  0  0  0  0  0  0  0  0
   64.2366   31.3755   47.6350 H   0  0  0  0  0  0  0  0  0  0  0  0
   62.7900   31.2837   46.5742 H   0  0  0  0  0  0  0  0  0  0  0  0
   63.8114   32.7613   46.5742 H   0  0  0  0  0  0  0  0  0  0  0  0
  1  2  1  0
  2  3  1  0
  3  4  1  0
  4  5  1  0
  5  6  1  0
  6  7  1  0
  7  8  2  0
  8  9  1  0
  8 10  1  0
 10 11  2  0
 11 12  1  0
 12 13  1  0
 13 14  2  0
 14 15  1  0
 15 16  1  0
 12 17  2  0
 17 18  1  0
 18 19  1  0
 19 20  2  0
 20 21  1  0
 21 22  2  0
 22 23  1  0
 23 24  2  0
 24 25  1  0
 25 26  1  0
 26 27  1  0
 27 28  1  0
 27 29  1  0
 17  7  1  0
 24 19  1  0
 15 11  1  0
  1 30  1  0
  1 31  1  0
  1 32  1  0
  2 33  1  0
  2 34  1  0
  3 35  1  0
  4 36  1  0
  4 37  1  0
  5 38  1  0
  5 39  1  0
  6 40  1  0
  6 41  1  0
 10 42  1  0
 14 43  1  0
 16 44  1  0
 16 45  1  0
 16 46  1  0
 20 47  1  0
 21 48  1  0
 22 49  1  0
 23 50  1  0
 25 51  1  0
 25 52  1  0
 26 53  1  0
 26 54  1  0
 28 55  1  0
 28 56  1  0
 28 57  1  0
 29 58  1  0
 29 59  1  0
 29 60  1  0
M  CHG  1   6   1
M  END
>  <UniqueID>  (23) 
23

>  <SMILES>  (23) 
CCNCC[NH2+]c1c(F)cc2c(ncn2C)c1Oc1ccccc1CCN(C)C

>  <Energy>  (23) 
98.68084843575072

>  <Genealogy>  (23) 
CCNCC[NH2+]c1c(F)cc2c(ncn2C)c1Oc1ccccc1CCN(C)C (protonated)
CCNCC[NH2+]c1c(F)cc2c(ncn2C)c1Oc1ccccc1CCN(C)C (3D coordinates assigned)
CCNCC[NH2+]c1c(F)cc2c(ncn2C)c1Oc1ccccc1CCN(C)C (optimized conformer: 98.68084843575072 kcal/mol)

>  <smiles>  (23) 
CCNCCNc1c(F)cc2c(ncn2C)c1Oc1ccccc1CCN(C)C

>  <score_type>  (23) 
oracle

>  <origin>  (23) 
adg

>  <m_score__min__energy>  (23) 
-5.1100000000000003

>  <m_primary>  (23) 
energy

$$$$
23:0
     RDKit          3D

 50 54  0  0  0  0  0  0  0  0999 V2000
   55.2800   30.7480   52.0600 C   0  0  0  0  0  0  0  0  0  0  0  0
   56.6650   30.6590   51.7360 O   0  0  0  0  0  0  0  0  0  0  0  0
   57.5270   31.7600   51.6430 C   0  0  0  0  0  0  0  0  0  0  0  0
   57.6450   32.7170   52.6690 C   0  0  0  0  0  0  0  0  0  0  0  0
   58.5150   33.8010   52.5230 C   0  0  0  0  0  0  0  0  0  0  0  0
   59.2790   33.9380   51.3620 C   0  0  0  0  0  0  0  0  0  0  0  0
   59.1830   32.9850   50.3360 C   0  0  0  0  0  0  0  0  0  0  0  0
   59.9870   33.1220   49.1050 C   0  0  0  0  0  0  0  0  0  0  0  0
   61.3570   33.4510   49.1770 C   0  0  0  0  0  0  0  0  0  0  0  0
   62.1040   33.5990   47.9940 C   0  0  0  0  0  0  0  0  0  0  0  0
   61.5090   33.4430   46.7780 N   0  0  0  0  0  0  0  0  0  0  0  0
   60.1890   33.1360   46.7120 C   0  0  0  0  0  0  0  0  0  0  0  0
   59.4260   32.9640   47.8290 C   0  0  0  0  0  0  0  0  0  0  0  0
   58.0150   32.6980   47.4240 C   0  0  0  0  0  0  0  0  0  0  0  0
   58.0910   32.7180   45.8600 C   0  0  2  0  0  0  0  0  0  0  0  0
   57.2300   33.8540   45.2820 C   0  0  0  0  0  0  0  0  0  0  0  0
   57.7070   31.3680   45.2870 C   0  0  0  0  0  0  0  0  0  0  0  0
   56.6160   31.2270   44.6690 O   0  0  0  0  0  0  0  0  0  0  0  0
   58.5880   30.2450   45.4560 N   0  0  0  0  0  0  0  0  0  0  0  0
   58.2140   28.8820   45.1960 C   0  0  0  0  0  0  0  0  0  0  0  0
   58.8000   28.1450   44.1320 C   0  0  0  0  0  0  0  0  0  0  0  0
   58.4020   26.8200   43.8770 C   0  0  0  0  0  0  0  0  0  0  0  0
   57.4140   26.2690   44.6850 C   0  0  0  0  0  0  0  0  0  0  0  0
   56.8350   26.9740   45.6900 C   0  0  0  0  0  0  0  0  0  0  0  0
   57.1990   28.2860   45.9750 C   0  0  0  0  0  0  0  0  0  0  0  0
   55.8900   26.1860   46.3180 O   0  0  0  0  0  0  0  0  0  0  0  0
   55.8780   24.9070   45.6700 C   0  0  0  0  0  0  0  0  0  0  0  0
   56.8640   25.0030   44.6330 O   0  0  0  0  0  0  0  0  0  0  0  0
   59.4620   32.9870   45.5530 O   0  0  0  0  0  0  0  0  0  0  0  0
   58.2950   31.9060   50.4810 C   0  0  0  0  0  0  0  0  0  0  0  0
   55.1590   30.7558   53.1533 H   0  0  0  0  0  0  0  0  0  0  0  0
   54.8636   31.6748   51.6384 H   0  0  0  0  0  0  0  0  0  0  0  0
   54.7484   29.8822   51.6384 H   0  0  0  0  0  0  0  0  0  0  0  0
   57.0505   32.6111   53.5884 H   0  0  0  0  0  0  0  0  0  0  0  0
   58.5983   34.5489   53.3253 H   0  0  0  0  0  0  0  0  0  0  0  0
   59.9585   34.7959   51.2512 H   0  0  0  0  0  0  0  0  0  0  0  0
   61.8398   33.5914   50.1554 H   0  0  0  0  0  0  0  0  0  0  0  0
   63.1753   33.8422   48.0510 H   0  0  0  0  0  0  0  0  0  0  0  0
   57.6757   31.7182   47.7913 H   0  0  0  0  0  0  0  0  0  0  0  0
   57.3004   33.4270   47.8338 H   0  0  0  0  0  0  0  0  0  0  0  0
   56.7894   34.4354   46.1053 H   0  0  0  0  0  0  0  0  0  0  0  0
   57.8582   34.5120   44.6637 H   0  0  0  0  0  0  0  0  0  0  0  0
   56.4267   33.4270   44.6637 H   0  0  0  0  0  0  0  0  0  0  0  0
   59.5790   30.4320   45.7280 H   0  0  0  0  0  0  0  0  0  0  0  0
   59.5708   28.6140   43.5028 H   0  0  0  0  0  0  0  0  0  0  0  0
   58.8586   26.2377   43.0631 H   0  0  0  0  0  0  0  0  0  0  0  0
   56.7087   28.8443   46.7861 H   0  0  0  0  0  0  0  0  0  0  0  0
   56.1427   24.1112   46.3818 H   0  0  0  0  0  0  0  0  0  0  0  0
   54.8839   24.6570   45.2709 H   0  0  0  0  0  0  0  0  0  0  0  0
   58.2018   31.1667   49.6718 H   0  0  0  0  0  0  0  0  0  0  0  0
  1  2  1  0
  2  3  1  0
  3  4  2  0
  4  5  1  0
  5  6  2  0
  6  7  1  0
  7  8  1  0
  8  9  2  0
  9 10  1  0
 10 11  2  0
 11 12  1  0
 12 13  2  0
 13 14  1  0
 14 15  1  0
 15 16  1  6
 15 17  1  0
 17 18  2  0
 17 19  1  0
 19 20  1  0
 20 21  2  0
 21 22  1  0
 22 23  2  0
 23 24  1  0
 24 25  2  0
 24 26  1  0
 26 27  1  0
 27 28  1  0
 15 29  1  0
  7 30  2  0
 30  3  1  0
 13  8  1  0
 25 20  1  0
 29 12  1  0
 28 23  1  0
  1 31  1  0
  1 32  1  0
  1 33  1  0
  4 34  1  0
  5 35  1  0
  6 36  1  0
  9 37  1  0
 10 38  1  0
 14 39  1  0
 14 40  1  0
 16 41  1  0
 16 42  1  0
 16 43  1  0
 19 44  1  0
 21 45  1  0
 22 46  1  0
 25 47  1  0
 27 48  1  0
 27 49  1  0
 30 50  1  0
M  END
>  <UniqueID>  (24) 
24

>  <SMILES>  (24) 
COc1cccc(-c2ccnc3c2C[C@](C)(C(=O)Nc2ccc4c(c2)OCO4)O3)c1

>  <Energy>  (24) 
109.31559713227699

>  <Genealogy>  (24) 
COc1cccc(-c2ccnc3c2C[C@](C)(C(=O)Nc2ccc4c(c2)OCO4)O3)c1 (chirality)
COc1cccc(-c2ccnc3c2C[C@](C)(C(=O)Nc2ccc4c(c2)OCO4)O3)c1 (3D coordinates assigned)
COc1cccc(-c2ccnc3c2C[C@](C)(C(=O)Nc2ccc4c(c2)OCO4)O3)c1 (nonaromatic ring conformer: 109.31559713227699 kcal/mol)

>  <smiles>  (24) 
COc1cccc(-c2ccnc3c2CC(C)(C(=O)Nc2ccc4c(c2)OCO4)O3)c1

>  <score_type>  (24) 
oracle

>  <origin>  (24) 
adg

>  <m_score__min__energy>  (24) 
-8.8100000000000005

>  <m_primary>  (24) 
energy

$$$$
24:0
     RDKit          3D

 44 48  0  0  0  0  0  0  0  0999 V2000
   63.4570   34.5670   51.1420 C   0  0  0  0  0  0  0  0  0  0  0  0
   62.9700   33.7100   50.0110 C   0  0  0  0  0  0  0  0  0  0  0  0
   63.8000   33.4560   48.9090 C   0  0  0  0  0  0  0  0  0  0  0  0
   63.3620   32.6260   47.8720 C   0  0  0  0  0  0  0  0  0  0  0  0
   62.0910   32.0240   47.9340 C   0  0  0  0  0  0  0  0  0  0  0  0
   61.6100   31.1840   46.9170 O   0  0  0  0  0  0  0  0  0  0  0  0
   60.3170   31.2540   46.3850 C   0  0  0  0  0  0  0  0  0  0  0  0
   59.6140   30.0960   46.2110 N   0  0  0  0  0  0  0  0  0  0  0  0
   58.3670   30.1540   45.7440 N   0  0  0  0  0  0  0  0  0  0  0  0
   57.4820   29.1820   45.4550 C   0  0  0  0  0  0  0  0  0  0  0  0
   57.6560   27.7380   45.7070 C   0  0  0  0  0  0  0  0  0  0  0  0
   56.5510   26.9160   45.9910 C   0  0  0  0  0  0  0  0  0  0  0  0
   56.7290   25.5450   46.2040 C   0  0  0  0  0  0  0  0  0  0  0  0
   58.0060   24.9830   46.1200 C   0  0  0  0  0  0  0  0  0  0  0  0
   59.1050   25.7900   45.8150 C   0  0  0  0  0  0  0  0  0  0  0  0
   58.9320   27.1600   45.6000 C   0  0  0  0  0  0  0  0  0  0  0  0
   56.3720   29.7180   44.8980 N   0  0  0  0  0  0  0  0  0  0  0  0
   56.5450   31.0370   44.8400 N   0  0  0  0  0  0  0  0  0  0  0  0
   57.7640   31.2800   45.3610 C   0  0  0  0  0  0  0  0  0  0  0  0
   58.4120   32.5070   45.4780 C   0  0  0  0  0  0  0  0  0  0  0  0
   57.8160   33.7130   45.0840 C   0  0  0  0  0  0  0  0  0  0  0  0
   58.5240   34.9110   45.2080 C   0  0  0  0  0  0  0  0  0  0  0  0
   59.8270   34.9090   45.7150 C   0  0  0  0  0  0  0  0  0  0  0  0
   60.4330   33.7110   46.1060 C   0  0  0  0  0  0  0  0  0  0  0  0
   59.7310   32.4950   46.0060 C   0  0  0  0  0  0  0  0  0  0  0  0
   61.2700   32.2720   49.0400 C   0  0  0  0  0  0  0  0  0  0  0  0
   61.7080   33.1020   50.0770 C   0  0  0  0  0  0  0  0  0  0  0  0
   63.1898   34.0967   52.0998 H   0  0  0  0  0  0  0  0  0  0  0  0
   64.5500   34.6726   51.0777 H   0  0  0  0  0  0  0  0  0  0  0  0
   62.9883   35.5601   51.0777 H   0  0  0  0  0  0  0  0  0  0  0  0
   64.8000   33.9117   48.8602 H   0  0  0  0  0  0  0  0  0  0  0  0
   64.0132   32.4429   47.0046 H   0  0  0  0  0  0  0  0  0  0  0  0
   60.0640   29.1830   46.4370 H   0  0  0  0  0  0  0  0  0  0  0  0
   55.5429   27.3527   46.0459 H   0  0  0  0  0  0  0  0  0  0  0  0
   55.8629   24.9084   46.4379 H   0  0  0  0  0  0  0  0  0  0  0  0
   58.1457   23.9059   46.2939 H   0  0  0  0  0  0  0  0  0  0  0  0
   60.1089   25.3459   45.7439 H   0  0  0  0  0  0  0  0  0  0  0  0
   59.7984   27.7883   45.3460 H   0  0  0  0  0  0  0  0  0  0  0  0
   56.7936   33.7161   44.6783 H   0  0  0  0  0  0  0  0  0  0  0  0
   58.0548   35.8589   44.9058 H   0  0  0  0  0  0  0  0  0  0  0  0
   60.3790   35.8560   45.8069 H   0  0  0  0  0  0  0  0  0  0  0  0
   61.4625   33.7189   46.4933 H   0  0  0  0  0  0  0  0  0  0  0  0
   60.2729   31.8107   49.0941 H   0  0  0  0  0  0  0  0  0  0  0  0
   61.0599   33.2786   50.9480 H   0  0  0  0  0  0  0  0  0  0  0  0
  1  2  1  0
  2  3  2  0
  3  4  1  0
  4  5  2  0
  5  6  1  0
  6  7  1  0
  7  8  2  0
  8  9  1  0
  9 10  1  0
 10 11  1  0
 11 12  2  0
 12 13  1  0
 13 14  2  0
 14 15  1  0
 15 16  2  0
 10 17  2  0
 17 18  1  0
 18 19  2  0
 19 20  1  0
 20 21  2  0
 21 22  1  0
 22 23  2  0
 23 24  1  0
 24 25  2  0
  5 26  1  0
 26 27  2  0
 27  2  1  0
 25  7  1  0
 19  9  1  0
 25 20  1  0
 16 11  1  0
  1 28  1  0
  1 29  1  0
  1 30  1  0
  3 31  1  0
  4 32  1  0
  8 33  1  0
 12 34  1  0
 13 35  1  0
 14 36  1  0
 15 37  1  0
 16 38  1  0
 21 39  1  0
 22 40  1  0
 23 41  1  0
 24 42  1  0
 26 43  1  0
 27 44  1  0
M  CHG  1   8   1
M  END
>  <UniqueID>  (25) 
25

>  <SMILES>  (25) 
Cc1ccc(Oc2[nH+]n3c(-c4ccccc4)nnc3c3ccccc23)cc1

>  <Energy>  (25) 
109.56948988208643

>  <Genealogy>  (25) 
Cc1ccc(Oc2[nH+]n3c(-c4ccccc4)nnc3c3ccccc23)cc1 (protonated)
Cc1ccc(Oc2[nH+]n3c(-c4ccccc4)nnc3c3ccccc23)cc1 (3D coordinates assigned)
Cc1ccc(Oc2[nH+]n3c(-c4ccccc4)nnc3c3ccccc23)cc1 (optimized conformer: 109.56948988208643 kcal/mol)

>  <smiles>  (25) 
Cc1ccc(Oc2nn3c(-c4ccccc4)nnc3c3ccccc23)cc1

>  <score_type>  (25) 
oracle

>  <origin>  (25) 
adg

>  <m_score__min__energy>  (25) 
-7.7800000000000002

>  <m_primary>  (25) 
energy

$$$$
25:0
     RDKit          3D

 35 37  0  0  1  0  0  0  0  0999 V2000
   56.8180   30.5250   43.2700 C   0  0  0  0  0  0  0  0  0  0  0  0
   56.7680   30.7330   44.6580 O   0  0  0  0  0  0  0  0  0  0  0  0
   57.4350   31.8040   45.2290 C   0  0  0  0  0  0  0  0  0  0  0  0
   57.4180   33.0510   44.6680 C   0  0  0  0  0  0  0  0  0  0  0  0
   58.0930   34.1060   45.2600 C   0  0  0  0  0  0  0  0  0  0  0  0
   58.8090   33.9660   46.4260 C   0  0  0  0  0  0  0  0  0  0  0  0
   59.5420   35.0800   47.0820 C   0  0  0  0  0  0  0  0  0  0  0  0
   60.4720   34.5880   48.0710 N   0  0  0  0  0  0  0  0  0  0  0  0
   61.6520   34.1330   47.8370 C   0  0  0  0  0  0  0  0  0  0  0  0
   62.0660   33.9670   46.5700 N   0  0  0  0  0  0  0  0  0  0  0  0
   63.2910   33.4930   46.3720 C   0  0  0  0  0  0  0  0  0  0  0  0
   64.1460   33.1680   47.3750 N   0  0  0  0  0  0  0  0  0  0  0  0
   63.7430   33.3290   48.6510 C   0  0  0  0  0  0  0  0  0  0  0  0
   62.4770   33.8190   48.9010 C   0  0  0  0  0  0  0  0  0  0  0  0
   62.3070   33.8910   50.2660 C   0  0  0  0  0  0  0  0  0  0  0  0
   63.4410   33.4560   50.8070 N   0  0  0  0  0  0  0  0  0  0  0  0
   64.3270   33.1100   49.8620 N   0  0  0  0  0  0  0  0  0  0  0  0
   65.6670   32.5940   50.0840 C   0  0  0  0  0  0  0  0  0  0  0  0
   58.8150   32.6850   46.9850 C   0  0  0  0  0  0  0  0  0  0  0  0
   58.1450   31.6310   46.4020 C   0  0  0  0  0  0  0  0  0  0  0  0
   57.0706   29.4741   43.0656 H   0  0  0  0  0  0  0  0  0  0  0  0
   55.8380   30.7591   42.8286 H   0  0  0  0  0  0  0  0  0  0  0  0
   57.5845   31.1789   42.8286 H   0  0  0  0  0  0  0  0  0  0  0  0
   56.8610   33.2186   43.7344 H   0  0  0  0  0  0  0  0  0  0  0  0
   58.0549   35.0944   44.7787 H   0  0  0  0  0  0  0  0  0  0  0  0
   60.0973   35.6426   46.3171 H   0  0  0  0  0  0  0  0  0  0  0  0
   58.8094   35.7268   47.5869 H   0  0  0  0  0  0  0  0  0  0  0  0
   61.4310   34.2080   45.7910 H   0  0  0  0  0  0  0  0  0  0  0  0
   63.6323   33.3559   45.3353 H   0  0  0  0  0  0  0  0  0  0  0  0
   61.4115   34.2390   50.8017 H   0  0  0  0  0  0  0  0  0  0  0  0
   65.8573   32.5207   51.1649 H   0  0  0  0  0  0  0  0  0  0  0  0
   65.7563   31.5972   49.6276 H   0  0  0  0  0  0  0  0  0  0  0  0
   66.4018   33.2735   49.6276 H   0  0  0  0  0  0  0  0  0  0  0  0
   59.3712   32.5128   47.9183 H   0  0  0  0  0  0  0  0  0  0  0  0
   58.1758   30.6391   46.8766 H   0  0  0  0  0  0  0  0  0  0  0  0
  1  2  1  0
  2  3  1  0
  3  4  2  0
  4  5  1  0
  5  6  2  0
  6  7  1  0
  7  8  1  0
  8  9  2  0
  9 10  1  0
 10 11  1  0
 11 12  2  0
 12 13  1  0
 13 14  2  0
 14 15  1  0
 15 16  2  0
 16 17  1  0
 17 18  1  0
  6 19  1  0
 19 20  2  0
 20  3  1  0
 14  9  1  0
 17 13  1  0
  1 21  1  0
  1 22  1  0
  1 23  1  0
  4 24  1  0
  5 25  1  0
  7 26  1  0
  7 27  1  0
 10 28  1  0
 11 29  1  0
 15 30  1  0
 18 31  1  0
 18 32  1  0
 18 33  1  0
 19 34  1  0
 20 35  1  0
M  END
>  <smiles>  (26) 
COc1ccc(CN=c2[nH]cnc3c2cnn3C)cc1

>  <score_type>  (26) 
oracle

>  <origin>  (26) 
adg

>  <m_score__min__energy>  (26) 
-6.6399999999999997

>  <m_primary>  (26) 
energy

$$$$
26:0
     RDKit          3D

 53 55  0  0  0  0  0  0  0  0999 V2000
   56.5538   26.3636   45.3766 H   0  0  0  0  0  0  0  0  0  0  0  0
   57.0960   27.2710   45.6810 C   0  0  0  0  0  0  0  0  0  0  0  0
   58.1700   27.1800   46.5640 C   0  0  0  0  0  0  0  0  0  0  0  0
   58.5068   26.1944   46.9177 H   0  0  0  0  0  0  0  0  0  0  0  0
   58.8210   28.3370   47.0020 C   0  0  0  0  0  0  0  0  0  0  0  0
   59.6974   28.2492   47.6609 H   0  0  0  0  0  0  0  0  0  0  0  0
   58.3700   29.6170   46.6110 C   0  0  0  0  0  0  0  0  0  0  0  0
   58.9480   30.8450   47.0600 C   0  0  0  0  0  0  0  0  0  0  0  0
   59.6040   31.0010   48.1870 N   0  0  0  0  0  0  0  0  0  0  0  0
   60.8820   30.4980   48.6990 C   0  0  0  0  0  0  0  0  0  0  0  0
   61.6228   31.3109   48.6821 H   0  0  0  0  0  0  0  0  0  0  0  0
   61.2148   29.6650   48.0623 H   0  0  0  0  0  0  0  0  0  0  0  0
   60.7270   29.9880   50.1370 C   0  0  0  0  0  0  0  0  0  0  0  0
   60.5450   30.8496   50.7962 H   0  0  0  0  0  0  0  0  0  0  0  0
   61.6546   29.4578   50.3986 H   0  0  0  0  0  0  0  0  0  0  0  0
   59.5700   28.9940   50.3020 C   0  0  0  0  0  0  0  0  0  0  0  0
   59.7341   28.3932   51.2087 H   0  0  0  0  0  0  0  0  0  0  0  0
   59.5313   28.3396   49.4187 H   0  0  0  0  0  0  0  0  0  0  0  0
   58.2940   29.7130   50.4210 N   0  0  0  0  0  0  0  0  0  0  0  0
   58.2790   30.4580   49.6840 H   0  0  0  0  0  0  0  0  0  0  0  0
   58.1700   30.3800   51.7240 C   0  0  0  0  0  0  0  0  0  0  0  0
   59.1540   30.4004   52.2153 H   0  0  0  0  0  0  0  0  0  0  0  0
   57.4494   29.8236   52.3414 H   0  0  0  0  0  0  0  0  0  0  0  0
   57.6660   31.8140   51.5460 C   0  0  0  0  0  0  0  0  0  0  0  0
   57.8491   32.3803   52.4711 H   0  0  0  0  0  0  0  0  0  0  0  0
   56.5885   31.7896   51.3258 H   0  0  0  0  0  0  0  0  0  0  0  0
   58.3670   32.4670   50.4310 N   0  0  0  0  0  0  0  0  0  0  0  0
   58.9050   31.7290   49.9180 H   0  0  0  0  0  0  0  0  0  0  0  0
   59.3350   33.4620   50.9140 C   0  0  0  0  0  0  0  0  0  0  0  0
   59.8860   33.0452   51.7699 H   0  0  0  0  0  0  0  0  0  0  0  0
   58.7915   34.3687   51.2181 H   0  0  0  0  0  0  0  0  0  0  0  0
   60.3230   33.8260   49.8100 C   0  0  0  0  0  0  0  0  0  0  0  0
   61.2647   34.1729   50.2604 H   0  0  0  0  0  0  0  0  0  0  0  0
   60.5188   32.9410   49.1868 H   0  0  0  0  0  0  0  0  0  0  0  0
   59.8979   34.6265   49.1868 H   0  0  0  0  0  0  0  0  0  0  0  0
   58.7040   32.0220   46.3080 C   0  0  0  0  0  0  0  0  0  0  0  0
   57.7160   32.0050   45.2980 C   0  0  0  0  0  0  0  0  0  0  0  0
   57.0760   30.8490   45.0000 N   0  0  0  0  0  0  0  0  0  0  0  0
   57.3670   29.6750   45.6090 C   0  0  0  0  0  0  0  0  0  0  0  0
   56.7110   28.5140   45.1850 C   0  0  0  0  0  0  0  0  0  0  0  0
   55.8887   28.5834   44.4577 H   0  0  0  0  0  0  0  0  0  0  0  0
   57.3950   33.2220   44.4680 C   0  0  0  0  0  0  0  0  0  0  0  0
   57.9214   33.1399   43.5056 H   0  0  0  0  0  0  0  0  0  0  0  0
   56.3036   33.2536   44.3347 H   0  0  0  0  0  0  0  0  0  0  0  0
   57.8140   34.5270   45.1440 C   0  0  0  0  0  0  0  0  0  0  0  0
   57.7430   35.3512   44.4190 H   0  0  0  0  0  0  0  0  0  0  0  0
   57.1474   34.7203   45.9974 H   0  0  0  0  0  0  0  0  0  0  0  0
   59.2500   34.4200   45.6470 C   0  0  0  0  0  0  0  0  0  0  0  0
   59.9116   34.1658   44.8058 H   0  0  0  0  0  0  0  0  0  0  0  0
   59.5503   35.3842   46.0830 H   0  0  0  0  0  0  0  0  0  0  0  0
   59.3550   33.3330   46.7190 C   0  0  0  0  0  0  0  0  0  0  0  0
   60.4194   33.1457   46.9240 H   0  0  0  0  0  0  0  0  0  0  0  0
   58.8211   33.6984   47.6086 H   0  0  0  0  0  0  0  0  0  0  0  0
  1  2  1  0
  2  3  2  0
  3  4  1  0
  3  5  1  0
  5  6  1  0
  5  7  2  0
  7  8  1  0
  8  9  2  0
  9 10  1  0
 10 11  1  0
 10 12  1  0
 10 13  1  0
 13 14  1  0
 13 15  1  0
 13 16  1  0
 16 17  1  0
 16 18  1  0
 16 19  1  0
 19 20  1  0
 19 21  1  0
 21 22  1  0
 21 23  1  0
 21 24  1  0
 24 25  1  0
 24 26  1  0
 24 27  1  0
 27 28  1  0
 27 29  1  0
 29 30  1  0
 29 31  1  0
 29 32  1  0
 32 33  1  0
 32 34  1  0
 32 35  1  0
  8 36  1  0
 36 37  2  0
 37 38  1  0
 38 39  1  0
 39 40  2  0
 40 41  1  0
 37 42  1  0
 42 43  1  0
 42 44  1  0
 42 45  1  0
 45 46  1  0
 45 47  1  0
 45 48  1  0
 48 49  1  0
 48 50  1  0
 48 51  1  0
 51 52  1  0
 51 53  1  0
 40  2  1  0
 39  7  1  0
 51 36  1  0
M  CHG  1  38  -1
M  END
>  <UniqueID>  (27) 
26

>  <SMILES>  (27) 
CCNCCNCCC/N=c1/c2c([n-]c3ccccc13)CCCC2

>  <Energy>  (27) 
70.34326115224702

>  <Genealogy>  (27) 
CCNCCNCCCN=c1c2c([n-]c3ccccc13)CCCC2 (protonated)
CCNCCNCCC/N=c1/c2c([n-]c3ccccc13)CCCC2 (cis-trans isomerization)
CCNCCNCCC/N=c1/c2c([n-]c3ccccc13)CCCC2 (3D coordinates assigned)
CCNCCNCCC/N=c1/c2c([n-]c3ccccc13)CCCC2 (nonaromatic ring conformer: 70.34326115224702 kcal/mol)

>  <smiles>  (27) 
CCNCCNCCCN=c1c2c([nH]c3ccccc13)CCCC2

>  <score_type>  (27) 
oracle

>  <origin>  (27) 
adg

>  <m_score__min__energy>  (27) 
-8.3800000000000008

>  <m_primary>  (27) 
energy

$$$$
27:0
     RDKit          3D

 38 39  0  0  1  0  0  0  0  0999 V2000
   60.3160   29.5840   45.7350 C   0  0  0  0  0  0  0  0  0  0  0  0
   58.9560   29.7020   46.2140 N   0  0  0  0  0  0  0  0  0  0  0  0
   58.8860   29.1880   47.5420 C   0  0  0  0  0  0  0  0  0  0  0  0
   57.9840   29.2070   45.3090 C   0  0  0  0  0  0  0  0  0  0  0  0
   57.5320   30.1960   44.2700 C   0  0  0  0  0  0  0  0  0  0  0  0
   56.9380   31.3680   44.8760 N   0  0  0  0  0  0  0  0  0  0  0  0
   57.5660   32.4170   45.2450 C   0  0  0  0  0  0  0  0  0  0  0  0
   57.5690   33.5010   44.4480 N   0  0  0  0  0  0  0  0  0  0  0  0
   58.2460   34.5900   44.8790 C   0  0  0  0  0  0  0  0  0  0  0  0
   58.9150   34.5960   46.0980 C   0  0  0  0  0  0  0  0  0  0  0  0
   58.8820   33.4600   46.8800 C   0  0  0  0  0  0  0  0  0  0  0  0
   59.4870   33.4060   48.0250 N   0  0  0  0  0  0  0  0  0  0  0  0
   60.9110   33.4240   48.0390 C   0  0  0  0  0  0  0  0  0  0  0  0
   61.6420   32.7010   47.1090 C   0  0  0  0  0  0  0  0  0  0  0  0
   63.0300   32.7230   47.1300 C   0  0  0  0  0  0  0  0  0  0  0  0
   63.7200   33.4740   48.0880 C   0  0  0  0  0  0  0  0  0  0  0  0
   62.9720   34.1950   49.0160 C   0  0  0  0  0  0  0  0  0  0  0  0
   61.5880   34.1760   48.9990 C   0  0  0  0  0  0  0  0  0  0  0  0
   58.2020   32.3900   46.4290 N   0  0  0  0  0  0  0  0  0  0  0  0
   61.0028   29.5244   46.5922 H   0  0  0  0  0  0  0  0  0  0  0  0
   60.4120   28.6741   45.1243 H   0  0  0  0  0  0  0  0  0  0  0  0
   60.5673   30.4637   45.1243 H   0  0  0  0  0  0  0  0  0  0  0  0
   58.9984   30.0130   48.2609 H   0  0  0  0  0  0  0  0  0  0  0  0
   57.9129   28.6984   47.6949 H   0  0  0  0  0  0  0  0  0  0  0  0
   59.6928   28.4560   47.6949 H   0  0  0  0  0  0  0  0  0  0  0  0
   58.4108   28.3359   44.7903 H   0  0  0  0  0  0  0  0  0  0  0  0
   57.0965   28.9603   45.9103 H   0  0  0  0  0  0  0  0  0  0  0  0
   58.4001   30.5053   43.6694 H   0  0  0  0  0  0  0  0  0  0  0  0
   56.7722   29.7110   43.6395 H   0  0  0  0  0  0  0  0  0  0  0  0
   57.0630   33.4480   43.5600 H   0  0  0  0  0  0  0  0  0  0  0  0
   58.2678   35.4923   44.2502 H   0  0  0  0  0  0  0  0  0  0  0  0
   59.4607   35.4905   46.4328 H   0  0  0  0  0  0  0  0  0  0  0  0
   61.1177   32.1047   46.3478 H   0  0  0  0  0  0  0  0  0  0  0  0
   63.5940   32.1431   46.3846 H   0  0  0  0  0  0  0  0  0  0  0  0
   64.8196   33.4944   48.1077 H   0  0  0  0  0  0  0  0  0  0  0  0
   63.4925   34.7925   49.7789 H   0  0  0  0  0  0  0  0  0  0  0  0
   61.0215   34.7546   49.7435 H   0  0  0  0  0  0  0  0  0  0  0  0
   58.1920   31.5510   47.0320 H   0  0  0  0  0  0  0  0  0  0  0  0
  1  2  1  0
  2  3  1  0
  2  4  1  0
  4  5  1  0
  5  6  1  0
  6  7  2  0
  7  8  1  0
  8  9  1  0
  9 10  2  0
 10 11  1  0
 11 12  2  0
 12 13  1  0
 13 14  2  0
 14 15  1  0
 15 16  2  0
 16 17  1  0
 17 18  2  0
 11 19  1  0
 19  7  1  0
 18 13  1  0
  1 20  1  0
  1 21  1  0
  1 22  1  0
  3 23  1  0
  3 24  1  0
  3 25  1  0
  4 26  1  0
  4 27  1  0
  5 28  1  0
  5 29  1  0
  8 30  1  0
  9 31  1  0
 10 32  1  0
 14 33  1  0
 15 34  1  0
 16 35  1  0
 17 36  1  0
 18 37  1  0
 19 38  1  0
M  END
>  <smiles>  (28) 
CN(C)CCN=c1[nH]ccc(=Nc2ccccc2)[nH]1

>  <score_type>  (28) 
oracle

>  <origin>  (28) 
adg

>  <m_score__min__energy>  (28) 
-6.2699999999999996

>  <m_primary>  (28) 
energy

$$$$
28:0
     RDKit          3D

 40 43  0  0  0  0  0  0  0  0999 V2000
   55.6050   25.1130   45.7000 C   0  0  0  0  0  0  0  0  0  0  0  0
   55.5310   26.5020   45.9980 O   0  0  0  0  0  0  0  0  0  0  0  0
   56.6290   27.3750   45.9820 C   0  0  0  0  0  0  0  0  0  0  0  0
   56.5490   28.5300   45.1950 C   0  0  0  0  0  0  0  0  0  0  0  0
   57.6170   29.4300   45.1430 C   0  0  0  0  0  0  0  0  0  0  0  0
   58.7880   29.1850   45.8790 C   0  0  0  0  0  0  0  0  0  0  0  0
   59.9490   30.1460   45.8060 C   0  0  0  0  0  0  0  0  0  0  0  0
   59.9300   31.2250   46.9170 C   0  0  1  0  0  0  0  0  0  0  0  0
   59.3970   30.6950   48.1050 O   0  0  0  0  0  0  0  0  0  0  0  0
   61.3120   31.8260   47.1620 C   0  0  0  0  0  0  0  0  0  0  0  0
   62.4420   31.2310   47.7340 C   0  0  0  0  0  0  0  0  0  0  0  0
   63.6200   31.9900   47.8450 C   0  0  0  0  0  0  0  0  0  0  0  0
   63.6520   33.3300   47.4050 C   0  0  0  0  0  0  0  0  0  0  0  0
   62.5000   33.9260   46.8670 C   0  0  0  0  0  0  0  0  0  0  0  0
   61.3460   33.1530   46.7760 C   0  0  0  0  0  0  0  0  0  0  0  0
   60.0220   33.4880   46.3320 C   0  0  0  0  0  0  0  0  0  0  0  0
   59.6990   34.3450   45.4320 N   0  0  0  0  0  0  0  0  0  0  0  0
   58.3730   33.9870   44.9350 C   0  0  0  0  0  0  0  0  0  0  0  0
   58.0920   32.5810   45.5080 C   0  0  0  0  0  0  0  0  0  0  0  0
   59.1470   32.4060   46.4950 N   0  0  0  0  0  0  0  0  0  0  0  0
   58.8680   28.0320   46.6750 C   0  0  0  0  0  0  0  0  0  0  0  0
   57.7990   27.1320   46.7270 C   0  0  0  0  0  0  0  0  0  0  0  0
   55.6356   24.5380   46.6373 H   0  0  0  0  0  0  0  0  0  0  0  0
   54.7214   24.8157   45.1161 H   0  0  0  0  0  0  0  0  0  0  0  0
   56.5152   24.9112   45.1161 H   0  0  0  0  0  0  0  0  0  0  0  0
   55.6378   28.7309   44.6125 H   0  0  0  0  0  0  0  0  0  0  0  0
   57.5401   30.3350   44.5224 H   0  0  0  0  0  0  0  0  0  0  0  0
   60.8826   29.5712   45.8951 H   0  0  0  0  0  0  0  0  0  0  0  0
   59.8727   30.6723   44.8431 H   0  0  0  0  0  0  0  0  0  0  0  0
   59.7110   31.2650   48.8550 H   0  0  0  0  0  0  0  0  0  0  0  0
   62.4092   30.1906   48.0895 H   0  0  0  0  0  0  0  0  0  0  0  0
   64.5234   31.5358   48.2781 H   0  0  0  0  0  0  0  0  0  0  0  0
   64.5832   33.9103   47.4837 H   0  0  0  0  0  0  0  0  0  0  0  0
   62.5092   34.9723   46.5277 H   0  0  0  0  0  0  0  0  0  0  0  0
   57.6205   34.7061   45.2910 H   0  0  0  0  0  0  0  0  0  0  0  0
   58.3286   33.9995   43.8360 H   0  0  0  0  0  0  0  0  0  0  0  0
   57.0994   32.5389   45.9802 H   0  0  0  0  0  0  0  0  0  0  0  0
   58.0872   31.7951   44.7384 H   0  0  0  0  0  0  0  0  0  0  0  0
   59.7774   27.8350   47.2617 H   0  0  0  0  0  0  0  0  0  0  0  0
   57.8724   26.2302   47.3526 H   0  0  0  0  0  0  0  0  0  0  0  0
  1  2  1  0
  2  3  1  0
  3  4  2  0
  4  5  1  0
  5  6  2  0
  6  7  1  0
  7  8  1  0
  8  9  1  1
  8 10  1  0
 10 11  2  0
 11 12  1  0
 12 13  2  0
 13 14  1  0
 14 15  2  0
 15 16  1  0
 16 17  2  0
 17 18  1  0
 18 19  1  0
 19 20  1  0
  6 21  1  0
 21 22  2  0
 22  3  1  0
 20  8  1  0
 15 10  1  0
 20 16  1  0
  1 23  1  0
  1 24  1  0
  1 25  1  0
  4 26  1  0
  5 27  1  0
  7 28  1  0
  7 29  1  0
  9 30  1  0
 11 31  1  0
 12 32  1  0
 13 33  1  0
 14 34  1  0
 18 35  1  0
 18 36  1  0
 19 37  1  0
 19 38  1  0
 21 39  1  0
 22 40  1  0
M  END
>  <UniqueID>  (29) 
27

>  <SMILES>  (29) 
COc1ccc(C[C@@]2(O)c3ccccc3C3=NCCN32)cc1

>  <Energy>  (29) 
89.66002089612701

>  <Genealogy>  (29) 
COc1ccc(C[C@@]2(O)c3ccccc3C3=NCCN32)cc1 (chirality)
COc1ccc(C[C@@]2(O)c3ccccc3C3=NCCN32)cc1 (3D coordinates assigned)
COc1ccc(C[C@@]2(O)c3ccccc3C3=NCCN32)cc1 (nonaromatic ring conformer: 89.66002089612701 kcal/mol)

>  <smiles>  (29) 
COc1ccc(CC2(O)c3ccccc3C3=NCCN32)cc1

>  <score_type>  (29) 
oracle

>  <origin>  (29) 
adg

>  <m_score__min__energy>  (29) 
-7.1200000000000001

>  <m_primary>  (29) 
energy

$$$$
29:0
     RDKit          3D

 54 56  0  0  0  0  0  0  0  0999 V2000
   57.4030   32.3390   41.0240 C   0  0  0  0  0  0  0  0  0  0  0  0
   57.1460   31.6320   42.2330 O   0  0  0  0  0  0  0  0  0  0  0  0
   57.6420   31.9980   43.4970 C   0  0  0  0  0  0  0  0  0  0  0  0
   58.5020   33.1030   43.6470 C   0  0  0  0  0  0  0  0  0  0  0  0
   58.9850   33.4660   44.9020 C   0  0  0  0  0  0  0  0  0  0  0  0
   58.6150   32.7440   46.0420 C   0  0  0  0  0  0  0  0  0  0  0  0
   59.1470   33.0960   47.3350 N   0  0  0  0  0  0  0  0  0  0  0  0
   60.1280   34.1810   47.1960 C   0  0  0  0  0  0  0  0  0  0  0  0
   61.4520   33.7720   47.7860 C   0  0  0  0  0  0  0  0  0  0  0  0
   62.3600   33.0110   47.0290 C   0  0  0  0  0  0  0  0  0  0  0  0
   63.6060   32.6590   47.5610 C   0  0  0  0  0  0  0  0  0  0  0  0
   63.9600   33.0800   48.8500 C   0  0  0  0  0  0  0  0  0  0  0  0
   65.1970   32.7530   49.4110 C   0  0  0  0  0  0  0  0  0  0  0  0
   65.5050   33.2020   50.6950 C   0  0  0  0  0  0  0  0  0  0  0  0
   64.5650   33.9710   51.3890 C   0  0  0  0  0  0  0  0  0  0  0  0
   64.8250   34.3870   52.5470 O   0  0  0  0  0  0  0  0  0  0  0  0
   63.3930   34.2660   50.8310 O   0  0  0  0  0  0  0  0  0  0  0  0
   63.0590   33.8580   49.6090 C   0  0  0  0  0  0  0  0  0  0  0  0
   61.8140   34.2020   49.0740 C   0  0  0  0  0  0  0  0  0  0  0  0
   57.7650   31.6360   45.9020 C   0  0  0  0  0  0  0  0  0  0  0  0
   57.2700   31.2500   44.6400 C   0  0  0  0  0  0  0  0  0  0  0  0
   56.3720   30.0650   44.5540 C   0  0  0  0  0  0  0  0  0  0  0  0
   55.3160   30.1280   43.8650 O   0  0  0  0  0  0  0  0  0  0  0  0
   56.6800   28.8530   45.2490 N   0  0  0  0  0  0  0  0  0  0  0  0
   57.9700   28.1830   45.1350 C   0  0  0  0  0  0  0  0  0  0  0  0
   58.7270   28.2360   46.4670 C   0  0  0  0  0  0  0  0  0  0  0  0
   60.1320   28.6610   46.2760 N   0  0  0  0  0  0  0  0  0  0  0  0
   60.4140   28.9590   44.8600 C   0  0  0  0  0  0  0  0  0  0  0  0
   60.4120   29.8550   47.0890 C   0  0  0  0  0  0  0  0  0  0  0  0
   57.7700   33.3486   41.2606 H   0  0  0  0  0  0  0  0  0  0  0  0
   58.1629   31.8004   40.4387 H   0  0  0  0  0  0  0  0  0  0  0  0
   56.4747   32.4141   40.4387 H   0  0  0  0  0  0  0  0  0  0  0  0
   58.7959   33.6867   42.7622 H   0  0  0  0  0  0  0  0  0  0  0  0
   59.6627   34.3271   44.9977 H   0  0  0  0  0  0  0  0  0  0  0  0
   58.3690   33.4010   47.9670 H   0  0  0  0  0  0  0  0  0  0  0  0
   59.6040   32.2590   47.7680 H   0  0  0  0  0  0  0  0  0  0  0  0
   60.2629   34.4129   46.1292 H   0  0  0  0  0  0  0  0  0  0  0  0
   59.7575   35.0672   47.7321 H   0  0  0  0  0  0  0  0  0  0  0  0
   62.0896   32.6902   46.0122 H   0  0  0  0  0  0  0  0  0  0  0  0
   64.3065   32.0526   46.9680 H   0  0  0  0  0  0  0  0  0  0  0  0
   65.9207   32.1475   48.8457 H   0  0  0  0  0  0  0  0  0  0  0  0
   66.4731   32.9550   51.1553 H   0  0  0  0  0  0  0  0  0  0  0  0
   61.1144   34.8122   49.6641 H   0  0  0  0  0  0  0  0  0  0  0  0
   57.4799   31.0582   46.7936 H   0  0  0  0  0  0  0  0  0  0  0  0
   57.8076   27.1321   44.8534 H   0  0  0  0  0  0  0  0  0  0  0  0
   58.5683   28.6954   44.3673 H   0  0  0  0  0  0  0  0  0  0  0  0
   58.2250   28.9511   47.1352 H   0  0  0  0  0  0  0  0  0  0  0  0
   58.7282   27.2264   46.9037 H   0  0  0  0  0  0  0  0  0  0  0  0
   61.1688   29.7566   44.7964 H   0  0  0  0  0  0  0  0  0  0  0  0
   60.7942   28.0540   44.3635 H   0  0  0  0  0  0  0  0  0  0  0  0
   59.4894   29.2887   44.3635 H   0  0  0  0  0  0  0  0  0  0  0  0
   60.3509   29.5946   48.1560 H   0  0  0  0  0  0  0  0  0  0  0  0
   61.4216   30.2264   46.8594 H   0  0  0  0  0  0  0  0  0  0  0  0
   59.6728   30.6365   46.8594 H   0  0  0  0  0  0  0  0  0  0  0  0
  1  2  1  0
  2  3  1  0
  3  4  2  0
  4  5  1  0
  5  6  2  0
  6  7  1  0
  7  8  1  0
  8  9  1  0
  9 10  2  0
 10 11  1  0
 11 12  2  0
 12 13  1  0
 13 14  2  0
 14 15  1  0
 15 16  2  0
 15 17  1  0
 17 18  1  0
 18 19  2  0
  6 20  1  0
 20 21  2  0
 21 22  1  0
 22 23  2  0
 22 24  1  0
 24 25  1  0
 25 26  1  0
 26 27  1  0
 27 28  1  0
 27 29  1  0
 21  3  1  0
 19  9  1  0
 18 12  1  0
  1 30  1  0
  1 31  1  0
  1 32  1  0
  4 33  1  0
  5 34  1  0
  7 35  1  0
  7 36  1  0
  8 37  1  0
  8 38  1  0
 10 39  1  0
 11 40  1  0
 13 41  1  0
 14 42  1  0
 19 43  1  0
 20 44  1  0
 25 45  1  0
 25 46  1  0
 26 47  1  0
 26 48  1  0
 28 49  1  0
 28 50  1  0
 28 51  1  0
 29 52  1  0
 29 53  1  0
 29 54  1  0
M  CHG  2   7   1  24  -1
M  END
>  <UniqueID>  (30) 
28

>  <SMILES>  (30) 
COc1ccc([NH2+]Cc2ccc3ccc(=O)oc3c2)cc1C(=O)[N-]CCN(C)C

>  <Energy>  (30) 
59.178828860227775

>  <Genealogy>  (30) 
COc1ccc([NH2+]Cc2ccc3ccc(=O)oc3c2)cc1C(=O)[N-]CCN(C)C (protonated)
COc1ccc([NH2+]Cc2ccc3ccc(=O)oc3c2)cc1C(=O)[N-]CCN(C)C (3D coordinates assigned)
COc1ccc([NH2+]Cc2ccc3ccc(=O)oc3c2)cc1C(=O)[N-]CCN(C)C (optimized conformer: 59.178828860227775 kcal/mol)

>  <smiles>  (30) 
COc1ccc(NCc2ccc3ccc(=O)oc3c2)cc1C(=O)NCCN(C)C

>  <score_type>  (30) 
oracle

>  <origin>  (30) 
adg

>  <m_score__min__energy>  (30) 
-8.9800000000000004

>  <m_primary>  (30) 
energy

$$$$
30:0
     RDKit          3D

 42 44  0  0  0  0  0  0  0  0999 V2000
   57.8520   27.9690   44.9440 C   0  0  0  0  0  0  0  0  0  0  0  0
   57.4690   29.3770   44.6360 C   0  0  0  0  0  0  0  0  0  0  0  0
   58.3100   30.2880   44.1130 N   0  0  0  0  0  0  0  0  0  0  0  0
   57.5150   31.3780   44.0600 C   0  0  0  0  0  0  0  0  0  0  0  0
   57.9740   32.7220   43.5640 C   0  0  0  0  0  0  0  0  0  0  0  0
   58.2330   33.6860   44.6560 N   0  0  0  0  0  0  0  0  0  0  0  0
   57.1090   33.8260   45.6180 C   0  0  0  0  0  0  0  0  0  0  0  0
   57.4250   33.2130   46.9890 C   0  0  0  0  0  0  0  0  0  0  0  0
   58.6850   33.8410   47.6150 C   0  0  0  0  0  0  0  0  0  0  0  0
   59.6970   34.3450   46.5630 C   0  0  1  0  0  0  0  0  0  0  0  0
   61.0610   34.2780   47.1310 N   0  0  0  0  0  0  0  0  0  0  0  0
   61.7920   33.0570   46.7580 C   0  0  0  0  0  0  0  0  0  0  0  0
   61.2130   31.8350   47.4090 C   0  0  0  0  0  0  0  0  0  0  0  0
   61.2020   31.5640   48.7730 C   0  0  0  0  0  0  0  0  0  0  0  0
   60.5750   30.4070   49.1150 N   0  0  0  0  0  0  0  0  0  0  0  0
   60.0720   29.7670   48.0370 C   0  0  0  0  0  0  0  0  0  0  0  0
   59.3790   28.4510   48.1100 C   0  0  0  0  0  0  0  0  0  0  0  0
   60.4050   30.5950   46.6090 S   0  0  0  0  0  0  0  0  0  0  0  0
   59.5710   33.5150   45.2680 C   0  0  0  0  0  0  0  0  0  0  0  0
   56.2740   31.1390   44.5290 N   0  0  0  0  0  0  0  0  0  0  0  0
   56.2870   29.8880   44.8770 O   0  0  0  0  0  0  0  0  0  0  0  0
   57.8899   27.8295   46.0345 H   0  0  0  0  0  0  0  0  0  0  0  0
   57.1076   27.2837   44.5124 H   0  0  0  0  0  0  0  0  0  0  0  0
   58.8409   27.7552   44.5124 H   0  0  0  0  0  0  0  0  0  0  0  0
   58.9025   32.5851   42.9903 H   0  0  0  0  0  0  0  0  0  0  0  0
   57.1649   33.1371   42.9450 H   0  0  0  0  0  0  0  0  0  0  0  0
   56.8915   34.8959   45.7523 H   0  0  0  0  0  0  0  0  0  0  0  0
   56.2459   33.2853   45.2025 H   0  0  0  0  0  0  0  0  0  0  0  0
   56.5706   33.3819   47.6609 H   0  0  0  0  0  0  0  0  0  0  0  0
   57.6095   32.1375   46.8504 H   0  0  0  0  0  0  0  0  0  0  0  0
   58.3780   34.6917   48.2412 H   0  0  0  0  0  0  0  0  0  0  0  0
   59.1853   33.0568   48.2022 H   0  0  0  0  0  0  0  0  0  0  0  0
   59.4837   35.3922   46.3026 H   0  0  0  0  0  0  0  0  0  0  0  0
   61.0540   34.3870   48.1720 H   0  0  0  0  0  0  0  0  0  0  0  0
   61.7444   32.9341   45.6659 H   0  0  0  0  0  0  0  0  0  0  0  0
   62.8316   33.1648   47.1010 H   0  0  0  0  0  0  0  0  0  0  0  0
   61.6634   32.2319   49.5154 H   0  0  0  0  0  0  0  0  0  0  0  0
   59.2321   28.1719   49.1638 H   0  0  0  0  0  0  0  0  0  0  0  0
   58.4018   28.5229   47.6101 H   0  0  0  0  0  0  0  0  0  0  0  0
   59.9912   27.6860   47.6101 H   0  0  0  0  0  0  0  0  0  0  0  0
   60.3386   33.8455   44.5528 H   0  0  0  0  0  0  0  0  0  0  0  0
   59.7089   32.4527   45.5178 H   0  0  0  0  0  0  0  0  0  0  0  0
  1  2  1  0
  2  3  2  0
  3  4  1  0
  4  5  1  0
  5  6  1  0
  6  7  1  0
  7  8  1  0
  8  9  1  0
  9 10  1  0
 10 11  1  0
 11 12  1  0
 12 13  1  0
 13 14  2  0
 14 15  1  0
 15 16  2  0
 16 17  1  0
 16 18  1  0
 10 19  1  0
  4 20  2  0
 20 21  1  0
 21  2  1  0
 19  6  1  0
 18 13  1  0
  1 22  1  0
  1 23  1  0
  1 24  1  0
  5 25  1  0
  5 26  1  0
  7 27  1  0
  7 28  1  0
  8 29  1  0
  8 30  1  0
  9 31  1  0
  9 32  1  0
 10 33  1  6
 11 34  1  0
 12 35  1  0
 12 36  1  0
 14 37  1  0
 17 38  1  0
 17 39  1  0
 17 40  1  0
 19 41  1  0
 19 42  1  0
M  END
>  <UniqueID>  (31) 
29

>  <SMILES>  (31) 
Cc1nc(CN2CCC[C@@H](NCc3cnc(C)s3)C2)no1

>  <Energy>  (31) 
111.71159985582595

>  <Genealogy>  (31) 
Cc1nc(CN2CCC[C@@H](NCc3cnc(C)s3)C2)no1 (chirality)
Cc1nc(CN2CCC[C@@H](NCc3cnc(C)s3)C2)no1 (3D coordinates assigned)
Cc1nc(CN2CCC[C@@H](NCc3cnc(C)s3)C2)no1 (nonaromatic ring conformer: 111.71159985582595 kcal/mol)

>  <smiles>  (31) 
Cc1nc(CN2CCCC(NCc3cnc(C)s3)C2)no1

>  <score_type>  (31) 
oracle

>  <origin>  (31) 
adg

>  <m_score__min__energy>  (31) 
-7.8600000000000003

>  <m_primary>  (31) 
energy

$$$$
31:0
     RDKit          3D

 56 59  0  0  0  0  0  0  0  0999 V2000
   57.4340   26.8900   44.1650 N   0  0  0  0  0  0  0  0  0  0  0  0
   56.6650   27.5520   45.5750 S   0  0  0  0  0  0  0  0  0  0  0  0
   57.7020   27.7400   46.6490 O   0  0  0  0  0  0  0  0  0  0  0  0
   55.6090   26.5980   46.0720 O   0  0  0  0  0  0  0  0  0  0  0  0
   55.9470   29.0750   45.2450 O   0  0  0  0  0  0  0  0  0  0  0  0
   56.5860   30.0960   44.5310 C   0  0  0  0  0  0  0  0  0  0  0  0
   56.4010   30.1640   43.1450 C   0  0  0  0  0  0  0  0  0  0  0  0
   57.0300   31.1630   42.3980 C   0  0  0  0  0  0  0  0  0  0  0  0
   57.8400   32.1090   43.0310 C   0  0  0  0  0  0  0  0  0  0  0  0
   58.0260   32.0690   44.4260 C   0  0  0  0  0  0  0  0  0  0  0  0
   58.8270   33.0750   45.0800 N   0  0  0  0  0  0  0  0  0  0  0  0
   58.7040   34.5160   44.8610 C   0  0  0  0  0  0  0  0  0  0  0  0
   59.5620   35.1920   45.9590 C   0  0  0  0  0  0  0  0  0  0  0  0
   60.1240   34.1030   46.7590 N   0  0  0  0  0  0  0  0  0  0  0  0
   61.1560   34.2230   47.8000 C   0  0  0  0  0  0  0  0  0  0  0  0
   62.5120   33.6440   47.3290 C   0  0  0  0  0  0  0  0  0  0  0  0
   62.7510   32.2430   47.9020 C   0  0  0  0  0  0  0  0  0  0  0  0
   62.7980   32.2580   49.3860 N   0  0  0  0  0  0  0  0  0  0  0  0
   62.6380   30.8890   49.9170 C   0  0  0  0  0  0  0  0  0  0  0  0
   61.2740   30.3450   49.5750 C   0  0  0  0  0  0  0  0  0  0  0  0
   60.2000   30.5310   50.4640 C   0  0  0  0  0  0  0  0  0  0  0  0
   58.9320   30.0280   50.1530 C   0  0  0  0  0  0  0  0  0  0  0  0
   58.7280   29.3360   48.9560 C   0  0  0  0  0  0  0  0  0  0  0  0
   59.7910   29.1470   48.0670 C   0  0  0  0  0  0  0  0  0  0  0  0
   61.0600   29.6480   48.3740 C   0  0  0  0  0  0  0  0  0  0  0  0
   61.8520   33.2200   50.0180 C   0  0  0  0  0  0  0  0  0  0  0  0
   60.6660   33.5780   49.1130 C   0  0  0  0  0  0  0  0  0  0  0  0
   59.7130   32.8850   46.1710 C   0  0  0  0  0  0  0  0  0  0  0  0
   60.1560   31.7610   46.5300 O   0  0  0  0  0  0  0  0  0  0  0  0
   57.3790   31.0620   45.1700 C   0  0  0  0  0  0  0  0  0  0  0  0
   56.9990   25.9540   43.9860 H   0  0  0  0  0  0  0  0  0  0  0  0
   57.1510   27.4940   43.3550 H   0  0  0  0  0  0  0  0  0  0  0  0
   55.7574   29.4274   42.6418 H   0  0  0  0  0  0  0  0  0  0  0  0
   56.8871   31.2049   41.3081 H   0  0  0  0  0  0  0  0  0  0  0  0
   58.3356   32.8901   42.4357 H   0  0  0  0  0  0  0  0  0  0  0  0
   59.0809   34.7840   43.8629 H   0  0  0  0  0  0  0  0  0  0  0  0
   57.6548   34.8423   44.9131 H   0  0  0  0  0  0  0  0  0  0  0  0
   60.3675   35.7863   45.5029 H   0  0  0  0  0  0  0  0  0  0  0  0
   58.9610   35.8764   46.5757 H   0  0  0  0  0  0  0  0  0  0  0  0
   61.3311   35.2910   47.9968 H   0  0  0  0  0  0  0  0  0  0  0  0
   62.5145   33.5866   46.2305 H   0  0  0  0  0  0  0  0  0  0  0  0
   63.3142   34.3060   47.6871 H   0  0  0  0  0  0  0  0  0  0  0  0
   61.9345   31.5810   47.5777 H   0  0  0  0  0  0  0  0  0  0  0  0
   63.7217   31.8817   47.5315 H   0  0  0  0  0  0  0  0  0  0  0  0
   63.4079   30.2380   49.4771 H   0  0  0  0  0  0  0  0  0  0  0  0
   62.7450   30.9176   51.0114 H   0  0  0  0  0  0  0  0  0  0  0  0
   60.3576   31.0741   51.4075 H   0  0  0  0  0  0  0  0  0  0  0  0
   58.0951   30.1773   50.8511 H   0  0  0  0  0  0  0  0  0  0  0  0
   57.7310   28.9399   48.7130 H   0  0  0  0  0  0  0  0  0  0  0  0
   59.6286   28.6033   47.1247 H   0  0  0  0  0  0  0  0  0  0  0  0
   61.8937   29.4958   47.6727 H   0  0  0  0  0  0  0  0  0  0  0  0
   61.4632   32.7718   50.9442 H   0  0  0  0  0  0  0  0  0  0  0  0
   62.4087   34.1485   50.2129 H   0  0  0  0  0  0  0  0  0  0  0  0
   60.1027   32.6630   48.8774 H   0  0  0  0  0  0  0  0  0  0  0  0
   60.0229   34.2972   49.6414 H   0  0  0  0  0  0  0  0  0  0  0  0
   57.4967   31.0327   46.2633 H   0  0  0  0  0  0  0  0  0  0  0  0
  1  2  1  0
  2  3  2  0
  2  4  2  0
  2  5  1  0
  5  6  1  0
  6  7  2  0
  7  8  1  0
  8  9  2  0
  9 10  1  0
 10 11  1  0
 11 12  1  0
 12 13  1  0
 13 14  1  0
 14 15  1  0
 15 16  1  0
 16 17  1  0
 17 18  1  0
 18 19  1  0
 19 20  1  0
 20 21  2  0
 21 22  1  0
 22 23  2  0
 23 24  1  0
 24 25  2  0
 18 26  1  0
 26 27  1  0
 14 28  1  0
 28 29  2  0
 10 30  2  0
 30  6  1  0
 28 11  1  0
 27 15  1  0
 25 20  1  0
  1 31  1  0
  1 32  1  0
  7 33  1  0
  8 34  1  0
  9 35  1  0
 12 36  1  0
 12 37  1  0
 13 38  1  0
 13 39  1  0
 15 40  1  0
 16 41  1  0
 16 42  1  0
 17 43  1  0
 17 44  1  0
 19 45  1  0
 19 46  1  0
 21 47  1  0
 22 48  1  0
 23 49  1  0
 24 50  1  0
 25 51  1  0
 26 52  1  0
 26 53  1  0
 27 54  1  0
 27 55  1  0
 30 56  1  0
M  END
>  <UniqueID>  (32) 
30

>  <SMILES>  (32) 
NS(=O)(=O)Oc1cccc(N2CCN(C3CCN(Cc4ccccc4)CC3)C2=O)c1

>  <Energy>  (32) 
83.821951253918

>  <Genealogy>  (32) 
NS(=O)(=O)Oc1cccc(N2CCN(C3CCN(Cc4ccccc4)CC3)C2=O)c1 (3D coordinates assigned)
NS(=O)(=O)Oc1cccc(N2CCN(C3CCN(Cc4ccccc4)CC3)C2=O)c1 (nonaromatic ring conformer: 83.821951253918 kcal/mol)

>  <smiles>  (32) 
NS(=O)(=O)Oc1cccc(N2CCN(C3CCN(Cc4ccccc4)CC3)C2=O)c1

>  <score_type>  (32) 
oracle

>  <origin>  (32) 
adg

>  <m_score__min__energy>  (32) 
-10.07

>  <m_primary>  (32) 
energy

$$$$
32:0
     RDKit          3D

 35 37  0  0  0  0  0  0  0  0999 V2000
   61.5180   34.2580   49.1670 C   0  0  0  0  0  0  0  0  0  0  0  0
   60.3970   33.9910   48.2060 C   0  0  0  0  0  0  0  0  0  0  0  0
   60.3970   34.5860   46.9350 C   0  0  0  0  0  0  0  0  0  0  0  0
   59.3370   34.3630   46.0520 C   0  0  0  0  0  0  0  0  0  0  0  0
   58.2720   33.5330   46.4260 C   0  0  0  0  0  0  0  0  0  0  0  0
   56.8990   33.2560   45.2940 S   0  0  0  0  0  0  0  0  0  0  0  0
   57.5790   31.8150   44.3650 C   0  0  0  0  0  0  0  0  0  0  0  0
   56.4980   30.7920   43.9780 C   0  0  0  0  0  0  0  0  0  0  0  0
   56.2730   29.8250   45.0020 O   0  0  0  0  0  0  0  0  0  0  0  0
   57.1070   28.7170   45.2000 C   0  0  0  0  0  0  0  0  0  0  0  0
   56.5410   27.5390   45.7030 C   0  0  0  0  0  0  0  0  0  0  0  0
   57.3060   26.3750   45.8010 C   0  0  0  0  0  0  0  0  0  0  0  0
   58.6440   26.3810   45.4010 C   0  0  0  0  0  0  0  0  0  0  0  0
   59.2300   27.5620   44.9370 C   0  0  0  0  0  0  0  0  0  0  0  0
   58.4830   28.7450   44.8720 C   0  0  0  0  0  0  0  0  0  0  0  0
   59.1390   29.9330   44.5280 O   0  0  0  0  0  0  0  0  0  0  0  0
   58.7810   31.1950   45.0880 C   0  0  0  0  0  0  0  0  0  0  0  0
   58.2410   32.9850   47.7140 C   0  0  0  0  0  0  0  0  0  0  0  0
   59.3010   33.2070   48.5980 C   0  0  0  0  0  0  0  0  0  0  0  0
   61.1458   34.1693   50.1983 H   0  0  0  0  0  0  0  0  0  0  0  0
   62.3231   33.5265   49.0036 H   0  0  0  0  0  0  0  0  0  0  0  0
   61.9069   35.2739   49.0036 H   0  0  0  0  0  0  0  0  0  0  0  0
   61.2352   35.2309   46.6324 H   0  0  0  0  0  0  0  0  0  0  0  0
   59.3388   34.8403   45.0609 H   0  0  0  0  0  0  0  0  0  0  0  0
   57.9604   32.1969   43.4065 H   0  0  0  0  0  0  0  0  0  0  0  0
   55.5570   31.3282   43.7855 H   0  0  0  0  0  0  0  0  0  0  0  0
   56.8476   30.2572   43.0826 H   0  0  0  0  0  0  0  0  0  0  0  0
   55.4885   27.5306   46.0225 H   0  0  0  0  0  0  0  0  0  0  0  0
   56.8542   25.4522   46.1937 H   0  0  0  0  0  0  0  0  0  0  0  0
   59.2370   25.4559   45.4511 H   0  0  0  0  0  0  0  0  0  0  0  0
   60.2837   27.5624   44.6211 H   0  0  0  0  0  0  0  0  0  0  0  0
   58.5257   31.0549   46.1488 H   0  0  0  0  0  0  0  0  0  0  0  0
   59.6377   31.8758   44.9757 H   0  0  0  0  0  0  0  0  0  0  0  0
   57.3802   32.3781   48.0313 H   0  0  0  0  0  0  0  0  0  0  0  0
   59.2759   32.7653   49.6051 H   0  0  0  0  0  0  0  0  0  0  0  0
  1  2  1  0
  2  3  2  0
  3  4  1  0
  4  5  2  0
  5  6  1  0
  6  7  1  0
  7  8  1  0
  8  9  1  0
  9 10  1  0
 10 11  2  0
 11 12  1  0
 12 13  2  0
 13 14  1  0
 14 15  2  0
 15 16  1  0
 16 17  1  0
  5 18  1  0
 18 19  2  0
 19  2  1  0
 17  7  1  0
 15 10  1  0
  1 20  1  0
  1 21  1  0
  1 22  1  0
  3 23  1  0
  4 24  1  0
  7 25  1  0
  8 26  1  0
  8 27  1  0
 11 28  1  0
 12 29  1  0
 13 30  1  0
 14 31  1  0
 17 32  1  0
 17 33  1  0
 18 34  1  0
 19 35  1  0
M  END
>  <UniqueID>  (33) 
31

>  <SMILES>  (33) 
Cc1ccc(SC2COc3ccccc3OC2)cc1

>  <Energy>  (33) 
41.40431417538434

>  <Genealogy>  (33) 
Cc1ccc(SC2COc3ccccc3OC2)cc1 (3D coordinates assigned)
Cc1ccc(SC2COc3ccccc3OC2)cc1 (nonaromatic ring conformer: 41.40431417538434 kcal/mol)

>  <smiles>  (33) 
Cc1ccc(SC2COc3ccccc3OC2)cc1

>  <score_type>  (33) 
oracle

>  <origin>  (33) 
adg

>  <m_score__min__energy>  (33) 
-5.54

>  <m_primary>  (33) 
energy

$$$$
33:0
     RDKit          3D

 47 49  0  0  0  0  0  0  0  0999 V2000
   61.7260   31.3660   47.6360 C   0  0  0  0  0  0  0  0  0  0  0  0
   60.8560   32.2410   47.1280 C   0  0  0  0  0  0  0  0  0  0  0  0
   61.3700   33.4420   46.3830 C   0  0  0  0  0  0  0  0  0  0  0  0
   59.4090   31.9490   47.2100 C   0  0  0  0  0  0  0  0  0  0  0  0
   58.7680   31.0030   46.5100 C   0  0  0  0  0  0  0  0  0  0  0  0
   58.0260   31.2240   45.2150 C   0  0  0  0  0  0  0  0  0  0  0  0
   58.0670   29.9910   44.2940 C   0  0  0  0  0  0  0  0  0  0  0  0
   57.7650   28.6990   45.0400 C   0  0  0  0  0  0  0  0  0  0  0  0
   56.4040   28.3010   45.1980 C   0  0  0  0  0  0  0  0  0  0  0  0
   55.3300   29.0640   44.7230 O   0  0  0  0  0  0  0  0  0  0  0  0
   56.0900   27.1080   45.8520 C   0  0  0  0  0  0  0  0  0  0  0  0
   54.7620   26.7120   45.9770 O   0  0  0  0  0  0  0  0  0  0  0  0
   57.0900   26.3150   46.3940 C   0  0  0  0  0  0  0  0  0  0  0  0
   58.4230   26.7030   46.3080 C   0  0  0  0  0  0  0  0  0  0  0  0
   58.7930   27.8790   45.6160 C   0  0  0  0  0  0  0  0  0  0  0  0
   60.2650   28.1590   45.5420 C   0  0  0  0  0  0  0  0  0  0  0  0
   60.7250   29.2450   45.1100 O   0  0  0  0  0  0  0  0  0  0  0  0
   61.2500   27.1200   46.0040 C   0  0  0  0  0  0  0  0  0  0  0  0
   60.7030   26.3510   47.2150 C   0  0  1  0  0  0  0  0  0  0  0  0
   60.6950   27.1080   48.5390 C   0  0  0  0  0  0  0  0  0  0  0  0
   60.9340   26.3750   49.7160 C   0  0  0  0  0  0  0  0  0  0  0  0
   60.9120   27.0010   50.9650 C   0  0  0  0  0  0  0  0  0  0  0  0
   60.6500   28.3680   51.0590 C   0  0  0  0  0  0  0  0  0  0  0  0
   60.4120   29.1120   49.9020 C   0  0  0  0  0  0  0  0  0  0  0  0
   60.4350   28.4930   48.6490 C   0  0  0  0  0  0  0  0  0  0  0  0
   59.3840   25.8940   46.9270 O   0  0  0  0  0  0  0  0  0  0  0  0
   61.3626   30.4835   48.1830 H   0  0  0  0  0  0  0  0  0  0  0  0
   62.8065   31.5272   47.5078 H   0  0  0  0  0  0  0  0  0  0  0  0
   61.6975   34.2071   47.1023 H   0  0  0  0  0  0  0  0  0  0  0  0
   62.2200   33.1453   45.7509 H   0  0  0  0  0  0  0  0  0  0  0  0
   60.5685   33.8520   45.7509 H   0  0  0  0  0  0  0  0  0  0  0  0
   58.8094   32.5582   47.9024 H   0  0  0  0  0  0  0  0  0  0  0  0
   58.7842   29.9797   46.9133 H   0  0  0  0  0  0  0  0  0  0  0  0
   56.9760   31.4574   45.4455 H   0  0  0  0  0  0  0  0  0  0  0  0
   58.5178   32.0532   44.6854 H   0  0  0  0  0  0  0  0  0  0  0  0
   57.3208   30.1210   43.4963 H   0  0  0  0  0  0  0  0  0  0  0  0
   59.0850   29.9118   43.8848 H   0  0  0  0  0  0  0  0  0  0  0  0
   54.4160   28.6970   44.4990 H   0  0  0  0  0  0  0  0  0  0  0  0
   56.8272   25.3720   46.8957 H   0  0  0  0  0  0  0  0  0  0  0  0
   61.4397   26.4126   45.1832 H   0  0  0  0  0  0  0  0  0  0  0  0
   62.1824   27.6240   46.2981 H   0  0  0  0  0  0  0  0  0  0  0  0
   61.4082   25.5203   47.3657 H   0  0  0  0  0  0  0  0  0  0  0  0
   61.1406   25.2965   49.6521 H   0  0  0  0  0  0  0  0  0  0  0  0
   61.1017   26.4146   51.8762 H   0  0  0  0  0  0  0  0  0  0  0  0
   60.6310   28.8589   52.0432 H   0  0  0  0  0  0  0  0  0  0  0  0
   60.2055   30.1899   49.9767 H   0  0  0  0  0  0  0  0  0  0  0  0
   60.2495   29.0877   47.7424 H   0  0  0  0  0  0  0  0  0  0  0  0
  1  2  2  0
  2  3  1  0
  2  4  1  0
  4  5  2  3
  5  6  1  0
  6  7  1  0
  7  8  1  0
  8  9  2  0
  9 10  1  0
  9 11  1  0
 11 12  1  0
 11 13  2  0
 13 14  1  0
 14 15  2  0
 15 16  1  0
 16 17  2  0
 16 18  1  0
 18 19  1  0
 19 20  1  0
 20 21  2  0
 21 22  1  0
 22 23  2  0
 23 24  1  0
 24 25  2  0
 19 26  1  0
 15  8  1  0
 25 20  1  0
 26 14  1  0
  1 27  1  0
  1 28  1  0
  3 29  1  0
  3 30  1  0
  3 31  1  0
  4 32  1  0
  5 33  1  0
  6 34  1  0
  6 35  1  0
  7 36  1  0
  7 37  1  0
 10 38  1  0
 13 39  1  0
 18 40  1  0
 18 41  1  0
 19 42  1  1
 21 43  1  0
 22 44  1  0
 23 45  1  0
 24 46  1  0
 25 47  1  0
M  CHG  1  12  -1
M  END
>  <UniqueID>  (34) 
32

>  <SMILES>  (34) 
C=C(C)C=CCCc1c(O)c([O-])cc2c1C(=O)C[C@@H](c1ccccc1)O2

>  <Energy>  (34) 
63.97320276763153

>  <Genealogy>  (34) 
C=C(C)C=CCCc1c(O)c([O-])cc2c1C(=O)CC(c1ccccc1)O2 (protonated)
C=C(C)C=CCCc1c(O)c([O-])cc2c1C(=O)C[C@@H](c1ccccc1)O2 (chirality)
C=C(C)C=CCCc1c(O)c([O-])cc2c1C(=O)C[C@@H](c1ccccc1)O2 (3D coordinates assigned)
C=C(C)C=CCCc1c(O)c([O-])cc2c1C(=O)C[C@@H](c1ccccc1)O2 (nonaromatic ring conformer: 63.97320276763153 kcal/mol)

>  <smiles>  (34) 
C=C(C)C=CCCc1c(O)c(O)cc2c1C(=O)CC(c1ccccc1)O2

>  <score_type>  (34) 
oracle

>  <origin>  (34) 
adg

>  <m_score__min__energy>  (34) 
-11.380000000000001

>  <m_primary>  (34) 
energy

$$$$
34:0
     RDKit          3D

 54 58  0  0  0  0  0  0  0  0999 V2000
   58.2600   33.4920   46.1450 C   0  0  0  0  0  0  0  0  0  0  0  0
   58.7170   32.1600   45.9360 O   0  0  0  0  0  0  0  0  0  0  0  0
   58.1400   31.2530   45.0310 C   0  0  0  0  0  0  0  0  0  0  0  0
   57.3950   31.6820   43.9140 C   0  0  0  0  0  0  0  0  0  0  0  0
   56.8300   30.7470   43.0430 C   0  0  0  0  0  0  0  0  0  0  0  0
   56.9970   29.3800   43.2770 C   0  0  0  0  0  0  0  0  0  0  0  0
   57.7330   28.9450   44.3810 C   0  0  0  0  0  0  0  0  0  0  0  0
   58.3110   29.8740   45.2570 C   0  0  0  0  0  0  0  0  0  0  0  0
   59.0850   29.4130   46.3740 N   0  0  0  0  0  0  0  0  0  0  0  0
   60.5490   29.4120   46.3060 C   0  0  0  0  0  0  0  0  0  0  0  0
   61.1250   30.0120   47.5910 C   0  0  0  0  0  0  0  0  0  0  0  0
   60.4920   29.4430   48.7950 N   0  0  0  0  0  0  0  0  0  0  0  0
   61.0500   29.6940   50.1050 C   0  0  0  0  0  0  0  0  0  0  0  0
   60.8280   28.8750   51.0430 O   0  0  0  0  0  0  0  0  0  0  0  0
   61.8660   30.9250   50.4150 C   0  0  0  0  0  0  0  0  0  0  0  0
   61.3980   32.0690   49.6240 N   0  0  0  0  0  0  0  0  0  0  0  0
   60.1660   32.6630   49.5880 C   0  0  0  0  0  0  0  0  0  0  0  0
   59.0690   32.4040   50.5340 C   0  0  0  0  0  0  0  0  0  0  0  0
   58.1870   31.3290   50.5120 C   0  0  0  0  0  0  0  0  0  0  0  0
   57.2930   31.3280   51.5900 C   0  0  0  0  0  0  0  0  0  0  0  0
   57.4830   32.3810   52.4750 C   0  0  0  0  0  0  0  0  0  0  0  0
   58.7690   33.3120   51.9180 S   0  0  0  0  0  0  0  0  0  0  0  0
   60.0260   33.5570   48.5690 N   0  0  0  0  0  0  0  0  0  0  0  0
   61.2250   33.5180   47.9630 C   0  0  0  0  0  0  0  0  0  0  0  0
   61.6470   34.2110   46.8340 C   0  0  0  0  0  0  0  0  0  0  0  0
   62.9520   33.9560   46.3720 C   0  0  0  0  0  0  0  0  0  0  0  0
   63.7690   33.0220   47.0520 C   0  0  0  0  0  0  0  0  0  0  0  0
   63.2990   32.3640   48.1560 N   0  0  0  0  0  0  0  0  0  0  0  0
   62.0410   32.6330   48.5900 C   0  0  0  0  0  0  0  0  0  0  0  0
   59.3970   28.4700   48.6510 C   0  0  0  0  0  0  0  0  0  0  0  0
   58.3990   28.9300   47.5790 C   0  0  0  0  0  0  0  0  0  0  0  0
   58.1917   33.6910   47.2247 H   0  0  0  0  0  0  0  0  0  0  0  0
   58.9671   34.1985   45.6859 H   0  0  0  0  0  0  0  0  0  0  0  0
   57.2681   33.6156   45.6859 H   0  0  0  0  0  0  0  0  0  0  0  0
   57.2579   32.7573   43.7273 H   0  0  0  0  0  0  0  0  0  0  0  0
   56.2525   31.0880   42.1711 H   0  0  0  0  0  0  0  0  0  0  0  0
   56.5486   28.6460   42.5913 H   0  0  0  0  0  0  0  0  0  0  0  0
   57.8598   27.8678   44.5641 H   0  0  0  0  0  0  0  0  0  0  0  0
   60.9091   28.3790   46.1913 H   0  0  0  0  0  0  0  0  0  0  0  0
   60.8743   30.0141   45.4448 H   0  0  0  0  0  0  0  0  0  0  0  0
   62.2051   29.8068   47.6263 H   0  0  0  0  0  0  0  0  0  0  0  0
   60.9272   31.0940   47.5807 H   0  0  0  0  0  0  0  0  0  0  0  0
   61.7701   31.1621   51.4849 H   0  0  0  0  0  0  0  0  0  0  0  0
   62.9177   30.7258   50.1616 H   0  0  0  0  0  0  0  0  0  0  0  0
   58.1911   30.5578   49.7276 H   0  0  0  0  0  0  0  0  0  0  0  0
   56.5128   30.5641   51.7232 H   0  0  0  0  0  0  0  0  0  0  0  0
   56.8940   32.5734   53.3839 H   0  0  0  0  0  0  0  0  0  0  0  0
   60.9884   34.9288   46.3230 H   0  0  0  0  0  0  0  0  0  0  0  0
   63.3356   34.4813   45.4849 H   0  0  0  0  0  0  0  0  0  0  0  0
   64.7888   32.8235   46.6907 H   0  0  0  0  0  0  0  0  0  0  0  0
   59.8160   27.4955   48.3597 H   0  0  0  0  0  0  0  0  0  0  0  0
   58.8694   28.3869   49.6126 H   0  0  0  0  0  0  0  0  0  0  0  0
   57.7523   28.0830   47.3064 H   0  0  0  0  0  0  0  0  0  0  0  0
   57.8065   29.7590   47.9934 H   0  0  0  0  0  0  0  0  0  0  0  0
  1  2  1  0
  2  3  1  0
  3  4  2  0
  4  5  1  0
  5  6  2  0
  6  7  1  0
  7  8  2  0
  8  9  1  0
  9 10  1  0
 10 11  1  0
 11 12  1  0
 12 13  1  0
 13 14  2  0
 13 15  1  0
 15 16  1  0
 16 17  1  0
 17 18  1  0
 18 19  2  0
 19 20  1  0
 20 21  2  0
 21 22  1  0
 17 23  2  0
 23 24  1  0
 24 25  2  0
 25 26  1  0
 26 27  2  0
 27 28  1  0
 28 29  2  0
 12 30  1  0
 30 31  1  0
  8  3  1  0
 31  9  1  0
 29 16  1  0
 22 18  1  0
 29 24  1  0
  1 32  1  0
  1 33  1  0
  1 34  1  0
  4 35  1  0
  5 36  1  0
  6 37  1  0
  7 38  1  0
 10 39  1  0
 10 40  1  0
 11 41  1  0
 11 42  1  0
 15 43  1  0
 15 44  1  0
 19 45  1  0
 20 46  1  0
 21 47  1  0
 25 48  1  0
 26 49  1  0
 27 50  1  0
 30 51  1  0
 30 52  1  0
 31 53  1  0
 31 54  1  0
M  END
>  <UniqueID>  (35) 
33

>  <SMILES>  (35) 
COc1ccccc1N1CCN(C(=O)Cn2c(-c3cccs3)nc3cccnc32)CC1

>  <Energy>  (35) 
132.9667274396557

>  <Genealogy>  (35) 
COc1ccccc1N1CCN(C(=O)Cn2c(-c3cccs3)nc3cccnc32)CC1 (3D coordinates assigned)
COc1ccccc1N1CCN(C(=O)Cn2c(-c3cccs3)nc3cccnc32)CC1 (nonaromatic ring conformer: 132.9667274396557 kcal/mol)

>  <smiles>  (35) 
COc1ccccc1N1CCN(C(=O)Cn2c(-c3cccs3)nc3cccnc32)CC1

>  <score_type>  (35) 
oracle

>  <origin>  (35) 
adg

>  <m_score__min__energy>  (35) 
-8.1500000000000004

>  <m_primary>  (35) 
energy

$$$$
35:0
     RDKit          3D

 43 45  0  0  0  0  0  0  0  0999 V2000
   58.8190   33.5390   51.8690 C   0  0  0  0  0  0  0  0  0  0  0  0
   59.5400   33.6770   50.6500 O   0  0  0  0  0  0  0  0  0  0  0  0
   60.9220   33.4650   50.5090 C   0  0  0  0  0  0  0  0  0  0  0  0
   61.6780   32.8380   51.5190 C   0  0  0  0  0  0  0  0  0  0  0  0
   63.0530   32.6570   51.3660 C   0  0  0  0  0  0  0  0  0  0  0  0
   63.6940   33.1090   50.2140 C   0  0  0  0  0  0  0  0  0  0  0  0
   65.0340   32.9520   50.0790 F   0  0  0  0  0  0  0  0  0  0  0  0
   62.9590   33.7310   49.2030 C   0  0  0  0  0  0  0  0  0  0  0  0
   61.5670   33.8920   49.3240 C   0  0  0  0  0  0  0  0  0  0  0  0
   60.7820   34.5650   48.2060 C   0  0  0  0  0  0  0  0  0  0  0  0
   59.5690   33.8220   47.7680 N   0  0  0  0  0  0  0  0  0  0  0  0
   59.8270   32.3710   47.5850 C   0  0  0  0  0  0  0  0  0  0  0  0
   58.6510   31.6670   46.9000 C   0  0  0  0  0  0  0  0  0  0  0  0
   58.3600   32.2980   45.6040 N   0  0  0  0  0  0  0  0  0  0  0  0
   57.6530   31.5800   44.5680 C   0  0  0  0  0  0  0  0  0  0  0  0
   57.7360   31.9730   43.2190 C   0  0  0  0  0  0  0  0  0  0  0  0
   57.0390   31.2520   42.2480 C   0  0  0  0  0  0  0  0  0  0  0  0
   56.2690   30.1490   42.6180 C   0  0  0  0  0  0  0  0  0  0  0  0
   56.2100   29.7810   43.9620 C   0  0  0  0  0  0  0  0  0  0  0  0
   56.8950   30.4950   44.8940 N   0  0  0  0  0  0  0  0  0  0  0  0
   58.8970   33.6380   45.3350 C   0  0  0  0  0  0  0  0  0  0  0  0
   58.8640   34.4720   46.6230 C   0  0  0  0  0  0  0  0  0  0  0  0
   59.5058   33.6705   52.7181 H   0  0  0  0  0  0  0  0  0  0  0  0
   58.0281   34.3021   51.9156 H   0  0  0  0  0  0  0  0  0  0  0  0
   58.3658   32.5378   51.9156 H   0  0  0  0  0  0  0  0  0  0  0  0
   61.1803   32.4884   52.4355 H   0  0  0  0  0  0  0  0  0  0  0  0
   63.6321   32.1566   52.1561 H   0  0  0  0  0  0  0  0  0  0  0  0
   63.4736   34.0987   48.3030 H   0  0  0  0  0  0  0  0  0  0  0  0
   60.4676   35.5588   48.5574 H   0  0  0  0  0  0  0  0  0  0  0  0
   61.4531   34.6082   47.3355 H   0  0  0  0  0  0  0  0  0  0  0  0
   58.9080   33.8840   48.5820 H   0  0  0  0  0  0  0  0  0  0  0  0
   60.7274   32.2446   46.9660 H   0  0  0  0  0  0  0  0  0  0  0  0
   59.9644   31.9197   48.5787 H   0  0  0  0  0  0  0  0  0  0  0  0
   58.9059   30.6091   46.7389 H   0  0  0  0  0  0  0  0  0  0  0  0
   57.7627   31.7481   47.5437 H   0  0  0  0  0  0  0  0  0  0  0  0
   58.3459   32.8423   42.9319 H   0  0  0  0  0  0  0  0  0  0  0  0
   57.0968   31.5533   41.1917 H   0  0  0  0  0  0  0  0  0  0  0  0
   55.7153   29.5767   41.8591 H   0  0  0  0  0  0  0  0  0  0  0  0
   55.6086   28.9123   44.2680 H   0  0  0  0  0  0  0  0  0  0  0  0
   59.9347   33.5525   44.9804 H   0  0  0  0  0  0  0  0  0  0  0  0
   58.2849   34.1298   44.5647 H   0  0  0  0  0  0  0  0  0  0  0  0
   59.3436   35.4415   46.4231 H   0  0  0  0  0  0  0  0  0  0  0  0
   57.8083   34.5824   46.9117 H   0  0  0  0  0  0  0  0  0  0  0  0
  1  2  1  0
  2  3  1  0
  3  4  2  0
  4  5  1  0
  5  6  2  0
  6  7  1  0
  6  8  1  0
  8  9  2  0
  9 10  1  0
 10 11  1  0
 11 12  1  0
 12 13  1  0
 13 14  1  0
 14 15  1  0
 15 16  2  0
 16 17  1  0
 17 18  2  0
 18 19  1  0
 19 20  2  0
 14 21  1  0
 21 22  1  0
  9  3  1  0
 22 11  1  0
 20 15  1  0
  1 23  1  0
  1 24  1  0
  1 25  1  0
  4 26  1  0
  5 27  1  0
  8 28  1  0
 10 29  1  0
 10 30  1  0
 11 31  1  0
 12 32  1  0
 12 33  1  0
 13 34  1  0
 13 35  1  0
 16 36  1  0
 17 37  1  0
 18 38  1  0
 19 39  1  0
 21 40  1  0
 21 41  1  0
 22 42  1  0
 22 43  1  0
M  CHG  1  11   1
M  END
>  <UniqueID>  (36) 
34

>  <SMILES>  (36) 
COc1ccc(F)cc1C[NH+]1CCN(c2ccccn2)CC1

>  <Energy>  (36) 
57.76923876652938

>  <Genealogy>  (36) 
COc1ccc(F)cc1C[NH+]1CCN(c2ccccn2)CC1 (protonated)
COc1ccc(F)cc1C[NH+]1CCN(c2ccccn2)CC1 (3D coordinates assigned)
COc1ccc(F)cc1C[NH+]1CCN(c2ccccn2)CC1 (nonaromatic ring conformer: 57.76923876652938 kcal/mol)

>  <smiles>  (36) 
COc1ccc(F)cc1CN1CCN(c2ccccn2)CC1

>  <score_type>  (36) 
oracle

>  <origin>  (36) 
adg

>  <m_score__min__energy>  (36) 
-5.0099999999999998

>  <m_primary>  (36) 
energy

$$$$
36:0
     RDKit          3D

103102  0  0  0  0  0  0  0  0999 V2000
   59.1880   30.8290   49.8900 H   0  0  0  0  0  0  0  0  0  0  0  0
   58.8110   30.7380   48.9730 O   0  0  0  0  0  0  0  0  0  0  0  0
   59.4860   29.7370   48.3280 N   0  0  1  0  0  0  0  0  0  0  0  0
   60.5610   30.3660   47.5160 C   0  0  0  0  0  0  0  0  0  0  0  0
   61.3150   30.8072   48.1845 H   0  0  0  0  0  0  0  0  0  0  0  0
   61.0353   29.6029   46.8814 H   0  0  0  0  0  0  0  0  0  0  0  0
   60.1281   31.1533   46.8814 H   0  0  0  0  0  0  0  0  0  0  0  0
   60.0590   28.8160   49.3580 C   0  0  0  0  0  0  0  0  0  0  0  0
   60.8166   29.3721   49.9296 H   0  0  0  0  0  0  0  0  0  0  0  0
   59.2122   28.4758   49.9722 H   0  0  0  0  0  0  0  0  0  0  0  0
   60.7230   27.5430   48.7950 C   0  0  0  0  0  0  0  0  0  0  0  0
   60.2182   27.2502   47.8626 H   0  0  0  0  0  0  0  0  0  0  0  0
   61.7852   27.7469   48.5946 H   0  0  0  0  0  0  0  0  0  0  0  0
   60.6200   26.4900   49.7350 O   0  0  0  0  0  0  0  0  0  0  0  0
   61.3630   26.7890   50.9000 C   0  0  0  0  0  0  0  0  0  0  0  0
   62.1689   26.0502   51.0217 H   0  0  0  0  0  0  0  0  0  0  0  0
   61.8008   27.7941   50.8104 H   0  0  0  0  0  0  0  0  0  0  0  0
   60.4410   26.7400   52.1100 C   0  0  0  0  0  0  0  0  0  0  0  0
   59.7340   25.9046   51.9990 H   0  0  0  0  0  0  0  0  0  0  0  0
   61.0389   26.5946   53.0218 H   0  0  0  0  0  0  0  0  0  0  0  0
   59.7250   27.9540   52.2040 O   0  0  0  0  0  0  0  0  0  0  0  0
   60.1450   28.6660   53.3480 C   0  0  0  0  0  0  0  0  0  0  0  0
   59.2802   28.8435   54.0042 H   0  0  0  0  0  0  0  0  0  0  0  0
   60.9041   28.0753   53.8818 H   0  0  0  0  0  0  0  0  0  0  0  0
   60.7530   30.0100   52.9360 C   0  0  0  0  0  0  0  0  0  0  0  0
   60.4564   30.7701   53.6738 H   0  0  0  0  0  0  0  0  0  0  0  0
   61.8446   29.8800   52.8976 H   0  0  0  0  0  0  0  0  0  0  0  0
   60.3310   30.4370   51.6530 O   0  0  0  0  0  0  0  0  0  0  0  0
   61.2770   31.3100   51.0640 C   0  0  0  0  0  0  0  0  0  0  0  0
   62.2079   31.2906   51.6496 H   0  0  0  0  0  0  0  0  0  0  0  0
   61.4844   30.9843   50.0340 H   0  0  0  0  0  0  0  0  0  0  0  0
   60.7160   32.7340   51.0450 C   0  0  0  0  0  0  0  0  0  0  0  0
   60.9617   33.2265   51.9974 H   0  0  0  0  0  0  0  0  0  0  0  0
   61.1674   33.2686   50.1962 H   0  0  0  0  0  0  0  0  0  0  0  0
   59.3120   32.7420   50.8740 O   0  0  0  0  0  0  0  0  0  0  0  0
   58.7040   33.6840   51.7330 C   0  0  0  0  0  0  0  0  0  0  0  0
   59.3019   34.6071   51.7514 H   0  0  0  0  0  0  0  0  0  0  0  0
   57.6916   33.9189   51.3725 H   0  0  0  0  0  0  0  0  0  0  0  0
   58.6290   33.0920   53.1420 C   0  0  0  0  0  0  0  0  0  0  0  0
   59.5967   33.2423   53.6430 H   0  0  0  0  0  0  0  0  0  0  0  0
   57.8189   33.6021   53.6838 H   0  0  0  0  0  0  0  0  0  0  0  0
   58.3370   31.7090   53.1170 O   0  0  0  0  0  0  0  0  0  0  0  0
   56.9430   31.4650   53.1280 C   0  0  0  0  0  0  0  0  0  0  0  0
   56.6534   31.0513   54.1053 H   0  0  0  0  0  0  0  0  0  0  0  0
   56.4098   32.4105   52.9499 H   0  0  0  0  0  0  0  0  0  0  0  0
   56.5780   30.4700   52.0300 C   0  0  0  0  0  0  0  0  0  0  0  0
   56.1309   29.5748   52.4869 H   0  0  0  0  0  0  0  0  0  0  0  0
   55.8607   30.9447   51.3443 H   0  0  0  0  0  0  0  0  0  0  0  0
   57.7650   30.0820   51.2760 N   0  0  0  0  0  0  0  0  0  0  0  0
   58.3040   30.9480   51.0350 H   0  0  0  0  0  0  0  0  0  0  0  0
   58.3740   29.5180   51.9110 H   0  0  0  0  0  0  0  0  0  0  0  0
   58.5220   29.0750   47.4060 C   0  0  0  0  0  0  0  0  0  0  0  0
   57.5507   29.0130   47.9185 H   0  0  0  0  0  0  0  0  0  0  0  0
   58.9589   28.0947   47.1647 H   0  0  0  0  0  0  0  0  0  0  0  0
   58.3010   29.7890   46.0480 C   0  0  0  0  0  0  0  0  0  0  0  0
   59.2389   29.7286   45.4765 H   0  0  0  0  0  0  0  0  0  0  0  0
   57.9972   30.8175   46.2928 H   0  0  0  0  0  0  0  0  0  0  0  0
   57.2140   29.2320   45.2040 N   0  0  0  0  0  0  0  0  0  0  0  0
   57.3690   27.7590   45.0860 C   0  0  0  0  0  0  0  0  0  0  0  0
   58.3873   27.4861   45.4000 H   0  0  0  0  0  0  0  0  0  0  0  0
   57.1804   27.4882   44.0367 H   0  0  0  0  0  0  0  0  0  0  0  0
   56.3760   26.9950   45.9420 C   0  0  0  0  0  0  0  0  0  0  0  0
   55.4983   27.5473   46.3089 H   0  0  0  0  0  0  0  0  0  0  0  0
   56.4780   25.6970   46.2910 C   0  0  0  0  0  0  0  0  0  0  0  0
   55.8093   24.9822   45.7892 H   0  0  0  0  0  0  0  0  0  0  0  0
   57.4380   25.1500   47.3160 C   0  0  0  0  0  0  0  0  0  0  0  0
   57.6940   24.1129   47.0537 H   0  0  0  0  0  0  0  0  0  0  0  0
   56.9578   25.1861   48.3050 H   0  0  0  0  0  0  0  0  0  0  0  0
   58.6680   25.9550   47.3580 N   0  0  0  0  0  0  0  0  0  0  0  0
   59.1400   25.8590   48.2870 H   0  0  0  0  0  0  0  0  0  0  0  0
   59.6090   25.5710   46.2910 C   0  0  0  0  0  0  0  0  0  0  0  0
   60.6224   25.5195   46.7157 H   0  0  0  0  0  0  0  0  0  0  0  0
   59.5421   26.3291   45.4968 H   0  0  0  0  0  0  0  0  0  0  0  0
   59.2660   24.2100   45.6680 C   0  0  0  0  0  0  0  0  0  0  0  0
   59.0813   23.4770   46.4672 H   0  0  0  0  0  0  0  0  0  0  0  0
   58.3646   24.3085   45.0453 H   0  0  0  0  0  0  0  0  0  0  0  0
   60.1064   23.8695   45.0453 H   0  0  0  0  0  0  0  0  0  0  0  0
   56.9990   29.9440   43.9110 C   0  0  0  0  0  0  0  0  0  0  0  0
   57.4687   29.3416   43.1195 H   0  0  0  0  0  0  0  0  0  0  0  0
   55.9079   30.0556   43.8269 H   0  0  0  0  0  0  0  0  0  0  0  0
   57.5590   31.3870   43.7940 C   0  0  0  0  0  0  0  0  0  0  0  0
   58.6517   31.3401   43.9112 H   0  0  0  0  0  0  0  0  0  0  0  0
   57.2426   31.7621   42.8095 H   0  0  0  0  0  0  0  0  0  0  0  0
   57.0080   32.3830   44.8340 C   0  0  0  0  0  0  0  0  0  0  0  0
   56.1574   32.9223   44.3916 H   0  0  0  0  0  0  0  0  0  0  0  0
   56.7015   31.8091   45.7210 H   0  0  0  0  0  0  0  0  0  0  0  0
   58.0170   33.3590   45.2570 N   0  0  0  0  0  0  0  0  0  0  0  0
   58.4580   33.9860   44.5490 H   0  0  0  0  0  0  0  0  0  0  0  0
   58.4760   33.4060   46.6180 C   0  0  0  0  0  0  0  0  0  0  0  0
   57.8740   32.7250   47.4960 O   0  0  0  0  0  0  0  0  0  0  0  0
   59.6790   34.2610   47.0030 C   0  0  0  0  0  0  0  0  0  0  0  0
   59.6620   35.5750   46.1950 C   0  0  0  0  0  0  0  0  0  0  0  0
   59.6509   36.4305   46.8864 H   0  0  0  0  0  0  0  0  0  0  0  0
   60.5595   35.6274   45.5612 H   0  0  0  0  0  0  0  0  0  0  0  0
   58.7634   35.6041   45.5612 H   0  0  0  0  0  0  0  0  0  0  0  0
   60.9980   33.5150   46.7000 C   0  0  0  0  0  0  0  0  0  0  0  0
   61.4880   33.2379   47.6451 H   0  0  0  0  0  0  0  0  0  0  0  0
   60.7803   32.6063   46.1196 H   0  0  0  0  0  0  0  0  0  0  0  0
   61.6646   34.1698   46.1196 H   0  0  0  0  0  0  0  0  0  0  0  0
   59.6250   34.5780   48.5110 C   0  0  0  0  0  0  0  0  0  0  0  0
   59.7825   33.6535   49.0859 H   0  0  0  0  0  0  0  0  0  0  0  0
   60.4124   35.3042   48.7615 H   0  0  0  0  0  0  0  0  0  0  0  0
   58.6416   35.0025   48.7615 H   0  0  0  0  0  0  0  0  0  0  0  0
  1  2  1  0
  3  2  1  1
  3  4  1  0
  4  5  1  0
  4  6  1  0
  4  7  1  0
  3  8  1  0
  8  9  1  0
  8 10  1  0
  8 11  1  0
 11 12  1  0
 11 13  1  0
 11 14  1  0
 14 15  1  0
 15 16  1  0
 15 17  1  0
 15 18  1  0
 18 19  1  0
 18 20  1  0
 18 21  1  0
 21 22  1  0
 22 23  1  0
 22 24  1  0
 22 25  1  0
 25 26  1  0
 25 27  1  0
 25 28  1  0
 28 29  1  0
 29 30  1  0
 29 31  1  0
 29 32  1  0
 32 33  1  0
 32 34  1  0
 32 35  1  0
 35 36  1  0
 36 37  1  0
 36 38  1  0
 36 39  1  0
 39 40  1  0
 39 41  1  0
 39 42  1  0
 42 43  1  0
 43 44  1  0
 43 45  1  0
 43 46  1  0
 46 47  1  0
 46 48  1  0
 46 49  1  0
 49 50  1  0
 49 51  1  0
  3 52  1  0
 52 53  1  0
 52 54  1  0
 52 55  1  0
 55 56  1  0
 55 57  1  0
 55 58  1  0
 58 59  1  0
 59 60  1  0
 59 61  1  0
 59 62  1  0
 62 63  1  0
 62 64  2  0
 64 65  1  0
 64 66  1  0
 66 67  1  0
 66 68  1  0
 66 69  1  0
 69 70  1  0
 69 71  1  0
 71 72  1  0
 71 73  1  0
 71 74  1  0
 74 75  1  0
 74 76  1  0
 74 77  1  0
 58 78  1  0
 78 79  1  0
 78 80  1  0
 78 81  1  0
 81 82  1  0
 81 83  1  0
 81 84  1  0
 84 85  1  0
 84 86  1  0
 84 87  1  0
 87 88  1  0
 87 89  1  0
 89 90  2  0
 89 91  1  0
 91 92  1  0
 92 93  1  0
 92 94  1  0
 92 95  1  0
 91 96  1  0
 96 97  1  0
 96 98  1  0
 96 99  1  0
 91100  1  0
100101  1  0
100102  1  0
100103  1  0
M  CHG  1   3   1
M  END
>  <UniqueID>  (37) 
35

>  <SMILES>  (37) 
CCNC/C=C\CN(CCCNC(=O)C(C)(C)C)CC[N@@+](C)(O)CCOCCOCCOCCOCCOCCN

>  <Energy>  (37) 
99.7977892189521

>  <Genealogy>  (37) 
CCNCC=CCN(CCCNC(=O)C(C)(C)C)CC[N+](C)(O)CCOCCOCCOCCOCCOCCN (protonated)
CCNCC=CCN(CCCNC(=O)C(C)(C)C)CC[N@@+](C)(O)CCOCCOCCOCCOCCOCCN (chirality)
CCNC/C=C\CN(CCCNC(=O)C(C)(C)C)CC[N@@+](C)(O)CCOCCOCCOCCOCCOCCN (cis-trans isomerization)
CCNC/C=C\CN(CCCNC(=O)C(C)(C)C)CC[N@@+](C)(O)CCOCCOCCOCCOCCOCCN (3D coordinates assigned)
CCNC/C=C\CN(CCCNC(=O)C(C)(C)C)CC[N@@+](C)(O)CCOCCOCCOCCOCCOCCN (optimized conformer: 99.7977892189521 kcal/mol)

>  <smiles>  (37) 
CCNCC=CCN(CCCNC(=O)C(C)(C)C)CC[N+](C)([O-])CCOCCOCCOCCOCCOCCN

>  <score_type>  (37) 
oracle

>  <origin>  (37) 
adg

>  <m_score__min__energy>  (37) 
-4.8200000000000003

>  <m_primary>  (37) 
energy

$$$$
37:0
     RDKit          3D

 37 39  0  0  0  0  0  0  0  0999 V2000
   56.5850   21.5820   43.3780 C   0  0  0  0  0  0  0  0  0  0  0  0
   55.8540   22.7000   43.8710 O   0  0  0  0  0  0  0  0  0  0  0  0
   56.4310   23.9270   44.2310 C   0  0  0  0  0  0  0  0  0  0  0  0
   57.2150   24.6840   43.3390 C   0  0  0  0  0  0  0  0  0  0  0  0
   57.7670   25.9020   43.7450 C   0  0  0  0  0  0  0  0  0  0  0  0
   57.5430   26.3880   45.0430 C   0  0  0  0  0  0  0  0  0  0  0  0
   58.1340   27.6710   45.4870 C   0  0  0  0  0  0  0  0  0  0  0  0
   59.3220   27.8430   46.0770 C   0  0  0  0  0  0  0  0  0  0  0  0
   60.5290   26.6070   46.4010 Cl  0  0  0  0  0  0  0  0  0  0  0  0
   59.5170   29.2750   46.2940 C   0  0  0  0  0  0  0  0  0  0  0  0
   60.5570   29.7970   46.7750 O   0  0  0  0  0  0  0  0  0  0  0  0
   58.3940   30.0110   45.8210 N   0  0  0  0  0  0  0  0  0  0  0  0
   58.1900   31.4350   45.8340 C   0  0  0  0  0  0  0  0  0  0  0  0
   57.3730   32.0440   44.8670 C   0  0  0  0  0  0  0  0  0  0  0  0
   57.1840   33.4280   44.8730 C   0  0  0  0  0  0  0  0  0  0  0  0
   57.8000   34.2180   45.8460 C   0  0  0  0  0  0  0  0  0  0  0  0
   58.6040   33.6240   46.8300 C   0  0  0  0  0  0  0  0  0  0  0  0
   59.2950   34.4730   47.8550 C   0  0  0  0  0  0  0  0  0  0  0  0
   58.8080   32.2340   46.8100 C   0  0  0  0  0  0  0  0  0  0  0  0
   57.5310   28.9980   45.3150 C   0  0  0  0  0  0  0  0  0  0  0  0
   56.3790   29.2180   44.8520 O   0  0  0  0  0  0  0  0  0  0  0  0
   56.7710   25.6260   45.9340 C   0  0  0  0  0  0  0  0  0  0  0  0
   56.2180   24.4080   45.5270 C   0  0  0  0  0  0  0  0  0  0  0  0
   56.9698   20.9936   44.2240 H   0  0  0  0  0  0  0  0  0  0  0  0
   55.9233   20.9529   42.7646 H   0  0  0  0  0  0  0  0  0  0  0  0
   57.4267   21.9359   42.7646 H   0  0  0  0  0  0  0  0  0  0  0  0
   57.3937   24.3150   42.3183 H   0  0  0  0  0  0  0  0  0  0  0  0
   58.3815   26.4842   43.0425 H   0  0  0  0  0  0  0  0  0  0  0  0
   56.8795   31.4277   44.1010 H   0  0  0  0  0  0  0  0  0  0  0  0
   56.5475   33.8974   44.1084 H   0  0  0  0  0  0  0  0  0  0  0  0
   57.6544   35.3083   45.8407 H   0  0  0  0  0  0  0  0  0  0  0  0
   59.0165   34.1308   48.8626 H   0  0  0  0  0  0  0  0  0  0  0  0
   60.3843   34.3885   47.7271 H   0  0  0  0  0  0  0  0  0  0  0  0
   58.9911   35.5224   47.7271 H   0  0  0  0  0  0  0  0  0  0  0  0
   59.4574   31.7674   47.5653 H   0  0  0  0  0  0  0  0  0  0  0  0
   56.6001   25.9892   46.9582 H   0  0  0  0  0  0  0  0  0  0  0  0
   55.6099   23.8227   46.2325 H   0  0  0  0  0  0  0  0  0  0  0  0
  1  2  1  0
  2  3  1  0
  3  4  2  0
  4  5  1  0
  5  6  2  0
  6  7  1  0
  7  8  2  0
  8  9  1  0
  8 10  1  0
 10 11  2  0
 10 12  1  0
 12 13  1  0
 13 14  2  0
 14 15  1  0
 15 16  2  0
 16 17  1  0
 17 18  1  0
 17 19  2  0
 12 20  1  0
 20 21  2  0
  6 22  1  0
 22 23  2  0
 23  3  1  0
 20  7  1  0
 19 13  1  0
  1 24  1  0
  1 25  1  0
  1 26  1  0
  4 27  1  0
  5 28  1  0
 14 29  1  0
 15 30  1  0
 16 31  1  0
 18 32  1  0
 18 33  1  0
 18 34  1  0
 19 35  1  0
 22 36  1  0
 23 37  1  0
M  END
>  <UniqueID>  (38) 
36

>  <SMILES>  (38) 
COc1ccc(C2=C(Cl)C(=O)N(c3cccc(C)c3)C2=O)cc1

>  <Energy>  (38) 
74.76821513444595

>  <Genealogy>  (38) 
COc1ccc(C2=C(Cl)C(=O)N(c3cccc(C)c3)C2=O)cc1 (3D coordinates assigned)
COc1ccc(C2=C(Cl)C(=O)N(c3cccc(C)c3)C2=O)cc1 (nonaromatic ring conformer: 74.76821513444595 kcal/mol)

>  <smiles>  (38) 
COc1ccc(C2=C(Cl)C(=O)N(c3cccc(C)c3)C2=O)cc1

>  <score_type>  (38) 
oracle

>  <origin>  (38) 
adg

>  <m_score__min__energy>  (38) 
-7.7999999999999998

>  <m_primary>  (38) 
energy

$$$$
38:0
     RDKit          3D

 33 33  0  0  0  0  0  0  0  0999 V2000
   59.8110   27.1270   47.2890 C   0  0  0  0  0  0  0  0  0  0  0  0
   59.0870   28.4850   47.3040 C   0  0  0  0  0  0  0  0  0  0  0  0
   59.3410   29.3740   46.1310 N   0  0  0  0  0  0  0  0  0  0  0  0
   60.2940   30.4910   46.3680 C   0  0  0  0  0  0  0  0  0  0  0  0
   59.8430   31.4040   47.5140 C   0  0  0  0  0  0  0  0  0  0  0  0
   59.6430   28.6290   44.8800 C   0  0  0  0  0  0  0  0  0  0  0  0
   58.4090   28.0810   44.1430 C   0  0  0  0  0  0  0  0  0  0  0  0
   57.2280   28.3310   44.9020 O   0  0  0  0  0  0  0  0  0  0  0  0
   56.4000   29.4400   44.6940 C   0  0  0  0  0  0  0  0  0  0  0  0
   55.1470   29.3410   44.8070 O   0  0  0  0  0  0  0  0  0  0  0  0
   57.0050   30.7300   44.3470 C   0  0  0  0  0  0  0  0  0  0  0  0
   57.2510   31.1990   43.0700 C   0  0  0  0  0  0  0  0  0  0  0  0
   57.8230   32.4420   43.2330 C   0  0  0  0  0  0  0  0  0  0  0  0
   57.8890   32.6500   44.5960 C   0  0  0  0  0  0  0  0  0  0  0  0
   58.5910   34.2040   45.4480 Br  0  0  0  0  0  0  0  0  0  0  0  0
   57.3960   31.6150   45.2360 O   0  0  0  0  0  0  0  0  0  0  0  0
   59.9882   26.7945   48.3225 H   0  0  0  0  0  0  0  0  0  0  0  0
   59.1886   26.3854   46.7669 H   0  0  0  0  0  0  0  0  0  0  0  0
   60.7737   27.2305   46.7669 H   0  0  0  0  0  0  0  0  0  0  0  0
   58.0055   28.2896   47.3505 H   0  0  0  0  0  0  0  0  0  0  0  0
   59.4843   29.0239   48.1768 H   0  0  0  0  0  0  0  0  0  0  0  0
   58.4170   29.8260   45.9260 H   0  0  0  0  0  0  0  0  0  0  0  0
   61.2789   30.0694   46.6176 H   0  0  0  0  0  0  0  0  0  0  0  0
   60.3386   31.0970   45.4511 H   0  0  0  0  0  0  0  0  0  0  0  0
   60.0785   30.9273   48.4770 H   0  0  0  0  0  0  0  0  0  0  0  0
   60.3687   32.3677   47.4437 H   0  0  0  0  0  0  0  0  0  0  0  0
   58.7582   31.5721   47.4437 H   0  0  0  0  0  0  0  0  0  0  0  0
   60.1761   29.3074   44.1977 H   0  0  0  0  0  0  0  0  0  0  0  0
   60.2409   27.7546   45.1764 H   0  0  0  0  0  0  0  0  0  0  0  0
   58.3223   28.5745   43.1637 H   0  0  0  0  0  0  0  0  0  0  0  0
   58.5251   26.9954   44.0088 H   0  0  0  0  0  0  0  0  0  0  0  0
   57.0350   30.6864   42.1210 H   0  0  0  0  0  0  0  0  0  0  0  0
   58.1580   33.1272   42.4404 H   0  0  0  0  0  0  0  0  0  0  0  0
  1  2  1  0
  2  3  1  0
  3  4  1  0
  4  5  1  0
  3  6  1  0
  6  7  1  0
  7  8  1  0
  8  9  1  0
  9 10  2  0
  9 11  1  0
 11 12  2  0
 12 13  1  0
 13 14  2  0
 14 15  1  0
 14 16  1  0
 16 11  1  0
  1 17  1  0
  1 18  1  0
  1 19  1  0
  2 20  1  0
  2 21  1  0
  3 22  1  0
  4 23  1  0
  4 24  1  0
  5 25  1  0
  5 26  1  0
  5 27  1  0
  6 28  1  0
  6 29  1  0
  7 30  1  0
  7 31  1  0
 12 32  1  0
 13 33  1  0
M  CHG  1   3   1
M  END
>  <UniqueID>  (39) 
37

>  <SMILES>  (39) 
CC[NH+](CC)CCOC(=O)c1ccc(Br)o1

>  <Energy>  (39) 
60.54160927690647

>  <Genealogy>  (39) 
CC[NH+](CC)CCOC(=O)c1ccc(Br)o1 (protonated)
CC[NH+](CC)CCOC(=O)c1ccc(Br)o1 (3D coordinates assigned)
CC[NH+](CC)CCOC(=O)c1ccc(Br)o1 (optimized conformer: 60.54160927690647 kcal/mol)

>  <smiles>  (39) 
CCN(CC)CCOC(=O)c1ccc(Br)o1

>  <score_type>  (39) 
oracle

>  <origin>  (39) 
adg

>  <m_score__min__energy>  (39) 
-3.5299999999999998

>  <m_primary>  (39) 
energy

$$$$
39:0
     RDKit          3D

 34 36  0  0  0  0  0  0  0  0999 V2000
   62.7050   33.4530   46.7870 C   0  0  0  0  0  0  0  0  0  0  0  0
   61.3760   33.2660   47.2630 O   0  0  0  0  0  0  0  0  0  0  0  0
   60.2190   33.3340   46.4680 C   0  0  0  0  0  0  0  0  0  0  0  0
   59.8240   34.5460   45.8690 C   0  0  0  0  0  0  0  0  0  0  0  0
   58.6780   34.6090   45.0820 C   0  0  0  0  0  0  0  0  0  0  0  0
   57.9070   33.4690   44.8780 C   0  0  0  0  0  0  0  0  0  0  0  0
   58.2740   32.2440   45.4610 C   0  0  0  0  0  0  0  0  0  0  0  0
   59.4360   32.1670   46.2630 C   0  0  0  0  0  0  0  0  0  0  0  0
   59.8100   30.8580   46.8740 C   0  0  0  0  0  0  0  0  0  0  0  0
   60.8440   30.7790   47.5900 O   0  0  0  0  0  0  0  0  0  0  0  0
   58.9730   29.6430   46.6480 C   0  0  0  0  0  0  0  0  0  0  0  0
   59.3130   28.3900   47.2210 C   0  0  0  0  0  0  0  0  0  0  0  0
   60.4630   28.2830   48.0230 O   0  0  0  0  0  0  0  0  0  0  0  0
   60.4670   28.2470   49.4470 C   0  0  0  0  0  0  0  0  0  0  0  0
   58.4950   27.2700   46.9800 C   0  0  0  0  0  0  0  0  0  0  0  0
   57.3490   27.3760   46.1820 C   0  0  0  0  0  0  0  0  0  0  0  0
   56.4880   26.2060   45.9250 C   0  0  0  0  0  0  0  0  0  0  0  0
   55.2330   26.2920   45.9940 O   0  0  0  0  0  0  0  0  0  0  0  0
   57.0170   28.6110   45.6190 C   0  0  0  0  0  0  0  0  0  0  0  0
   57.8160   29.7450   45.8430 C   0  0  0  0  0  0  0  0  0  0  0  0
   57.4430   31.0410   45.2350 C   0  0  0  0  0  0  0  0  0  0  0  0
   56.4070   31.1220   44.5170 O   0  0  0  0  0  0  0  0  0  0  0  0
   63.3905   33.5495   47.6419 H   0  0  0  0  0  0  0  0  0  0  0  0
   63.0007   32.5876   46.1757 H   0  0  0  0  0  0  0  0  0  0  0  0
   62.7504   34.3664   46.1757 H   0  0  0  0  0  0  0  0  0  0  0  0
   60.4277   35.4523   46.0249 H   0  0  0  0  0  0  0  0  0  0  0  0
   58.3811   35.5622   44.6202 H   0  0  0  0  0  0  0  0  0  0  0  0
   57.0023   33.5270   44.2550 H   0  0  0  0  0  0  0  0  0  0  0  0
   60.3536   29.2682   49.8399 H   0  0  0  0  0  0  0  0  0  0  0  0
   59.6326   27.6234   49.8004 H   0  0  0  0  0  0  0  0  0  0  0  0
   61.4179   27.8216   49.8004 H   0  0  0  0  0  0  0  0  0  0  0  0
   58.7593   26.2990   47.4242 H   0  0  0  0  0  0  0  0  0  0  0  0
   56.9500   25.2412   45.6685 H   0  0  0  0  0  0  0  0  0  0  0  0
   56.1175   28.6967   44.9916 H   0  0  0  0  0  0  0  0  0  0  0  0
  1  2  1  0
  2  3  1  0
  3  4  2  0
  4  5  1  0
  5  6  2  0
  6  7  1  0
  7  8  2  0
  8  9  1  0
  9 10  2  0
  9 11  1  0
 11 12  2  0
 12 13  1  0
 13 14  1  0
 12 15  1  0
 15 16  2  0
 16 17  1  0
 17 18  2  0
 16 19  1  0
 19 20  2  0
 20 21  1  0
 21 22  2  0
  8  3  1  0
 20 11  1  0
 21  7  1  0
  1 23  1  0
  1 24  1  0
  1 25  1  0
  4 26  1  0
  5 27  1  0
  6 28  1  0
 14 29  1  0
 14 30  1  0
 14 31  1  0
 15 32  1  0
 17 33  1  0
 19 34  1  0
M  END
>  <UniqueID>  (40) 
38

>  <SMILES>  (40) 
COc1cccc2c1C(=O)c1c(OC)cc(C=O)cc1C2=O

>  <Energy>  (40) 
44.474066941695945

>  <Genealogy>  (40) 
COc1cccc2c1C(=O)c1c(OC)cc(C=O)cc1C2=O (3D coordinates assigned)
COc1cccc2c1C(=O)c1c(OC)cc(C=O)cc1C2=O (nonaromatic ring conformer: 44.474066941695945 kcal/mol)

>  <smiles>  (40) 
COc1cccc2c1C(=O)c1c(OC)cc(C=O)cc1C2=O

>  <score_type>  (40) 
oracle

>  <origin>  (40) 
adg

>  <m_score__min__energy>  (40) 
-7.5700000000000003

>  <m_primary>  (40) 
energy

$$$$
40:0
     RDKit          3D

 46 49  0  0  0  0  0  0  0  0999 V2000
   57.0170   30.8640   43.1240 Cl  0  0  0  0  0  0  0  0  0  0  0  0
   57.6280   31.9220   44.3880 C   0  0  0  0  0  0  0  0  0  0  0  0
   57.7840   33.2850   44.1150 C   0  0  0  0  0  0  0  0  0  0  0  0
   58.2690   34.1510   45.1000 C   0  0  0  0  0  0  0  0  0  0  0  0
   58.6020   33.6600   46.3710 C   0  0  0  0  0  0  0  0  0  0  0  0
   59.1340   34.5990   47.4230 C   0  0  0  0  0  0  0  0  0  0  0  0
   60.6080   34.5260   47.4820 N   0  0  0  0  0  0  0  0  0  0  0  0
   61.0590   34.2570   48.8670 C   0  0  0  0  0  0  0  0  0  0  0  0
   62.4940   33.7120   48.8860 C   0  0  0  0  0  0  0  0  0  0  0  0
   62.6130   32.4120   48.1680 N   0  0  0  0  0  0  0  0  0  0  0  0
   62.6080   31.2800   49.1270 C   0  0  0  0  0  0  0  0  0  0  0  0
   61.2110   30.9230   49.5780 C   0  0  0  0  0  0  0  0  0  0  0  0
   60.5400   29.8020   49.0210 C   0  0  0  0  0  0  0  0  0  0  0  0
   59.2500   29.4530   49.4580 C   0  0  0  0  0  0  0  0  0  0  0  0
   58.6640   30.2360   50.4480 C   0  0  0  0  0  0  0  0  0  0  0  0
   59.3000   31.3060   50.9870 C   0  0  0  0  0  0  0  0  0  0  0  0
   60.5770   31.6880   50.5840 C   0  0  0  0  0  0  0  0  0  0  0  0
   58.4900   31.8910   51.9400 O   0  0  0  0  0  0  0  0  0  0  0  0
   57.2680   31.1420   52.0040 C   0  0  0  0  0  0  0  0  0  0  0  0
   57.4220   30.0950   51.0350 O   0  0  0  0  0  0  0  0  0  0  0  0
   61.5650   32.2330   47.1250 C   0  0  0  0  0  0  0  0  0  0  0  0
   61.1630   33.5720   46.4860 C   0  0  0  0  0  0  0  0  0  0  0  0
   58.4440   32.2920   46.6440 C   0  0  0  0  0  0  0  0  0  0  0  0
   57.9600   31.4230   45.6600 C   0  0  0  0  0  0  0  0  0  0  0  0
   57.7810   29.7160   46.0430 Cl  0  0  0  0  0  0  0  0  0  0  0  0
   57.5239   33.6775   43.1208 H   0  0  0  0  0  0  0  0  0  0  0  0
   58.3898   35.2214   44.8772 H   0  0  0  0  0  0  0  0  0  0  0  0
   58.8318   35.6276   47.1766 H   0  0  0  0  0  0  0  0  0  0  0  0
   58.7234   34.3078   48.4011 H   0  0  0  0  0  0  0  0  0  0  0  0
   61.0225   35.1924   49.4446 H   0  0  0  0  0  0  0  0  0  0  0  0
   60.3931   33.5020   49.3104 H   0  0  0  0  0  0  0  0  0  0  0  0
   63.1575   34.4449   48.4036 H   0  0  0  0  0  0  0  0  0  0  0  0
   62.7773   33.5447   49.9356 H   0  0  0  0  0  0  0  0  0  0  0  0
   63.5430   32.4150   47.6860 H   0  0  0  0  0  0  0  0  0  0  0  0
   63.0592   30.4020   48.6416 H   0  0  0  0  0  0  0  0  0  0  0  0
   63.1826   31.5851   50.0140 H   0  0  0  0  0  0  0  0  0  0  0  0
   61.0333   29.2023   48.2419 H   0  0  0  0  0  0  0  0  0  0  0  0
   58.7207   28.5884   49.0309 H   0  0  0  0  0  0  0  0  0  0  0  0
   61.0771   32.5581   51.0344 H   0  0  0  0  0  0  0  0  0  0  0  0
   57.1257   30.7199   53.0098 H   0  0  0  0  0  0  0  0  0  0  0  0
   56.3881   31.7691   51.7978 H   0  0  0  0  0  0  0  0  0  0  0  0
   61.9529   31.5662   46.3408 H   0  0  0  0  0  0  0  0  0  0  0  0
   60.6743   31.8014   47.6050 H   0  0  0  0  0  0  0  0  0  0  0  0
   62.0516   34.0232   46.0204 H   0  0  0  0  0  0  0  0  0  0  0  0
   60.3799   33.3686   45.7408 H   0  0  0  0  0  0  0  0  0  0  0  0
   58.7026   31.9004   47.6389 H   0  0  0  0  0  0  0  0  0  0  0  0
  1  2  1  0
  2  3  2  0
  3  4  1  0
  4  5  2  0
  5  6  1  0
  6  7  1  0
  7  8  1  0
  8  9  1  0
  9 10  1  0
 10 11  1  0
 11 12  1  0
 12 13  2  0
 13 14  1  0
 14 15  2  0
 15 16  1  0
 16 17  2  0
 16 18  1  0
 18 19  1  0
 19 20  1  0
 10 21  1  0
 21 22  1  0
  5 23  1  0
 23 24  2  0
 24 25  1  0
 24  2  1  0
 22  7  1  0
 17 12  1  0
 20 15  1  0
  3 26  1  0
  4 27  1  0
  6 28  1  0
  6 29  1  0
  8 30  1  0
  8 31  1  0
  9 32  1  0
  9 33  1  0
 10 34  1  0
 11 35  1  0
 11 36  1  0
 13 37  1  0
 14 38  1  0
 17 39  1  0
 19 40  1  0
 19 41  1  0
 21 42  1  0
 21 43  1  0
 22 44  1  0
 22 45  1  0
 23 46  1  0
M  CHG  1  10   1
M  END
>  <UniqueID>  (41) 
39

>  <SMILES>  (41) 
Clc1ccc(CN2CC[NH+](Cc3ccc4c(c3)OCO4)CC2)cc1Cl

>  <Energy>  (41) 
90.88215439804306

>  <Genealogy>  (41) 
Clc1ccc(CN2CC[NH+](Cc3ccc4c(c3)OCO4)CC2)cc1Cl (protonated)
Clc1ccc(CN2CC[NH+](Cc3ccc4c(c3)OCO4)CC2)cc1Cl (3D coordinates assigned)
Clc1ccc(CN2CC[NH+](Cc3ccc4c(c3)OCO4)CC2)cc1Cl (nonaromatic ring conformer: 90.88215439804306 kcal/mol)

>  <smiles>  (41) 
Clc1ccc(CN2CCN(Cc3ccc4c(c3)OCO4)CC2)cc1Cl

>  <score_type>  (41) 
oracle

>  <origin>  (41) 
adg

>  <m_score__min__energy>  (41) 
-7.2000000000000002

>  <m_primary>  (41) 
energy

$$$$
41:0
     RDKit          3D

 50 52  0  0  0  0  0  0  0  0999 V2000
   60.5010   33.8380   49.9500 C   0  0  0  0  0  0  0  0  0  0  0  0
   61.4540   33.6610   48.8020 C   0  0  0  0  0  0  0  0  0  0  0  0
   62.7790   33.2730   49.0670 C   0  0  0  0  0  0  0  0  0  0  0  0
   63.6960   33.1170   48.0250 C   0  0  0  0  0  0  0  0  0  0  0  0
   63.2990   33.3400   46.7070 C   0  0  0  0  0  0  0  0  0  0  0  0
   61.9820   33.7090   46.4250 C   0  0  0  0  0  0  0  0  0  0  0  0
   61.0460   33.8570   47.4610 C   0  0  0  0  0  0  0  0  0  0  0  0
   59.6890   34.2040   47.1340 N   0  0  0  0  0  0  0  0  0  0  0  0
   59.4090   35.2030   46.1010 C   0  0  0  0  0  0  0  0  0  0  0  0
   58.6050   34.5820   44.9380 C   0  0  0  0  0  0  0  0  0  0  0  0
   57.8250   33.3720   45.3150 N   0  0  0  0  0  0  0  0  0  0  0  0
   58.5190   32.1110   44.9450 C   0  0  0  0  0  0  0  0  0  0  0  0
   57.5780   31.0510   44.3330 C   0  0  1  0  0  0  0  0  0  0  0  0
   57.6370   31.1030   42.9310 O   0  0  0  0  0  0  0  0  0  0  0  0
   57.8950   29.6360   44.8370 C   0  0  0  0  0  0  0  0  0  0  0  0
   59.0630   29.1620   44.1980 O   0  0  0  0  0  0  0  0  0  0  0  0
   59.8190   28.3580   45.0820 C   0  0  0  0  0  0  0  0  0  0  0  0
   59.9550   29.0290   46.4140 C   0  0  0  0  0  0  0  0  0  0  0  0
   60.8050   30.0880   46.7050 C   0  0  0  0  0  0  0  0  0  0  0  0
   60.7470   30.4840   48.0470 C   0  0  0  0  0  0  0  0  0  0  0  0
   59.8620   29.7350   48.8130 C   0  0  0  0  0  0  0  0  0  0  0  0
   59.1500   28.5800   47.8190 S   0  0  0  0  0  0  0  0  0  0  0  0
   57.3830   33.4240   46.7270 C   0  0  0  0  0  0  0  0  0  0  0  0
   58.5720   33.4400   47.7020 C   0  0  0  0  0  0  0  0  0  0  0  0
   61.0475   33.7365   50.8992 H   0  0  0  0  0  0  0  0  0  0  0  0
   60.0429   34.8366   49.8956 H   0  0  0  0  0  0  0  0  0  0  0  0
   59.7149   33.0705   49.8956 H   0  0  0  0  0  0  0  0  0  0  0  0
   63.0964   33.0906   50.1043 H   0  0  0  0  0  0  0  0  0  0  0  0
   64.7317   32.8181   48.2442 H   0  0  0  0  0  0  0  0  0  0  0  0
   64.0244   33.2251   45.8881 H   0  0  0  0  0  0  0  0  0  0  0  0
   61.6756   33.8850   45.3833 H   0  0  0  0  0  0  0  0  0  0  0  0
   58.8266   36.0248   46.5431 H   0  0  0  0  0  0  0  0  0  0  0  0
   60.3648   35.5785   45.7067 H   0  0  0  0  0  0  0  0  0  0  0  0
   57.9040   35.3404   44.5592 H   0  0  0  0  0  0  0  0  0  0  0  0
   59.3372   34.2637   44.1813 H   0  0  0  0  0  0  0  0  0  0  0  0
   59.3032   32.3470   44.2106 H   0  0  0  0  0  0  0  0  0  0  0  0
   58.9319   31.6835   45.8706 H   0  0  0  0  0  0  0  0  0  0  0  0
   56.5545   31.2873   44.6595 H   0  0  0  0  0  0  0  0  0  0  0  0
   58.1390   30.3000   42.6310 H   0  0  0  0  0  0  0  0  0  0  0  0
   58.0561   29.6612   45.9249 H   0  0  0  0  0  0  0  0  0  0  0  0
   57.0528   28.9665   44.6079 H   0  0  0  0  0  0  0  0  0  0  0  0
   59.3128   27.3903   45.2140 H   0  0  0  0  0  0  0  0  0  0  0  0
   60.8217   28.2061   44.6558 H   0  0  0  0  0  0  0  0  0  0  0  0
   61.4564   30.5662   45.9587 H   0  0  0  0  0  0  0  0  0  0  0  0
   61.3460   31.3107   48.4565 H   0  0  0  0  0  0  0  0  0  0  0  0
   59.6614   29.8737   49.8856 H   0  0  0  0  0  0  0  0  0  0  0  0
   56.7865   34.3356   46.8792 H   0  0  0  0  0  0  0  0  0  0  0  0
   56.7884   32.5212   46.9306 H   0  0  0  0  0  0  0  0  0  0  0  0
   58.2586   33.9053   48.6482 H   0  0  0  0  0  0  0  0  0  0  0  0
   58.9012   32.4057   47.8803 H   0  0  0  0  0  0  0  0  0  0  0  0
  1  2  1  0
  2  3  2  0
  3  4  1  0
  4  5  2  0
  5  6  1  0
  6  7  2  0
  7  8  1  0
  8  9  1  0
  9 10  1  0
 10 11  1  0
 11 12  1  0
 12 13  1  0
 13 14  1  0
 13 15  1  0
 15 16  1  0
 16 17  1  0
 17 18  1  0
 18 19  2  0
 19 20  1  0
 20 21  2  0
 21 22  1  0
 11 23  1  0
 23 24  1  0
  7  2  1  0
 24  8  1  0
 22 18  1  0
  1 25  1  0
  1 26  1  0
  1 27  1  0
  3 28  1  0
  4 29  1  0
  5 30  1  0
  6 31  1  0
  9 32  1  0
  9 33  1  0
 10 34  1  0
 10 35  1  0
 12 36  1  0
 12 37  1  0
 13 38  1  6
 14 39  1  0
 15 40  1  0
 15 41  1  0
 17 42  1  0
 17 43  1  0
 19 44  1  0
 20 45  1  0
 21 46  1  0
 23 47  1  0
 23 48  1  0
 24 49  1  0
 24 50  1  0
M  END
>  <UniqueID>  (42) 
40

>  <SMILES>  (42) 
Cc1ccccc1N1CCN(C[C@@H](O)COCc2cccs2)CC1

>  <Energy>  (42) 
91.62188093280282

>  <Genealogy>  (42) 
Cc1ccccc1N1CCN(C[C@@H](O)COCc2cccs2)CC1 (chirality)
Cc1ccccc1N1CCN(C[C@@H](O)COCc2cccs2)CC1 (3D coordinates assigned)
Cc1ccccc1N1CCN(C[C@@H](O)COCc2cccs2)CC1 (nonaromatic ring conformer: 91.62188093280282 kcal/mol)

>  <smiles>  (42) 
Cc1ccccc1N1CCN(CC(O)COCc2cccs2)CC1

>  <score_type>  (42) 
oracle

>  <origin>  (42) 
adg

>  <m_score__min__energy>  (42) 
-8.0500000000000007

>  <m_primary>  (42) 
energy

$$$$
42:0
     RDKit          3D

 46 49  0  0  1  0  0  0  0  0999 V2000
   57.0110   24.4740   43.2350 C   0  0  0  0  0  0  0  0  0  0  0  0
   56.6470   24.4230   44.3930 C   0  0  0  0  0  0  0  0  0  0  0  0
   56.2060   24.3870   45.7870 C   0  0  0  0  0  0  0  0  0  0  0  0
   55.5820   25.6780   46.1160 N   0  0  0  0  0  0  0  0  0  0  0  0
   56.4340   26.8100   46.0490 C   0  0  0  0  0  0  0  0  0  0  0  0
   57.6500   26.7150   46.7120 C   0  0  0  0  0  0  0  0  0  0  0  0
   58.5000   27.8020   46.6640 C   0  0  0  0  0  0  0  0  0  0  0  0
   59.6300   27.7220   47.2790 N   0  0  0  0  0  0  0  0  0  0  0  0
   60.3620   28.8500   47.7520 C   0  0  0  0  0  0  0  0  0  0  0  0
   60.6710   28.9090   49.1190 C   0  0  0  0  0  0  0  0  0  0  0  0
   61.3880   29.9920   49.6320 C   0  0  0  0  0  0  0  0  0  0  0  0
   61.7800   30.9930   48.7680 C   0  0  0  0  0  0  0  0  0  0  0  0
   61.4450   30.8810   47.4180 C   0  0  0  0  0  0  0  0  0  0  0  0
   60.7560   29.8380   46.9290 N   0  0  0  0  0  0  0  0  0  0  0  0
   58.1370   28.9220   45.9790 N   0  0  0  0  0  0  0  0  0  0  0  0
   56.9450   28.9530   45.3540 C   0  0  0  0  0  0  0  0  0  0  0  0
   56.6420   30.0310   44.7180 N   0  0  0  0  0  0  0  0  0  0  0  0
   57.3300   31.2640   44.8920 C   0  0  0  0  0  0  0  0  0  0  0  0
   57.5600   32.0060   43.7310 C   0  0  0  0  0  0  0  0  0  0  0  0
   58.2160   33.2110   43.7740 C   0  0  0  0  0  0  0  0  0  0  0  0
   58.6380   33.6610   45.0100 C   0  0  0  0  0  0  0  0  0  0  0  0
   59.3000   34.8630   45.1090 C   0  0  0  0  0  0  0  0  0  0  0  0
   59.7590   35.3990   46.2760 C   0  0  0  0  0  0  0  0  0  0  0  0
   59.5390   34.6720   47.4520 C   0  0  0  0  0  0  0  0  0  0  0  0
   58.8790   33.4710   47.3620 C   0  0  0  0  0  0  0  0  0  0  0  0
   58.4180   32.9350   46.1780 C   0  0  0  0  0  0  0  0  0  0  0  0
   57.7580   31.7270   46.1180 C   0  0  0  0  0  0  0  0  0  0  0  0
   56.0750   27.9260   45.3670 N   0  0  0  0  0  0  0  0  0  0  0  0
   57.3406   24.5202   42.1865 H   0  0  0  0  0  0  0  0  0  0  0  0
   55.4748   23.5766   45.9234 H   0  0  0  0  0  0  0  0  0  0  0  0
   57.0661   24.2062   46.4484 H   0  0  0  0  0  0  0  0  0  0  0  0
   54.5710   25.7260   46.3790 H   0  0  0  0  0  0  0  0  0  0  0  0
   57.9278   25.8018   47.2588 H   0  0  0  0  0  0  0  0  0  0  0  0
   60.3473   28.0992   49.7894 H   0  0  0  0  0  0  0  0  0  0  0  0
   61.6349   30.0456   50.7026 H   0  0  0  0  0  0  0  0  0  0  0  0
   62.3453   31.8621   49.1356 H   0  0  0  0  0  0  0  0  0  0  0  0
   61.7577   31.6784   46.7278 H   0  0  0  0  0  0  0  0  0  0  0  0
   58.8180   29.7100   45.9760 H   0  0  0  0  0  0  0  0  0  0  0  0
   57.2087   31.6172   42.7638 H   0  0  0  0  0  0  0  0  0  0  0  0
   58.3985   33.7954   42.8601 H   0  0  0  0  0  0  0  0  0  0  0  0
   59.4709   35.4311   44.1827 H   0  0  0  0  0  0  0  0  0  0  0  0
   60.2825   36.3663   46.2926 H   0  0  0  0  0  0  0  0  0  0  0  0
   59.8861   35.0532   48.4237 H   0  0  0  0  0  0  0  0  0  0  0  0
   58.7081   32.9034   48.2886 H   0  0  0  0  0  0  0  0  0  0  0  0
   57.5759   31.1425   47.0319 H   0  0  0  0  0  0  0  0  0  0  0  0
   55.1600   27.9910   44.8700 H   0  0  0  0  0  0  0  0  0  0  0  0
  1  2  3  0
  2  3  1  0
  3  4  1  0
  4  5  1  0
  5  6  2  0
  6  7  1  0
  7  8  2  0
  8  9  1  0
  9 10  2  0
 10 11  1  0
 11 12  2  0
 12 13  1  0
 13 14  2  0
  7 15  1  0
 15 16  1  0
 16 17  2  0
 17 18  1  0
 18 19  2  0
 19 20  1  0
 20 21  2  0
 21 22  1  0
 22 23  2  0
 23 24  1  0
 24 25  2  0
 25 26  1  0
 26 27  2  0
 16 28  1  0
 28  5  1  0
 14  9  1  0
 27 18  1  0
 26 21  1  0
  1 29  1  0
  3 30  1  0
  3 31  1  0
  4 32  1  0
  6 33  1  0
 10 34  1  0
 11 35  1  0
 12 36  1  0
 13 37  1  0
 15 38  1  0
 19 39  1  0
 20 40  1  0
 22 41  1  0
 23 42  1  0
 24 43  1  0
 25 44  1  0
 27 45  1  0
 28 46  1  0
M  END
>  <smiles>  (43) 
C#CCNc1cc(=Nc2ccccn2)[nH]c(=Nc2ccc3ccccc3c2)[nH]1

>  <score_type>  (43) 
oracle

>  <origin>  (43) 
adg

>  <m_score__min__energy>  (43) 
-8.8100000000000005

>  <m_primary>  (43) 
energy

$$$$
43:0
     RDKit          3D

 36 38  0  0  0  0  0  0  0  0999 V2000
   59.2780   30.2350   48.7250 C   0  0  0  0  0  0  0  0  0  0  0  0
   58.5170   31.0830   47.8700 O   0  0  0  0  0  0  0  0  0  0  0  0
   58.9020   32.3770   47.4880 C   0  0  0  0  0  0  0  0  0  0  0  0
   59.8670   33.1130   48.2050 C   0  0  0  0  0  0  0  0  0  0  0  0
   60.2300   34.3940   47.7870 C   0  0  0  0  0  0  0  0  0  0  0  0
   59.6310   34.9590   46.6610 C   0  0  0  0  0  0  0  0  0  0  0  0
   58.6700   34.2420   45.9460 C   0  0  0  0  0  0  0  0  0  0  0  0
   58.3090   32.9380   46.3440 C   0  0  0  0  0  0  0  0  0  0  0  0
   57.3700   32.1640   45.6400 O   0  0  0  0  0  0  0  0  0  0  0  0
   57.4490   31.7840   44.2640 C   0  0  0  0  0  0  0  0  0  0  0  0
   58.3240   30.5390   44.0810 C   0  0  0  0  0  0  0  0  0  0  0  0
   57.7650   29.3740   44.7770 N   0  0  0  0  0  0  0  0  0  0  0  0
   56.4670   28.9650   44.8420 C   0  0  0  0  0  0  0  0  0  0  0  0
   55.2260   29.7110   44.0760 S   0  0  0  0  0  0  0  0  0  0  0  0
   56.2780   27.8700   45.6220 N   0  0  0  0  0  0  0  0  0  0  0  0
   57.5210   27.5930   46.0550 C   0  0  0  0  0  0  0  0  0  0  0  0
   57.9100   26.5700   46.9160 C   0  0  0  0  0  0  0  0  0  0  0  0
   59.2720   26.4820   47.2570 C   0  0  0  0  0  0  0  0  0  0  0  0
   60.2020   27.4090   46.7350 C   0  0  0  0  0  0  0  0  0  0  0  0
   59.7780   28.4330   45.8680 C   0  0  0  0  0  0  0  0  0  0  0  0
   58.4190   28.4890   45.5490 C   0  0  0  0  0  0  0  0  0  0  0  0
   59.0581   30.4800   49.7746 H   0  0  0  0  0  0  0  0  0  0  0  0
   59.0133   29.1852   48.5303 H   0  0  0  0  0  0  0  0  0  0  0  0
   60.3502   30.3850   48.5303 H   0  0  0  0  0  0  0  0  0  0  0  0
   60.3363   32.6754   49.0985 H   0  0  0  0  0  0  0  0  0  0  0  0
   60.9899   34.9593   48.3465 H   0  0  0  0  0  0  0  0  0  0  0  0
   59.9162   35.9705   46.3362 H   0  0  0  0  0  0  0  0  0  0  0  0
   58.1912   34.6971   45.0664 H   0  0  0  0  0  0  0  0  0  0  0  0
   56.4362   31.5682   43.8929 H   0  0  0  0  0  0  0  0  0  0  0  0
   57.9011   32.6129   43.6996 H   0  0  0  0  0  0  0  0  0  0  0  0
   58.3986   30.3107   43.0075 H   0  0  0  0  0  0  0  0  0  0  0  0
   59.3147   30.7509   44.5094 H   0  0  0  0  0  0  0  0  0  0  0  0
   57.1766   25.8545   47.3162 H   0  0  0  0  0  0  0  0  0  0  0  0
   59.6153   25.6863   47.9345 H   0  0  0  0  0  0  0  0  0  0  0  0
   61.2646   27.3296   47.0082 H   0  0  0  0  0  0  0  0  0  0  0  0
   60.4907   29.1629   45.4564 H   0  0  0  0  0  0  0  0  0  0  0  0
  1  2  1  0
  2  3  1  0
  3  4  2  0
  4  5  1  0
  5  6  2  0
  6  7  1  0
  7  8  2  0
  8  9  1  0
  9 10  1  0
 10 11  1  0
 11 12  1  0
 12 13  1  0
 13 14  2  0
 13 15  1  0
 15 16  1  0
 16 17  2  0
 17 18  1  0
 18 19  2  0
 19 20  1  0
 20 21  2  0
  8  3  1  0
 21 12  1  0
 21 16  1  0
  1 22  1  0
  1 23  1  0
  1 24  1  0
  4 25  1  0
  5 26  1  0
  6 27  1  0
  7 28  1  0
 10 29  1  0
 10 30  1  0
 11 31  1  0
 11 32  1  0
 17 33  1  0
 18 34  1  0
 19 35  1  0
 20 36  1  0
M  CHG  1  15  -1
M  END
>  <UniqueID>  (44) 
41

>  <SMILES>  (44) 
COc1ccccc1OCCn1c(=S)[n-]c2ccccc21

>  <Energy>  (44) 
73.15107092113547

>  <Genealogy>  (44) 
COc1ccccc1OCCn1c(=S)[n-]c2ccccc21 (protonated)
COc1ccccc1OCCn1c(=S)[n-]c2ccccc21 (3D coordinates assigned)
COc1ccccc1OCCn1c(=S)[n-]c2ccccc21 (optimized conformer: 73.15107092113547 kcal/mol)

>  <smiles>  (44) 
COc1ccccc1OCCn1c(=S)[nH]c2ccccc21

>  <score_type>  (44) 
oracle

>  <origin>  (44) 
adg

>  <m_score__min__energy>  (44) 
-9.0999999999999996

>  <m_primary>  (44) 
energy

$$$$
44:0
     RDKit          3D

 39 40  0  0  0  0  0  0  0  0999 V2000
   58.2930   27.3940   43.4940 C   0  0  0  0  0  0  0  0  0  0  0  0
   58.7510   28.4230   44.4910 C   0  0  0  0  0  0  0  0  0  0  0  0
   59.9830   28.2510   45.1460 C   0  0  0  0  0  0  0  0  0  0  0  0
   60.4560   29.2190   46.0310 C   0  0  0  0  0  0  0  0  0  0  0  0
   59.7060   30.3670   46.2810 C   0  0  0  0  0  0  0  0  0  0  0  0
   58.4650   30.5480   45.6610 C   0  0  0  0  0  0  0  0  0  0  0  0
   57.7240   31.7360   45.9460 N   0  0  0  0  0  0  0  0  0  0  0  0
   57.8070   32.9240   45.1550 C   0  0  0  0  0  0  0  0  0  0  0  0
   57.7850   32.8530   43.8970 O   0  0  0  0  0  0  0  0  0  0  0  0
   57.8830   34.2670   45.8290 C   0  0  0  0  0  0  0  0  0  0  0  0
   59.2480   34.6180   46.2790 N   0  0  0  0  0  0  0  0  0  0  0  0
   59.3230   34.9050   47.7290 C   0  0  0  0  0  0  0  0  0  0  0  0
   59.6510   33.6380   48.5580 C   0  0  0  0  0  0  0  0  0  0  0  0
   61.1490   33.4680   48.8730 C   0  0  0  0  0  0  0  0  0  0  0  0
   62.0360   33.1630   47.6410 C   0  0  0  0  0  0  0  0  0  0  0  0
   61.6720   33.9180   46.3490 C   0  0  0  0  0  0  0  0  0  0  0  0
   60.2520   33.6330   45.8240 C   0  0  0  0  0  0  0  0  0  0  0  0
   57.9910   29.5890   44.7390 C   0  0  0  0  0  0  0  0  0  0  0  0
   56.3640   29.9190   43.7600 Br  0  0  0  0  0  0  0  0  0  0  0  0
   57.9018   26.5152   44.0275 H   0  0  0  0  0  0  0  0  0  0  0  0
   57.5006   27.8224   42.8627 H   0  0  0  0  0  0  0  0  0  0  0  0
   59.1417   27.0920   42.8627 H   0  0  0  0  0  0  0  0  0  0  0  0
   60.5786   27.3454   44.9588 H   0  0  0  0  0  0  0  0  0  0  0  0
   61.4241   29.0763   46.5335 H   0  0  0  0  0  0  0  0  0  0  0  0
   60.0916   31.1340   46.9688 H   0  0  0  0  0  0  0  0  0  0  0  0
   57.5411   35.0342   45.1187 H   0  0  0  0  0  0  0  0  0  0  0  0
   57.2462   34.2192   46.7247 H   0  0  0  0  0  0  0  0  0  0  0  0
   60.1088   35.6551   47.9019 H   0  0  0  0  0  0  0  0  0  0  0  0
   58.3390   35.2757   48.0521 H   0  0  0  0  0  0  0  0  0  0  0  0
   59.1015   33.6948   49.5092 H   0  0  0  0  0  0  0  0  0  0  0  0
   59.3529   32.7721   47.9486 H   0  0  0  0  0  0  0  0  0  0  0  0
   61.5105   34.3990   49.3340 H   0  0  0  0  0  0  0  0  0  0  0  0
   61.2306   32.5966   49.5394 H   0  0  0  0  0  0  0  0  0  0  0  0
   63.0737   33.4194   47.9006 H   0  0  0  0  0  0  0  0  0  0  0  0
   61.8806   32.0972   47.4178 H   0  0  0  0  0  0  0  0  0  0  0  0
   61.7559   34.9970   46.5458 H   0  0  0  0  0  0  0  0  0  0  0  0
   62.3695   33.5680   45.5737 H   0  0  0  0  0  0  0  0  0  0  0  0
   60.2782   33.6446   44.7244 H   0  0  0  0  0  0  0  0  0  0  0  0
   59.9493   32.6536   46.2229 H   0  0  0  0  0  0  0  0  0  0  0  0
  1  2  1  0
  2  3  2  0
  3  4  1  0
  4  5  2  0
  5  6  1  0
  6  7  1  0
  7  8  1  0
  8  9  2  0
  8 10  1  0
 10 11  1  0
 11 12  1  0
 12 13  1  0
 13 14  1  0
 14 15  1  0
 15 16  1  0
 16 17  1  0
  6 18  2  0
 18 19  1  0
 18  2  1  0
 17 11  1  0
  1 20  1  0
  1 21  1  0
  1 22  1  0
  3 23  1  0
  4 24  1  0
  5 25  1  0
 10 26  1  0
 10 27  1  0
 12 28  1  0
 12 29  1  0
 13 30  1  0
 13 31  1  0
 14 32  1  0
 14 33  1  0
 15 34  1  0
 15 35  1  0
 16 36  1  0
 16 37  1  0
 17 38  1  0
 17 39  1  0
M  CHG  1   7  -1
M  END
>  <UniqueID>  (45) 
42

>  <SMILES>  (45) 
Cc1cccc([N-]C(=O)CN2CCCCCC2)c1Br

>  <Energy>  (45) 
56.49803554662822

>  <Genealogy>  (45) 
Cc1cccc([N-]C(=O)CN2CCCCCC2)c1Br (protonated)
Cc1cccc([N-]C(=O)CN2CCCCCC2)c1Br (3D coordinates assigned)
Cc1cccc([N-]C(=O)CN2CCCCCC2)c1Br (nonaromatic ring conformer: 56.49803554662822 kcal/mol)

>  <smiles>  (45) 
Cc1cccc(NC(=O)CN2CCCCCC2)c1Br

>  <score_type>  (45) 
oracle

>  <origin>  (45) 
adg

>  <m_score__min__energy>  (45) 
-6.8799999999999999

>  <m_primary>  (45) 
energy

$$$$
45:0
     RDKit          3D

 49 51  0  0  0  0  0  0  0  0999 V2000
   59.1570   28.5350   47.1690 C   0  0  0  0  0  0  0  0  0  0  0  0
   59.5300   28.2830   45.7690 N   0  0  0  0  0  0  0  0  0  0  0  0
   60.4870   29.2890   45.2820 C   0  0  0  0  0  0  0  0  0  0  0  0
   58.3640   28.1030   44.8720 C   0  0  0  0  0  0  0  0  0  0  0  0
   56.9980   28.0610   45.5800 C   0  0  0  0  0  0  0  0  0  0  0  0
   56.2680   29.2570   45.3230 O   0  0  0  0  0  0  0  0  0  0  0  0
   56.6640   30.1840   44.3540 C   0  0  0  0  0  0  0  0  0  0  0  0
   56.3310   29.9420   43.0160 C   0  0  0  0  0  0  0  0  0  0  0  0
   56.6960   30.8510   42.0190 C   0  0  0  0  0  0  0  0  0  0  0  0
   57.4110   32.0060   42.3480 C   0  0  0  0  0  0  0  0  0  0  0  0
   57.7750   32.2480   43.6800 C   0  0  0  0  0  0  0  0  0  0  0  0
   58.5170   33.3800   44.0320 C   0  0  0  0  0  0  0  0  0  0  0  0
   58.8960   33.5810   45.3590 C   0  0  0  0  0  0  0  0  0  0  0  0
   58.5310   32.6430   46.3430 C   0  0  0  0  0  0  0  0  0  0  0  0
   58.9290   32.8060   47.7250 N   0  0  0  0  0  0  0  0  0  0  0  0
   59.3380   34.1170   48.2460 C   0  0  0  0  0  0  0  0  0  0  0  0
   60.0130   33.9850   49.6210 C   0  0  0  0  0  0  0  0  0  0  0  0
   60.9340   32.8310   49.6730 N   0  0  0  0  0  0  0  0  0  0  0  0
   62.1380   33.0540   48.8550 C   0  0  0  0  0  0  0  0  0  0  0  0
   60.2830   31.5320   49.3540 C   0  0  0  0  0  0  0  0  0  0  0  0
   58.9180   31.6690   48.6550 C   0  0  0  0  0  0  0  0  0  0  0  0
   57.7990   31.5540   45.9720 N   0  0  0  0  0  0  0  0  0  0  0  0
   57.4040   31.3340   44.6900 C   0  0  0  0  0  0  0  0  0  0  0  0
   59.8821   28.0451   47.8355 H   0  0  0  0  0  0  0  0  0  0  0  0
   59.1577   29.6184   47.3593 H   0  0  0  0  0  0  0  0  0  0  0  0
   58.1522   28.1300   47.3593 H   0  0  0  0  0  0  0  0  0  0  0  0
   60.9621   29.7884   46.1393 H   0  0  0  0  0  0  0  0  0  0  0  0
   61.2579   28.7963   44.6713 H   0  0  0  0  0  0  0  0  0  0  0  0
   59.9565   30.0344   44.6713 H   0  0  0  0  0  0  0  0  0  0  0  0
   58.3518   28.9385   44.1566 H   0  0  0  0  0  0  0  0  0  0  0  0
   58.4927   27.1204   44.3945 H   0  0  0  0  0  0  0  0  0  0  0  0
   56.4239   27.1992   45.2089 H   0  0  0  0  0  0  0  0  0  0  0  0
   57.1608   27.9685   46.6639 H   0  0  0  0  0  0  0  0  0  0  0  0
   55.7781   29.0298   42.7473 H   0  0  0  0  0  0  0  0  0  0  0  0
   56.4197   30.6568   40.9721 H   0  0  0  0  0  0  0  0  0  0  0  0
   57.6879   32.7245   41.5624 H   0  0  0  0  0  0  0  0  0  0  0  0
   58.8018   34.1121   43.2619 H   0  0  0  0  0  0  0  0  0  0  0  0
   59.4794   34.4714   45.6363 H   0  0  0  0  0  0  0  0  0  0  0  0
   60.0464   34.5775   47.5417 H   0  0  0  0  0  0  0  0  0  0  0  0
   58.4398   34.7419   48.3584 H   0  0  0  0  0  0  0  0  0  0  0  0
   60.5816   34.9036   49.8279 H   0  0  0  0  0  0  0  0  0  0  0  0
   59.2264   33.8281   50.3737 H   0  0  0  0  0  0  0  0  0  0  0  0
   63.0043   33.2144   49.5137 H   0  0  0  0  0  0  0  0  0  0  0  0
   62.3181   32.1739   48.2201 H   0  0  0  0  0  0  0  0  0  0  0  0
   61.9910   33.9402   48.2201 H   0  0  0  0  0  0  0  0  0  0  0  0
   60.9536   30.9622   48.6940 H   0  0  0  0  0  0  0  0  0  0  0  0
   60.0995   31.0248   50.3127 H   0  0  0  0  0  0  0  0  0  0  0  0
   58.7030   30.7462   48.0963 H   0  0  0  0  0  0  0  0  0  0  0  0
   58.1432   31.8397   49.4170 H   0  0  0  0  0  0  0  0  0  0  0  0
  1  2  1  0
  2  3  1  0
  2  4  1  0
  4  5  1  0
  5  6  1  0
  6  7  1  0
  7  8  2  0
  8  9  1  0
  9 10  2  0
 10 11  1  0
 11 12  2  0
 12 13  1  0
 13 14  2  0
 14 15  1  0
 15 16  1  0
 16 17  1  0
 17 18  1  0
 18 19  1  0
 18 20  1  0
 20 21  1  0
 14 22  1  0
 22 23  2  0
 23  7  1  0
 23 11  1  0
 21 15  1  0
  1 24  1  0
  1 25  1  0
  1 26  1  0
  3 27  1  0
  3 28  1  0
  3 29  1  0
  4 30  1  0
  4 31  1  0
  5 32  1  0
  5 33  1  0
  8 34  1  0
  9 35  1  0
 10 36  1  0
 12 37  1  0
 13 38  1  0
 16 39  1  0
 16 40  1  0
 17 41  1  0
 17 42  1  0
 19 43  1  0
 19 44  1  0
 19 45  1  0
 20 46  1  0
 20 47  1  0
 21 48  1  0
 21 49  1  0
M  END
>  <UniqueID>  (46) 
43

>  <SMILES>  (46) 
CN(C)CCOc1cccc2ccc(N3CCN(C)CC3)nc12

>  <Energy>  (46) 
69.6152592034038

>  <Genealogy>  (46) 
CN(C)CCOc1cccc2ccc(N3CCN(C)CC3)nc12 (3D coordinates assigned)
CN(C)CCOc1cccc2ccc(N3CCN(C)CC3)nc12 (nonaromatic ring conformer: 69.6152592034038 kcal/mol)

>  <smiles>  (46) 
CN(C)CCOc1cccc2ccc(N3CCN(C)CC3)nc12

>  <score_type>  (46) 
oracle

>  <origin>  (46) 
adg

>  <m_score__min__energy>  (46) 
-7

>  <m_primary>  (46) 
energy

$$$$
46:0
     RDKit          3D

 45 48  0  0  0  0  0  0  0  0999 V2000
   55.5120   30.4410   44.4990 O   0  0  0  0  0  0  0  0  0  0  0  0
   56.2810   29.6330   45.0850 C   0  0  0  0  0  0  0  0  0  0  0  0
   55.8920   28.3410   45.2540 N   0  0  0  0  0  0  0  0  0  0  0  0
   56.6970   27.4360   45.8680 C   0  0  0  0  0  0  0  0  0  0  0  0
   56.2900   26.1070   46.0230 C   0  0  0  0  0  0  0  0  0  0  0  0
   57.1390   25.1880   46.6490 C   0  0  0  0  0  0  0  0  0  0  0  0
   58.3920   25.5960   47.1220 C   0  0  0  0  0  0  0  0  0  0  0  0
   58.8020   26.9250   46.9750 C   0  0  0  0  0  0  0  0  0  0  0  0
   57.9570   27.8470   46.3480 C   0  0  0  0  0  0  0  0  0  0  0  0
   58.3420   29.1390   46.1830 N   0  0  0  0  0  0  0  0  0  0  0  0
   57.5450   30.0450   45.5550 C   0  0  0  0  0  0  0  0  0  0  0  0
   58.0180   31.4370   45.3790 C   0  0  0  0  0  0  0  0  0  0  0  0
   57.6230   32.1450   44.2320 C   0  0  0  0  0  0  0  0  0  0  0  0
   58.0640   33.4520   44.0170 C   0  0  0  0  0  0  0  0  0  0  0  0
   58.9100   34.0640   44.9390 C   0  0  0  0  0  0  0  0  0  0  0  0
   59.3180   33.3760   46.0820 C   0  0  0  0  0  0  0  0  0  0  0  0
   58.8730   32.0630   46.3290 C   0  0  0  0  0  0  0  0  0  0  0  0
   59.3550   31.3580   47.4950 N   0  0  0  0  0  0  0  0  0  0  0  0
   59.5460   32.2880   48.6200 C   0  0  0  0  0  0  0  0  0  0  0  0
   60.9940   32.3220   49.0340 C   0  0  0  0  0  0  0  0  0  0  0  0
   61.7700   33.4680   48.8070 C   0  0  0  0  0  0  0  0  0  0  0  0
   63.1010   33.5160   49.2340 C   0  0  0  0  0  0  0  0  0  0  0  0
   63.6680   32.4280   49.9190 C   0  0  0  0  0  0  0  0  0  0  0  0
   65.1180   32.4710   50.3360 C   0  0  0  0  0  0  0  0  0  0  0  0
   65.8560   33.0920   49.3460 F   0  0  0  0  0  0  0  0  0  0  0  0
   65.2600   33.1780   51.5180 F   0  0  0  0  0  0  0  0  0  0  0  0
   65.6150   31.1930   50.5350 F   0  0  0  0  0  0  0  0  0  0  0  0
   62.8890   31.2760   50.1370 C   0  0  0  0  0  0  0  0  0  0  0  0
   61.5590   31.2300   49.7110 C   0  0  0  0  0  0  0  0  0  0  0  0
   55.3051   25.7852   45.6537 H   0  0  0  0  0  0  0  0  0  0  0  0
   56.8212   24.1419   46.7699 H   0  0  0  0  0  0  0  0  0  0  0  0
   59.0565   24.8685   47.6111 H   0  0  0  0  0  0  0  0  0  0  0  0
   59.7852   27.2442   47.3510 H   0  0  0  0  0  0  0  0  0  0  0  0
   56.9603   31.6654   43.4966 H   0  0  0  0  0  0  0  0  0  0  0  0
   57.7430   33.9992   43.1184 H   0  0  0  0  0  0  0  0  0  0  0  0
   59.2575   35.0931   44.7653 H   0  0  0  0  0  0  0  0  0  0  0  0
   59.9949   33.8646   46.7983 H   0  0  0  0  0  0  0  0  0  0  0  0
   60.2440   30.8580   47.2710 H   0  0  0  0  0  0  0  0  0  0  0  0
   58.6680   30.6200   47.7810 H   0  0  0  0  0  0  0  0  0  0  0  0
   59.2331   33.2969   48.3132 H   0  0  0  0  0  0  0  0  0  0  0  0
   58.9395   31.9465   49.4718 H   0  0  0  0  0  0  0  0  0  0  0  0
   61.3295   34.3336   48.2905 H   0  0  0  0  0  0  0  0  0  0  0  0
   63.7077   34.4111   49.0323 H   0  0  0  0  0  0  0  0  0  0  0  0
   63.3301   30.4063   50.6460 H   0  0  0  0  0  0  0  0  0  0  0  0
   60.9520   30.3338   49.9071 H   0  0  0  0  0  0  0  0  0  0  0  0
  1  2  2  0
  2  3  1  0
  3  4  1  0
  4  5  2  0
  5  6  1  0
  6  7  2  0
  7  8  1  0
  8  9  2  0
  9 10  1  0
 10 11  2  0
 11 12  1  0
 12 13  2  0
 13 14  1  0
 14 15  2  0
 15 16  1  0
 16 17  2  0
 17 18  1  0
 18 19  1  0
 19 20  1  0
 20 21  2  0
 21 22  1  0
 22 23  2  0
 23 24  1  0
 24 25  1  0
 24 26  1  0
 24 27  1  0
 23 28  1  0
 28 29  2  0
 11  2  1  0
 17 12  1  0
 29 20  1  0
  9  4  1  0
  5 30  1  0
  6 31  1  0
  7 32  1  0
  8 33  1  0
 13 34  1  0
 14 35  1  0
 15 36  1  0
 16 37  1  0
 18 38  1  0
 18 39  1  0
 19 40  1  0
 19 41  1  0
 21 42  1  0
 22 43  1  0
 28 44  1  0
 29 45  1  0
M  CHG  2   3  -1  18   1
M  END
>  <UniqueID>  (47) 
44

>  <SMILES>  (47) 
O=c1[n-]c2ccccc2nc1-c1ccccc1[NH2+]Cc1ccc(C(F)(F)F)cc1

>  <Energy>  (47) 
61.64470984842451

>  <Genealogy>  (47) 
O=c1[n-]c2ccccc2nc1-c1ccccc1[NH2+]Cc1ccc(C(F)(F)F)cc1 (protonated)
O=c1[n-]c2ccccc2nc1-c1ccccc1[NH2+]Cc1ccc(C(F)(F)F)cc1 (3D coordinates assigned)
O=c1[n-]c2ccccc2nc1-c1ccccc1[NH2+]Cc1ccc(C(F)(F)F)cc1 (optimized conformer: 61.64470984842451 kcal/mol)

>  <smiles>  (47) 
O=c1[nH]c2ccccc2nc1-c1ccccc1NCc1ccc(C(F)(F)F)cc1

>  <score_type>  (47) 
oracle

>  <origin>  (47) 
adg

>  <m_score__min__energy>  (47) 
-8.7200000000000006

>  <m_primary>  (47) 
energy

$$$$
