0:0
     RDKit          3D

 30 30  0  0  0  0  0  0  0  0999 V2000
   57.2483   30.2917   43.4834 H   0  0  0  0  0  0  0  0  0  0  0  0
   56.9890   30.6130   44.5030 C   0  0  0  0  0  0  0  0  0  0  0  0
   56.1030   29.9360   45.1690 N   0  0  0  0  0  0  0  0  0  0  0  0
   55.9940   28.5540   45.1680 O   0  0  0  0  0  0  0  0  0  0  0  0
   57.0430   27.6750   45.5700 C   0  0  0  0  0  0  0  0  0  0  0  0
   57.7547   28.2209   46.2067 H   0  0  0  0  0  0  0  0  0  0  0  0
   57.5642   27.2951   44.6789 H   0  0  0  0  0  0  0  0  0  0  0  0
   56.4570   26.5080   46.3500 C   0  0  0  0  0  0  0  0  0  0  0  0
   56.5309   26.7120   47.4284 H   0  0  0  0  0  0  0  0  0  0  0  0
   57.0144   25.5892   46.1152 H   0  0  0  0  0  0  0  0  0  0  0  0
   55.1010   26.3450   45.9920 O   0  0  0  0  0  0  0  0  0  0  0  0
   54.8430   25.0040   45.6190 C   0  0  0  0  0  0  0  0  0  0  0  0
   53.9813   24.9763   44.9359 H   0  0  0  0  0  0  0  0  0  0  0  0
   54.6252   24.4159   46.5227 H   0  0  0  0  0  0  0  0  0  0  0  0
   56.0600   24.4080   44.9190 C   0  0  0  0  0  0  0  0  0  0  0  0
   56.7800   24.0554   45.6721 H   0  0  0  0  0  0  0  0  0  0  0  0
   55.7438   23.5628   44.2900 H   0  0  0  0  0  0  0  0  0  0  0  0
   56.5339   25.1760   44.2900 H   0  0  0  0  0  0  0  0  0  0  0  0
   57.6640   31.8080   45.0740 C   0  0  0  0  0  0  0  0  0  0  0  0
   57.4170   33.0470   44.4510 C   0  0  0  0  0  0  0  0  0  0  0  0
   56.7468   33.0922   43.5799 H   0  0  0  0  0  0  0  0  0  0  0  0
   58.0110   34.2180   44.9240 C   0  0  0  0  0  0  0  0  0  0  0  0
   57.8066   35.1770   44.4255 H   0  0  0  0  0  0  0  0  0  0  0  0
   58.8630   34.1750   46.0270 C   0  0  0  0  0  0  0  0  0  0  0  0
   59.3308   35.0992   46.3971 H   0  0  0  0  0  0  0  0  0  0  0  0
   59.1220   32.9600   46.6610 C   0  0  0  0  0  0  0  0  0  0  0  0
   59.7938   32.9322   47.5316 H   0  0  0  0  0  0  0  0  0  0  0  0
   58.5340   31.7730   46.1990 C   0  0  0  0  0  0  0  0  0  0  0  0
   58.8490   30.5540   46.9040 C   0  0  0  0  0  0  0  0  0  0  0  0
   59.0990   29.5750   47.4680 N   0  0  0  0  0  0  0  0  0  0  0  0
  1  2  1  0
  2  3  2  0
  3  4  1  0
  4  5  1  0
  5  6  1  0
  5  7  1  0
  5  8  1  0
  8  9  1  0
  8 10  1  0
  8 11  1  0
 11 12  1  0
 12 13  1  0
 12 14  1  0
 12 15  1  0
 15 16  1  0
 15 17  1  0
 15 18  1  0
  2 19  1  0
 19 20  2  0
 20 21  1  0
 20 22  1  0
 22 23  1  0
 22 24  2  0
 24 25  1  0
 24 26  1  0
 26 27  1  0
 26 28  2  0
 28 29  1  0
 29 30  3  0
 28 19  1  0
M  END
>  <UniqueID>  (1) 
1

>  <SMILES>  (1) 
CCOCCO/N=C/c1ccccc1C#N

>  <Energy>  (1) 
28.34654221967774

>  <Genealogy>  (1) 
CCOCCO/N=C/c1ccccc1C#N (cis-trans isomerization)
CCOCCO/N=C/c1ccccc1C#N (3D coordinates assigned)
CCOCCO/N=C/c1ccccc1C#N (optimized conformer: 28.34654221967774 kcal/mol)

>  <smiles>  (1) 
CCOCCON=Cc1ccccc1C#N

>  <score_type>  (1) 
oracle

>  <origin>  (1) 
adg

>  <m_score__min__energy>  (1) 
-6.4100000000000001

>  <m_primary>  (1) 
energy

$$$$
1:0
     RDKit          3D

 78 83  0  0  0  0  0  0  0  0999 V2000
   58.6970   29.3110   44.9200 C   0  0  0  0  0  0  0  0  0  0  0  0
   58.7010   30.2510   46.0560 N   0  0  0  0  0  0  0  0  0  0  0  0
   58.2660   31.5590   45.9060 C   0  0  0  0  0  0  0  0  0  0  0  0
   57.9310   32.0860   44.6340 C   0  0  0  0  0  0  0  0  0  0  0  0
   57.5290   33.4130   44.4900 C   0  0  0  0  0  0  0  0  0  0  0  0
   57.4690   34.2530   45.5960 C   0  0  0  0  0  0  0  0  0  0  0  0
   57.7980   33.7730   46.8610 C   0  0  0  0  0  0  0  0  0  0  0  0
   58.1680   32.4260   47.0460 C   0  0  0  0  0  0  0  0  0  0  0  0
   58.4930   31.9320   48.3340 C   0  0  0  0  0  0  0  0  0  0  0  0
   58.1710   32.6550   49.5360 N   0  0  0  0  0  0  0  0  0  0  0  0
   59.1880   33.0970   50.5030 C   0  0  0  0  0  0  0  0  0  0  0  0
   58.6960   33.1090   51.9820 C   0  0  0  0  0  0  0  0  0  0  0  0
   58.3000   34.5440   52.3960 C   0  0  0  0  0  0  0  0  0  0  0  0
   57.4220   32.2340   52.0730 C   0  0  0  0  0  0  0  0  0  0  0  0
   59.7740   32.5910   52.9900 C   0  0  0  0  0  0  0  0  0  0  0  0
   59.3890   31.3710   53.7110 N   0  0  0  0  0  0  0  0  0  0  0  0
   59.0980   30.6770   48.3950 C   0  0  0  0  0  0  0  0  0  0  0  0
   59.6980   29.9690   49.4260 C   0  0  0  0  0  0  0  0  0  0  0  0
   60.0160   30.3090   50.7430 C   0  0  0  0  0  0  0  0  0  0  0  0
   60.7100   29.3620   51.5380 C   0  0  0  0  0  0  0  0  0  0  0  0
   61.0680   29.6200   52.8730 O   0  0  0  0  0  0  0  0  0  0  0  0
   62.2730   30.2600   53.2950 C   0  0  0  0  0  0  0  0  0  0  0  0
   62.6310   31.4210   52.3420 C   0  0  0  0  0  0  0  0  0  0  0  0
   63.7190   31.1330   51.3590 N   0  0  2  0  0  0  0  0  0  0  0  0
   64.0280   29.6830   51.2770 C   0  0  0  0  0  0  0  0  0  0  0  0
   64.9520   31.8840   51.7720 C   0  0  0  0  0  0  0  0  0  0  0  0
   65.0420   33.1640   50.9190 C   0  0  0  0  0  0  0  0  0  0  0  0
   64.1440   32.8460   49.7960 C   0  0  0  0  0  0  0  0  0  0  0  0
   64.0170   33.5340   48.5860 C   0  0  0  0  0  0  0  0  0  0  0  0
   63.1510   33.0200   47.6080 C   0  0  0  0  0  0  0  0  0  0  0  0
   62.4350   31.8360   47.8550 C   0  0  0  0  0  0  0  0  0  0  0  0
   62.5760   31.1640   49.0810 C   0  0  0  0  0  0  0  0  0  0  0  0
   63.4370   31.6980   50.0580 C   0  0  0  0  0  0  0  0  0  0  0  0
   61.0680   28.1140   50.9780 C   0  0  0  0  0  0  0  0  0  0  0  0
   60.7690   27.8110   49.6390 C   0  0  0  0  0  0  0  0  0  0  0  0
   60.0850   28.7630   48.8860 C   0  0  0  0  0  0  0  0  0  0  0  0
   59.7710   28.6800   47.5780 N   0  0  0  0  0  0  0  0  0  0  0  0
   59.1700   29.8600   47.2840 C   0  0  0  0  0  0  0  0  0  0  0  0
   58.6926   28.2782   45.2987 H   0  0  0  0  0  0  0  0  0  0  0  0
   57.7996   29.4806   44.3069 H   0  0  0  0  0  0  0  0  0  0  0  0
   59.5958   29.4729   44.3069 H   0  0  0  0  0  0  0  0  0  0  0  0
   57.9890   31.4382   43.7469 H   0  0  0  0  0  0  0  0  0  0  0  0
   57.2578   33.7975   43.4957 H   0  0  0  0  0  0  0  0  0  0  0  0
   57.1603   35.3014   45.4713 H   0  0  0  0  0  0  0  0  0  0  0  0
   57.7687   34.4528   47.7253 H   0  0  0  0  0  0  0  0  0  0  0  0
   57.1700   32.6810   49.8330 H   0  0  0  0  0  0  0  0  0  0  0  0
   60.0509   32.4186   50.4313 H   0  0  0  0  0  0  0  0  0  0  0  0
   59.4419   34.1356   50.2444 H   0  0  0  0  0  0  0  0  0  0  0  0
   58.2799   34.6167   53.4934 H   0  0  0  0  0  0  0  0  0  0  0  0
   59.0349   35.2574   51.9947 H   0  0  0  0  0  0  0  0  0  0  0  0
   57.3033   34.7795   51.9947 H   0  0  0  0  0  0  0  0  0  0  0  0
   57.1705   32.0613   53.1299 H   0  0  0  0  0  0  0  0  0  0  0  0
   56.5867   32.7499   51.5769 H   0  0  0  0  0  0  0  0  0  0  0  0
   57.6036   31.2692   51.5769 H   0  0  0  0  0  0  0  0  0  0  0  0
   60.6979   32.3835   52.4302 H   0  0  0  0  0  0  0  0  0  0  0  0
   59.9015   33.3782   53.7477 H   0  0  0  0  0  0  0  0  0  0  0  0
   60.1750   31.0040   54.2900 H   0  0  0  0  0  0  0  0  0  0  0  0
   58.5510   31.5380   54.3090 H   0  0  0  0  0  0  0  0  0  0  0  0
   59.1460   30.6340   53.0080 H   0  0  0  0  0  0  0  0  0  0  0  0
   59.7343   31.2896   51.1542 H   0  0  0  0  0  0  0  0  0  0  0  0
   62.1356   30.6558   54.3121 H   0  0  0  0  0  0  0  0  0  0  0  0
   63.0903   29.5239   53.2817 H   0  0  0  0  0  0  0  0  0  0  0  0
   61.7255   31.6875   51.7771 H   0  0  0  0  0  0  0  0  0  0  0  0
   63.0086   32.2321   52.9820 H   0  0  0  0  0  0  0  0  0  0  0  0
   64.1162   29.2689   52.2923 H   0  0  0  0  0  0  0  0  0  0  0  0
   63.2199   29.1657   50.7390 H   0  0  0  0  0  0  0  0  0  0  0  0
   64.9768   29.5401   50.7390 H   0  0  0  0  0  0  0  0  0  0  0  0
   64.8871   32.1499   52.8374 H   0  0  0  0  0  0  0  0  0  0  0  0
   65.8460   31.2614   51.6198 H   0  0  0  0  0  0  0  0  0  0  0  0
   64.6877   34.0427   51.4779 H   0  0  0  0  0  0  0  0  0  0  0  0
   66.0660   33.4203   50.6097 H   0  0  0  0  0  0  0  0  0  0  0  0
   64.5838   34.4590   48.4039 H   0  0  0  0  0  0  0  0  0  0  0  0
   63.0327   33.5440   46.6481 H   0  0  0  0  0  0  0  0  0  0  0  0
   61.7608   31.4334   47.0847 H   0  0  0  0  0  0  0  0  0  0  0  0
   62.0214   30.2339   49.2744 H   0  0  0  0  0  0  0  0  0  0  0  0
   61.5879   27.3699   51.5993 H   0  0  0  0  0  0  0  0  0  0  0  0
   61.0668   26.8486   49.1973 H   0  0  0  0  0  0  0  0  0  0  0  0
   60.0130   27.8840   46.9470 H   0  0  0  0  0  0  0  0  0  0  0  0
  1  2  1  0
  2  3  2  0
  3  4  1  0
  4  5  2  0
  5  6  1  0
  6  7  2  0
  7  8  1  0
  8  9  2  0
  9 10  1  0
 10 11  1  0
 11 12  1  0
 12 13  1  0
 12 14  1  0
 12 15  1  0
 15 16  1  0
  9 17  1  0
 17 18  1  0
 18 19  2  0
 19 20  1  0
 20 21  1  0
 21 22  1  0
 22 23  1  0
 24 23  1  1
 24 25  1  0
 24 26  1  0
 26 27  1  0
 27 28  1  0
 28 29  2  0
 29 30  1  0
 30 31  2  0
 31 32  1  0
 32 33  2  0
 20 34  2  0
 34 35  1  0
 35 36  2  0
 36 37  1  0
 37 38  1  0
 38  2  1  0
  8  3  1  0
 38 17  2  0
 36 18  1  0
 33 24  1  0
 33 28  1  0
  1 39  1  0
  1 40  1  0
  1 41  1  0
  4 42  1  0
  5 43  1  0
  6 44  1  0
  7 45  1  0
 10 46  1  0
 11 47  1  0
 11 48  1  0
 13 49  1  0
 13 50  1  0
 13 51  1  0
 14 52  1  0
 14 53  1  0
 14 54  1  0
 15 55  1  0
 15 56  1  0
 16 57  1  0
 16 58  1  0
 16 59  1  0
 19 60  1  0
 22 61  1  0
 22 62  1  0
 23 63  1  0
 23 64  1  0
 25 65  1  0
 25 66  1  0
 25 67  1  0
 26 68  1  0
 26 69  1  0
 27 70  1  0
 27 71  1  0
 29 72  1  0
 30 73  1  0
 31 74  1  0
 32 75  1  0
 34 76  1  0
 35 77  1  0
 37 78  1  0
M  CHG  3   2   1  16   1  24   1
M  END
>  <UniqueID>  (2) 
2

>  <SMILES>  (2) 
C[n+]1c2ccccc2c(NCC(C)(C)C[NH3+])c2c3cc(OCC[N@+]4(C)CCc5ccccc54)ccc3[nH]c21

>  <Energy>  (2) 
159.01088224770436

>  <Genealogy>  (2) 
C[n+]1c2ccccc2c(NCC(C)(C)C[NH3+])c2c3cc(OCC[N+]4(C)CCc5ccccc54)ccc3[nH]c21 (protonated)
C[n+]1c2ccccc2c(NCC(C)(C)C[NH3+])c2c3cc(OCC[N@+]4(C)CCc5ccccc54)ccc3[nH]c21 (chirality)
C[n+]1c2ccccc2c(NCC(C)(C)C[NH3+])c2c3cc(OCC[N@+]4(C)CCc5ccccc54)ccc3[nH]c21 (3D coordinates assigned)
C[n+]1c2ccccc2c(NCC(C)(C)C[NH3+])c2c3cc(OCC[N@+]4(C)CCc5ccccc54)ccc3[nH]c21 (nonaromatic ring conformer: 159.01088224770436 kcal/mol)

>  <smiles>  (2) 
C[n+]1c2ccccc2c(NCC(C)(C)CN)c2c3cc(OCC[N+]4(C)CCc5ccccc54)ccc3[nH]c21

>  <score_type>  (2) 
oracle

>  <origin>  (2) 
adg

>  <m_score__min__energy>  (2) 
-5.0700000000000003

>  <m_primary>  (2) 
energy

$$$$
2:0
     RDKit          3D

 42 44  0  0  0  0  0  0  0  0999 V2000
   66.8240   32.7160   50.4740 C   0  0  0  0  0  0  0  0  0  0  0  0
   65.3610   33.0990   50.2780 C   0  0  0  0  0  0  0  0  0  0  0  0
   64.8870   32.6550   49.0060 O   0  0  0  0  0  0  0  0  0  0  0  0
   63.5410   32.5900   48.6070 C   0  0  0  0  0  0  0  0  0  0  0  0
   62.9910   33.4760   47.6600 C   0  0  0  0  0  0  0  0  0  0  0  0
   61.6430   33.3780   47.2890 C   0  0  0  0  0  0  0  0  0  0  0  0
   61.1160   34.2380   46.3790 N   0  0  0  0  0  0  0  0  0  0  0  0
   59.8100   34.1670   46.0000 C   0  0  0  0  0  0  0  0  0  0  0  0
   59.2610   35.2740   44.9090 S   0  0  0  0  0  0  0  0  0  0  0  0
   58.9840   33.1960   46.5300 N   0  0  0  0  0  0  0  0  0  0  0  0
   57.5560   33.1100   46.1470 C   0  0  0  0  0  0  0  0  0  0  0  0
   57.3840   32.1770   44.9890 C   0  0  0  0  0  0  0  0  0  0  0  0
   57.8760   32.3730   43.7140 C   0  0  0  0  0  0  0  0  0  0  0  0
   57.4970   31.2570   42.9970 C   0  0  0  0  0  0  0  0  0  0  0  0
   56.8010   30.4530   43.8780 C   0  0  0  0  0  0  0  0  0  0  0  0
   56.7520   31.0290   45.0580 O   0  0  0  0  0  0  0  0  0  0  0  0
   59.4820   32.3200   47.4670 C   0  0  0  0  0  0  0  0  0  0  0  0
   58.7300   31.4460   47.9840 O   0  0  0  0  0  0  0  0  0  0  0  0
   60.8290   32.3910   47.8640 C   0  0  0  0  0  0  0  0  0  0  0  0
   61.3750   31.5080   48.8130 C   0  0  0  0  0  0  0  0  0  0  0  0
   62.7280   31.6070   49.1900 C   0  0  0  0  0  0  0  0  0  0  0  0
   63.3120   30.7460   50.1350 O   0  0  0  0  0  0  0  0  0  0  0  0
   63.0410   30.7330   51.5370 C   0  0  0  0  0  0  0  0  0  0  0  0
   62.4440   32.0630   51.9860 C   0  0  0  0  0  0  0  0  0  0  0  0
   67.0468   32.6577   51.5496 H   0  0  0  0  0  0  0  0  0  0  0  0
   67.0128   31.7382   50.0069 H   0  0  0  0  0  0  0  0  0  0  0  0
   67.4677   33.4759   50.0069 H   0  0  0  0  0  0  0  0  0  0  0  0
   64.7569   32.6334   51.0706 H   0  0  0  0  0  0  0  0  0  0  0  0
   65.2739   34.1946   50.3241 H   0  0  0  0  0  0  0  0  0  0  0  0
   63.6255   34.2522   47.2074 H   0  0  0  0  0  0  0  0  0  0  0  0
   61.7280   34.9790   45.9620 H   0  0  0  0  0  0  0  0  0  0  0  0
   56.9727   32.7383   47.0023 H   0  0  0  0  0  0  0  0  0  0  0  0
   57.2027   34.1103   45.8561 H   0  0  0  0  0  0  0  0  0  0  0  0
   58.4494   33.2370   43.3471 H   0  0  0  0  0  0  0  0  0  0  0  0
   57.7069   31.0495   41.9373 H   0  0  0  0  0  0  0  0  0  0  0  0
   56.3553   29.4785   43.6297 H   0  0  0  0  0  0  0  0  0  0  0  0
   60.7389   30.7327   49.2650 H   0  0  0  0  0  0  0  0  0  0  0  0
   62.3287   29.9247   51.7591 H   0  0  0  0  0  0  0  0  0  0  0  0
   63.9854   30.5704   52.0770 H   0  0  0  0  0  0  0  0  0  0  0  0
   62.4255   32.1042   53.0851 H   0  0  0  0  0  0  0  0  0  0  0  0
   63.0574   32.8897   51.5984 H   0  0  0  0  0  0  0  0  0  0  0  0
   61.4186   32.1541   51.5984 H   0  0  0  0  0  0  0  0  0  0  0  0
  1  2  1  0
  2  3  1  0
  3  4  1  0
  4  5  2  0
  5  6  1  0
  6  7  1  0
  7  8  1  0
  8  9  2  0
  8 10  1  0
 10 11  1  0
 11 12  1  0
 12 13  2  0
 13 14  1  0
 14 15  2  0
 15 16  1  0
 10 17  1  0
 17 18  2  0
 17 19  1  0
 19 20  1  0
 20 21  2  0
 21 22  1  0
 22 23  1  0
 23 24  1  0
 21  4  1  0
 19  6  2  0
 16 12  1  0
  1 25  1  0
  1 26  1  0
  1 27  1  0
  2 28  1  0
  2 29  1  0
  5 30  1  0
  7 31  1  0
 11 32  1  0
 11 33  1  0
 13 34  1  0
 14 35  1  0
 15 36  1  0
 20 37  1  0
 23 38  1  0
 23 39  1  0
 24 40  1  0
 24 41  1  0
 24 42  1  0
M  END
>  <UniqueID>  (3) 
3

>  <SMILES>  (3) 
CCOc1cc2[nH]c(=S)n(Cc3ccco3)c(=O)c2cc1OCC

>  <Energy>  (3) 
75.75825565448557

>  <Genealogy>  (3) 
CCOc1cc2[nH]c(=S)n(Cc3ccco3)c(=O)c2cc1OCC (3D coordinates assigned)
CCOc1cc2[nH]c(=S)n(Cc3ccco3)c(=O)c2cc1OCC (optimized conformer: 75.75825565448557 kcal/mol)

>  <smiles>  (3) 
CCOc1cc2[nH]c(=S)n(Cc3ccco3)c(=O)c2cc1OCC

>  <score_type>  (3) 
oracle

>  <origin>  (3) 
adg

>  <m_score__min__energy>  (3) 
-6.1500000000000004

>  <m_primary>  (3) 
energy

$$$$
3:0
     RDKit          3D

 48 49  0  0  0  0  0  0  0  0999 V2000
   62.9550   31.5800   47.1390 C   0  0  0  0  0  0  0  0  0  0  0  0
   63.7720   32.3280   48.1940 C   0  0  0  0  0  0  0  0  0  0  0  0
   63.5240   33.8440   48.1750 C   0  0  0  0  0  0  0  0  0  0  0  0
   62.4570   34.2800   49.1920 C   0  0  0  0  0  0  0  0  0  0  0  0
   61.1590   33.6520   48.8900 N   0  0  0  0  0  0  0  0  0  0  0  0
   60.2960   34.5290   48.0770 C   0  0  0  0  0  0  0  0  0  0  0  0
   59.3100   33.7370   47.2440 C   0  0  0  0  0  0  0  0  0  0  0  0
   58.7600   34.3230   46.0950 C   0  0  0  0  0  0  0  0  0  0  0  0
   57.9010   33.5970   45.2700 C   0  0  0  0  0  0  0  0  0  0  0  0
   57.5820   32.2710   45.5680 C   0  0  0  0  0  0  0  0  0  0  0  0
   56.7460   31.5730   44.6810 O   0  0  0  0  0  0  0  0  0  0  0  0
   57.1740   30.5540   43.7740 C   0  0  0  0  0  0  0  0  0  0  0  0
   57.8530   29.4310   44.5130 C   0  0  0  0  0  0  0  0  0  0  0  0
   59.2530   29.3160   44.5120 C   0  0  0  0  0  0  0  0  0  0  0  0
   59.8740   28.2600   45.1860 C   0  0  0  0  0  0  0  0  0  0  0  0
   59.1030   27.3180   45.8740 C   0  0  0  0  0  0  0  0  0  0  0  0
   59.7070   26.2940   46.5260 F   0  0  0  0  0  0  0  0  0  0  0  0
   57.7110   27.4340   45.8920 C   0  0  0  0  0  0  0  0  0  0  0  0
   57.0860   28.4880   45.2190 C   0  0  0  0  0  0  0  0  0  0  0  0
   58.1120   31.6820   46.7320 C   0  0  0  0  0  0  0  0  0  0  0  0
   58.9860   32.4020   47.5680 C   0  0  0  0  0  0  0  0  0  0  0  0
   59.5570   31.8200   48.7120 O   0  0  0  0  0  0  0  0  0  0  0  0
   59.5380   30.4270   49.0090 C   0  0  0  0  0  0  0  0  0  0  0  0
   62.2316   30.9177   47.6371 H   0  0  0  0  0  0  0  0  0  0  0  0
   62.4164   32.3046   46.5106 H   0  0  0  0  0  0  0  0  0  0  0  0
   63.6294   30.9798   46.5106 H   0  0  0  0  0  0  0  0  0  0  0  0
   63.5021   31.9402   49.1874 H   0  0  0  0  0  0  0  0  0  0  0  0
   64.8357   32.1637   47.9667 H   0  0  0  0  0  0  0  0  0  0  0  0
   64.4672   34.3585   48.4111 H   0  0  0  0  0  0  0  0  0  0  0  0
   63.1576   34.1097   47.1724 H   0  0  0  0  0  0  0  0  0  0  0  0
   62.7766   33.9802   50.2010 H   0  0  0  0  0  0  0  0  0  0  0  0
   62.3418   35.3725   49.1357 H   0  0  0  0  0  0  0  0  0  0  0  0
   61.3240   32.7720   48.3480 H   0  0  0  0  0  0  0  0  0  0  0  0
   60.6690   33.4020   49.7810 H   0  0  0  0  0  0  0  0  0  0  0  0
   59.7376   35.1989   48.7474 H   0  0  0  0  0  0  0  0  0  0  0  0
   60.9397   35.0999   47.3916 H   0  0  0  0  0  0  0  0  0  0  0  0
   59.0081   35.3644   45.8420 H   0  0  0  0  0  0  0  0  0  0  0  0
   57.4711   34.0735   44.3766 H   0  0  0  0  0  0  0  0  0  0  0  0
   56.2988   30.1565   43.2391 H   0  0  0  0  0  0  0  0  0  0  0  0
   57.8903   30.9925   43.0636 H   0  0  0  0  0  0  0  0  0  0  0  0
   59.8633   30.0598   43.9788 H   0  0  0  0  0  0  0  0  0  0  0  0
   60.9703   28.1702   45.1750 H   0  0  0  0  0  0  0  0  0  0  0  0
   57.1055   26.6946   46.4367 H   0  0  0  0  0  0  0  0  0  0  0  0
   55.9901   28.5797   45.2420 H   0  0  0  0  0  0  0  0  0  0  0  0
   57.8401   30.6480   46.9908 H   0  0  0  0  0  0  0  0  0  0  0  0
   59.5361   30.2846   50.0997 H   0  0  0  0  0  0  0  0  0  0  0  0
   58.6336   29.9726   48.5783 H   0  0  0  0  0  0  0  0  0  0  0  0
   60.4297   29.9481   48.5783 H   0  0  0  0  0  0  0  0  0  0  0  0
  1  2  1  0
  2  3  1  0
  3  4  1  0
  4  5  1  0
  5  6  1  0
  6  7  1  0
  7  8  2  0
  8  9  1  0
  9 10  2  0
 10 11  1  0
 11 12  1  0
 12 13  1  0
 13 14  2  0
 14 15  1  0
 15 16  2  0
 16 17  1  0
 16 18  1  0
 18 19  2  0
 10 20  1  0
 20 21  2  0
 21 22  1  0
 22 23  1  0
 21  7  1  0
 19 13  1  0
  1 24  1  0
  1 25  1  0
  1 26  1  0
  2 27  1  0
  2 28  1  0
  3 29  1  0
  3 30  1  0
  4 31  1  0
  4 32  1  0
  5 33  1  0
  5 34  1  0
  6 35  1  0
  6 36  1  0
  8 37  1  0
  9 38  1  0
 12 39  1  0
 12 40  1  0
 14 41  1  0
 15 42  1  0
 18 43  1  0
 19 44  1  0
 20 45  1  0
 23 46  1  0
 23 47  1  0
 23 48  1  0
M  CHG  1   5   1
M  END
>  <UniqueID>  (4) 
4

>  <SMILES>  (4) 
CCCC[NH2+]Cc1ccc(OCc2ccc(F)cc2)cc1OC

>  <Energy>  (4) 
39.93729029694035

>  <Genealogy>  (4) 
CCCC[NH2+]Cc1ccc(OCc2ccc(F)cc2)cc1OC (protonated)
CCCC[NH2+]Cc1ccc(OCc2ccc(F)cc2)cc1OC (3D coordinates assigned)
CCCC[NH2+]Cc1ccc(OCc2ccc(F)cc2)cc1OC (optimized conformer: 39.93729029694035 kcal/mol)

>  <smiles>  (4) 
CCCCNCc1ccc(OCc2ccc(F)cc2)cc1OC

>  <score_type>  (4) 
oracle

>  <origin>  (4) 
adg

>  <m_score__min__energy>  (4) 
-4.7999999999999998

>  <m_primary>  (4) 
energy

$$$$
4:0
     RDKit          3D

 50 52  0  0  0  0  0  0  0  0999 V2000
   63.3820   33.5140   46.6250 C   0  0  0  0  0  0  0  0  0  0  0  0
   62.9300   32.2480   47.3440 C   0  0  0  0  0  0  0  0  0  0  0  0
   62.9180   32.4710   48.7940 N   0  0  0  0  0  0  0  0  0  0  0  0
   63.0280   33.9060   49.0880 C   0  0  0  0  0  0  0  0  0  0  0  0
   62.6750   34.1870   50.5540 C   0  0  0  0  0  0  0  0  0  0  0  0
   61.4540   33.3820   51.0190 C   0  0  0  0  0  0  0  0  0  0  0  0
   60.4580   33.3940   50.0130 O   0  0  0  0  0  0  0  0  0  0  0  0
   59.2730   32.7850   50.4800 C   0  0  0  0  0  0  0  0  0  0  0  0
   58.9330   31.5960   49.5880 C   0  0  0  0  0  0  0  0  0  0  0  0
   59.8400   31.5390   48.4430 N   0  0  0  0  0  0  0  0  0  0  0  0
   59.3500   31.7210   47.1050 C   0  0  0  0  0  0  0  0  0  0  0  0
   58.7360   30.6800   46.3780 C   0  0  0  0  0  0  0  0  0  0  0  0
   58.6690   29.3750   46.9040 C   0  0  0  0  0  0  0  0  0  0  0  0
   58.0090   28.3640   46.2120 C   0  0  0  0  0  0  0  0  0  0  0  0
   57.4030   28.6330   44.9890 C   0  0  0  0  0  0  0  0  0  0  0  0
   57.4850   29.9070   44.4270 C   0  0  0  0  0  0  0  0  0  0  0  0
   58.1840   30.9510   45.0830 C   0  0  0  0  0  0  0  0  0  0  0  0
   58.3280   32.2080   44.5070 N   0  0  0  0  0  0  0  0  0  0  0  0
   57.8830   32.4660   43.1220 C   0  0  0  0  0  0  0  0  0  0  0  0
   58.8960   33.2180   45.2500 C   0  0  0  0  0  0  0  0  0  0  0  0
   59.0020   34.5770   44.8800 C   0  0  0  0  0  0  0  0  0  0  0  0
   59.6210   35.3650   45.8470 C   0  0  0  0  0  0  0  0  0  0  0  0
   60.0220   34.3980   47.1660 S   0  0  0  0  0  0  0  0  0  0  0  0
   59.4150   32.9730   46.5100 C   0  0  0  0  0  0  0  0  0  0  0  0
   63.6552   34.2791   47.3666 H   0  0  0  0  0  0  0  0  0  0  0  0
   64.2543   33.2862   45.9948 H   0  0  0  0  0  0  0  0  0  0  0  0
   62.5626   33.8902   45.9948 H   0  0  0  0  0  0  0  0  0  0  0  0
   61.9172   31.9804   47.0083 H   0  0  0  0  0  0  0  0  0  0  0  0
   63.6288   31.4312   47.1103 H   0  0  0  0  0  0  0  0  0  0  0  0
   61.9940   32.1370   49.1600 H   0  0  0  0  0  0  0  0  0  0  0  0
   64.0594   34.2362   48.8951 H   0  0  0  0  0  0  0  0  0  0  0  0
   62.3252   34.4542   48.4434 H   0  0  0  0  0  0  0  0  0  0  0  0
   63.5365   33.9199   51.1836 H   0  0  0  0  0  0  0  0  0  0  0  0
   62.4303   35.2556   50.6443 H   0  0  0  0  0  0  0  0  0  0  0  0
   61.7566   32.3438   51.2204 H   0  0  0  0  0  0  0  0  0  0  0  0
   61.0487   33.8354   51.9356 H   0  0  0  0  0  0  0  0  0  0  0  0
   59.4203   32.4388   51.5137 H   0  0  0  0  0  0  0  0  0  0  0  0
   58.4490   33.5133   50.4537 H   0  0  0  0  0  0  0  0  0  0  0  0
   59.0269   30.6678   50.1707 H   0  0  0  0  0  0  0  0  0  0  0  0
   57.9026   31.7103   49.2203 H   0  0  0  0  0  0  0  0  0  0  0  0
   60.8440   31.7720   48.6250 H   0  0  0  0  0  0  0  0  0  0  0  0
   59.1431   29.1528   47.8714 H   0  0  0  0  0  0  0  0  0  0  0  0
   57.9663   27.3488   46.6334 H   0  0  0  0  0  0  0  0  0  0  0  0
   56.8563   27.8369   44.4624 H   0  0  0  0  0  0  0  0  0  0  0  0
   56.9997   30.1045   43.4598 H   0  0  0  0  0  0  0  0  0  0  0  0
   56.9315   33.0177   43.1394 H   0  0  0  0  0  0  0  0  0  0  0  0
   58.6436   33.0632   42.5977 H   0  0  0  0  0  0  0  0  0  0  0  0
   57.7426   31.5092   42.5977 H   0  0  0  0  0  0  0  0  0  0  0  0
   58.6323   34.9736   43.9229 H   0  0  0  0  0  0  0  0  0  0  0  0
   59.8164   36.4442   45.7629 H   0  0  0  0  0  0  0  0  0  0  0  0
  1  2  1  0
  2  3  1  0
  3  4  1  0
  4  5  1  0
  5  6  1  0
  6  7  1  0
  7  8  1  0
  8  9  1  0
  9 10  1  0
 10 11  1  0
 11 12  2  0
 12 13  1  0
 13 14  2  0
 14 15  1  0
 15 16  2  0
 16 17  1  0
 17 18  2  0
 18 19  1  0
 18 20  1  0
 20 21  1  0
 21 22  2  0
 22 23  1  0
 23 24  1  0
 24 11  1  0
 17 12  1  0
 24 20  2  0
  1 25  1  0
  1 26  1  0
  1 27  1  0
  2 28  1  0
  2 29  1  0
  3 30  1  0
  4 31  1  0
  4 32  1  0
  5 33  1  0
  5 34  1  0
  6 35  1  0
  6 36  1  0
  8 37  1  0
  8 38  1  0
  9 39  1  0
  9 40  1  0
 10 41  1  0
 13 42  1  0
 14 43  1  0
 15 44  1  0
 16 45  1  0
 19 46  1  0
 19 47  1  0
 19 48  1  0
 21 49  1  0
 22 50  1  0
M  CHG  1  18   1
M  END
>  <UniqueID>  (5) 
5

>  <SMILES>  (5) 
CCNCCCOCCNc1c2ccccc2[n+](C)c2ccsc12

>  <Energy>  (5) 
90.57867724630654

>  <Genealogy>  (5) 
CCNCCCOCCNc1c2ccccc2[n+](C)c2ccsc12 (3D coordinates assigned)
CCNCCCOCCNc1c2ccccc2[n+](C)c2ccsc12 (optimized conformer: 90.57867724630654 kcal/mol)

>  <smiles>  (5) 
CCNCCCOCCNc1c2ccccc2[n+](C)c2ccsc12

>  <score_type>  (5) 
oracle

>  <origin>  (5) 
adg

>  <m_score__min__energy>  (5) 
-5.1600000000000001

>  <m_primary>  (5) 
energy

$$$$
5:0
     RDKit          3D

 68 70  0  0  0  0  0  0  0  0999 V2000
   63.1190   33.9600   46.3810 C   0  0  0  0  0  0  0  0  0  0  0  0
   63.0980   32.6730   47.2170 C   0  0  0  0  0  0  0  0  0  0  0  0
   64.1240   32.6800   48.2760 N   0  0  0  0  0  0  0  0  0  0  0  0
   63.5480   32.5520   49.6250 C   0  0  0  0  0  0  0  0  0  0  0  0
   62.2960   33.4270   49.7760 C   0  0  0  0  0  0  0  0  0  0  0  0
   61.3470   32.8750   50.8530 C   0  0  0  0  0  0  0  0  0  0  0  0
   60.0570   32.6110   50.3320 O   0  0  0  0  0  0  0  0  0  0  0  0
   59.0410   32.9330   51.2660 C   0  0  0  0  0  0  0  0  0  0  0  0
   57.7990   32.0920   50.9670 C   0  0  0  0  0  0  0  0  0  0  0  0
   58.1670   30.7800   50.5790 O   0  0  0  0  0  0  0  0  0  0  0  0
   58.5710   29.9980   51.6900 C   0  0  0  0  0  0  0  0  0  0  0  0
   59.7890   29.1510   51.3270 C   0  0  0  0  0  0  0  0  0  0  0  0
   59.7220   28.8050   49.9620 O   0  0  0  0  0  0  0  0  0  0  0  0
   60.9640   29.0360   49.3320 C   0  0  0  0  0  0  0  0  0  0  0  0
   60.8430   30.2760   48.4360 C   0  0  0  0  0  0  0  0  0  0  0  0
   59.4920   30.8770   48.4390 N   0  0  0  0  0  0  0  0  0  0  0  0
   59.0390   31.2850   47.1110 C   0  0  0  0  0  0  0  0  0  0  0  0
   58.4180   30.3580   46.2210 C   0  0  0  0  0  0  0  0  0  0  0  0
   58.2110   28.9950   46.5650 C   0  0  0  0  0  0  0  0  0  0  0  0
   57.5670   28.1170   45.6970 C   0  0  0  0  0  0  0  0  0  0  0  0
   57.0840   28.5690   44.4790 C   0  0  0  0  0  0  0  0  0  0  0  0
   57.2850   29.8920   44.1020 C   0  0  0  0  0  0  0  0  0  0  0  0
   58.0020   30.7970   44.9280 C   0  0  0  0  0  0  0  0  0  0  0  0
   58.2980   32.0710   44.4900 N   0  0  0  0  0  0  0  0  0  0  0  0
   58.1430   32.4060   43.0520 C   0  0  0  0  0  0  0  0  0  0  0  0
   58.7810   33.0180   45.3750 C   0  0  0  0  0  0  0  0  0  0  0  0
   58.8650   34.3900   45.0120 C   0  0  0  0  0  0  0  0  0  0  0  0
   59.4170   35.3380   45.8710 C   0  0  0  0  0  0  0  0  0  0  0  0
   59.8730   34.9530   47.1230 C   0  0  0  0  0  0  0  0  0  0  0  0
   59.7590   33.6260   47.5340 C   0  0  0  0  0  0  0  0  0  0  0  0
   59.1960   32.6350   46.6840 C   0  0  0  0  0  0  0  0  0  0  0  0
   63.1332   34.8323   47.0510 H   0  0  0  0  0  0  0  0  0  0  0  0
   64.0174   33.9704   45.7464 H   0  0  0  0  0  0  0  0  0  0  0  0
   62.2214   33.9997   45.7464 H   0  0  0  0  0  0  0  0  0  0  0  0
   62.1074   32.5701   47.6841 H   0  0  0  0  0  0  0  0  0  0  0  0
   63.3128   31.8297   46.5442 H   0  0  0  0  0  0  0  0  0  0  0  0
   64.7970   31.8940   48.1160 H   0  0  0  0  0  0  0  0  0  0  0  0
   63.2753   31.5010   49.8010 H   0  0  0  0  0  0  0  0  0  0  0  0
   64.2975   32.8847   50.3582 H   0  0  0  0  0  0  0  0  0  0  0  0
   62.6035   34.4446   50.0586 H   0  0  0  0  0  0  0  0  0  0  0  0
   61.7609   33.4313   48.8149 H   0  0  0  0  0  0  0  0  0  0  0  0
   61.7675   31.9406   51.2530 H   0  0  0  0  0  0  0  0  0  0  0  0
   61.2479   33.6341   51.6430 H   0  0  0  0  0  0  0  0  0  0  0  0
   59.3955   32.7166   52.2846 H   0  0  0  0  0  0  0  0  0  0  0  0
   58.7918   34.0015   51.1876 H   0  0  0  0  0  0  0  0  0  0  0  0
   57.1720   32.0397   51.8693 H   0  0  0  0  0  0  0  0  0  0  0  0
   57.2419   32.5624   50.1433 H   0  0  0  0  0  0  0  0  0  0  0  0
   58.8281   30.6631   52.5276 H   0  0  0  0  0  0  0  0  0  0  0  0
   57.7446   29.3315   51.9780 H   0  0  0  0  0  0  0  0  0  0  0  0
   60.7071   29.7266   51.5162 H   0  0  0  0  0  0  0  0  0  0  0  0
   59.8004   28.2377   51.9400 H   0  0  0  0  0  0  0  0  0  0  0  0
   61.7390   29.2052   50.0941 H   0  0  0  0  0  0  0  0  0  0  0  0
   61.2422   28.1624   48.7242 H   0  0  0  0  0  0  0  0  0  0  0  0
   61.5608   31.0314   48.7884 H   0  0  0  0  0  0  0  0  0  0  0  0
   61.0503   29.9517   47.4055 H   0  0  0  0  0  0  0  0  0  0  0  0
   59.4850   31.7000   49.0820 H   0  0  0  0  0  0  0  0  0  0  0  0
   58.8310   30.2360   48.9210 H   0  0  0  0  0  0  0  0  0  0  0  0
   58.5671   28.6254   47.5379 H   0  0  0  0  0  0  0  0  0  0  0  0
   57.4412   27.0612   45.9789 H   0  0  0  0  0  0  0  0  0  0  0  0
   56.5426   27.8822   43.8118 H   0  0  0  0  0  0  0  0  0  0  0  0
   56.8795   30.2454   43.1425 H   0  0  0  0  0  0  0  0  0  0  0  0
   57.6829   33.4004   42.9547 H   0  0  0  0  0  0  0  0  0  0  0  0
   59.1308   32.4100   42.5679 H   0  0  0  0  0  0  0  0  0  0  0  0
   57.5005   31.6558   42.5679 H   0  0  0  0  0  0  0  0  0  0  0  0
   58.4855   34.7104   44.0305 H   0  0  0  0  0  0  0  0  0  0  0  0
   59.4910   36.3896   45.5569 H   0  0  0  0  0  0  0  0  0  0  0  0
   60.3262   35.6975   47.7940 H   0  0  0  0  0  0  0  0  0  0  0  0
   60.1116   33.3398   48.5359 H   0  0  0  0  0  0  0  0  0  0  0  0
  1  2  1  0
  2  3  1  0
  3  4  1  0
  4  5  1  0
  5  6  1  0
  6  7  1  0
  7  8  1  0
  8  9  1  0
  9 10  1  0
 10 11  1  0
 11 12  1  0
 12 13  1  0
 13 14  1  0
 14 15  1  0
 15 16  1  0
 16 17  1  0
 17 18  2  0
 18 19  1  0
 19 20  2  0
 20 21  1  0
 21 22  2  0
 22 23  1  0
 23 24  2  0
 24 25  1  0
 24 26  1  0
 26 27  2  0
 27 28  1  0
 28 29  2  0
 29 30  1  0
 30 31  2  0
 31 17  1  0
 23 18  1  0
 31 26  1  0
  1 32  1  0
  1 33  1  0
  1 34  1  0
  2 35  1  0
  2 36  1  0
  3 37  1  0
  4 38  1  0
  4 39  1  0
  5 40  1  0
  5 41  1  0
  6 42  1  0
  6 43  1  0
  8 44  1  0
  8 45  1  0
  9 46  1  0
  9 47  1  0
 11 48  1  0
 11 49  1  0
 12 50  1  0
 12 51  1  0
 14 52  1  0
 14 53  1  0
 15 54  1  0
 15 55  1  0
 16 56  1  0
 16 57  1  0
 19 58  1  0
 20 59  1  0
 21 60  1  0
 22 61  1  0
 25 62  1  0
 25 63  1  0
 25 64  1  0
 27 65  1  0
 28 66  1  0
 29 67  1  0
 30 68  1  0
M  CHG  2  16   1  24   1
M  END
>  <UniqueID>  (6) 
6

>  <SMILES>  (6) 
CCNCCCOCCOCCOCC[NH2+]c1c2ccccc2[n+](C)c2ccccc12

>  <Energy>  (6) 
92.83416677469904

>  <Genealogy>  (6) 
CCNCCCOCCOCCOCC[NH2+]c1c2ccccc2[n+](C)c2ccccc12 (protonated)
CCNCCCOCCOCCOCC[NH2+]c1c2ccccc2[n+](C)c2ccccc12 (3D coordinates assigned)
CCNCCCOCCOCCOCC[NH2+]c1c2ccccc2[n+](C)c2ccccc12 (optimized conformer: 92.83416677469904 kcal/mol)

>  <smiles>  (6) 
CCNCCCOCCOCCOCCNc1c2ccccc2[n+](C)c2ccccc12

>  <score_type>  (6) 
oracle

>  <origin>  (6) 
adg

>  <m_score__min__energy>  (6) 
-3.5099999999999998

>  <m_primary>  (6) 
energy

$$$$
6:0
     RDKit          3D

 30 31  0  0  0  0  0  0  0  0999 V2000
   57.0220   31.1990   42.3230 C   0  0  0  0  0  0  0  0  0  0  0  0
   56.4800   29.8060   42.6190 C   0  0  0  0  0  0  0  0  0  0  0  0
   55.9190   29.6540   44.3520 S   0  0  0  0  0  0  0  0  0  0  0  0
   57.3220   30.5390   45.0590 C   0  0  0  0  0  0  0  0  0  0  0  0
   57.1810   31.8770   45.2480 N   0  0  0  0  0  0  0  0  0  0  0  0
   58.1740   32.6310   45.7730 C   0  0  0  0  0  0  0  0  0  0  0  0
   57.9930   34.0080   45.9420 C   0  0  0  0  0  0  0  0  0  0  0  0
   59.0180   34.7870   46.4880 C   0  0  0  0  0  0  0  0  0  0  0  0
   60.2240   34.1920   46.8660 C   0  0  0  0  0  0  0  0  0  0  0  0
   60.4110   32.8150   46.7010 C   0  0  0  0  0  0  0  0  0  0  0  0
   59.3840   32.0240   46.1510 C   0  0  0  0  0  0  0  0  0  0  0  0
   59.5170   30.6370   45.9720 C   0  0  0  0  0  0  0  0  0  0  0  0
   60.5860   30.0640   46.3290 O   0  0  0  0  0  0  0  0  0  0  0  0
   58.4900   29.9060   45.4190 N   0  0  0  0  0  0  0  0  0  0  0  0
   58.6240   28.4380   45.3060 C   0  0  0  0  0  0  0  0  0  0  0  0
   58.1230   27.7560   46.5760 C   0  0  0  0  0  0  0  0  0  0  0  0
   57.2255   31.7219   43.2691 H   0  0  0  0  0  0  0  0  0  0  0  0
   57.9529   31.1147   41.7431 H   0  0  0  0  0  0  0  0  0  0  0  0
   56.2789   31.7660   41.7431 H   0  0  0  0  0  0  0  0  0  0  0  0
   55.6303   29.6044   41.9501 H   0  0  0  0  0  0  0  0  0  0  0  0
   57.2905   29.0805   42.4557 H   0  0  0  0  0  0  0  0  0  0  0  0
   57.0439   34.4782   45.6452 H   0  0  0  0  0  0  0  0  0  0  0  0
   58.8744   35.8696   46.6200 H   0  0  0  0  0  0  0  0  0  0  0  0
   61.0288   34.8075   47.2945 H   0  0  0  0  0  0  0  0  0  0  0  0
   61.3615   32.3499   47.0013 H   0  0  0  0  0  0  0  0  0  0  0  0
   58.0323   28.0855   44.4483 H   0  0  0  0  0  0  0  0  0  0  0  0
   59.6856   28.1877   45.1630 H   0  0  0  0  0  0  0  0  0  0  0  0
   58.5136   28.2877   47.4562 H   0  0  0  0  0  0  0  0  0  0  0  0
   57.0233   27.7761   46.5936 H   0  0  0  0  0  0  0  0  0  0  0  0
   58.4710   26.7126   46.5936 H   0  0  0  0  0  0  0  0  0  0  0  0
  1  2  1  0
  2  3  1  0
  3  4  1  0
  4  5  2  0
  5  6  1  0
  6  7  2  0
  7  8  1  0
  8  9  2  0
  9 10  1  0
 10 11  2  0
 11 12  1  0
 12 13  2  0
 12 14  1  0
 14 15  1  0
 15 16  1  0
 14  4  1  0
 11  6  1  0
  1 17  1  0
  1 18  1  0
  1 19  1  0
  2 20  1  0
  2 21  1  0
  7 22  1  0
  8 23  1  0
  9 24  1  0
 10 25  1  0
 15 26  1  0
 15 27  1  0
 16 28  1  0
 16 29  1  0
 16 30  1  0
M  END
>  <UniqueID>  (7) 
7

>  <SMILES>  (7) 
CCSc1nc2ccccc2c(=O)n1CC

>  <Energy>  (7) 
30.093678553861295

>  <Genealogy>  (7) 
CCSc1nc2ccccc2c(=O)n1CC (3D coordinates assigned)
CCSc1nc2ccccc2c(=O)n1CC (optimized conformer: 30.093678553861295 kcal/mol)

>  <smiles>  (7) 
CCSc1nc2ccccc2c(=O)n1CC

>  <score_type>  (7) 
oracle

>  <origin>  (7) 
adg

>  <m_score__min__energy>  (7) 
-5.9900000000000002

>  <m_primary>  (7) 
energy

$$$$
7:0
     RDKit          3D

 50 52  0  0  0  0  0  0  0  0999 V2000
   56.2800   29.8320   42.6700 C   0  0  0  0  0  0  0  0  0  0  0  0
   56.4630   30.2950   44.1130 C   0  0  0  0  0  0  0  0  0  0  0  0
   56.0290   29.2710   45.0760 N   0  0  0  0  0  0  0  0  0  0  0  0
   56.9750   28.1530   45.2630 C   0  0  0  0  0  0  0  0  0  0  0  0
   58.3960   28.4060   44.7120 C   0  0  0  0  0  0  0  0  0  0  0  0
   59.2900   29.2910   45.6030 C   0  0  0  0  0  0  0  0  0  0  0  0
   58.5110   30.0370   46.6120 N   0  0  0  0  0  0  0  0  0  0  0  0
   59.2270   31.2280   47.0510 C   0  0  0  0  0  0  0  0  0  0  0  0
   59.0660   32.4540   46.3670 C   0  0  0  0  0  0  0  0  0  0  0  0
   57.8750   32.7590   45.6740 C   0  0  0  0  0  0  0  0  0  0  0  0
   57.7280   33.9760   45.0120 C   0  0  0  0  0  0  0  0  0  0  0  0
   58.7540   34.9130   45.0410 C   0  0  0  0  0  0  0  0  0  0  0  0
   59.9400   34.6340   45.7190 C   0  0  0  0  0  0  0  0  0  0  0  0
   60.1270   33.3940   46.3780 C   0  0  0  0  0  0  0  0  0  0  0  0
   61.3110   33.0790   47.0130 N   0  0  0  0  0  0  0  0  0  0  0  0
   62.5380   33.8500   46.7140 C   0  0  0  0  0  0  0  0  0  0  0  0
   61.3340   32.0610   47.9480 C   0  0  0  0  0  0  0  0  0  0  0  0
   62.4210   31.9070   48.8410 C   0  0  0  0  0  0  0  0  0  0  0  0
   62.4190   30.9130   49.8110 C   0  0  0  0  0  0  0  0  0  0  0  0
   61.3020   30.1070   49.9810 C   0  0  0  0  0  0  0  0  0  0  0  0
   60.1780   30.2590   49.1590 C   0  0  0  0  0  0  0  0  0  0  0  0
   58.9120   29.5780   49.6210 C   0  0  0  0  0  0  0  0  0  0  0  0
   60.2350   31.1580   48.0490 C   0  0  0  0  0  0  0  0  0  0  0  0
   55.8757   28.8090   42.6616 H   0  0  0  0  0  0  0  0  0  0  0  0
   55.5810   30.5068   42.1543 H   0  0  0  0  0  0  0  0  0  0  0  0
   57.2515   29.8465   42.1543 H   0  0  0  0  0  0  0  0  0  0  0  0
   57.5271   30.5156   44.2836 H   0  0  0  0  0  0  0  0  0  0  0  0
   55.8433   31.1910   44.2651 H   0  0  0  0  0  0  0  0  0  0  0  0
   55.8410   29.7280   45.9970 H   0  0  0  0  0  0  0  0  0  0  0  0
   57.0572   27.9513   46.3412 H   0  0  0  0  0  0  0  0  0  0  0  0
   56.5684   27.3053   44.6920 H   0  0  0  0  0  0  0  0  0  0  0  0
   58.8931   27.4325   44.5891 H   0  0  0  0  0  0  0  0  0  0  0  0
   58.2671   28.9518   43.7657 H   0  0  0  0  0  0  0  0  0  0  0  0
   60.0183   28.6499   46.1212 H   0  0  0  0  0  0  0  0  0  0  0  0
   59.7911   30.0246   44.9544 H   0  0  0  0  0  0  0  0  0  0  0  0
   57.5720   30.3050   46.2410 H   0  0  0  0  0  0  0  0  0  0  0  0
   58.3730   29.3750   47.4020 H   0  0  0  0  0  0  0  0  0  0  0  0
   57.0536   32.0276   45.6563 H   0  0  0  0  0  0  0  0  0  0  0  0
   56.7988   34.1955   44.4657 H   0  0  0  0  0  0  0  0  0  0  0  0
   58.6300   35.8778   44.5274 H   0  0  0  0  0  0  0  0  0  0  0  0
   60.7414   35.3871   45.7425 H   0  0  0  0  0  0  0  0  0  0  0  0
   63.0195   34.1526   47.6556 H   0  0  0  0  0  0  0  0  0  0  0  0
   63.2312   33.2248   46.1321 H   0  0  0  0  0  0  0  0  0  0  0  0
   62.2755   34.7458   46.1321 H   0  0  0  0  0  0  0  0  0  0  0  0
   63.2827   32.5865   48.7655 H   0  0  0  0  0  0  0  0  0  0  0  0
   63.3048   30.7642   50.4460 H   0  0  0  0  0  0  0  0  0  0  0  0
   61.2993   29.3404   50.7699 H   0  0  0  0  0  0  0  0  0  0  0  0
   58.8840   29.5630   50.7205 H   0  0  0  0  0  0  0  0  0  0  0  0
   58.0394   30.1284   49.2395 H   0  0  0  0  0  0  0  0  0  0  0  0
   58.8903   28.5465   49.2395 H   0  0  0  0  0  0  0  0  0  0  0  0
  1  2  1  0
  2  3  1  0
  3  4  1  0
  4  5  1  0
  5  6  1  0
  6  7  1  0
  7  8  1  0
  8  9  2  0
  9 10  1  0
 10 11  2  0
 11 12  1  0
 12 13  2  0
 13 14  1  0
 14 15  2  0
 15 16  1  0
 15 17  1  0
 17 18  2  0
 18 19  1  0
 19 20  2  0
 20 21  1  0
 21 22  1  0
 21 23  2  0
 23  8  1  0
 14  9  1  0
 23 17  1  0
  1 24  1  0
  1 25  1  0
  1 26  1  0
  2 27  1  0
  2 28  1  0
  3 29  1  0
  4 30  1  0
  4 31  1  0
  5 32  1  0
  5 33  1  0
  6 34  1  0
  6 35  1  0
  7 36  1  0
  7 37  1  0
 10 38  1  0
 11 39  1  0
 12 40  1  0
 13 41  1  0
 16 42  1  0
 16 43  1  0
 16 44  1  0
 18 45  1  0
 19 46  1  0
 20 47  1  0
 22 48  1  0
 22 49  1  0
 22 50  1  0
M  CHG  2   7   1  15   1
M  END
>  <UniqueID>  (8) 
8

>  <SMILES>  (8) 
CCNCCC[NH2+]c1c2ccccc2[n+](C)c2cccc(C)c12

>  <Energy>  (8) 
90.88269558069817

>  <Genealogy>  (8) 
CCNCCC[NH2+]c1c2ccccc2[n+](C)c2cccc(C)c12 (protonated)
CCNCCC[NH2+]c1c2ccccc2[n+](C)c2cccc(C)c12 (3D coordinates assigned)
CCNCCC[NH2+]c1c2ccccc2[n+](C)c2cccc(C)c12 (optimized conformer: 90.88269558069817 kcal/mol)

>  <smiles>  (8) 
CCNCCCNc1c2ccccc2[n+](C)c2cccc(C)c12

>  <score_type>  (8) 
oracle

>  <origin>  (8) 
adg

>  <m_score__min__energy>  (8) 
-4.4699999999999998

>  <m_primary>  (8) 
energy

$$$$
8:0
     RDKit          3D

 73 75  0  0  0  0  0  0  0  0999 V2000
   58.6600   34.2950   52.5820 C   0  0  0  0  0  0  0  0  0  0  0  0
   59.2960   33.3120   51.5790 C   0  0  0  0  0  0  0  0  0  0  0  0
   58.5940   31.9920   51.4180 N   0  0  0  0  0  0  0  0  0  0  0  0
   59.3880   30.9170   52.0770 C   0  0  0  0  0  0  0  0  0  0  0  0
   57.2400   32.0770   52.0740 C   0  0  0  0  0  0  0  0  0  0  0  0
   56.3890   30.7930   51.9940 C   0  0  0  0  0  0  0  0  0  0  0  0
   58.3910   31.6870   49.9520 C   0  0  0  0  0  0  0  0  0  0  0  0
   59.2670   30.5770   49.2840 C   0  0  0  0  0  0  0  0  0  0  0  0
   60.2240   31.0650   48.2690 N   0  0  0  0  0  0  0  0  0  0  0  0
   59.7150   30.9810   46.8990 C   0  0  0  0  0  0  0  0  0  0  0  0
   59.5760   29.7140   46.2730 C   0  0  0  0  0  0  0  0  0  0  0  0
   60.3590   28.5990   46.6610 C   0  0  0  0  0  0  0  0  0  0  0  0
   60.1030   27.3280   46.1500 C   0  0  0  0  0  0  0  0  0  0  0  0
   59.0740   27.1430   45.2390 C   0  0  0  0  0  0  0  0  0  0  0  0
   58.3570   28.2380   44.7650 C   0  0  0  0  0  0  0  0  0  0  0  0
   58.6450   29.5540   45.2110 C   0  0  0  0  0  0  0  0  0  0  0  0
   58.0290   30.6540   44.6510 N   0  0  0  0  0  0  0  0  0  0  0  0
   57.2910   30.5140   43.3730 C   0  0  0  0  0  0  0  0  0  0  0  0
   58.1820   31.9030   45.2200 C   0  0  0  0  0  0  0  0  0  0  0  0
   57.3820   32.9960   44.7990 C   0  0  0  0  0  0  0  0  0  0  0  0
   57.6100   34.2800   45.2780 C   0  0  0  0  0  0  0  0  0  0  0  0
   58.6580   34.5180   46.1530 C   0  0  0  0  0  0  0  0  0  0  0  0
   59.4520   33.4650   46.6190 C   0  0  0  0  0  0  0  0  0  0  0  0
   60.6570   33.8000   47.3240 N   0  0  0  0  0  0  0  0  0  0  0  0
   60.6480   34.5760   48.5640 C   0  0  0  0  0  0  0  0  0  0  0  0
   61.8620   34.2190   49.4240 C   0  0  0  0  0  0  0  0  0  0  0  0
   62.9680   33.5470   48.5960 C   0  0  0  0  0  0  0  0  0  0  0  0
   62.6560   32.1240   48.3260 N   0  0  0  0  0  0  0  0  0  0  0  0
   63.3580   31.6450   47.1210 C   0  0  0  0  0  0  0  0  0  0  0  0
   63.0250   31.2900   49.4790 C   0  0  0  0  0  0  0  0  0  0  0  0
   59.1410   32.1170   46.2550 C   0  0  0  0  0  0  0  0  0  0  0  0
   58.8753   33.9623   53.6081 H   0  0  0  0  0  0  0  0  0  0  0  0
   59.0796   35.2999   52.4268 H   0  0  0  0  0  0  0  0  0  0  0  0
   57.5714   34.3241   52.4268 H   0  0  0  0  0  0  0  0  0  0  0  0
   59.3202   33.8031   50.5950 H   0  0  0  0  0  0  0  0  0  0  0  0
   60.2897   33.0730   51.9858 H   0  0  0  0  0  0  0  0  0  0  0  0
   59.3109   31.0214   53.1693 H   0  0  0  0  0  0  0  0  0  0  0  0
   58.9972   29.9344   51.7741 H   0  0  0  0  0  0  0  0  0  0  0  0
   60.4421   31.0016   51.7741 H   0  0  0  0  0  0  0  0  0  0  0  0
   57.3913   32.3192   53.1363 H   0  0  0  0  0  0  0  0  0  0  0  0
   56.6817   32.8477   51.5224 H   0  0  0  0  0  0  0  0  0  0  0  0
   56.1570   30.4429   53.0107 H   0  0  0  0  0  0  0  0  0  0  0  0
   55.4529   31.0064   51.4571 H   0  0  0  0  0  0  0  0  0  0  0  0
   56.9502   30.0140   51.4571 H   0  0  0  0  0  0  0  0  0  0  0  0
   57.3398   31.3880   49.8267 H   0  0  0  0  0  0  0  0  0  0  0  0
   58.7006   32.6117   49.4431 H   0  0  0  0  0  0  0  0  0  0  0  0
   59.8379   30.0699   50.0758 H   0  0  0  0  0  0  0  0  0  0  0  0
   58.5695   29.9111   48.7548 H   0  0  0  0  0  0  0  0  0  0  0  0
   60.5070   32.0400   48.4910 H   0  0  0  0  0  0  0  0  0  0  0  0
   61.0950   30.5290   48.4170 H   0  0  0  0  0  0  0  0  0  0  0  0
   61.1822   28.7387   47.3771 H   0  0  0  0  0  0  0  0  0  0  0  0
   60.7165   26.4725   46.4689 H   0  0  0  0  0  0  0  0  0  0  0  0
   58.8241   26.1300   44.8906 H   0  0  0  0  0  0  0  0  0  0  0  0
   57.5526   28.0803   44.0314 H   0  0  0  0  0  0  0  0  0  0  0  0
   56.2300   30.3127   43.5824 H   0  0  0  0  0  0  0  0  0  0  0  0
   57.3803   31.4451   42.7941 H   0  0  0  0  0  0  0  0  0  0  0  0
   57.7151   29.6803   42.7941 H   0  0  0  0  0  0  0  0  0  0  0  0
   56.5668   32.8240   44.0807 H   0  0  0  0  0  0  0  0  0  0  0  0
   56.9583   35.1082   44.9626 H   0  0  0  0  0  0  0  0  0  0  0  0
   58.8676   35.5457   46.4845 H   0  0  0  0  0  0  0  0  0  0  0  0
   61.5660   33.4530   46.9480 H   0  0  0  0  0  0  0  0  0  0  0  0
   60.6785   35.6484   48.3210 H   0  0  0  0  0  0  0  0  0  0  0  0
   59.7313   34.3421   49.1252 H   0  0  0  0  0  0  0  0  0  0  0  0
   62.2630   35.1392   49.8739 H   0  0  0  0  0  0  0  0  0  0  0  0
   61.5360   33.5102   50.1995 H   0  0  0  0  0  0  0  0  0  0  0  0
   63.0703   34.0784   47.6383 H   0  0  0  0  0  0  0  0  0  0  0  0
   63.9048   33.5917   49.1709 H   0  0  0  0  0  0  0  0  0  0  0  0
   64.2326   31.0482   47.4191 H   0  0  0  0  0  0  0  0  0  0  0  0
   62.6763   31.0228   46.5225 H   0  0  0  0  0  0  0  0  0  0  0  0
   63.6887   32.5066   46.5225 H   0  0  0  0  0  0  0  0  0  0  0  0
   62.7879   31.8258   50.4100 H   0  0  0  0  0  0  0  0  0  0  0  0
   62.4603   30.3467   49.4449 H   0  0  0  0  0  0  0  0  0  0  0  0
   64.1029   31.0735   49.4449 H   0  0  0  0  0  0  0  0  0  0  0  0
  1  2  1  0
  2  3  1  0
  3  4  1  0
  3  5  1  0
  5  6  1  0
  3  7  1  0
  7  8  1  0
  8  9  1  0
  9 10  1  0
 10 11  2  0
 11 12  1  0
 12 13  2  0
 13 14  1  0
 14 15  2  0
 15 16  1  0
 16 17  2  0
 17 18  1  0
 17 19  1  0
 19 20  2  0
 20 21  1  0
 21 22  2  0
 22 23  1  0
 23 24  1  0
 24 25  1  0
 25 26  1  0
 26 27  1  0
 27 28  1  0
 28 29  1  0
 28 30  1  0
 23 31  2  0
 31 10  1  0
 16 11  1  0
 31 19  1  0
  1 32  1  0
  1 33  1  0
  1 34  1  0
  2 35  1  0
  2 36  1  0
  4 37  1  0
  4 38  1  0
  4 39  1  0
  5 40  1  0
  5 41  1  0
  6 42  1  0
  6 43  1  0
  6 44  1  0
  7 45  1  0
  7 46  1  0
  8 47  1  0
  8 48  1  0
  9 49  1  0
  9 50  1  0
 12 51  1  0
 13 52  1  0
 14 53  1  0
 15 54  1  0
 18 55  1  0
 18 56  1  0
 18 57  1  0
 20 58  1  0
 21 59  1  0
 22 60  1  0
 24 61  1  0
 25 62  1  0
 25 63  1  0
 26 64  1  0
 26 65  1  0
 27 66  1  0
 27 67  1  0
 29 68  1  0
 29 69  1  0
 29 70  1  0
 30 71  1  0
 30 72  1  0
 30 73  1  0
M  CHG  3   3   1   9   1  17   1
M  END
>  <UniqueID>  (9) 
9

>  <SMILES>  (9) 
CC[N+](C)(CC)CC[NH2+]c1c2ccccc2[n+](C)c2cccc(NCCCN(C)C)c12

>  <Energy>  (9) 
134.21992370420347

>  <Genealogy>  (9) 
CC[N+](C)(CC)CC[NH2+]c1c2ccccc2[n+](C)c2cccc(NCCCN(C)C)c12 (protonated)
CC[N+](C)(CC)CC[NH2+]c1c2ccccc2[n+](C)c2cccc(NCCCN(C)C)c12 (3D coordinates assigned)
CC[N+](C)(CC)CC[NH2+]c1c2ccccc2[n+](C)c2cccc(NCCCN(C)C)c12 (optimized conformer: 134.21992370420347 kcal/mol)

>  <smiles>  (9) 
CC[N+](C)(CC)CCNc1c2ccccc2[n+](C)c2cccc(NCCCN(C)C)c12

>  <score_type>  (9) 
oracle

>  <origin>  (9) 
adg

>  <m_score__min__energy>  (9) 
-2.8199999999999998

>  <m_primary>  (9) 
energy

$$$$
9:0
     RDKit          3D

 39 41  0  0  0  0  0  0  0  0999 V2000
   59.9120   29.0930   47.0120 C   0  0  0  0  0  0  0  0  0  0  0  0
   59.9740   29.7190   45.6200 C   0  0  0  0  0  0  0  0  0  0  0  0
   59.0680   30.8920   45.5210 N   0  0  0  0  0  0  0  0  0  0  0  0
   57.8620   30.7750   44.8470 C   0  0  0  0  0  0  0  0  0  0  0  0
   57.3790   29.4760   44.2280 C   0  0  0  0  0  0  0  0  0  0  0  0
   56.4160   28.8120   45.1200 N   0  0  0  0  0  0  0  0  0  0  0  0
   57.0710   27.8120   45.9750 C   0  0  0  0  0  0  0  0  0  0  0  0
   56.3650   26.4870   45.9160 C   0  0  0  0  0  0  0  0  0  0  0  0
   56.9490   25.2500   46.0990 C   0  0  0  0  0  0  0  0  0  0  0  0
   55.9360   24.3340   45.9170 C   0  0  0  0  0  0  0  0  0  0  0  0
   54.8010   25.0670   45.6370 C   0  0  0  0  0  0  0  0  0  0  0  0
   55.0880   26.3480   45.6430 O   0  0  0  0  0  0  0  0  0  0  0  0
   57.0450   31.8960   44.6600 C   0  0  0  0  0  0  0  0  0  0  0  0
   57.4010   33.1250   45.1900 C   0  0  0  0  0  0  0  0  0  0  0  0
   56.6440   34.1170   45.0010 O   0  0  0  0  0  0  0  0  0  0  0  0
   58.5810   33.2460   45.9320 C   0  0  0  0  0  0  0  0  0  0  0  0
   58.9400   34.4820   46.5040 C   0  0  0  0  0  0  0  0  0  0  0  0
   60.1020   34.6010   47.2600 C   0  0  0  0  0  0  0  0  0  0  0  0
   60.9170   33.4920   47.4640 C   0  0  0  0  0  0  0  0  0  0  0  0
   62.3700   33.6480   48.4380 Cl  0  0  0  0  0  0  0  0  0  0  0  0
   60.5820   32.2580   46.9020 C   0  0  0  0  0  0  0  0  0  0  0  0
   59.4130   32.1030   46.1090 C   0  0  0  0  0  0  0  0  0  0  0  0
   59.9903   29.8832   47.7732 H   0  0  0  0  0  0  0  0  0  0  0  0
   58.9568   28.5610   47.1326 H   0  0  0  0  0  0  0  0  0  0  0  0
   60.7443   28.3840   47.1326 H   0  0  0  0  0  0  0  0  0  0  0  0
   61.0054   30.0434   45.4175 H   0  0  0  0  0  0  0  0  0  0  0  0
   59.6540   28.9669   44.8838 H   0  0  0  0  0  0  0  0  0  0  0  0
   56.8927   29.6917   43.2652 H   0  0  0  0  0  0  0  0  0  0  0  0
   58.2414   28.8108   44.0741 H   0  0  0  0  0  0  0  0  0  0  0  0
   55.6630   28.3450   44.5610 H   0  0  0  0  0  0  0  0  0  0  0  0
   58.1094   27.6787   45.6374 H   0  0  0  0  0  0  0  0  0  0  0  0
   57.0392   28.1731   47.0135 H   0  0  0  0  0  0  0  0  0  0  0  0
   58.0016   25.0397   46.3395 H   0  0  0  0  0  0  0  0  0  0  0  0
   56.0160   23.2388   45.9819 H   0  0  0  0  0  0  0  0  0  0  0  0
   53.8059   24.6421   45.4387 H   0  0  0  0  0  0  0  0  0  0  0  0
   56.1112   31.7999   44.0866 H   0  0  0  0  0  0  0  0  0  0  0  0
   58.2962   35.3608   46.3517 H   0  0  0  0  0  0  0  0  0  0  0  0
   60.3765   35.5726   47.6967 H   0  0  0  0  0  0  0  0  0  0  0  0
   61.2351   31.3902   47.0764 H   0  0  0  0  0  0  0  0  0  0  0  0
  1  2  1  0
  2  3  1  0
  3  4  1  0
  4  5  1  0
  5  6  1  0
  6  7  1  0
  7  8  1  0
  8  9  2  0
  9 10  1  0
 10 11  2  0
 11 12  1  0
  4 13  2  0
 13 14  1  0
 14 15  2  0
 14 16  1  0
 16 17  2  0
 17 18  1  0
 18 19  2  0
 19 20  1  0
 19 21  1  0
 21 22  2  0
 22  3  1  0
 12  8  1  0
 22 16  1  0
  1 23  1  0
  1 24  1  0
  1 25  1  0
  2 26  1  0
  2 27  1  0
  5 28  1  0
  5 29  1  0
  6 30  1  0
  7 31  1  0
  7 32  1  0
  9 33  1  0
 10 34  1  0
 11 35  1  0
 13 36  1  0
 17 37  1  0
 18 38  1  0
 21 39  1  0
M  END
>  <UniqueID>  (10) 
10

>  <SMILES>  (10) 
CCn1c(CNCc2ccco2)cc(=O)c2ccc(Cl)cc21

>  <Energy>  (10) 
77.51428225783731

>  <Genealogy>  (10) 
CCn1c(CNCc2ccco2)cc(=O)c2ccc(Cl)cc21 (3D coordinates assigned)
CCn1c(CNCc2ccco2)cc(=O)c2ccc(Cl)cc21 (optimized conformer: 77.51428225783731 kcal/mol)

>  <smiles>  (10) 
CCn1c(CNCc2ccco2)cc(=O)c2ccc(Cl)cc21

>  <score_type>  (10) 
oracle

>  <origin>  (10) 
adg

>  <m_score__min__energy>  (10) 
-8.1099999999999994

>  <m_primary>  (10) 
energy

$$$$
10:0
     RDKit          3D

 34 35  0  0  0  0  0  0  0  0999 V2000
   57.4570   31.9630   41.7910 C   0  0  0  0  0  0  0  0  0  0  0  0
   57.1930   31.2490   42.9780 O   0  0  0  0  0  0  0  0  0  0  0  0
   56.4880   30.0540   42.6900 C   0  0  0  0  0  0  0  0  0  0  0  0
   55.4750   29.7460   43.7960 C   0  0  0  0  0  0  0  0  0  0  0  0
   56.1440   29.5580   45.0790 N   0  0  0  0  0  0  0  0  0  0  0  0
   56.6350   28.2940   45.5380 C   0  0  0  0  0  0  0  0  0  0  0  0
   55.8640   27.2990   45.6180 O   0  0  0  0  0  0  0  0  0  0  0  0
   58.0800   28.1460   45.8890 C   0  0  0  0  0  0  0  0  0  0  0  0
   59.1290   29.0100   44.6710 S   0  0  0  0  0  0  0  0  0  0  0  0
   59.0880   30.5840   45.5310 C   0  0  0  0  0  0  0  0  0  0  0  0
   60.1470   30.9620   46.2840 N   0  0  0  0  0  0  0  0  0  0  0  0
   60.1360   32.1510   46.9370 C   0  0  0  0  0  0  0  0  0  0  0  0
   61.2430   32.5200   47.7070 C   0  0  0  0  0  0  0  0  0  0  0  0
   61.2360   33.7400   48.3780 C   0  0  0  0  0  0  0  0  0  0  0  0
   60.1300   34.5800   48.2750 C   0  0  0  0  0  0  0  0  0  0  0  0
   59.0370   34.1870   47.5000 C   0  0  0  0  0  0  0  0  0  0  0  0
   59.0440   32.9840   46.8390 N   0  0  0  0  0  0  0  0  0  0  0  0
   57.9740   32.5880   46.0770 C   0  0  0  0  0  0  0  0  0  0  0  0
   56.9530   33.3210   45.9630 O   0  0  0  0  0  0  0  0  0  0  0  0
   58.0030   31.3910   45.4330 N   0  0  0  0  0  0  0  0  0  0  0  0
   57.8284   32.9675   42.0422 H   0  0  0  0  0  0  0  0  0  0  0  0
   58.2167   31.4278   41.2024 H   0  0  0  0  0  0  0  0  0  0  0  0
   56.5319   32.0507   41.2024 H   0  0  0  0  0  0  0  0  0  0  0  0
   55.9558   30.1696   41.7343 H   0  0  0  0  0  0  0  0  0  0  0  0
   57.2074   29.2243   42.6270 H   0  0  0  0  0  0  0  0  0  0  0  0
   54.7667   30.5836   43.8788 H   0  0  0  0  0  0  0  0  0  0  0  0
   54.9447   28.8176   43.5375 H   0  0  0  0  0  0  0  0  0  0  0  0
   58.2555   28.5755   46.8864 H   0  0  0  0  0  0  0  0  0  0  0  0
   58.3383   27.0768   45.8841 H   0  0  0  0  0  0  0  0  0  0  0  0
   62.1132   31.8514   47.7822 H   0  0  0  0  0  0  0  0  0  0  0  0
   62.1013   34.0394   48.9875 H   0  0  0  0  0  0  0  0  0  0  0  0
   60.1175   35.5463   48.8005 H   0  0  0  0  0  0  0  0  0  0  0  0
   58.1616   34.8481   47.4184 H   0  0  0  0  0  0  0  0  0  0  0  0
   57.1860   31.0910   44.8540 H   0  0  0  0  0  0  0  0  0  0  0  0
  1  2  1  0
  2  3  1  0
  3  4  1  0
  4  5  1  0
  5  6  1  0
  6  7  2  0
  6  8  1  0
  8  9  1  0
  9 10  1  0
 10 11  1  0
 11 12  2  0
 12 13  1  0
 13 14  2  0
 14 15  1  0
 15 16  2  0
 16 17  1  0
 17 18  1  0
 18 19  2  0
 18 20  1  0
 20 10  2  0
 17 12  1  0
  1 21  1  0
  1 22  1  0
  1 23  1  0
  3 24  1  0
  3 25  1  0
  4 26  1  0
  4 27  1  0
  8 28  1  0
  8 29  1  0
 13 30  1  0
 14 31  1  0
 15 32  1  0
 16 33  1  0
 20 34  1  0
M  CHG  2   5  -1  20   1
M  END
>  <UniqueID>  (11) 
11

>  <SMILES>  (11) 
COCC[N-]C(=O)CSc1nc2ccccn2c(=O)[nH+]1

>  <Energy>  (11) 
31.89325350604125

>  <Genealogy>  (11) 
COCC[N-]C(=O)CSc1nc2ccccn2c(=O)[nH+]1 (protonated)
COCC[N-]C(=O)CSc1nc2ccccn2c(=O)[nH+]1 (3D coordinates assigned)
COCC[N-]C(=O)CSc1nc2ccccn2c(=O)[nH+]1 (optimized conformer: 31.89325350604125 kcal/mol)

>  <smiles>  (11) 
COCCNC(=O)CSc1nc(=O)n2ccccc2n1

>  <score_type>  (11) 
oracle

>  <origin>  (11) 
adg

>  <m_score__min__energy>  (11) 
-7.7199999999999998

>  <m_primary>  (11) 
energy

$$$$
11:0
     RDKit          3D

 44 46  0  0  0  0  0  0  0  0999 V2000
   59.3800   33.1770   48.0730 C   0  0  0  0  0  0  0  0  0  0  0  0
   59.9480   32.3810   49.1070 O   0  0  0  0  0  0  0  0  0  0  0  0
   59.2070   31.6050   50.0140 C   0  0  0  0  0  0  0  0  0  0  0  0
   58.1370   32.1410   50.7550 C   0  0  0  0  0  0  0  0  0  0  0  0
   57.4200   31.3450   51.6590 C   0  0  0  0  0  0  0  0  0  0  0  0
   57.7560   29.9850   51.8060 C   0  0  0  0  0  0  0  0  0  0  0  0
   58.8270   29.4550   51.0730 C   0  0  0  0  0  0  0  0  0  0  0  0
   59.5550   30.2580   50.1750 C   0  0  0  0  0  0  0  0  0  0  0  0
   60.6290   29.7520   49.4260 O   0  0  0  0  0  0  0  0  0  0  0  0
   60.6110   29.5600   48.0150 C   0  0  0  0  0  0  0  0  0  0  0  0
   57.0400   29.1110   52.8070 C   0  0  1  0  0  0  0  0  0  0  0  0
   57.8090   29.0290   53.9810 O   0  0  0  0  0  0  0  0  0  0  0  0
   55.6460   29.6740   53.1580 C   0  0  2  0  0  0  0  0  0  0  0  0
   54.6130   29.3750   52.0370 C   0  0  0  0  0  0  0  0  0  0  0  0
   53.4680   30.3570   52.0390 C   0  0  0  0  0  0  0  0  0  0  0  0
   53.1790   31.1050   50.8850 C   0  0  0  0  0  0  0  0  0  0  0  0
   52.1080   32.0040   50.8760 C   0  0  0  0  0  0  0  0  0  0  0  0
   51.3190   32.1650   52.0190 C   0  0  0  0  0  0  0  0  0  0  0  0
   50.2550   33.0580   52.0080 O   0  0  0  0  0  0  0  0  0  0  0  0
   51.6020   31.4280   53.1720 C   0  0  0  0  0  0  0  0  0  0  0  0
   52.6720   30.5280   53.1850 C   0  0  0  0  0  0  0  0  0  0  0  0
   55.7440   31.1130   53.4880 N   0  0  0  0  0  0  0  0  0  0  0  0
   56.2280   31.9430   52.3720 C   0  0  0  0  0  0  0  0  0  0  0  0
   58.7960   33.9954   48.5192 H   0  0  0  0  0  0  0  0  0  0  0  0
   60.1836   33.5971   47.4503 H   0  0  0  0  0  0  0  0  0  0  0  0
   58.7214   32.5537   47.4503 H   0  0  0  0  0  0  0  0  0  0  0  0
   57.8601   33.1974   50.6231 H   0  0  0  0  0  0  0  0  0  0  0  0
   59.1021   28.3977   51.2013 H   0  0  0  0  0  0  0  0  0  0  0  0
   60.5104   28.4875   47.7921 H   0  0  0  0  0  0  0  0  0  0  0  0
   59.7601   30.1059   47.5815 H   0  0  0  0  0  0  0  0  0  0  0  0
   61.5485   29.9383   47.5815 H   0  0  0  0  0  0  0  0  0  0  0  0
   56.9069   28.1156   52.3581 H   0  0  0  0  0  0  0  0  0  0  0  0
   58.1300   28.0920   54.0540 H   0  0  0  0  0  0  0  0  0  0  0  0
   55.2700   29.1606   54.0552 H   0  0  0  0  0  0  0  0  0  0  0  0
   55.1222   29.4269   51.0633 H   0  0  0  0  0  0  0  0  0  0  0  0
   54.1980   28.3728   52.2195 H   0  0  0  0  0  0  0  0  0  0  0  0
   53.7984   30.9827   49.9842 H   0  0  0  0  0  0  0  0  0  0  0  0
   51.8860   32.5851   49.9688 H   0  0  0  0  0  0  0  0  0  0  0  0
   50.9817   31.5561   54.0713 H   0  0  0  0  0  0  0  0  0  0  0  0
   52.8918   29.9514   54.0956 H   0  0  0  0  0  0  0  0  0  0  0  0
   54.8100   31.4710   53.7960 H   0  0  0  0  0  0  0  0  0  0  0  0
   56.3950   31.2320   54.3000 H   0  0  0  0  0  0  0  0  0  0  0  0
   55.4106   32.0638   51.6459 H   0  0  0  0  0  0  0  0  0  0  0  0
   56.5495   32.9058   52.7958 H   0  0  0  0  0  0  0  0  0  0  0  0
  1  2  1  0
  2  3  1  0
  3  4  2  0
  4  5  1  0
  5  6  2  0
  6  7  1  0
  7  8  2  0
  8  9  1  0
  9 10  1  0
  6 11  1  0
 11 12  1  0
 11 13  1  0
 13 14  1  0
 14 15  1  0
 15 16  2  0
 16 17  1  0
 17 18  2  0
 18 19  1  0
 18 20  1  0
 20 21  2  0
 13 22  1  0
 22 23  1  0
  8  3  1  0
 21 15  1  0
 23  5  1  0
  1 24  1  0
  1 25  1  0
  1 26  1  0
  4 27  1  0
  7 28  1  0
 10 29  1  0
 10 30  1  0
 10 31  1  0
 11 32  1  6
 12 33  1  0
 13 34  1  1
 14 35  1  0
 14 36  1  0
 16 37  1  0
 17 38  1  0
 20 39  1  0
 21 40  1  0
 22 41  1  0
 22 42  1  0
 23 43  1  0
 23 44  1  0
M  CHG  2  19  -1  22   1
M  END
>  <UniqueID>  (12) 
12

>  <SMILES>  (12) 
COc1cc2c(cc1OC)[C@@H](O)[C@H](Cc1ccc([O-])cc1)[NH2+]C2

>  <Energy>  (12) 
48.34875985883674

>  <Genealogy>  (12) 
COc1cc2c(cc1OC)C(O)C(Cc1ccc([O-])cc1)[NH2+]C2 (protonated)
COc1cc2c(cc1OC)[C@@H](O)[C@H](Cc1ccc([O-])cc1)[NH2+]C2 (chirality)
COc1cc2c(cc1OC)[C@@H](O)[C@H](Cc1ccc([O-])cc1)[NH2+]C2 (3D coordinates assigned)
COc1cc2c(cc1OC)[C@@H](O)[C@H](Cc1ccc([O-])cc1)[NH2+]C2 (nonaromatic ring conformer: 48.34875985883674 kcal/mol)

>  <smiles>  (12) 
COc1cc2c(cc1OC)C(O)C(Cc1ccc(O)cc1)NC2

>  <score_type>  (12) 
oracle

>  <origin>  (12) 
adg

>  <m_score__min__energy>  (12) 
-7.9000000000000004

>  <m_primary>  (12) 
energy

$$$$
12:0
     RDKit          3D

 84 86  0  0  0  0  0  0  0  0999 V2000
   56.8068   31.8256   45.1528 H   0  0  0  0  0  0  0  0  0  0  0  0
   57.2070   30.9510   44.6190 C   0  0  0  0  0  0  0  0  0  0  0  0
   57.0550   30.9080   43.2760 C   0  0  0  0  0  0  0  0  0  0  0  0
   57.6250   31.9760   42.3720 C   0  0  0  0  0  0  0  0  0  0  0  0
   58.0555   32.7826   42.9836 H   0  0  0  0  0  0  0  0  0  0  0  0
   58.4096   31.5386   41.7371 H   0  0  0  0  0  0  0  0  0  0  0  0
   56.8249   32.3844   41.7371 H   0  0  0  0  0  0  0  0  0  0  0  0
   56.2780   29.7640   42.6770 C   0  0  0  0  0  0  0  0  0  0  0  0
   55.8574   29.1447   43.4829 H   0  0  0  0  0  0  0  0  0  0  0  0
   55.4618   30.1608   42.0554 H   0  0  0  0  0  0  0  0  0  0  0  0
   56.9477   29.1515   42.0554 H   0  0  0  0  0  0  0  0  0  0  0  0
   57.8880   29.8810   45.4340 C   0  0  0  0  0  0  0  0  0  0  0  0
   57.7968   28.9168   44.9124 H   0  0  0  0  0  0  0  0  0  0  0  0
   57.4060   29.8276   46.4213 H   0  0  0  0  0  0  0  0  0  0  0  0
   59.3710   30.2100   45.6270 C   0  0  0  0  0  0  0  0  0  0  0  0
   59.5512   31.2536   45.3297 H   0  0  0  0  0  0  0  0  0  0  0  0
   59.9688   29.5277   45.0048 H   0  0  0  0  0  0  0  0  0  0  0  0
   59.7740   30.0290   47.0730 C   0  0  0  0  0  0  0  0  0  0  0  0
   58.8420   29.6470   47.9760 C   0  0  0  0  0  0  0  0  0  0  0  0
   57.7815   29.7300   47.6958 H   0  0  0  0  0  0  0  0  0  0  0  0
   59.1770   29.1150   49.3420 C   0  0  0  0  0  0  0  0  0  0  0  0
   60.0558   28.4567   49.2759 H   0  0  0  0  0  0  0  0  0  0  0  0
   58.3249   28.5420   49.7364 H   0  0  0  0  0  0  0  0  0  0  0  0
   59.4610   30.1980   50.2010 O   0  0  0  0  0  0  0  0  0  0  0  0
   59.5040   29.7740   51.5500 C   0  0  0  0  0  0  0  0  0  0  0  0
   60.5547   29.6801   51.8618 H   0  0  0  0  0  0  0  0  0  0  0  0
   58.9854   28.8068   51.6244 H   0  0  0  0  0  0  0  0  0  0  0  0
   58.7950   30.7740   52.4780 C   0  0  0  0  0  0  0  0  0  0  0  0
   59.4920   31.5910   52.7161 H   0  0  0  0  0  0  0  0  0  0  0  0
   58.4867   30.2317   53.3841 H   0  0  0  0  0  0  0  0  0  0  0  0
   57.5760   31.3520   51.8580 N   0  0  0  0  0  0  0  0  0  0  0  0
   56.3860   30.4610   51.9130 C   0  0  0  0  0  0  0  0  0  0  0  0
   56.4892   29.8091   52.7930 H   0  0  0  0  0  0  0  0  0  0  0  0
   56.3706   29.9125   50.9597 H   0  0  0  0  0  0  0  0  0  0  0  0
   55.0330   31.1830   52.0120 C   0  0  0  0  0  0  0  0  0  0  0  0
   54.7691   31.3238   53.0706 H   0  0  0  0  0  0  0  0  0  0  0  0
   55.1035   32.1634   51.5182 H   0  0  0  0  0  0  0  0  0  0  0  0
   54.2579   30.5786   51.5182 H   0  0  0  0  0  0  0  0  0  0  0  0
   57.3180   32.7190   52.3720 C   0  0  0  0  0  0  0  0  0  0  0  0
   56.7078   33.2653   51.6377 H   0  0  0  0  0  0  0  0  0  0  0  0
   56.7938   32.6270   53.3347 H   0  0  0  0  0  0  0  0  0  0  0  0
   58.6270   33.5020   52.6140 C   0  0  0  0  0  0  0  0  0  0  0  0
   58.3846   34.4307   53.1513 H   0  0  0  0  0  0  0  0  0  0  0  0
   59.2949   32.8501   53.1961 H   0  0  0  0  0  0  0  0  0  0  0  0
   59.3650   33.8680   51.3120 C   0  0  0  0  0  0  0  0  0  0  0  0
   58.7204   34.5376   50.7236 H   0  0  0  0  0  0  0  0  0  0  0  0
   60.3121   34.3464   51.6023 H   0  0  0  0  0  0  0  0  0  0  0  0
   59.7100   32.6960   50.4750 N   0  0  0  0  0  0  0  0  0  0  0  0
   58.8340   32.2760   50.0880 H   0  0  0  0  0  0  0  0  0  0  0  0
   60.0800   31.9330   51.0750 H   0  0  0  0  0  0  0  0  0  0  0  0
   60.5960   33.0400   49.3630 C   0  0  0  0  0  0  0  0  0  0  0  0
   60.0700   33.4400   48.1020 C   0  0  0  0  0  0  0  0  0  0  0  0
   60.9570   33.6460   47.0070 C   0  0  0  0  0  0  0  0  0  0  0  0
   62.3240   33.6340   47.2040 N   0  0  0  0  0  0  0  0  0  0  0  0
   63.2380   34.0530   46.1130 C   0  0  0  0  0  0  0  0  0  0  0  0
   64.1571   34.4744   46.5462 H   0  0  0  0  0  0  0  0  0  0  0  0
   63.4915   33.1812   45.4920 H   0  0  0  0  0  0  0  0  0  0  0  0
   62.7430   34.8141   45.4920 H   0  0  0  0  0  0  0  0  0  0  0  0
   62.8570   33.2290   48.4130 C   0  0  0  0  0  0  0  0  0  0  0  0
   64.2580   33.0570   48.5830 C   0  0  0  0  0  0  0  0  0  0  0  0
   64.9268   33.2068   47.7226 H   0  0  0  0  0  0  0  0  0  0  0  0
   64.8020   32.7030   49.8150 C   0  0  0  0  0  0  0  0  0  0  0  0
   65.8909   32.5900   49.9229 H   0  0  0  0  0  0  0  0  0  0  0  0
   63.9730   32.4930   50.9050 C   0  0  0  0  0  0  0  0  0  0  0  0
   64.4057   32.2303   51.8816 H   0  0  0  0  0  0  0  0  0  0  0  0
   62.5940   32.6140   50.7660 C   0  0  0  0  0  0  0  0  0  0  0  0
   61.9466   32.4381   51.6378 H   0  0  0  0  0  0  0  0  0  0  0  0
   62.0060   32.9600   49.5210 C   0  0  0  0  0  0  0  0  0  0  0  0
   60.3910   33.9240   45.6160 C   0  0  0  0  0  0  0  0  0  0  0  0
   60.5030   34.9978   45.4051 H   0  0  0  0  0  0  0  0  0  0  0  0
   60.9532   33.2934   44.9115 H   0  0  0  0  0  0  0  0  0  0  0  0
   58.9210   33.5560   45.4610 C   0  0  0  0  0  0  0  0  0  0  0  0
   58.5495   33.9192   44.4914 H   0  0  0  0  0  0  0  0  0  0  0  0
   58.8033   32.4632   45.5043 H   0  0  0  0  0  0  0  0  0  0  0  0
   58.1330   34.2030   46.5830 C   0  0  0  0  0  0  0  0  0  0  0  0
   58.3244   35.2862   46.5871 H   0  0  0  0  0  0  0  0  0  0  0  0
   57.0597   34.0186   46.4283 H   0  0  0  0  0  0  0  0  0  0  0  0
   58.5610   33.6070   47.9210 C   0  0  0  0  0  0  0  0  0  0  0  0
   58.1923   34.2656   48.7212 H   0  0  0  0  0  0  0  0  0  0  0  0
   58.1336   32.5941   47.9566 H   0  0  0  0  0  0  0  0  0  0  0  0
   61.2100   30.2790   47.4740 C   0  0  0  0  0  0  0  0  0  0  0  0
   61.2873   30.2925   48.5712 H   0  0  0  0  0  0  0  0  0  0  0  0
   61.8478   29.4784   47.0713 H   0  0  0  0  0  0  0  0  0  0  0  0
   61.5398   31.2481   47.0713 H   0  0  0  0  0  0  0  0  0  0  0  0
  1  2  1  0
  2  3  2  3
  3  4  1  0
  4  5  1  0
  4  6  1  0
  4  7  1  0
  3  8  1  0
  8  9  1  0
  8 10  1  0
  8 11  1  0
  2 12  1  0
 12 13  1  0
 12 14  1  0
 12 15  1  0
 15 16  1  0
 15 17  1  0
 15 18  1  0
 18 19  2  0
 19 20  1  0
 19 21  1  0
 21 22  1  0
 21 23  1  0
 21 24  1  0
 24 25  1  0
 25 26  1  0
 25 27  1  0
 25 28  1  0
 28 29  1  0
 28 30  1  0
 28 31  1  0
 31 32  1  0
 32 33  1  0
 32 34  1  0
 32 35  1  0
 35 36  1  0
 35 37  1  0
 35 38  1  0
 31 39  1  0
 39 40  1  0
 39 41  1  0
 39 42  1  0
 42 43  1  0
 42 44  1  0
 42 45  1  0
 45 46  1  0
 45 47  1  0
 45 48  1  0
 48 49  1  0
 48 50  1  0
 48 51  1  0
 51 52  2  0
 52 53  1  0
 53 54  2  0
 54 55  1  0
 55 56  1  0
 55 57  1  0
 55 58  1  0
 54 59  1  0
 59 60  2  0
 60 61  1  0
 60 62  1  0
 62 63  1  0
 62 64  2  0
 64 65  1  0
 64 66  1  0
 66 67  1  0
 66 68  2  0
 53 69  1  0
 69 70  1  0
 69 71  1  0
 69 72  1  0
 72 73  1  0
 72 74  1  0
 72 75  1  0
 75 76  1  0
 75 77  1  0
 75 78  1  0
 78 79  1  0
 78 80  1  0
 18 81  1  0
 81 82  1  0
 81 83  1  0
 81 84  1  0
 68 51  1  0
 78 52  1  0
 68 59  1  0
M  CHG  2  48   1  54   1
M  END
>  <UniqueID>  (13) 
13

>  <SMILES>  (13) 
CCN(CCC[NH2+]c1c2c([n+](C)c3ccccc13)CCCC2)CCOC/C=C(\C)CCC=C(C)C

>  <Energy>  (13) 
101.0735990167932

>  <Genealogy>  (13) 
CCN(CCC[NH2+]c1c2c([n+](C)c3ccccc13)CCCC2)CCOCC=C(C)CCC=C(C)C (protonated)
CCN(CCC[NH2+]c1c2c([n+](C)c3ccccc13)CCCC2)CCOC/C=C(\C)CCC=C(C)C (cis-trans isomerization)
CCN(CCC[NH2+]c1c2c([n+](C)c3ccccc13)CCCC2)CCOC/C=C(\C)CCC=C(C)C (3D coordinates assigned)
CCN(CCC[NH2+]c1c2c([n+](C)c3ccccc13)CCCC2)CCOC/C=C(\C)CCC=C(C)C (nonaromatic ring conformer: 101.0735990167932 kcal/mol)

>  <smiles>  (13) 
CCN(CCCNc1c2c([n+](C)c3ccccc13)CCCC2)CCOCC=C(C)CCC=C(C)C

>  <score_type>  (13) 
oracle

>  <origin>  (13) 
adg

>  <m_score__min__energy>  (13) 
-6.1399999999999997

>  <m_primary>  (13) 
energy

$$$$
13:0
     RDKit          3D

 53 56  0  0  0  0  0  0  0  0999 V2000
   63.3860   33.1970   46.7650 C   0  0  0  0  0  0  0  0  0  0  0  0
   62.7810   31.8320   47.1310 C   0  0  0  0  0  0  0  0  0  0  0  0
   61.8990   31.8740   48.3210 N   0  0  0  0  0  0  0  0  0  0  0  0
   62.5950   32.3600   49.5370 C   0  0  0  0  0  0  0  0  0  0  0  0
   62.1690   33.7930   49.8280 C   0  0  0  0  0  0  0  0  0  0  0  0
   61.1710   30.6030   48.5280 C   0  0  0  0  0  0  0  0  0  0  0  0
   59.8370   30.8490   49.2430 C   0  0  0  0  0  0  0  0  0  0  0  0
   58.7120   30.6630   48.3260 N   0  0  0  0  0  0  0  0  0  0  0  0
   58.7210   31.2170   47.0040 C   0  0  0  0  0  0  0  0  0  0  0  0
   58.9950   32.5830   46.7690 C   0  0  0  0  0  0  0  0  0  0  0  0
   59.4190   33.4220   47.8190 C   0  0  0  0  0  0  0  0  0  0  0  0
   59.7090   34.7630   47.5850 C   0  0  0  0  0  0  0  0  0  0  0  0
   59.6060   35.2880   46.3020 C   0  0  0  0  0  0  0  0  0  0  0  0
   59.2080   34.4790   45.2380 C   0  0  0  0  0  0  0  0  0  0  0  0
   58.8820   33.1150   45.4390 C   0  0  0  0  0  0  0  0  0  0  0  0
   58.4820   32.3010   44.3900 N   0  0  0  0  0  0  0  0  0  0  0  0
   58.2540   32.8450   43.0380 C   0  0  0  0  0  0  0  0  0  0  0  0
   58.3260   30.9610   44.6320 C   0  0  0  0  0  0  0  0  0  0  0  0
   58.0500   29.9990   43.7140 N   0  0  0  0  0  0  0  0  0  0  0  0
   57.9850   28.8510   44.4170 C   0  0  0  0  0  0  0  0  0  0  0  0
   57.7380   27.5780   43.9100 C   0  0  0  0  0  0  0  0  0  0  0  0
   57.7300   26.4920   44.8060 C   0  0  0  0  0  0  0  0  0  0  0  0
   57.3870   24.7390   44.1110 Br  0  0  0  0  0  0  0  0  0  0  0  0
   57.9800   26.7060   46.1870 C   0  0  0  0  0  0  0  0  0  0  0  0
   57.9880   25.2550   47.4380 Br  0  0  0  0  0  0  0  0  0  0  0  0
   58.2350   28.0030   46.6680 C   0  0  0  0  0  0  0  0  0  0  0  0
   58.2170   29.0620   45.7580 C   0  0  0  0  0  0  0  0  0  0  0  0
   58.4400   30.4210   45.8970 C   0  0  0  0  0  0  0  0  0  0  0  0
   63.6304   33.7483   47.6850 H   0  0  0  0  0  0  0  0  0  0  0  0
   64.3014   33.0458   46.1741 H   0  0  0  0  0  0  0  0  0  0  0  0
   62.6592   33.7736   46.1741 H   0  0  0  0  0  0  0  0  0  0  0  0
   62.1925   31.4715   46.2745 H   0  0  0  0  0  0  0  0  0  0  0  0
   63.6191   31.1624   47.3741 H   0  0  0  0  0  0  0  0  0  0  0  0
   62.3317   31.7187   50.3911 H   0  0  0  0  0  0  0  0  0  0  0  0
   63.6825   32.3268   49.3747 H   0  0  0  0  0  0  0  0  0  0  0  0
   62.1229   33.9480   50.9160 H   0  0  0  0  0  0  0  0  0  0  0  0
   62.8991   34.4889   49.3891 H   0  0  0  0  0  0  0  0  0  0  0  0
   61.1773   33.9770   49.3891 H   0  0  0  0  0  0  0  0  0  0  0  0
   60.9758   30.1361   47.5513 H   0  0  0  0  0  0  0  0  0  0  0  0
   61.7887   29.9409   49.1526 H   0  0  0  0  0  0  0  0  0  0  0  0
   59.7407   30.1413   50.0796 H   0  0  0  0  0  0  0  0  0  0  0  0
   59.8219   31.8848   49.6129 H   0  0  0  0  0  0  0  0  0  0  0  0
   57.8820   30.1070   48.6350 H   0  0  0  0  0  0  0  0  0  0  0  0
   59.5219   33.0125   48.8347 H   0  0  0  0  0  0  0  0  0  0  0  0
   60.0208   35.4097   48.4184 H   0  0  0  0  0  0  0  0  0  0  0  0
   59.8399   36.3481   46.1248 H   0  0  0  0  0  0  0  0  0  0  0  0
   59.1462   34.9068   44.2265 H   0  0  0  0  0  0  0  0  0  0  0  0
   57.8299   33.8569   43.1166 H   0  0  0  0  0  0  0  0  0  0  0  0
   59.2094   32.8891   42.4946 H   0  0  0  0  0  0  0  0  0  0  0  0
   57.5527   32.1947   42.4946 H   0  0  0  0  0  0  0  0  0  0  0  0
   57.9450   30.0860   42.6800 H   0  0  0  0  0  0  0  0  0  0  0  0
   57.5537   27.4246   42.8364 H   0  0  0  0  0  0  0  0  0  0  0  0
   58.4433   28.1786   47.7337 H   0  0  0  0  0  0  0  0  0  0  0  0
  1  2  1  0
  2  3  1  0
  3  4  1  0
  4  5  1  0
  3  6  1  0
  6  7  1  0
  7  8  1  0
  8  9  1  0
  9 10  2  0
 10 11  1  0
 11 12  2  0
 12 13  1  0
 13 14  2  0
 14 15  1  0
 15 16  2  0
 16 17  1  0
 16 18  1  0
 18 19  1  0
 19 20  1  0
 20 21  2  0
 21 22  1  0
 22 23  1  0
 22 24  2  0
 24 25  1  0
 24 26  1  0
 26 27  2  0
 27 28  1  0
 28  9  1  0
 15 10  1  0
 28 18  2  0
 27 20  1  0
  1 29  1  0
  1 30  1  0
  1 31  1  0
  2 32  1  0
  2 33  1  0
  4 34  1  0
  4 35  1  0
  5 36  1  0
  5 37  1  0
  5 38  1  0
  6 39  1  0
  6 40  1  0
  7 41  1  0
  7 42  1  0
  8 43  1  0
 11 44  1  0
 12 45  1  0
 13 46  1  0
 14 47  1  0
 17 48  1  0
 17 49  1  0
 17 50  1  0
 19 51  1  0
 21 52  1  0
 26 53  1  0
M  CHG  1  16   1
M  END
>  <UniqueID>  (14) 
14

>  <SMILES>  (14) 
CCN(CC)CCNc1c2ccccc2[n+](C)c2[nH]c3cc(Br)c(Br)cc3c12

>  <Energy>  (14) 
113.35662124637794

>  <Genealogy>  (14) 
CCN(CC)CCNc1c2ccccc2[n+](C)c2[nH]c3cc(Br)c(Br)cc3c12 (3D coordinates assigned)
CCN(CC)CCNc1c2ccccc2[n+](C)c2[nH]c3cc(Br)c(Br)cc3c12 (optimized conformer: 113.35662124637794 kcal/mol)

>  <smiles>  (14) 
CCN(CC)CCNc1c2ccccc2[n+](C)c2[nH]c3cc(Br)c(Br)cc3c12

>  <score_type>  (14) 
oracle

>  <origin>  (14) 
adg

>  <m_score__min__energy>  (14) 
-7

>  <m_primary>  (14) 
energy

$$$$
14:0
     RDKit          3D

 54 55  0  0  0  0  0  0  0  0999 V2000
   63.7690   33.4440   46.9320 C   0  0  0  0  0  0  0  0  0  0  0  0
   62.2490   33.4110   46.8650 C   0  0  0  0  0  0  0  0  0  0  0  0
   61.7440   32.4540   47.7740 O   0  0  0  0  0  0  0  0  0  0  0  0
   62.7600   32.0170   48.6590 C   0  0  0  0  0  0  0  0  0  0  0  0
   62.2350   30.8500   49.4890 C   0  0  0  0  0  0  0  0  0  0  0  0
   60.8400   30.7290   49.2970 O   0  0  0  0  0  0  0  0  0  0  0  0
   60.4980   29.4250   48.8600 C   0  0  0  0  0  0  0  0  0  0  0  0
   59.7410   29.4780   47.5290 C   0  0  0  0  0  0  0  0  0  0  0  0
   59.8100   30.8160   46.9460 N   0  0  0  0  0  0  0  0  0  0  0  0
   58.7300   31.3410   46.1650 C   0  0  0  0  0  0  0  0  0  0  0  0
   58.3050   32.6780   46.2330 C   0  0  0  0  0  0  0  0  0  0  0  0
   58.7860   33.7060   47.1780 C   0  0  0  0  0  0  0  0  0  0  0  0
   58.6260   34.9270   46.9050 O   0  0  0  0  0  0  0  0  0  0  0  0
   59.4530   33.3270   48.3920 N   0  0  0  0  0  0  0  0  0  0  0  0
   59.9070   34.3050   49.3820 C   0  0  0  0  0  0  0  0  0  0  0  0
   59.6550   33.8010   50.8090 C   0  0  0  0  0  0  0  0  0  0  0  0
   59.3020   32.3640   50.8040 N   0  0  0  0  0  0  0  0  0  0  0  0
   59.9180   31.6640   51.9460 C   0  0  0  0  0  0  0  0  0  0  0  0
   57.8420   32.1930   50.8480 C   0  0  0  0  0  0  0  0  0  0  0  0
   57.0840   32.9260   45.0840 S   0  0  0  0  0  0  0  0  0  0  0  0
   57.1090   31.3570   44.5040 C   0  0  0  0  0  0  0  0  0  0  0  0
   56.3610   30.8500   43.4940 N   0  0  0  0  0  0  0  0  0  0  0  0
   56.5360   29.5520   43.1150 C   0  0  0  0  0  0  0  0  0  0  0  0
   57.4960   28.7460   43.7550 C   0  0  0  0  0  0  0  0  0  0  0  0
   58.2700   29.2790   44.7960 C   0  0  0  0  0  0  0  0  0  0  0  0
   58.0550   30.6060   45.1770 C   0  0  0  0  0  0  0  0  0  0  0  0
   64.0896   33.4510   47.9842 H   0  0  0  0  0  0  0  0  0  0  0  0
   64.1775   32.5545   46.4301 H   0  0  0  0  0  0  0  0  0  0  0  0
   64.1386   34.3504   46.4301 H   0  0  0  0  0  0  0  0  0  0  0  0
   61.8517   34.4036   47.1235 H   0  0  0  0  0  0  0  0  0  0  0  0
   61.9392   33.1381   45.8454 H   0  0  0  0  0  0  0  0  0  0  0  0
   63.6370   31.6916   48.0802 H   0  0  0  0  0  0  0  0  0  0  0  0
   63.0500   32.8430   49.3251 H   0  0  0  0  0  0  0  0  0  0  0  0
   62.7313   29.9210   49.1716 H   0  0  0  0  0  0  0  0  0  0  0  0
   62.4456   31.0313   50.5533 H   0  0  0  0  0  0  0  0  0  0  0  0
   61.4177   28.8360   48.7286 H   0  0  0  0  0  0  0  0  0  0  0  0
   59.8493   28.9587   49.6161 H   0  0  0  0  0  0  0  0  0  0  0  0
   60.1893   28.7565   46.8301 H   0  0  0  0  0  0  0  0  0  0  0  0
   58.6858   29.2275   47.7132 H   0  0  0  0  0  0  0  0  0  0  0  0
   60.4710   31.5010   47.3810 H   0  0  0  0  0  0  0  0  0  0  0  0
   59.6360   32.3190   48.5870 H   0  0  0  0  0  0  0  0  0  0  0  0
   60.9847   34.4794   49.2472 H   0  0  0  0  0  0  0  0  0  0  0  0
   59.3441   35.2387   49.2357 H   0  0  0  0  0  0  0  0  0  0  0  0
   60.5654   33.9466   51.4090 H   0  0  0  0  0  0  0  0  0  0  0  0
   58.8172   34.3684   51.2406 H   0  0  0  0  0  0  0  0  0  0  0  0
   59.5405   32.0930   52.8859 H   0  0  0  0  0  0  0  0  0  0  0  0
   59.6623   30.5950   51.9021 H   0  0  0  0  0  0  0  0  0  0  0  0
   61.0108   31.7817   51.9021 H   0  0  0  0  0  0  0  0  0  0  0  0
   57.5088   32.1540   51.8956 H   0  0  0  0  0  0  0  0  0  0  0  0
   57.3581   33.0406   50.3407 H   0  0  0  0  0  0  0  0  0  0  0  0
   57.5671   31.2565   50.3407 H   0  0  0  0  0  0  0  0  0  0  0  0
   55.9230   29.1321   42.3039 H   0  0  0  0  0  0  0  0  0  0  0  0
   57.6387   27.7018   43.4399 H   0  0  0  0  0  0  0  0  0  0  0  0
   59.0301   28.6655   45.3018 H   0  0  0  0  0  0  0  0  0  0  0  0
  1  2  1  0
  2  3  1  0
  3  4  1  0
  4  5  1  0
  5  6  1  0
  6  7  1  0
  7  8  1  0
  8  9  1  0
  9 10  1  0
 10 11  2  0
 11 12  1  0
 12 13  2  0
 12 14  1  0
 14 15  1  0
 15 16  1  0
 16 17  1  0
 17 18  1  0
 17 19  1  0
 11 20  1  0
 20 21  1  0
 21 22  2  0
 22 23  1  0
 23 24  2  0
 24 25  1  0
 25 26  2  0
 26 10  1  0
 26 21  1  0
  1 27  1  0
  1 28  1  0
  1 29  1  0
  2 30  1  0
  2 31  1  0
  4 32  1  0
  4 33  1  0
  5 34  1  0
  5 35  1  0
  7 36  1  0
  7 37  1  0
  8 38  1  0
  8 39  1  0
  9 40  1  0
 14 41  1  0
 15 42  1  0
 15 43  1  0
 16 44  1  0
 16 45  1  0
 18 46  1  0
 18 47  1  0
 18 48  1  0
 19 49  1  0
 19 50  1  0
 19 51  1  0
 23 52  1  0
 24 53  1  0
 25 54  1  0
M  END
>  <UniqueID>  (15) 
15

>  <SMILES>  (15) 
CCOCCOCCNc1c(C(=O)NCCN(C)C)sc2ncccc12

>  <Energy>  (15) 
84.42835304989904

>  <Genealogy>  (15) 
CCOCCOCCNc1c(C(=O)NCCN(C)C)sc2ncccc12 (3D coordinates assigned)
CCOCCOCCNc1c(C(=O)NCCN(C)C)sc2ncccc12 (optimized conformer: 84.42835304989904 kcal/mol)

>  <smiles>  (15) 
CCOCCOCCNc1c(C(=O)NCCN(C)C)sc2ncccc12

>  <score_type>  (15) 
oracle

>  <origin>  (15) 
adg

>  <m_score__min__energy>  (15) 
-4.6399999999999997

>  <m_primary>  (15) 
energy

$$$$
15:0
     RDKit          3D

 38 39  0  0  0  0  0  0  0  0999 V2000
   56.3680   29.7500   43.6580 C   0  0  0  0  0  0  0  0  0  0  0  0
   57.6860   30.1850   44.2870 C   0  0  0  0  0  0  0  0  0  0  0  0
   57.3830   31.2360   45.2240 N   0  0  0  0  0  0  0  0  0  0  0  0
   57.3990   32.5410   44.6470 C   0  0  0  0  0  0  0  0  0  0  0  0
   58.7260   33.2400   44.6730 C   0  0  0  0  0  0  0  0  0  0  0  0
   58.5420   34.5680   45.3700 C   0  0  0  0  0  0  0  0  0  0  0  0
   59.4390   34.7300   46.9010 S   0  0  0  0  0  0  0  0  0  0  0  0
   60.7670   33.5730   47.1100 C   0  0  0  0  0  0  0  0  0  0  0  0
   62.0860   33.8400   46.9300 C   0  0  0  0  0  0  0  0  0  0  0  0
   63.1060   32.9090   47.0860 C   0  0  0  0  0  0  0  0  0  0  0  0
   62.7230   31.6340   47.4480 C   0  0  0  0  0  0  0  0  0  0  0  0
   61.3910   31.3200   47.6420 C   0  0  0  0  0  0  0  0  0  0  0  0
   61.1210   30.0490   47.9940 N   0  0  0  0  0  0  0  0  0  0  0  0
   59.8290   29.7260   48.1850 C   0  0  0  0  0  0  0  0  0  0  0  0
   59.4500   28.3330   48.5770 C   0  0  0  0  0  0  0  0  0  0  0  0
   58.8330   30.6260   48.0360 N   0  0  0  0  0  0  0  0  0  0  0  0
   59.0960   31.9050   47.6830 C   0  0  0  0  0  0  0  0  0  0  0  0
   58.1890   32.7670   47.5360 O   0  0  0  0  0  0  0  0  0  0  0  0
   60.4090   32.2700   47.4780 C   0  0  0  0  0  0  0  0  0  0  0  0
   55.6443   29.5112   44.4513 H   0  0  0  0  0  0  0  0  0  0  0  0
   55.9726   30.5653   43.0343 H   0  0  0  0  0  0  0  0  0  0  0  0
   56.5356   28.8595   43.0343 H   0  0  0  0  0  0  0  0  0  0  0  0
   58.1525   29.3369   44.8095 H   0  0  0  0  0  0  0  0  0  0  0  0
   58.3888   30.5376   43.5177 H   0  0  0  0  0  0  0  0  0  0  0  0
   57.8500   31.1510   46.1300 H   0  0  0  0  0  0  0  0  0  0  0  0
   57.0830   32.4517   43.5971 H   0  0  0  0  0  0  0  0  0  0  0  0
   56.7223   33.1525   45.2620 H   0  0  0  0  0  0  0  0  0  0  0  0
   59.4587   32.6294   45.2210 H   0  0  0  0  0  0  0  0  0  0  0  0
   59.0960   33.3946   43.6487 H   0  0  0  0  0  0  0  0  0  0  0  0
   58.8790   35.3631   44.6887 H   0  0  0  0  0  0  0  0  0  0  0  0
   57.4743   34.6426   45.6238 H   0  0  0  0  0  0  0  0  0  0  0  0
   62.3666   34.8635   46.6408 H   0  0  0  0  0  0  0  0  0  0  0  0
   64.1619   33.1744   46.9293 H   0  0  0  0  0  0  0  0  0  0  0  0
   63.4887   30.8561   47.5842 H   0  0  0  0  0  0  0  0  0  0  0  0
   61.8930   29.3560   48.1080 H   0  0  0  0  0  0  0  0  0  0  0  0
   59.4285   28.2538   49.6739 H   0  0  0  0  0  0  0  0  0  0  0  0
   58.4548   28.0962   48.1727 H   0  0  0  0  0  0  0  0  0  0  0  0
   60.1881   27.6246   48.1727 H   0  0  0  0  0  0  0  0  0  0  0  0
  1  2  1  0
  2  3  1  0
  3  4  1  0
  4  5  1  0
  5  6  1  0
  6  7  1  0
  7  8  1  0
  8  9  2  0
  9 10  1  0
 10 11  2  0
 11 12  1  0
 12 13  1  0
 13 14  1  0
 14 15  1  0
 14 16  2  0
 16 17  1  0
 17 18  2  0
 17 19  1  0
 19  8  1  0
 19 12  2  0
  1 20  1  0
  1 21  1  0
  1 22  1  0
  2 23  1  0
  2 24  1  0
  3 25  1  0
  4 26  1  0
  4 27  1  0
  5 28  1  0
  5 29  1  0
  6 30  1  0
  6 31  1  0
  9 32  1  0
 10 33  1  0
 11 34  1  0
 13 35  1  0
 15 36  1  0
 15 37  1  0
 15 38  1  0
M  END
>  <smiles>  (16) 
CCNCCCSc1cccc2[nH]c(C)nc(=O)c12

>  <score_type>  (16) 
oracle

>  <origin>  (16) 
adg

>  <m_score__min__energy>  (16) 
-6.5999999999999996

>  <m_primary>  (16) 
energy

$$$$
16:0
     RDKit          3D

 35 36  0  0  0  0  0  0  0  0999 V2000
   58.9850   34.6150   45.3600 C   0  0  0  0  0  0  0  0  0  0  0  0
   58.5740   33.8090   46.5900 C   0  0  0  0  0  0  0  0  0  0  0  0
   57.4690   32.8010   46.2660 C   0  0  0  0  0  0  0  0  0  0  0  0
   57.2950   32.6820   44.8100 N   0  0  0  0  0  0  0  0  0  0  0  0
   58.1510   31.6240   44.2570 C   0  0  0  0  0  0  0  0  0  0  0  0
   57.7810   30.2750   44.8600 C   0  0  0  0  0  0  0  0  0  0  0  0
   58.7210   29.4660   45.5720 C   0  0  0  0  0  0  0  0  0  0  0  0
   60.0380   30.0470   46.0280 C   0  0  0  0  0  0  0  0  0  0  0  0
   58.3500   28.1290   45.8770 C   0  0  0  0  0  0  0  0  0  0  0  0
   59.1280   27.0530   46.3940 C   0  0  0  0  0  0  0  0  0  0  0  0
   60.6100   27.0420   46.6290 C   0  0  0  0  0  0  0  0  0  0  0  0
   58.3750   25.8950   46.6090 C   0  0  0  0  0  0  0  0  0  0  0  0
   56.7860   26.1480   46.1180 S   0  0  0  0  0  0  0  0  0  0  0  0
   57.0390   27.7350   45.6460 C   0  0  0  0  0  0  0  0  0  0  0  0
   56.1140   28.5420   45.0800 N   0  0  0  0  0  0  0  0  0  0  0  0
   56.4630   29.7880   44.6620 C   0  0  0  0  0  0  0  0  0  0  0  0
   55.5970   30.5070   44.0920 O   0  0  0  0  0  0  0  0  0  0  0  0
   59.4632   35.5528   45.6791 H   0  0  0  0  0  0  0  0  0  0  0  0
   59.6941   34.0284   44.7574 H   0  0  0  0  0  0  0  0  0  0  0  0
   58.0938   34.8444   44.7574 H   0  0  0  0  0  0  0  0  0  0  0  0
   59.4519   33.2653   46.9690 H   0  0  0  0  0  0  0  0  0  0  0  0
   58.1869   34.5099   47.3443 H   0  0  0  0  0  0  0  0  0  0  0  0
   57.7413   31.8190   46.6801 H   0  0  0  0  0  0  0  0  0  0  0  0
   56.5255   33.1501   46.7110 H   0  0  0  0  0  0  0  0  0  0  0  0
   56.3000   32.4170   44.6260 H   0  0  0  0  0  0  0  0  0  0  0  0
   58.0175   31.5826   43.1659 H   0  0  0  0  0  0  0  0  0  0  0  0
   59.1999   31.8489   44.5002 H   0  0  0  0  0  0  0  0  0  0  0  0
   60.0713   30.0617   47.1274 H   0  0  0  0  0  0  0  0  0  0  0  0
   60.8636   29.4296   45.6444 H   0  0  0  0  0  0  0  0  0  0  0  0
   60.1386   31.0730   45.6444 H   0  0  0  0  0  0  0  0  0  0  0  0
   60.8097   27.0405   47.7107 H   0  0  0  0  0  0  0  0  0  0  0  0
   61.0467   26.1406   46.1743 H   0  0  0  0  0  0  0  0  0  0  0  0
   61.0600   27.9368   46.1743 H   0  0  0  0  0  0  0  0  0  0  0  0
   58.7634   24.9584   47.0355 H   0  0  0  0  0  0  0  0  0  0  0  0
   55.1420   28.1900   44.9280 H   0  0  0  0  0  0  0  0  0  0  0  0
  1  2  1  0
  2  3  1  0
  3  4  1  0
  4  5  1  0
  5  6  1  0
  6  7  2  0
  7  8  1  0
  7  9  1  0
  9 10  1  0
 10 11  1  0
 10 12  2  0
 12 13  1  0
 13 14  1  0
 14 15  1  0
 15 16  1  0
 16 17  2  0
 16  6  1  0
 14  9  2  0
  1 18  1  0
  1 19  1  0
  1 20  1  0
  2 21  1  0
  2 22  1  0
  3 23  1  0
  3 24  1  0
  4 25  1  0
  5 26  1  0
  5 27  1  0
  8 28  1  0
  8 29  1  0
  8 30  1  0
 11 31  1  0
 11 32  1  0
 11 33  1  0
 12 34  1  0
 15 35  1  0
M  END
>  <UniqueID>  (17) 
16

>  <SMILES>  (17) 
CCCNCc1c(C)c2c(C)csc2[nH]c1=O

>  <Energy>  (17) 
70.81678447045292

>  <Genealogy>  (17) 
CCCNCc1c(C)c2c(C)csc2[nH]c1=O (3D coordinates assigned)
CCCNCc1c(C)c2c(C)csc2[nH]c1=O (optimized conformer: 70.81678447045292 kcal/mol)

>  <smiles>  (17) 
CCCNCc1c(C)c2c(C)csc2[nH]c1=O

>  <score_type>  (17) 
oracle

>  <origin>  (17) 
adg

>  <m_score__min__energy>  (17) 
-7.1900000000000004

>  <m_primary>  (17) 
energy

$$$$
17:0
     RDKit          3D

 51 53  0  0  0  0  0  0  0  0999 V2000
   57.7720   24.3970   45.5700 C   0  0  0  0  0  0  0  0  0  0  0  0
   57.1280   25.3420   46.5790 C   0  0  0  0  0  0  0  0  0  0  0  0
   56.4020   26.4420   45.8730 C   0  0  0  0  0  0  0  0  0  0  0  0
   55.1540   26.5440   46.0020 O   0  0  0  0  0  0  0  0  0  0  0  0
   57.1260   27.2930   44.9750 N   0  0  0  0  0  0  0  0  0  0  0  0
   57.3220   28.7130   45.0720 C   0  0  0  0  0  0  0  0  0  0  0  0
   56.4360   29.6250   44.4710 C   0  0  0  0  0  0  0  0  0  0  0  0
   56.6700   30.9990   44.5540 C   0  0  0  0  0  0  0  0  0  0  0  0
   57.7830   31.4910   45.2510 C   0  0  0  0  0  0  0  0  0  0  0  0
   58.0170   32.9090   45.3370 N   0  0  0  0  0  0  0  0  0  0  0  0
   57.4370   33.7010   46.4240 C   0  0  0  0  0  0  0  0  0  0  0  0
   58.5220   34.5370   47.1240 C   0  0  0  0  0  0  0  0  0  0  0  0
   59.6280   34.9670   46.2280 N   0  0  0  0  0  0  0  0  0  0  0  0
   60.8610   34.1970   46.4700 C   0  0  0  0  0  0  0  0  0  0  0  0
   59.2570   34.9790   44.7970 C   0  0  0  0  0  0  0  0  0  0  0  0
   58.8110   33.5910   44.3100 C   0  0  0  0  0  0  0  0  0  0  0  0
   58.6450   30.5860   45.8870 C   0  0  0  0  0  0  0  0  0  0  0  0
   58.4180   29.2050   45.8100 C   0  0  0  0  0  0  0  0  0  0  0  0
   59.3240   28.3110   46.4790 N   0  0  0  0  0  0  0  0  0  0  0  0
   60.3370   27.5650   45.7290 C   0  0  0  0  0  0  0  0  0  0  0  0
   60.5370   26.1930   46.3750 C   0  0  0  0  0  0  0  0  0  0  0  0
   60.8070   26.3240   47.7580 O   0  0  0  0  0  0  0  0  0  0  0  0
   59.6830   26.8740   48.4210 C   0  0  0  0  0  0  0  0  0  0  0  0
   59.4050   28.3010   47.9390 C   0  0  0  0  0  0  0  0  0  0  0  0
   58.3132   23.6028   46.1051 H   0  0  0  0  0  0  0  0  0  0  0  0
   56.9914   23.9475   44.9386 H   0  0  0  0  0  0  0  0  0  0  0  0
   58.4758   24.9591   44.9386 H   0  0  0  0  0  0  0  0  0  0  0  0
   56.4164   24.7785   47.2004 H   0  0  0  0  0  0  0  0  0  0  0  0
   57.9151   25.7811   47.2095 H   0  0  0  0  0  0  0  0  0  0  0  0
   55.5523   29.2532   43.9317 H   0  0  0  0  0  0  0  0  0  0  0  0
   55.9759   31.7010   44.0689 H   0  0  0  0  0  0  0  0  0  0  0  0
   56.6715   34.3748   46.0116 H   0  0  0  0  0  0  0  0  0  0  0  0
   56.9867   33.0177   47.1591 H   0  0  0  0  0  0  0  0  0  0  0  0
   58.0480   35.4363   47.5441 H   0  0  0  0  0  0  0  0  0  0  0  0
   58.9701   33.8938   47.8956 H   0  0  0  0  0  0  0  0  0  0  0  0
   61.0233   34.0956   47.5532 H   0  0  0  0  0  0  0  0  0  0  0  0
   60.7643   33.1985   46.0187 H   0  0  0  0  0  0  0  0  0  0  0  0
   61.7157   34.7221   46.0187 H   0  0  0  0  0  0  0  0  0  0  0  0
   58.4309   35.6902   44.6495 H   0  0  0  0  0  0  0  0  0  0  0  0
   60.1433   35.2757   44.2170 H   0  0  0  0  0  0  0  0  0  0  0  0
   58.2023   33.7062   43.4010 H   0  0  0  0  0  0  0  0  0  0  0  0
   59.7059   32.9875   44.0978 H   0  0  0  0  0  0  0  0  0  0  0  0
   59.5092   30.9642   46.4528 H   0  0  0  0  0  0  0  0  0  0  0  0
   60.0030   27.4361   44.6889 H   0  0  0  0  0  0  0  0  0  0  0  0
   61.2868   28.1197   45.7413 H   0  0  0  0  0  0  0  0  0  0  0  0
   59.6239   25.5945   46.2408 H   0  0  0  0  0  0  0  0  0  0  0  0
   61.3932   25.6978   45.8937 H   0  0  0  0  0  0  0  0  0  0  0  0
   58.8025   26.2473   48.2163 H   0  0  0  0  0  0  0  0  0  0  0  0
   59.8927   26.9035   49.5004 H   0  0  0  0  0  0  0  0  0  0  0  0
   58.4526   28.6528   48.3622 H   0  0  0  0  0  0  0  0  0  0  0  0
   60.2176   28.9657   48.2674 H   0  0  0  0  0  0  0  0  0  0  0  0
  1  2  1  0
  2  3  1  0
  3  4  2  0
  3  5  1  0
  5  6  1  0
  6  7  2  0
  7  8  1  0
  8  9  2  0
  9 10  1  0
 10 11  1  0
 11 12  1  0
 12 13  1  0
 13 14  1  0
 13 15  1  0
 15 16  1  0
  9 17  1  0
 17 18  2  0
 18 19  1  0
 19 20  1  0
 20 21  1  0
 21 22  1  0
 22 23  1  0
 23 24  1  0
 18  6  1  0
 24 19  1  0
 16 10  1  0
  1 25  1  0
  1 26  1  0
  1 27  1  0
  2 28  1  0
  2 29  1  0
  7 30  1  0
  8 31  1  0
 11 32  1  0
 11 33  1  0
 12 34  1  0
 12 35  1  0
 14 36  1  0
 14 37  1  0
 14 38  1  0
 15 39  1  0
 15 40  1  0
 16 41  1  0
 16 42  1  0
 17 43  1  0
 20 44  1  0
 20 45  1  0
 21 46  1  0
 21 47  1  0
 23 48  1  0
 23 49  1  0
 24 50  1  0
 24 51  1  0
M  CHG  1   5  -1
M  END
>  <UniqueID>  (18) 
17

>  <SMILES>  (18) 
CCC(=O)[N-]c1ccc(N2CCN(C)CC2)cc1N1CCOCC1

>  <Energy>  (18) 
67.60361321679164

>  <Genealogy>  (18) 
CCC(=O)[N-]c1ccc(N2CCN(C)CC2)cc1N1CCOCC1 (protonated)
CCC(=O)[N-]c1ccc(N2CCN(C)CC2)cc1N1CCOCC1 (3D coordinates assigned)
CCC(=O)[N-]c1ccc(N2CCN(C)CC2)cc1N1CCOCC1 (nonaromatic ring conformer: 67.60361321679164 kcal/mol)

>  <smiles>  (18) 
CCC(=O)Nc1ccc(N2CCN(C)CC2)cc1N1CCOCC1

>  <score_type>  (18) 
oracle

>  <origin>  (18) 
adg

>  <m_score__min__energy>  (18) 
-9.0099999999999998

>  <m_primary>  (18) 
energy

$$$$
18:0
     RDKit          3D

 48 50  0  0  0  0  0  0  0  0999 V2000
   60.8540   34.2580   48.5390 C   0  0  0  0  0  0  0  0  0  0  0  0
   60.4390   33.0700   47.7660 N   0  0  0  0  0  0  0  0  0  0  0  0
   60.9000   31.8280   48.1350 C   0  0  0  0  0  0  0  0  0  0  0  0
   60.2760   30.6550   47.6630 C   0  0  0  0  0  0  0  0  0  0  0  0
   59.2970   30.7450   46.6370 C   0  0  0  0  0  0  0  0  0  0  0  0
   58.6770   29.5490   46.0790 N   0  0  0  0  0  0  0  0  0  0  0  0
   59.5630   28.8560   45.1210 C   0  0  0  0  0  0  0  0  0  0  0  0
   58.8030   27.9370   44.1530 C   0  0  0  0  0  0  0  0  0  0  0  0
   57.3600   28.2030   44.2100 N   0  0  0  0  0  0  0  0  0  0  0  0
   57.0150   29.3400   43.3470 C   0  0  0  0  0  0  0  0  0  0  0  0
   55.7230   29.9900   43.8270 C   0  0  0  0  0  0  0  0  0  0  0  0
   55.1720   29.2570   44.8640 F   0  0  0  0  0  0  0  0  0  0  0  0
   58.9730   32.0340   46.1250 C   0  0  0  0  0  0  0  0  0  0  0  0
   58.0630   32.2030   45.0510 C   0  0  0  0  0  0  0  0  0  0  0  0
   57.7840   33.4660   44.5330 C   0  0  0  0  0  0  0  0  0  0  0  0
   58.4110   34.5860   45.0560 C   0  0  0  0  0  0  0  0  0  0  0  0
   59.3010   34.4580   46.1170 C   0  0  0  0  0  0  0  0  0  0  0  0
   59.5780   33.1920   46.6960 C   0  0  0  0  0  0  0  0  0  0  0  0
   60.7610   29.3390   48.2600 C   0  0  0  0  0  0  0  0  0  0  0  0
   60.9980   29.4800   49.7730 C   0  0  0  0  0  0  0  0  0  0  0  0
   61.8800   30.6890   50.1550 C   0  0  0  0  0  0  0  0  0  0  0  0
   62.1500   31.6390   48.9820 C   0  0  0  0  0  0  0  0  0  0  0  0
   60.7780   34.0405   49.6146 H   0  0  0  0  0  0  0  0  0  0  0  0
   61.8944   34.5130   48.2891 H   0  0  0  0  0  0  0  0  0  0  0  0
   60.1986   35.1054   48.2891 H   0  0  0  0  0  0  0  0  0  0  0  0
   57.7470   29.7340   45.6500 H   0  0  0  0  0  0  0  0  0  0  0  0
   58.4330   28.8940   46.8560 H   0  0  0  0  0  0  0  0  0  0  0  0
   60.1034   29.6128   44.5335 H   0  0  0  0  0  0  0  0  0  0  0  0
   60.2465   28.2228   45.7056 H   0  0  0  0  0  0  0  0  0  0  0  0
   59.1628   28.1147   43.1288 H   0  0  0  0  0  0  0  0  0  0  0  0
   58.9817   26.8914   44.4442 H   0  0  0  0  0  0  0  0  0  0  0  0
   56.8630   27.3570   43.8430 H   0  0  0  0  0  0  0  0  0  0  0  0
   57.8280   30.0803   43.3785 H   0  0  0  0  0  0  0  0  0  0  0  0
   56.8754   28.9802   42.3169 H   0  0  0  0  0  0  0  0  0  0  0  0
   55.9388   31.0098   44.1783 H   0  0  0  0  0  0  0  0  0  0  0  0
   55.0074   30.0221   42.9922 H   0  0  0  0  0  0  0  0  0  0  0  0
   57.5682   31.3208   44.6187 H   0  0  0  0  0  0  0  0  0  0  0  0
   57.0650   33.5744   43.7076 H   0  0  0  0  0  0  0  0  0  0  0  0
   58.2041   35.5791   44.6306 H   0  0  0  0  0  0  0  0  0  0  0  0
   59.7994   35.3543   46.5148 H   0  0  0  0  0  0  0  0  0  0  0  0
   60.0022   28.5621   48.0847 H   0  0  0  0  0  0  0  0  0  0  0  0
   61.7106   29.0623   47.7787 H   0  0  0  0  0  0  0  0  0  0  0  0
   60.0221   29.5923   50.2681 H   0  0  0  0  0  0  0  0  0  0  0  0
   61.5337   28.5764   50.0993 H   0  0  0  0  0  0  0  0  0  0  0  0
   61.3726   31.2533   50.9513 H   0  0  0  0  0  0  0  0  0  0  0  0
   62.8522   30.2919   50.4824 H   0  0  0  0  0  0  0  0  0  0  0  0
   62.4688   32.6154   49.3758 H   0  0  0  0  0  0  0  0  0  0  0  0
   62.9382   31.2021   48.3512 H   0  0  0  0  0  0  0  0  0  0  0  0
  1  2  1  0
  2  3  2  0
  3  4  1  0
  4  5  2  0
  5  6  1  0
  6  7  1  0
  7  8  1  0
  8  9  1  0
  9 10  1  0
 10 11  1  0
 11 12  1  0
  5 13  1  0
 13 14  2  0
 14 15  1  0
 15 16  2  0
 16 17  1  0
 17 18  2  0
  4 19  1  0
 19 20  1  0
 20 21  1  0
 21 22  1  0
 18  2  1  0
 22  3  1  0
 18 13  1  0
  1 23  1  0
  1 24  1  0
  1 25  1  0
  6 26  1  0
  6 27  1  0
  7 28  1  0
  7 29  1  0
  8 30  1  0
  8 31  1  0
  9 32  1  0
 10 33  1  0
 10 34  1  0
 11 35  1  0
 11 36  1  0
 14 37  1  0
 15 38  1  0
 16 39  1  0
 17 40  1  0
 19 41  1  0
 19 42  1  0
 20 43  1  0
 20 44  1  0
 21 45  1  0
 21 46  1  0
 22 47  1  0
 22 48  1  0
M  CHG  2   2   1   6   1
M  END
>  <UniqueID>  (19) 
18

>  <SMILES>  (19) 
C[n+]1c2c(c([NH2+]CCNCCF)c3ccccc31)CCCC2

>  <Energy>  (19) 
72.25183799454265

>  <Genealogy>  (19) 
C[n+]1c2c(c([NH2+]CCNCCF)c3ccccc31)CCCC2 (protonated)
C[n+]1c2c(c([NH2+]CCNCCF)c3ccccc31)CCCC2 (3D coordinates assigned)
C[n+]1c2c(c([NH2+]CCNCCF)c3ccccc31)CCCC2 (nonaromatic ring conformer: 72.25183799454265 kcal/mol)

>  <smiles>  (19) 
C[n+]1c2c(c(NCCNCCF)c3ccccc31)CCCC2

>  <score_type>  (19) 
oracle

>  <origin>  (19) 
adg

>  <m_score__min__energy>  (19) 
-4.4100000000000001

>  <m_primary>  (19) 
energy

$$$$
19:0
     RDKit          3D

 71 74  0  0  0  0  0  0  0  0999 V2000
   66.2590   32.0710   50.4940 C   0  0  0  0  0  0  0  0  0  0  0  0
   65.2900   33.0200   49.8030 C   0  0  0  0  0  0  0  0  0  0  0  0
   63.9030   32.5650   49.9900 N   0  0  0  0  0  0  0  0  0  0  0  0
   63.6020   31.4650   50.9240 C   0  0  0  0  0  0  0  0  0  0  0  0
   62.5790   30.4830   50.3380 C   0  0  0  0  0  0  0  0  0  0  0  0
   61.2610   30.9940   50.4380 O   0  0  0  0  0  0  0  0  0  0  0  0
   60.9410   31.3570   51.7690 C   0  0  0  0  0  0  0  0  0  0  0  0
   59.6310   30.7010   52.2120 C   0  0  0  0  0  0  0  0  0  0  0  0
   58.8400   30.4180   51.0720 O   0  0  0  0  0  0  0  0  0  0  0  0
   58.1090   31.5550   50.6500 C   0  0  0  0  0  0  0  0  0  0  0  0
   58.5030   32.0550   49.2460 C   0  0  0  0  0  0  0  0  0  0  0  0
   59.6360   31.3130   48.6590 N   0  0  0  0  0  0  0  0  0  0  0  0
   59.2780   30.6740   47.3960 C   0  0  0  0  0  0  0  0  0  0  0  0
   59.5200   29.2860   47.1670 C   0  0  0  0  0  0  0  0  0  0  0  0
   60.1160   28.4460   48.1450 C   0  0  0  0  0  0  0  0  0  0  0  0
   60.4270   27.1150   47.8670 C   0  0  0  0  0  0  0  0  0  0  0  0
   60.1580   26.5820   46.6160 C   0  0  0  0  0  0  0  0  0  0  0  0
   59.5320   27.3610   45.6490 C   0  0  0  0  0  0  0  0  0  0  0  0
   59.1600   28.7080   45.9130 C   0  0  0  0  0  0  0  0  0  0  0  0
   58.4740   29.4500   44.9750 N   0  0  0  0  0  0  0  0  0  0  0  0
   57.7910   28.7600   43.8570 C   0  0  0  0  0  0  0  0  0  0  0  0
   58.3750   30.8190   45.1090 C   0  0  0  0  0  0  0  0  0  0  0  0
   57.9370   31.6310   44.0290 C   0  0  0  0  0  0  0  0  0  0  0  0
   57.7580   33.0010   44.1830 C   0  0  0  0  0  0  0  0  0  0  0  0
   58.0290   33.6040   45.4010 C   0  0  0  0  0  0  0  0  0  0  0  0
   58.5180   32.8490   46.4640 C   0  0  0  0  0  0  0  0  0  0  0  0
   58.7280   31.4500   46.3350 C   0  0  0  0  0  0  0  0  0  0  0  0
   62.8640   33.1210   49.1570 C   0  0  0  0  0  0  0  0  0  0  0  0
   61.9150   33.9820   49.7380 C   0  0  0  0  0  0  0  0  0  0  0  0
   60.9190   34.5730   48.9590 C   0  0  0  0  0  0  0  0  0  0  0  0
   60.8590   34.3140   47.5880 C   0  0  0  0  0  0  0  0  0  0  0  0
   61.7880   33.4530   46.9950 C   0  0  0  0  0  0  0  0  0  0  0  0
   62.7850   32.8340   47.7720 C   0  0  0  0  0  0  0  0  0  0  0  0
   63.7530   31.9030   47.0910 C   0  0  0  0  0  0  0  0  0  0  0  0
   66.1561   32.1718   51.5845 H   0  0  0  0  0  0  0  0  0  0  0  0
   66.0322   31.0360   50.1984 H   0  0  0  0  0  0  0  0  0  0  0  0
   67.2890   32.3194   50.1984 H   0  0  0  0  0  0  0  0  0  0  0  0
   65.4017   34.0270   50.2314 H   0  0  0  0  0  0  0  0  0  0  0  0
   65.5166   33.0391   48.7268 H   0  0  0  0  0  0  0  0  0  0  0  0
   64.5321   30.9207   51.1444 H   0  0  0  0  0  0  0  0  0  0  0  0
   63.1725   31.9008   51.8381 H   0  0  0  0  0  0  0  0  0  0  0  0
   62.8163   30.3079   49.2783 H   0  0  0  0  0  0  0  0  0  0  0  0
   62.6321   29.5439   50.9083 H   0  0  0  0  0  0  0  0  0  0  0  0
   61.7517   31.0300   52.4367 H   0  0  0  0  0  0  0  0  0  0  0  0
   60.8219   32.4495   51.8173 H   0  0  0  0  0  0  0  0  0  0  0  0
   59.8512   29.7658   52.7477 H   0  0  0  0  0  0  0  0  0  0  0  0
   59.0845   31.3836   52.8793 H   0  0  0  0  0  0  0  0  0  0  0  0
   57.0397   31.2971   50.6401 H   0  0  0  0  0  0  0  0  0  0  0  0
   58.3368   32.3661   51.3573 H   0  0  0  0  0  0  0  0  0  0  0  0
   57.6335   31.9484   48.5806 H   0  0  0  0  0  0  0  0  0  0  0  0
   58.8190   33.1035   49.3502 H   0  0  0  0  0  0  0  0  0  0  0  0
   60.4290   31.9740   48.4980 H   0  0  0  0  0  0  0  0  0  0  0  0
   60.0460   30.6660   49.3600 H   0  0  0  0  0  0  0  0  0  0  0  0
   60.3369   28.8536   49.1425 H   0  0  0  0  0  0  0  0  0  0  0  0
   60.8873   26.4861   48.6432 H   0  0  0  0  0  0  0  0  0  0  0  0
   60.4396   25.5433   46.3883 H   0  0  0  0  0  0  0  0  0  0  0  0
   59.3204   26.9269   44.6607 H   0  0  0  0  0  0  0  0  0  0  0  0
   57.0710   28.0326   44.2601 H   0  0  0  0  0  0  0  0  0  0  0  0
   57.2590   29.4992   43.2401 H   0  0  0  0  0  0  0  0  0  0  0  0
   58.5356   28.2356   43.2401 H   0  0  0  0  0  0  0  0  0  0  0  0
   57.7356   31.1670   43.0522 H   0  0  0  0  0  0  0  0  0  0  0  0
   57.4009   33.6070   43.3373 H   0  0  0  0  0  0  0  0  0  0  0  0
   57.8572   34.6830   45.5285 H   0  0  0  0  0  0  0  0  0  0  0  0
   58.7455   33.3442   47.4195 H   0  0  0  0  0  0  0  0  0  0  0  0
   61.9584   34.1915   50.8170 H   0  0  0  0  0  0  0  0  0  0  0  0
   60.1813   35.2428   49.4250 H   0  0  0  0  0  0  0  0  0  0  0  0
   60.0796   34.7881   46.9734 H   0  0  0  0  0  0  0  0  0  0  0  0
   61.7391   33.2582   45.9135 H   0  0  0  0  0  0  0  0  0  0  0  0
   64.3267   31.3512   47.8502 H   0  0  0  0  0  0  0  0  0  0  0  0
   63.1971   31.1915   46.4627 H   0  0  0  0  0  0  0  0  0  0  0  0
   64.4423   32.4862   46.4627 H   0  0  0  0  0  0  0  0  0  0  0  0
  1  2  1  0
  2  3  1  0
  3  4  1  0
  4  5  1  0
  5  6  1  0
  6  7  1  0
  7  8  1  0
  8  9  1  0
  9 10  1  0
 10 11  1  0
 11 12  1  0
 12 13  1  0
 13 14  1  0
 14 15  2  0
 15 16  1  0
 16 17  2  0
 17 18  1  0
 18 19  2  0
 19 20  1  0
 20 21  1  0
 20 22  2  0
 22 23  1  0
 23 24  2  0
 24 25  1  0
 25 26  2  0
 26 27  1  0
  3 28  1  0
 28 29  2  0
 29 30  1  0
 30 31  2  0
 31 32  1  0
 32 33  2  0
 33 34  1  0
 27 13  2  0
 33 28  1  0
 19 14  1  0
 27 22  1  0
  1 35  1  0
  1 36  1  0
  1 37  1  0
  2 38  1  0
  2 39  1  0
  4 40  1  0
  4 41  1  0
  5 42  1  0
  5 43  1  0
  7 44  1  0
  7 45  1  0
  8 46  1  0
  8 47  1  0
 10 48  1  0
 10 49  1  0
 11 50  1  0
 11 51  1  0
 12 52  1  0
 12 53  1  0
 15 54  1  0
 16 55  1  0
 17 56  1  0
 18 57  1  0
 21 58  1  0
 21 59  1  0
 21 60  1  0
 23 61  1  0
 24 62  1  0
 25 63  1  0
 26 64  1  0
 29 65  1  0
 30 66  1  0
 31 67  1  0
 32 68  1  0
 34 69  1  0
 34 70  1  0
 34 71  1  0
M  CHG  2  12   1  20   1
M  END
>  <UniqueID>  (20) 
19

>  <SMILES>  (20) 
CCN(CCOCCOCC[NH2+]c1c2ccccc2[n+](C)c2ccccc12)c1ccccc1C

>  <Energy>  (20) 
108.58682893909376

>  <Genealogy>  (20) 
CCN(CCOCCOCC[NH2+]c1c2ccccc2[n+](C)c2ccccc12)c1ccccc1C (protonated)
CCN(CCOCCOCC[NH2+]c1c2ccccc2[n+](C)c2ccccc12)c1ccccc1C (3D coordinates assigned)
CCN(CCOCCOCC[NH2+]c1c2ccccc2[n+](C)c2ccccc12)c1ccccc1C (optimized conformer: 108.58682893909376 kcal/mol)

>  <smiles>  (20) 
CCN(CCOCCOCCNc1c2ccccc2[n+](C)c2ccccc12)c1ccccc1C

>  <score_type>  (20) 
oracle

>  <origin>  (20) 
adg

>  <m_score__min__energy>  (20) 
-5.3200000000000003

>  <m_primary>  (20) 
energy

$$$$
20:0
     RDKit          3D

 57 60  0  0  0  0  0  0  0  0999 V2000
   63.2300   33.8400   46.3900 C   0  0  0  0  0  0  0  0  0  0  0  0
   63.3860   32.5440   47.1800 C   0  0  0  0  0  0  0  0  0  0  0  0
   63.3030   32.8040   48.6940 C   0  0  0  0  0  0  0  0  0  0  0  0
   62.0840   33.5390   49.0710 N   0  0  0  0  0  0  0  0  0  0  0  0
   61.9980   33.7670   50.5200 C   0  0  0  0  0  0  0  0  0  0  0  0
   61.0810   32.7250   51.1840 C   0  0  0  0  0  0  0  0  0  0  0  0
   59.5830   33.0650   51.0890 C   0  0  0  0  0  0  0  0  0  0  0  0
   58.9340   32.5740   49.7830 C   0  0  0  0  0  0  0  0  0  0  0  0
   59.8880   31.8610   48.9100 N   0  0  0  0  0  0  0  0  0  0  0  0
   59.4370   31.8020   47.5300 C   0  0  0  0  0  0  0  0  0  0  0  0
   59.0890   30.5680   46.9580 C   0  0  0  0  0  0  0  0  0  0  0  0
   58.6480   30.4710   45.6490 C   0  0  0  0  0  0  0  0  0  0  0  0
   58.4070   31.5830   44.8860 N   0  0  0  0  0  0  0  0  0  0  0  0
   57.6180   31.4680   43.6470 C   0  0  0  0  0  0  0  0  0  0  0  0
   58.8570   32.8100   45.3440 C   0  0  0  0  0  0  0  0  0  0  0  0
   58.8540   33.9480   44.4990 C   0  0  0  0  0  0  0  0  0  0  0  0
   59.2660   35.1930   44.9670 C   0  0  0  0  0  0  0  0  0  0  0  0
   59.7030   35.3380   46.2760 C   0  0  0  0  0  0  0  0  0  0  0  0
   59.7550   34.2360   47.1260 C   0  0  0  0  0  0  0  0  0  0  0  0
   59.3540   32.9520   46.6860 C   0  0  0  0  0  0  0  0  0  0  0  0
   58.4320   29.0360   45.3320 C   0  0  0  0  0  0  0  0  0  0  0  0
   58.1990   28.3730   44.1170 C   0  0  0  0  0  0  0  0  0  0  0  0
   58.1180   26.9700   44.1200 C   0  0  0  0  0  0  0  0  0  0  0  0
   58.3130   26.2440   45.3090 C   0  0  0  0  0  0  0  0  0  0  0  0
   58.6160   26.9140   46.5040 C   0  0  0  0  0  0  0  0  0  0  0  0
   58.6760   28.3070   46.4830 C   0  0  0  0  0  0  0  0  0  0  0  0
   59.0900   29.2190   47.5350 C   0  0  0  0  0  0  0  0  0  0  0  0
   59.4020   28.8890   48.7090 O   0  0  0  0  0  0  0  0  0  0  0  0
   63.1283   34.6846   47.0874 H   0  0  0  0  0  0  0  0  0  0  0  0
   64.1163   33.9922   45.7565 H   0  0  0  0  0  0  0  0  0  0  0  0
   62.3329   33.7775   45.7565 H   0  0  0  0  0  0  0  0  0  0  0  0
   62.5846   31.8483   46.8906 H   0  0  0  0  0  0  0  0  0  0  0  0
   64.3726   32.1136   46.9533 H   0  0  0  0  0  0  0  0  0  0  0  0
   63.3096   31.8376   49.2193 H   0  0  0  0  0  0  0  0  0  0  0  0
   64.1682   33.4219   48.9763 H   0  0  0  0  0  0  0  0  0  0  0  0
   62.0630   34.4610   48.5750 H   0  0  0  0  0  0  0  0  0  0  0  0
   63.0046   33.6921   50.9571 H   0  0  0  0  0  0  0  0  0  0  0  0
   61.5779   34.7685   50.6949 H   0  0  0  0  0  0  0  0  0  0  0  0
   61.2479   31.7542   50.6945 H   0  0  0  0  0  0  0  0  0  0  0  0
   61.3382   32.7073   52.2534 H   0  0  0  0  0  0  0  0  0  0  0  0
   59.0629   32.5949   51.9366 H   0  0  0  0  0  0  0  0  0  0  0  0
   59.4937   34.1612   51.1076 H   0  0  0  0  0  0  0  0  0  0  0  0
   58.1083   31.8920   50.0342 H   0  0  0  0  0  0  0  0  0  0  0  0
   58.5762   33.4581   49.2349 H   0  0  0  0  0  0  0  0  0  0  0  0
   60.8010   32.3690   48.9370 H   0  0  0  0  0  0  0  0  0  0  0  0
   60.1170   30.9250   49.3040 H   0  0  0  0  0  0  0  0  0  0  0  0
   56.5587   31.3136   43.8999 H   0  0  0  0  0  0  0  0  0  0  0  0
   57.7236   32.3910   43.0580 H   0  0  0  0  0  0  0  0  0  0  0  0
   57.9827   30.6135   43.0580 H   0  0  0  0  0  0  0  0  0  0  0  0
   58.5205   33.8459   43.4558 H   0  0  0  0  0  0  0  0  0  0  0  0
   59.2450   36.0648   44.2966 H   0  0  0  0  0  0  0  0  0  0  0  0
   60.0098   36.3281   46.6441 H   0  0  0  0  0  0  0  0  0  0  0  0
   60.1141   34.3659   48.1576 H   0  0  0  0  0  0  0  0  0  0  0  0
   58.0822   28.9400   43.1816 H   0  0  0  0  0  0  0  0  0  0  0  0
   57.9001   26.4347   43.1841 H   0  0  0  0  0  0  0  0  0  0  0  0
   58.2277   25.1473   45.3019 H   0  0  0  0  0  0  0  0  0  0  0  0
   58.8014   26.3550   47.4331 H   0  0  0  0  0  0  0  0  0  0  0  0
  1  2  1  0
  2  3  1  0
  3  4  1  0
  4  5  1  0
  5  6  1  0
  6  7  1  0
  7  8  1  0
  8  9  1  0
  9 10  1  0
 10 11  2  0
 11 12  1  0
 12 13  2  0
 13 14  1  0
 13 15  1  0
 15 16  2  0
 16 17  1  0
 17 18  2  0
 18 19  1  0
 19 20  2  0
 12 21  1  0
 21 22  2  0
 22 23  1  0
 23 24  2  0
 24 25  1  0
 25 26  2  0
 26 27  1  0
 27 28  2  0
 20 10  1  0
 26 21  1  0
 27 11  1  0
 20 15  1  0
  1 29  1  0
  1 30  1  0
  1 31  1  0
  2 32  1  0
  2 33  1  0
  3 34  1  0
  3 35  1  0
  4 36  1  0
  5 37  1  0
  5 38  1  0
  6 39  1  0
  6 40  1  0
  7 41  1  0
  7 42  1  0
  8 43  1  0
  8 44  1  0
  9 45  1  0
  9 46  1  0
 14 47  1  0
 14 48  1  0
 14 49  1  0
 16 50  1  0
 17 51  1  0
 18 52  1  0
 19 53  1  0
 22 54  1  0
 23 55  1  0
 24 56  1  0
 25 57  1  0
M  CHG  2   9   1  13   1
M  END
>  <UniqueID>  (21) 
20

>  <SMILES>  (21) 
CCCNCCCC[NH2+]c1c2c([n+](C)c3ccccc13)-c1ccccc1C2=O

>  <Energy>  (21) 
107.40301565904802

>  <Genealogy>  (21) 
CCCNCCCC[NH2+]c1c2c([n+](C)c3ccccc13)-c1ccccc1C2=O (protonated)
CCCNCCCC[NH2+]c1c2c([n+](C)c3ccccc13)-c1ccccc1C2=O (3D coordinates assigned)
CCCNCCCC[NH2+]c1c2c([n+](C)c3ccccc13)-c1ccccc1C2=O (nonaromatic ring conformer: 107.40301565904802 kcal/mol)

>  <smiles>  (21) 
CCCNCCCCNc1c2c([n+](C)c3ccccc13)-c1ccccc1C2=O

>  <score_type>  (21) 
oracle

>  <origin>  (21) 
adg

>  <m_score__min__energy>  (21) 
-5.1600000000000001

>  <m_primary>  (21) 
energy

$$$$
21:0
     RDKit          3D

 47 48  0  0  0  0  0  0  0  0999 V2000
   57.3810   34.2050   45.2600 C   0  0  0  0  0  0  0  0  0  0  0  0
   57.9760   32.8110   45.1040 C   0  0  0  0  0  0  0  0  0  0  0  0
   56.9620   31.8280   45.2140 O   0  0  0  0  0  0  0  0  0  0  0  0
   56.7380   31.1740   43.9770 C   0  0  0  0  0  0  0  0  0  0  0  0
   55.9420   29.8670   44.1770 C   0  0  0  0  0  0  0  0  0  0  0  0
   56.7690   28.7090   44.5820 N   0  0  0  0  0  0  0  0  0  0  0  0
   57.6620   28.2160   43.5170 C   0  0  0  0  0  0  0  0  0  0  0  0
   58.4920   27.0420   44.0490 C   0  0  0  0  0  0  0  0  0  0  0  0
   59.3510   27.4260   45.2010 N   0  0  0  0  0  0  0  0  0  0  0  0
   59.4900   26.3230   46.1770 C   0  0  0  0  0  0  0  0  0  0  0  0
   58.1350   25.9560   46.7960 C   0  0  0  0  0  0  0  0  0  0  0  0
   57.4430   24.9700   45.9540 N   0  0  0  0  0  0  0  0  0  0  0  0
   56.0650   25.1580   45.5790 C   0  0  0  0  0  0  0  0  0  0  0  0
   55.4100   26.1440   46.0140 O   0  0  0  0  0  0  0  0  0  0  0  0
   55.3840   24.1480   44.7010 C   0  0  0  0  0  0  0  0  0  0  0  0
   56.3380   23.5210   43.7760 N   0  0  0  0  0  0  0  0  0  0  0  0
   57.4400   22.8760   44.5040 C   0  0  0  0  0  0  0  0  0  0  0  0
   58.1610   23.8630   45.3790 C   0  0  0  0  0  0  0  0  0  0  0  0
   59.3830   23.6860   45.6340 O   0  0  0  0  0  0  0  0  0  0  0  0
   58.9370   28.6900   45.8600 C   0  0  0  0  0  0  0  0  0  0  0  0
   57.4060   28.8490   45.9140 C   0  0  0  0  0  0  0  0  0  0  0  0
   57.2795   34.4428   46.3292 H   0  0  0  0  0  0  0  0  0  0  0  0
   58.0430   34.9419   44.7817 H   0  0  0  0  0  0  0  0  0  0  0  0
   56.3909   34.2367   44.7817 H   0  0  0  0  0  0  0  0  0  0  0  0
   58.4549   32.7293   44.1171 H   0  0  0  0  0  0  0  0  0  0  0  0
   58.7193   32.6485   45.8984 H   0  0  0  0  0  0  0  0  0  0  0  0
   56.1696   31.8432   43.3143 H   0  0  0  0  0  0  0  0  0  0  0  0
   57.7124   30.9255   43.5311 H   0  0  0  0  0  0  0  0  0  0  0  0
   55.1852   30.0398   44.9564 H   0  0  0  0  0  0  0  0  0  0  0  0
   55.4998   29.6140   43.2021 H   0  0  0  0  0  0  0  0  0  0  0  0
   57.0599   27.8807   42.6596 H   0  0  0  0  0  0  0  0  0  0  0  0
   58.3346   29.0259   43.1982 H   0  0  0  0  0  0  0  0  0  0  0  0
   57.8074   26.2433   44.3705 H   0  0  0  0  0  0  0  0  0  0  0  0
   59.1535   26.7059   43.2369 H   0  0  0  0  0  0  0  0  0  0  0  0
   59.9014   25.4406   45.6651 H   0  0  0  0  0  0  0  0  0  0  0  0
   60.1629   26.6530   46.9822 H   0  0  0  0  0  0  0  0  0  0  0  0
   58.2963   25.5296   47.7971 H   0  0  0  0  0  0  0  0  0  0  0  0
   57.5164   26.8626   46.8694 H   0  0  0  0  0  0  0  0  0  0  0  0
   54.9321   23.3694   45.3331 H   0  0  0  0  0  0  0  0  0  0  0  0
   54.6123   24.6632   44.1102 H   0  0  0  0  0  0  0  0  0  0  0  0
   56.7340   24.2590   43.1460 H   0  0  0  0  0  0  0  0  0  0  0  0
   57.0327   22.0698   45.1318 H   0  0  0  0  0  0  0  0  0  0  0  0
   58.1539   22.4719   43.7711 H   0  0  0  0  0  0  0  0  0  0  0  0
   59.3296   28.6979   46.8875 H   0  0  0  0  0  0  0  0  0  0  0  0
   59.3406   29.5249   45.2683 H   0  0  0  0  0  0  0  0  0  0  0  0
   56.9955   28.0785   46.5832 H   0  0  0  0  0  0  0  0  0  0  0  0
   57.1899   29.8633   46.2808 H   0  0  0  0  0  0  0  0  0  0  0  0
  1  2  1  0
  2  3  1  0
  3  4  1  0
  4  5  1  0
  5  6  1  0
  6  7  1  0
  7  8  1  0
  8  9  1  0
  9 10  1  0
 10 11  1  0
 11 12  1  0
 12 13  1  0
 13 14  2  0
 13 15  1  0
 15 16  1  0
 16 17  1  0
 17 18  1  0
 18 19  2  0
  9 20  1  0
 20 21  1  0
 21  6  1  0
 18 12  1  0
  1 22  1  0
  1 23  1  0
  1 24  1  0
  2 25  1  0
  2 26  1  0
  4 27  1  0
  4 28  1  0
  5 29  1  0
  5 30  1  0
  7 31  1  0
  7 32  1  0
  8 33  1  0
  8 34  1  0
 10 35  1  0
 10 36  1  0
 11 37  1  0
 11 38  1  0
 15 39  1  0
 15 40  1  0
 16 41  1  0
 17 42  1  0
 17 43  1  0
 20 44  1  0
 20 45  1  0
 21 46  1  0
 21 47  1  0
M  END
>  <UniqueID>  (22) 
21

>  <SMILES>  (22) 
CCOCCN1CCN(CCN2C(=O)CNCC2=O)CC1

>  <Energy>  (22) 
60.48705614027356

>  <Genealogy>  (22) 
CCOCCN1CCN(CCN2C(=O)CNCC2=O)CC1 (3D coordinates assigned)
CCOCCN1CCN(CCN2C(=O)CNCC2=O)CC1 (nonaromatic ring conformer: 60.48705614027356 kcal/mol)

>  <smiles>  (22) 
CCOCCN1CCN(CCN2C(=O)CNCC2=O)CC1

>  <score_type>  (22) 
oracle

>  <origin>  (22) 
adg

>  <m_score__min__energy>  (22) 
-6.4400000000000004

>  <m_primary>  (22) 
energy

$$$$
22:0
     RDKit          3D

 40 41  0  0  0  0  0  0  0  0999 V2000
   60.5360   29.6390   47.5130 C   0  0  0  0  0  0  0  0  0  0  0  0
   59.3720   30.1370   48.3530 C   0  0  0  0  0  0  0  0  0  0  0  0
   59.1820   31.5300   48.1200 O   0  0  0  0  0  0  0  0  0  0  0  0
   58.7000   32.0830   46.9220 C   0  0  0  0  0  0  0  0  0  0  0  0
   58.1900   31.2780   45.8840 C   0  0  0  0  0  0  0  0  0  0  0  0
   57.7090   31.8610   44.7080 C   0  0  0  0  0  0  0  0  0  0  0  0
   57.0180   30.7600   43.3090 Br  0  0  0  0  0  0  0  0  0  0  0  0
   57.7280   33.2490   44.5580 C   0  0  0  0  0  0  0  0  0  0  0  0
   58.2320   34.0570   45.5790 C   0  0  0  0  0  0  0  0  0  0  0  0
   58.7240   33.4830   46.7620 C   0  0  0  0  0  0  0  0  0  0  0  0
   59.2460   34.3690   47.8680 C   0  0  0  0  0  0  0  0  0  0  0  0
   60.6940   34.6180   47.7070 N   0  0  0  0  0  0  0  0  0  0  0  0
   61.4550   34.2170   48.9190 C   0  0  0  0  0  0  0  0  0  0  0  0
   62.1540   32.8600   48.7430 C   0  0  0  0  0  0  0  0  0  0  0  0
   63.1350   32.8970   47.6290 N   0  0  0  0  0  0  0  0  0  0  0  0
   63.3890   31.5320   47.1340 C   0  0  0  0  0  0  0  0  0  0  0  0
   62.7330   33.8030   46.5190 C   0  0  0  0  0  0  0  0  0  0  0  0
   61.2110   34.0020   46.4580 C   0  0  0  0  0  0  0  0  0  0  0  0
   61.3440   29.2933   48.1745 H   0  0  0  0  0  0  0  0  0  0  0  0
   60.2000   28.8058   46.8782 H   0  0  0  0  0  0  0  0  0  0  0  0
   60.9066   30.4573   46.8782 H   0  0  0  0  0  0  0  0  0  0  0  0
   58.4587   29.5905   48.0752 H   0  0  0  0  0  0  0  0  0  0  0  0
   59.5891   29.9689   49.4182 H   0  0  0  0  0  0  0  0  0  0  0  0
   58.1702   30.1843   45.9998 H   0  0  0  0  0  0  0  0  0  0  0  0
   57.3453   33.7067   43.6339 H   0  0  0  0  0  0  0  0  0  0  0  0
   58.2437   35.1500   45.4558 H   0  0  0  0  0  0  0  0  0  0  0  0
   58.7106   35.3296   47.8426 H   0  0  0  0  0  0  0  0  0  0  0  0
   59.0820   33.8623   48.8305 H   0  0  0  0  0  0  0  0  0  0  0  0
   62.2161   34.9829   49.1289 H   0  0  0  0  0  0  0  0  0  0  0  0
   60.7409   34.1237   49.7505 H   0  0  0  0  0  0  0  0  0  0  0  0
   62.6799   32.6047   49.6748 H   0  0  0  0  0  0  0  0  0  0  0  0
   61.3899   32.1048   48.5068 H   0  0  0  0  0  0  0  0  0  0  0  0
   64.0420   33.2540   48.0160 H   0  0  0  0  0  0  0  0  0  0  0  0
   63.5159   30.8501   47.9877 H   0  0  0  0  0  0  0  0  0  0  0  0
   62.5373   31.1993   46.5224 H   0  0  0  0  0  0  0  0  0  0  0  0
   64.3033   31.5280   46.5224 H   0  0  0  0  0  0  0  0  0  0  0  0
   63.2130   34.7815   46.6683 H   0  0  0  0  0  0  0  0  0  0  0  0
   63.0526   33.3419   45.5728 H   0  0  0  0  0  0  0  0  0  0  0  0
   60.9697   34.6583   45.6089 H   0  0  0  0  0  0  0  0  0  0  0  0
   60.7378   33.0164   46.3367 H   0  0  0  0  0  0  0  0  0  0  0  0
  1  2  1  0
  2  3  1  0
  3  4  1  0
  4  5  2  0
  5  6  1  0
  6  7  1  0
  6  8  2  0
  8  9  1  0
  9 10  2  0
 10 11  1  0
 11 12  1  0
 12 13  1  0
 13 14  1  0
 14 15  1  0
 15 16  1  0
 15 17  1  0
 17 18  1  0
 10  4  1  0
 18 12  1  0
  1 19  1  0
  1 20  1  0
  1 21  1  0
  2 22  1  0
  2 23  1  0
  5 24  1  0
  8 25  1  0
  9 26  1  0
 11 27  1  0
 11 28  1  0
 13 29  1  0
 13 30  1  0
 14 31  1  0
 14 32  1  0
 15 33  1  0
 16 34  1  0
 16 35  1  0
 16 36  1  0
 17 37  1  0
 17 38  1  0
 18 39  1  0
 18 40  1  0
M  CHG  1  15   1
M  END
>  <UniqueID>  (23) 
22

>  <SMILES>  (23) 
CCOc1cc(Br)ccc1CN1CC[NH+](C)CC1

>  <Energy>  (23) 
47.33872956192019

>  <Genealogy>  (23) 
CCOc1cc(Br)ccc1CN1CC[NH+](C)CC1 (protonated)
CCOc1cc(Br)ccc1CN1CC[NH+](C)CC1 (3D coordinates assigned)
CCOc1cc(Br)ccc1CN1CC[NH+](C)CC1 (nonaromatic ring conformer: 47.33872956192019 kcal/mol)

>  <smiles>  (23) 
CCOc1cc(Br)ccc1CN1CCN(C)CC1

>  <score_type>  (23) 
oracle

>  <origin>  (23) 
adg

>  <m_score__min__energy>  (23) 
-5.2199999999999998

>  <m_primary>  (23) 
energy

$$$$
23:0
     RDKit          3D

 41 44  0  0  0  0  0  0  0  0999 V2000
   55.9070   19.7000   44.8940 C   0  0  0  0  0  0  0  0  0  0  0  0
   56.1830   21.0760   44.5080 N   0  0  0  0  0  0  0  0  0  0  0  0
   56.4890   22.0800   45.3480 C   0  0  0  0  0  0  0  0  0  0  0  0
   56.7230   23.2160   44.5920 C   0  0  0  0  0  0  0  0  0  0  0  0
   57.0700   24.5690   45.0910 C   0  0  0  0  0  0  0  0  0  0  0  0
   58.4080   25.0040   45.0560 C   0  0  0  0  0  0  0  0  0  0  0  0
   58.7580   26.2680   45.5350 C   0  0  0  0  0  0  0  0  0  0  0  0
   57.7810   27.1180   46.0660 C   0  0  0  0  0  0  0  0  0  0  0  0
   58.1610   28.4460   46.5850 C   0  0  0  0  0  0  0  0  0  0  0  0
   58.9240   28.5200   47.7580 C   0  0  0  0  0  0  0  0  0  0  0  0
   59.3030   29.7590   48.2740 C   0  0  0  0  0  0  0  0  0  0  0  0
   58.9060   30.9220   47.6160 C   0  0  0  0  0  0  0  0  0  0  0  0
   58.1540   30.8410   46.4890 N   0  0  0  0  0  0  0  0  0  0  0  0
   57.7670   29.6510   45.9530 C   0  0  0  0  0  0  0  0  0  0  0  0
   56.7460   29.6850   44.5110 S   0  0  0  0  0  0  0  0  0  0  0  0
   55.3350   29.3390   44.8900 O   0  0  0  0  0  0  0  0  0  0  0  0
   57.2480   28.6480   43.5450 O   0  0  0  0  0  0  0  0  0  0  0  0
   56.7720   31.3090   43.7430 C   0  0  0  0  0  0  0  0  0  0  0  0
   58.1460   31.7280   43.2450 C   0  0  0  0  0  0  0  0  0  0  0  0
   57.0620   31.3480   42.2500 C   0  0  0  0  0  0  0  0  0  0  0  0
   56.4430   26.7060   46.0780 C   0  0  0  0  0  0  0  0  0  0  0  0
   56.0850   25.4410   45.5990 C   0  0  0  0  0  0  0  0  0  0  0  0
   54.7740   25.0960   45.6010 F   0  0  0  0  0  0  0  0  0  0  0  0
   56.5330   22.8100   43.2790 C   0  0  0  0  0  0  0  0  0  0  0  0
   56.2110   21.5020   43.2560 N   0  0  0  0  0  0  0  0  0  0  0  0
   55.8916   19.6230   45.9912 H   0  0  0  0  0  0  0  0  0  0  0  0
   54.9298   19.3952   44.4913 H   0  0  0  0  0  0  0  0  0  0  0  0
   56.6910   19.0419   44.4913 H   0  0  0  0  0  0  0  0  0  0  0  0
   56.5439   22.0110   46.4445 H   0  0  0  0  0  0  0  0  0  0  0  0
   59.1855   24.3418   44.6474 H   0  0  0  0  0  0  0  0  0  0  0  0
   59.8068   26.5974   45.4948 H   0  0  0  0  0  0  0  0  0  0  0  0
   59.2254   27.5966   48.2742 H   0  0  0  0  0  0  0  0  0  0  0  0
   59.9087   29.8179   49.1903 H   0  0  0  0  0  0  0  0  0  0  0  0
   59.2022   31.9053   48.0101 H   0  0  0  0  0  0  0  0  0  0  0  0
   55.9898   31.7455   44.3814 H   0  0  0  0  0  0  0  0  0  0  0  0
   58.4672   32.7762   43.3345 H   0  0  0  0  0  0  0  0  0  0  0  0
   59.1770   31.3955   43.4362 H   0  0  0  0  0  0  0  0  0  0  0  0
   56.5984   32.1212   41.6197 H   0  0  0  0  0  0  0  0  0  0  0  0
   56.9832   30.6268   41.4232 H   0  0  0  0  0  0  0  0  0  0  0  0
   55.6673   27.3820   46.4670 H   0  0  0  0  0  0  0  0  0  0  0  0
   56.6302   23.4559   42.3940 H   0  0  0  0  0  0  0  0  0  0  0  0
  1  2  1  0
  2  3  1  0
  3  4  2  0
  4  5  1  0
  5  6  2  0
  6  7  1  0
  7  8  2  0
  8  9  1  0
  9 10  2  0
 10 11  1  0
 11 12  2  0
 12 13  1  0
 13 14  2  0
 14 15  1  0
 15 16  2  0
 15 17  2  0
 15 18  1  0
 18 19  1  0
 19 20  1  0
  8 21  1  0
 21 22  2  0
 22 23  1  0
  4 24  1  0
 24 25  2  0
 25  2  1  0
 22  5  1  0
 14  9  1  0
 20 18  1  0
  1 26  1  0
  1 27  1  0
  1 28  1  0
  3 29  1  0
  6 30  1  0
  7 31  1  0
 10 32  1  0
 11 33  1  0
 12 34  1  0
 18 35  1  0
 19 36  1  0
 19 37  1  0
 20 38  1  0
 20 39  1  0
 21 40  1  0
 24 41  1  0
M  END
>  <UniqueID>  (24) 
23

>  <SMILES>  (24) 
Cn1cc(-c2ccc(-c3cccnc3S(=O)(=O)C3CC3)cc2F)cn1

>  <Energy>  (24) 
347.5050475596124

>  <Genealogy>  (24) 
Cn1cc(-c2ccc(-c3cccnc3S(=O)(=O)C3CC3)cc2F)cn1 (3D coordinates assigned)
Cn1cc(-c2ccc(-c3cccnc3S(=O)(=O)C3CC3)cc2F)cn1 (nonaromatic ring conformer: 347.5050475596124 kcal/mol)

>  <smiles>  (24) 
Cn1cc(-c2ccc(-c3cccnc3S(=O)(=O)C3CC3)cc2F)cn1

>  <score_type>  (24) 
oracle

>  <origin>  (24) 
adg

>  <m_score__min__energy>  (24) 
-7.9500000000000002

>  <m_primary>  (24) 
energy

$$$$
24:0
     RDKit          3D

 55 57  0  0  0  0  0  0  0  0999 V2000
   58.0930   30.8670   51.2870 C   0  0  0  0  0  0  0  0  0  0  0  0
   58.6320   31.4290   49.9770 C   0  0  0  0  0  0  0  0  0  0  0  0
   59.9240   30.9130   49.7100 O   0  0  0  0  0  0  0  0  0  0  0  0
   60.3860   30.0870   50.7640 C   0  0  0  0  0  0  0  0  0  0  0  0
   61.1980   28.9220   50.2030 C   0  0  0  0  0  0  0  0  0  0  0  0
   60.9140   28.7770   48.8300 O   0  0  0  0  0  0  0  0  0  0  0  0
   59.9990   27.7170   48.6330 C   0  0  0  0  0  0  0  0  0  0  0  0
   59.4310   27.7740   47.1940 C   0  0  0  0  0  0  0  0  0  0  0  0
   58.1220   26.9610   47.1240 C   0  0  0  0  0  0  0  0  0  0  0  0
   60.4610   27.1690   46.2230 C   0  0  0  0  0  0  0  0  0  0  0  0
   59.1590   29.2100   46.7900 C   0  0  0  0  0  0  0  0  0  0  0  0
   59.9180   30.2660   47.1800 N   0  0  0  0  0  0  0  0  0  0  0  0
   59.3280   31.3200   46.5910 C   0  0  0  0  0  0  0  0  0  0  0  0
   59.6750   32.6780   46.6530 C   0  0  0  0  0  0  0  0  0  0  0  0
   60.8660   33.1590   47.3870 C   0  0  0  0  0  0  0  0  0  0  0  0
   60.7260   33.7450   48.6580 C   0  0  0  0  0  0  0  0  0  0  0  0
   61.8500   34.2120   49.3470 C   0  0  0  0  0  0  0  0  0  0  0  0
   63.1190   34.1060   48.7720 C   0  0  0  0  0  0  0  0  0  0  0  0
   63.2660   33.5360   47.5050 C   0  0  0  0  0  0  0  0  0  0  0  0
   62.1460   33.0680   46.8110 C   0  0  0  0  0  0  0  0  0  0  0  0
   58.8340   33.5830   45.9630 C   0  0  0  0  0  0  0  0  0  0  0  0
   57.7120   33.1220   45.2390 C   0  0  0  0  0  0  0  0  0  0  0  0
   57.4000   31.7430   45.1960 C   0  0  0  0  0  0  0  0  0  0  0  0
   56.3030   31.2220   44.4960 O   0  0  0  0  0  0  0  0  0  0  0  0
   56.3960   30.1850   43.5270 C   0  0  0  0  0  0  0  0  0  0  0  0
   58.2390   30.8820   45.8960 C   0  0  0  0  0  0  0  0  0  0  0  0
   58.1460   29.5830   46.0220 O   0  0  0  0  0  0  0  0  0  0  0  0
   58.5804   31.3752   52.1321 H   0  0  0  0  0  0  0  0  0  0  0  0
   57.0066   31.0318   51.3372 H   0  0  0  0  0  0  0  0  0  0  0  0
   58.3030   29.7884   51.3372 H   0  0  0  0  0  0  0  0  0  0  0  0
   57.9541   31.1496   49.1571 H   0  0  0  0  0  0  0  0  0  0  0  0
   58.6963   32.5240   50.0594 H   0  0  0  0  0  0  0  0  0  0  0  0
   61.0201   30.6801   51.4393 H   0  0  0  0  0  0  0  0  0  0  0  0
   59.5206   29.6895   51.3145 H   0  0  0  0  0  0  0  0  0  0  0  0
   62.2711   29.1232   50.3374 H   0  0  0  0  0  0  0  0  0  0  0  0
   60.9321   27.9966   50.7349 H   0  0  0  0  0  0  0  0  0  0  0  0
   60.5144   26.7571   48.7842 H   0  0  0  0  0  0  0  0  0  0  0  0
   59.1730   27.8122   49.3532 H   0  0  0  0  0  0  0  0  0  0  0  0
   57.7709   26.7429   48.1434 H   0  0  0  0  0  0  0  0  0  0  0  0
   57.3570   27.5431   46.5893 H   0  0  0  0  0  0  0  0  0  0  0  0
   58.3047   26.0172   46.5893 H   0  0  0  0  0  0  0  0  0  0  0  0
   61.2704   26.6936   46.7965 H   0  0  0  0  0  0  0  0  0  0  0  0
   59.9694   26.4161   45.5893 H   0  0  0  0  0  0  0  0  0  0  0  0
   60.8792   27.9650   45.5893 H   0  0  0  0  0  0  0  0  0  0  0  0
   60.7520   30.2580   47.8080 H   0  0  0  0  0  0  0  0  0  0  0  0
   59.7283   33.8364   49.1120 H   0  0  0  0  0  0  0  0  0  0  0  0
   61.7347   34.6636   50.3434 H   0  0  0  0  0  0  0  0  0  0  0  0
   64.0021   34.4712   49.3168 H   0  0  0  0  0  0  0  0  0  0  0  0
   64.2653   33.4552   47.0523 H   0  0  0  0  0  0  0  0  0  0  0  0
   62.2664   32.6269   45.8105 H   0  0  0  0  0  0  0  0  0  0  0  0
   59.0569   34.6598   45.9908 H   0  0  0  0  0  0  0  0  0  0  0  0
   57.0753   33.8419   44.7039 H   0  0  0  0  0  0  0  0  0  0  0  0
   56.4831   29.2139   44.0364 H   0  0  0  0  0  0  0  0  0  0  0  0
   55.4939   30.1893   42.8976 H   0  0  0  0  0  0  0  0  0  0  0  0
   57.2830   30.3498   42.8976 H   0  0  0  0  0  0  0  0  0  0  0  0
  1  2  1  0
  2  3  1  0
  3  4  1  0
  4  5  1  0
  5  6  1  0
  6  7  1  0
  7  8  1  0
  8  9  1  0
  8 10  1  0
  8 11  1  0
 11 12  2  0
 12 13  1  0
 13 14  2  0
 14 15  1  0
 15 16  2  0
 16 17  1  0
 17 18  2  0
 18 19  1  0
 19 20  2  0
 14 21  1  0
 21 22  2  0
 22 23  1  0
 23 24  1  0
 24 25  1  0
 23 26  2  0
 26 27  1  0
 27 11  1  0
 26 13  1  0
 20 15  1  0
  1 28  1  0
  1 29  1  0
  1 30  1  0
  2 31  1  0
  2 32  1  0
  4 33  1  0
  4 34  1  0
  5 35  1  0
  5 36  1  0
  7 37  1  0
  7 38  1  0
  9 39  1  0
  9 40  1  0
  9 41  1  0
 10 42  1  0
 10 43  1  0
 10 44  1  0
 12 45  1  0
 16 46  1  0
 17 47  1  0
 18 48  1  0
 19 49  1  0
 20 50  1  0
 21 51  1  0
 22 52  1  0
 25 53  1  0
 25 54  1  0
 25 55  1  0
M  CHG  1  12   1
M  END
>  <UniqueID>  (25) 
24

>  <SMILES>  (25) 
CCOCCOCC(C)(C)c1[nH+]c2c(-c3ccccc3)ccc(OC)c2o1

>  <Energy>  (25) 
93.53122014792363

>  <Genealogy>  (25) 
CCOCCOCC(C)(C)c1[nH+]c2c(-c3ccccc3)ccc(OC)c2o1 (protonated)
CCOCCOCC(C)(C)c1[nH+]c2c(-c3ccccc3)ccc(OC)c2o1 (3D coordinates assigned)
CCOCCOCC(C)(C)c1[nH+]c2c(-c3ccccc3)ccc(OC)c2o1 (optimized conformer: 93.53122014792363 kcal/mol)

>  <smiles>  (25) 
CCOCCOCC(C)(C)c1nc2c(-c3ccccc3)ccc(OC)c2o1

>  <score_type>  (25) 
oracle

>  <origin>  (25) 
adg

>  <m_score__min__energy>  (25) 
-5.4299999999999997

>  <m_primary>  (25) 
energy

$$$$
