0:0
     RDKit          3D

 75 79  0  0  0  0  0  0  0  0999 V2000
   66.6410   30.7300   50.9110 C   0  0  0  0  0  0  0  0  0  0  0  0
   65.3460   30.6170   51.7100 C   0  0  0  0  0  0  0  0  0  0  0  0
   64.1700   30.8880   50.8550 N   0  0  0  0  0  0  0  0  0  0  0  0
   63.0230   29.9530   50.9690 C   0  0  0  0  0  0  0  0  0  0  0  0
   63.2020   28.8270   51.9990 C   0  0  0  0  0  0  0  0  0  0  0  0
   63.8010   32.3190   50.7740 C   0  0  0  0  0  0  0  0  0  0  0  0
   64.7290   33.1450   49.8690 C   0  0  0  0  0  0  0  0  0  0  0  0
   64.4000   32.9240   48.4600 N   0  0  0  0  0  0  0  0  0  0  0  0
   63.0600   32.8950   47.9280 C   0  0  0  0  0  0  0  0  0  0  0  0
   62.3380   34.0940   47.8280 C   0  0  0  0  0  0  0  0  0  0  0  0
   61.0370   34.1030   47.3190 C   0  0  0  0  0  0  0  0  0  0  0  0
   60.4310   32.9090   46.9000 C   0  0  0  0  0  0  0  0  0  0  0  0
   61.1650   31.7100   46.9550 C   0  0  0  0  0  0  0  0  0  0  0  0
   62.4600   31.7010   47.4820 C   0  0  0  0  0  0  0  0  0  0  0  0
   60.6260   30.5300   46.4360 O   0  0  0  0  0  0  0  0  0  0  0  0
   59.4660   30.5380   45.6580 C   0  0  0  0  0  0  0  0  0  0  0  0
   59.1100   29.3930   44.9400 C   0  0  0  0  0  0  0  0  0  0  0  0
   57.9910   29.4040   44.0910 C   0  0  0  0  0  0  0  0  0  0  0  0
   57.6600   28.2390   43.3030 N   0  0  0  0  0  0  0  0  0  0  0  0
   58.5110   27.0900   43.6530 C   0  0  0  0  0  0  0  0  0  0  0  0
   57.7730   26.0790   44.4980 C   0  0  0  0  0  0  0  0  0  0  0  0
   57.4070   26.3920   45.8170 C   0  0  0  0  0  0  0  0  0  0  0  0
   56.6840   25.4740   46.5830 C   0  0  0  0  0  0  0  0  0  0  0  0
   56.3160   24.2410   46.0390 C   0  0  0  0  0  0  0  0  0  0  0  0
   56.6710   23.9250   44.7240 C   0  0  0  0  0  0  0  0  0  0  0  0
   57.3940   24.8400   43.9540 C   0  0  0  0  0  0  0  0  0  0  0  0
   57.2280   30.5790   43.9780 C   0  0  0  0  0  0  0  0  0  0  0  0
   57.5660   31.7170   44.7170 C   0  0  0  0  0  0  0  0  0  0  0  0
   58.6840   31.7050   45.5630 C   0  0  0  0  0  0  0  0  0  0  0  0
   58.9730   32.8870   46.4680 C   0  0  1  0  0  0  0  0  0  0  0  0
   58.0370   32.8050   47.6960 C   0  0  0  0  0  0  0  0  0  0  0  0
   58.7260   32.2620   48.9220 C   0  0  0  0  0  0  0  0  0  0  0  0
   58.8780   30.8760   49.0970 C   0  0  0  0  0  0  0  0  0  0  0  0
   59.5510   30.3780   50.2170 C   0  0  0  0  0  0  0  0  0  0  0  0
   60.0770   31.2570   51.1670 C   0  0  0  0  0  0  0  0  0  0  0  0
   59.9310   32.6370   50.9990 C   0  0  0  0  0  0  0  0  0  0  0  0
   59.2600   33.1400   49.8810 C   0  0  0  0  0  0  0  0  0  0  0  0
   67.4932   30.8044   51.6025 H   0  0  0  0  0  0  0  0  0  0  0  0
   66.7598   29.8388   50.2772 H   0  0  0  0  0  0  0  0  0  0  0  0
   66.6036   31.6283   50.2772 H   0  0  0  0  0  0  0  0  0  0  0  0
   65.2648   29.6001   52.1215 H   0  0  0  0  0  0  0  0  0  0  0  0
   65.3685   31.3602   52.5206 H   0  0  0  0  0  0  0  0  0  0  0  0
   62.1344   30.5362   51.2522 H   0  0  0  0  0  0  0  0  0  0  0  0
   62.9292   29.4612   49.9896 H   0  0  0  0  0  0  0  0  0  0  0  0
   63.1356   29.2449   53.0144 H   0  0  0  0  0  0  0  0  0  0  0  0
   62.4123   28.0740   51.8600 H   0  0  0  0  0  0  0  0  0  0  0  0
   64.1863   28.3560   51.8600 H   0  0  0  0  0  0  0  0  0  0  0  0
   62.7765   32.3919   50.3802 H   0  0  0  0  0  0  0  0  0  0  0  0
   63.8901   32.7324   51.7895 H   0  0  0  0  0  0  0  0  0  0  0  0
   64.6092   34.2126   50.1056 H   0  0  0  0  0  0  0  0  0  0  0  0
   65.7687   32.8321   50.0451 H   0  0  0  0  0  0  0  0  0  0  0  0
   65.1960   32.7380   47.8100 H   0  0  0  0  0  0  0  0  0  0  0  0
   62.8013   35.0369   48.1539 H   0  0  0  0  0  0  0  0  0  0  0  0
   60.4847   35.0515   47.2463 H   0  0  0  0  0  0  0  0  0  0  0  0
   63.0150   30.7536   47.5489 H   0  0  0  0  0  0  0  0  0  0  0  0
   59.7103   28.4767   45.0404 H   0  0  0  0  0  0  0  0  0  0  0  0
   56.6610   27.9820   43.4820 H   0  0  0  0  0  0  0  0  0  0  0  0
   57.7480   28.4460   42.2800 H   0  0  0  0  0  0  0  0  0  0  0  0
   58.8473   26.6014   42.7266 H   0  0  0  0  0  0  0  0  0  0  0  0
   59.3650   27.4638   44.2370 H   0  0  0  0  0  0  0  0  0  0  0  0
   57.6905   27.3632   46.2487 H   0  0  0  0  0  0  0  0  0  0  0  0
   56.4038   25.7228   47.6172 H   0  0  0  0  0  0  0  0  0  0  0  0
   55.7476   23.5196   46.6444 H   0  0  0  0  0  0  0  0  0  0  0  0
   56.3807   22.9546   44.2949 H   0  0  0  0  0  0  0  0  0  0  0  0
   57.6674   24.5895   42.9184 H   0  0  0  0  0  0  0  0  0  0  0  0
   56.3592   30.6035   43.3038 H   0  0  0  0  0  0  0  0  0  0  0  0
   56.9519   32.6258   44.6342 H   0  0  0  0  0  0  0  0  0  0  0  0
   58.7871   33.8213   45.9181 H   0  0  0  0  0  0  0  0  0  0  0  0
   57.6638   33.8149   47.9212 H   0  0  0  0  0  0  0  0  0  0  0  0
   57.2193   32.1141   47.4429 H   0  0  0  0  0  0  0  0  0  0  0  0
   58.4663   30.1807   48.3506 H   0  0  0  0  0  0  0  0  0  0  0  0
   59.6665   29.2922   50.3503 H   0  0  0  0  0  0  0  0  0  0  0  0
   60.6061   30.8631   52.0473 H   0  0  0  0  0  0  0  0  0  0  0  0
   60.3449   33.3282   51.7480 H   0  0  0  0  0  0  0  0  0  0  0  0
   59.1494   34.2267   49.7511 H   0  0  0  0  0  0  0  0  0  0  0  0
  1  2  1  0
  2  3  1  0
  3  4  1  0
  4  5  1  0
  3  6  1  0
  6  7  1  0
  7  8  1  0
  8  9  1  0
  9 10  2  0
 10 11  1  0
 11 12  2  0
 12 13  1  0
 13 14  2  0
 13 15  1  0
 15 16  1  0
 16 17  2  0
 17 18  1  0
 18 19  1  0
 19 20  1  0
 20 21  1  0
 21 22  2  0
 22 23  1  0
 23 24  2  0
 24 25  1  0
 25 26  2  0
 18 27  2  0
 27 28  1  0
 28 29  2  0
 29 30  1  0
 30 31  1  0
 31 32  1  0
 32 33  2  0
 33 34  1  0
 34 35  2  0
 35 36  1  0
 36 37  2  0
 14  9  1  0
 29 16  1  0
 37 32  1  0
 30 12  1  0
 26 21  1  0
  1 38  1  0
  1 39  1  0
  1 40  1  0
  2 41  1  0
  2 42  1  0
  4 43  1  0
  4 44  1  0
  5 45  1  0
  5 46  1  0
  5 47  1  0
  6 48  1  0
  6 49  1  0
  7 50  1  0
  7 51  1  0
  8 52  1  0
 10 53  1  0
 11 54  1  0
 14 55  1  0
 17 56  1  0
 19 57  1  0
 19 58  1  0
 20 59  1  0
 20 60  1  0
 22 61  1  0
 23 62  1  0
 24 63  1  0
 25 64  1  0
 26 65  1  0
 27 66  1  0
 28 67  1  0
 30 68  1  6
 31 69  1  0
 31 70  1  0
 33 71  1  0
 34 72  1  0
 35 73  1  0
 36 74  1  0
 37 75  1  0
M  CHG  1  19   1
M  END
>  <UniqueID>  (1) 
1

>  <SMILES>  (1) 
CCN(CC)CCNc1ccc2c(c1)Oc1cc([NH2+]Cc3ccccc3)ccc1[C@H]2Cc1ccccc1

>  <Energy>  (1) 
85.73692147661119

>  <Genealogy>  (1) 
CCN(CC)CCNc1ccc2c(c1)Oc1cc([NH2+]Cc3ccccc3)ccc1C2Cc1ccccc1 (protonated)
CCN(CC)CCNc1ccc2c(c1)Oc1cc([NH2+]Cc3ccccc3)ccc1[C@H]2Cc1ccccc1 (chirality)
CCN(CC)CCNc1ccc2c(c1)Oc1cc([NH2+]Cc3ccccc3)ccc1[C@H]2Cc1ccccc1 (3D coordinates assigned)
CCN(CC)CCNc1ccc2c(c1)Oc1cc([NH2+]Cc3ccccc3)ccc1[C@H]2Cc1ccccc1 (nonaromatic ring conformer: 85.73692147661119 kcal/mol)

>  <smiles>  (1) 
CCN(CC)CCNc1ccc2c(c1)Oc1cc(NCc3ccccc3)ccc1C2Cc1ccccc1

>  <score_type>  (1) 
oracle

>  <origin>  (1) 
adg

>  <m_score__min__energy>  (1) 
-9.0099999999999998

>  <m_primary>  (1) 
energy

$$$$
1:0
     RDKit          3D

 41 42  0  0  0  0  0  0  0  0999 V2000
   56.9930   30.8480   42.6210 C   0  0  0  0  0  0  0  0  0  0  0  0
   56.1590   29.8690   43.4510 C   0  0  0  0  0  0  0  0  0  0  0  0
   56.3840   30.0180   44.8970 N   0  0  0  0  0  0  0  0  0  0  0  0
   57.8110   30.1170   45.2310 C   0  0  0  0  0  0  0  0  0  0  0  0
   58.2140   31.5820   45.4140 C   0  0  0  0  0  0  0  0  0  0  0  0
   57.0220   32.4350   45.4900 N   0  0  0  0  0  0  0  0  0  0  0  0
   57.3950   33.8490   45.3610 C   0  0  0  0  0  0  0  0  0  0  0  0
   58.8540   33.9860   44.8990 C   0  0  0  0  0  0  0  0  0  0  0  0
   59.6540   35.0230   45.7050 C   0  0  0  0  0  0  0  0  0  0  0  0
   60.1950   34.4510   46.9820 C   0  0  0  0  0  0  0  0  0  0  0  0
   59.4890   34.2500   48.1640 C   0  0  0  0  0  0  0  0  0  0  0  0
   60.2760   33.6500   49.0870 N   0  0  0  0  0  0  0  0  0  0  0  0
   61.4680   33.4640   48.4950 C   0  0  0  0  0  0  0  0  0  0  0  0
   62.6000   32.8640   49.0450 C   0  0  0  0  0  0  0  0  0  0  0  0
   63.7450   32.7540   48.2340 C   0  0  0  0  0  0  0  0  0  0  0  0
   63.7320   33.2380   46.9070 C   0  0  0  0  0  0  0  0  0  0  0  0
   62.5740   33.8380   46.3780 C   0  0  0  0  0  0  0  0  0  0  0  0
   61.4570   33.9360   47.2080 C   0  0  0  0  0  0  0  0  0  0  0  0
   57.5575   31.5106   43.2936 H   0  0  0  0  0  0  0  0  0  0  0  0
   57.6941   30.2860   41.9865 H   0  0  0  0  0  0  0  0  0  0  0  0
   56.3267   31.4509   41.9865 H   0  0  0  0  0  0  0  0  0  0  0  0
   55.0941   30.0467   43.2401 H   0  0  0  0  0  0  0  0  0  0  0  0
   56.4641   28.8502   43.1698 H   0  0  0  0  0  0  0  0  0  0  0  0
   55.8920   30.8770   45.2390 H   0  0  0  0  0  0  0  0  0  0  0  0
   58.0039   29.5684   46.1647 H   0  0  0  0  0  0  0  0  0  0  0  0
   58.4012   29.6837   44.4101 H   0  0  0  0  0  0  0  0  0  0  0  0
   58.7933   31.6851   46.3434 H   0  0  0  0  0  0  0  0  0  0  0  0
   58.8223   31.8950   44.5526 H   0  0  0  0  0  0  0  0  0  0  0  0
   56.3980   32.1970   44.6830 H   0  0  0  0  0  0  0  0  0  0  0  0
   56.7360   34.3304   44.6235 H   0  0  0  0  0  0  0  0  0  0  0  0
   57.2879   34.3339   46.3425 H   0  0  0  0  0  0  0  0  0  0  0  0
   59.3463   33.0078   45.0033 H   0  0  0  0  0  0  0  0  0  0  0  0
   58.8334   34.3313   43.8548 H   0  0  0  0  0  0  0  0  0  0  0  0
   60.4950   35.3773   45.0909 H   0  0  0  0  0  0  0  0  0  0  0  0
   58.9739   35.8476   45.9649 H   0  0  0  0  0  0  0  0  0  0  0  0
   58.4397   34.5380   48.3254 H   0  0  0  0  0  0  0  0  0  0  0  0
   60.0040   33.3770   50.0570 H   0  0  0  0  0  0  0  0  0  0  0  0
   62.5983   32.4888   50.0790 H   0  0  0  0  0  0  0  0  0  0  0  0
   64.6565   32.2878   48.6364 H   0  0  0  0  0  0  0  0  0  0  0  0
   64.6330   33.1453   46.2829 H   0  0  0  0  0  0  0  0  0  0  0  0
   62.5505   34.2167   45.3455 H   0  0  0  0  0  0  0  0  0  0  0  0
  1  2  1  0
  2  3  1  0
  3  4  1  0
  4  5  1  0
  5  6  1  0
  6  7  1  0
  7  8  1  0
  8  9  1  0
  9 10  1  0
 10 11  2  0
 11 12  1  0
 12 13  1  0
 13 14  2  0
 14 15  1  0
 15 16  2  0
 16 17  1  0
 17 18  2  0
 18 10  1  0
 18 13  1  0
  1 19  1  0
  1 20  1  0
  1 21  1  0
  2 22  1  0
  2 23  1  0
  3 24  1  0
  4 25  1  0
  4 26  1  0
  5 27  1  0
  5 28  1  0
  6 29  1  0
  7 30  1  0
  7 31  1  0
  8 32  1  0
  8 33  1  0
  9 34  1  0
  9 35  1  0
 11 36  1  0
 12 37  1  0
 14 38  1  0
 15 39  1  0
 16 40  1  0
 17 41  1  0
M  END
>  <UniqueID>  (2) 
2

>  <SMILES>  (2) 
CCNCCNCCCc1c[nH]c2ccccc12

>  <Energy>  (2) 
62.593399694330955

>  <Genealogy>  (2) 
CCNCCNCCCc1c[nH]c2ccccc12 (3D coordinates assigned)
CCNCCNCCCc1c[nH]c2ccccc12 (optimized conformer: 62.593399694330955 kcal/mol)

>  <smiles>  (2) 
CCNCCNCCCc1c[nH]c2ccccc12

>  <score_type>  (2) 
oracle

>  <origin>  (2) 
adg

>  <m_score__min__energy>  (2) 
-7.1900000000000004

>  <m_primary>  (2) 
energy

$$$$
2:0
     RDKit          3D

 46 48  0  0  0  0  0  0  0  0999 V2000
   59.5390   27.3200   47.4990 C   0  0  0  0  0  0  0  0  0  0  0  0
   59.0280   26.8930   46.1150 C   0  0  0  0  0  0  0  0  0  0  0  0
   58.8420   28.0160   45.1680 N   0  0  0  0  0  0  0  0  0  0  0  0
   60.1240   28.6230   44.7650 C   0  0  0  0  0  0  0  0  0  0  0  0
   58.0070   27.6450   44.0020 C   0  0  0  0  0  0  0  0  0  0  0  0
   57.3250   28.8730   43.3830 C   0  0  0  0  0  0  0  0  0  0  0  0
   56.3660   29.5140   44.3520 C   0  0  0  0  0  0  0  0  0  0  0  0
   55.5420   28.7870   44.9700 O   0  0  0  0  0  0  0  0  0  0  0  0
   56.2830   30.9370   44.5060 N   0  0  0  0  0  0  0  0  0  0  0  0
   57.2680   31.7760   45.1230 C   0  0  0  0  0  0  0  0  0  0  0  0
   57.3100   33.1580   44.8770 C   0  0  0  0  0  0  0  0  0  0  0  0
   58.3050   33.9500   45.4590 C   0  0  0  0  0  0  0  0  0  0  0  0
   59.2850   33.3640   46.2800 C   0  0  0  0  0  0  0  0  0  0  0  0
   60.3060   34.1160   46.8880 C   0  0  0  0  0  0  0  0  0  0  0  0
   60.3510   35.3670   46.7030 O   0  0  0  0  0  0  0  0  0  0  0  0
   61.2490   33.4950   47.6730 N   0  0  0  0  0  0  0  0  0  0  0  0
   62.2470   34.2200   48.2740 C   0  0  0  0  0  0  0  0  0  0  0  0
   63.2080   33.5950   49.0720 C   0  0  0  0  0  0  0  0  0  0  0  0
   63.1640   32.2110   49.2550 C   0  0  0  0  0  0  0  0  0  0  0  0
   64.1640   31.5320   50.1430 C   0  0  0  0  0  0  0  0  0  0  0  0
   62.1360   31.4780   48.6580 C   0  0  0  0  0  0  0  0  0  0  0  0
   61.1870   32.1290   47.8630 C   0  0  0  0  0  0  0  0  0  0  0  0
   60.2020   31.3970   47.2820 N   0  0  0  0  0  0  0  0  0  0  0  0
   59.2570   31.9750   46.5010 C   0  0  0  0  0  0  0  0  0  0  0  0
   58.2590   31.1870   45.9170 C   0  0  0  0  0  0  0  0  0  0  0  0
   58.9439   26.8227   48.2791 H   0  0  0  0  0  0  0  0  0  0  0  0
   60.5955   27.0324   47.6046 H   0  0  0  0  0  0  0  0  0  0  0  0
   59.4437   28.4108   47.6046 H   0  0  0  0  0  0  0  0  0  0  0  0
   59.7541   26.1905   45.6800 H   0  0  0  0  0  0  0  0  0  0  0  0
   58.0379   26.4388   46.2679 H   0  0  0  0  0  0  0  0  0  0  0  0
   60.6989   28.8952   45.6624 H   0  0  0  0  0  0  0  0  0  0  0  0
   60.6990   27.9015   44.1660 H   0  0  0  0  0  0  0  0  0  0  0  0
   59.9304   29.5250   44.1660 H   0  0  0  0  0  0  0  0  0  0  0  0
   58.6452   27.1701   43.2423 H   0  0  0  0  0  0  0  0  0  0  0  0
   57.2242   26.9527   44.3453 H   0  0  0  0  0  0  0  0  0  0  0  0
   58.0949   29.6069   43.1026 H   0  0  0  0  0  0  0  0  0  0  0  0
   56.7580   28.5461   42.4989 H   0  0  0  0  0  0  0  0  0  0  0  0
   56.5560   33.6202   44.2228 H   0  0  0  0  0  0  0  0  0  0  0  0
   58.3211   35.0342   45.2741 H   0  0  0  0  0  0  0  0  0  0  0  0
   62.2909   35.3090   48.1252 H   0  0  0  0  0  0  0  0  0  0  0  0
   63.9968   34.1907   49.5547 H   0  0  0  0  0  0  0  0  0  0  0  0
   63.9005   31.7109   51.1959 H   0  0  0  0  0  0  0  0  0  0  0  0
   64.1579   30.4505   49.9422 H   0  0  0  0  0  0  0  0  0  0  0  0
   65.1670   31.9366   49.9422 H   0  0  0  0  0  0  0  0  0  0  0  0
   62.0728   30.3908   48.8127 H   0  0  0  0  0  0  0  0  0  0  0  0
   58.2532   30.0996   46.0826 H   0  0  0  0  0  0  0  0  0  0  0  0
  1  2  1  0
  2  3  1  0
  3  4  1  0
  3  5  1  0
  5  6  1  0
  6  7  1  0
  7  8  2  0
  7  9  1  0
  9 10  1  0
 10 11  2  0
 11 12  1  0
 12 13  2  0
 13 14  1  0
 14 15  2  0
 14 16  1  0
 16 17  1  0
 17 18  2  0
 18 19  1  0
 19 20  1  0
 19 21  2  0
 21 22  1  0
 22 23  2  0
 23 24  1  0
 24 25  2  0
 25 10  1  0
 24 13  1  0
 22 16  1  0
  1 26  1  0
  1 27  1  0
  1 28  1  0
  2 29  1  0
  2 30  1  0
  4 31  1  0
  4 32  1  0
  4 33  1  0
  5 34  1  0
  5 35  1  0
  6 36  1  0
  6 37  1  0
 11 38  1  0
 12 39  1  0
 17 40  1  0
 18 41  1  0
 20 42  1  0
 20 43  1  0
 20 44  1  0
 21 45  1  0
 25 46  1  0
M  CHG  1   9  -1
M  END
>  <UniqueID>  (3) 
3

>  <SMILES>  (3) 
CCN(C)CCC(=O)[N-]c1ccc2c(=O)n3ccc(C)cc3nc2c1

>  <Energy>  (3) 
61.666234965667655

>  <Genealogy>  (3) 
CCN(C)CCC(=O)[N-]c1ccc2c(=O)n3ccc(C)cc3nc2c1 (protonated)
CCN(C)CCC(=O)[N-]c1ccc2c(=O)n3ccc(C)cc3nc2c1 (3D coordinates assigned)
CCN(C)CCC(=O)[N-]c1ccc2c(=O)n3ccc(C)cc3nc2c1 (optimized conformer: 61.666234965667655 kcal/mol)

>  <smiles>  (3) 
CCN(C)CCC(=O)Nc1ccc2c(=O)n3ccc(C)cc3nc2c1

>  <score_type>  (3) 
oracle

>  <origin>  (3) 
adg

>  <m_score__min__energy>  (3) 
-9.5800000000000001

>  <m_primary>  (3) 
energy

$$$$
3:0
     RDKit          3D

 35 37  0  0  0  0  0  0  0  0999 V2000
   57.8700   32.3360   41.4310 C   0  0  0  0  0  0  0  0  0  0  0  0
   57.4000   31.6100   42.2700 C   0  0  0  0  0  0  0  0  0  0  0  0
   56.8290   30.7250   43.2890 C   0  0  0  0  0  0  0  0  0  0  0  0
   57.6590   30.7500   44.4940 N   0  0  0  0  0  0  0  0  0  0  0  0
   57.7900   31.7540   45.4040 C   0  0  0  0  0  0  0  0  0  0  0  0
   57.0300   33.3750   45.2450 S   0  0  0  0  0  0  0  0  0  0  0  0
   58.6060   34.2500   44.9420 C   0  0  0  0  0  0  0  0  0  0  0  0
   59.4680   34.2520   46.1740 C   0  0  0  0  0  0  0  0  0  0  0  0
   58.9260   34.6020   47.4230 C   0  0  0  0  0  0  0  0  0  0  0  0
   59.7170   34.5450   48.5740 C   0  0  0  0  0  0  0  0  0  0  0  0
   61.0510   34.1400   48.4890 C   0  0  0  0  0  0  0  0  0  0  0  0
   61.6000   33.7910   47.2510 C   0  0  0  0  0  0  0  0  0  0  0  0
   63.4190   33.2260   47.1370 Br  0  0  0  0  0  0  0  0  0  0  0  0
   60.8100   33.8470   46.0960 C   0  0  0  0  0  0  0  0  0  0  0  0
   58.5810   31.4140   46.4500 N   0  0  0  0  0  0  0  0  0  0  0  0
   58.9560   30.1520   46.1840 C   0  0  0  0  0  0  0  0  0  0  0  0
   59.7730   29.3180   46.9430 C   0  0  0  0  0  0  0  0  0  0  0  0
   60.0110   28.0190   46.4560 C   0  0  0  0  0  0  0  0  0  0  0  0
   59.4300   27.5920   45.2400 C   0  0  0  0  0  0  0  0  0  0  0  0
   58.6080   28.4610   44.4980 C   0  0  0  0  0  0  0  0  0  0  0  0
   58.3970   29.7440   45.0060 C   0  0  0  0  0  0  0  0  0  0  0  0
   58.2991   32.9988   40.6651 H   0  0  0  0  0  0  0  0  0  0  0  0
   55.8131   31.0648   43.5390 H   0  0  0  0  0  0  0  0  0  0  0  0
   56.7922   29.6981   42.8965 H   0  0  0  0  0  0  0  0  0  0  0  0
   59.1457   33.7465   44.1264 H   0  0  0  0  0  0  0  0  0  0  0  0
   58.3812   35.2920   44.6705 H   0  0  0  0  0  0  0  0  0  0  0  0
   57.8760   34.9218   47.4947 H   0  0  0  0  0  0  0  0  0  0  0  0
   59.2879   34.8197   49.5489 H   0  0  0  0  0  0  0  0  0  0  0  0
   61.6705   34.0955   49.3969 H   0  0  0  0  0  0  0  0  0  0  0  0
   61.2431   33.5723   45.1229 H   0  0  0  0  0  0  0  0  0  0  0  0
   58.8440   32.0020   47.2720 H   0  0  0  0  0  0  0  0  0  0  0  0
   60.2164   29.6620   47.8891 H   0  0  0  0  0  0  0  0  0  0  0  0
   60.6535   27.3313   47.0255 H   0  0  0  0  0  0  0  0  0  0  0  0
   59.6216   26.5736   44.8711 H   0  0  0  0  0  0  0  0  0  0  0  0
   58.1482   28.1405   43.5515 H   0  0  0  0  0  0  0  0  0  0  0  0
  1  2  3  0
  2  3  1  0
  3  4  1  0
  4  5  1  0
  5  6  1  0
  6  7  1  0
  7  8  1  0
  8  9  2  0
  9 10  1  0
 10 11  2  0
 11 12  1  0
 12 13  1  0
 12 14  2  0
  5 15  2  0
 15 16  1  0
 16 17  2  0
 17 18  1  0
 18 19  2  0
 19 20  1  0
 20 21  2  0
 21  4  1  0
 14  8  1  0
 21 16  1  0
  1 22  1  0
  3 23  1  0
  3 24  1  0
  7 25  1  0
  7 26  1  0
  9 27  1  0
 10 28  1  0
 11 29  1  0
 14 30  1  0
 15 31  1  0
 17 32  1  0
 18 33  1  0
 19 34  1  0
 20 35  1  0
M  CHG  1  15   1
M  END
>  <UniqueID>  (4) 
4

>  <SMILES>  (4) 
C#CCn1c(SCc2cccc(Br)c2)[nH+]c2ccccc21

>  <Energy>  (4) 
66.69553596323648

>  <Genealogy>  (4) 
C#CCn1c(SCc2cccc(Br)c2)[nH+]c2ccccc21 (protonated)
C#CCn1c(SCc2cccc(Br)c2)[nH+]c2ccccc21 (3D coordinates assigned)
C#CCn1c(SCc2cccc(Br)c2)[nH+]c2ccccc21 (optimized conformer: 66.69553596323648 kcal/mol)

>  <smiles>  (4) 
C#CCn1c(SCc2cccc(Br)c2)nc2ccccc21

>  <score_type>  (4) 
oracle

>  <origin>  (4) 
adg

>  <m_score__min__energy>  (4) 
-6.5199999999999996

>  <m_primary>  (4) 
energy

$$$$
4:0
     RDKit          3D

 33 36  0  0  0  0  0  0  0  0999 V2000
   64.1350   32.5840   49.0200 C   0  0  0  0  0  0  0  0  0  0  0  0
   63.1220   32.8560   48.0090 N   0  0  0  0  0  0  0  0  0  0  0  0
   61.9580   32.1970   47.8640 C   0  0  0  0  0  0  0  0  0  0  0  0
   61.2500   32.8030   46.8440 C   0  0  0  0  0  0  0  0  0  0  0  0
   59.9170   32.4490   46.3150 C   0  0  0  0  0  0  0  0  0  0  0  0
   59.5020   31.1000   46.2140 C   0  0  0  0  0  0  0  0  0  0  0  0
   58.2230   30.8630   45.7130 C   0  0  0  0  0  0  0  0  0  0  0  0
   57.4990   29.7160   45.4420 C   0  0  0  0  0  0  0  0  0  0  0  0
   57.8860   28.3110   45.6890 C   0  0  0  0  0  0  0  0  0  0  0  0
   58.3200   27.8890   46.9590 C   0  0  0  0  0  0  0  0  0  0  0  0
   58.6690   26.5530   47.1780 C   0  0  0  0  0  0  0  0  0  0  0  0
   58.5760   25.6250   46.1370 C   0  0  0  0  0  0  0  0  0  0  0  0
   58.9130   24.3290   46.3510 F   0  0  0  0  0  0  0  0  0  0  0  0
   58.1250   26.0310   44.8780 C   0  0  0  0  0  0  0  0  0  0  0  0
   57.7750   27.3670   44.6560 C   0  0  0  0  0  0  0  0  0  0  0  0
   56.3250   30.0810   44.8730 N   0  0  0  0  0  0  0  0  0  0  0  0
   56.2720   31.4070   44.7880 N   0  0  0  0  0  0  0  0  0  0  0  0
   57.4200   31.8820   45.2980 C   0  0  0  0  0  0  0  0  0  0  0  0
   57.8330   33.2030   45.3920 C   0  0  0  0  0  0  0  0  0  0  0  0
   59.0740   33.4520   45.9030 N   0  0  0  0  0  0  0  0  0  0  0  0
   62.0550   33.8470   46.4200 C   0  0  0  0  0  0  0  0  0  0  0  0
   63.1870   33.8620   47.1520 N   0  0  0  0  0  0  0  0  0  0  0  0
   63.6949   32.7022   50.0212 H   0  0  0  0  0  0  0  0  0  0  0  0
   64.5046   31.5548   48.9011 H   0  0  0  0  0  0  0  0  0  0  0  0
   64.9704   33.2896   48.9011 H   0  0  0  0  0  0  0  0  0  0  0  0
   61.6282   31.3289   48.4535 H   0  0  0  0  0  0  0  0  0  0  0  0
   60.1609   30.2733   46.5180 H   0  0  0  0  0  0  0  0  0  0  0  0
   58.3851   28.6139   47.7838 H   0  0  0  0  0  0  0  0  0  0  0  0
   59.0172   26.2318   48.1708 H   0  0  0  0  0  0  0  0  0  0  0  0
   58.0452   25.2991   44.0607 H   0  0  0  0  0  0  0  0  0  0  0  0
   57.4107   27.6797   43.6663 H   0  0  0  0  0  0  0  0  0  0  0  0
   57.1799   34.0253   45.0645 H   0  0  0  0  0  0  0  0  0  0  0  0
   61.8094   34.5529   45.6129 H   0  0  0  0  0  0  0  0  0  0  0  0
  1  2  1  0
  2  3  1  0
  3  4  2  0
  4  5  1  0
  5  6  2  0
  6  7  1  0
  7  8  2  0
  8  9  1  0
  9 10  2  0
 10 11  1  0
 11 12  2  0
 12 13  1  0
 12 14  1  0
 14 15  2  0
  8 16  1  0
 16 17  1  0
 17 18  2  0
 18 19  1  0
 19 20  2  0
  4 21  1  0
 21 22  2  0
 22  2  1  0
 20  5  1  0
 18  7  1  0
 15  9  1  0
  1 23  1  0
  1 24  1  0
  1 25  1  0
  3 26  1  0
  6 27  1  0
 10 28  1  0
 11 29  1  0
 14 30  1  0
 15 31  1  0
 19 32  1  0
 21 33  1  0
M  CHG  1  16  -1
M  END
>  <UniqueID>  (5) 
5

>  <SMILES>  (5) 
Cn1cc(-c2cc3c(-c4ccc(F)cc4)[n-]nc3cn2)cn1

>  <Energy>  (5) 
110.84955700920675

>  <Genealogy>  (5) 
Cn1cc(-c2cc3c(-c4ccc(F)cc4)[n-]nc3cn2)cn1 (protonated)
Cn1cc(-c2cc3c(-c4ccc(F)cc4)[n-]nc3cn2)cn1 (3D coordinates assigned)
Cn1cc(-c2cc3c(-c4ccc(F)cc4)[n-]nc3cn2)cn1 (optimized conformer: 110.84955700920675 kcal/mol)

>  <smiles>  (5) 
Cn1cc(-c2cc3c(-c4ccc(F)cc4)[nH]nc3cn2)cn1

>  <score_type>  (5) 
oracle

>  <origin>  (5) 
adg

>  <m_score__min__energy>  (5) 
-8.7300000000000004

>  <m_primary>  (5) 
energy

$$$$
5:0
     RDKit          3D

 50 53  0  0  0  0  0  0  0  0999 V2000
   55.8810   30.0540   43.3850 C   0  0  0  0  0  0  0  0  0  0  0  0
   57.1880   29.4600   43.8120 C   0  0  0  0  0  0  0  0  0  0  0  0
   57.5250   28.1770   43.5710 N   0  0  0  0  0  0  0  0  0  0  0  0
   58.7390   28.0100   44.1280 C   0  0  0  0  0  0  0  0  0  0  0  0
   59.1310   29.2020   44.6990 C   0  0  0  0  0  0  0  0  0  0  0  0
   58.1620   30.1160   44.4880 N   0  0  0  0  0  0  0  0  0  0  0  0
   58.1900   31.4860   44.9240 C   0  0  0  0  0  0  0  0  0  0  0  0
   57.7630   32.5180   44.0740 C   0  0  0  0  0  0  0  0  0  0  0  0
   57.8120   33.8460   44.4990 C   0  0  0  0  0  0  0  0  0  0  0  0
   58.3090   34.1590   45.7660 C   0  0  0  0  0  0  0  0  0  0  0  0
   58.7760   33.1450   46.6180 C   0  0  0  0  0  0  0  0  0  0  0  0
   59.3420   33.4930   47.9810 C   0  0  0  0  0  0  0  0  0  0  0  0
   60.8060   33.7130   47.9810 N   0  0  0  0  0  0  0  0  0  0  0  0
   61.3310   34.3640   49.2060 C   0  0  0  0  0  0  0  0  0  0  0  0
   62.1640   33.4120   50.0740 C   0  0  0  0  0  0  0  0  0  0  0  0
   63.2470   32.8150   49.2780 N   0  0  0  0  0  0  0  0  0  0  0  0
   64.4610   32.3610   49.9180 C   0  0  0  0  0  0  0  0  0  0  0  0
   65.6700   33.0620   49.7410 C   0  0  0  0  0  0  0  0  0  0  0  0
   66.8430   32.6210   50.3610 C   0  0  0  0  0  0  0  0  0  0  0  0
   66.8240   31.4790   51.1640 C   0  0  0  0  0  0  0  0  0  0  0  0
   65.6320   30.7740   51.3470 C   0  0  0  0  0  0  0  0  0  0  0  0
   64.4560   31.2110   50.7300 C   0  0  0  0  0  0  0  0  0  0  0  0
   63.0720   32.6760   47.8260 C   0  0  0  0  0  0  0  0  0  0  0  0
   61.5820   32.5520   47.4880 C   0  0  0  0  0  0  0  0  0  0  0  0
   58.6930   31.8080   46.1950 C   0  0  0  0  0  0  0  0  0  0  0  0
   55.2919   30.3217   44.2745 H   0  0  0  0  0  0  0  0  0  0  0  0
   56.0672   30.9559   42.7834 H   0  0  0  0  0  0  0  0  0  0  0  0
   55.3240   29.3206   42.7834 H   0  0  0  0  0  0  0  0  0  0  0  0
   56.9600   27.4550   43.0700 H   0  0  0  0  0  0  0  0  0  0  0  0
   59.3217   27.0770   44.1276 H   0  0  0  0  0  0  0  0  0  0  0  0
   60.0748   29.3779   45.2360 H   0  0  0  0  0  0  0  0  0  0  0  0
   57.3879   32.2787   43.0680 H   0  0  0  0  0  0  0  0  0  0  0  0
   57.4584   34.6482   43.8346 H   0  0  0  0  0  0  0  0  0  0  0  0
   58.3349   35.2071   46.0989 H   0  0  0  0  0  0  0  0  0  0  0  0
   58.8530   34.4125   48.3352 H   0  0  0  0  0  0  0  0  0  0  0  0
   59.1470   32.6328   48.6383 H   0  0  0  0  0  0  0  0  0  0  0  0
   61.9637   35.2135   48.9091 H   0  0  0  0  0  0  0  0  0  0  0  0
   60.4674   34.6886   49.8050 H   0  0  0  0  0  0  0  0  0  0  0  0
   62.5979   33.9729   50.9149 H   0  0  0  0  0  0  0  0  0  0  0  0
   61.5134   32.6102   50.4531 H   0  0  0  0  0  0  0  0  0  0  0  0
   65.6914   33.9630   49.1103 H   0  0  0  0  0  0  0  0  0  0  0  0
   67.7824   33.1747   50.2159 H   0  0  0  0  0  0  0  0  0  0  0  0
   67.7474   31.1345   51.6524 H   0  0  0  0  0  0  0  0  0  0  0  0
   65.6186   29.8730   51.9779 H   0  0  0  0  0  0  0  0  0  0  0  0
   63.5204   30.6524   50.8801 H   0  0  0  0  0  0  0  0  0  0  0  0
   63.4875   33.5613   47.3224 H   0  0  0  0  0  0  0  0  0  0  0  0
   63.5968   31.7720   47.4835 H   0  0  0  0  0  0  0  0  0  0  0  0
   61.4692   32.4867   46.3957 H   0  0  0  0  0  0  0  0  0  0  0  0
   61.1944   31.6484   47.9811 H   0  0  0  0  0  0  0  0  0  0  0  0
   59.0260   31.0036   46.8674 H   0  0  0  0  0  0  0  0  0  0  0  0
  1  2  1  0
  2  3  2  0
  3  4  1  0
  4  5  2  0
  5  6  1  0
  6  7  1  0
  7  8  2  0
  8  9  1  0
  9 10  2  0
 10 11  1  0
 11 12  1  0
 12 13  1  0
 13 14  1  0
 14 15  1  0
 15 16  1  0
 16 17  1  0
 17 18  2  0
 18 19  1  0
 19 20  2  0
 20 21  1  0
 21 22  2  0
 16 23  1  0
 23 24  1  0
 11 25  2  0
  6  2  1  0
 25  7  1  0
 24 13  1  0
 22 17  1  0
  1 26  1  0
  1 27  1  0
  1 28  1  0
  3 29  1  0
  4 30  1  0
  5 31  1  0
  8 32  1  0
  9 33  1  0
 10 34  1  0
 12 35  1  0
 12 36  1  0
 14 37  1  0
 14 38  1  0
 15 39  1  0
 15 40  1  0
 18 41  1  0
 19 42  1  0
 20 43  1  0
 21 44  1  0
 22 45  1  0
 23 46  1  0
 23 47  1  0
 24 48  1  0
 24 49  1  0
 25 50  1  0
M  CHG  1   3   1
M  END
>  <UniqueID>  (6) 
6

>  <SMILES>  (6) 
Cc1[nH+]ccn1-c1cccc(CN2CCN(c3ccccc3)CC2)c1

>  <Energy>  (6) 
99.94697442081598

>  <Genealogy>  (6) 
Cc1[nH+]ccn1-c1cccc(CN2CCN(c3ccccc3)CC2)c1 (protonated)
Cc1[nH+]ccn1-c1cccc(CN2CCN(c3ccccc3)CC2)c1 (3D coordinates assigned)
Cc1[nH+]ccn1-c1cccc(CN2CCN(c3ccccc3)CC2)c1 (nonaromatic ring conformer: 99.94697442081598 kcal/mol)

>  <smiles>  (6) 
Cc1nccn1-c1cccc(CN2CCN(c3ccccc3)CC2)c1

>  <score_type>  (6) 
oracle

>  <origin>  (6) 
adg

>  <m_score__min__energy>  (6) 
-6.9199999999999999

>  <m_primary>  (6) 
energy

$$$$
6:0
     RDKit          3D

 57 60  0  0  0  0  0  0  0  0999 V2000
   59.4720   32.4910   51.0200 C   0  0  0  0  0  0  0  0  0  0  0  0
   60.9390   32.0620   50.8730 C   0  0  0  0  0  0  0  0  0  0  0  0
   61.2890   31.5060   49.5400 N   0  0  0  0  0  0  0  0  0  0  0  0
   60.4540   30.3640   49.1050 C   0  0  0  0  0  0  0  0  0  0  0  0
   60.8220   29.8960   47.6970 C   0  0  0  0  0  0  0  0  0  0  0  0
   62.7370   31.2290   49.3990 C   0  0  0  0  0  0  0  0  0  0  0  0
   63.5340   32.5350   49.3940 C   0  0  0  0  0  0  0  0  0  0  0  0
   63.2410   33.4860   47.9090 S   0  0  0  0  0  0  0  0  0  0  0  0
   63.9620   32.8120   46.5470 O   0  0  0  0  0  0  0  0  0  0  0  0
   61.5200   33.6990   47.6500 C   0  0  0  0  0  0  0  0  0  0  0  0
   60.7800   34.5420   48.4840 C   0  0  0  0  0  0  0  0  0  0  0  0
   59.4030   34.6820   48.2910 C   0  0  0  0  0  0  0  0  0  0  0  0
   58.7610   33.9740   47.2700 C   0  0  0  0  0  0  0  0  0  0  0  0
   59.4950   33.1220   46.4230 C   0  0  0  0  0  0  0  0  0  0  0  0
   58.8270   32.3400   45.3520 C   0  0  0  0  0  0  0  0  0  0  0  0
   58.4610   32.9560   44.1290 C   0  0  0  0  0  0  0  0  0  0  0  0
   57.8320   32.1860   43.1420 C   0  0  0  0  0  0  0  0  0  0  0  0
   57.4730   32.7020   42.0510 O   0  0  0  0  0  0  0  0  0  0  0  0
   57.6210   30.8710   43.3930 N   0  0  0  0  0  0  0  0  0  0  0  0
   57.0170   29.9930   42.6090 N   0  0  0  0  0  0  0  0  0  0  0  0
   57.0130   28.8120   43.2730 C   0  0  0  0  0  0  0  0  0  0  0  0
   57.6440   28.9550   44.5070 C   0  0  0  0  0  0  0  0  0  0  0  0
   57.8740   27.8950   45.5050 C   0  0  0  0  0  0  0  0  0  0  0  0
   57.4620   26.5700   45.2750 C   0  0  0  0  0  0  0  0  0  0  0  0
   57.6870   25.6020   46.2560 C   0  0  0  0  0  0  0  0  0  0  0  0
   58.3030   25.9590   47.4560 C   0  0  0  0  0  0  0  0  0  0  0  0
   58.6780   27.2880   47.6630 C   0  0  0  0  0  0  0  0  0  0  0  0
   58.4530   28.2170   46.6950 N   0  0  0  0  0  0  0  0  0  0  0  0
   58.0000   30.2900   44.5360 C   0  0  0  0  0  0  0  0  0  0  0  0
   58.5680   31.0060   45.5410 N   0  0  0  0  0  0  0  0  0  0  0  0
   60.8820   33.0000   46.6200 C   0  0  0  0  0  0  0  0  0  0  0  0
   59.2170   32.5656   52.0874 H   0  0  0  0  0  0  0  0  0  0  0  0
   59.3261   33.4694   50.5389 H   0  0  0  0  0  0  0  0  0  0  0  0
   58.8219   31.7453   50.5389 H   0  0  0  0  0  0  0  0  0  0  0  0
   61.5739   32.9415   51.0556 H   0  0  0  0  0  0  0  0  0  0  0  0
   61.1026   31.2540   51.6012 H   0  0  0  0  0  0  0  0  0  0  0  0
   60.5985   29.5294   49.8068 H   0  0  0  0  0  0  0  0  0  0  0  0
   59.4044   30.6928   49.0928 H   0  0  0  0  0  0  0  0  0  0  0  0
   61.5007   29.0329   47.7632 H   0  0  0  0  0  0  0  0  0  0  0  0
   59.9090   29.6040   47.1573 H   0  0  0  0  0  0  0  0  0  0  0  0
   61.3211   30.7143   47.1573 H   0  0  0  0  0  0  0  0  0  0  0  0
   63.0699   30.6049   50.2414 H   0  0  0  0  0  0  0  0  0  0  0  0
   62.9080   30.7041   48.4476 H   0  0  0  0  0  0  0  0  0  0  0  0
   63.2376   33.1363   50.2661 H   0  0  0  0  0  0  0  0  0  0  0  0
   64.6040   32.2827   49.4328 H   0  0  0  0  0  0  0  0  0  0  0  0
   64.9150   32.7000   46.7910 H   0  0  0  0  0  0  0  0  0  0  0  0
   61.2814   35.0950   49.2920 H   0  0  0  0  0  0  0  0  0  0  0  0
   58.8227   35.3507   48.9437 H   0  0  0  0  0  0  0  0  0  0  0  0
   57.6757   34.0835   47.1278 H   0  0  0  0  0  0  0  0  0  0  0  0
   58.6677   34.0227   43.9574 H   0  0  0  0  0  0  0  0  0  0  0  0
   56.5755   27.8769   42.8933 H   0  0  0  0  0  0  0  0  0  0  0  0
   56.9670   26.2987   44.3309 H   0  0  0  0  0  0  0  0  0  0  0  0
   57.3792   24.5602   46.0831 H   0  0  0  0  0  0  0  0  0  0  0  0
   58.4913   25.2013   48.2309 H   0  0  0  0  0  0  0  0  0  0  0  0
   59.1554   27.5838   48.6088 H   0  0  0  0  0  0  0  0  0  0  0  0
   58.7620   30.5540   46.4610 H   0  0  0  0  0  0  0  0  0  0  0  0
   61.4710   32.3485   45.9577 H   0  0  0  0  0  0  0  0  0  0  0  0
  1  2  1  0
  2  3  1  0
  3  4  1  0
  4  5  1  0
  3  6  1  0
  6  7  1  0
  7  8  1  0
  8  9  1  6
  8 10  1  0
 10 11  2  0
 11 12  1  0
 12 13  2  0
 13 14  1  0
 14 15  1  0
 15 16  2  0
 16 17  1  0
 17 18  2  0
 17 19  1  0
 19 20  1  0
 20 21  1  0
 21 22  2  0
 22 23  1  0
 23 24  2  0
 24 25  1  0
 25 26  2  0
 26 27  1  0
 27 28  2  0
 22 29  1  0
 29 30  2  0
 14 31  2  0
 31 10  1  0
 30 15  1  0
 29 19  1  0
 28 23  1  0
  1 32  1  0
  1 33  1  0
  1 34  1  0
  2 35  1  0
  2 36  1  0
  4 37  1  0
  4 38  1  0
  5 39  1  0
  5 40  1  0
  5 41  1  0
  6 42  1  0
  6 43  1  0
  7 44  1  0
  7 45  1  0
  9 46  1  0
 11 47  1  0
 12 48  1  0
 13 49  1  0
 16 50  1  0
 21 51  1  0
 24 52  1  0
 25 53  1  0
 26 54  1  0
 27 55  1  0
 30 56  1  0
 31 57  1  0
M  CHG  3   8   1  20  -1  30   1
M  END
>  <UniqueID>  (7) 
7

>  <SMILES>  (7) 
CCN(CC)CC[S@@+](O)c1cccc(-c2cc(=O)n3[n-]cc(-c4ccccn4)c3[nH+]2)c1

>  <Energy>  (7) 
103.2917477427077

>  <Genealogy>  (7) 
CCN(CC)CC[S+](O)c1cccc(-c2cc(=O)n3[n-]cc(-c4ccccn4)c3[nH+]2)c1 (protonated)
CCN(CC)CC[S@@+](O)c1cccc(-c2cc(=O)n3[n-]cc(-c4ccccn4)c3[nH+]2)c1 (chirality)
CCN(CC)CC[S@@+](O)c1cccc(-c2cc(=O)n3[n-]cc(-c4ccccn4)c3[nH+]2)c1 (3D coordinates assigned)
CCN(CC)CC[S@@+](O)c1cccc(-c2cc(=O)n3[n-]cc(-c4ccccn4)c3[nH+]2)c1 (optimized conformer: 103.2917477427077 kcal/mol)

>  <smiles>  (7) 
CCN(CC)CC[S+]([O-])c1cccc(-c2cc(=O)n3[nH]cc(-c4ccccn4)c3n2)c1

>  <score_type>  (7) 
oracle

>  <origin>  (7) 
adg

>  <m_score__min__energy>  (7) 
-6.3600000000000003

>  <m_primary>  (7) 
energy

$$$$
7:0
     RDKit          3D

 49 50  0  0  0  0  0  0  0  0999 V2000
   54.6193   30.6560   43.7327 H   0  0  0  0  0  0  0  0  0  0  0  0
   55.5180   30.2780   44.2420 C   0  0  0  0  0  0  0  0  0  0  0  0
   55.5850   28.9830   44.6180 N   0  0  0  0  0  0  0  0  0  0  0  0
   56.6620   28.4760   45.2690 C   0  0  0  0  0  0  0  0  0  0  0  0
   56.6370   27.1270   45.6410 C   0  0  0  0  0  0  0  0  0  0  0  0
   55.7745   26.5008   45.3691 H   0  0  0  0  0  0  0  0  0  0  0  0
   57.6970   26.5730   46.3530 C   0  0  0  0  0  0  0  0  0  0  0  0
   57.6550   24.8820   46.8210 Cl  0  0  0  0  0  0  0  0  0  0  0  0
   58.7790   27.3700   46.7110 C   0  0  0  0  0  0  0  0  0  0  0  0
   59.6088   26.9358   47.2879 H   0  0  0  0  0  0  0  0  0  0  0  0
   58.8210   28.7180   46.3440 C   0  0  0  0  0  0  0  0  0  0  0  0
   59.6780   29.3344   46.6531 H   0  0  0  0  0  0  0  0  0  0  0  0
   57.7820   29.3060   45.5820 C   0  0  0  0  0  0  0  0  0  0  0  0
   57.7430   30.6750   45.1360 C   0  0  0  0  0  0  0  0  0  0  0  0
   58.7040   31.5630   45.2230 N   0  0  0  0  0  0  0  0  0  0  0  0
   58.8610   32.9660   44.8440 C   0  0  0  0  0  0  0  0  0  0  0  0
   58.0170   33.2576   44.2017 H   0  0  0  0  0  0  0  0  0  0  0  0
   59.8182   33.0709   44.3122 H   0  0  0  0  0  0  0  0  0  0  0  0
   58.8940   33.8940   46.0770 C   0  0  0  0  0  0  0  0  0  0  0  0
   58.0561   34.6029   46.0036 H   0  0  0  0  0  0  0  0  0  0  0  0
   59.8684   34.4045   46.0760 H   0  0  0  0  0  0  0  0  0  0  0  0
   58.7820   33.1680   47.3520 N   0  0  0  0  0  0  0  0  0  0  0  0
   59.1720   32.2020   47.2490 H   0  0  0  0  0  0  0  0  0  0  0  0
   59.4650   33.8530   48.4580 C   0  0  0  0  0  0  0  0  0  0  0  0
   59.2026   34.9211   48.4397 H   0  0  0  0  0  0  0  0  0  0  0  0
   60.5513   33.7279   48.3380 H   0  0  0  0  0  0  0  0  0  0  0  0
   59.0400   33.2500   49.8080 C   0  0  0  0  0  0  0  0  0  0  0  0
   58.5711   34.0413   50.4113 H   0  0  0  0  0  0  0  0  0  0  0  0
   59.9463   32.8468   50.2834 H   0  0  0  0  0  0  0  0  0  0  0  0
   58.0840   32.1340   49.6760 N   0  0  0  0  0  0  0  0  0  0  0  0
   57.1800   32.3760   50.1460 H   0  0  0  0  0  0  0  0  0  0  0  0
   57.8860   32.0120   48.6570 H   0  0  0  0  0  0  0  0  0  0  0  0
   58.6080   30.8720   50.2290 C   0  0  0  0  0  0  0  0  0  0  0  0
   57.7638   30.2492   50.5599 H   0  0  0  0  0  0  0  0  0  0  0  0
   59.2709   31.1144   51.0727 H   0  0  0  0  0  0  0  0  0  0  0  0
   59.4290   30.0880   49.1770 C   0  0  0  0  0  0  0  0  0  0  0  0
   58.7936   29.2932   48.7591 H   0  0  0  0  0  0  0  0  0  0  0  0
   60.3143   29.6828   49.6889 H   0  0  0  0  0  0  0  0  0  0  0  0
   59.9110   30.9320   48.0710 N   0  0  0  0  0  0  0  0  0  0  0  0
   59.2060   30.9250   47.2970 H   0  0  0  0  0  0  0  0  0  0  0  0
   61.2080   30.4870   47.5500 C   0  0  0  0  0  0  0  0  0  0  0  0
   61.0642   30.0167   46.5661 H   0  0  0  0  0  0  0  0  0  0  0  0
   61.6493   29.7601   48.2478 H   0  0  0  0  0  0  0  0  0  0  0  0
   62.1450   31.6800   47.4080 C   0  0  0  0  0  0  0  0  0  0  0  0
   62.4302   32.0431   48.4064 H   0  0  0  0  0  0  0  0  0  0  0  0
   63.0470   31.3743   46.8575 H   0  0  0  0  0  0  0  0  0  0  0  0
   61.6343   32.4839   46.8575 H   0  0  0  0  0  0  0  0  0  0  0  0
   56.5810   31.1330   44.4970 C   0  0  0  0  0  0  0  0  0  0  0  0
   56.5113   32.1878   44.1929 H   0  0  0  0  0  0  0  0  0  0  0  0
  1  2  1  0
  2  3  1  0
  3  4  1  0
  4  5  2  0
  5  6  1  0
  5  7  1  0
  7  8  1  0
  7  9  2  0
  9 10  1  0
  9 11  1  0
 11 12  1  0
 11 13  2  0
 13 14  1  0
 14 15  2  0
 15 16  1  0
 16 17  1  0
 16 18  1  0
 16 19  1  0
 19 20  1  0
 19 21  1  0
 19 22  1  0
 22 23  1  0
 22 24  1  0
 24 25  1  0
 24 26  1  0
 24 27  1  0
 27 28  1  0
 27 29  1  0
 27 30  1  0
 30 31  1  0
 30 32  1  0
 30 33  1  0
 33 34  1  0
 33 35  1  0
 33 36  1  0
 36 37  1  0
 36 38  1  0
 36 39  1  0
 39 40  1  0
 39 41  1  0
 41 42  1  0
 41 43  1  0
 41 44  1  0
 44 45  1  0
 44 46  1  0
 44 47  1  0
 14 48  1  0
 48 49  1  0
 48  2  2  0
 13  4  1  0
M  CHG  2   3  -1  30   1
M  END
>  <UniqueID>  (8) 
8

>  <SMILES>  (8) 
CCNCC[NH2+]CCNCC/N=c1/cc[n-]c2cc(Cl)ccc12

>  <Energy>  (8) 
66.24257476392258

>  <Genealogy>  (8) 
CCNCC[NH2+]CCNCCN=c1cc[n-]c2cc(Cl)ccc12 (protonated)
CCNCC[NH2+]CCNCC/N=c1/cc[n-]c2cc(Cl)ccc12 (cis-trans isomerization)
CCNCC[NH2+]CCNCC/N=c1/cc[n-]c2cc(Cl)ccc12 (3D coordinates assigned)
CCNCC[NH2+]CCNCC/N=c1/cc[n-]c2cc(Cl)ccc12 (optimized conformer: 66.24257476392258 kcal/mol)

>  <smiles>  (8) 
CCNCCNCCNCCN=c1cc[nH]c2cc(Cl)ccc12

>  <score_type>  (8) 
oracle

>  <origin>  (8) 
adg

>  <m_score__min__energy>  (8) 
-5.1399999999999997

>  <m_primary>  (8) 
energy

$$$$
8:0
     RDKit          3D

 50 53  0  0  0  0  0  0  0  0999 V2000
   61.8040   30.6770   50.8970 C   0  0  0  0  0  0  0  0  0  0  0  0
   61.3620   29.3450   50.2910 C   0  0  0  0  0  0  0  0  0  0  0  0
   60.4430   29.5300   49.1440 N   0  0  0  0  0  0  0  0  0  0  0  0
   59.2710   30.3390   49.5320 C   0  0  0  0  0  0  0  0  0  0  0  0
   60.0100   28.2160   48.6140 C   0  0  0  0  0  0  0  0  0  0  0  0
   59.9330   28.2120   47.0680 C   0  0  0  0  0  0  0  0  0  0  0  0
   60.6450   29.3080   46.3510 N   0  0  0  0  0  0  0  0  0  0  0  0
   59.8540   30.4730   45.9920 C   0  0  0  0  0  0  0  0  0  0  0  0
   58.6870   30.3220   45.1800 C   0  0  0  0  0  0  0  0  0  0  0  0
   58.3960   29.0970   44.5310 C   0  0  0  0  0  0  0  0  0  0  0  0
   57.2690   28.9580   43.7270 C   0  0  0  0  0  0  0  0  0  0  0  0
   56.4040   30.0260   43.5450 C   0  0  0  0  0  0  0  0  0  0  0  0
   56.6560   31.2440   44.1710 C   0  0  0  0  0  0  0  0  0  0  0  0
   57.7900   31.4220   45.0040 C   0  0  0  0  0  0  0  0  0  0  0  0
   58.0210   32.6200   45.6470 N   0  0  0  0  0  0  0  0  0  0  0  0
   57.0600   33.7370   45.5290 C   0  0  0  0  0  0  0  0  0  0  0  0
   59.1700   32.7720   46.3740 C   0  0  0  0  0  0  0  0  0  0  0  0
   59.6510   34.1700   47.1950 S   0  0  0  0  0  0  0  0  0  0  0  0
   61.0940   33.5350   47.7380 C   0  0  0  0  0  0  0  0  0  0  0  0
   62.0610   34.2090   48.4780 C   0  0  0  0  0  0  0  0  0  0  0  0
   63.2600   33.5520   48.7630 C   0  0  0  0  0  0  0  0  0  0  0  0
   63.4800   32.2530   48.2820 C   0  0  0  0  0  0  0  0  0  0  0  0
   62.4930   31.5910   47.5340 C   0  0  0  0  0  0  0  0  0  0  0  0
   61.2550   32.2230   47.2850 C   0  0  0  0  0  0  0  0  0  0  0  0
   60.1270   31.7580   46.5340 C   0  0  0  0  0  0  0  0  0  0  0  0
   61.7805   30.6063   51.9945 H   0  0  0  0  0  0  0  0  0  0  0  0
   62.8272   30.9087   50.5663 H   0  0  0  0  0  0  0  0  0  0  0  0
   61.1223   31.4745   50.5663 H   0  0  0  0  0  0  0  0  0  0  0  0
   62.2529   28.7994   49.9468 H   0  0  0  0  0  0  0  0  0  0  0  0
   60.8236   28.7824   51.0680 H   0  0  0  0  0  0  0  0  0  0  0  0
   59.2042   30.3851   50.6290 H   0  0  0  0  0  0  0  0  0  0  0  0
   59.3779   31.3566   49.1281 H   0  0  0  0  0  0  0  0  0  0  0  0
   58.3575   29.8783   49.1281 H   0  0  0  0  0  0  0  0  0  0  0  0
   60.7293   27.4486   48.9359 H   0  0  0  0  0  0  0  0  0  0  0  0
   59.0035   28.0064   49.0052 H   0  0  0  0  0  0  0  0  0  0  0  0
   60.3540   27.2581   46.7175 H   0  0  0  0  0  0  0  0  0  0  0  0
   58.8686   28.3633   46.8351 H   0  0  0  0  0  0  0  0  0  0  0  0
   61.4520   29.6210   46.9370 H   0  0  0  0  0  0  0  0  0  0  0  0
   61.1520   28.9420   45.5170 H   0  0  0  0  0  0  0  0  0  0  0  0
   59.0730   28.2404   44.6650 H   0  0  0  0  0  0  0  0  0  0  0  0
   57.0634   27.9966   43.2336 H   0  0  0  0  0  0  0  0  0  0  0  0
   55.5169   29.9110   42.9048 H   0  0  0  0  0  0  0  0  0  0  0  0
   55.9626   32.0838   44.0166 H   0  0  0  0  0  0  0  0  0  0  0  0
   56.7676   34.0768   46.5335 H   0  0  0  0  0  0  0  0  0  0  0  0
   57.5295   34.5684   44.9828 H   0  0  0  0  0  0  0  0  0  0  0  0
   56.1678   33.3969   44.9828 H   0  0  0  0  0  0  0  0  0  0  0  0
   61.8849   35.2360   48.8305 H   0  0  0  0  0  0  0  0  0  0  0  0
   64.0321   34.0535   49.3649 H   0  0  0  0  0  0  0  0  0  0  0  0
   64.4344   31.7482   48.4926 H   0  0  0  0  0  0  0  0  0  0  0  0
   62.6841   30.5810   47.1424 H   0  0  0  0  0  0  0  0  0  0  0  0
  1  2  1  0
  2  3  1  0
  3  4  1  0
  3  5  1  0
  5  6  1  0
  6  7  1  0
  7  8  1  0
  8  9  2  0
  9 10  1  0
 10 11  2  0
 11 12  1  0
 12 13  2  0
 13 14  1  0
 14 15  2  0
 15 16  1  0
 15 17  1  0
 17 18  1  0
 18 19  1  0
 19 20  2  0
 20 21  1  0
 21 22  2  0
 22 23  1  0
 23 24  2  0
 24 25  1  0
 25  8  1  0
 14  9  1  0
 25 17  2  0
 24 19  1  0
  1 26  1  0
  1 27  1  0
  1 28  1  0
  2 29  1  0
  2 30  1  0
  4 31  1  0
  4 32  1  0
  4 33  1  0
  5 34  1  0
  5 35  1  0
  6 36  1  0
  6 37  1  0
  7 38  1  0
  7 39  1  0
 10 40  1  0
 11 41  1  0
 12 42  1  0
 13 43  1  0
 16 44  1  0
 16 45  1  0
 16 46  1  0
 20 47  1  0
 21 48  1  0
 22 49  1  0
 23 50  1  0
M  CHG  2   7   1  15   1
M  END
>  <UniqueID>  (9) 
9

>  <SMILES>  (9) 
CCN(C)CC[NH2+]c1c2ccccc2[n+](C)c2sc3ccccc3c12

>  <Energy>  (9) 
116.63302254887319

>  <Genealogy>  (9) 
CCN(C)CC[NH2+]c1c2ccccc2[n+](C)c2sc3ccccc3c12 (protonated)
CCN(C)CC[NH2+]c1c2ccccc2[n+](C)c2sc3ccccc3c12 (3D coordinates assigned)
CCN(C)CC[NH2+]c1c2ccccc2[n+](C)c2sc3ccccc3c12 (optimized conformer: 116.63302254887319 kcal/mol)

>  <smiles>  (9) 
CCN(C)CCNc1c2ccccc2[n+](C)c2sc3ccccc3c12

>  <score_type>  (9) 
oracle

>  <origin>  (9) 
adg

>  <m_score__min__energy>  (9) 
-4.6900000000000004

>  <m_primary>  (9) 
energy

$$$$
9:0
     RDKit          3D

 38 40  0  0  0  0  0  0  0  0999 V2000
   57.0770   29.9210   44.2640 C   0  0  0  0  0  0  0  0  0  0  0  0
   57.5040   30.3540   45.5900 N   0  0  0  0  0  0  0  0  0  0  0  0
   58.5260   29.6850   46.3570 C   0  0  0  0  0  0  0  0  0  0  0  0
   58.9260   28.3680   46.0470 C   0  0  0  0  0  0  0  0  0  0  0  0
   59.9030   27.7240   46.8100 C   0  0  0  0  0  0  0  0  0  0  0  0
   60.3840   26.0830   46.4170 Cl  0  0  0  0  0  0  0  0  0  0  0  0
   60.5000   28.3840   47.8850 C   0  0  0  0  0  0  0  0  0  0  0  0
   60.1170   29.6870   48.2030 C   0  0  0  0  0  0  0  0  0  0  0  0
   59.1200   30.3410   47.4540 C   0  0  0  0  0  0  0  0  0  0  0  0
   58.7110   31.6430   47.7830 O   0  0  0  0  0  0  0  0  0  0  0  0
   58.9080   32.7700   46.9700 C   0  0  0  0  0  0  0  0  0  0  0  0
   57.8130   33.2710   46.2560 C   0  0  0  0  0  0  0  0  0  0  0  0
   57.9650   34.3610   45.3960 C   0  0  0  0  0  0  0  0  0  0  0  0
   59.2140   34.9670   45.2520 C   0  0  0  0  0  0  0  0  0  0  0  0
   60.3100   34.5000   45.9810 C   0  0  0  0  0  0  0  0  0  0  0  0
   60.1680   33.4120   46.8610 C   0  0  0  0  0  0  0  0  0  0  0  0
   61.3270   32.9980   47.6870 C   0  0  0  0  0  0  0  0  0  0  0  0
   61.1960   32.8450   49.0750 C   0  0  0  0  0  0  0  0  0  0  0  0
   62.3030   32.4920   49.8450 C   0  0  0  0  0  0  0  0  0  0  0  0
   63.5350   32.2860   49.2210 C   0  0  0  0  0  0  0  0  0  0  0  0
   63.6490   32.4230   47.8730 N   0  0  0  0  0  0  0  0  0  0  0  0
   62.5820   32.7650   47.1000 C   0  0  0  0  0  0  0  0  0  0  0  0
   56.3078   29.1410   44.3630 H   0  0  0  0  0  0  0  0  0  0  0  0
   56.6611   30.7784   43.7145 H   0  0  0  0  0  0  0  0  0  0  0  0
   57.9401   29.5171   43.7145 H   0  0  0  0  0  0  0  0  0  0  0  0
   57.0170   31.1840   45.9970 H   0  0  0  0  0  0  0  0  0  0  0  0
   58.4645   27.8438   45.1972 H   0  0  0  0  0  0  0  0  0  0  0  0
   61.2725   27.8767   48.4815 H   0  0  0  0  0  0  0  0  0  0  0  0
   60.5972   30.2073   49.0448 H   0  0  0  0  0  0  0  0  0  0  0  0
   56.8248   32.8024   46.3732 H   0  0  0  0  0  0  0  0  0  0  0  0
   57.1005   34.7417   44.8323 H   0  0  0  0  0  0  0  0  0  0  0  0
   59.3356   35.8151   44.5621 H   0  0  0  0  0  0  0  0  0  0  0  0
   61.2901   34.9860   45.8662 H   0  0  0  0  0  0  0  0  0  0  0  0
   60.2195   33.0036   49.5560 H   0  0  0  0  0  0  0  0  0  0  0  0
   62.2069   32.3767   50.9347 H   0  0  0  0  0  0  0  0  0  0  0  0
   64.4152   32.0123   49.8212 H   0  0  0  0  0  0  0  0  0  0  0  0
   64.5760   32.2640   47.4190 H   0  0  0  0  0  0  0  0  0  0  0  0
   62.7029   32.8594   46.0107 H   0  0  0  0  0  0  0  0  0  0  0  0
  1  2  1  0
  2  3  1  0
  3  4  2  0
  4  5  1  0
  5  6  1  0
  5  7  2  0
  7  8  1  0
  8  9  2  0
  9 10  1  0
 10 11  1  0
 11 12  2  0
 12 13  1  0
 13 14  2  0
 14 15  1  0
 15 16  2  0
 16 17  1  0
 17 18  2  0
 18 19  1  0
 19 20  2  0
 20 21  1  0
 21 22  2  0
  9  3  1  0
 16 11  1  0
 22 17  1  0
  1 23  1  0
  1 24  1  0
  1 25  1  0
  2 26  1  0
  4 27  1  0
  7 28  1  0
  8 29  1  0
 12 30  1  0
 13 31  1  0
 14 32  1  0
 15 33  1  0
 18 34  1  0
 19 35  1  0
 20 36  1  0
 21 37  1  0
 22 38  1  0
M  CHG  1  21   1
M  END
>  <UniqueID>  (10) 
10

>  <SMILES>  (10) 
CNc1cc(Cl)ccc1Oc1ccccc1-c1ccc[nH+]c1

>  <Energy>  (10) 
51.78172527558898

>  <Genealogy>  (10) 
CNc1cc(Cl)ccc1Oc1ccccc1-c1ccc[nH+]c1 (protonated)
CNc1cc(Cl)ccc1Oc1ccccc1-c1ccc[nH+]c1 (3D coordinates assigned)
CNc1cc(Cl)ccc1Oc1ccccc1-c1ccc[nH+]c1 (optimized conformer: 51.78172527558898 kcal/mol)

>  <smiles>  (10) 
CNc1cc(Cl)ccc1Oc1ccccc1-c1cccnc1

>  <score_type>  (10) 
oracle

>  <origin>  (10) 
adg

>  <m_score__min__energy>  (10) 
-5.7699999999999996

>  <m_primary>  (10) 
energy

$$$$
10:0
     RDKit          3D

 46 48  0  0  0  0  0  0  0  0999 V2000
   60.3840   29.2840   45.8840 C   0  0  0  0  0  0  0  0  0  0  0  0
   60.5200   30.5960   46.3820 O   0  0  0  0  0  0  0  0  0  0  0  0
   61.1050   30.5570   47.6660 C   0  0  0  0  0  0  0  0  0  0  0  0
   61.9310   31.8080   47.8710 C   0  0  0  0  0  0  0  0  0  0  0  0
   63.1020   31.9210   47.0960 C   0  0  0  0  0  0  0  0  0  0  0  0
   63.9160   33.0480   47.1840 C   0  0  0  0  0  0  0  0  0  0  0  0
   63.5730   34.0890   48.0400 C   0  0  0  0  0  0  0  0  0  0  0  0
   62.4280   33.9960   48.8290 C   0  0  0  0  0  0  0  0  0  0  0  0
   61.6090   32.8500   48.7950 C   0  0  0  0  0  0  0  0  0  0  0  0
   60.3930   32.8360   49.7110 C   0  0  0  0  0  0  0  0  0  0  0  0
   59.1650   33.4020   49.1080 N   0  0  0  0  0  0  0  0  0  0  0  0
   58.1440   32.4450   48.6360 C   0  0  0  0  0  0  0  0  0  0  0  0
   58.2240   32.1890   47.1210 C   0  0  0  0  0  0  0  0  0  0  0  0
   58.2420   33.4590   46.3700 N   0  0  0  0  0  0  0  0  0  0  0  0
   58.2970   33.2230   44.9410 C   0  0  0  0  0  0  0  0  0  0  0  0
   58.9010   34.0330   44.1830 O   0  0  0  0  0  0  0  0  0  0  0  0
   57.5900   32.0850   44.3220 C   0  0  0  0  0  0  0  0  0  0  0  0
   57.7660   31.5950   43.0400 C   0  0  0  0  0  0  0  0  0  0  0  0
   56.8980   30.5290   42.9260 C   0  0  0  0  0  0  0  0  0  0  0  0
   56.2500   30.4320   44.1400 C   0  0  0  0  0  0  0  0  0  0  0  0
   56.6840   31.3700   44.9490 O   0  0  0  0  0  0  0  0  0  0  0  0
   59.4010   34.2710   46.7780 C   0  0  0  0  0  0  0  0  0  0  0  0
   59.3250   34.6060   48.2740 C   0  0  0  0  0  0  0  0  0  0  0  0
   60.3109   28.5784   46.7247 H   0  0  0  0  0  0  0  0  0  0  0  0
   59.4742   29.2176   45.2694 H   0  0  0  0  0  0  0  0  0  0  0  0
   61.2609   29.0324   45.2694 H   0  0  0  0  0  0  0  0  0  0  0  0
   60.3148   30.5079   48.4296 H   0  0  0  0  0  0  0  0  0  0  0  0
   61.7484   29.6691   47.7537 H   0  0  0  0  0  0  0  0  0  0  0  0
   63.3780   31.1063   46.4104 H   0  0  0  0  0  0  0  0  0  0  0  0
   64.8304   33.1146   46.5762 H   0  0  0  0  0  0  0  0  0  0  0  0
   64.2062   34.9868   48.0944 H   0  0  0  0  0  0  0  0  0  0  0  0
   62.1587   34.8326   49.4904 H   0  0  0  0  0  0  0  0  0  0  0  0
   60.1878   31.7930   49.9941 H   0  0  0  0  0  0  0  0  0  0  0  0
   60.6419   33.4737   50.5720 H   0  0  0  0  0  0  0  0  0  0  0  0
   58.2874   31.4897   49.1622 H   0  0  0  0  0  0  0  0  0  0  0  0
   57.1569   32.8821   48.8470 H   0  0  0  0  0  0  0  0  0  0  0  0
   59.1432   31.6270   46.8993 H   0  0  0  0  0  0  0  0  0  0  0  0
   57.3374   31.6140   46.8156 H   0  0  0  0  0  0  0  0  0  0  0  0
   57.3590   33.9750   46.5960 H   0  0  0  0  0  0  0  0  0  0  0  0
   58.4547   31.9762   42.2717 H   0  0  0  0  0  0  0  0  0  0  0  0
   56.7520   29.8863   42.0453 H   0  0  0  0  0  0  0  0  0  0  0  0
   55.4855   29.6822   44.3918 H   0  0  0  0  0  0  0  0  0  0  0  0
   60.3249   33.7078   46.5800 H   0  0  0  0  0  0  0  0  0  0  0  0
   59.3972   35.2090   46.2035 H   0  0  0  0  0  0  0  0  0  0  0  0
   60.2515   35.1204   48.5690 H   0  0  0  0  0  0  0  0  0  0  0  0
   58.4437   35.2450   48.4319 H   0  0  0  0  0  0  0  0  0  0  0  0
  1  2  1  0
  2  3  1  0
  3  4  1  0
  4  5  2  0
  5  6  1  0
  6  7  2  0
  7  8  1  0
  8  9  2  0
  9 10  1  0
 10 11  1  0
 11 12  1  0
 12 13  1  0
 13 14  1  0
 14 15  1  0
 15 16  2  0
 15 17  1  0
 17 18  2  0
 18 19  1  0
 19 20  2  0
 20 21  1  0
 14 22  1  0
 22 23  1  0
  9  4  1  0
 23 11  1  0
 21 17  1  0
  1 24  1  0
  1 25  1  0
  1 26  1  0
  3 27  1  0
  3 28  1  0
  5 29  1  0
  6 30  1  0
  7 31  1  0
  8 32  1  0
 10 33  1  0
 10 34  1  0
 12 35  1  0
 12 36  1  0
 13 37  1  0
 13 38  1  0
 14 39  1  0
 18 40  1  0
 19 41  1  0
 20 42  1  0
 22 43  1  0
 22 44  1  0
 23 45  1  0
 23 46  1  0
M  CHG  1  14   1
M  END
>  <UniqueID>  (11) 
11

>  <SMILES>  (11) 
COCc1ccccc1CN1CC[NH+](C(=O)c2ccco2)CC1

>  <Energy>  (11) 
88.18872782917302

>  <Genealogy>  (11) 
COCc1ccccc1CN1CC[NH+](C(=O)c2ccco2)CC1 (protonated)
COCc1ccccc1CN1CC[NH+](C(=O)c2ccco2)CC1 (3D coordinates assigned)
COCc1ccccc1CN1CC[NH+](C(=O)c2ccco2)CC1 (nonaromatic ring conformer: 88.18872782917302 kcal/mol)

>  <smiles>  (11) 
COCc1ccccc1CN1CCN(C(=O)c2ccco2)CC1

>  <score_type>  (11) 
oracle

>  <origin>  (11) 
adg

>  <m_score__min__energy>  (11) 
-5.4299999999999997

>  <m_primary>  (11) 
energy

$$$$
11:0
     RDKit          3D

 53 56  0  0  0  0  0  0  0  0999 V2000
   59.0980   32.4100   50.2410 C   0  0  0  0  0  0  0  0  0  0  0  0
   58.8960   30.9520   49.8030 C   0  0  0  0  0  0  0  0  0  0  0  0
   59.9040   29.9960   50.3370 N   0  0  2  0  0  0  0  0  0  0  0  0
   61.1560   30.6860   50.7050 C   0  0  0  0  0  0  0  0  0  0  0  0
   60.2010   28.8490   49.4430 C   0  0  0  0  0  0  0  0  0  0  0  0
   59.3860   28.8840   48.1370 C   0  0  0  0  0  0  0  0  0  0  0  0
   60.1680   29.4980   47.0630 N   0  0  0  0  0  0  0  0  0  0  0  0
   59.6660   30.6130   46.3070 C   0  0  0  0  0  0  0  0  0  0  0  0
   58.6760   30.3840   45.3380 C   0  0  0  0  0  0  0  0  0  0  0  0
   58.4130   29.0840   44.8540 C   0  0  0  0  0  0  0  0  0  0  0  0
   57.4710   28.8750   43.8500 C   0  0  0  0  0  0  0  0  0  0  0  0
   56.7790   29.9530   43.3100 C   0  0  0  0  0  0  0  0  0  0  0  0
   56.9940   31.2410   43.8020 C   0  0  0  0  0  0  0  0  0  0  0  0
   57.9120   31.4750   44.8580 C   0  0  0  0  0  0  0  0  0  0  0  0
   58.0470   32.7170   45.4430 N   0  0  0  0  0  0  0  0  0  0  0  0
   56.9990   33.7440   45.2410 C   0  0  0  0  0  0  0  0  0  0  0  0
   59.1500   32.9920   46.2350 C   0  0  0  0  0  0  0  0  0  0  0  0
   59.4210   34.3080   46.6750 C   0  0  0  0  0  0  0  0  0  0  0  0
   60.4990   34.5890   47.5020 C   0  0  0  0  0  0  0  0  0  0  0  0
   61.4190   33.5960   47.8260 C   0  0  0  0  0  0  0  0  0  0  0  0
   62.5510   33.9290   48.5870 C   0  0  0  0  0  0  0  0  0  0  0  0
   63.5490   32.9860   48.8140 C   0  0  0  0  0  0  0  0  0  0  0  0
   63.4460   31.7180   48.2500 C   0  0  0  0  0  0  0  0  0  0  0  0
   62.3200   31.3700   47.4990 C   0  0  0  0  0  0  0  0  0  0  0  0
   61.2410   32.2760   47.3360 C   0  0  0  0  0  0  0  0  0  0  0  0
   60.0380   31.9450   46.6270 C   0  0  0  0  0  0  0  0  0  0  0  0
   59.1056   32.4651   51.3396 H   0  0  0  0  0  0  0  0  0  0  0  0
   60.0562   32.7814   49.8486 H   0  0  0  0  0  0  0  0  0  0  0  0
   58.2769   33.0279   49.8486 H   0  0  0  0  0  0  0  0  0  0  0  0
   57.9017   30.6268   50.1432 H   0  0  0  0  0  0  0  0  0  0  0  0
   59.0052   30.9388   48.7085 H   0  0  0  0  0  0  0  0  0  0  0  0
   59.5100   29.6080   51.2270 H   0  0  0  0  0  0  0  0  0  0  0  0
   61.2406   30.7326   51.8008 H   0  0  0  0  0  0  0  0  0  0  0  0
   62.0137   30.1332   50.2942 H   0  0  0  0  0  0  0  0  0  0  0  0
   61.1467   31.7064   50.2942 H   0  0  0  0  0  0  0  0  0  0  0  0
   61.2713   28.8685   49.1900 H   0  0  0  0  0  0  0  0  0  0  0  0
   59.9256   27.9298   49.9808 H   0  0  0  0  0  0  0  0  0  0  0  0
   59.1190   27.8565   47.8489 H   0  0  0  0  0  0  0  0  0  0  0  0
   58.4759   29.4797   48.3006 H   0  0  0  0  0  0  0  0  0  0  0  0
   61.0790   29.0630   46.7950 H   0  0  0  0  0  0  0  0  0  0  0  0
   58.9585   28.2265   45.2748 H   0  0  0  0  0  0  0  0  0  0  0  0
   57.2744   27.8565   43.4840 H   0  0  0  0  0  0  0  0  0  0  0  0
   56.0604   29.7903   42.4932 H   0  0  0  0  0  0  0  0  0  0  0  0
   56.4437   32.0871   43.3647 H   0  0  0  0  0  0  0  0  0  0  0  0
   56.6385   34.0972   46.2184 H   0  0  0  0  0  0  0  0  0  0  0  0
   57.4187   34.5902   44.6773 H   0  0  0  0  0  0  0  0  0  0  0  0
   56.1614   33.3073   44.6773 H   0  0  0  0  0  0  0  0  0  0  0  0
   58.7619   35.1281   46.3542 H   0  0  0  0  0  0  0  0  0  0  0  0
   60.6276   35.6045   47.9048 H   0  0  0  0  0  0  0  0  0  0  0  0
   62.6496   34.9412   49.0062 H   0  0  0  0  0  0  0  0  0  0  0  0
   64.4177   33.2425   49.4381 H   0  0  0  0  0  0  0  0  0  0  0  0
   64.2544   30.9864   48.3959 H   0  0  0  0  0  0  0  0  0  0  0  0
   62.2697   30.3778   47.0268 H   0  0  0  0  0  0  0  0  0  0  0  0
  1  2  1  0
  2  3  1  0
  3  4  1  0
  3  5  1  0
  5  6  1  0
  6  7  1  0
  7  8  1  0
  8  9  2  0
  9 10  1  0
 10 11  2  0
 11 12  1  0
 12 13  2  0
 13 14  1  0
 14 15  2  0
 15 16  1  0
 15 17  1  0
 17 18  2  0
 18 19  1  0
 19 20  2  0
 20 21  1  0
 21 22  2  0
 22 23  1  0
 23 24  2  0
 24 25  1  0
 25 26  2  0
 26  8  1  0
 14  9  1  0
 26 17  1  0
 25 20  1  0
  1 27  1  0
  1 28  1  0
  1 29  1  0
  2 30  1  0
  2 31  1  0
  3 32  1  1
  4 33  1  0
  4 34  1  0
  4 35  1  0
  5 36  1  0
  5 37  1  0
  6 38  1  0
  6 39  1  0
  7 40  1  0
 10 41  1  0
 11 42  1  0
 12 43  1  0
 13 44  1  0
 16 45  1  0
 16 46  1  0
 16 47  1  0
 18 48  1  0
 19 49  1  0
 21 50  1  0
 22 51  1  0
 23 52  1  0
 24 53  1  0
M  CHG  2   3   1  15   1
M  END
>  <UniqueID>  (12) 
12

>  <SMILES>  (12) 
CC[N@H+](C)CCNc1c2ccccc2[n+](C)c2ccc3ccccc3c12

>  <Energy>  (12) 
98.82169648069586

>  <Genealogy>  (12) 
CC[NH+](C)CCNc1c2ccccc2[n+](C)c2ccc3ccccc3c12 (protonated)
CC[N@H+](C)CCNc1c2ccccc2[n+](C)c2ccc3ccccc3c12 (chirality)
CC[N@H+](C)CCNc1c2ccccc2[n+](C)c2ccc3ccccc3c12 (3D coordinates assigned)
CC[N@H+](C)CCNc1c2ccccc2[n+](C)c2ccc3ccccc3c12 (optimized conformer: 98.82169648069586 kcal/mol)

>  <smiles>  (12) 
CCN(C)CCNc1c2ccccc2[n+](C)c2ccc3ccccc3c12

>  <score_type>  (12) 
oracle

>  <origin>  (12) 
adg

>  <m_score__min__energy>  (12) 
-5.5700000000000003

>  <m_primary>  (12) 
energy

$$$$
12:0
     RDKit          3D

 54 57  0  0  0  0  0  0  0  0999 V2000
   63.2180   34.2000   50.3890 C   0  0  0  0  0  0  0  0  0  0  0  0
   62.4170   33.6310   49.2140 C   0  0  0  0  0  0  0  0  0  0  0  0
   62.9390   32.3520   48.6630 N   0  0  0  0  0  0  0  0  0  0  0  0
   63.4750   32.4820   47.2750 C   0  0  0  0  0  0  0  0  0  0  0  0
   63.2760   33.8520   46.6030 C   0  0  0  0  0  0  0  0  0  0  0  0
   62.0020   31.2190   48.8840 C   0  0  0  0  0  0  0  0  0  0  0  0
   61.4860   30.6260   47.5620 C   0  0  0  0  0  0  0  0  0  0  0  0
   60.1100   30.1540   47.7190 N   0  0  0  0  0  0  0  0  0  0  0  0
   59.2560   29.9970   46.5770 C   0  0  0  0  0  0  0  0  0  0  0  0
   58.8760   31.1020   45.8150 C   0  0  0  0  0  0  0  0  0  0  0  0
   58.1510   30.9430   44.6450 C   0  0  0  0  0  0  0  0  0  0  0  0
   57.6900   29.7210   44.2260 N   0  0  0  0  0  0  0  0  0  0  0  0
   56.7930   29.6320   43.0600 C   0  0  0  0  0  0  0  0  0  0  0  0
   58.0840   28.5920   44.9260 C   0  0  0  0  0  0  0  0  0  0  0  0
   57.7750   27.2870   44.4650 C   0  0  0  0  0  0  0  0  0  0  0  0
   58.1560   26.1590   45.1910 C   0  0  0  0  0  0  0  0  0  0  0  0
   58.8620   26.2930   46.3810 C   0  0  0  0  0  0  0  0  0  0  0  0
   59.2120   27.5570   46.8490 C   0  0  0  0  0  0  0  0  0  0  0  0
   58.8480   28.7170   46.1340 C   0  0  0  0  0  0  0  0  0  0  0  0
   58.0020   32.2690   44.0210 C   0  0  0  0  0  0  0  0  0  0  0  0
   57.5200   32.5380   42.8890 O   0  0  0  0  0  0  0  0  0  0  0  0
   58.6170   33.2260   44.9260 C   0  0  0  0  0  0  0  0  0  0  0  0
   58.6900   34.6150   44.8290 C   0  0  0  0  0  0  0  0  0  0  0  0
   59.2920   35.3220   45.8830 C   0  0  0  0  0  0  0  0  0  0  0  0
   59.7890   34.6360   47.0080 C   0  0  0  0  0  0  0  0  0  0  0  0
   59.7010   33.2350   47.0850 C   0  0  0  0  0  0  0  0  0  0  0  0
   59.1320   32.5410   46.0120 C   0  0  0  0  0  0  0  0  0  0  0  0
   62.7611   33.8755   51.3356 H   0  0  0  0  0  0  0  0  0  0  0  0
   64.2542   33.8344   50.3377 H   0  0  0  0  0  0  0  0  0  0  0  0
   63.2139   35.2988   50.3377 H   0  0  0  0  0  0  0  0  0  0  0  0
   61.3849   33.4608   49.5542 H   0  0  0  0  0  0  0  0  0  0  0  0
   62.4910   34.3701   48.4027 H   0  0  0  0  0  0  0  0  0  0  0  0
   63.7760   32.1520   49.2640 H   0  0  0  0  0  0  0  0  0  0  0  0
   64.5553   32.2778   47.3104 H   0  0  0  0  0  0  0  0  0  0  0  0
   62.9026   31.7662   46.6667 H   0  0  0  0  0  0  0  0  0  0  0  0
   63.1635   34.6266   47.3759 H   0  0  0  0  0  0  0  0  0  0  0  0
   64.1500   34.0834   45.9764 H   0  0  0  0  0  0  0  0  0  0  0  0
   62.3723   33.8252   45.9764 H   0  0  0  0  0  0  0  0  0  0  0  0
   62.5251   30.4309   49.4455 H   0  0  0  0  0  0  0  0  0  0  0  0
   61.1357   31.6013   49.4437 H   0  0  0  0  0  0  0  0  0  0  0  0
   61.5171   31.3998   46.7808 H   0  0  0  0  0  0  0  0  0  0  0  0
   62.1249   29.7769   47.2777 H   0  0  0  0  0  0  0  0  0  0  0  0
   59.8660   29.6470   48.5980 H   0  0  0  0  0  0  0  0  0  0  0  0
   55.7533   29.5288   43.4042 H   0  0  0  0  0  0  0  0  0  0  0  0
   56.8894   30.5441   42.4528 H   0  0  0  0  0  0  0  0  0  0  0  0
   57.0668   28.7566   42.4528 H   0  0  0  0  0  0  0  0  0  0  0  0
   57.2261   27.1626   43.5199 H   0  0  0  0  0  0  0  0  0  0  0  0
   57.8962   25.1567   44.8196 H   0  0  0  0  0  0  0  0  0  0  0  0
   59.1450   25.3980   46.9546 H   0  0  0  0  0  0  0  0  0  0  0  0
   59.7788   27.6518   47.7870 H   0  0  0  0  0  0  0  0  0  0  0  0
   58.2874   35.1424   43.9516 H   0  0  0  0  0  0  0  0  0  0  0  0
   59.3757   36.4175   45.8293 H   0  0  0  0  0  0  0  0  0  0  0  0
   60.2493   35.2004   47.8324 H   0  0  0  0  0  0  0  0  0  0  0  0
   60.0715   32.6964   47.9696 H   0  0  0  0  0  0  0  0  0  0  0  0
  1  2  1  0
  2  3  1  0
  3  4  1  0
  4  5  1  0
  3  6  1  0
  6  7  1  0
  7  8  1  0
  8  9  1  0
  9 10  2  0
 10 11  1  0
 11 12  2  0
 12 13  1  0
 12 14  1  0
 14 15  2  0
 15 16  1  0
 16 17  2  0
 17 18  1  0
 18 19  2  0
 11 20  1  0
 20 21  2  0
 20 22  1  0
 22 23  2  0
 23 24  1  0
 24 25  2  0
 25 26  1  0
 26 27  2  0
 19  9  1  0
 27 22  1  0
 27 10  1  0
 19 14  1  0
  1 28  1  0
  1 29  1  0
  1 30  1  0
  2 31  1  0
  2 32  1  0
  3 33  1  0
  4 34  1  0
  4 35  1  0
  5 36  1  0
  5 37  1  0
  5 38  1  0
  6 39  1  0
  6 40  1  0
  7 41  1  0
  7 42  1  0
  8 43  1  0
 13 44  1  0
 13 45  1  0
 13 46  1  0
 15 47  1  0
 16 48  1  0
 17 49  1  0
 18 50  1  0
 23 51  1  0
 24 52  1  0
 25 53  1  0
 26 54  1  0
M  CHG  2   3   1  12   1
M  END
>  <UniqueID>  (13) 
13

>  <SMILES>  (13) 
CC[NH+](CC)CCNc1c2c([n+](C)c3ccccc13)C(=O)c1ccccc1-2

>  <Energy>  (13) 
115.31490296102004

>  <Genealogy>  (13) 
CC[NH+](CC)CCNc1c2c([n+](C)c3ccccc13)C(=O)c1ccccc1-2 (protonated)
CC[NH+](CC)CCNc1c2c([n+](C)c3ccccc13)C(=O)c1ccccc1-2 (3D coordinates assigned)
CC[NH+](CC)CCNc1c2c([n+](C)c3ccccc13)C(=O)c1ccccc1-2 (nonaromatic ring conformer: 115.31490296102004 kcal/mol)

>  <smiles>  (13) 
CCN(CC)CCNc1c2c([n+](C)c3ccccc13)C(=O)c1ccccc1-2

>  <score_type>  (13) 
oracle

>  <origin>  (13) 
adg

>  <m_score__min__energy>  (13) 
-5.5599999999999996

>  <m_primary>  (13) 
energy

$$$$
13:0
     RDKit          3D

 47 49  0  0  0  0  0  0  0  0999 V2000
   59.2080   34.5820   44.9620 C   0  0  0  0  0  0  0  0  0  0  0  0
   58.8980   34.4650   46.4540 C   0  0  0  0  0  0  0  0  0  0  0  0
   59.6640   33.3710   47.1020 N   0  0  0  0  0  0  0  0  0  0  0  0
   60.9460   33.9080   47.6190 C   0  0  0  0  0  0  0  0  0  0  0  0
   62.1230   33.4640   46.7520 C   0  0  0  0  0  0  0  0  0  0  0  0
   58.8820   32.7120   48.1850 C   0  0  0  0  0  0  0  0  0  0  0  0
   59.0830   31.1880   48.1600 C   0  0  0  0  0  0  0  0  0  0  0  0
   60.0080   30.7770   47.0940 N   0  0  0  0  0  0  0  0  0  0  0  0
   59.4080   29.7360   46.2840 C   0  0  0  0  0  0  0  0  0  0  0  0
   58.5160   30.0120   45.2040 C   0  0  0  0  0  0  0  0  0  0  0  0
   58.1420   31.3330   44.8760 C   0  0  0  0  0  0  0  0  0  0  0  0
   57.2650   31.5890   43.8250 C   0  0  0  0  0  0  0  0  0  0  0  0
   56.7360   30.5410   43.0830 C   0  0  0  0  0  0  0  0  0  0  0  0
   57.0750   29.2240   43.3830 C   0  0  0  0  0  0  0  0  0  0  0  0
   57.9680   28.9200   44.4400 C   0  0  0  0  0  0  0  0  0  0  0  0
   58.2980   27.6090   44.7460 N   0  0  0  0  0  0  0  0  0  0  0  0
   57.7770   26.4810   43.9520 C   0  0  0  0  0  0  0  0  0  0  0  0
   59.1090   27.3840   45.8260 C   0  0  0  0  0  0  0  0  0  0  0  0
   59.5370   26.1960   46.3980 C   0  0  0  0  0  0  0  0  0  0  0  0
   60.2990   26.4840   47.4360 O   0  0  0  0  0  0  0  0  0  0  0  0
   60.3860   27.7910   47.5720 C   0  0  0  0  0  0  0  0  0  0  0  0
   59.6460   28.3920   46.5720 C   0  0  0  0  0  0  0  0  0  0  0  0
   60.2296   34.9676   44.8289 H   0  0  0  0  0  0  0  0  0  0  0  0
   59.1259   33.5910   44.4916 H   0  0  0  0  0  0  0  0  0  0  0  0
   58.4916   35.2716   44.4916 H   0  0  0  0  0  0  0  0  0  0  0  0
   59.1542   35.4156   46.9446 H   0  0  0  0  0  0  0  0  0  0  0  0
   57.8273   34.2358   46.5594 H   0  0  0  0  0  0  0  0  0  0  0  0
   60.8985   35.0070   47.6234 H   0  0  0  0  0  0  0  0  0  0  0  0
   61.0992   33.5213   48.6373 H   0  0  0  0  0  0  0  0  0  0  0  0
   62.9561   33.1497   47.3978 H   0  0  0  0  0  0  0  0  0  0  0  0
   61.8131   32.6210   46.1170 H   0  0  0  0  0  0  0  0  0  0  0  0
   62.4472   34.3016   46.1170 H   0  0  0  0  0  0  0  0  0  0  0  0
   59.2147   33.1029   49.1579 H   0  0  0  0  0  0  0  0  0  0  0  0
   57.8148   32.9275   48.0278 H   0  0  0  0  0  0  0  0  0  0  0  0
   59.4916   30.8668   49.1295 H   0  0  0  0  0  0  0  0  0  0  0  0
   58.1077   30.7175   47.9667 H   0  0  0  0  0  0  0  0  0  0  0  0
   60.8940   30.4260   47.5250 H   0  0  0  0  0  0  0  0  0  0  0  0
   60.2830   31.5860   46.4970 H   0  0  0  0  0  0  0  0  0  0  0  0
   58.5491   32.1723   45.4590 H   0  0  0  0  0  0  0  0  0  0  0  0
   56.9900   32.6259   43.5815 H   0  0  0  0  0  0  0  0  0  0  0  0
   56.0452   30.7524   42.2535 H   0  0  0  0  0  0  0  0  0  0  0  0
   56.6419   28.4057   42.7890 H   0  0  0  0  0  0  0  0  0  0  0  0
   57.4133   25.6935   44.6285 H   0  0  0  0  0  0  0  0  0  0  0  0
   56.9492   26.8306   43.3176 H   0  0  0  0  0  0  0  0  0  0  0  0
   58.5799   26.0774   43.3176 H   0  0  0  0  0  0  0  0  0  0  0  0
   59.2843   25.1849   46.0463 H   0  0  0  0  0  0  0  0  0  0  0  0
   60.9542   28.3174   48.3530 H   0  0  0  0  0  0  0  0  0  0  0  0
  1  2  1  0
  2  3  1  0
  3  4  1  0
  4  5  1  0
  3  6  1  0
  6  7  1  0
  7  8  1  0
  8  9  1  0
  9 10  2  0
 10 11  1  0
 11 12  2  0
 12 13  1  0
 13 14  2  0
 14 15  1  0
 15 16  2  0
 16 17  1  0
 16 18  1  0
 18 19  2  0
 19 20  1  0
 20 21  1  0
 21 22  2  0
 22  9  1  0
 15 10  1  0
 22 18  1  0
  1 23  1  0
  1 24  1  0
  1 25  1  0
  2 26  1  0
  2 27  1  0
  4 28  1  0
  4 29  1  0
  5 30  1  0
  5 31  1  0
  5 32  1  0
  6 33  1  0
  6 34  1  0
  7 35  1  0
  7 36  1  0
  8 37  1  0
  8 38  1  0
 11 39  1  0
 12 40  1  0
 13 41  1  0
 14 42  1  0
 17 43  1  0
 17 44  1  0
 17 45  1  0
 19 46  1  0
 21 47  1  0
M  CHG  2   8   1  16   1
M  END
>  <UniqueID>  (14) 
14

>  <SMILES>  (14) 
CCN(CC)CC[NH2+]c1c2ccccc2[n+](C)c2cocc12

>  <Energy>  (14) 
94.57094803764141

>  <Genealogy>  (14) 
CCN(CC)CC[NH2+]c1c2ccccc2[n+](C)c2cocc12 (protonated)
CCN(CC)CC[NH2+]c1c2ccccc2[n+](C)c2cocc12 (3D coordinates assigned)
CCN(CC)CC[NH2+]c1c2ccccc2[n+](C)c2cocc12 (optimized conformer: 94.57094803764141 kcal/mol)

>  <smiles>  (14) 
CCN(CC)CCNc1c2ccccc2[n+](C)c2cocc12

>  <score_type>  (14) 
oracle

>  <origin>  (14) 
adg

>  <m_score__min__energy>  (14) 
-3.0800000000000001

>  <m_primary>  (14) 
energy

$$$$
14:0
     RDKit          3D

 42 44  0  0  0  0  0  0  0  0999 V2000
   60.6620   28.2770   48.6360 C   0  0  0  0  0  0  0  0  0  0  0  0
   59.9250   29.1300   47.6480 C   0  0  0  0  0  0  0  0  0  0  0  0
   60.5610   30.2270   47.0490 C   0  0  0  0  0  0  0  0  0  0  0  0
   59.8720   31.0280   46.1360 C   0  0  0  0  0  0  0  0  0  0  0  0
   58.5420   30.7360   45.7950 C   0  0  0  0  0  0  0  0  0  0  0  0
   57.6800   31.7840   44.6580 S   0  0  0  0  0  0  0  0  0  0  0  0
   58.4610   31.8400   43.3750 O   0  0  0  0  0  0  0  0  0  0  0  0
   56.3350   31.1910   44.3440 O   0  0  0  0  0  0  0  0  0  0  0  0
   57.4690   33.4170   45.2610 N   0  0  0  0  0  0  0  0  0  0  0  0
   58.5700   34.3300   44.8630 C   0  0  0  0  0  0  0  0  0  0  0  0
   59.2760   34.9880   46.0540 C   0  0  0  0  0  0  0  0  0  0  0  0
   59.4670   33.9900   47.1080 N   0  0  0  0  0  0  0  0  0  0  0  0
   60.7800   33.5710   47.5450 C   0  0  0  0  0  0  0  0  0  0  0  0
   60.9590   33.0110   48.8250 C   0  0  0  0  0  0  0  0  0  0  0  0
   62.2170   32.5570   49.2340 C   0  0  0  0  0  0  0  0  0  0  0  0
   63.3110   32.6550   48.3730 C   0  0  0  0  0  0  0  0  0  0  0  0
   64.5270   32.2050   48.7680 F   0  0  0  0  0  0  0  0  0  0  0  0
   63.1500   33.2100   47.1020 C   0  0  0  0  0  0  0  0  0  0  0  0
   61.8950   33.6640   46.6870 C   0  0  0  0  0  0  0  0  0  0  0  0
   58.2650   33.3510   47.6530 C   0  0  0  0  0  0  0  0  0  0  0  0
   57.0710   33.4670   46.6850 C   0  0  0  0  0  0  0  0  0  0  0  0
   57.9300   29.5930   46.3390 C   0  0  0  0  0  0  0  0  0  0  0  0
   56.6620   29.2520   45.9980 F   0  0  0  0  0  0  0  0  0  0  0  0
   58.6170   28.8030   47.2670 C   0  0  0  0  0  0  0  0  0  0  0  0
   60.3954   28.5856   49.6576 H   0  0  0  0  0  0  0  0  0  0  0  0
   60.3861   27.2225   48.4877 H   0  0  0  0  0  0  0  0  0  0  0  0
   61.7453   28.3969   48.4877 H   0  0  0  0  0  0  0  0  0  0  0  0
   61.6070   30.4574   47.2994 H   0  0  0  0  0  0  0  0  0  0  0  0
   60.3750   31.8939   45.6808 H   0  0  0  0  0  0  0  0  0  0  0  0
   59.3128   33.7527   44.2929 H   0  0  0  0  0  0  0  0  0  0  0  0
   58.1222   35.1371   44.2647 H   0  0  0  0  0  0  0  0  0  0  0  0
   60.2537   35.3773   45.7336 H   0  0  0  0  0  0  0  0  0  0  0  0
   58.6634   35.8180   46.4358 H   0  0  0  0  0  0  0  0  0  0  0  0
   60.1015   32.9300   49.5092 H   0  0  0  0  0  0  0  0  0  0  0  0
   62.3444   32.1219   50.2362 H   0  0  0  0  0  0  0  0  0  0  0  0
   64.0135   33.2902   46.4253 H   0  0  0  0  0  0  0  0  0  0  0  0
   61.7762   34.0973   45.6830 H   0  0  0  0  0  0  0  0  0  0  0  0
   58.4769   32.2866   47.8323 H   0  0  0  0  0  0  0  0  0  0  0  0
   57.9988   33.8623   48.5899 H   0  0  0  0  0  0  0  0  0  0  0  0
   56.3777   32.6364   46.8837 H   0  0  0  0  0  0  0  0  0  0  0  0
   56.6023   34.4467   46.8595 H   0  0  0  0  0  0  0  0  0  0  0  0
   58.1268   27.9189   47.7006 H   0  0  0  0  0  0  0  0  0  0  0  0
  1  2  1  0
  2  3  2  0
  3  4  1  0
  4  5  2  0
  5  6  1  0
  6  7  2  0
  6  8  2  0
  6  9  1  0
  9 10  1  0
 10 11  1  0
 11 12  1  0
 12 13  1  0
 13 14  2  0
 14 15  1  0
 15 16  2  0
 16 17  1  0
 16 18  1  0
 18 19  2  0
 12 20  1  0
 20 21  1  0
  5 22  1  0
 22 23  1  0
 22 24  2  0
 24  2  1  0
 21  9  1  0
 19 13  1  0
  1 25  1  0
  1 26  1  0
  1 27  1  0
  3 28  1  0
  4 29  1  0
 10 30  1  0
 10 31  1  0
 11 32  1  0
 11 33  1  0
 14 34  1  0
 15 35  1  0
 18 36  1  0
 19 37  1  0
 20 38  1  0
 20 39  1  0
 21 40  1  0
 21 41  1  0
 24 42  1  0
M  END
>  <UniqueID>  (15) 
15

>  <SMILES>  (15) 
Cc1ccc(S(=O)(=O)N2CCN(c3ccc(F)cc3)CC2)c(F)c1

>  <Energy>  (15) 
51.817459036281996

>  <Genealogy>  (15) 
Cc1ccc(S(=O)(=O)N2CCN(c3ccc(F)cc3)CC2)c(F)c1 (3D coordinates assigned)
Cc1ccc(S(=O)(=O)N2CCN(c3ccc(F)cc3)CC2)c(F)c1 (nonaromatic ring conformer: 51.817459036281996 kcal/mol)

>  <smiles>  (15) 
Cc1ccc(S(=O)(=O)N2CCN(c3ccc(F)cc3)CC2)c(F)c1

>  <score_type>  (15) 
oracle

>  <origin>  (15) 
adg

>  <m_score__min__energy>  (15) 
-7.7000000000000002

>  <m_primary>  (15) 
energy

$$$$
15:0
     RDKit          3D

 51 53  0  0  0  0  0  0  0  0999 V2000
   60.3400   27.6730   48.7090 C   0  0  0  0  0  0  0  0  0  0  0  0
   59.4840   26.8860   47.7050 C   0  0  0  0  0  0  0  0  0  0  0  0
   59.2480   27.5830   46.4220 N   0  0  0  0  0  0  0  0  0  0  0  0
   60.3500   28.4890   46.0380 C   0  0  0  0  0  0  0  0  0  0  0  0
   60.1930   28.9720   44.5800 C   0  0  0  0  0  0  0  0  0  0  0  0
   58.7790   28.9430   44.1270 N   0  0  0  0  0  0  0  0  0  0  0  0
   57.8160   29.8440   44.8630 C   0  0  2  0  0  0  0  0  0  0  0  0
   56.4780   29.9920   44.0870 C   0  0  0  0  0  0  0  0  0  0  0  0
   56.6420   30.8080   42.7920 C   0  0  0  0  0  0  0  0  0  0  0  0
   57.7380   31.8760   42.9160 C   0  0  0  0  0  0  0  0  0  0  0  0
   57.8170   32.3490   44.3080 N   0  0  0  0  0  0  0  0  0  0  0  0
   58.6320   33.5770   44.4170 C   0  0  0  0  0  0  0  0  0  0  0  0
   59.2010   33.7100   45.8040 C   0  0  0  0  0  0  0  0  0  0  0  0
   58.3550   33.7820   46.9240 C   0  0  0  0  0  0  0  0  0  0  0  0
   58.8950   33.8910   48.2090 C   0  0  0  0  0  0  0  0  0  0  0  0
   60.2810   33.9270   48.3860 C   0  0  0  0  0  0  0  0  0  0  0  0
   60.8030   34.0330   49.6330 F   0  0  0  0  0  0  0  0  0  0  0  0
   61.1290   33.8540   47.2770 C   0  0  0  0  0  0  0  0  0  0  0  0
   60.5930   33.7460   45.9910 C   0  0  0  0  0  0  0  0  0  0  0  0
   58.3330   31.2900   45.2110 C   0  0  0  0  0  0  0  0  0  0  0  0
   58.3070   27.5240   44.1310 C   0  0  0  0  0  0  0  0  0  0  0  0
   58.8530   26.6940   45.3180 C   0  0  0  0  0  0  0  0  0  0  0  0
   60.0454   27.4021   49.7336 H   0  0  0  0  0  0  0  0  0  0  0  0
   61.4017   27.4290   48.5561 H   0  0  0  0  0  0  0  0  0  0  0  0
   60.1859   28.7514   48.5561 H   0  0  0  0  0  0  0  0  0  0  0  0
   59.9931   25.9347   47.4907 H   0  0  0  0  0  0  0  0  0  0  0  0
   58.4980   26.7499   48.1733 H   0  0  0  0  0  0  0  0  0  0  0  0
   60.3468   29.3618   46.7075 H   0  0  0  0  0  0  0  0  0  0  0  0
   61.2988   27.9389   46.1226 H   0  0  0  0  0  0  0  0  0  0  0  0
   60.5671   30.0039   44.5067 H   0  0  0  0  0  0  0  0  0  0  0  0
   60.7674   28.2904   43.9355 H   0  0  0  0  0  0  0  0  0  0  0  0
   58.8070   29.2420   43.1250 H   0  0  0  0  0  0  0  0  0  0  0  0
   57.6846   29.3217   45.8221 H   0  0  0  0  0  0  0  0  0  0  0  0
   56.1058   28.9896   43.8289 H   0  0  0  0  0  0  0  0  0  0  0  0
   55.7698   30.5283   44.7357 H   0  0  0  0  0  0  0  0  0  0  0  0
   56.9054   30.1232   41.9725 H   0  0  0  0  0  0  0  0  0  0  0  0
   55.6899   31.3218   42.5931 H   0  0  0  0  0  0  0  0  0  0  0  0
   58.7053   31.4426   42.6219 H   0  0  0  0  0  0  0  0  0  0  0  0
   57.4963   32.7232   42.2573 H   0  0  0  0  0  0  0  0  0  0  0  0
   59.4565   33.5301   43.6904 H   0  0  0  0  0  0  0  0  0  0  0  0
   57.9930   34.4479   44.2094 H   0  0  0  0  0  0  0  0  0  0  0  0
   57.2637   33.7525   46.7890 H   0  0  0  0  0  0  0  0  0  0  0  0
   58.2282   33.9485   49.0819 H   0  0  0  0  0  0  0  0  0  0  0  0
   62.2197   33.8816   47.4169 H   0  0  0  0  0  0  0  0  0  0  0  0
   61.2639   33.6889   45.1212 H   0  0  0  0  0  0  0  0  0  0  0  0
   59.4313   31.2886   45.1504 H   0  0  0  0  0  0  0  0  0  0  0  0
   57.9649   31.5253   46.2205 H   0  0  0  0  0  0  0  0  0  0  0  0
   57.2082   27.5229   44.1819 H   0  0  0  0  0  0  0  0  0  0  0  0
   58.6829   27.0558   43.2093 H   0  0  0  0  0  0  0  0  0  0  0  0
   58.0712   26.0044   45.6690 H   0  0  0  0  0  0  0  0  0  0  0  0
   59.7332   26.1255   44.9831 H   0  0  0  0  0  0  0  0  0  0  0  0
  1  2  1  0
  2  3  1  0
  3  4  1  0
  4  5  1  0
  5  6  1  0
  6  7  1  0
  7  8  1  0
  8  9  1  0
  9 10  1  0
 10 11  1  0
 11 12  1  0
 12 13  1  0
 13 14  2  0
 14 15  1  0
 15 16  2  0
 16 17  1  0
 16 18  1  0
 18 19  2  0
 11 20  1  0
  6 21  1  0
 21 22  1  0
 22  3  1  0
 20  7  1  0
 19 13  1  0
  1 23  1  0
  1 24  1  0
  1 25  1  0
  2 26  1  0
  2 27  1  0
  4 28  1  0
  4 29  1  0
  5 30  1  0
  5 31  1  0
  6 32  1  0
  7 33  1  1
  8 34  1  0
  8 35  1  0
  9 36  1  0
  9 37  1  0
 10 38  1  0
 10 39  1  0
 12 40  1  0
 12 41  1  0
 14 42  1  0
 15 43  1  0
 18 44  1  0
 19 45  1  0
 20 46  1  0
 20 47  1  0
 21 48  1  0
 21 49  1  0
 22 50  1  0
 22 51  1  0
M  CHG  1   6   1
M  END
>  <UniqueID>  (16) 
16

>  <SMILES>  (16) 
CCN1CC[NH+]([C@@H]2CCCN(Cc3ccc(F)cc3)C2)CC1

>  <Energy>  (16) 
82.61067336081402

>  <Genealogy>  (16) 
CCN1CC[NH+](C2CCCN(Cc3ccc(F)cc3)C2)CC1 (protonated)
CCN1CC[NH+]([C@@H]2CCCN(Cc3ccc(F)cc3)C2)CC1 (chirality)
CCN1CC[NH+]([C@@H]2CCCN(Cc3ccc(F)cc3)C2)CC1 (3D coordinates assigned)
CCN1CC[NH+]([C@@H]2CCCN(Cc3ccc(F)cc3)C2)CC1 (nonaromatic ring conformer: 82.61067336081402 kcal/mol)

>  <smiles>  (16) 
CCN1CCN(C2CCCN(Cc3ccc(F)cc3)C2)CC1

>  <score_type>  (16) 
oracle

>  <origin>  (16) 
adg

>  <m_score__min__energy>  (16) 
-6.0800000000000001

>  <m_primary>  (16) 
energy

$$$$
16:0
     RDKit          3D

 58 61  0  0  0  0  0  0  0  0999 V2000
   56.7440   30.3720   42.8960 C   0  0  0  0  0  0  0  0  0  0  0  0
   56.3550   30.3100   44.3740 C   0  0  0  0  0  0  0  0  0  0  0  0
   57.5260   30.5490   45.2400 N   0  0  0  0  0  0  0  0  0  0  0  0
   58.1630   29.4940   45.8590 C   0  0  0  0  0  0  0  0  0  0  0  0
   59.3880   29.6520   46.4840 C   0  0  0  0  0  0  0  0  0  0  0  0
   59.9910   30.8990   46.5830 C   0  0  0  0  0  0  0  0  0  0  0  0
   61.2890   31.0160   47.1860 N   0  0  0  0  0  0  0  0  0  0  0  0
   61.5020   30.6690   48.5900 C   0  0  0  0  0  0  0  0  0  0  0  0
   61.8160   31.9300   49.4030 C   0  0  0  0  0  0  0  0  0  0  0  0
   63.2630   31.9330   49.9340 C   0  0  0  0  0  0  0  0  0  0  0  0
   64.2140   32.5960   48.9920 N   0  0  2  0  0  0  0  0  0  0  0  0
   65.4270   33.0270   49.7120 C   0  0  0  0  0  0  0  0  0  0  0  0
   63.6050   33.7680   48.3140 C   0  0  0  0  0  0  0  0  0  0  0  0
   63.4300   33.5430   46.8080 C   0  0  0  0  0  0  0  0  0  0  0  0
   59.2870   32.0190   46.0970 C   0  0  0  0  0  0  0  0  0  0  0  0
   59.7830   33.3220   46.3010 C   0  0  0  0  0  0  0  0  0  0  0  0
   59.0910   34.4300   45.8210 C   0  0  0  0  0  0  0  0  0  0  0  0
   57.8890   34.2610   45.1450 C   0  0  0  0  0  0  0  0  0  0  0  0
   57.3630   32.9850   44.9470 C   0  0  0  0  0  0  0  0  0  0  0  0
   58.0410   31.8290   45.4150 C   0  0  0  0  0  0  0  0  0  0  0  0
   59.9550   28.3500   46.9620 C   0  0  0  0  0  0  0  0  0  0  0  0
   58.8690   27.4100   46.5690 C   0  0  0  0  0  0  0  0  0  0  0  0
   58.8350   26.0390   46.8310 C   0  0  0  0  0  0  0  0  0  0  0  0
   57.6960   25.3120   46.4670 C   0  0  0  0  0  0  0  0  0  0  0  0
   56.6030   25.9620   45.8740 C   0  0  0  0  0  0  0  0  0  0  0  0
   56.6450   27.3430   45.6230 C   0  0  0  0  0  0  0  0  0  0  0  0
   57.8130   28.0590   45.9430 C   0  0  0  0  0  0  0  0  0  0  0  0
   57.8269   30.5446   42.8088 H   0  0  0  0  0  0  0  0  0  0  0  0
   56.4838   29.4210   42.4082 H   0  0  0  0  0  0  0  0  0  0  0  0
   56.2011   31.1949   42.4082 H   0  0  0  0  0  0  0  0  0  0  0  0
   55.5941   31.0777   44.5781 H   0  0  0  0  0  0  0  0  0  0  0  0
   55.9584   29.3070   44.5901 H   0  0  0  0  0  0  0  0  0  0  0  0
   61.9710   31.6820   46.7560 H   0  0  0  0  0  0  0  0  0  0  0  0
   60.5931   30.1956   48.9896 H   0  0  0  0  0  0  0  0  0  0  0  0
   62.3504   29.9727   48.6639 H   0  0  0  0  0  0  0  0  0  0  0  0
   61.6723   32.8111   48.7604 H   0  0  0  0  0  0  0  0  0  0  0  0
   61.1378   31.9521   50.2687 H   0  0  0  0  0  0  0  0  0  0  0  0
   63.2858   32.4690   50.8943 H   0  0  0  0  0  0  0  0  0  0  0  0
   63.5802   30.8860   50.0490 H   0  0  0  0  0  0  0  0  0  0  0  0
   64.5340   31.9280   48.2510 H   0  0  0  0  0  0  0  0  0  0  0  0
   65.2515   32.9646   50.7961 H   0  0  0  0  0  0  0  0  0  0  0  0
   66.2678   32.3726   49.4384 H   0  0  0  0  0  0  0  0  0  0  0  0
   65.6664   34.0652   49.4384 H   0  0  0  0  0  0  0  0  0  0  0  0
   62.6181   33.9611   48.7598 H   0  0  0  0  0  0  0  0  0  0  0  0
   64.2818   34.6244   48.4498 H   0  0  0  0  0  0  0  0  0  0  0  0
   62.7625   32.6848   46.6406 H   0  0  0  0  0  0  0  0  0  0  0  0
   62.9920   34.4428   46.3513 H   0  0  0  0  0  0  0  0  0  0  0  0
   64.4099   33.3399   46.3513 H   0  0  0  0  0  0  0  0  0  0  0  0
   60.7278   33.4651   46.8458 H   0  0  0  0  0  0  0  0  0  0  0  0
   59.4962   35.4407   45.9770 H   0  0  0  0  0  0  0  0  0  0  0  0
   57.3486   35.1399   44.7634 H   0  0  0  0  0  0  0  0  0  0  0  0
   56.4050   32.8720   44.4184 H   0  0  0  0  0  0  0  0  0  0  0  0
   60.9010   28.1101   46.4546 H   0  0  0  0  0  0  0  0  0  0  0  0
   60.2088   28.3299   48.0321 H   0  0  0  0  0  0  0  0  0  0  0  0
   59.6876   25.5397   47.3145 H   0  0  0  0  0  0  0  0  0  0  0  0
   57.6574   24.2274   46.6464 H   0  0  0  0  0  0  0  0  0  0  0  0
   55.7062   25.3853   45.6036 H   0  0  0  0  0  0  0  0  0  0  0  0
   55.7779   27.8571   45.1829 H   0  0  0  0  0  0  0  0  0  0  0  0
  1  2  1  0
  2  3  1  0
  3  4  2  0
  4  5  1  0
  5  6  2  0
  6  7  1  0
  7  8  1  0
  8  9  1  0
  9 10  1  0
 10 11  1  0
 11 12  1  0
 11 13  1  0
 13 14  1  0
  6 15  1  0
 15 16  2  0
 16 17  1  0
 17 18  2  0
 18 19  1  0
 19 20  2  0
  5 21  1  0
 21 22  1  0
 22 23  2  0
 23 24  1  0
 24 25  2  0
 25 26  1  0
 26 27  2  0
 20  3  1  0
 27 22  1  0
 27  4  1  0
 20 15  1  0
  1 28  1  0
  1 29  1  0
  1 30  1  0
  2 31  1  0
  2 32  1  0
  7 33  1  0
  8 34  1  0
  8 35  1  0
  9 36  1  0
  9 37  1  0
 10 38  1  0
 10 39  1  0
 11 40  1  6
 12 41  1  0
 12 42  1  0
 12 43  1  0
 13 44  1  0
 13 45  1  0
 14 46  1  0
 14 47  1  0
 14 48  1  0
 16 49  1  0
 17 50  1  0
 18 51  1  0
 19 52  1  0
 21 53  1  0
 21 54  1  0
 23 55  1  0
 24 56  1  0
 25 57  1  0
 26 58  1  0
M  CHG  2   3   1  11   1
M  END
>  <UniqueID>  (17) 
17

>  <SMILES>  (17) 
CC[n+]1c2c(c(NCCC[N@H+](C)CC)c3ccccc31)Cc1ccccc1-2

>  <Energy>  (17) 
101.20466017006241

>  <Genealogy>  (17) 
CC[n+]1c2c(c(NCCC[NH+](C)CC)c3ccccc31)Cc1ccccc1-2 (protonated)
CC[n+]1c2c(c(NCCC[N@H+](C)CC)c3ccccc31)Cc1ccccc1-2 (chirality)
CC[n+]1c2c(c(NCCC[N@H+](C)CC)c3ccccc31)Cc1ccccc1-2 (3D coordinates assigned)
CC[n+]1c2c(c(NCCC[N@H+](C)CC)c3ccccc31)Cc1ccccc1-2 (nonaromatic ring conformer: 101.20466017006241 kcal/mol)

>  <smiles>  (17) 
CCN(C)CCCNc1c2c([n+](CC)c3ccccc13)-c1ccccc1C2

>  <score_type>  (17) 
oracle

>  <origin>  (17) 
adg

>  <m_score__min__energy>  (17) 
-5.4699999999999998

>  <m_primary>  (17) 
energy

$$$$
17:0
     RDKit          3D

 53 55  0  0  0  0  0  0  0  0999 V2000
   65.4080   32.7870   49.9840 C   0  0  0  0  0  0  0  0  0  0  0  0
   64.2010   32.0020   49.4480 C   0  0  0  0  0  0  0  0  0  0  0  0
   63.2440   32.8050   48.6430 N   0  0  1  0  0  0  0  0  0  0  0  0
   63.9090   33.4620   47.5020 C   0  0  0  0  0  0  0  0  0  0  0  0
   62.0570   32.0470   48.1750 C   0  0  0  0  0  0  0  0  0  0  0  0
   61.1160   32.9000   47.2950 C   0  0  0  0  0  0  0  0  0  0  0  0
   60.1770   33.6830   48.1180 N   0  0  0  0  0  0  0  0  0  0  0  0
   59.0230   34.3210   47.4610 C   0  0  0  0  0  0  0  0  0  0  0  0
   58.6380   33.5610   46.2220 C   0  0  0  0  0  0  0  0  0  0  0  0
   58.8480   34.1220   44.9500 C   0  0  0  0  0  0  0  0  0  0  0  0
   58.4400   33.4370   43.8000 C   0  0  0  0  0  0  0  0  0  0  0  0
   57.8140   32.1930   43.9150 C   0  0  0  0  0  0  0  0  0  0  0  0
   57.6250   31.6160   45.1770 C   0  0  0  0  0  0  0  0  0  0  0  0
   58.0250   32.3000   46.3280 C   0  0  0  0  0  0  0  0  0  0  0  0
   57.0290   30.3550   45.2660 O   0  0  0  0  0  0  0  0  0  0  0  0
   56.8630   29.5330   44.1070 C   0  0  0  0  0  0  0  0  0  0  0  0
   56.4800   30.3920   42.8960 C   0  0  0  0  0  0  0  0  0  0  0  0
   57.3660   31.5090   42.7800 O   0  0  0  0  0  0  0  0  0  0  0  0
   60.3420   33.7120   49.5570 C   0  0  0  0  0  0  0  0  0  0  0  0
   61.3840   34.2120   50.0620 O   0  0  0  0  0  0  0  0  0  0  0  0
   59.3220   33.1780   50.4770 C   0  0  0  0  0  0  0  0  0  0  0  0
   58.8500   33.8940   51.9260 S   0  0  0  0  0  0  0  0  0  0  0  0
   57.8210   32.6610   52.4210 C   0  0  0  0  0  0  0  0  0  0  0  0
   57.8500   31.6560   51.4630 C   0  0  0  0  0  0  0  0  0  0  0  0
   58.6890   31.9400   50.3740 C   0  0  0  0  0  0  0  0  0  0  0  0
   58.8950   30.9870   49.2350 C   0  0  0  0  0  0  0  0  0  0  0  0
   65.3927   32.7771   51.0839 H   0  0  0  0  0  0  0  0  0  0  0  0
   66.3374   32.3201   49.6260 H   0  0  0  0  0  0  0  0  0  0  0  0
   65.3580   33.8259   49.6260 H   0  0  0  0  0  0  0  0  0  0  0  0
   64.5777   31.1841   48.8163 H   0  0  0  0  0  0  0  0  0  0  0  0
   63.6450   31.6487   50.3289 H   0  0  0  0  0  0  0  0  0  0  0  0
   62.9000   33.5780   49.2630 H   0  0  0  0  0  0  0  0  0  0  0  0
   64.6450   34.1891   47.8756 H   0  0  0  0  0  0  0  0  0  0  0  0
   64.4202   32.7045   46.8897 H   0  0  0  0  0  0  0  0  0  0  0  0
   63.1577   33.9823   46.8897 H   0  0  0  0  0  0  0  0  0  0  0  0
   62.4002   31.1822   47.5882 H   0  0  0  0  0  0  0  0  0  0  0  0
   61.4894   31.7348   49.0640 H   0  0  0  0  0  0  0  0  0  0  0  0
   61.7207   33.5893   46.6874 H   0  0  0  0  0  0  0  0  0  0  0  0
   60.5336   32.2235   46.6523 H   0  0  0  0  0  0  0  0  0  0  0  0
   58.1714   34.3342   48.1572 H   0  0  0  0  0  0  0  0  0  0  0  0
   59.2967   35.3482   47.1784 H   0  0  0  0  0  0  0  0  0  0  0  0
   59.3353   35.1039   44.8584 H   0  0  0  0  0  0  0  0  0  0  0  0
   58.6119   33.8773   42.8067 H   0  0  0  0  0  0  0  0  0  0  0  0
   57.8601   31.8512   47.3186 H   0  0  0  0  0  0  0  0  0  0  0  0
   57.8065   29.0084   43.8960 H   0  0  0  0  0  0  0  0  0  0  0  0
   56.0611   28.8043   44.2969 H   0  0  0  0  0  0  0  0  0  0  0  0
   56.5441   29.7816   41.9832 H   0  0  0  0  0  0  0  0  0  0  0  0
   55.4529   30.7622   43.0302 H   0  0  0  0  0  0  0  0  0  0  0  0
   57.2259   32.6516   53.3461 H   0  0  0  0  0  0  0  0  0  0  0  0
   57.2702   30.7252   51.5494 H   0  0  0  0  0  0  0  0  0  0  0  0
   59.1118   29.9839   49.6309 H   0  0  0  0  0  0  0  0  0  0  0  0
   57.9843   30.9492   48.6192 H   0  0  0  0  0  0  0  0  0  0  0  0
   59.7400   31.3287   48.6192 H   0  0  0  0  0  0  0  0  0  0  0  0
  1  2  1  0
  2  3  1  0
  3  4  1  0
  3  5  1  0
  5  6  1  0
  6  7  1  0
  7  8  1  0
  8  9  1  0
  9 10  2  0
 10 11  1  0
 11 12  2  0
 12 13  1  0
 13 14  2  0
 13 15  1  0
 15 16  1  0
 16 17  1  0
 17 18  1  0
  7 19  1  0
 19 20  2  0
 19 21  1  0
 21 22  1  0
 22 23  1  0
 23 24  2  0
 24 25  1  0
 25 26  1  0
 14  9  1  0
 25 21  2  0
 18 12  1  0
  1 27  1  0
  1 28  1  0
  1 29  1  0
  2 30  1  0
  2 31  1  0
  3 32  1  1
  4 33  1  0
  4 34  1  0
  4 35  1  0
  5 36  1  0
  5 37  1  0
  6 38  1  0
  6 39  1  0
  8 40  1  0
  8 41  1  0
 10 42  1  0
 11 43  1  0
 14 44  1  0
 16 45  1  0
 16 46  1  0
 17 47  1  0
 17 48  1  0
 23 49  1  0
 24 50  1  0
 26 51  1  0
 26 52  1  0
 26 53  1  0
M  CHG  1   3   1
M  END
>  <UniqueID>  (18) 
18

>  <SMILES>  (18) 
CC[N@@H+](C)CCN(Cc1ccc2c(c1)OCCO2)C(=O)c1sccc1C

>  <Energy>  (18) 
83.64944388720046

>  <Genealogy>  (18) 
CC[NH+](C)CCN(Cc1ccc2c(c1)OCCO2)C(=O)c1sccc1C (protonated)
CC[N@@H+](C)CCN(Cc1ccc2c(c1)OCCO2)C(=O)c1sccc1C (chirality)
CC[N@@H+](C)CCN(Cc1ccc2c(c1)OCCO2)C(=O)c1sccc1C (3D coordinates assigned)
CC[N@@H+](C)CCN(Cc1ccc2c(c1)OCCO2)C(=O)c1sccc1C (nonaromatic ring conformer: 83.64944388720046 kcal/mol)

>  <smiles>  (18) 
CCN(C)CCN(Cc1ccc2c(c1)OCCO2)C(=O)c1sccc1C

>  <score_type>  (18) 
oracle

>  <origin>  (18) 
adg

>  <m_score__min__energy>  (18) 
-5.8600000000000003

>  <m_primary>  (18) 
energy

$$$$
18:0
     RDKit          3D

 38 39  0  0  0  0  0  0  0  0999 V2000
   55.2190   25.1000   45.6880 C   0  0  0  0  0  0  0  0  0  0  0  0
   55.4280   26.4760   45.9940 O   0  0  0  0  0  0  0  0  0  0  0  0
   56.6670   27.1300   45.9020 C   0  0  0  0  0  0  0  0  0  0  0  0
   57.8520   26.5610   46.4030 C   0  0  0  0  0  0  0  0  0  0  0  0
   59.0610   27.2510   46.3150 C   0  0  0  0  0  0  0  0  0  0  0  0
   59.1120   28.5160   45.7150 C   0  0  0  0  0  0  0  0  0  0  0  0
   60.3980   29.3040   45.7170 C   0  0  0  0  0  0  0  0  0  0  0  0
   60.6100   30.0550   47.0390 C   0  0  0  0  0  0  0  0  0  0  0  0
   59.4180   30.9090   47.4040 C   0  0  0  0  0  0  0  0  0  0  0  0
   58.7430   30.5810   48.4170 O   0  0  0  0  0  0  0  0  0  0  0  0
   59.0670   32.1580   46.6740 C   0  0  0  0  0  0  0  0  0  0  0  0
   57.8620   32.2880   45.9550 C   0  0  0  0  0  0  0  0  0  0  0  0
   57.5920   33.4500   45.2250 C   0  0  0  0  0  0  0  0  0  0  0  0
   58.5120   34.4990   45.2120 C   0  0  0  0  0  0  0  0  0  0  0  0
   59.7020   34.3920   45.9340 C   0  0  0  0  0  0  0  0  0  0  0  0
   59.9780   33.2340   46.6640 C   0  0  0  0  0  0  0  0  0  0  0  0
   57.9360   29.0790   45.1940 C   0  0  0  0  0  0  0  0  0  0  0  0
   56.7090   28.3950   45.2950 C   0  0  0  0  0  0  0  0  0  0  0  0
   55.5090   28.9460   44.8190 O   0  0  0  0  0  0  0  0  0  0  0  0
   55.3980   29.7480   43.6470 C   0  0  0  0  0  0  0  0  0  0  0  0
   55.1318   24.5258   46.6222 H   0  0  0  0  0  0  0  0  0  0  0  0
   54.2940   24.9909   45.1028 H   0  0  0  0  0  0  0  0  0  0  0  0
   56.0699   24.7212   45.1028 H   0  0  0  0  0  0  0  0  0  0  0  0
   57.8249   25.5643   46.8677 H   0  0  0  0  0  0  0  0  0  0  0  0
   59.9792   26.7996   46.7188 H   0  0  0  0  0  0  0  0  0  0  0  0
   61.2389   28.6118   45.5629 H   0  0  0  0  0  0  0  0  0  0  0  0
   60.3419   30.0480   44.9087 H   0  0  0  0  0  0  0  0  0  0  0  0
   60.7796   29.3212   47.8407 H   0  0  0  0  0  0  0  0  0  0  0  0
   61.4782   30.7192   46.9163 H   0  0  0  0  0  0  0  0  0  0  0  0
   57.1278   31.4689   45.9680 H   0  0  0  0  0  0  0  0  0  0  0  0
   56.6523   33.5371   44.6599 H   0  0  0  0  0  0  0  0  0  0  0  0
   58.2997   35.4099   44.6331 H   0  0  0  0  0  0  0  0  0  0  0  0
   60.4240   35.2219   45.9279 H   0  0  0  0  0  0  0  0  0  0  0  0
   60.9145   33.1607   47.2363 H   0  0  0  0  0  0  0  0  0  0  0  0
   57.9733   30.0625   44.7028 H   0  0  0  0  0  0  0  0  0  0  0  0
   55.2524   30.7997   43.9348 H   0  0  0  0  0  0  0  0  0  0  0  0
   56.3176   29.6550   43.0506 H   0  0  0  0  0  0  0  0  0  0  0  0
   54.5383   29.4087   43.0506 H   0  0  0  0  0  0  0  0  0  0  0  0
  1  2  1  0
  2  3  1  0
  3  4  2  0
  4  5  1  0
  5  6  2  0
  6  7  1  0
  7  8  1  0
  8  9  1  0
  9 10  2  0
  9 11  1  0
 11 12  2  0
 12 13  1  0
 13 14  2  0
 14 15  1  0
 15 16  2  0
  6 17  1  0
 17 18  2  0
 18 19  1  0
 19 20  1  0
 18  3  1  0
 16 11  1  0
  1 21  1  0
  1 22  1  0
  1 23  1  0
  4 24  1  0
  5 25  1  0
  7 26  1  0
  7 27  1  0
  8 28  1  0
  8 29  1  0
 12 30  1  0
 13 31  1  0
 14 32  1  0
 15 33  1  0
 16 34  1  0
 17 35  1  0
 20 36  1  0
 20 37  1  0
 20 38  1  0
M  END
>  <UniqueID>  (19) 
19

>  <SMILES>  (19) 
COc1ccc(CCC(=O)c2ccccc2)cc1OC

>  <Energy>  (19) 
33.682233268413235

>  <Genealogy>  (19) 
COc1ccc(CCC(=O)c2ccccc2)cc1OC (3D coordinates assigned)
COc1ccc(CCC(=O)c2ccccc2)cc1OC (optimized conformer: 33.682233268413235 kcal/mol)

>  <smiles>  (19) 
COc1ccc(CCC(=O)c2ccccc2)cc1OC

>  <score_type>  (19) 
oracle

>  <origin>  (19) 
adg

>  <m_score__min__energy>  (19) 
-7.6299999999999999

>  <m_primary>  (19) 
energy

$$$$
19:0
     RDKit          3D

 63 66  0  0  0  0  0  0  0  0999 V2000
   62.5230   29.4130   51.2460 C   0  0  0  0  0  0  0  0  0  0  0  0
   62.0370   30.8590   51.2390 C   0  0  0  0  0  0  0  0  0  0  0  0
   60.8720   31.0050   50.3380 N   0  0  0  0  0  0  0  0  0  0  0  0
   60.4250   29.7010   49.7860 C   0  0  0  0  0  0  0  0  0  0  0  0
   58.9430   29.7330   49.4070 C   0  0  0  0  0  0  0  0  0  0  0  0
   59.7820   31.8070   50.9460 C   0  0  0  0  0  0  0  0  0  0  0  0
   59.5380   33.1750   50.2670 C   0  0  0  0  0  0  0  0  0  0  0  0
   60.7480   33.6770   49.7360 O   0  0  0  0  0  0  0  0  0  0  0  0
   60.5320   34.5800   48.6630 C   0  0  0  0  0  0  0  0  0  0  0  0
   61.2040   34.0560   47.3760 C   0  0  1  0  0  0  0  0  0  0  0  0
   62.6720   33.6240   47.6500 C   0  0  0  0  0  0  0  0  0  0  0  0
   62.7420   32.3060   48.3440 N   0  0  2  0  0  0  0  0  0  0  0  0
   64.1000   32.0000   48.8540 C   0  0  0  0  0  0  0  0  0  0  0  0
   64.6750   33.0830   49.7940 C   0  0  0  0  0  0  0  0  0  0  0  0
   65.1310   32.5430   51.1430 C   0  0  0  0  0  0  0  0  0  0  0  0
   66.1590   32.9870   50.1160 C   0  0  0  0  0  0  0  0  0  0  0  0
   62.2110   31.2060   47.5050 C   0  0  0  0  0  0  0  0  0  0  0  0
   60.8660   31.5670   46.9420 C   0  0  0  0  0  0  0  0  0  0  0  0
   60.4510   32.8800   46.8120 C   0  0  0  0  0  0  0  0  0  0  0  0
   59.2650   32.8390   46.1000 C   0  0  0  0  0  0  0  0  0  0  0  0
   58.4330   33.8550   45.6380 C   0  0  0  0  0  0  0  0  0  0  0  0
   57.3000   33.4860   44.8880 C   0  0  0  0  0  0  0  0  0  0  0  0
   57.0400   32.1270   44.6080 C   0  0  0  0  0  0  0  0  0  0  0  0
   57.8980   31.1220   45.0800 C   0  0  0  0  0  0  0  0  0  0  0  0
   59.0140   31.5120   45.8280 C   0  0  0  0  0  0  0  0  0  0  0  0
   60.0020   30.7260   46.3160 N   0  0  0  0  0  0  0  0  0  0  0  0
   60.0850   29.2670   46.2360 C   0  0  0  0  0  0  0  0  0  0  0  0
   62.6383   29.0700   52.2848 H   0  0  0  0  0  0  0  0  0  0  0  0
   61.7892   28.7770   50.7291 H   0  0  0  0  0  0  0  0  0  0  0  0
   63.4919   29.3493   50.7291 H   0  0  0  0  0  0  0  0  0  0  0  0
   61.7452   31.1487   52.2593 H   0  0  0  0  0  0  0  0  0  0  0  0
   62.8498   31.5079   50.8809 H   0  0  0  0  0  0  0  0  0  0  0  0
   61.0187   29.4697   48.8893 H   0  0  0  0  0  0  0  0  0  0  0  0
   60.5679   28.9311   50.5585 H   0  0  0  0  0  0  0  0  0  0  0  0
   58.3310   29.7462   50.3209 H   0  0  0  0  0  0  0  0  0  0  0  0
   58.7356   30.6358   48.8138 H   0  0  0  0  0  0  0  0  0  0  0  0
   58.6969   28.8400   48.8138 H   0  0  0  0  0  0  0  0  0  0  0  0
   58.8516   31.2231   50.8869 H   0  0  0  0  0  0  0  0  0  0  0  0
   60.0900   32.0211   51.9801 H   0  0  0  0  0  0  0  0  0  0  0  0
   58.8072   33.0524   49.4540 H   0  0  0  0  0  0  0  0  0  0  0  0
   59.1516   33.8837   51.0142 H   0  0  0  0  0  0  0  0  0  0  0  0
   59.4508   34.6858   48.4902 H   0  0  0  0  0  0  0  0  0  0  0  0
   60.9701   35.5549   48.9231 H   0  0  0  0  0  0  0  0  0  0  0  0
   61.1937   34.8803   46.6477 H   0  0  0  0  0  0  0  0  0  0  0  0
   63.2061   33.5502   46.6912 H   0  0  0  0  0  0  0  0  0  0  0  0
   63.1339   34.3789   48.3033 H   0  0  0  0  0  0  0  0  0  0  0  0
   62.1350   32.3560   49.1960 H   0  0  0  0  0  0  0  0  0  0  0  0
   64.0564   31.0497   49.4064 H   0  0  0  0  0  0  0  0  0  0  0  0
   64.7655   31.9504   47.9796 H   0  0  0  0  0  0  0  0  0  0  0  0
   64.0211   33.8935   49.4397 H   0  0  0  0  0  0  0  0  0  0  0  0
   64.9728   33.1371   52.0552 H   0  0  0  0  0  0  0  0  0  0  0  0
   64.9495   31.6197   51.7128 H   0  0  0  0  0  0  0  0  0  0  0  0
   66.7451   33.9023   50.2851 H   0  0  0  0  0  0  0  0  0  0  0  0
   67.0299   32.5177   49.6350 H   0  0  0  0  0  0  0  0  0  0  0  0
   62.9092   31.0147   46.6768 H   0  0  0  0  0  0  0  0  0  0  0  0
   62.1024   30.3069   48.1293 H   0  0  0  0  0  0  0  0  0  0  0  0
   58.6535   34.9112   45.8518 H   0  0  0  0  0  0  0  0  0  0  0  0
   56.6132   34.2614   44.5179 H   0  0  0  0  0  0  0  0  0  0  0  0
   56.1558   31.8531   44.0137 H   0  0  0  0  0  0  0  0  0  0  0  0
   57.6993   30.0610   44.8685 H   0  0  0  0  0  0  0  0  0  0  0  0
   60.1090   28.8449   47.2515 H   0  0  0  0  0  0  0  0  0  0  0  0
   59.2075   28.8788   45.6982 H   0  0  0  0  0  0  0  0  0  0  0  0
   61.0009   28.9808   45.6982 H   0  0  0  0  0  0  0  0  0  0  0  0
  1  2  1  0
  2  3  1  0
  3  4  1  0
  4  5  1  0
  3  6  1  0
  6  7  1  0
  7  8  1  0
  8  9  1  0
  9 10  1  0
 10 11  1  0
 11 12  1  0
 12 13  1  0
 13 14  1  0
 14 15  1  0
 15 16  1  0
 12 17  1  0
 17 18  1  0
 18 19  2  0
 19 20  1  0
 20 21  2  0
 21 22  1  0
 22 23  2  0
 23 24  1  0
 24 25  2  0
 25 26  1  0
 26 27  1  0
 19 10  1  0
 25 20  1  0
 16 14  1  0
 26 18  1  0
  1 28  1  0
  1 29  1  0
  1 30  1  0
  2 31  1  0
  2 32  1  0
  4 33  1  0
  4 34  1  0
  5 35  1  0
  5 36  1  0
  5 37  1  0
  6 38  1  0
  6 39  1  0
  7 40  1  0
  7 41  1  0
  9 42  1  0
  9 43  1  0
 10 44  1  6
 11 45  1  0
 11 46  1  0
 12 47  1  1
 13 48  1  0
 13 49  1  0
 14 50  1  0
 15 51  1  0
 15 52  1  0
 16 53  1  0
 16 54  1  0
 17 55  1  0
 17 56  1  0
 21 57  1  0
 22 58  1  0
 23 59  1  0
 24 60  1  0
 27 61  1  0
 27 62  1  0
 27 63  1  0
M  CHG  1  12   1
M  END
>  <UniqueID>  (20) 
20

>  <SMILES>  (20) 
CCN(CC)CCOC[C@H]1C[N@H+](CC2CC2)Cc2c1c1ccccc1n2C

>  <Energy>  (20) 
372.6326206603955

>  <Genealogy>  (20) 
CCN(CC)CCOCC1C[NH+](CC2CC2)Cc2c1c1ccccc1n2C (protonated)
CCN(CC)CCOC[C@H]1C[N@H+](CC2CC2)Cc2c1c1ccccc1n2C (chirality)
CCN(CC)CCOC[C@H]1C[N@H+](CC2CC2)Cc2c1c1ccccc1n2C (3D coordinates assigned)
CCN(CC)CCOC[C@H]1C[N@H+](CC2CC2)Cc2c1c1ccccc1n2C (nonaromatic ring conformer: 372.6326206603955 kcal/mol)

>  <smiles>  (20) 
CCN(CC)CCOCC1CN(CC2CC2)Cc2c1c1ccccc1n2C

>  <score_type>  (20) 
oracle

>  <origin>  (20) 
adg

>  <m_score__min__energy>  (20) 
-5.2699999999999996

>  <m_primary>  (20) 
energy

$$$$
20:0
     RDKit          3D

 34 34  0  0  0  0  0  0  0  0999 V2000
   63.4670   33.3670   47.3220 C   0  0  0  0  0  0  0  0  0  0  0  0
   62.2600   33.8380   46.5150 C   0  0  0  0  0  0  0  0  0  0  0  0
   61.0330   33.8160   47.3410 N   0  0  0  0  0  0  0  0  0  0  0  0
   61.3070   34.1860   48.7440 C   0  0  0  0  0  0  0  0  0  0  0  0
   59.9590   34.6540   46.7640 C   0  0  0  0  0  0  0  0  0  0  0  0
   58.9110   33.8600   46.0980 C   0  0  0  0  0  0  0  0  0  0  0  0
   58.0640   33.2070   45.5430 C   0  0  0  0  0  0  0  0  0  0  0  0
   57.0320   32.3990   44.8740 C   0  0  0  0  0  0  0  0  0  0  0  0
   57.5550   31.1200   44.3450 N   0  0  0  0  0  0  0  0  0  0  0  0
   56.8290   30.6170   43.1610 C   0  0  0  0  0  0  0  0  0  0  0  0
   55.5890   29.7680   43.5340 C   0  0  0  0  0  0  0  0  0  0  0  0
   55.5890   29.3070   44.8740 O   0  0  0  0  0  0  0  0  0  0  0  0
   56.8780   28.8770   45.2450 C   0  0  0  0  0  0  0  0  0  0  0  0
   57.8110   30.0890   45.3810 C   0  0  0  0  0  0  0  0  0  0  0  0
   63.2461   33.4532   48.3961 H   0  0  0  0  0  0  0  0  0  0  0  0
   63.6858   32.3175   47.0757 H   0  0  0  0  0  0  0  0  0  0  0  0
   64.3388   33.9909   47.0757 H   0  0  0  0  0  0  0  0  0  0  0  0
   62.4397   34.8649   46.1639 H   0  0  0  0  0  0  0  0  0  0  0  0
   62.1213   33.1592   45.6606 H   0  0  0  0  0  0  0  0  0  0  0  0
   60.7886   33.4860   49.4157 H   0  0  0  0  0  0  0  0  0  0  0  0
   62.3900   34.1393   48.9307 H   0  0  0  0  0  0  0  0  0  0  0  0
   60.9465   35.2083   48.9307 H   0  0  0  0  0  0  0  0  0  0  0  0
   59.4964   35.2386   47.5728 H   0  0  0  0  0  0  0  0  0  0  0  0
   60.4175   35.3024   46.0028 H   0  0  0  0  0  0  0  0  0  0  0  0
   56.2341   32.1790   45.5986 H   0  0  0  0  0  0  0  0  0  0  0  0
   56.6593   32.9820   44.0189 H   0  0  0  0  0  0  0  0  0  0  0  0
   56.4984   31.4768   42.5598 H   0  0  0  0  0  0  0  0  0  0  0  0
   57.5183   29.9684   42.6005 H   0  0  0  0  0  0  0  0  0  0  0  0
   54.6897   30.3823   43.3794 H   0  0  0  0  0  0  0  0  0  0  0  0
   55.6080   28.8762   42.8902 H   0  0  0  0  0  0  0  0  0  0  0  0
   56.8236   28.3481   46.2079 H   0  0  0  0  0  0  0  0  0  0  0  0
   57.2717   28.2002   44.4724 H   0  0  0  0  0  0  0  0  0  0  0  0
   57.6613   30.5403   46.3729 H   0  0  0  0  0  0  0  0  0  0  0  0
   58.8437   29.7330   45.2514 H   0  0  0  0  0  0  0  0  0  0  0  0
  1  2  1  0
  2  3  1  0
  3  4  1  0
  3  5  1  0
  5  6  1  0
  6  7  3  0
  7  8  1  0
  8  9  1  0
  9 10  1  0
 10 11  1  0
 11 12  1  0
 12 13  1  0
 13 14  1  0
 14  9  1  0
  1 15  1  0
  1 16  1  0
  1 17  1  0
  2 18  1  0
  2 19  1  0
  4 20  1  0
  4 21  1  0
  4 22  1  0
  5 23  1  0
  5 24  1  0
  8 25  1  0
  8 26  1  0
 10 27  1  0
 10 28  1  0
 11 29  1  0
 11 30  1  0
 13 31  1  0
 13 32  1  0
 14 33  1  0
 14 34  1  0
M  END
>  <UniqueID>  (21) 
21

>  <SMILES>  (21) 
CCN(C)CC#CCN1CCOCC1

>  <Energy>  (21) 
40.16555022485358

>  <Genealogy>  (21) 
CCN(C)CC#CCN1CCOCC1 (3D coordinates assigned)
CCN(C)CC#CCN1CCOCC1 (nonaromatic ring conformer: 40.16555022485358 kcal/mol)

>  <smiles>  (21) 
CCN(C)CC#CCN1CCOCC1

>  <score_type>  (21) 
oracle

>  <origin>  (21) 
adg

>  <m_score__min__energy>  (21) 
-5.1799999999999997

>  <m_primary>  (21) 
energy

$$$$
21:0
     RDKit          3D

 32 33  0  0  0  0  0  0  0  0999 V2000
   55.5200   28.8220   44.8840 O   0  0  0  0  0  0  0  0  0  0  0  0
   56.6100   29.3550   45.2300 C   0  0  0  0  0  0  0  0  0  0  0  0
   56.8840   30.7130   44.8620 N   0  0  0  0  0  0  0  0  0  0  0  0
   58.0720   31.1330   44.1260 C   0  0  0  0  0  0  0  0  0  0  0  0
   58.1800   32.6560   44.0870 C   0  0  0  0  0  0  0  0  0  0  0  0
   59.2210   33.0770   44.8950 F   0  0  0  0  0  0  0  0  0  0  0  0
   58.4030   33.0920   42.7930 F   0  0  0  0  0  0  0  0  0  0  0  0
   57.0000   33.2120   44.5470 F   0  0  0  0  0  0  0  0  0  0  0  0
   57.5880   28.5980   46.0470 C   0  0  0  0  0  0  0  0  0  0  0  0
   58.6050   29.3040   46.7170 C   0  0  0  0  0  0  0  0  0  0  0  0
   59.5150   28.6350   47.5390 C   0  0  0  0  0  0  0  0  0  0  0  0
   59.4290   27.2530   47.6980 C   0  0  0  0  0  0  0  0  0  0  0  0
   58.4370   26.5330   47.0320 C   0  0  0  0  0  0  0  0  0  0  0  0
   57.5090   27.1900   46.2040 C   0  0  0  0  0  0  0  0  0  0  0  0
   56.5590   26.4130   45.4540 N   0  0  0  0  0  0  0  0  0  0  0  0
   55.9740   25.1990   45.9640 C   0  0  0  0  0  0  0  0  0  0  0  0
   56.1450   24.8860   47.1730 O   0  0  0  0  0  0  0  0  0  0  0  0
   55.1300   24.2760   45.1160 C   0  0  0  0  0  0  0  0  0  0  0  0
   55.7860   23.7220   43.8600 C   0  0  0  0  0  0  0  0  0  0  0  0
   55.5360   22.8100   45.0560 C   0  0  0  0  0  0  0  0  0  0  0  0
   58.9651   30.7213   44.6189 H   0  0  0  0  0  0  0  0  0  0  0  0
   57.9957   30.7599   43.0940 H   0  0  0  0  0  0  0  0  0  0  0  0
   58.6840   30.3940   46.5919 H   0  0  0  0  0  0  0  0  0  0  0  0
   60.3009   29.1999   48.0617 H   0  0  0  0  0  0  0  0  0  0  0  0
   60.1442   26.7294   48.3494 H   0  0  0  0  0  0  0  0  0  0  0  0
   58.3800   25.4414   47.1555 H   0  0  0  0  0  0  0  0  0  0  0  0
   56.2660   26.7860   44.5260 H   0  0  0  0  0  0  0  0  0  0  0  0
   54.1948   24.8092   45.3421 H   0  0  0  0  0  0  0  0  0  0  0  0
   55.1956   23.5974   42.9403 H   0  0  0  0  0  0  0  0  0  0  0  0
   56.6663   23.9921   43.2582 H   0  0  0  0  0  0  0  0  0  0  0  0
   54.7651   22.0274   44.9996 H   0  0  0  0  0  0  0  0  0  0  0  0
   56.1607   22.1494   45.6751 H   0  0  0  0  0  0  0  0  0  0  0  0
  1  2  2  0
  2  3  1  0
  3  4  1  0
  4  5  1  0
  5  6  1  0
  5  7  1  0
  5  8  1  0
  2  9  1  0
  9 10  2  0
 10 11  1  0
 11 12  2  0
 12 13  1  0
 13 14  2  0
 14 15  1  0
 15 16  1  0
 16 17  2  0
 16 18  1  0
 18 19  1  0
 19 20  1  0
 14  9  1  0
 20 18  1  0
  4 21  1  0
  4 22  1  0
 10 23  1  0
 11 24  1  0
 12 25  1  0
 13 26  1  0
 15 27  1  0
 18 28  1  0
 19 29  1  0
 19 30  1  0
 20 31  1  0
 20 32  1  0
M  CHG  1   3  -1
M  END
>  <UniqueID>  (22) 
22

>  <SMILES>  (22) 
O=C([N-]CC(F)(F)F)c1ccccc1NC(=O)C1CC1

>  <Energy>  (22) 
301.0687154769686

>  <Genealogy>  (22) 
O=C([N-]CC(F)(F)F)c1ccccc1NC(=O)C1CC1 (protonated)
O=C([N-]CC(F)(F)F)c1ccccc1NC(=O)C1CC1 (3D coordinates assigned)
O=C([N-]CC(F)(F)F)c1ccccc1NC(=O)C1CC1 (nonaromatic ring conformer: 301.0687154769686 kcal/mol)

>  <smiles>  (22) 
O=C(NCC(F)(F)F)c1ccccc1NC(=O)C1CC1

>  <score_type>  (22) 
oracle

>  <origin>  (22) 
adg

>  <m_score__min__energy>  (22) 
-8.4000000000000004

>  <m_primary>  (22) 
energy

$$$$
22:0
     RDKit          3D

 58 60  0  0  0  0  0  0  0  0999 V2000
   63.7470   34.0090   47.3500 C   0  0  0  0  0  0  0  0  0  0  0  0
   62.5090   33.5140   46.6100 C   0  0  0  0  0  0  0  0  0  0  0  0
   61.9730   32.3040   47.2560 N   0  0  0  0  0  0  0  0  0  0  0  0
   62.9510   31.7140   48.1790 C   0  0  0  0  0  0  0  0  0  0  0  0
   62.2360   30.8660   49.2310 C   0  0  0  0  0  0  0  0  0  0  0  0
   61.0470   31.5730   49.7190 N   0  0  0  0  0  0  0  0  0  0  0  0
   60.0510   30.6470   50.2760 C   0  0  0  0  0  0  0  0  0  0  0  0
   59.4550   29.7940   49.1540 C   0  0  0  0  0  0  0  0  0  0  0  0
   59.5570   30.4940   47.8690 N   0  0  0  0  0  0  0  0  0  0  0  0
   58.6640   30.2140   46.7870 C   0  0  0  0  0  0  0  0  0  0  0  0
   57.9690   31.1600   46.0400 C   0  0  0  0  0  0  0  0  0  0  0  0
   57.8590   32.6030   46.3500 C   0  0  0  0  0  0  0  0  0  0  0  0
   57.4780   33.4700   45.3960 C   0  0  0  0  0  0  0  0  0  0  0  0
   58.3790   34.5520   44.8550 C   0  0  0  0  0  0  0  0  0  0  0  0
   59.6930   34.8000   45.6440 C   0  0  0  0  0  0  0  0  0  0  0  0
   59.5200   35.0340   47.1570 C   0  0  0  0  0  0  0  0  0  0  0  0
   59.3940   33.7710   47.9230 N   0  0  0  0  0  0  0  0  0  0  0  0
   59.6990   34.0100   49.3460 C   0  0  0  0  0  0  0  0  0  0  0  0
   58.0940   33.0720   47.7680 C   0  0  0  0  0  0  0  0  0  0  0  0
   57.3930   30.5940   44.9510 N   0  0  0  0  0  0  0  0  0  0  0  0
   57.7350   29.2910   45.0200 C   0  0  0  0  0  0  0  0  0  0  0  0
   57.4150   28.3030   44.0910 C   0  0  0  0  0  0  0  0  0  0  0  0
   57.9210   27.0100   44.3010 C   0  0  0  0  0  0  0  0  0  0  0  0
   58.7450   26.7380   45.4140 C   0  0  0  0  0  0  0  0  0  0  0  0
   59.0600   27.7530   46.3340 C   0  0  0  0  0  0  0  0  0  0  0  0
   58.5170   29.0200   46.1170 C   0  0  0  0  0  0  0  0  0  0  0  0
   63.5774   33.9412   48.4347 H   0  0  0  0  0  0  0  0  0  0  0  0
   64.6118   33.3875   47.0745 H   0  0  0  0  0  0  0  0  0  0  0  0
   63.9449   35.0554   47.0745 H   0  0  0  0  0  0  0  0  0  0  0  0
   61.7410   34.3014   46.6218 H   0  0  0  0  0  0  0  0  0  0  0  0
   62.7866   33.2714   45.5736 H   0  0  0  0  0  0  0  0  0  0  0  0
   61.1390   32.5920   47.8250 H   0  0  0  0  0  0  0  0  0  0  0  0
   63.6486   31.0793   47.6129 H   0  0  0  0  0  0  0  0  0  0  0  0
   63.5034   32.5212   48.6822 H   0  0  0  0  0  0  0  0  0  0  0  0
   61.9325   29.9084   48.7827 H   0  0  0  0  0  0  0  0  0  0  0  0
   62.9192   30.6825   50.0734 H   0  0  0  0  0  0  0  0  0  0  0  0
   60.6080   32.0710   48.9120 H   0  0  0  0  0  0  0  0  0  0  0  0
   60.5343   29.9920   51.0158 H   0  0  0  0  0  0  0  0  0  0  0  0
   59.2490   31.2232   50.7606 H   0  0  0  0  0  0  0  0  0  0  0  0
   60.0029   28.8421   49.0925 H   0  0  0  0  0  0  0  0  0  0  0  0
   58.3938   29.6063   49.3743 H   0  0  0  0  0  0  0  0  0  0  0  0
   60.1080   31.3820   47.8120 H   0  0  0  0  0  0  0  0  0  0  0  0
   56.4591   33.3863   44.9899 H   0  0  0  0  0  0  0  0  0  0  0  0
   58.6513   34.2795   43.8247 H   0  0  0  0  0  0  0  0  0  0  0  0
   57.8033   35.4858   44.9360 H   0  0  0  0  0  0  0  0  0  0  0  0
   60.3415   33.9219   45.5082 H   0  0  0  0  0  0  0  0  0  0  0  0
   60.1189   35.7302   45.2397 H   0  0  0  0  0  0  0  0  0  0  0  0
   60.3959   35.5852   47.5298 H   0  0  0  0  0  0  0  0  0  0  0  0
   58.5891   35.6023   47.2999 H   0  0  0  0  0  0  0  0  0  0  0  0
   58.9872   33.4522   49.9723 H   0  0  0  0  0  0  0  0  0  0  0  0
   60.7226   33.6711   49.5635 H   0  0  0  0  0  0  0  0  0  0  0  0
   59.6147   35.0850   49.5635 H   0  0  0  0  0  0  0  0  0  0  0  0
   58.0805   32.1983   48.4362 H   0  0  0  0  0  0  0  0  0  0  0  0
   57.2964   33.7854   48.0225 H   0  0  0  0  0  0  0  0  0  0  0  0
   56.7844   28.5293   43.2186 H   0  0  0  0  0  0  0  0  0  0  0  0
   57.6737   26.2045   43.5939 H   0  0  0  0  0  0  0  0  0  0  0  0
   59.1439   25.7237   45.5627 H   0  0  0  0  0  0  0  0  0  0  0  0
   59.7131   27.5550   47.1967 H   0  0  0  0  0  0  0  0  0  0  0  0
  1  2  1  0
  2  3  1  0
  3  4  1  0
  4  5  1  0
  5  6  1  0
  6  7  1  0
  7  8  1  0
  8  9  1  0
  9 10  1  0
 10 11  2  0
 11 12  1  0
 12 13  2  0
 13 14  1  0
 14 15  1  0
 15 16  1  0
 16 17  1  0
 17 18  1  0
 17 19  1  0
 11 20  1  0
 20 21  1  0
 21 22  2  0
 22 23  1  0
 23 24  2  0
 24 25  1  0
 25 26  2  0
 26 10  1  0
 19 12  1  0
 26 21  1  0
  1 27  1  0
  1 28  1  0
  1 29  1  0
  2 30  1  0
  2 31  1  0
  3 32  1  0
  4 33  1  0
  4 34  1  0
  5 35  1  0
  5 36  1  0
  6 37  1  0
  7 38  1  0
  7 39  1  0
  8 40  1  0
  8 41  1  0
  9 42  1  0
 13 43  1  0
 14 44  1  0
 14 45  1  0
 15 46  1  0
 15 47  1  0
 16 48  1  0
 16 49  1  0
 18 50  1  0
 18 51  1  0
 18 52  1  0
 19 53  1  0
 19 54  1  0
 22 55  1  0
 23 56  1  0
 24 57  1  0
 25 58  1  0
M  CHG  1  20  -1
M  END
>  <UniqueID>  (23) 
23

>  <SMILES>  (23) 
CCNCCNCCNc1c(C2=CCCCN(C)C2)[n-]c2ccccc12

>  <Energy>  (23) 
98.08558047688902

>  <Genealogy>  (23) 
CCNCCNCCNc1c(C2=CCCCN(C)C2)[n-]c2ccccc12 (protonated)
CCNCCNCCNc1c(C2=CCCCN(C)C2)[n-]c2ccccc12 (3D coordinates assigned)
CCNCCNCCNc1c(C2=CCCCN(C)C2)[n-]c2ccccc12 (nonaromatic ring conformer: 98.08558047688902 kcal/mol)

>  <smiles>  (23) 
CCNCCNCCNc1c(C2=CCCCN(C)C2)[nH]c2ccccc12

>  <score_type>  (23) 
oracle

>  <origin>  (23) 
adg

>  <m_score__min__energy>  (23) 
-5.9800000000000004

>  <m_primary>  (23) 
energy

$$$$
23:0
     RDKit          3D

 53 56  0  0  0  0  0  0  0  0999 V2000
   63.2580   32.3260   47.4810 C   0  0  0  0  0  0  0  0  0  0  0  0
   62.5020   33.5740   47.0070 C   0  0  0  0  0  0  0  0  0  0  0  0
   61.1680   33.7130   47.6600 N   0  0  0  0  0  0  0  0  0  0  0  0
   61.2590   34.1550   49.0770 C   0  0  0  0  0  0  0  0  0  0  0  0
   59.9780   33.8790   49.8700 C   0  0  0  0  0  0  0  0  0  0  0  0
   60.2400   34.5770   46.8790 C   0  0  0  0  0  0  0  0  0  0  0  0
   59.6240   33.9340   45.6110 C   0  0  0  0  0  0  0  0  0  0  0  0
   58.4780   33.0840   45.9290 N   0  0  0  0  0  0  0  0  0  0  0  0
   58.5780   31.6510   45.8820 C   0  0  0  0  0  0  0  0  0  0  0  0
   57.9740   30.8780   44.8600 C   0  0  0  0  0  0  0  0  0  0  0  0
   57.2990   31.4950   43.7860 C   0  0  0  0  0  0  0  0  0  0  0  0
   56.6630   30.7300   42.8120 C   0  0  0  0  0  0  0  0  0  0  0  0
   56.6800   29.3410   42.8890 C   0  0  0  0  0  0  0  0  0  0  0  0
   57.3650   28.7000   43.9210 C   0  0  0  0  0  0  0  0  0  0  0  0
   58.0620   29.4420   44.9060 C   0  0  0  0  0  0  0  0  0  0  0  0
   58.7970   28.8170   45.9040 N   0  0  0  0  0  0  0  0  0  0  0  0
   59.1350   27.3850   45.8410 C   0  0  0  0  0  0  0  0  0  0  0  0
   59.2710   29.5900   46.9310 C   0  0  0  0  0  0  0  0  0  0  0  0
   59.1960   30.9640   46.9180 C   0  0  0  0  0  0  0  0  0  0  0  0
   59.7390   31.4830   47.9960 O   0  0  0  0  0  0  0  0  0  0  0  0
   60.1560   30.4820   48.7360 C   0  0  0  0  0  0  0  0  0  0  0  0
   60.7680   30.5700   49.9830 C   0  0  0  0  0  0  0  0  0  0  0  0
   61.0850   29.3750   50.6480 C   0  0  0  0  0  0  0  0  0  0  0  0
   60.7690   28.1270   50.0670 C   0  0  0  0  0  0  0  0  0  0  0  0
   61.1630   26.5160   51.0130 Br  0  0  0  0  0  0  0  0  0  0  0  0
   60.1490   28.0620   48.8050 C   0  0  0  0  0  0  0  0  0  0  0  0
   59.8830   29.2660   48.1390 C   0  0  0  0  0  0  0  0  0  0  0  0
   63.2727   32.3018   48.5806 H   0  0  0  0  0  0  0  0  0  0  0  0
   62.7535   31.4254   47.1011 H   0  0  0  0  0  0  0  0  0  0  0  0
   64.2899   32.3560   47.1011 H   0  0  0  0  0  0  0  0  0  0  0  0
   63.1051   34.4632   47.2428 H   0  0  0  0  0  0  0  0  0  0  0  0
   62.3366   33.4748   45.9240 H   0  0  0  0  0  0  0  0  0  0  0  0
   60.6980   32.7740   47.6680 H   0  0  0  0  0  0  0  0  0  0  0  0
   62.0918   33.6215   49.5584 H   0  0  0  0  0  0  0  0  0  0  0  0
   61.4178   35.2435   49.0741 H   0  0  0  0  0  0  0  0  0  0  0  0
   60.1962   33.9260   50.9471 H   0  0  0  0  0  0  0  0  0  0  0  0
   59.2197   34.6344   49.6162 H   0  0  0  0  0  0  0  0  0  0  0  0
   59.5981   32.8784   49.6162 H   0  0  0  0  0  0  0  0  0  0  0  0
   59.4140   34.8713   47.5431 H   0  0  0  0  0  0  0  0  0  0  0  0
   60.8487   35.4200   46.5201 H   0  0  0  0  0  0  0  0  0  0  0  0
   59.2950   34.7339   44.9314 H   0  0  0  0  0  0  0  0  0  0  0  0
   60.3940   33.3042   45.1414 H   0  0  0  0  0  0  0  0  0  0  0  0
   57.5290   33.5170   45.8870 H   0  0  0  0  0  0  0  0  0  0  0  0
   57.2749   32.5926   43.7173 H   0  0  0  0  0  0  0  0  0  0  0  0
   56.1448   31.2259   41.9780 H   0  0  0  0  0  0  0  0  0  0  0  0
   56.1501   28.7449   42.1315 H   0  0  0  0  0  0  0  0  0  0  0  0
   57.3640   27.6011   43.9708 H   0  0  0  0  0  0  0  0  0  0  0  0
   59.2293   26.9853   46.8615 H   0  0  0  0  0  0  0  0  0  0  0  0
   58.3399   26.8437   45.3072 H   0  0  0  0  0  0  0  0  0  0  0  0
   60.0882   27.2564   45.3072 H   0  0  0  0  0  0  0  0  0  0  0  0
   60.9965   31.5469   50.4340 H   0  0  0  0  0  0  0  0  0  0  0  0
   61.5829   29.4108   51.6282 H   0  0  0  0  0  0  0  0  0  0  0  0
   59.8812   27.0947   48.3548 H   0  0  0  0  0  0  0  0  0  0  0  0
  1  2  1  0
  2  3  1  0
  3  4  1  0
  4  5  1  0
  3  6  1  0
  6  7  1  0
  7  8  1  0
  8  9  1  0
  9 10  2  0
 10 11  1  0
 11 12  2  0
 12 13  1  0
 13 14  2  0
 14 15  1  0
 15 16  2  0
 16 17  1  0
 16 18  1  0
 18 19  2  0
 19 20  1  0
 20 21  1  0
 21 22  2  0
 22 23  1  0
 23 24  2  0
 24 25  1  0
 24 26  1  0
 26 27  2  0
 19  9  1  0
 27 21  1  0
 15 10  1  0
 27 18  1  0
  1 28  1  0
  1 29  1  0
  1 30  1  0
  2 31  1  0
  2 32  1  0
  3 33  1  0
  4 34  1  0
  4 35  1  0
  5 36  1  0
  5 37  1  0
  5 38  1  0
  6 39  1  0
  6 40  1  0
  7 41  1  0
  7 42  1  0
  8 43  1  0
 11 44  1  0
 12 45  1  0
 13 46  1  0
 14 47  1  0
 17 48  1  0
 17 49  1  0
 17 50  1  0
 22 51  1  0
 23 52  1  0
 26 53  1  0
M  CHG  2   3   1  16   1
M  END
>  <UniqueID>  (24) 
24

>  <SMILES>  (24) 
CC[NH+](CC)CCNc1c2ccccc2[n+](C)c2c1oc1ccc(Br)cc12

>  <Energy>  (24) 
121.30359533565144

>  <Genealogy>  (24) 
CC[NH+](CC)CCNc1c2ccccc2[n+](C)c2c1oc1ccc(Br)cc12 (protonated)
CC[NH+](CC)CCNc1c2ccccc2[n+](C)c2c1oc1ccc(Br)cc12 (3D coordinates assigned)
CC[NH+](CC)CCNc1c2ccccc2[n+](C)c2c1oc1ccc(Br)cc12 (optimized conformer: 121.30359533565144 kcal/mol)

>  <smiles>  (24) 
CCN(CC)CCNc1c2ccccc2[n+](C)c2c1oc1ccc(Br)cc12

>  <score_type>  (24) 
oracle

>  <origin>  (24) 
adg

>  <m_score__min__energy>  (24) 
-5.3700000000000001

>  <m_primary>  (24) 
energy

$$$$
24:0
     RDKit          3D

 59 62  0  0  0  0  0  0  0  0999 V2000
   59.6420   35.2270   45.8810 C   0  0  0  0  0  0  0  0  0  0  0  0
   59.2330   34.1890   44.8430 C   0  0  0  0  0  0  0  0  0  0  0  0
   58.6160   33.0220   45.5100 N   0  0  0  0  0  0  0  0  0  0  0  0
   57.4710   33.4020   46.3530 C   0  0  0  0  0  0  0  0  0  0  0  0
   58.3100   31.9070   44.5800 C   0  0  0  0  0  0  0  0  0  0  0  0
   56.8120   31.5390   44.4920 C   0  0  0  0  0  0  0  0  0  0  0  0
   56.6210   30.1850   44.8630 O   0  0  0  0  0  0  0  0  0  0  0  0
   57.0700   29.3010   43.8510 C   0  0  0  0  0  0  0  0  0  0  0  0
   57.7040   28.0510   44.4700 C   0  0  0  0  0  0  0  0  0  0  0  0
   59.0970   28.2950   44.8460 N   0  0  0  0  0  0  0  0  0  0  0  0
   59.4420   29.1110   45.9740 C   0  0  0  0  0  0  0  0  0  0  0  0
   58.6770   29.3160   47.0990 C   0  0  0  0  0  0  0  0  0  0  0  0
   59.3300   30.1670   47.9130 N   0  0  0  0  0  0  0  0  0  0  0  0
   60.4870   30.4880   47.3440 N   0  0  0  0  0  0  0  0  0  0  0  0
   61.4220   31.4850   47.9010 C   0  0  2  0  0  0  0  0  0  0  0  0
   60.8380   32.9200   47.7390 C   0  0  0  0  0  0  0  0  0  0  0  0
   61.8240   33.9680   48.2970 C   0  0  1  0  0  0  0  0  0  0  0  0
   62.0670   33.6960   49.7960 C   0  0  0  0  0  0  0  0  0  0  0  0
   62.6640   32.2840   49.9730 C   0  0  2  0  0  0  0  0  0  0  0  0
   64.0020   32.1890   49.2050 C   0  0  0  0  0  0  0  0  0  0  0  0
   63.7580   32.4590   47.7030 C   0  0  2  0  0  0  0  0  0  0  0  0
   63.1600   33.8730   47.5300 C   0  0  0  0  0  0  0  0  0  0  0  0
   62.7720   31.4080   47.1420 C   0  0  0  0  0  0  0  0  0  0  0  0
   61.6800   31.2320   49.4170 C   0  0  0  0  0  0  0  0  0  0  0  0
   60.5760   29.8760   46.1400 C   0  0  0  0  0  0  0  0  0  0  0  0
   59.4814   34.8195   46.8900 H   0  0  0  0  0  0  0  0  0  0  0  0
   60.7055   35.4761   45.7511 H   0  0  0  0  0  0  0  0  0  0  0  0
   59.0343   36.1346   45.7511 H   0  0  0  0  0  0  0  0  0  0  0  0
   58.5080   34.6361   44.1469 H   0  0  0  0  0  0  0  0  0  0  0  0
   60.1256   33.8591   44.2913 H   0  0  0  0  0  0  0  0  0  0  0  0
   57.7495   33.3096   47.4131 H   0  0  0  0  0  0  0  0  0  0  0  0
   57.1867   34.4427   46.1380 H   0  0  0  0  0  0  0  0  0  0  0  0
   56.6209   32.7378   46.1380 H   0  0  0  0  0  0  0  0  0  0  0  0
   58.6529   32.1939   43.5750 H   0  0  0  0  0  0  0  0  0  0  0  0
   58.8275   31.0199   44.9741 H   0  0  0  0  0  0  0  0  0  0  0  0
   56.2377   32.1867   45.1707 H   0  0  0  0  0  0  0  0  0  0  0  0
   56.4664   31.6812   43.4574 H   0  0  0  0  0  0  0  0  0  0  0  0
   56.2150   29.0016   43.2270 H   0  0  0  0  0  0  0  0  0  0  0  0
   57.8253   29.8162   43.2393 H   0  0  0  0  0  0  0  0  0  0  0  0
   57.1347   27.7668   45.3673 H   0  0  0  0  0  0  0  0  0  0  0  0
   57.6810   27.2430   43.7240 H   0  0  0  0  0  0  0  0  0  0  0  0
   59.8740   27.9000   44.2680 H   0  0  0  0  0  0  0  0  0  0  0  0
   57.6960   28.8608   47.2999 H   0  0  0  0  0  0  0  0  0  0  0  0
   60.6608   33.1209   46.6721 H   0  0  0  0  0  0  0  0  0  0  0  0
   59.8929   32.9859   48.2980 H   0  0  0  0  0  0  0  0  0  0  0  0
   61.4016   34.9760   48.1726 H   0  0  0  0  0  0  0  0  0  0  0  0
   62.7686   34.4433   50.1951 H   0  0  0  0  0  0  0  0  0  0  0  0
   61.1129   33.7612   50.3396 H   0  0  0  0  0  0  0  0  0  0  0  0
   62.8384   32.0945   51.0424 H   0  0  0  0  0  0  0  0  0  0  0  0
   64.7056   32.9358   49.6016 H   0  0  0  0  0  0  0  0  0  0  0  0
   64.4248   31.1813   49.3310 H   0  0  0  0  0  0  0  0  0  0  0  0
   64.7104   32.3921   47.1567 H   0  0  0  0  0  0  0  0  0  0  0  0
   63.8639   34.6192   47.9271 H   0  0  0  0  0  0  0  0  0  0  0  0
   62.9823   34.0661   46.4618 H   0  0  0  0  0  0  0  0  0  0  0  0
   62.6002   31.6043   46.0734 H   0  0  0  0  0  0  0  0  0  0  0  0
   63.2023   30.4043   47.2739 H   0  0  0  0  0  0  0  0  0  0  0  0
   62.1084   30.2276   49.5501 H   0  0  0  0  0  0  0  0  0  0  0  0
   60.7271   31.3088   49.9611 H   0  0  0  0  0  0  0  0  0  0  0  0
   61.4046   29.9721   45.4230 H   0  0  0  0  0  0  0  0  0  0  0  0
  1  2  1  0
  2  3  1  0
  3  4  1  0
  3  5  1  0
  5  6  1  0
  6  7  1  0
  7  8  1  0
  8  9  1  0
  9 10  1  0
 10 11  1  0
 11 12  1  0
 12 13  2  0
 13 14  1  0
 15 14  1  6
 15 16  1  0
 16 17  1  0
 17 18  1  0
 18 19  1  0
 19 20  1  0
 20 21  1  0
 21 22  1  0
 21 23  1  0
 19 24  1  0
 14 25  1  0
 25 11  2  0
 23 15  1  0
 24 15  1  0
 22 17  1  0
  1 26  1  0
  1 27  1  0
  1 28  1  0
  2 29  1  0
  2 30  1  0
  4 31  1  0
  4 32  1  0
  4 33  1  0
  5 34  1  0
  5 35  1  0
  6 36  1  0
  6 37  1  0
  8 38  1  0
  8 39  1  0
  9 40  1  0
  9 41  1  0
 10 42  1  0
 12 43  1  0
 16 44  1  0
 16 45  1  0
 17 46  1  1
 18 47  1  0
 18 48  1  0
 19 49  1  1
 20 50  1  0
 20 51  1  0
 21 52  1  6
 22 53  1  0
 22 54  1  0
 23 55  1  0
 23 56  1  0
 24 57  1  0
 24 58  1  0
 25 59  1  0
M  END
>  <UniqueID>  (25) 
25

>  <SMILES>  (25) 
CCN(C)CCOCCNc1cnn(C23CC4CC(CC(C4)C2)C3)c1

>  <Energy>  (25) 
91.16273994750055

>  <Genealogy>  (25) 
CCN(C)CCOCCNc1cnn(C23CC4CC(CC(C4)C2)C3)c1 (3D coordinates assigned)
CCN(C)CCOCCNc1cnn(C23CC4CC(CC(C4)C2)C3)c1 (nonaromatic ring conformer: 91.16273994750055 kcal/mol)

>  <smiles>  (25) 
CCN(C)CCOCCNc1cnn(C23CC4CC(CC(C4)C2)C3)c1

>  <score_type>  (25) 
oracle

>  <origin>  (25) 
adg

>  <m_score__min__energy>  (25) 
-8.5

>  <m_primary>  (25) 
energy

$$$$
25:0
     RDKit          3D

 64 66  0  0  0  0  0  0  0  0999 V2000
   62.2740   33.8220   51.2350 C   0  0  0  0  0  0  0  0  0  0  0  0
   63.5860   33.0290   51.1930 C   0  0  0  0  0  0  0  0  0  0  0  0
   64.1910   32.9490   49.8370 N   0  0  0  0  0  0  0  0  0  0  0  0
   65.6810   33.0210   49.8520 C   0  0  0  0  0  0  0  0  0  0  0  0
   66.3740   31.8550   50.5730 C   0  0  0  0  0  0  0  0  0  0  0  0
   63.6530   31.7450   49.1450 C   0  0  0  0  0  0  0  0  0  0  0  0
   62.4630   32.0080   48.2010 C   0  0  0  0  0  0  0  0  0  0  0  0
   62.1500   33.4390   48.0960 N   0  0  0  0  0  0  0  0  0  0  0  0
   62.2460   33.8790   46.6960 C   0  0  0  0  0  0  0  0  0  0  0  0
   60.8990   33.7060   45.9890 C   0  0  0  0  0  0  0  0  0  0  0  0
   60.0210   34.9620   46.1360 C   0  0  0  0  0  0  0  0  0  0  0  0
   59.1480   34.9220   47.4010 C   0  0  0  0  0  0  0  0  0  0  0  0
   58.1090   33.8920   47.3150 N   0  0  0  0  0  0  0  0  0  0  0  0
   58.4140   32.4880   47.2550 C   0  0  0  0  0  0  0  0  0  0  0  0
   58.2050   31.7610   46.0710 C   0  0  0  0  0  0  0  0  0  0  0  0
   57.5530   32.3490   44.9660 C   0  0  0  0  0  0  0  0  0  0  0  0
   57.3140   31.6140   43.8080 C   0  0  0  0  0  0  0  0  0  0  0  0
   57.6920   30.2790   43.7380 C   0  0  0  0  0  0  0  0  0  0  0  0
   58.3250   29.6710   44.8230 C   0  0  0  0  0  0  0  0  0  0  0  0
   58.6160   30.4020   46.0040 C   0  0  0  0  0  0  0  0  0  0  0  0
   59.2540   29.8160   47.0830 N   0  0  0  0  0  0  0  0  0  0  0  0
   59.9180   28.5000   46.9290 C   0  0  0  0  0  0  0  0  0  0  0  0
   59.2690   30.4590   48.3070 C   0  0  0  0  0  0  0  0  0  0  0  0
   59.6540   29.7910   49.4980 C   0  0  0  0  0  0  0  0  0  0  0  0
   59.7000   30.4640   50.7180 C   0  0  0  0  0  0  0  0  0  0  0  0
   59.3640   31.8120   50.7870 C   0  0  0  0  0  0  0  0  0  0  0  0
   58.9560   32.4890   49.6420 C   0  0  0  0  0  0  0  0  0  0  0  0
   58.8780   31.8220   48.4010 C   0  0  0  0  0  0  0  0  0  0  0  0
   61.9846   33.9969   52.2817 H   0  0  0  0  0  0  0  0  0  0  0  0
   62.4127   34.7876   50.7267 H   0  0  0  0  0  0  0  0  0  0  0  0
   61.4836   33.2503   50.7267 H   0  0  0  0  0  0  0  0  0  0  0  0
   64.3071   33.5141   51.8673 H   0  0  0  0  0  0  0  0  0  0  0  0
   63.3505   31.9999   51.5020 H   0  0  0  0  0  0  0  0  0  0  0  0
   63.8520   33.7850   49.3040 H   0  0  0  0  0  0  0  0  0  0  0  0
   66.0335   33.0374   48.8101 H   0  0  0  0  0  0  0  0  0  0  0  0
   65.9419   33.9310   50.4122 H   0  0  0  0  0  0  0  0  0  0  0  0
   66.2907   31.9951   51.6609 H   0  0  0  0  0  0  0  0  0  0  0  0
   65.8917   30.9086   50.2872 H   0  0  0  0  0  0  0  0  0  0  0  0
   67.4358   31.8263   50.2872 H   0  0  0  0  0  0  0  0  0  0  0  0
   64.4663   31.3014   48.5520 H   0  0  0  0  0  0  0  0  0  0  0  0
   63.2742   31.0815   49.9364 H   0  0  0  0  0  0  0  0  0  0  0  0
   62.7119   31.6245   47.2005 H   0  0  0  0  0  0  0  0  0  0  0  0
   61.5814   31.4968   48.6150 H   0  0  0  0  0  0  0  0  0  0  0  0
   61.1640   33.5920   48.4120 H   0  0  0  0  0  0  0  0  0  0  0  0
   62.5363   34.9396   46.6684 H   0  0  0  0  0  0  0  0  0  0  0  0
   63.0009   33.2672   46.1805 H   0  0  0  0  0  0  0  0  0  0  0  0
   61.0776   33.5175   44.9201 H   0  0  0  0  0  0  0  0  0  0  0  0
   60.3715   32.8592   46.4523 H   0  0  0  0  0  0  0  0  0  0  0  0
   60.6741   35.8458   46.1853 H   0  0  0  0  0  0  0  0  0  0  0  0
   59.3492   35.0053   45.2661 H   0  0  0  0  0  0  0  0  0  0  0  0
   59.7891   34.7089   48.2691 H   0  0  0  0  0  0  0  0  0  0  0  0
   58.6525   35.8986   47.5045 H   0  0  0  0  0  0  0  0  0  0  0  0
   57.1090   34.1810   47.3860 H   0  0  0  0  0  0  0  0  0  0  0  0
   57.2302   33.3992   45.0203 H   0  0  0  0  0  0  0  0  0  0  0  0
   56.8246   32.0915   42.9463 H   0  0  0  0  0  0  0  0  0  0  0  0
   57.4918   29.6995   42.8247 H   0  0  0  0  0  0  0  0  0  0  0  0
   58.6027   28.6084   44.7618 H   0  0  0  0  0  0  0  0  0  0  0  0
   60.1308   28.0782   47.9224 H   0  0  0  0  0  0  0  0  0  0  0  0
   59.2561   27.8179   46.3752 H   0  0  0  0  0  0  0  0  0  0  0  0
   60.8599   28.6271   46.3752 H   0  0  0  0  0  0  0  0  0  0  0  0
   59.9206   28.7245   49.4581 H   0  0  0  0  0  0  0  0  0  0  0  0
   60.0030   29.9272   51.6291 H   0  0  0  0  0  0  0  0  0  0  0  0
   59.4209   32.3436   51.7483 H   0  0  0  0  0  0  0  0  0  0  0  0
   58.6916   33.5549   49.7048 H   0  0  0  0  0  0  0  0  0  0  0  0
  1  2  1  0
  2  3  1  0
  3  4  1  0
  4  5  1  0
  3  6  1  0
  6  7  1  0
  7  8  1  0
  8  9  1  0
  9 10  1  0
 10 11  1  0
 11 12  1  0
 12 13  1  0
 13 14  1  0
 14 15  2  0
 15 16  1  0
 16 17  2  0
 17 18  1  0
 18 19  2  0
 19 20  1  0
 20 21  2  0
 21 22  1  0
 21 23  1  0
 23 24  2  0
 24 25  1  0
 25 26  2  0
 26 27  1  0
 27 28  2  0
 28 14  1  0
 20 15  1  0
 28 23  1  0
  1 29  1  0
  1 30  1  0
  1 31  1  0
  2 32  1  0
  2 33  1  0
  3 34  1  0
  4 35  1  0
  4 36  1  0
  5 37  1  0
  5 38  1  0
  5 39  1  0
  6 40  1  0
  6 41  1  0
  7 42  1  0
  7 43  1  0
  8 44  1  0
  9 45  1  0
  9 46  1  0
 10 47  1  0
 10 48  1  0
 11 49  1  0
 11 50  1  0
 12 51  1  0
 12 52  1  0
 13 53  1  0
 16 54  1  0
 17 55  1  0
 18 56  1  0
 19 57  1  0
 22 58  1  0
 22 59  1  0
 22 60  1  0
 24 61  1  0
 25 62  1  0
 26 63  1  0
 27 64  1  0
M  CHG  2   3   1  21   1
M  END
>  <UniqueID>  (26) 
26

>  <SMILES>  (26) 
CC[NH+](CC)CCNCCCCNc1c2ccccc2[n+](C)c2ccccc12

>  <Energy>  (26) 
84.28369677603689

>  <Genealogy>  (26) 
CC[NH+](CC)CCNCCCCNc1c2ccccc2[n+](C)c2ccccc12 (protonated)
CC[NH+](CC)CCNCCCCNc1c2ccccc2[n+](C)c2ccccc12 (3D coordinates assigned)
CC[NH+](CC)CCNCCCCNc1c2ccccc2[n+](C)c2ccccc12 (optimized conformer: 84.28369677603689 kcal/mol)

>  <smiles>  (26) 
CCN(CC)CCNCCCCNc1c2ccccc2[n+](C)c2ccccc12

>  <score_type>  (26) 
oracle

>  <origin>  (26) 
adg

>  <m_score__min__energy>  (26) 
-4.5199999999999996

>  <m_primary>  (26) 
energy

$$$$
26:0
     RDKit          3D

 31 33  0  0  0  0  0  0  0  0999 V2000
   55.9290   29.7890   42.9470 C   0  0  0  0  0  0  0  0  0  0  0  0
   56.8570   29.8730   44.0970 C   0  0  0  0  0  0  0  0  0  0  0  0
   56.8870   30.8860   45.0100 N   0  0  0  0  0  0  0  0  0  0  0  0
   57.8350   30.6430   45.9000 N   0  0  0  0  0  0  0  0  0  0  0  0
   58.1490   31.5270   47.0310 C   0  0  0  0  0  0  0  0  0  0  0  0
   58.6450   32.8260   46.5140 C   0  0  0  0  0  0  0  0  0  0  0  0
   59.1760   33.7570   47.4010 C   0  0  0  0  0  0  0  0  0  0  0  0
   59.6530   34.9920   46.9510 C   0  0  0  0  0  0  0  0  0  0  0  0
   59.6080   35.3180   45.6080 C   0  0  0  0  0  0  0  0  0  0  0  0
   59.0830   34.4010   44.7210 C   0  0  0  0  0  0  0  0  0  0  0  0
   58.6160   33.1820   45.1860 C   0  0  0  0  0  0  0  0  0  0  0  0
   58.4570   29.4860   45.6180 C   0  0  0  0  0  0  0  0  0  0  0  0
   59.4640   28.8310   46.2200 N   0  0  0  0  0  0  0  0  0  0  0  0
   59.8560   27.6740   45.6710 C   0  0  0  0  0  0  0  0  0  0  0  0
   59.2720   27.1790   44.5640 N   0  0  0  0  0  0  0  0  0  0  0  0
   58.2450   27.8200   43.9290 C   0  0  0  0  0  0  0  0  0  0  0  0
   57.7750   27.2610   42.8980 N   0  0  0  0  0  0  0  0  0  0  0  0
   57.8420   29.0040   44.4870 C   0  0  0  0  0  0  0  0  0  0  0  0
   54.8966   29.6956   43.3150 H   0  0  0  0  0  0  0  0  0  0  0  0
   56.0194   30.6990   42.3357 H   0  0  0  0  0  0  0  0  0  0  0  0
   56.1813   28.9100   42.3357 H   0  0  0  0  0  0  0  0  0  0  0  0
   57.2421   31.6924   47.6311 H   0  0  0  0  0  0  0  0  0  0  0  0
   58.9219   31.0610   47.6598 H   0  0  0  0  0  0  0  0  0  0  0  0
   59.2213   33.5177   48.4737 H   0  0  0  0  0  0  0  0  0  0  0  0
   60.0681   35.7112   47.6724 H   0  0  0  0  0  0  0  0  0  0  0  0
   59.9834   36.2894   45.2538 H   0  0  0  0  0  0  0  0  0  0  0  0
   59.0352   34.6368   43.6476 H   0  0  0  0  0  0  0  0  0  0  0  0
   58.2032   32.4664   44.4597 H   0  0  0  0  0  0  0  0  0  0  0  0
   59.9460   29.1690   47.0710 H   0  0  0  0  0  0  0  0  0  0  0  0
   60.6785   27.1124   46.1380 H   0  0  0  0  0  0  0  0  0  0  0  0
   56.8120   27.1200   42.6180 H   0  0  0  0  0  0  0  0  0  0  0  0
  1  2  1  0
  2  3  2  0
  3  4  1  0
  4  5  1  0
  5  6  1  0
  6  7  2  0
  7  8  1  0
  8  9  2  0
  9 10  1  0
 10 11  2  0
  4 12  1  0
 12 13  1  0
 13 14  1  0
 14 15  2  0
 15 16  1  0
 16 17  2  3
 16 18  1  0
 18  2  1  0
 11  6  1  0
 18 12  2  0
  1 19  1  0
  1 20  1  0
  1 21  1  0
  5 22  1  0
  5 23  1  0
  7 24  1  0
  8 25  1  0
  9 26  1  0
 10 27  1  0
 11 28  1  0
 13 29  1  0
 14 30  1  0
 17 31  1  0
M  END
>  <smiles>  (27) 
Cc1nn(Cc2ccccc2)c2[nH]cnc(=N)c12

>  <score_type>  (27) 
oracle

>  <origin>  (27) 
adg

>  <m_score__min__energy>  (27) 
-6.71

>  <m_primary>  (27) 
energy

$$$$
27:0
     RDKit          3D

 46 47  0  0  0  0  0  0  0  0999 V2000
   64.5750   33.0920   49.2530 C   0  0  0  0  0  0  0  0  0  0  0  0
   63.7230   33.6710   48.1290 C   0  0  0  0  0  0  0  0  0  0  0  0
   62.6610   32.7360   47.7510 N   0  0  0  0  0  0  0  0  0  0  0  0
   62.8290   31.4290   47.4710 C   0  0  0  0  0  0  0  0  0  0  0  0
   61.5900   30.8720   47.2330 C   0  0  0  0  0  0  0  0  0  0  0  0
   60.6540   31.8280   47.3720 N   0  0  0  0  0  0  0  0  0  0  0  0
   61.3260   32.9550   47.6800 C   0  0  0  0  0  0  0  0  0  0  0  0
   60.6440   34.2520   48.0220 C   0  0  0  0  0  0  0  0  0  0  0  0
   59.5960   34.5660   47.0380 N   0  0  0  0  0  0  0  0  0  0  0  0
   59.7230   35.7760   46.2160 C   0  0  0  0  0  0  0  0  0  0  0  0
   58.4220   33.7370   46.8660 C   0  0  0  0  0  0  0  0  0  0  0  0
   58.0000   33.0520   47.8390 O   0  0  0  0  0  0  0  0  0  0  0  0
   57.6400   33.6770   45.5770 C   0  0  0  0  0  0  0  0  0  0  0  0
   58.4550   33.0360   44.4430 C   0  0  0  0  0  0  0  0  0  0  0  0
   57.8520   31.7290   43.9880 C   0  0  0  0  0  0  0  0  0  0  0  0
   57.2660   31.6540   42.7120 C   0  0  0  0  0  0  0  0  0  0  0  0
   56.6380   30.4820   42.2890 C   0  0  0  0  0  0  0  0  0  0  0  0
   56.5890   29.3720   43.1320 C   0  0  0  0  0  0  0  0  0  0  0  0
   57.1700   29.4290   44.4010 C   0  0  0  0  0  0  0  0  0  0  0  0
   57.8030   30.6080   44.8450 C   0  0  0  0  0  0  0  0  0  0  0  0
   58.3820   30.6990   46.1210 O   0  0  0  0  0  0  0  0  0  0  0  0
   58.5450   29.6030   47.0150 C   0  0  0  0  0  0  0  0  0  0  0  0
   64.1475   33.3825   50.2240 H   0  0  0  0  0  0  0  0  0  0  0  0
   64.5913   31.9950   49.1730 H   0  0  0  0  0  0  0  0  0  0  0  0
   65.6009   33.4807   49.1730 H   0  0  0  0  0  0  0  0  0  0  0  0
   63.2700   34.6142   48.4683 H   0  0  0  0  0  0  0  0  0  0  0  0
   64.3653   33.8496   47.2540 H   0  0  0  0  0  0  0  0  0  0  0  0
   63.7910   30.8965   47.4378 H   0  0  0  0  0  0  0  0  0  0  0  0
   61.3989   29.8205   46.9727 H   0  0  0  0  0  0  0  0  0  0  0  0
   59.6210   31.7060   47.2840 H   0  0  0  0  0  0  0  0  0  0  0  0
   60.1885   34.1679   49.0197 H   0  0  0  0  0  0  0  0  0  0  0  0
   61.3924   35.0581   48.0098 H   0  0  0  0  0  0  0  0  0  0  0  0
   59.8153   36.6556   46.8701 H   0  0  0  0  0  0  0  0  0  0  0  0
   60.6177   35.6957   45.5811 H   0  0  0  0  0  0  0  0  0  0  0  0
   58.8312   35.8832   45.5811 H   0  0  0  0  0  0  0  0  0  0  0  0
   56.7292   33.0823   45.7407 H   0  0  0  0  0  0  0  0  0  0  0  0
   57.3925   34.7067   45.2796 H   0  0  0  0  0  0  0  0  0  0  0  0
   58.4853   33.7301   43.5901 H   0  0  0  0  0  0  0  0  0  0  0  0
   59.4669   32.8315   44.8229 H   0  0  0  0  0  0  0  0  0  0  0  0
   57.3029   32.5258   42.0423 H   0  0  0  0  0  0  0  0  0  0  0  0
   56.1811   30.4335   41.2896 H   0  0  0  0  0  0  0  0  0  0  0  0
   56.0918   28.4498   42.7969 H   0  0  0  0  0  0  0  0  0  0  0  0
   57.1334   28.5479   45.0585 H   0  0  0  0  0  0  0  0  0  0  0  0
   58.4912   29.9649   48.0524 H   0  0  0  0  0  0  0  0  0  0  0  0
   57.7465   28.8666   46.8417 H   0  0  0  0  0  0  0  0  0  0  0  0
   59.5232   29.1308   46.8417 H   0  0  0  0  0  0  0  0  0  0  0  0
  1  2  1  0
  2  3  1  0
  3  4  1  0
  4  5  2  0
  5  6  1  0
  6  7  2  0
  7  8  1  0
  8  9  1  0
  9 10  1  0
  9 11  1  0
 11 12  2  0
 11 13  1  0
 13 14  1  0
 14 15  1  0
 15 16  2  0
 16 17  1  0
 17 18  2  0
 18 19  1  0
 19 20  2  0
 20 21  1  0
 21 22  1  0
  7  3  1  0
 20 15  1  0
  1 23  1  0
  1 24  1  0
  1 25  1  0
  2 26  1  0
  2 27  1  0
  4 28  1  0
  5 29  1  0
  6 30  1  0
  8 31  1  0
  8 32  1  0
 10 33  1  0
 10 34  1  0
 10 35  1  0
 13 36  1  0
 13 37  1  0
 14 38  1  0
 14 39  1  0
 16 40  1  0
 17 41  1  0
 18 42  1  0
 19 43  1  0
 22 44  1  0
 22 45  1  0
 22 46  1  0
M  CHG  1   6   1
M  END
>  <UniqueID>  (28) 
27

>  <SMILES>  (28) 
CCn1cc[nH+]c1CN(C)C(=O)CCc1ccccc1OC

>  <Energy>  (28) 
63.76388482700243

>  <Genealogy>  (28) 
CCn1cc[nH+]c1CN(C)C(=O)CCc1ccccc1OC (protonated)
CCn1cc[nH+]c1CN(C)C(=O)CCc1ccccc1OC (3D coordinates assigned)
CCn1cc[nH+]c1CN(C)C(=O)CCc1ccccc1OC (optimized conformer: 63.76388482700243 kcal/mol)

>  <smiles>  (28) 
CCn1ccnc1CN(C)C(=O)CCc1ccccc1OC

>  <score_type>  (28) 
oracle

>  <origin>  (28) 
adg

>  <m_score__min__energy>  (28) 
-4.7400000000000002

>  <m_primary>  (28) 
energy

$$$$
28:0
     RDKit          3D

 58 60  0  0  0  0  0  0  0  0999 V2000
   65.9150   33.2410   50.7850 C   0  0  0  0  0  0  0  0  0  0  0  0
   65.7030   31.8350   50.2280 C   0  0  0  0  0  0  0  0  0  0  0  0
   64.2900   31.4360   50.3300 N   0  0  0  0  0  0  0  0  0  0  0  0
   63.9320   30.3650   51.2670 C   0  0  0  0  0  0  0  0  0  0  0  0
   63.2670   32.0600   49.5120 C   0  0  0  0  0  0  0  0  0  0  0  0
   61.9050   31.9260   49.8330 C   0  0  0  0  0  0  0  0  0  0  0  0
   60.9520   32.4920   49.0510 N   0  0  0  0  0  0  0  0  0  0  0  0
   61.2570   33.2110   47.9380 C   0  0  0  0  0  0  0  0  0  0  0  0
   60.1890   33.7440   47.1420 N   0  0  0  0  0  0  0  0  0  0  0  0
   60.3030   33.6830   45.6780 C   0  0  0  0  0  0  0  0  0  0  0  0
   58.9420   33.8730   44.9830 C   0  0  0  0  0  0  0  0  0  0  0  0
   57.7790   33.0900   45.6490 C   0  0  0  0  0  0  0  0  0  0  0  0
   57.5650   31.7350   45.0810 N   0  0  0  0  0  0  0  0  0  0  0  0
   57.4050   31.6300   43.6180 C   0  0  0  0  0  0  0  0  0  0  0  0
   56.7800   30.2740   43.2200 C   0  0  0  0  0  0  0  0  0  0  0  0
   56.0810   29.5970   44.4100 C   0  0  0  0  0  0  0  0  0  0  0  0
   57.0350   29.3870   45.6080 C   0  0  0  0  0  0  0  0  0  0  0  0
   58.0790   30.5230   45.7630 C   0  0  1  0  0  0  0  0  0  0  0  0
   59.4530   30.0670   45.2260 C   0  0  0  0  0  0  0  0  0  0  0  0
   57.8600   33.0240   47.1990 C   0  0  0  0  0  0  0  0  0  0  0  0
   58.8890   33.9980   47.7660 C   0  0  0  0  0  0  0  0  0  0  0  0
   62.6050   33.4080   47.5830 C   0  0  0  0  0  0  0  0  0  0  0  0
   62.9950   34.2010   46.3660 C   0  0  0  0  0  0  0  0  0  0  0  0
   63.6010   32.8110   48.3690 C   0  0  0  0  0  0  0  0  0  0  0  0
   65.9095   33.2045   51.8844 H   0  0  0  0  0  0  0  0  0  0  0  0
   66.8822   33.6317   50.4359 H   0  0  0  0  0  0  0  0  0  0  0  0
   65.1060   33.8995   50.4359 H   0  0  0  0  0  0  0  0  0  0  0  0
   66.0067   31.8171   49.1709 H   0  0  0  0  0  0  0  0  0  0  0  0
   66.3100   31.1298   50.8147 H   0  0  0  0  0  0  0  0  0  0  0  0
   64.0525   30.7255   52.2993 H   0  0  0  0  0  0  0  0  0  0  0  0
   62.8858   30.0681   51.1021 H   0  0  0  0  0  0  0  0  0  0  0  0
   64.5894   29.4986   51.1021 H   0  0  0  0  0  0  0  0  0  0  0  0
   61.6092   31.3569   50.7267 H   0  0  0  0  0  0  0  0  0  0  0  0
   60.9868   34.4765   45.3420 H   0  0  0  0  0  0  0  0  0  0  0  0
   60.6848   32.6871   45.4090 H   0  0  0  0  0  0  0  0  0  0  0  0
   58.6919   34.9441   44.9990 H   0  0  0  0  0  0  0  0  0  0  0  0
   59.0480   33.4783   43.9617 H   0  0  0  0  0  0  0  0  0  0  0  0
   56.8955   33.6957   45.3989 H   0  0  0  0  0  0  0  0  0  0  0  0
   56.7508   32.4427   43.2694 H   0  0  0  0  0  0  0  0  0  0  0  0
   58.3989   31.7054   43.1527 H   0  0  0  0  0  0  0  0  0  0  0  0
   56.0417   30.4426   42.4222 H   0  0  0  0  0  0  0  0  0  0  0  0
   57.5887   29.6122   42.8765 H   0  0  0  0  0  0  0  0  0  0  0  0
   55.2409   30.2292   44.7333 H   0  0  0  0  0  0  0  0  0  0  0  0
   55.7342   28.6073   44.0782 H   0  0  0  0  0  0  0  0  0  0  0  0
   56.4347   29.3357   46.5283 H   0  0  0  0  0  0  0  0  0  0  0  0
   57.5901   28.4552   45.4248 H   0  0  0  0  0  0  0  0  0  0  0  0
   58.2311   30.7691   46.8243 H   0  0  0  0  0  0  0  0  0  0  0  0
   60.1216   29.8451   46.0708 H   0  0  0  0  0  0  0  0  0  0  0  0
   59.3252   29.1631   44.6123 H   0  0  0  0  0  0  0  0  0  0  0  0
   59.8910   30.8679   44.6123 H   0  0  0  0  0  0  0  0  0  0  0  0
   56.8723   33.2702   47.6159 H   0  0  0  0  0  0  0  0  0  0  0  0
   58.1704   32.0060   47.4772 H   0  0  0  0  0  0  0  0  0  0  0  0
   58.5744   35.0304   47.5532 H   0  0  0  0  0  0  0  0  0  0  0  0
   58.9685   33.8588   48.8543 H   0  0  0  0  0  0  0  0  0  0  0  0
   63.4604   35.1474   46.6787 H   0  0  0  0  0  0  0  0  0  0  0  0
   63.7109   33.6214   45.7646 H   0  0  0  0  0  0  0  0  0  0  0  0
   62.0990   34.4142   45.7646 H   0  0  0  0  0  0  0  0  0  0  0  0
   64.6579   32.9311   48.0887 H   0  0  0  0  0  0  0  0  0  0  0  0
  1  2  1  0
  2  3  1  0
  3  4  1  0
  3  5  1  0
  5  6  2  0
  6  7  1  0
  7  8  2  0
  8  9  1  0
  9 10  1  0
 10 11  1  0
 11 12  1  0
 12 13  1  0
 13 14  1  0
 14 15  1  0
 15 16  1  0
 16 17  1  0
 17 18  1  0
 18 19  1  0
 12 20  1  0
 20 21  1  0
  8 22  1  0
 22 23  1  0
 22 24  2  0
 24  5  1  0
 21  9  1  0
 18 13  1  0
  1 25  1  0
  1 26  1  0
  1 27  1  0
  2 28  1  0
  2 29  1  0
  4 30  1  0
  4 31  1  0
  4 32  1  0
  6 33  1  0
 10 34  1  0
 10 35  1  0
 11 36  1  0
 11 37  1  0
 12 38  1  0
 14 39  1  0
 14 40  1  0
 15 41  1  0
 15 42  1  0
 16 43  1  0
 16 44  1  0
 17 45  1  0
 17 46  1  0
 18 47  1  1
 19 48  1  0
 19 49  1  0
 19 50  1  0
 20 51  1  0
 20 52  1  0
 21 53  1  0
 21 54  1  0
 23 55  1  0
 23 56  1  0
 23 57  1  0
 24 58  1  0
M  END
>  <UniqueID>  (29) 
28

>  <SMILES>  (29) 
CCN(C)c1cnc(N2CCC(N3CCCC[C@H]3C)CC2)c(C)c1

>  <Energy>  (29) 
84.01294142994963

>  <Genealogy>  (29) 
CCN(C)c1cnc(N2CCC(N3CCCC[C@H]3C)CC2)c(C)c1 (chirality)
CCN(C)c1cnc(N2CCC(N3CCCC[C@H]3C)CC2)c(C)c1 (3D coordinates assigned)
CCN(C)c1cnc(N2CCC(N3CCCC[C@H]3C)CC2)c(C)c1 (nonaromatic ring conformer: 84.01294142994963 kcal/mol)

>  <smiles>  (29) 
CCN(C)c1cnc(N2CCC(N3CCCCC3C)CC2)c(C)c1

>  <score_type>  (29) 
oracle

>  <origin>  (29) 
adg

>  <m_score__min__energy>  (29) 
-8.0199999999999996

>  <m_primary>  (29) 
energy

$$$$
29:0
     RDKit          3D

 44 47  0  0  0  0  0  0  0  0999 V2000
   62.8780   33.2970   47.1010 C   0  0  0  0  0  0  0  0  0  0  0  0
   61.6420   33.8940   47.4800 O   0  0  0  0  0  0  0  0  0  0  0  0
   60.4790   33.8770   46.6940 C   0  0  0  0  0  0  0  0  0  0  0  0
   60.0080   35.0200   46.0210 C   0  0  0  0  0  0  0  0  0  0  0  0
   58.8320   34.9570   45.2670 C   0  0  0  0  0  0  0  0  0  0  0  0
   58.1170   33.7610   45.1790 C   0  0  0  0  0  0  0  0  0  0  0  0
   58.6010   32.6030   45.8120 C   0  0  0  0  0  0  0  0  0  0  0  0
   59.7680   32.6750   46.5750 C   0  0  0  0  0  0  0  0  0  0  0  0
   60.1990   31.5290   47.2360 O   0  0  0  0  0  0  0  0  0  0  0  0
   60.0430   30.2380   46.6510 C   0  0  0  0  0  0  0  0  0  0  0  0
   58.6680   30.0180   45.9340 C   0  0  1  0  0  0  0  0  0  0  0  0
   57.7930   31.3290   45.9230 C   0  0  2  0  0  0  0  0  0  0  0  0
   56.7040   31.2890   45.0130 O   0  0  0  0  0  0  0  0  0  0  0  0
   57.1310   30.9300   43.7200 C   0  0  0  0  0  0  0  0  0  0  0  0
   57.6680   29.5150   43.7430 C   0  0  0  0  0  0  0  0  0  0  0  0
   58.8870   29.4730   44.5650 N   0  0  0  0  0  0  0  0  0  0  0  0
   59.5090   28.1200   44.5290 C   0  0  0  0  0  0  0  0  0  0  0  0
   58.7930   27.0750   45.3620 C   0  0  0  0  0  0  0  0  0  0  0  0
   59.1300   26.8910   46.7150 C   0  0  0  0  0  0  0  0  0  0  0  0
   58.4630   25.9350   47.4860 C   0  0  0  0  0  0  0  0  0  0  0  0
   57.4470   25.1630   46.9190 C   0  0  0  0  0  0  0  0  0  0  0  0
   57.0900   25.3510   45.5820 C   0  0  0  0  0  0  0  0  0  0  0  0
   57.7550   26.3060   44.8070 C   0  0  0  0  0  0  0  0  0  0  0  0
   63.4448   33.0232   48.0031 H   0  0  0  0  0  0  0  0  0  0  0  0
   62.6814   32.3946   46.5036 H   0  0  0  0  0  0  0  0  0  0  0  0
   63.4626   34.0120   46.5036 H   0  0  0  0  0  0  0  0  0  0  0  0
   60.5665   35.9653   46.0883 H   0  0  0  0  0  0  0  0  0  0  0  0
   58.4691   35.8526   44.7415 H   0  0  0  0  0  0  0  0  0  0  0  0
   57.1740   33.7249   44.6138 H   0  0  0  0  0  0  0  0  0  0  0  0
   60.8443   30.0959   45.9109 H   0  0  0  0  0  0  0  0  0  0  0  0
   60.0888   29.5108   47.4750 H   0  0  0  0  0  0  0  0  0  0  0  0
   58.0929   29.2758   46.5071 H   0  0  0  0  0  0  0  0  0  0  0  0
   57.3371   31.3541   46.9238 H   0  0  0  0  0  0  0  0  0  0  0  0
   56.2817   30.9890   43.0234 H   0  0  0  0  0  0  0  0  0  0  0  0
   57.9230   31.6184   43.3901 H   0  0  0  0  0  0  0  0  0  0  0  0
   56.9116   28.8415   44.1722 H   0  0  0  0  0  0  0  0  0  0  0  0
   57.9025   29.1923   42.7179 H   0  0  0  0  0  0  0  0  0  0  0  0
   59.5225   27.7760   43.4842 H   0  0  0  0  0  0  0  0  0  0  0  0
   60.5152   28.2274   44.9603 H   0  0  0  0  0  0  0  0  0  0  0  0
   59.9232   27.5031   47.1690 H   0  0  0  0  0  0  0  0  0  0  0  0
   58.7388   25.7905   48.5410 H   0  0  0  0  0  0  0  0  0  0  0  0
   56.9276   24.4065   47.5256 H   0  0  0  0  0  0  0  0  0  0  0  0
   56.2848   24.7471   45.1382 H   0  0  0  0  0  0  0  0  0  0  0  0
   57.4644   26.4566   43.7568 H   0  0  0  0  0  0  0  0  0  0  0  0
  1  2  1  0
  2  3  1  0
  3  4  2  0
  4  5  1  0
  5  6  2  0
  6  7  1  0
  7  8  2  0
  8  9  1  0
  9 10  1  0
 10 11  1  0
 11 12  1  0
 12 13  1  0
 13 14  1  0
 14 15  1  0
 15 16  1  0
 16 17  1  0
 17 18  1  0
 18 19  2  0
 19 20  1  0
 20 21  2  0
 21 22  1  0
 22 23  2  0
  8  3  1  0
 16 11  1  0
 23 18  1  0
 12  7  1  0
  1 24  1  0
  1 25  1  0
  1 26  1  0
  4 27  1  0
  5 28  1  0
  6 29  1  0
 10 30  1  0
 10 31  1  0
 11 32  1  1
 12 33  1  1
 14 34  1  0
 14 35  1  0
 15 36  1  0
 15 37  1  0
 17 38  1  0
 17 39  1  0
 19 40  1  0
 20 41  1  0
 21 42  1  0
 22 43  1  0
 23 44  1  0
M  END
>  <UniqueID>  (30) 
29

>  <SMILES>  (30) 
COc1cccc2c1OC[C@H]1[C@@H]2OCCN1Cc1ccccc1

>  <Energy>  (30) 
70.42490814432448

>  <Genealogy>  (30) 
COc1cccc2c1OC[C@H]1[C@@H]2OCCN1Cc1ccccc1 (chirality)
COc1cccc2c1OC[C@H]1[C@@H]2OCCN1Cc1ccccc1 (3D coordinates assigned)
COc1cccc2c1OC[C@H]1[C@@H]2OCCN1Cc1ccccc1 (nonaromatic ring conformer: 70.42490814432448 kcal/mol)

>  <smiles>  (30) 
COc1cccc2c1OCC1C2OCCN1Cc1ccccc1

>  <score_type>  (30) 
oracle

>  <origin>  (30) 
adg

>  <m_score__min__energy>  (30) 
-7.2199999999999998

>  <m_primary>  (30) 
energy

$$$$
30:0
     RDKit          3D

 42 44  0  0  0  0  0  0  0  0999 V2000
   57.2940   30.8260   43.2890 C   0  0  0  0  0  0  0  0  0  0  0  0
   58.1410   30.9240   44.4920 N   0  0  0  0  0  0  0  0  0  0  0  0
   58.3500   32.1400   45.1240 C   0  0  0  0  0  0  0  0  0  0  0  0
   57.8150   33.3470   44.6100 C   0  0  0  0  0  0  0  0  0  0  0  0
   58.0130   34.5590   45.2720 C   0  0  0  0  0  0  0  0  0  0  0  0
   58.7480   34.6050   46.4520 C   0  0  0  0  0  0  0  0  0  0  0  0
   59.3040   33.4400   46.9760 C   0  0  0  0  0  0  0  0  0  0  0  0
   59.1260   32.2050   46.3230 C   0  0  0  0  0  0  0  0  0  0  0  0
   59.6890   31.0170   46.8320 C   0  0  0  0  0  0  0  0  0  0  0  0
   60.4680   31.0090   48.0390 N   0  0  0  0  0  0  0  0  0  0  0  0
   61.5820   31.9380   48.2260 C   0  0  0  0  0  0  0  0  0  0  0  0
   62.7360   31.6190   47.2570 C   0  0  0  0  0  0  0  0  0  0  0  0
   63.7830   32.6730   47.2360 N   0  0  0  0  0  0  0  0  0  0  0  0
   63.3150   33.8330   46.4550 C   0  0  0  0  0  0  0  0  0  0  0  0
   64.1340   33.1100   48.6000 C   0  0  0  0  0  0  0  0  0  0  0  0
   59.4970   29.8730   46.1290 N   0  0  0  0  0  0  0  0  0  0  0  0
   60.0110   28.6470   46.3500 C   0  0  0  0  0  0  0  0  0  0  0  0
   59.5900   27.7890   45.3510 C   0  0  0  0  0  0  0  0  0  0  0  0
   58.7970   28.5250   44.4860 C   0  0  0  0  0  0  0  0  0  0  0  0
   58.7660   29.8150   45.0050 C   0  0  0  0  0  0  0  0  0  0  0  0
   56.2429   30.7044   43.5896 H   0  0  0  0  0  0  0  0  0  0  0  0
   57.4004   31.7424   42.6900 H   0  0  0  0  0  0  0  0  0  0  0  0
   57.6069   29.9581   42.6900 H   0  0  0  0  0  0  0  0  0  0  0  0
   57.2351   33.3282   43.6755 H   0  0  0  0  0  0  0  0  0  0  0  0
   57.5852   35.4840   44.8582 H   0  0  0  0  0  0  0  0  0  0  0  0
   58.8906   35.5634   46.9726 H   0  0  0  0  0  0  0  0  0  0  0  0
   59.8870   33.4852   47.9077 H   0  0  0  0  0  0  0  0  0  0  0  0
   60.3880   30.1900   48.6820 H   0  0  0  0  0  0  0  0  0  0  0  0
   61.2300   32.9636   48.0408 H   0  0  0  0  0  0  0  0  0  0  0  0
   61.9524   31.8377   49.2569 H   0  0  0  0  0  0  0  0  0  0  0  0
   63.1997   30.6700   47.5642 H   0  0  0  0  0  0  0  0  0  0  0  0
   62.3093   31.5581   46.2450 H   0  0  0  0  0  0  0  0  0  0  0  0
   64.6500   32.3130   46.7740 H   0  0  0  0  0  0  0  0  0  0  0  0
   62.9931   34.6308   47.1405 H   0  0  0  0  0  0  0  0  0  0  0  0
   64.1343   34.2028   45.8210 H   0  0  0  0  0  0  0  0  0  0  0  0
   62.4685   33.5307   45.8210 H   0  0  0  0  0  0  0  0  0  0  0  0
   63.6206   32.4708   49.3333 H   0  0  0  0  0  0  0  0  0  0  0  0
   65.2219   33.0302   48.7421 H   0  0  0  0  0  0  0  0  0  0  0  0
   63.8214   34.1550   48.7421 H   0  0  0  0  0  0  0  0  0  0  0  0
   60.6628   28.3722   47.1924 H   0  0  0  0  0  0  0  0  0  0  0  0
   59.8384   26.7213   45.2601 H   0  0  0  0  0  0  0  0  0  0  0  0
   58.2952   28.1637   43.5762 H   0  0  0  0  0  0  0  0  0  0  0  0
  1  2  1  0
  2  3  2  0
  3  4  1  0
  4  5  2  0
  5  6  1  0
  6  7  2  0
  7  8  1  0
  8  9  2  0
  9 10  1  0
 10 11  1  0
 11 12  1  0
 12 13  1  0
 13 14  1  0
 13 15  1  0
  9 16  1  0
 16 17  1  0
 17 18  2  0
 18 19  1  0
 19 20  2  0
 20  2  1  0
  8  3  1  0
 20 16  1  0
  1 21  1  0
  1 22  1  0
  1 23  1  0
  4 24  1  0
  5 25  1  0
  6 26  1  0
  7 27  1  0
 10 28  1  0
 11 29  1  0
 11 30  1  0
 12 31  1  0
 12 32  1  0
 13 33  1  0
 14 34  1  0
 14 35  1  0
 14 36  1  0
 15 37  1  0
 15 38  1  0
 15 39  1  0
 17 40  1  0
 18 41  1  0
 19 42  1  0
M  CHG  2   2   1  13   1
M  END
>  <UniqueID>  (31) 
30

>  <SMILES>  (31) 
C[n+]1c2ccccc2c(NCC[NH+](C)C)n2cccc21

>  <Energy>  (31) 
89.1041724782016

>  <Genealogy>  (31) 
C[n+]1c2ccccc2c(NCC[NH+](C)C)n2cccc21 (protonated)
C[n+]1c2ccccc2c(NCC[NH+](C)C)n2cccc21 (3D coordinates assigned)
C[n+]1c2ccccc2c(NCC[NH+](C)C)n2cccc21 (optimized conformer: 89.1041724782016 kcal/mol)

>  <smiles>  (31) 
CN(C)CCNc1c2ccccc2[n+](C)c2cccn12

>  <score_type>  (31) 
oracle

>  <origin>  (31) 
adg

>  <m_score__min__energy>  (31) 
-3.9199999999999999

>  <m_primary>  (31) 
energy

$$$$
31:0
     RDKit          3D

 39 40  0  0  0  0  0  0  0  0999 V2000
   64.4410   32.7150   49.0260 C   0  0  0  0  0  0  0  0  0  0  0  0
   63.4490   32.0460   48.0790 C   0  0  0  0  0  0  0  0  0  0  0  0
   62.5910   33.0670   47.4380 N   0  0  0  0  0  0  0  0  0  0  0  0
   63.3180   33.8410   46.4200 C   0  0  0  0  0  0  0  0  0  0  0  0
   61.8620   33.9190   48.4080 C   0  0  0  0  0  0  0  0  0  0  0  0
   60.3840   34.1770   48.0460 C   0  0  0  0  0  0  0  0  0  0  0  0
   60.1700   34.0120   46.6050 N   0  0  0  0  0  0  0  0  0  0  0  0
   59.1890   33.1020   46.0720 C   0  0  0  0  0  0  0  0  0  0  0  0
   57.9910   33.6070   45.5420 C   0  0  0  0  0  0  0  0  0  0  0  0
   57.0580   32.7610   44.9500 C   0  0  0  0  0  0  0  0  0  0  0  0
   57.2910   31.3840   44.8610 C   0  0  0  0  0  0  0  0  0  0  0  0
   56.3370   30.5610   44.1710 N   0  0  0  0  0  0  0  0  0  0  0  0
   56.4060   30.4300   42.9310 O   0  0  0  0  0  0  0  0  0  0  0  0
   55.5170   29.7150   44.8820 O   0  0  0  0  0  0  0  0  0  0  0  0
   58.4640   30.8410   45.4370 C   0  0  0  0  0  0  0  0  0  0  0  0
   58.6980   29.4540   45.4680 C   0  0  0  0  0  0  0  0  0  0  0  0
   59.8520   28.9470   46.0570 C   0  0  0  0  0  0  0  0  0  0  0  0
   60.7640   29.8190   46.6400 C   0  0  0  0  0  0  0  0  0  0  0  0
   60.5340   31.1590   46.6350 N   0  0  0  0  0  0  0  0  0  0  0  0
   59.4220   31.7030   46.0460 C   0  0  0  0  0  0  0  0  0  0  0  0
   64.1457   32.5159   50.0668 H   0  0  0  0  0  0  0  0  0  0  0  0
   65.4484   32.3111   48.8470 H   0  0  0  0  0  0  0  0  0  0  0  0
   64.4440   33.8003   48.8470 H   0  0  0  0  0  0  0  0  0  0  0  0
   64.0012   31.4955   47.3031 H   0  0  0  0  0  0  0  0  0  0  0  0
   62.8164   31.3518   48.6516 H   0  0  0  0  0  0  0  0  0  0  0  0
   63.9906   34.5570   46.9149 H   0  0  0  0  0  0  0  0  0  0  0  0
   63.9082   33.1575   45.7919 H   0  0  0  0  0  0  0  0  0  0  0  0
   62.5989   34.3873   45.7919 H   0  0  0  0  0  0  0  0  0  0  0  0
   61.8944   33.4262   49.3909 H   0  0  0  0  0  0  0  0  0  0  0  0
   62.3619   34.8988   48.4026 H   0  0  0  0  0  0  0  0  0  0  0  0
   59.7484   33.4628   48.5901 H   0  0  0  0  0  0  0  0  0  0  0  0
   60.1244   35.2082   48.3276 H   0  0  0  0  0  0  0  0  0  0  0  0
   60.7400   34.5870   45.9460 H   0  0  0  0  0  0  0  0  0  0  0  0
   57.7870   34.6866   45.5954 H   0  0  0  0  0  0  0  0  0  0  0  0
   56.1246   33.1804   44.5465 H   0  0  0  0  0  0  0  0  0  0  0  0
   57.9638   28.7659   45.0236 H   0  0  0  0  0  0  0  0  0  0  0  0
   60.0414   27.8634   46.0613 H   0  0  0  0  0  0  0  0  0  0  0  0
   61.6771   29.4227   47.1081 H   0  0  0  0  0  0  0  0  0  0  0  0
   61.2330   31.7530   47.1310 H   0  0  0  0  0  0  0  0  0  0  0  0
  1  2  1  0
  2  3  1  0
  3  4  1  0
  3  5  1  0
  5  6  1  0
  6  7  1  0
  7  8  1  0
  8  9  2  0
  9 10  1  0
 10 11  2  0
 11 12  1  0
 12 13  2  0
 12 14  1  0
 11 15  1  0
 15 16  2  0
 16 17  1  0
 17 18  2  0
 18 19  1  0
 19 20  2  0
 20  8  1  0
 20 15  1  0
  1 21  1  0
  1 22  1  0
  1 23  1  0
  2 24  1  0
  2 25  1  0
  4 26  1  0
  4 27  1  0
  4 28  1  0
  5 29  1  0
  5 30  1  0
  6 31  1  0
  6 32  1  0
  7 33  1  0
  9 34  1  0
 10 35  1  0
 16 36  1  0
 17 37  1  0
 18 38  1  0
 19 39  1  0
M  CHG  3  12   1  14  -1  19   1
M  END
>  <UniqueID>  (32) 
31

>  <SMILES>  (32) 
CCN(C)CCNc1ccc([N+](=O)[O-])c2ccc[nH+]c12

>  <Energy>  (32) 
54.336592395189605

>  <Genealogy>  (32) 
CCN(C)CCNc1ccc([N+](=O)[O-])c2ccc[nH+]c12 (protonated)
CCN(C)CCNc1ccc([N+](=O)[O-])c2ccc[nH+]c12 (3D coordinates assigned)
CCN(C)CCNc1ccc([N+](=O)[O-])c2ccc[nH+]c12 (optimized conformer: 54.336592395189605 kcal/mol)

>  <smiles>  (32) 
CCN(C)CCNc1ccc([N+](=O)[O-])c2cccnc12

>  <score_type>  (32) 
oracle

>  <origin>  (32) 
adg

>  <m_score__min__energy>  (32) 
-4.8700000000000001

>  <m_primary>  (32) 
energy

$$$$
32:0
     RDKit          3D

 46 49  0  0  0  0  0  0  0  0999 V2000
   65.9900   32.7110   50.0170 C   0  0  0  0  0  0  0  0  0  0  0  0
   64.5900   33.1080   49.6620 C   0  0  0  0  0  0  0  0  0  0  0  0
   63.7990   33.8360   50.5890 C   0  0  0  0  0  0  0  0  0  0  0  0
   62.4690   34.1820   50.2810 C   0  0  0  0  0  0  0  0  0  0  0  0
   61.9680   33.7720   49.0510 C   0  0  0  0  0  0  0  0  0  0  0  0
   60.7810   33.9630   48.5440 O   0  0  0  0  0  0  0  0  0  0  0  0
   60.7940   33.3820   47.3540 C   0  0  0  0  0  0  0  0  0  0  0  0
   59.6270   33.3410   46.4330 C   0  0  0  0  0  0  0  0  0  0  0  0
   59.2690   34.5330   45.7840 C   0  0  0  0  0  0  0  0  0  0  0  0
   58.2290   34.5620   44.8650 C   0  0  0  0  0  0  0  0  0  0  0  0
   57.5230   33.4020   44.5730 C   0  0  0  0  0  0  0  0  0  0  0  0
   57.8260   32.1860   45.2120 C   0  0  0  0  0  0  0  0  0  0  0  0
   57.0790   31.0040   44.8250 N   0  0  0  0  0  0  0  0  0  0  0  0
   57.9270   30.0170   44.1350 C   0  0  0  0  0  0  0  0  0  0  0  0
   57.8130   28.6430   44.7590 C   0  0  0  0  0  0  0  0  0  0  0  0
   58.9360   27.7980   44.7960 C   0  0  0  0  0  0  0  0  0  0  0  0
   58.8330   26.5100   45.3280 C   0  0  0  0  0  0  0  0  0  0  0  0
   57.6110   26.0530   45.8230 C   0  0  0  0  0  0  0  0  0  0  0  0
   56.4870   26.8820   45.7850 C   0  0  0  0  0  0  0  0  0  0  0  0
   56.5810   28.1720   45.2510 C   0  0  0  0  0  0  0  0  0  0  0  0
   55.4460   28.9770   45.2130 O   0  0  0  0  0  0  0  0  0  0  0  0
   58.8810   32.1500   46.1770 C   0  0  0  0  0  0  0  0  0  0  0  0
   59.2320   30.8760   46.9190 C   0  0  0  0  0  0  0  0  0  0  0  0
   61.9870   32.7940   47.0640 N   0  0  0  0  0  0  0  0  0  0  0  0
   62.7130   33.0630   48.1620 C   0  0  0  0  0  0  0  0  0  0  0  0
   64.0300   32.7010   48.4280 C   0  0  0  0  0  0  0  0  0  0  0  0
   66.0962   32.6809   51.1114 H   0  0  0  0  0  0  0  0  0  0  0  0
   66.2059   31.7162   49.6001 H   0  0  0  0  0  0  0  0  0  0  0  0
   66.6960   33.4444   49.6001 H   0  0  0  0  0  0  0  0  0  0  0  0
   64.2289   34.1327   51.5571 H   0  0  0  0  0  0  0  0  0  0  0  0
   61.8501   34.7550   50.9871 H   0  0  0  0  0  0  0  0  0  0  0  0
   59.8209   35.4581   46.0070 H   0  0  0  0  0  0  0  0  0  0  0  0
   57.9633   35.5060   44.3668 H   0  0  0  0  0  0  0  0  0  0  0  0
   56.7131   33.4348   43.8294 H   0  0  0  0  0  0  0  0  0  0  0  0
   56.2870   31.2640   44.1920 H   0  0  0  0  0  0  0  0  0  0  0  0
   56.6220   30.5700   45.6570 H   0  0  0  0  0  0  0  0  0  0  0  0
   57.6170   29.9562   43.0813 H   0  0  0  0  0  0  0  0  0  0  0  0
   58.9732   30.3457   44.2215 H   0  0  0  0  0  0  0  0  0  0  0  0
   59.9007   28.1526   44.4041 H   0  0  0  0  0  0  0  0  0  0  0  0
   59.7165   25.8554   45.3566 H   0  0  0  0  0  0  0  0  0  0  0  0
   57.5326   25.0395   46.2434 H   0  0  0  0  0  0  0  0  0  0  0  0
   55.5250   26.5194   46.1762 H   0  0  0  0  0  0  0  0  0  0  0  0
   59.1821   31.0573   48.0028 H   0  0  0  0  0  0  0  0  0  0  0  0
   58.5185   30.0845   46.6464 H   0  0  0  0  0  0  0  0  0  0  0  0
   60.2502   30.5616   46.6464 H   0  0  0  0  0  0  0  0  0  0  0  0
   64.6164   32.1177   47.7028 H   0  0  0  0  0  0  0  0  0  0  0  0
  1  2  1  0
  2  3  2  0
  3  4  1  0
  4  5  2  0
  5  6  1  0
  6  7  1  0
  7  8  1  0
  8  9  2  0
  9 10  1  0
 10 11  2  0
 11 12  1  0
 12 13  1  0
 13 14  1  0
 14 15  1  0
 15 16  2  0
 16 17  1  0
 17 18  2  0
 18 19  1  0
 19 20  2  0
 20 21  1  0
 12 22  2  0
 22 23  1  0
  7 24  2  0
 24 25  1  0
 25 26  2  0
 26  2  1  0
 25  5  1  0
 22  8  1  0
 20 15  1  0
  1 27  1  0
  1 28  1  0
  1 29  1  0
  3 30  1  0
  4 31  1  0
  9 32  1  0
 10 33  1  0
 11 34  1  0
 13 35  1  0
 13 36  1  0
 14 37  1  0
 14 38  1  0
 16 39  1  0
 17 40  1  0
 18 41  1  0
 19 42  1  0
 23 43  1  0
 23 44  1  0
 23 45  1  0
 26 46  1  0
M  CHG  2  13   1  21  -1
M  END
>  <UniqueID>  (33) 
32

>  <SMILES>  (33) 
Cc1ccc2oc(-c3cccc([NH2+]Cc4ccccc4[O-])c3C)nc2c1

>  <Energy>  (33) 
95.6182250016023

>  <Genealogy>  (33) 
Cc1ccc2oc(-c3cccc([NH2+]Cc4ccccc4[O-])c3C)nc2c1 (protonated)
Cc1ccc2oc(-c3cccc([NH2+]Cc4ccccc4[O-])c3C)nc2c1 (3D coordinates assigned)
Cc1ccc2oc(-c3cccc([NH2+]Cc4ccccc4[O-])c3C)nc2c1 (optimized conformer: 95.6182250016023 kcal/mol)

>  <smiles>  (33) 
Cc1ccc2oc(-c3cccc(NCc4ccccc4O)c3C)nc2c1

>  <score_type>  (33) 
oracle

>  <origin>  (33) 
adg

>  <m_score__min__energy>  (33) 
-10.630000000000001

>  <m_primary>  (33) 
energy

$$$$
33:0
     RDKit          3D

 42 43  0  0  0  0  0  0  0  0999 V2000
   61.6050   30.7860   48.6940 C   0  0  0  0  0  0  0  0  0  0  0  0
   62.5340   31.1990   47.6410 N   0  0  0  0  0  0  0  0  0  0  0  0
   63.4770   32.1990   48.1560 C   0  0  0  0  0  0  0  0  0  0  0  0
   62.9180   33.6150   47.9130 C   0  0  0  0  0  0  0  0  0  0  0  0
   61.4870   33.6470   47.5400 N   0  0  0  0  0  0  0  0  0  0  0  0
   60.6120   34.2080   48.5840 C   0  0  0  0  0  0  0  0  0  0  0  0
   59.1610   33.8290   48.2740 C   0  0  0  0  0  0  0  0  0  0  0  0
   58.8670   33.9920   46.8430 N   0  0  0  0  0  0  0  0  0  0  0  0
   57.5920   33.5440   46.3390 C   0  0  0  0  0  0  0  0  0  0  0  0
   56.6070   33.4700   47.1250 O   0  0  0  0  0  0  0  0  0  0  0  0
   57.4070   33.1870   44.8860 C   0  0  0  0  0  0  0  0  0  0  0  0
   57.6060   31.7120   44.6430 C   0  0  0  0  0  0  0  0  0  0  0  0
   56.6730   30.9850   43.8900 C   0  0  0  0  0  0  0  0  0  0  0  0
   56.8450   29.6110   43.6930 C   0  0  0  0  0  0  0  0  0  0  0  0
   57.9440   28.9500   44.2520 C   0  0  0  0  0  0  0  0  0  0  0  0
   58.1260   27.2220   43.9840 Cl  0  0  0  0  0  0  0  0  0  0  0  0
   58.8760   29.6710   45.0190 C   0  0  0  0  0  0  0  0  0  0  0  0
   60.2660   28.8770   45.7470 Cl  0  0  0  0  0  0  0  0  0  0  0  0
   58.7020   31.0460   45.2140 C   0  0  0  0  0  0  0  0  0  0  0  0
   59.8120   34.7440   46.0060 C   0  0  0  0  0  0  0  0  0  0  0  0
   61.2470   34.2150   46.1920 C   0  0  0  0  0  0  0  0  0  0  0  0
   62.0540   30.9856   49.6781 H   0  0  0  0  0  0  0  0  0  0  0  0
   60.6665   31.3517   48.5976 H   0  0  0  0  0  0  0  0  0  0  0  0
   61.3963   29.7103   48.5976 H   0  0  0  0  0  0  0  0  0  0  0  0
   61.9670   31.6460   46.8820 H   0  0  0  0  0  0  0  0  0  0  0  0
   63.6216   32.0433   49.2353 H   0  0  0  0  0  0  0  0  0  0  0  0
   64.4400   32.0935   47.6350 H   0  0  0  0  0  0  0  0  0  0  0  0
   63.0470   34.1997   48.8358 H   0  0  0  0  0  0  0  0  0  0  0  0
   63.4756   34.0328   47.0618 H   0  0  0  0  0  0  0  0  0  0  0  0
   60.8986   33.7995   49.5643 H   0  0  0  0  0  0  0  0  0  0  0  0
   60.7139   35.3031   48.6058 H   0  0  0  0  0  0  0  0  0  0  0  0
   58.9951   32.7793   48.5578 H   0  0  0  0  0  0  0  0  0  0  0  0
   58.4961   34.4931   48.8457 H   0  0  0  0  0  0  0  0  0  0  0  0
   56.3882   33.4645   44.5779 H   0  0  0  0  0  0  0  0  0  0  0  0
   58.1597   33.7351   44.3003 H   0  0  0  0  0  0  0  0  0  0  0  0
   55.8030   31.4969   43.4528 H   0  0  0  0  0  0  0  0  0  0  0  0
   56.1129   29.0476   43.0959 H   0  0  0  0  0  0  0  0  0  0  0  0
   59.4287   31.6084   45.8186 H   0  0  0  0  0  0  0  0  0  0  0  0
   59.5223   34.6378   44.9502 H   0  0  0  0  0  0  0  0  0  0  0  0
   59.7842   35.8020   46.3056 H   0  0  0  0  0  0  0  0  0  0  0  0
   61.4305   33.4300   45.4436 H   0  0  0  0  0  0  0  0  0  0  0  0
   61.9298   35.0686   46.0694 H   0  0  0  0  0  0  0  0  0  0  0  0
  1  2  1  0
  2  3  1  0
  3  4  1  0
  4  5  1  0
  5  6  1  0
  6  7  1  0
  7  8  1  0
  8  9  1  0
  9 10  2  0
  9 11  1  0
 11 12  1  0
 12 13  2  0
 13 14  1  0
 14 15  2  0
 15 16  1  0
 15 17  1  0
 17 18  1  0
 17 19  2  0
  8 20  1  0
 20 21  1  0
 21  5  1  0
 19 12  1  0
  1 22  1  0
  1 23  1  0
  1 24  1  0
  2 25  1  0
  3 26  1  0
  3 27  1  0
  4 28  1  0
  4 29  1  0
  6 30  1  0
  6 31  1  0
  7 32  1  0
  7 33  1  0
 11 34  1  0
 11 35  1  0
 13 36  1  0
 14 37  1  0
 19 38  1  0
 20 39  1  0
 20 40  1  0
 21 41  1  0
 21 42  1  0
M  END
>  <UniqueID>  (34) 
33

>  <SMILES>  (34) 
CNCCN1CCN(C(=O)Cc2ccc(Cl)c(Cl)c2)CC1

>  <Energy>  (34) 
48.06586634019002

>  <Genealogy>  (34) 
CNCCN1CCN(C(=O)Cc2ccc(Cl)c(Cl)c2)CC1 (3D coordinates assigned)
CNCCN1CCN(C(=O)Cc2ccc(Cl)c(Cl)c2)CC1 (nonaromatic ring conformer: 48.06586634019002 kcal/mol)

>  <smiles>  (34) 
CNCCN1CCN(C(=O)Cc2ccc(Cl)c(Cl)c2)CC1

>  <score_type>  (34) 
oracle

>  <origin>  (34) 
adg

>  <m_score__min__energy>  (34) 
-7.4000000000000004

>  <m_primary>  (34) 
energy

$$$$
34:0
     RDKit          3D

 47 49  0  0  0  0  0  0  0  0999 V2000
   60.7770   33.9950   46.3880 C   0  0  0  0  0  0  0  0  0  0  0  0
   59.3980   33.4790   46.3200 N   0  0  0  0  0  0  0  0  0  0  0  0
   58.6250   34.2740   45.3520 C   0  0  0  0  0  0  0  0  0  0  0  0
   58.7410   33.5250   47.6450 C   0  0  0  0  0  0  0  0  0  0  0  0
   58.9490   32.2140   48.4350 C   0  0  0  0  0  0  0  0  0  0  0  0
   59.6910   31.2210   47.6410 N   0  0  0  0  0  0  0  0  0  0  0  0
   60.3830   30.2630   48.5170 C   0  0  0  0  0  0  0  0  0  0  0  0
   60.2720   28.8200   48.0030 C   0  0  0  0  0  0  0  0  0  0  0  0
   59.7560   28.7990   46.6320 N   0  0  0  0  0  0  0  0  0  0  0  0
   58.6380   28.3980   46.0720 C   0  0  0  0  0  0  0  0  0  0  0  0
   57.9950   29.3240   45.2100 C   0  0  0  0  0  0  0  0  0  0  0  0
   58.6380   30.5030   44.7660 C   0  0  0  0  0  0  0  0  0  0  0  0
   57.9630   31.4190   43.9550 C   0  0  0  0  0  0  0  0  0  0  0  0
   56.6390   31.1850   43.5830 C   0  0  0  0  0  0  0  0  0  0  0  0
   55.9840   30.0330   44.0190 C   0  0  0  0  0  0  0  0  0  0  0  0
   56.6530   29.1030   44.8230 C   0  0  0  0  0  0  0  0  0  0  0  0
   55.9980   27.9980   45.2450 N   0  0  0  0  0  0  0  0  0  0  0  0
   56.6020   27.0350   45.9830 C   0  0  0  0  0  0  0  0  0  0  0  0
   55.8740   25.8860   46.3130 C   0  0  0  0  0  0  0  0  0  0  0  0
   56.5020   24.8150   46.9420 C   0  0  0  0  0  0  0  0  0  0  0  0
   57.8700   24.8700   47.2010 C   0  0  0  0  0  0  0  0  0  0  0  0
   58.6000   26.0190   46.8880 C   0  0  0  0  0  0  0  0  0  0  0  0
   57.9670   27.1650   46.3590 C   0  0  0  0  0  0  0  0  0  0  0  0
   61.0752   34.1066   47.4409 H   0  0  0  0  0  0  0  0  0  0  0  0
   61.4572   33.2906   45.8869 H   0  0  0  0  0  0  0  0  0  0  0  0
   60.8277   34.9729   45.8869 H   0  0  0  0  0  0  0  0  0  0  0  0
   57.9570   34.9610   45.8921 H   0  0  0  0  0  0  0  0  0  0  0  0
   59.3141   34.8537   44.7202 H   0  0  0  0  0  0  0  0  0  0  0  0
   58.0262   33.6014   44.7202 H   0  0  0  0  0  0  0  0  0  0  0  0
   59.1638   34.3599   48.2231 H   0  0  0  0  0  0  0  0  0  0  0  0
   57.6610   33.6605   47.4863 H   0  0  0  0  0  0  0  0  0  0  0  0
   59.5152   32.4346   49.3520 H   0  0  0  0  0  0  0  0  0  0  0  0
   57.9612   31.7953   48.6777 H   0  0  0  0  0  0  0  0  0  0  0  0
   59.0280   30.7100   47.0140 H   0  0  0  0  0  0  0  0  0  0  0  0
   60.4050   31.7250   47.0650 H   0  0  0  0  0  0  0  0  0  0  0  0
   61.4466   30.5383   48.5723 H   0  0  0  0  0  0  0  0  0  0  0  0
   59.9057   30.3059   49.5071 H   0  0  0  0  0  0  0  0  0  0  0  0
   61.2673   28.3520   48.0218 H   0  0  0  0  0  0  0  0  0  0  0  0
   59.5781   28.2650   48.6515 H   0  0  0  0  0  0  0  0  0  0  0  0
   59.6789   30.7006   45.0618 H   0  0  0  0  0  0  0  0  0  0  0  0
   58.4773   32.3276   43.6087 H   0  0  0  0  0  0  0  0  0  0  0  0
   56.1111   31.9094   42.9454 H   0  0  0  0  0  0  0  0  0  0  0  0
   54.9378   29.8549   43.7298 H   0  0  0  0  0  0  0  0  0  0  0  0
   54.8017   25.8293   46.0744 H   0  0  0  0  0  0  0  0  0  0  0  0
   55.9203   23.9281   47.2337 H   0  0  0  0  0  0  0  0  0  0  0  0
   58.3771   24.0052   47.6537 H   0  0  0  0  0  0  0  0  0  0  0  0
   59.6869   26.0313   47.0565 H   0  0  0  0  0  0  0  0  0  0  0  0
  1  2  1  0
  2  3  1  0
  2  4  1  0
  4  5  1  0
  5  6  1  0
  6  7  1  0
  7  8  1  0
  8  9  1  0
  9 10  2  3
 10 11  1  0
 11 12  2  0
 12 13  1  0
 13 14  2  0
 14 15  1  0
 15 16  2  0
 16 17  1  0
 17 18  1  0
 18 19  2  0
 19 20  1  0
 20 21  2  0
 21 22  1  0
 22 23  2  0
 23 10  1  0
 16 11  1  0
 23 18  1  0
  1 24  1  0
  1 25  1  0
  1 26  1  0
  3 27  1  0
  3 28  1  0
  3 29  1  0
  4 30  1  0
  4 31  1  0
  5 32  1  0
  5 33  1  0
  6 34  1  0
  6 35  1  0
  7 36  1  0
  7 37  1  0
  8 38  1  0
  8 39  1  0
 12 40  1  0
 13 41  1  0
 14 42  1  0
 15 43  1  0
 19 44  1  0
 20 45  1  0
 21 46  1  0
 22 47  1  0
M  CHG  2   6   1  17  -1
M  END
>  <UniqueID>  (35) 
34

>  <SMILES>  (35) 
CN(C)CC[NH2+]CCN=c1c2ccccc2[n-]c2ccccc12

>  <Energy>  (35) 
77.57857269594832

>  <Genealogy>  (35) 
CN(C)CC[NH2+]CCN=c1c2ccccc2[n-]c2ccccc12 (protonated)
CN(C)CC[NH2+]CCN=c1c2ccccc2[n-]c2ccccc12 (3D coordinates assigned)
CN(C)CC[NH2+]CCN=c1c2ccccc2[n-]c2ccccc12 (optimized conformer: 77.57857269594832 kcal/mol)

>  <smiles>  (35) 
CN(C)CCNCCN=c1c2ccccc2[nH]c2ccccc12

>  <score_type>  (35) 
oracle

>  <origin>  (35) 
adg

>  <m_score__min__energy>  (35) 
-6.7599999999999998

>  <m_primary>  (35) 
energy

$$$$
35:0
     RDKit          3D

 67 71  0  0  0  0  0  0  0  0999 V2000
   64.7800   32.7900   49.5990 C   0  0  0  0  0  0  0  0  0  0  0  0
   63.2980   33.1870   49.7020 C   0  0  0  0  0  0  0  0  0  0  0  0
   62.4930   32.9440   48.4760 N   0  0  0  0  0  0  0  0  0  0  0  0
   63.2350   32.6210   47.2370 C   0  0  0  0  0  0  0  0  0  0  0  0
   63.3550   33.8520   46.3420 C   0  0  0  0  0  0  0  0  0  0  0  0
   61.3570   33.8730   48.2810 C   0  0  0  0  0  0  0  0  0  0  0  0
   60.5100   34.0820   49.5390 C   0  0  0  0  0  0  0  0  0  0  0  0
   60.5590   32.9100   50.3290 O   0  0  0  0  0  0  0  0  0  0  0  0
   59.3990   32.1250   50.1230 C   0  0  0  0  0  0  0  0  0  0  0  0
   59.7700   30.7910   49.4640 C   0  0  0  0  0  0  0  0  0  0  0  0
   60.1150   30.9700   48.0510 N   0  0  0  0  0  0  0  0  0  0  0  0
   59.1640   30.7470   46.9960 C   0  0  0  0  0  0  0  0  0  0  0  0
   58.7820   29.4440   46.6920 C   0  0  0  0  0  0  0  0  0  0  0  0
   57.9860   29.1750   45.5950 C   0  0  0  0  0  0  0  0  0  0  0  0
   57.4170   30.1730   44.8450 N   0  0  0  0  0  0  0  0  0  0  0  0
   56.3310   29.8600   43.9020 C   0  0  0  0  0  0  0  0  0  0  0  0
   57.8230   31.4790   45.0690 C   0  0  0  0  0  0  0  0  0  0  0  0
   57.4280   32.5370   44.2140 C   0  0  0  0  0  0  0  0  0  0  0  0
   57.7780   33.8580   44.4960 C   0  0  0  0  0  0  0  0  0  0  0  0
   58.5200   34.1590   45.6330 C   0  0  0  0  0  0  0  0  0  0  0  0
   58.9570   33.1400   46.4750 C   0  0  0  0  0  0  0  0  0  0  0  0
   58.6690   31.7930   46.1840 C   0  0  0  0  0  0  0  0  0  0  0  0
   57.8750   27.7150   45.4870 C   0  0  0  0  0  0  0  0  0  0  0  0
   57.4240   26.9480   44.4540 N   0  0  0  0  0  0  0  0  0  0  0  0
   57.5040   25.5830   44.5340 C   0  0  0  0  0  0  0  0  0  0  0  0
   57.0020   24.7770   43.4990 C   0  0  0  0  0  0  0  0  0  0  0  0
   57.0920   23.3860   43.5830 C   0  0  0  0  0  0  0  0  0  0  0  0
   57.6880   22.7830   44.6950 C   0  0  0  0  0  0  0  0  0  0  0  0
   58.2030   23.5680   45.7300 C   0  0  0  0  0  0  0  0  0  0  0  0
   58.1180   24.9660   45.6610 C   0  0  0  0  0  0  0  0  0  0  0  0
   58.6620   25.7720   46.6750 C   0  0  0  0  0  0  0  0  0  0  0  0
   58.5400   27.1520   46.5580 C   0  0  0  0  0  0  0  0  0  0  0  0
   59.1750   28.1920   47.4240 C   0  0  0  0  0  0  0  0  0  0  0  0
   65.2005   32.6774   50.6092 H   0  0  0  0  0  0  0  0  0  0  0  0
   64.8674   31.8368   49.0571 H   0  0  0  0  0  0  0  0  0  0  0  0
   65.3322   33.5719   49.0571 H   0  0  0  0  0  0  0  0  0  0  0  0
   62.8477   32.6122   50.5247 H   0  0  0  0  0  0  0  0  0  0  0  0
   63.2831   34.2744   49.8675 H   0  0  0  0  0  0  0  0  0  0  0  0
   64.2425   32.2675   47.5015 H   0  0  0  0  0  0  0  0  0  0  0  0
   62.6868   31.8393   46.6907 H   0  0  0  0  0  0  0  0  0  0  0  0
   63.4428   34.7528   46.9672 H   0  0  0  0  0  0  0  0  0  0  0  0
   64.2482   33.7580   45.7069 H   0  0  0  0  0  0  0  0  0  0  0  0
   62.4604   33.9322   45.7069 H   0  0  0  0  0  0  0  0  0  0  0  0
   61.7561   34.8481   47.9651 H   0  0  0  0  0  0  0  0  0  0  0  0
   60.7000   33.4227   47.5223 H   0  0  0  0  0  0  0  0  0  0  0  0
   60.9078   34.9310   50.1142 H   0  0  0  0  0  0  0  0  0  0  0  0
   59.4689   34.2940   49.2542 H   0  0  0  0  0  0  0  0  0  0  0  0
   58.9163   31.9294   51.0919 H   0  0  0  0  0  0  0  0  0  0  0  0
   58.7097   32.6712   49.4624 H   0  0  0  0  0  0  0  0  0  0  0  0
   60.6335   30.3593   49.9913 H   0  0  0  0  0  0  0  0  0  0  0  0
   58.8999   30.1208   49.5256 H   0  0  0  0  0  0  0  0  0  0  0  0
   60.9820   31.5080   47.8250 H   0  0  0  0  0  0  0  0  0  0  0  0
   55.4221   29.5980   44.4634 H   0  0  0  0  0  0  0  0  0  0  0  0
   56.1310   30.7370   43.2689 H   0  0  0  0  0  0  0  0  0  0  0  0
   56.6284   29.0110   43.2689 H   0  0  0  0  0  0  0  0  0  0  0  0
   56.8363   32.3138   43.3140 H   0  0  0  0  0  0  0  0  0  0  0  0
   57.4658   34.6645   43.8162 H   0  0  0  0  0  0  0  0  0  0  0  0
   58.7625   35.2059   45.8679 H   0  0  0  0  0  0  0  0  0  0  0  0
   59.5337   33.3901   47.3777 H   0  0  0  0  0  0  0  0  0  0  0  0
   57.0600   27.3820   43.5790 H   0  0  0  0  0  0  0  0  0  0  0  0
   56.5360   25.2435   42.6185 H   0  0  0  0  0  0  0  0  0  0  0  0
   56.6921   22.7616   42.7705 H   0  0  0  0  0  0  0  0  0  0  0  0
   57.7517   21.6865   44.7552 H   0  0  0  0  0  0  0  0  0  0  0  0
   58.6757   23.0887   46.6000 H   0  0  0  0  0  0  0  0  0  0  0  0
   59.1717   25.3225   47.5399 H   0  0  0  0  0  0  0  0  0  0  0  0
   58.7656   28.1742   48.4448 H   0  0  0  0  0  0  0  0  0  0  0  0
   60.2587   28.0678   47.5657 H   0  0  0  0  0  0  0  0  0  0  0  0
  1  2  1  0
  2  3  1  0
  3  4  1  0
  4  5  1  0
  3  6  1  0
  6  7  1  0
  7  8  1  0
  8  9  1  0
  9 10  1  0
 10 11  1  0
 11 12  1  0
 12 13  2  0
 13 14  1  0
 14 15  2  0
 15 16  1  0
 15 17  1  0
 17 18  2  0
 18 19  1  0
 19 20  2  0
 20 21  1  0
 21 22  2  0
 14 23  1  0
 23 24  2  0
 24 25  1  0
 25 26  2  0
 26 27  1  0
 27 28  2  0
 28 29  1  0
 29 30  2  0
 30 31  1  0
 31 32  2  0
 32 33  1  0
 22 12  1  0
 32 23  1  0
 33 13  1  0
 22 17  1  0
 30 25  1  0
  1 34  1  0
  1 35  1  0
  1 36  1  0
  2 37  1  0
  2 38  1  0
  4 39  1  0
  4 40  1  0
  5 41  1  0
  5 42  1  0
  5 43  1  0
  6 44  1  0
  6 45  1  0
  7 46  1  0
  7 47  1  0
  9 48  1  0
  9 49  1  0
 10 50  1  0
 10 51  1  0
 11 52  1  0
 16 53  1  0
 16 54  1  0
 16 55  1  0
 18 56  1  0
 19 57  1  0
 20 58  1  0
 21 59  1  0
 24 60  1  0
 26 61  1  0
 27 62  1  0
 28 63  1  0
 29 64  1  0
 31 65  1  0
 33 66  1  0
 33 67  1  0
M  CHG  2  15   1  24   1
M  END
>  <UniqueID>  (36) 
35

>  <SMILES>  (36) 
CCN(CC)CCOCCNc1c2c([n+](C)c3ccccc13)-c1[nH+]c3ccccc3cc1C2

>  <Energy>  (36) 
123.20909467313369

>  <Genealogy>  (36) 
CCN(CC)CCOCCNc1c2c([n+](C)c3ccccc13)-c1[nH+]c3ccccc3cc1C2 (protonated)
CCN(CC)CCOCCNc1c2c([n+](C)c3ccccc13)-c1[nH+]c3ccccc3cc1C2 (3D coordinates assigned)
CCN(CC)CCOCCNc1c2c([n+](C)c3ccccc13)-c1[nH+]c3ccccc3cc1C2 (nonaromatic ring conformer: 123.20909467313369 kcal/mol)

>  <smiles>  (36) 
CCN(CC)CCOCCNc1c2c([n+](C)c3ccccc13)-c1nc3ccccc3cc1C2

>  <score_type>  (36) 
oracle

>  <origin>  (36) 
adg

>  <m_score__min__energy>  (36) 
-5.7000000000000002

>  <m_primary>  (36) 
energy

$$$$
36:0
     RDKit          3D

 46 48  0  0  0  0  0  0  0  0999 V2000
   63.3060   33.4930   46.7380 C   0  0  0  0  0  0  0  0  0  0  0  0
   63.3860   32.1220   47.4100 C   0  0  0  0  0  0  0  0  0  0  0  0
   63.0250   32.1920   48.8410 N   0  0  0  0  0  0  0  0  0  0  0  0
   64.2190   32.3210   49.6940 C   0  0  0  0  0  0  0  0  0  0  0  0
   61.9440   33.1490   49.1890 C   0  0  0  0  0  0  0  0  0  0  0  0
   60.5170   32.5630   49.2930 C   0  0  0  0  0  0  0  0  0  0  0  0
   59.8710   32.4150   47.9880 N   0  0  0  0  0  0  0  0  0  0  0  0
   59.3470   31.2710   47.4900 C   0  0  0  0  0  0  0  0  0  0  0  0
   58.8370   31.4910   46.2180 C   0  0  0  0  0  0  0  0  0  0  0  0
   58.1320   30.2780   45.1600 S   0  0  0  0  0  0  0  0  0  0  0  0
   58.5940   30.4930   43.7470 O   0  0  0  0  0  0  0  0  0  0  0  0
   56.6340   30.3860   45.2150 O   0  0  0  0  0  0  0  0  0  0  0  0
   58.6580   28.6810   45.6840 C   0  0  0  0  0  0  0  0  0  0  0  0
   60.0280   28.3870   45.7410 C   0  0  0  0  0  0  0  0  0  0  0  0
   60.4610   27.1330   46.1810 C   0  0  0  0  0  0  0  0  0  0  0  0
   59.5270   26.1660   46.5660 C   0  0  0  0  0  0  0  0  0  0  0  0
   58.1610   26.4530   46.5110 C   0  0  0  0  0  0  0  0  0  0  0  0
   57.7240   27.7080   46.0740 C   0  0  0  0  0  0  0  0  0  0  0  0
   59.0350   32.8300   45.9510 C   0  0  0  0  0  0  0  0  0  0  0  0
   58.7050   33.6040   44.8390 C   0  0  0  0  0  0  0  0  0  0  0  0
   59.0300   34.9720   44.8710 C   0  0  0  0  0  0  0  0  0  0  0  0
   59.6640   35.5300   46.0020 C   0  0  0  0  0  0  0  0  0  0  0  0
   59.9830   34.7260   47.1110 C   0  0  0  0  0  0  0  0  0  0  0  0
   59.6610   33.3670   47.0500 C   0  0  0  0  0  0  0  0  0  0  0  0
   63.2603   34.2768   47.5084 H   0  0  0  0  0  0  0  0  0  0  0  0
   64.1967   33.6466   46.1111 H   0  0  0  0  0  0  0  0  0  0  0  0
   62.4035   33.5419   46.1111 H   0  0  0  0  0  0  0  0  0  0  0  0
   62.6940   31.4348   46.9011 H   0  0  0  0  0  0  0  0  0  0  0  0
   64.4235   31.7641   47.3356 H   0  0  0  0  0  0  0  0  0  0  0  0
   63.9191   32.2886   50.7518 H   0  0  0  0  0  0  0  0  0  0  0  0
   64.9112   31.4924   49.4836 H   0  0  0  0  0  0  0  0  0  0  0  0
   64.7183   33.2783   49.4836 H   0  0  0  0  0  0  0  0  0  0  0  0
   62.1938   33.5973   50.1619 H   0  0  0  0  0  0  0  0  0  0  0  0
   61.9067   33.8651   48.3548 H   0  0  0  0  0  0  0  0  0  0  0  0
   60.5767   31.5738   49.7704 H   0  0  0  0  0  0  0  0  0  0  0  0
   59.9119   33.2648   49.8858 H   0  0  0  0  0  0  0  0  0  0  0  0
   59.3280   30.3058   48.0173 H   0  0  0  0  0  0  0  0  0  0  0  0
   60.7645   29.1460   45.4384 H   0  0  0  0  0  0  0  0  0  0  0  0
   61.5366   26.9067   46.2244 H   0  0  0  0  0  0  0  0  0  0  0  0
   59.8681   25.1792   46.9122 H   0  0  0  0  0  0  0  0  0  0  0  0
   57.4274   25.6906   46.8119 H   0  0  0  0  0  0  0  0  0  0  0  0
   56.6479   27.9327   46.0359 H   0  0  0  0  0  0  0  0  0  0  0  0
   58.2067   33.1590   43.9651 H   0  0  0  0  0  0  0  0  0  0  0  0
   58.7885   35.6113   44.0090 H   0  0  0  0  0  0  0  0  0  0  0  0
   59.9105   36.6019   46.0161 H   0  0  0  0  0  0  0  0  0  0  0  0
   60.4710   35.1535   47.9993 H   0  0  0  0  0  0  0  0  0  0  0  0
  1  2  1  0
  2  3  1  0
  3  4  1  0
  3  5  1  0
  5  6  1  0
  6  7  1  0
  7  8  1  0
  8  9  2  0
  9 10  1  0
 10 11  2  0
 10 12  2  0
 10 13  1  0
 13 14  2  0
 14 15  1  0
 15 16  2  0
 16 17  1  0
 17 18  2  0
  9 19  1  0
 19 20  2  0
 20 21  1  0
 21 22  2  0
 22 23  1  0
 23 24  2  0
 24  7  1  0
 18 13  1  0
 24 19  1  0
  1 25  1  0
  1 26  1  0
  1 27  1  0
  2 28  1  0
  2 29  1  0
  4 30  1  0
  4 31  1  0
  4 32  1  0
  5 33  1  0
  5 34  1  0
  6 35  1  0
  6 36  1  0
  8 37  1  0
 14 38  1  0
 15 39  1  0
 16 40  1  0
 17 41  1  0
 18 42  1  0
 20 43  1  0
 21 44  1  0
 22 45  1  0
 23 46  1  0
M  END
>  <UniqueID>  (37) 
36

>  <SMILES>  (37) 
CCN(C)CCn1cc(S(=O)(=O)c2ccccc2)c2ccccc21

>  <Energy>  (37) 
85.05623879378966

>  <Genealogy>  (37) 
CCN(C)CCn1cc(S(=O)(=O)c2ccccc2)c2ccccc21 (3D coordinates assigned)
CCN(C)CCn1cc(S(=O)(=O)c2ccccc2)c2ccccc21 (optimized conformer: 85.05623879378966 kcal/mol)

>  <smiles>  (37) 
CCN(C)CCn1cc(S(=O)(=O)c2ccccc2)c2ccccc21

>  <score_type>  (37) 
oracle

>  <origin>  (37) 
adg

>  <m_score__min__energy>  (37) 
-7.8099999999999996

>  <m_primary>  (37) 
energy

$$$$
37:0
     RDKit          3D

 53 56  0  0  0  0  0  0  0  0999 V2000
   57.7660   31.1820   51.3240 C   0  0  0  0  0  0  0  0  0  0  0  0
   58.1200   32.3470   50.4970 N   0  0  0  0  0  0  0  0  0  0  0  0
   59.1750   33.1250   51.1690 C   0  0  0  0  0  0  0  0  0  0  0  0
   58.5410   31.9110   49.1480 C   0  0  0  0  0  0  0  0  0  0  0  0
   59.7130   30.9190   49.2080 C   0  0  0  0  0  0  0  0  0  0  0  0
   60.4760   30.9130   47.9580 N   0  0  0  0  0  0  0  0  0  0  0  0
   59.8250   30.9500   46.6770 C   0  0  0  0  0  0  0  0  0  0  0  0
   59.4690   29.7410   46.0560 C   0  0  0  0  0  0  0  0  0  0  0  0
   60.0030   28.5120   46.4990 C   0  0  0  0  0  0  0  0  0  0  0  0
   59.6670   27.3200   45.8620 C   0  0  0  0  0  0  0  0  0  0  0  0
   58.8010   27.3330   44.7730 C   0  0  0  0  0  0  0  0  0  0  0  0
   58.2390   28.5330   44.3390 C   0  0  0  0  0  0  0  0  0  0  0  0
   58.5280   29.7550   44.9970 C   0  0  0  0  0  0  0  0  0  0  0  0
   57.9020   30.9350   44.6490 N   0  0  0  0  0  0  0  0  0  0  0  0
   56.6730   30.9030   43.8250 C   0  0  0  0  0  0  0  0  0  0  0  0
   58.4130   32.1430   45.0900 C   0  0  0  0  0  0  0  0  0  0  0  0
   57.9570   33.3720   44.5510 C   0  0  0  0  0  0  0  0  0  0  0  0
   58.4520   34.5870   45.0090 C   0  0  0  0  0  0  0  0  0  0  0  0
   59.4570   34.6190   45.9620 C   0  0  0  0  0  0  0  0  0  0  0  0
   59.9850   33.4320   46.4850 C   0  0  0  0  0  0  0  0  0  0  0  0
   61.2190   33.5560   47.2980 C   0  0  0  0  0  0  0  0  0  0  0  0
   62.4660   33.2110   46.7480 C   0  0  0  0  0  0  0  0  0  0  0  0
   63.6340   33.3480   47.5070 C   0  0  0  0  0  0  0  0  0  0  0  0
   63.5660   33.8460   48.8100 C   0  0  0  0  0  0  0  0  0  0  0  0
   62.3330   34.2130   49.3570 C   0  0  0  0  0  0  0  0  0  0  0  0
   61.1640   34.0800   48.6010 C   0  0  0  0  0  0  0  0  0  0  0  0
   59.4220   32.1750   46.0970 C   0  0  0  0  0  0  0  0  0  0  0  0
   57.8472   31.4493   52.3879 H   0  0  0  0  0  0  0  0  0  0  0  0
   56.7338   30.8741   51.1011 H   0  0  0  0  0  0  0  0  0  0  0  0
   58.4525   30.3519   51.1011 H   0  0  0  0  0  0  0  0  0  0  0  0
   59.0568   33.0379   52.2592 H   0  0  0  0  0  0  0  0  0  0  0  0
   60.1611   32.7362   50.8748 H   0  0  0  0  0  0  0  0  0  0  0  0
   59.0949   34.1819   50.8748 H   0  0  0  0  0  0  0  0  0  0  0  0
   57.6893   31.4259   48.6488 H   0  0  0  0  0  0  0  0  0  0  0  0
   58.8732   32.7990   48.5902 H   0  0  0  0  0  0  0  0  0  0  0  0
   60.3815   31.2051   50.0334 H   0  0  0  0  0  0  0  0  0  0  0  0
   59.3036   29.9105   49.3671 H   0  0  0  0  0  0  0  0  0  0  0  0
   61.5120   30.7930   48.0020 H   0  0  0  0  0  0  0  0  0  0  0  0
   60.6918   28.4954   47.3564 H   0  0  0  0  0  0  0  0  0  0  0  0
   60.0863   26.3681   46.2198 H   0  0  0  0  0  0  0  0  0  0  0  0
   58.5591   26.3942   44.2532 H   0  0  0  0  0  0  0  0  0  0  0  0
   57.5610   28.5315   43.4728 H   0  0  0  0  0  0  0  0  0  0  0  0
   55.7913   30.8800   44.4824 H   0  0  0  0  0  0  0  0  0  0  0  0
   56.6337   31.8004   43.1901 H   0  0  0  0  0  0  0  0  0  0  0  0
   56.6805   30.0047   43.1901 H   0  0  0  0  0  0  0  0  0  0  0  0
   57.1973   33.3639   43.7555 H   0  0  0  0  0  0  0  0  0  0  0  0
   58.0437   35.5284   44.6127 H   0  0  0  0  0  0  0  0  0  0  0  0
   59.8445   35.5873   46.3117 H   0  0  0  0  0  0  0  0  0  0  0  0
   62.5240   32.8319   45.7170 H   0  0  0  0  0  0  0  0  0  0  0  0
   64.6057   33.0634   47.0771 H   0  0  0  0  0  0  0  0  0  0  0  0
   64.4842   33.9496   49.4068 H   0  0  0  0  0  0  0  0  0  0  0  0
   62.2822   34.6067   50.3829 H   0  0  0  0  0  0  0  0  0  0  0  0
   60.1977   34.3867   49.0278 H   0  0  0  0  0  0  0  0  0  0  0  0
  1  2  1  0
  2  3  1  0
  2  4  1  0
  4  5  1  0
  5  6  1  0
  6  7  1  0
  7  8  2  0
  8  9  1  0
  9 10  2  0
 10 11  1  0
 11 12  2  0
 12 13  1  0
 13 14  2  0
 14 15  1  0
 14 16  1  0
 16 17  2  0
 17 18  1  0
 18 19  2  0
 19 20  1  0
 20 21  1  0
 21 22  2  0
 22 23  1  0
 23 24  2  0
 24 25  1  0
 25 26  2  0
 20 27  2  0
 27  7  1  0
 13  8  1  0
 27 16  1  0
 26 21  1  0
  1 28  1  0
  1 29  1  0
  1 30  1  0
  3 31  1  0
  3 32  1  0
  3 33  1  0
  4 34  1  0
  4 35  1  0
  5 36  1  0
  5 37  1  0
  6 38  1  0
  9 39  1  0
 10 40  1  0
 11 41  1  0
 12 42  1  0
 15 43  1  0
 15 44  1  0
 15 45  1  0
 17 46  1  0
 18 47  1  0
 19 48  1  0
 22 49  1  0
 23 50  1  0
 24 51  1  0
 25 52  1  0
 26 53  1  0
M  CHG  1  14   1
M  END
>  <UniqueID>  (38) 
37

>  <SMILES>  (38) 
CN(C)CCNc1c2ccccc2[n+](C)c2cccc(-c3ccccc3)c12

>  <Energy>  (38) 
91.55230093074718

>  <Genealogy>  (38) 
CN(C)CCNc1c2ccccc2[n+](C)c2cccc(-c3ccccc3)c12 (3D coordinates assigned)
CN(C)CCNc1c2ccccc2[n+](C)c2cccc(-c3ccccc3)c12 (optimized conformer: 91.55230093074718 kcal/mol)

>  <smiles>  (38) 
CN(C)CCNc1c2ccccc2[n+](C)c2cccc(-c3ccccc3)c12

>  <score_type>  (38) 
oracle

>  <origin>  (38) 
adg

>  <m_score__min__energy>  (38) 
-6.5999999999999996

>  <m_primary>  (38) 
energy

$$$$
38:0
     RDKit          3D

 26 28  0  0  0  0  0  0  0  0999 V2000
   56.4587   29.4809   42.4870 H   0  0  0  0  0  0  0  0  0  0  0  0
   56.8740   30.2180   43.1900 C   0  0  0  0  0  0  0  0  0  0  0  0
   57.0800   31.5250   42.9120 N   0  0  0  0  0  0  0  0  0  0  0  0
   57.5770   32.0770   44.0060 N   0  0  0  0  0  0  0  0  0  0  0  0
   57.9030   33.3850   44.1620 C   0  0  0  0  0  0  0  0  0  0  0  0
   57.7971   34.0956   43.3290 H   0  0  0  0  0  0  0  0  0  0  0  0
   58.3780   33.8080   45.4110 C   0  0  0  0  0  0  0  0  0  0  0  0
   58.6616   34.8589   45.5697 H   0  0  0  0  0  0  0  0  0  0  0  0
   58.4890   32.8760   46.4610 C   0  0  0  0  0  0  0  0  0  0  0  0
   58.8529   33.2032   47.4461 H   0  0  0  0  0  0  0  0  0  0  0  0
   58.1380   31.5320   46.2580 C   0  0  0  0  0  0  0  0  0  0  0  0
   58.2075   30.7957   47.0723 H   0  0  0  0  0  0  0  0  0  0  0  0
   57.6970   31.1630   44.9840 C   0  0  0  0  0  0  0  0  0  0  0  0
   57.2650   29.9430   44.4970 C   0  0  0  0  0  0  0  0  0  0  0  0
   57.2150   28.6310   45.1700 C   0  0  0  0  0  0  0  0  0  0  0  0
   58.3190   28.0770   45.8190 C   0  0  0  0  0  0  0  0  0  0  0  0
   59.3204   28.5273   45.8852 H   0  0  0  0  0  0  0  0  0  0  0  0
   57.8550   26.6000   46.4840 S   0  0  0  0  0  0  0  0  0  0  0  0
   56.2670   26.7370   45.9340 C   0  0  0  0  0  0  0  0  0  0  0  0
   55.3160   25.8750   46.1370 N   0  0  0  0  0  0  0  0  0  0  0  0
   55.2870   24.5390   45.5570 C   0  0  0  0  0  0  0  0  0  0  0  0
   55.2707   23.7899   46.3624 H   0  0  0  0  0  0  0  0  0  0  0  0
   54.3862   24.4286   44.9353 H   0  0  0  0  0  0  0  0  0  0  0  0
   56.1821   24.3896   44.9353 H   0  0  0  0  0  0  0  0  0  0  0  0
   56.0770   27.8830   45.2490 N   0  0  0  0  0  0  0  0  0  0  0  0
   55.1500   28.1770   44.8710 H   0  0  0  0  0  0  0  0  0  0  0  0
  1  2  1  0
  2  3  2  0
  3  4  1  0
  4  5  1  0
  5  6  1  0
  5  7  2  0
  7  8  1  0
  7  9  1  0
  9 10  1  0
  9 11  2  0
 11 12  1  0
 11 13  1  0
 13 14  2  0
 14 15  1  0
 15 16  2  0
 16 17  1  0
 16 18  1  0
 18 19  1  0
 19 20  2  0
 20 21  1  0
 21 22  1  0
 21 23  1  0
 21 24  1  0
 19 25  1  0
 25 26  1  0
 14  2  1  0
 25 15  1  0
 13  4  1  0
M  END
>  <UniqueID>  (39) 
38

>  <SMILES>  (39) 
C/N=c1/[nH]c(-c2cnn3ccccc23)cs1

>  <Energy>  (39) 
96.19738916746269

>  <Genealogy>  (39) 
C/N=c1/[nH]c(-c2cnn3ccccc23)cs1 (cis-trans isomerization)
C/N=c1/[nH]c(-c2cnn3ccccc23)cs1 (3D coordinates assigned)
C/N=c1/[nH]c(-c2cnn3ccccc23)cs1 (optimized conformer: 96.19738916746269 kcal/mol)

>  <smiles>  (39) 
CN=c1[nH]c(-c2cnn3ccccc23)cs1

>  <score_type>  (39) 
oracle

>  <origin>  (39) 
adg

>  <m_score__min__energy>  (39) 
-6.75

>  <m_primary>  (39) 
energy

$$$$
39:0
     RDKit          3D

 50 52  0  0  0  0  0  0  0  0999 V2000
   68.3730   33.9120   50.5390 C   0  0  0  0  0  0  0  0  0  0  0  0
   66.8770   33.6690   50.6910 C   0  0  0  0  0  0  0  0  0  0  0  0
   66.4370   32.6450   49.7350 N   0  0  0  0  0  0  0  0  0  0  0  0
   65.1800   32.0060   50.1550 C   0  0  0  0  0  0  0  0  0  0  0  0
   63.9810   32.5820   49.4400 C   0  0  0  0  0  0  0  0  0  0  0  0
   63.2660   33.6470   50.0080 C   0  0  0  0  0  0  0  0  0  0  0  0
   62.1390   34.1650   49.3630 C   0  0  0  0  0  0  0  0  0  0  0  0
   61.7110   33.6270   48.1380 C   0  0  0  0  0  0  0  0  0  0  0  0
   60.5360   34.1440   47.4840 N   0  0  0  0  0  0  0  0  0  0  0  0
   60.5820   34.5130   46.0650 C   0  0  0  0  0  0  0  0  0  0  0  0
   59.1740   34.4630   45.4480 C   0  0  0  0  0  0  0  0  0  0  0  0
   58.3560   33.3690   46.0250 N   0  0  0  0  0  0  0  0  0  0  0  0
   58.8700   32.0180   45.7020 C   0  0  0  0  0  0  0  0  0  0  0  0
   57.9890   31.3210   44.6980 C   0  0  0  0  0  0  0  0  0  0  0  0
   57.8090   31.8720   43.4180 C   0  0  0  0  0  0  0  0  0  0  0  0
   57.0060   31.2200   42.4780 C   0  0  0  0  0  0  0  0  0  0  0  0
   56.3800   30.0140   42.8060 C   0  0  0  0  0  0  0  0  0  0  0  0
   56.5570   29.4590   44.0760 C   0  0  0  0  0  0  0  0  0  0  0  0
   57.3580   30.1070   45.0200 C   0  0  0  0  0  0  0  0  0  0  0  0
   58.1370   33.5430   47.4860 C   0  0  0  0  0  0  0  0  0  0  0  0
   59.2690   34.3070   48.2030 C   0  0  0  0  0  0  0  0  0  0  0  0
   62.4190   32.5510   47.5790 C   0  0  0  0  0  0  0  0  0  0  0  0
   63.5470   32.0340   48.2240 C   0  0  0  0  0  0  0  0  0  0  0  0
   68.8353   33.9871   51.5343 H   0  0  0  0  0  0  0  0  0  0  0  0
   68.8260   33.0757   49.9865 H   0  0  0  0  0  0  0  0  0  0  0  0
   68.5380   34.8487   49.9865 H   0  0  0  0  0  0  0  0  0  0  0  0
   66.6653   33.3270   51.7148 H   0  0  0  0  0  0  0  0  0  0  0  0
   66.3360   34.6060   50.4924 H   0  0  0  0  0  0  0  0  0  0  0  0
   66.2990   33.0920   48.7980 H   0  0  0  0  0  0  0  0  0  0  0  0
   65.2395   30.9296   49.9365 H   0  0  0  0  0  0  0  0  0  0  0  0
   65.0513   32.1892   51.2320 H   0  0  0  0  0  0  0  0  0  0  0  0
   63.5939   34.0768   50.9660 H   0  0  0  0  0  0  0  0  0  0  0  0
   61.5840   34.9989   49.8175 H   0  0  0  0  0  0  0  0  0  0  0  0
   60.9829   35.5329   45.9693 H   0  0  0  0  0  0  0  0  0  0  0  0
   61.2283   33.7992   45.5332 H   0  0  0  0  0  0  0  0  0  0  0  0
   58.6690   35.4219   45.6362 H   0  0  0  0  0  0  0  0  0  0  0  0
   59.2809   34.2762   44.3693 H   0  0  0  0  0  0  0  0  0  0  0  0
   59.8838   32.1108   45.2853 H   0  0  0  0  0  0  0  0  0  0  0  0
   58.8814   31.4215   46.6261 H   0  0  0  0  0  0  0  0  0  0  0  0
   58.3017   32.8196   43.1549 H   0  0  0  0  0  0  0  0  0  0  0  0
   56.8664   31.6568   41.4781 H   0  0  0  0  0  0  0  0  0  0  0  0
   55.7485   29.5023   42.0648 H   0  0  0  0  0  0  0  0  0  0  0  0
   56.0646   28.5096   44.3334 H   0  0  0  0  0  0  0  0  0  0  0  0
   57.4952   29.6657   46.0182 H   0  0  0  0  0  0  0  0  0  0  0  0
   57.1987   34.0983   47.6315 H   0  0  0  0  0  0  0  0  0  0  0  0
   58.1050   32.5351   47.9255 H   0  0  0  0  0  0  0  0  0  0  0  0
   59.0128   35.3759   48.2467 H   0  0  0  0  0  0  0  0  0  0  0  0
   59.3827   33.9017   49.2193 H   0  0  0  0  0  0  0  0  0  0  0  0
   62.0842   32.1119   46.6276 H   0  0  0  0  0  0  0  0  0  0  0  0
   64.0967   31.1934   47.7754 H   0  0  0  0  0  0  0  0  0  0  0  0
  1  2  1  0
  2  3  1  0
  3  4  1  0
  4  5  1  0
  5  6  2  0
  6  7  1  0
  7  8  2  0
  8  9  1  0
  9 10  1  0
 10 11  1  0
 11 12  1  0
 12 13  1  0
 13 14  1  0
 14 15  2  0
 15 16  1  0
 16 17  2  0
 17 18  1  0
 18 19  2  0
 12 20  1  0
 20 21  1  0
  8 22  1  0
 22 23  2  0
 23  5  1  0
 21  9  1  0
 19 14  1  0
  1 24  1  0
  1 25  1  0
  1 26  1  0
  2 27  1  0
  2 28  1  0
  3 29  1  0
  4 30  1  0
  4 31  1  0
  6 32  1  0
  7 33  1  0
 10 34  1  0
 10 35  1  0
 11 36  1  0
 11 37  1  0
 13 38  1  0
 13 39  1  0
 15 40  1  0
 16 41  1  0
 17 42  1  0
 18 43  1  0
 19 44  1  0
 20 45  1  0
 20 46  1  0
 21 47  1  0
 21 48  1  0
 22 49  1  0
 23 50  1  0
M  END
>  <UniqueID>  (40) 
39

>  <SMILES>  (40) 
CCNCc1ccc(N2CCN(Cc3ccccc3)CC2)cc1

>  <Energy>  (40) 
59.70592252675141

>  <Genealogy>  (40) 
CCNCc1ccc(N2CCN(Cc3ccccc3)CC2)cc1 (3D coordinates assigned)
CCNCc1ccc(N2CCN(Cc3ccccc3)CC2)cc1 (nonaromatic ring conformer: 59.70592252675141 kcal/mol)

>  <smiles>  (40) 
CCNCc1ccc(N2CCN(Cc3ccccc3)CC2)cc1

>  <score_type>  (40) 
oracle

>  <origin>  (40) 
adg

>  <m_score__min__energy>  (40) 
-7.5800000000000001

>  <m_primary>  (40) 
energy

$$$$
40:0
     RDKit          3D

 47 50  0  0  0  0  0  0  0  0999 V2000
   60.7170   29.6600   47.5690 C   0  0  0  0  0  0  0  0  0  0  0  0
   59.3760   29.4550   46.9970 N   0  0  0  0  0  0  0  0  0  0  0  0
   58.8220   28.1900   46.8600 C   0  0  0  0  0  0  0  0  0  0  0  0
   59.3810   27.0620   47.5080 C   0  0  0  0  0  0  0  0  0  0  0  0
   58.8590   25.7840   47.3070 C   0  0  0  0  0  0  0  0  0  0  0  0
   57.7680   25.5950   46.4670 C   0  0  0  0  0  0  0  0  0  0  0  0
   57.1600   26.6860   45.8490 C   0  0  0  0  0  0  0  0  0  0  0  0
   57.6420   27.9950   46.0580 C   0  0  0  0  0  0  0  0  0  0  0  0
   56.9940   29.1150   45.4760 C   0  0  0  0  0  0  0  0  0  0  0  0
   55.7910   28.9780   44.6930 N   0  0  0  0  0  0  0  0  0  0  0  0
   55.4310   29.8830   43.5980 C   0  0  0  0  0  0  0  0  0  0  0  0
   56.6230   30.0890   42.6480 C   0  0  0  0  0  0  0  0  0  0  0  0
   57.1070   31.4900   42.6420 N   0  0  0  0  0  0  0  0  0  0  0  0
   58.5120   31.5790   43.0860 C   0  0  0  0  0  0  0  0  0  0  0  0
   56.9850   32.0580   41.2870 C   0  0  0  0  0  0  0  0  0  0  0  0
   57.5280   30.3710   45.7510 C   0  0  0  0  0  0  0  0  0  0  0  0
   57.0470   31.5370   45.3800 O   0  0  0  0  0  0  0  0  0  0  0  0
   57.8320   32.4590   45.8910 C   0  0  0  0  0  0  0  0  0  0  0  0
   57.6840   33.8380   45.7700 C   0  0  0  0  0  0  0  0  0  0  0  0
   58.6000   34.6620   46.4440 C   0  0  0  0  0  0  0  0  0  0  0  0
   59.6230   34.0970   47.2320 C   0  0  0  0  0  0  0  0  0  0  0  0
   59.7550   32.7000   47.3400 C   0  0  0  0  0  0  0  0  0  0  0  0
   58.8590   31.8960   46.6230 C   0  0  0  0  0  0  0  0  0  0  0  0
   58.6670   30.5220   46.5110 C   0  0  0  0  0  0  0  0  0  0  0  0
   60.6527   29.6502   48.6671 H   0  0  0  0  0  0  0  0  0  0  0  0
   61.3859   28.8537   47.2337 H   0  0  0  0  0  0  0  0  0  0  0  0
   61.1144   30.6293   47.2337 H   0  0  0  0  0  0  0  0  0  0  0  0
   60.2409   27.1955   48.1809 H   0  0  0  0  0  0  0  0  0  0  0  0
   59.3134   24.9212   47.8161 H   0  0  0  0  0  0  0  0  0  0  0  0
   57.3829   24.5801   46.2893 H   0  0  0  0  0  0  0  0  0  0  0  0
   56.2939   26.5244   45.1904 H   0  0  0  0  0  0  0  0  0  0  0  0
   55.1480   28.1780   44.8810 H   0  0  0  0  0  0  0  0  0  0  0  0
   54.5907   29.4514   43.0345 H   0  0  0  0  0  0  0  0  0  0  0  0
   55.1457   30.8565   44.0234 H   0  0  0  0  0  0  0  0  0  0  0  0
   57.4461   29.4326   42.9669 H   0  0  0  0  0  0  0  0  0  0  0  0
   56.2850   29.8472   41.6295 H   0  0  0  0  0  0  0  0  0  0  0  0
   56.5160   32.0690   43.2840 H   0  0  0  0  0  0  0  0  0  0  0  0
   58.5497   31.5814   44.1854 H   0  0  0  0  0  0  0  0  0  0  0  0
   59.0734   30.7146   42.7018 H   0  0  0  0  0  0  0  0  0  0  0  0
   58.9599   32.5073   42.7018 H   0  0  0  0  0  0  0  0  0  0  0  0
   56.7545   33.1312   41.3587 H   0  0  0  0  0  0  0  0  0  0  0  0
   57.9329   31.9219   40.7457 H   0  0  0  0  0  0  0  0  0  0  0  0
   56.1766   31.5447   40.7457 H   0  0  0  0  0  0  0  0  0  0  0  0
   56.8735   34.2695   45.1643 H   0  0  0  0  0  0  0  0  0  0  0  0
   58.5186   35.7555   46.3564 H   0  0  0  0  0  0  0  0  0  0  0  0
   60.3244   34.7538   47.7673 H   0  0  0  0  0  0  0  0  0  0  0  0
   60.5387   32.2524   47.9689 H   0  0  0  0  0  0  0  0  0  0  0  0
  1  2  1  0
  2  3  2  0
  3  4  1  0
  4  5  2  0
  5  6  1  0
  6  7  2  0
  7  8  1  0
  8  9  2  0
  9 10  1  0
 10 11  1  0
 11 12  1  0
 12 13  1  0
 13 14  1  0
 13 15  1  0
  9 16  1  0
 16 17  1  0
 17 18  1  0
 18 19  2  0
 19 20  1  0
 20 21  2  0
 21 22  1  0
 22 23  2  0
 23 24  1  0
 24  2  1  0
  8  3  1  0
 24 16  2  0
 23 18  1  0
  1 25  1  0
  1 26  1  0
  1 27  1  0
  4 28  1  0
  5 29  1  0
  6 30  1  0
  7 31  1  0
 10 32  1  0
 11 33  1  0
 11 34  1  0
 12 35  1  0
 12 36  1  0
 13 37  1  0
 14 38  1  0
 14 39  1  0
 14 40  1  0
 15 41  1  0
 15 42  1  0
 15 43  1  0
 19 44  1  0
 20 45  1  0
 21 46  1  0
 22 47  1  0
M  CHG  2   2   1  13   1
M  END
>  <UniqueID>  (41) 
40

>  <SMILES>  (41) 
C[n+]1c2ccccc2c(NCC[NH+](C)C)c2oc3ccccc3c21

>  <Energy>  (41) 
109.85619311601337

>  <Genealogy>  (41) 
C[n+]1c2ccccc2c(NCC[NH+](C)C)c2oc3ccccc3c21 (protonated)
C[n+]1c2ccccc2c(NCC[NH+](C)C)c2oc3ccccc3c21 (3D coordinates assigned)
C[n+]1c2ccccc2c(NCC[NH+](C)C)c2oc3ccccc3c21 (optimized conformer: 109.85619311601337 kcal/mol)

>  <smiles>  (41) 
CN(C)CCNc1c2ccccc2[n+](C)c2c1oc1ccccc12

>  <score_type>  (41) 
oracle

>  <origin>  (41) 
adg

>  <m_score__min__energy>  (41) 
-4.71

>  <m_primary>  (41) 
energy

$$$$
