0:0
     RDKit          3D

 51 54  0  0  0  0  0  0  0  0999 V2000
   56.6330   29.0040   44.5510 C   0  0  0  0  0  0  0  0  0  0  0  0
   56.5140   28.0740   45.6220 O   0  0  0  0  0  0  0  0  0  0  0  0
   57.2730   26.8980   45.7430 C   0  0  0  0  0  0  0  0  0  0  0  0
   56.7890   25.6470   45.3110 C   0  0  0  0  0  0  0  0  0  0  0  0
   57.5840   24.5030   45.4280 C   0  0  0  0  0  0  0  0  0  0  0  0
   58.8650   24.5930   45.9730 C   0  0  0  0  0  0  0  0  0  0  0  0
   59.3560   25.8270   46.4050 C   0  0  0  0  0  0  0  0  0  0  0  0
   58.5630   26.9820   46.3000 C   0  0  0  0  0  0  0  0  0  0  0  0
   59.0770   28.2470   46.7470 N   0  0  0  0  0  0  0  0  0  0  0  0
   59.3580   28.4640   48.1700 C   0  0  0  0  0  0  0  0  0  0  0  0
   58.8820   29.8590   48.6280 C   0  0  0  0  0  0  0  0  0  0  0  0
   58.7110   30.8070   47.5020 N   0  0  0  0  0  0  0  0  0  0  0  0
   58.5720   32.2160   47.9350 C   0  0  0  0  0  0  0  0  0  0  0  0
   58.7800   33.2280   46.8240 C   0  0  0  0  0  0  0  0  0  0  0  0
   57.8040   33.5940   45.9130 C   0  0  0  0  0  0  0  0  0  0  0  0
   58.3460   34.5920   45.1290 C   0  0  0  0  0  0  0  0  0  0  0  0
   59.6340   34.7940   45.5810 C   0  0  0  0  0  0  0  0  0  0  0  0
   59.9020   33.9550   46.6020 N   0  0  0  0  0  0  0  0  0  0  0  0
   61.1690   33.8690   47.2710 C   0  0  0  0  0  0  0  0  0  0  0  0
   61.2660   34.1150   48.6510 C   0  0  0  0  0  0  0  0  0  0  0  0
   62.5040   34.0260   49.2950 C   0  0  0  0  0  0  0  0  0  0  0  0
   63.6480   33.6790   48.5700 C   0  0  0  0  0  0  0  0  0  0  0  0
   63.5540   33.4080   47.2030 C   0  0  0  0  0  0  0  0  0  0  0  0
   62.3180   33.4950   46.5550 C   0  0  0  0  0  0  0  0  0  0  0  0
   59.7090   30.6140   46.4370 C   0  0  0  0  0  0  0  0  0  0  0  0
   59.4550   29.2650   45.7600 C   0  0  0  0  0  0  0  0  0  0  0  0
   56.7627   30.0176   44.9582 H   0  0  0  0  0  0  0  0  0  0  0  0
   57.5050   28.7426   43.9336 H   0  0  0  0  0  0  0  0  0  0  0  0
   55.7233   28.9706   43.9336 H   0  0  0  0  0  0  0  0  0  0  0  0
   55.7801   25.5702   44.8794 H   0  0  0  0  0  0  0  0  0  0  0  0
   57.1986   23.5299   45.0896 H   0  0  0  0  0  0  0  0  0  0  0  0
   59.4888   23.6914   46.0625 H   0  0  0  0  0  0  0  0  0  0  0  0
   60.3685   25.8950   46.8295 H   0  0  0  0  0  0  0  0  0  0  0  0
   58.8364   27.6957   48.7597 H   0  0  0  0  0  0  0  0  0  0  0  0
   60.4454   28.3999   48.3234 H   0  0  0  0  0  0  0  0  0  0  0  0
   57.9168   29.7488   49.1440 H   0  0  0  0  0  0  0  0  0  0  0  0
   59.6560   30.2708   49.2923 H   0  0  0  0  0  0  0  0  0  0  0  0
   57.5598   32.3539   48.3430 H   0  0  0  0  0  0  0  0  0  0  0  0
   59.3590   32.3979   48.6817 H   0  0  0  0  0  0  0  0  0  0  0  0
   56.7920   33.1710   45.8301 H   0  0  0  0  0  0  0  0  0  0  0  0
   57.8482   35.1231   44.3043 H   0  0  0  0  0  0  0  0  0  0  0  0
   60.3387   35.5313   45.1689 H   0  0  0  0  0  0  0  0  0  0  0  0
   60.3660   34.3782   49.2261 H   0  0  0  0  0  0  0  0  0  0  0  0
   62.5779   34.2293   50.3735 H   0  0  0  0  0  0  0  0  0  0  0  0
   64.6227   33.6194   49.0764 H   0  0  0  0  0  0  0  0  0  0  0  0
   64.4532   33.1259   46.6357 H   0  0  0  0  0  0  0  0  0  0  0  0
   62.2453   33.2698   45.4808 H   0  0  0  0  0  0  0  0  0  0  0  0
   59.6195   31.4220   45.6959 H   0  0  0  0  0  0  0  0  0  0  0  0
   60.7215   30.6312   46.8667 H   0  0  0  0  0  0  0  0  0  0  0  0
   58.6414   29.3768   45.0282 H   0  0  0  0  0  0  0  0  0  0  0  0
   60.3802   28.9431   45.2596 H   0  0  0  0  0  0  0  0  0  0  0  0
  1  2  1  0
  2  3  1  0
  3  4  2  0
  4  5  1  0
  5  6  2  0
  6  7  1  0
  7  8  2  0
  8  9  1  0
  9 10  1  0
 10 11  1  0
 11 12  1  0
 12 13  1  0
 13 14  1  0
 14 15  2  0
 15 16  1  0
 16 17  2  0
 17 18  1  0
 18 19  1  0
 19 20  2  0
 20 21  1  0
 21 22  2  0
 22 23  1  0
 23 24  2  0
 12 25  1  0
 25 26  1  0
  8  3  1  0
 26  9  1  0
 18 14  1  0
 24 19  1  0
  1 27  1  0
  1 28  1  0
  1 29  1  0
  4 30  1  0
  5 31  1  0
  6 32  1  0
  7 33  1  0
 10 34  1  0
 10 35  1  0
 11 36  1  0
 11 37  1  0
 13 38  1  0
 13 39  1  0
 15 40  1  0
 16 41  1  0
 17 42  1  0
 20 43  1  0
 21 44  1  0
 22 45  1  0
 23 46  1  0
 24 47  1  0
 25 48  1  0
 25 49  1  0
 26 50  1  0
 26 51  1  0
M  END
>  <UniqueID>  (1) 
1

>  <SMILES>  (1) 
COc1ccccc1N1CCN(Cc2cccn2-c2ccccc2)CC1

>  <Energy>  (1) 
97.5623925757125

>  <Genealogy>  (1) 
COc1ccccc1N1CCN(Cc2cccn2-c2ccccc2)CC1 (3D coordinates assigned)
COc1ccccc1N1CCN(Cc2cccn2-c2ccccc2)CC1 (nonaromatic ring conformer: 97.5623925757125 kcal/mol)

>  <smiles>  (1) 
COc1ccccc1N1CCN(Cc2cccn2-c2ccccc2)CC1

>  <score_type>  (1) 
oracle

>  <origin>  (1) 
adg

>  <m_score__min__energy>  (1) 
-7.6699999999999999

>  <m_primary>  (1) 
energy

$$$$
1:0
     RDKit          3D

 38 40  0  0  0  0  0  0  0  0999 V2000
   58.5370   27.4570   47.4950 C   0  0  0  0  0  0  0  0  0  0  0  0
   58.2060   26.5870   46.2820 C   0  0  0  0  0  0  0  0  0  0  0  0
   56.8310   26.9160   45.6860 C   0  0  0  0  0  0  0  0  0  0  0  0
   56.7500   28.3440   45.2380 C   0  0  0  0  0  0  0  0  0  0  0  0
   57.7980   29.1230   44.7950 C   0  0  0  0  0  0  0  0  0  0  0  0
   57.2030   30.3400   44.5370 C   0  0  0  0  0  0  0  0  0  0  0  0
   57.8820   31.5520   44.0480 C   0  0  0  0  0  0  0  0  0  0  0  0
   58.1150   31.6800   42.8150 O   0  0  0  0  0  0  0  0  0  0  0  0
   58.3340   32.5640   44.9640 N   0  0  0  0  0  0  0  0  0  0  0  0
   57.7460   33.9050   44.8680 C   0  0  0  0  0  0  0  0  0  0  0  0
   58.8340   34.9610   45.0570 C   0  0  0  0  0  0  0  0  0  0  0  0
   59.5120   34.7940   46.4190 C   0  0  0  0  0  0  0  0  0  0  0  0
   59.9270   33.3650   46.6820 C   0  0  0  0  0  0  0  0  0  0  0  0
   60.8700   33.1040   47.6880 C   0  0  0  0  0  0  0  0  0  0  0  0
   61.2080   31.7900   48.0150 C   0  0  0  0  0  0  0  0  0  0  0  0
   60.5900   30.7250   47.3600 C   0  0  0  0  0  0  0  0  0  0  0  0
   59.6400   30.9690   46.3660 C   0  0  0  0  0  0  0  0  0  0  0  0
   59.3060   32.2900   46.0020 C   0  0  0  0  0  0  0  0  0  0  0  0
   55.8860   30.2730   44.8220 N   0  0  0  0  0  0  0  0  0  0  0  0
   55.6530   29.0630   45.2400 O   0  0  0  0  0  0  0  0  0  0  0  0
   58.3238   26.8967   48.4173 H   0  0  0  0  0  0  0  0  0  0  0  0
   59.6021   27.7308   47.4702 H   0  0  0  0  0  0  0  0  0  0  0  0
   57.9232   28.3695   47.4702 H   0  0  0  0  0  0  0  0  0  0  0  0
   58.9735   26.7489   45.5108 H   0  0  0  0  0  0  0  0  0  0  0  0
   58.1857   25.5390   46.6156 H   0  0  0  0  0  0  0  0  0  0  0  0
   56.6507   26.2601   44.8215 H   0  0  0  0  0  0  0  0  0  0  0  0
   56.0716   26.7569   46.4657 H   0  0  0  0  0  0  0  0  0  0  0  0
   58.8547   28.8414   44.6760 H   0  0  0  0  0  0  0  0  0  0  0  0
   57.2828   34.0308   43.8783 H   0  0  0  0  0  0  0  0  0  0  0  0
   56.9833   34.0245   45.6516 H   0  0  0  0  0  0  0  0  0  0  0  0
   59.5865   34.8517   44.2622 H   0  0  0  0  0  0  0  0  0  0  0  0
   58.3736   35.9589   45.0086 H   0  0  0  0  0  0  0  0  0  0  0  0
   60.4065   35.4334   46.4495 H   0  0  0  0  0  0  0  0  0  0  0  0
   58.7859   35.0814   47.1937 H   0  0  0  0  0  0  0  0  0  0  0  0
   61.3455   33.9400   48.2219 H   0  0  0  0  0  0  0  0  0  0  0  0
   61.9630   31.5940   48.7906 H   0  0  0  0  0  0  0  0  0  0  0  0
   60.8515   29.6904   47.6270 H   0  0  0  0  0  0  0  0  0  0  0  0
   59.1480   30.1237   45.8626 H   0  0  0  0  0  0  0  0  0  0  0  0
  1  2  1  0
  2  3  1  0
  3  4  1  0
  4  5  2  0
  5  6  1  0
  6  7  1  0
  7  8  2  0
  7  9  1  0
  9 10  1  0
 10 11  1  0
 11 12  1  0
 12 13  1  0
 13 14  2  0
 14 15  1  0
 15 16  2  0
 16 17  1  0
 17 18  2  0
  6 19  2  0
 19 20  1  0
 20  4  1  0
 18  9  1  0
 18 13  1  0
  1 21  1  0
  1 22  1  0
  1 23  1  0
  2 24  1  0
  2 25  1  0
  3 26  1  0
  3 27  1  0
  5 28  1  0
 10 29  1  0
 10 30  1  0
 11 31  1  0
 11 32  1  0
 12 33  1  0
 12 34  1  0
 14 35  1  0
 15 36  1  0
 16 37  1  0
 17 38  1  0
M  END
>  <UniqueID>  (2) 
2

>  <SMILES>  (2) 
CCCc1cc(C(=O)N2CCCc3ccccc32)no1

>  <Energy>  (2) 
69.61223411640965

>  <Genealogy>  (2) 
CCCc1cc(C(=O)N2CCCc3ccccc32)no1 (3D coordinates assigned)
CCCc1cc(C(=O)N2CCCc3ccccc32)no1 (nonaromatic ring conformer: 69.61223411640965 kcal/mol)

>  <smiles>  (2) 
CCCc1cc(C(=O)N2CCCc3ccccc32)no1

>  <score_type>  (2) 
oracle

>  <origin>  (2) 
adg

>  <m_score__min__energy>  (2) 
-7.7999999999999998

>  <m_primary>  (2) 
energy

$$$$
2:0
     RDKit          3D

 49 51  0  0  0  0  0  0  0  0999 V2000
   58.8240   22.6930   44.9770 C   0  0  0  0  0  0  0  0  0  0  0  0
   59.3050   23.7630   45.7830 O   0  0  0  0  0  0  0  0  0  0  0  0
   58.6660   25.0060   45.8450 C   0  0  0  0  0  0  0  0  0  0  0  0
   59.4340   26.1690   45.9060 C   0  0  0  0  0  0  0  0  0  0  0  0
   58.8040   27.4190   45.9720 C   0  0  0  0  0  0  0  0  0  0  0  0
   59.6030   28.6160   46.0380 N   0  0  0  0  0  0  0  0  0  0  0  0
   59.4600   29.5540   47.1530 C   0  0  0  0  0  0  0  0  0  0  0  0
   60.4930   28.9520   44.9240 C   0  0  0  0  0  0  0  0  0  0  0  0
   57.3950   27.4860   45.9410 C   0  0  0  0  0  0  0  0  0  0  0  0
   56.7500   28.7680   45.9810 N   0  0  0  0  0  0  0  0  0  0  0  0
   56.1280   29.4390   44.8800 C   0  0  0  0  0  0  0  0  0  0  0  0
   55.0640   28.9880   44.3730 O   0  0  0  0  0  0  0  0  0  0  0  0
   56.7710   30.6290   44.3100 C   0  0  0  0  0  0  0  0  0  0  0  0
   57.2070   30.7120   42.9890 C   0  0  0  0  0  0  0  0  0  0  0  0
   57.8790   32.2370   42.7640 S   0  0  0  0  0  0  0  0  0  0  0  0
   57.5770   32.7260   44.3440 C   0  0  0  0  0  0  0  0  0  0  0  0
   57.9970   34.0330   44.9320 C   0  0  0  0  0  0  0  0  0  0  0  0
   58.8790   33.7990   46.1280 C   0  0  0  0  0  0  0  0  0  0  0  0
   60.2600   34.0470   46.0470 C   0  0  0  0  0  0  0  0  0  0  0  0
   61.0740   33.8620   47.1700 C   0  0  0  0  0  0  0  0  0  0  0  0
   60.5160   33.4410   48.3810 C   0  0  0  0  0  0  0  0  0  0  0  0
   59.1410   33.2080   48.4710 C   0  0  0  0  0  0  0  0  0  0  0  0
   58.3230   33.3890   47.3520 C   0  0  0  0  0  0  0  0  0  0  0  0
   56.9860   31.7450   45.0590 N   0  0  0  0  0  0  0  0  0  0  0  0
   56.6560   26.2850   45.9180 C   0  0  0  0  0  0  0  0  0  0  0  0
   55.2580   26.3150   45.9890 O   0  0  0  0  0  0  0  0  0  0  0  0
   54.4430   25.2080   45.6200 C   0  0  0  0  0  0  0  0  0  0  0  0
   57.3090   25.0910   45.8610 N   0  0  0  0  0  0  0  0  0  0  0  0
   58.4593   21.8817   45.6242 H   0  0  0  0  0  0  0  0  0  0  0  0
   58.0013   23.0534   44.3420 H   0  0  0  0  0  0  0  0  0  0  0  0
   59.6397   22.3169   44.3420 H   0  0  0  0  0  0  0  0  0  0  0  0
   60.5321   26.1050   45.9023 H   0  0  0  0  0  0  0  0  0  0  0  0
   59.5432   29.0081   48.1044 H   0  0  0  0  0  0  0  0  0  0  0  0
   60.2526   30.3147   47.0962 H   0  0  0  0  0  0  0  0  0  0  0  0
   58.4768   30.0440   47.0962 H   0  0  0  0  0  0  0  0  0  0  0  0
   61.4536   29.3147   45.3187 H   0  0  0  0  0  0  0  0  0  0  0  0
   60.6641   28.0566   44.3084 H   0  0  0  0  0  0  0  0  0  0  0  0
   60.0296   29.7371   44.3084 H   0  0  0  0  0  0  0  0  0  0  0  0
   57.1260   29.9210   42.2289 H   0  0  0  0  0  0  0  0  0  0  0  0
   58.5516   34.6104   44.1777 H   0  0  0  0  0  0  0  0  0  0  0  0
   57.1030   34.5917   45.2462 H   0  0  0  0  0  0  0  0  0  0  0  0
   60.7019   34.3872   45.0989 H   0  0  0  0  0  0  0  0  0  0  0  0
   62.1558   34.0483   47.0999 H   0  0  0  0  0  0  0  0  0  0  0  0
   61.1584   33.2934   49.2616 H   0  0  0  0  0  0  0  0  0  0  0  0
   58.7013   32.8813   49.4249 H   0  0  0  0  0  0  0  0  0  0  0  0
   57.2405   33.2099   47.4297 H   0  0  0  0  0  0  0  0  0  0  0  0
   54.0736   24.7063   46.5266 H   0  0  0  0  0  0  0  0  0  0  0  0
   53.5895   25.5636   45.0241 H   0  0  0  0  0  0  0  0  0  0  0  0
   55.0360   24.4986   45.0241 H   0  0  0  0  0  0  0  0  0  0  0  0
  1  2  1  0
  2  3  1  0
  3  4  2  0
  4  5  1  0
  5  6  1  0
  6  7  1  0
  6  8  1  0
  5  9  2  0
  9 10  1  0
 10 11  1  0
 11 12  2  0
 11 13  1  0
 13 14  2  0
 14 15  1  0
 15 16  1  0
 16 17  1  0
 17 18  1  0
 18 19  2  0
 19 20  1  0
 20 21  2  0
 21 22  1  0
 22 23  2  0
 16 24  2  0
  9 25  1  0
 25 26  1  0
 26 27  1  0
 25 28  2  0
 28  3  1  0
 24 13  1  0
 23 18  1  0
  1 29  1  0
  1 30  1  0
  1 31  1  0
  4 32  1  0
  7 33  1  0
  7 34  1  0
  7 35  1  0
  8 36  1  0
  8 37  1  0
  8 38  1  0
 14 39  1  0
 17 40  1  0
 17 41  1  0
 19 42  1  0
 20 43  1  0
 21 44  1  0
 22 45  1  0
 23 46  1  0
 27 47  1  0
 27 48  1  0
 27 49  1  0
M  CHG  1  10  -1
M  END
>  <UniqueID>  (3) 
3

>  <SMILES>  (3) 
COc1cc(N(C)C)c([N-]C(=O)c2csc(Cc3ccccc3)n2)c(OC)n1

>  <Energy>  (3) 
81.61773638047366

>  <Genealogy>  (3) 
COc1cc(N(C)C)c([N-]C(=O)c2csc(Cc3ccccc3)n2)c(OC)n1 (protonated)
COc1cc(N(C)C)c([N-]C(=O)c2csc(Cc3ccccc3)n2)c(OC)n1 (3D coordinates assigned)
COc1cc(N(C)C)c([N-]C(=O)c2csc(Cc3ccccc3)n2)c(OC)n1 (optimized conformer: 81.61773638047366 kcal/mol)

>  <smiles>  (3) 
COc1cc(N(C)C)c(NC(=O)c2csc(Cc3ccccc3)n2)c(OC)n1

>  <score_type>  (3) 
oracle

>  <origin>  (3) 
adg

>  <m_score__min__energy>  (3) 
-10.69

>  <m_primary>  (3) 
energy

$$$$
3:0
     RDKit          3D

 47 49  0  0  0  0  0  0  0  0999 V2000
   54.4319   22.8504   45.3768 H   0  0  0  0  0  0  0  0  0  0  0  0
   55.2220   23.6130   45.3120 C   0  0  0  0  0  0  0  0  0  0  0  0
   55.1440   24.8050   45.9600 N   0  0  0  0  0  0  0  0  0  0  0  0
   56.2320   25.5740   45.7350 C   0  0  0  0  0  0  0  0  0  0  0  0
   56.3570   26.7570   46.2660 N   0  0  0  0  0  0  0  0  0  0  0  0
   56.6750   27.9920   45.6010 C   0  0  0  0  0  0  0  0  0  0  0  0
   55.8060   28.5960   44.9150 O   0  0  0  0  0  0  0  0  0  0  0  0
   58.0380   28.5630   45.7240 C   0  0  0  0  0  0  0  0  0  0  0  0
   59.0210   28.2770   44.7580 C   0  0  0  0  0  0  0  0  0  0  0  0
   58.7771   27.6249   43.9064 H   0  0  0  0  0  0  0  0  0  0  0  0
   60.3040   28.8160   44.8740 C   0  0  0  0  0  0  0  0  0  0  0  0
   61.0656   28.5857   44.1145 H   0  0  0  0  0  0  0  0  0  0  0  0
   60.6240   29.6460   45.9500 C   0  0  0  0  0  0  0  0  0  0  0  0
   61.6373   30.0652   46.0365 H   0  0  0  0  0  0  0  0  0  0  0  0
   59.6550   29.9480   46.9240 C   0  0  0  0  0  0  0  0  0  0  0  0
   59.9200   30.7790   48.0250 O   0  0  0  0  0  0  0  0  0  0  0  0
   60.2390   32.1690   47.9510 C   0  0  0  0  0  0  0  0  0  0  0  0
   60.0730   32.6298   48.9359 H   0  0  0  0  0  0  0  0  0  0  0  0
   61.2923   32.2730   47.6516 H   0  0  0  0  0  0  0  0  0  0  0  0
   59.3770   32.8630   46.9300 C   0  0  0  0  0  0  0  0  0  0  0  0
   57.9780   32.7540   46.9990 C   0  0  0  0  0  0  0  0  0  0  0  0
   57.5138   32.1545   47.7960 H   0  0  0  0  0  0  0  0  0  0  0  0
   57.1730   33.4050   46.0580 C   0  0  0  0  0  0  0  0  0  0  0  0
   56.0784   33.3098   46.1117 H   0  0  0  0  0  0  0  0  0  0  0  0
   57.7580   34.1760   45.0500 C   0  0  0  0  0  0  0  0  0  0  0  0
   57.1238   34.6856   44.3097 H   0  0  0  0  0  0  0  0  0  0  0  0
   59.1490   34.3000   44.9820 C   0  0  0  0  0  0  0  0  0  0  0  0
   59.6084   34.9091   44.1896 H   0  0  0  0  0  0  0  0  0  0  0  0
   59.9570   33.6500   45.9210 C   0  0  0  0  0  0  0  0  0  0  0  0
   61.0507   33.7555   45.8691 H   0  0  0  0  0  0  0  0  0  0  0  0
   58.3720   29.4000   46.8050 C   0  0  0  0  0  0  0  0  0  0  0  0
   57.6133   29.6272   47.5683 H   0  0  0  0  0  0  0  0  0  0  0  0
   57.3420   24.8030   44.7200 S   0  0  0  0  0  0  0  0  0  0  0  0
   56.3790   23.4320   44.5600 C   0  0  0  0  0  0  0  0  0  0  0  0
   56.7410   22.2020   43.7780 C   0  0  0  0  0  0  0  0  0  0  0  0
   57.1983   22.5077   42.8254 H   0  0  0  0  0  0  0  0  0  0  0  0
   55.8216   21.6226   43.6077 H   0  0  0  0  0  0  0  0  0  0  0  0
   57.6960   21.3430   44.5140 N   0  0  0  0  0  0  0  0  0  0  0  0
   57.7210   20.3920   44.0730 H   0  0  0  0  0  0  0  0  0  0  0  0
   59.0580   21.9080   44.4890 C   0  0  0  0  0  0  0  0  0  0  0  0
   59.4129   22.0552   45.5197 H   0  0  0  0  0  0  0  0  0  0  0  0
   59.7327   21.2155   43.9643 H   0  0  0  0  0  0  0  0  0  0  0  0
   59.0444   22.8747   43.9643 H   0  0  0  0  0  0  0  0  0  0  0  0
   57.2540   21.1790   45.9090 C   0  0  0  0  0  0  0  0  0  0  0  0
   58.0651   21.4799   46.5884 H   0  0  0  0  0  0  0  0  0  0  0  0
   56.3709   21.8093   46.0903 H   0  0  0  0  0  0  0  0  0  0  0  0
   56.9958   20.1252   46.0903 H   0  0  0  0  0  0  0  0  0  0  0  0
  1  2  1  0
  2  3  1  0
  3  4  1  0
  4  5  2  0
  5  6  1  0
  6  7  2  0
  6  8  1  0
  8  9  2  0
  9 10  1  0
  9 11  1  0
 11 12  1  0
 11 13  2  0
 13 14  1  0
 13 15  1  0
 15 16  1  0
 16 17  1  0
 17 18  1  0
 17 19  1  0
 17 20  1  0
 20 21  2  0
 21 22  1  0
 21 23  1  0
 23 24  1  0
 23 25  2  0
 25 26  1  0
 25 27  1  0
 27 28  1  0
 27 29  2  0
 29 30  1  0
 15 31  2  0
 31 32  1  0
  4 33  1  0
 33 34  1  0
 34 35  1  0
 35 36  1  0
 35 37  1  0
 35 38  1  0
 38 39  1  0
 38 40  1  0
 40 41  1  0
 40 42  1  0
 40 43  1  0
 38 44  1  0
 44 45  1  0
 44 46  1  0
 44 47  1  0
 34  2  2  0
 31  8  1  0
 29 20  1  0
M  CHG  2   3  -1  38   1
M  END
>  <UniqueID>  (4) 
4

>  <SMILES>  (4) 
C[NH+](C)Cc1c[n-]/c(=N/C(=O)c2cccc(OCc3ccccc3)c2)s1

>  <Energy>  (4) 
83.00979162856441

>  <Genealogy>  (4) 
C[NH+](C)Cc1c[n-]c(=NC(=O)c2cccc(OCc3ccccc3)c2)s1 (protonated)
C[NH+](C)Cc1c[n-]/c(=N/C(=O)c2cccc(OCc3ccccc3)c2)s1 (cis-trans isomerization)
C[NH+](C)Cc1c[n-]/c(=N/C(=O)c2cccc(OCc3ccccc3)c2)s1 (3D coordinates assigned)
C[NH+](C)Cc1c[n-]/c(=N/C(=O)c2cccc(OCc3ccccc3)c2)s1 (optimized conformer: 83.00979162856441 kcal/mol)

>  <smiles>  (4) 
CN(C)Cc1c[nH]c(=NC(=O)c2cccc(OCc3ccccc3)c2)s1

>  <score_type>  (4) 
oracle

>  <origin>  (4) 
adg

>  <m_score__min__energy>  (4) 
-8.7599999999999998

>  <m_primary>  (4) 
energy

$$$$
4:0
     RDKit          3D

 38 40  0  0  0  0  0  0  0  0999 V2000
   63.3250   33.4260   48.4990 C   0  0  0  0  0  0  0  0  0  0  0  0
   63.3570   33.5640   47.0940 C   0  0  0  0  0  0  0  0  0  0  0  0
   62.1770   33.8340   46.3770 C   0  0  0  0  0  0  0  0  0  0  0  0
   60.9880   33.9620   47.0990 C   0  0  0  0  0  0  0  0  0  0  0  0
   60.9620   33.8250   48.4640 C   0  0  0  0  0  0  0  0  0  0  0  0
   62.1130   33.5560   49.2000 C   0  0  0  0  0  0  0  0  0  0  0  0
   59.6550   33.9820   48.8750 C   0  0  0  0  0  0  0  0  0  0  0  0
   58.9290   34.2130   47.7110 C   0  0  0  0  0  0  0  0  0  0  0  0
   59.7470   34.2110   46.6310 N   0  0  0  0  0  0  0  0  0  0  0  0
   59.3260   34.3550   45.2380 C   0  0  0  0  0  0  0  0  0  0  0  0
   57.8730   33.8950   45.0740 C   0  0  0  0  0  0  0  0  0  0  0  0
   57.7430   32.6230   44.2100 C   0  0  0  0  0  0  0  0  0  0  0  0
   57.1390   31.5010   44.9630 N   0  0  0  0  0  0  0  0  0  0  0  0
   58.1630   30.6970   45.6690 C   0  0  0  0  0  0  0  0  0  0  0  0
   57.6430   29.2830   45.9720 C   0  0  0  0  0  0  0  0  0  0  0  0
   57.3040   28.5360   44.8100 O   0  0  0  0  0  0  0  0  0  0  0  0
   56.9370   29.3430   43.7010 C   0  0  0  0  0  0  0  0  0  0  0  0
   56.2620   30.6680   44.1020 C   0  0  0  0  0  0  0  0  0  0  0  0
   64.2543   33.2154   49.0487 H   0  0  0  0  0  0  0  0  0  0  0  0
   64.3110   33.4597   46.5565 H   0  0  0  0  0  0  0  0  0  0  0  0
   62.1903   33.9409   45.2823 H   0  0  0  0  0  0  0  0  0  0  0  0
   62.0754   33.4487   50.2941 H   0  0  0  0  0  0  0  0  0  0  0  0
   59.2688   33.9347   49.9039 H   0  0  0  0  0  0  0  0  0  0  0  0
   57.8416   34.3748   47.6728 H   0  0  0  0  0  0  0  0  0  0  0  0
   59.4086   35.4108   44.9407 H   0  0  0  0  0  0  0  0  0  0  0  0
   59.9732   33.7339   44.6013 H   0  0  0  0  0  0  0  0  0  0  0  0
   57.4554   33.6875   46.0703 H   0  0  0  0  0  0  0  0  0  0  0  0
   57.3260   34.7006   44.5623 H   0  0  0  0  0  0  0  0  0  0  0  0
   57.1096   32.8482   43.3393 H   0  0  0  0  0  0  0  0  0  0  0  0
   58.7532   32.3187   43.8988 H   0  0  0  0  0  0  0  0  0  0  0  0
   59.0600   30.6222   45.0367 H   0  0  0  0  0  0  0  0  0  0  0  0
   58.4019   31.1932   46.6212 H   0  0  0  0  0  0  0  0  0  0  0  0
   58.4241   28.7361   46.5205 H   0  0  0  0  0  0  0  0  0  0  0  0
   56.7202   29.3994   46.5592 H   0  0  0  0  0  0  0  0  0  0  0  0
   57.8443   29.5751   43.1239 H   0  0  0  0  0  0  0  0  0  0  0  0
   56.2037   28.7712   43.1134 H   0  0  0  0  0  0  0  0  0  0  0  0
   56.0194   31.2332   43.1900 H   0  0  0  0  0  0  0  0  0  0  0  0
   55.3540   30.4270   44.6743 H   0  0  0  0  0  0  0  0  0  0  0  0
  1  2  2  0
  2  3  1  0
  3  4  2  0
  4  5  1  0
  5  6  2  0
  5  7  1  0
  7  8  2  0
  8  9  1  0
  9 10  1  0
 10 11  1  0
 11 12  1  0
 12 13  1  0
 13 14  1  0
 14 15  1  0
 15 16  1  0
 16 17  1  0
 17 18  1  0
  6  1  1  0
 18 13  1  0
  9  4  1  0
  1 19  1  0
  2 20  1  0
  3 21  1  0
  6 22  1  0
  7 23  1  0
  8 24  1  0
 10 25  1  0
 10 26  1  0
 11 27  1  0
 11 28  1  0
 12 29  1  0
 12 30  1  0
 14 31  1  0
 14 32  1  0
 15 33  1  0
 15 34  1  0
 17 35  1  0
 17 36  1  0
 18 37  1  0
 18 38  1  0
M  END
>  <UniqueID>  (5) 
5

>  <SMILES>  (5) 
c1ccc2c(c1)ccn2CCCN1CCOCC1

>  <Energy>  (5) 
84.96037129525354

>  <Genealogy>  (5) 
c1ccc2c(c1)ccn2CCCN1CCOCC1 (3D coordinates assigned)
c1ccc2c(c1)ccn2CCCN1CCOCC1 (nonaromatic ring conformer: 84.96037129525354 kcal/mol)

>  <smiles>  (5) 
c1ccc2c(c1)ccn2CCCN1CCOCC1

>  <score_type>  (5) 
oracle

>  <origin>  (5) 
adg

>  <m_score__min__energy>  (5) 
-6.75

>  <m_primary>  (5) 
energy

$$$$
5:0
     RDKit          3D

 59 65  0  0  0  0  0  0  0  0999 V2000
   57.1740   31.0070   53.9950 Cl  0  0  0  0  0  0  0  0  0  0  0  0
   57.9780   31.8480   52.6830 C   0  0  0  0  0  0  0  0  0  0  0  0
   58.3790   33.1780   52.8460 C   0  0  0  0  0  0  0  0  0  0  0  0
   59.0220   33.8490   51.8020 C   0  0  0  0  0  0  0  0  0  0  0  0
   59.2680   33.1940   50.5810 C   0  0  0  0  0  0  0  0  0  0  0  0
   59.9670   33.9160   49.4500 C   0  0  2  0  0  0  0  0  0  0  0  0
   59.4840   33.3860   48.1050 C   0  0  0  0  0  0  0  0  0  0  0  0
   58.1420   33.5530   47.7320 C   0  0  0  0  0  0  0  0  0  0  0  0
   57.6780   33.0480   46.5150 C   0  0  0  0  0  0  0  0  0  0  0  0
   58.5460   32.3660   45.6430 C   0  0  0  0  0  0  0  0  0  0  0  0
   58.0440   31.8150   44.3590 C   0  0  0  0  0  0  0  0  0  0  0  0
   58.2010   32.5040   43.2160 C   0  0  0  0  0  0  0  0  0  0  0  0
   57.7060   31.9560   41.9050 C   0  0  0  0  0  0  0  0  0  0  0  0
   56.6130   31.0730   42.0810 O   0  0  0  0  0  0  0  0  0  0  0  0
   56.9960   30.0150   42.9370 C   0  0  0  0  0  0  0  0  0  0  0  0
   57.2290   30.5400   44.3600 C   0  0  0  0  0  0  0  0  0  0  0  0
   59.8930   32.2060   46.0110 C   0  0  0  0  0  0  0  0  0  0  0  0
   60.3680   32.7130   47.2240 C   0  0  0  0  0  0  0  0  0  0  0  0
   61.7220   32.5600   47.5450 O   0  0  0  0  0  0  0  0  0  0  0  0
   62.2090   33.1100   48.7240 C   0  0  0  0  0  0  0  0  0  0  0  0
   63.4930   33.0660   49.1320 N   0  0  0  0  0  0  0  0  0  0  0  0
   63.4270   33.7420   50.3070 C   0  0  0  0  0  0  0  0  0  0  0  0
   64.5780   33.9250   51.2220 C   0  0  0  0  0  0  0  0  0  0  0  0
   64.6490   35.1210   51.9540 C   0  0  0  0  0  0  0  0  0  0  0  0
   65.6690   35.3340   52.8800 C   0  0  0  0  0  0  0  0  0  0  0  0
   66.6400   34.3590   53.0920 C   0  0  0  0  0  0  0  0  0  0  0  0
   66.6110   33.1620   52.3630 C   0  0  0  0  0  0  0  0  0  0  0  0
   67.6090   32.1960   52.5670 C   0  0  0  0  0  0  0  0  0  0  0  0
   67.6090   31.0170   51.8210 C   0  0  0  0  0  0  0  0  0  0  0  0
   66.6240   30.7970   50.8590 C   0  0  0  0  0  0  0  0  0  0  0  0
   65.6220   31.7470   50.6450 C   0  0  0  0  0  0  0  0  0  0  0  0
   65.5820   32.9360   51.4060 C   0  0  0  0  0  0  0  0  0  0  0  0
   62.1700   34.1480   50.5920 N   0  0  0  0  0  0  0  0  0  0  0  0
   61.4170   33.7520   49.5860 N   0  0  0  0  0  0  0  0  0  0  0  0
   58.8630   31.8570   50.4270 C   0  0  0  0  0  0  0  0  0  0  0  0
   58.2210   31.1890   51.4740 C   0  0  0  0  0  0  0  0  0  0  0  0
   58.1881   33.6966   53.7971 H   0  0  0  0  0  0  0  0  0  0  0  0
   59.3373   34.8943   51.9355 H   0  0  0  0  0  0  0  0  0  0  0  0
   59.7261   34.9882   49.4982 H   0  0  0  0  0  0  0  0  0  0  0  0
   57.4507   34.0850   48.4021 H   0  0  0  0  0  0  0  0  0  0  0  0
   56.6229   33.1851   46.2356 H   0  0  0  0  0  0  0  0  0  0  0  0
   58.6994   33.4843   43.2392 H   0  0  0  0  0  0  0  0  0  0  0  0
   57.3875   32.7935   41.2670 H   0  0  0  0  0  0  0  0  0  0  0  0
   58.5278   31.3927   41.4388 H   0  0  0  0  0  0  0  0  0  0  0  0
   56.1994   29.2567   42.9557 H   0  0  0  0  0  0  0  0  0  0  0  0
   57.9298   29.5709   42.5618 H   0  0  0  0  0  0  0  0  0  0  0  0
   56.2549   30.7398   44.8303 H   0  0  0  0  0  0  0  0  0  0  0  0
   57.7877   29.7760   44.9205 H   0  0  0  0  0  0  0  0  0  0  0  0
   60.5814   31.6756   45.3366 H   0  0  0  0  0  0  0  0  0  0  0  0
   63.8894   35.9005   51.7946 H   0  0  0  0  0  0  0  0  0  0  0  0
   65.7069   36.2766   53.4457 H   0  0  0  0  0  0  0  0  0  0  0  0
   67.4334   34.5287   53.8348 H   0  0  0  0  0  0  0  0  0  0  0  0
   68.3940   32.3693   53.3179 H   0  0  0  0  0  0  0  0  0  0  0  0
   68.3878   30.2593   51.9922 H   0  0  0  0  0  0  0  0  0  0  0  0
   66.6358   29.8709   50.2656 H   0  0  0  0  0  0  0  0  0  0  0  0
   64.8565   31.5669   49.8759 H   0  0  0  0  0  0  0  0  0  0  0  0
   61.8340   34.6640   51.4360 H   0  0  0  0  0  0  0  0  0  0  0  0
   59.0521   31.3336   49.4781 H   0  0  0  0  0  0  0  0  0  0  0  0
   57.9064   30.1427   51.3464 H   0  0  0  0  0  0  0  0  0  0  0  0
  1  2  1  0
  2  3  2  0
  3  4  1  0
  4  5  2  0
  5  6  1  0
  6  7  1  0
  7  8  2  0
  8  9  1  0
  9 10  2  0
 10 11  1  0
 11 12  2  0
 12 13  1  0
 13 14  1  0
 14 15  1  0
 15 16  1  0
 10 17  1  0
 17 18  2  0
 18 19  1  0
 19 20  1  0
 20 21  2  0
 21 22  1  0
 22 23  1  0
 23 24  2  0
 24 25  1  0
 25 26  2  0
 26 27  1  0
 27 28  2  0
 28 29  1  0
 29 30  2  0
 30 31  1  0
 31 32  2  0
 22 33  2  0
 33 34  1  0
  5 35  1  0
 35 36  2  0
 36  2  1  0
 34  6  1  0
 18  7  1  0
 34 20  1  0
 16 11  1  0
 32 23  1  0
 32 27  1  0
  3 37  1  0
  4 38  1  0
  6 39  1  6
  8 40  1  0
  9 41  1  0
 12 42  1  0
 13 43  1  0
 13 44  1  0
 15 45  1  0
 15 46  1  0
 16 47  1  0
 16 48  1  0
 17 49  1  0
 24 50  1  0
 25 51  1  0
 26 52  1  0
 28 53  1  0
 29 54  1  0
 30 55  1  0
 31 56  1  0
 33 57  1  0
 35 58  1  0
 36 59  1  0
M  CHG  1  33   1
M  END
>  <UniqueID>  (6) 
6

>  <SMILES>  (6) 
Clc1ccc([C@@H]2c3ccc(C4=CCOCC4)cc3Oc3nc(-c4cccc5ccccc45)[nH+]n32)cc1

>  <Energy>  (6) 
124.74854551277626

>  <Genealogy>  (6) 
Clc1ccc(C2c3ccc(C4=CCOCC4)cc3Oc3nc(-c4cccc5ccccc45)[nH+]n32)cc1 (protonated)
Clc1ccc([C@@H]2c3ccc(C4=CCOCC4)cc3Oc3nc(-c4cccc5ccccc45)[nH+]n32)cc1 (chirality)
Clc1ccc([C@@H]2c3ccc(C4=CCOCC4)cc3Oc3nc(-c4cccc5ccccc45)[nH+]n32)cc1 (3D coordinates assigned)
Clc1ccc([C@@H]2c3ccc(C4=CCOCC4)cc3Oc3nc(-c4cccc5ccccc45)[nH+]n32)cc1 (nonaromatic ring conformer: 124.74854551277626 kcal/mol)

>  <smiles>  (6) 
Clc1ccc(C2c3ccc(C4=CCOCC4)cc3Oc3nc(-c4cccc5ccccc45)nn32)cc1

>  <score_type>  (6) 
oracle

>  <origin>  (6) 
adg

>  <m_score__min__energy>  (6) 
-8.5700000000000003

>  <m_primary>  (6) 
energy

$$$$
6:0
     RDKit          3D

 34 36  0  0  0  0  0  0  0  0999 V2000
   58.6540   32.1650   49.5110 C   0  0  0  0  0  0  0  0  0  0  0  0
   58.8980   30.9460   48.6220 C   0  0  0  0  0  0  0  0  0  0  0  0
   59.4250   31.3250   47.3060 N   0  0  0  0  0  0  0  0  0  0  0  0
   58.7220   30.9870   46.1100 C   0  0  0  0  0  0  0  0  0  0  0  0
   58.5790   29.6820   45.7480 N   0  0  0  0  0  0  0  0  0  0  0  0
   57.9430   29.3200   44.6020 C   0  0  0  0  0  0  0  0  0  0  0  0
   57.4190   30.2980   43.7560 C   0  0  0  0  0  0  0  0  0  0  0  0
   57.5510   31.6430   44.1050 C   0  0  0  0  0  0  0  0  0  0  0  0
   58.2130   32.0000   45.2910 C   0  0  0  0  0  0  0  0  0  0  0  0
   58.2950   33.3760   45.7020 N   0  0  0  0  0  0  0  0  0  0  0  0
   57.0980   34.2170   45.5980 C   0  0  0  0  0  0  0  0  0  0  0  0
   59.5620   34.0030   45.9920 C   0  0  0  0  0  0  0  0  0  0  0  0
   59.6680   35.2500   45.8190 O   0  0  0  0  0  0  0  0  0  0  0  0
   60.7570   33.2610   46.4960 C   0  0  0  0  0  0  0  0  0  0  0  0
   62.0230   33.8620   46.3750 C   0  0  0  0  0  0  0  0  0  0  0  0
   63.1520   33.2600   46.9270 C   0  0  0  0  0  0  0  0  0  0  0  0
   63.0160   32.0590   47.6120 C   0  0  0  0  0  0  0  0  0  0  0  0
   61.7960   31.4740   47.7300 N   0  0  0  0  0  0  0  0  0  0  0  0
   60.6710   32.0260   47.1870 C   0  0  0  0  0  0  0  0  0  0  0  0
   58.7139   31.8659   50.5679 H   0  0  0  0  0  0  0  0  0  0  0  0
   59.4169   32.9295   49.3025 H   0  0  0  0  0  0  0  0  0  0  0  0
   57.6556   32.5769   49.3025 H   0  0  0  0  0  0  0  0  0  0  0  0
   59.6227   30.2836   49.1179 H   0  0  0  0  0  0  0  0  0  0  0  0
   57.9348   30.4369   48.4697 H   0  0  0  0  0  0  0  0  0  0  0  0
   57.8416   28.2560   44.3418 H   0  0  0  0  0  0  0  0  0  0  0  0
   56.9078   30.0124   42.8248 H   0  0  0  0  0  0  0  0  0  0  0  0
   57.1362   32.4239   43.4506 H   0  0  0  0  0  0  0  0  0  0  0  0
   56.7386   34.4695   46.6065 H   0  0  0  0  0  0  0  0  0  0  0  0
   57.3452   35.1410   45.0548 H   0  0  0  0  0  0  0  0  0  0  0  0
   56.3125   33.6712   45.0548 H   0  0  0  0  0  0  0  0  0  0  0  0
   62.1229   34.8173   45.8389 H   0  0  0  0  0  0  0  0  0  0  0  0
   64.1406   33.7308   46.8215 H   0  0  0  0  0  0  0  0  0  0  0  0
   63.8992   31.5804   48.0602 H   0  0  0  0  0  0  0  0  0  0  0  0
   61.7350   30.5640   48.2370 H   0  0  0  0  0  0  0  0  0  0  0  0
  1  2  1  0
  2  3  1  0
  3  4  1  0
  4  5  2  0
  5  6  1  0
  6  7  2  0
  7  8  1  0
  8  9  2  0
  9 10  1  0
 10 11  1  0
 10 12  1  0
 12 13  2  0
 12 14  1  0
 14 15  2  0
 15 16  1  0
 16 17  2  0
 17 18  1  0
 18 19  2  0
 19  3  1  0
  9  4  1  0
 19 14  1  0
  1 20  1  0
  1 21  1  0
  1 22  1  0
  2 23  1  0
  2 24  1  0
  6 25  1  0
  7 26  1  0
  8 27  1  0
 11 28  1  0
 11 29  1  0
 11 30  1  0
 15 31  1  0
 16 32  1  0
 17 33  1  0
 18 34  1  0
M  CHG  1  18   1
M  END
>  <UniqueID>  (7) 
7

>  <SMILES>  (7) 
CCN1c2ncccc2N(C)C(=O)c2ccc[nH+]c21

>  <Energy>  (7) 
58.77021153707983

>  <Genealogy>  (7) 
CCN1c2ncccc2N(C)C(=O)c2ccc[nH+]c21 (protonated)
CCN1c2ncccc2N(C)C(=O)c2ccc[nH+]c21 (3D coordinates assigned)
CCN1c2ncccc2N(C)C(=O)c2ccc[nH+]c21 (nonaromatic ring conformer: 58.77021153707983 kcal/mol)

>  <smiles>  (7) 
CCN1c2ncccc2C(=O)N(C)c2cccnc21

>  <score_type>  (7) 
oracle

>  <origin>  (7) 
adg

>  <m_score__min__energy>  (7) 
-4.8799999999999999

>  <m_primary>  (7) 
energy

$$$$
7:0
     RDKit          3D

 73 77  0  0  0  0  0  0  0  0999 V2000
   55.1810   29.7230   43.7020 C   0  0  0  0  0  0  0  0  0  0  0  0
   56.6250   29.7810   43.2150 C   0  0  0  0  0  0  0  0  0  0  0  0
   57.5460   30.2510   44.3160 C   0  0  0  0  0  0  0  0  0  0  0  0
   57.2790   31.4710   44.8550 N   0  0  0  0  0  0  0  0  0  0  0  0
   58.0410   32.0070   45.8350 C   0  0  0  0  0  0  0  0  0  0  0  0
   57.7280   33.2660   46.3530 C   0  0  0  0  0  0  0  0  0  0  0  0
   58.5160   33.8260   47.3620 C   0  0  0  0  0  0  0  0  0  0  0  0
   59.6230   33.1250   47.8710 C   0  0  0  0  0  0  0  0  0  0  0  0
   60.4470   33.7150   48.8930 N   0  0  0  0  0  0  0  0  0  0  0  0
   61.8050   34.1660   48.5750 C   0  0  0  0  0  0  0  0  0  0  0  0
   62.6740   34.2100   49.8450 C   0  0  0  0  0  0  0  0  0  0  0  0
   62.3580   33.0970   50.7710 N   0  0  0  0  0  0  0  0  0  0  0  0
   62.7180   31.7890   50.1870 C   0  0  0  0  0  0  0  0  0  0  0  0
   60.9420   33.1140   51.2380 C   0  0  0  0  0  0  0  0  0  0  0  0
   59.9760   33.8340   50.2760 C   0  0  0  0  0  0  0  0  0  0  0  0
   59.9380   31.8610   47.3420 C   0  0  0  0  0  0  0  0  0  0  0  0
   59.1490   31.2970   46.3210 C   0  0  0  0  0  0  0  0  0  0  0  0
   59.4330   30.0420   45.7570 C   0  0  0  0  0  0  0  0  0  0  0  0
   60.4270   29.3840   46.1790 O   0  0  0  0  0  0  0  0  0  0  0  0
   58.6420   29.5300   44.7530 N   0  0  0  0  0  0  0  0  0  0  0  0
   58.9840   28.1990   44.1990 C   0  0  0  0  0  0  0  0  0  0  0  0
   57.9860   27.1550   44.6380 C   0  0  0  0  0  0  0  0  0  0  0  0
   57.8600   25.9420   43.9380 C   0  0  0  0  0  0  0  0  0  0  0  0
   56.9280   24.9850   44.3450 C   0  0  0  0  0  0  0  0  0  0  0  0
   56.1110   25.2230   45.4580 C   0  0  0  0  0  0  0  0  0  0  0  0
   55.0940   24.2340   45.8690 C   0  0  0  0  0  0  0  0  0  0  0  0
   53.7960   24.3540   45.3460 C   0  0  0  0  0  0  0  0  0  0  0  0
   52.8010   23.4450   45.7050 C   0  0  0  0  0  0  0  0  0  0  0  0
   53.0900   22.4030   46.5850 C   0  0  0  0  0  0  0  0  0  0  0  0
   54.3780   22.2640   47.1050 C   0  0  0  0  0  0  0  0  0  0  0  0
   55.3950   23.1650   46.7510 C   0  0  0  0  0  0  0  0  0  0  0  0
   57.0270   22.9000   47.3940 S   0  0  0  0  0  0  0  0  0  0  0  0
   57.7730   24.2040   47.3860 O   0  0  0  0  0  0  0  0  0  0  0  0
   56.9560   22.3980   48.8110 O   0  0  0  0  0  0  0  0  0  0  0  0
   57.8980   21.7420   46.4400 N   0  0  0  0  0  0  0  0  0  0  0  0
   58.6060   22.0470   45.2320 C   0  0  0  0  0  0  0  0  0  0  0  0
   57.9890   21.8420   43.8810 C   0  0  0  0  0  0  0  0  0  0  0  0
   59.7580   22.5450   45.3120 O   0  0  0  0  0  0  0  0  0  0  0  0
   56.2680   26.4110   46.1890 C   0  0  0  0  0  0  0  0  0  0  0  0
   57.1970   27.3710   45.7800 C   0  0  0  0  0  0  0  0  0  0  0  0
   55.1647   29.7223   44.8019 H   0  0  0  0  0  0  0  0  0  0  0  0
   54.6323   30.5998   43.3277 H   0  0  0  0  0  0  0  0  0  0  0  0
   54.7044   28.8050   43.3277 H   0  0  0  0  0  0  0  0  0  0  0  0
   56.9359   28.7774   42.8891 H   0  0  0  0  0  0  0  0  0  0  0  0
   56.6856   30.4923   42.3781 H   0  0  0  0  0  0  0  0  0  0  0  0
   56.8590   33.8180   45.9656 H   0  0  0  0  0  0  0  0  0  0  0  0
   58.2686   34.8211   47.7602 H   0  0  0  0  0  0  0  0  0  0  0  0
   62.2566   33.4707   47.8521 H   0  0  0  0  0  0  0  0  0  0  0  0
   61.7510   35.1782   48.1476 H   0  0  0  0  0  0  0  0  0  0  0  0
   63.7325   34.1405   49.5539 H   0  0  0  0  0  0  0  0  0  0  0  0
   62.4668   35.1560   50.3666 H   0  0  0  0  0  0  0  0  0  0  0  0
   62.9710   33.2210   51.6130 H   0  0  0  0  0  0  0  0  0  0  0  0
   62.9162   31.0689   50.9946 H   0  0  0  0  0  0  0  0  0  0  0  0
   61.8870   31.4236   49.5657 H   0  0  0  0  0  0  0  0  0  0  0  0
   63.6189   31.9003   49.5657 H   0  0  0  0  0  0  0  0  0  0  0  0
   60.6033   32.0740   51.3550 H   0  0  0  0  0  0  0  0  0  0  0  0
   60.9247   33.6726   52.1854 H   0  0  0  0  0  0  0  0  0  0  0  0
   58.9773   33.3804   50.3588 H   0  0  0  0  0  0  0  0  0  0  0  0
   59.9317   34.8992   50.5468 H   0  0  0  0  0  0  0  0  0  0  0  0
   60.8072   31.3086   47.7285 H   0  0  0  0  0  0  0  0  0  0  0  0
   58.9842   28.2563   43.1005 H   0  0  0  0  0  0  0  0  0  0  0  0
   59.9781   27.9105   44.5713 H   0  0  0  0  0  0  0  0  0  0  0  0
   58.4993   25.7458   43.0647 H   0  0  0  0  0  0  0  0  0  0  0  0
   56.8349   24.0402   43.7893 H   0  0  0  0  0  0  0  0  0  0  0  0
   53.5624   25.1713   44.6478 H   0  0  0  0  0  0  0  0  0  0  0  0
   51.7865   23.5504   45.2931 H   0  0  0  0  0  0  0  0  0  0  0  0
   52.3024   21.6898   46.8698 H   0  0  0  0  0  0  0  0  0  0  0  0
   54.5985   21.4399   47.7994 H   0  0  0  0  0  0  0  0  0  0  0  0
   56.9513   21.4972   44.0003 H   0  0  0  0  0  0  0  0  0  0  0  0
   57.9983   22.7915   43.3257 H   0  0  0  0  0  0  0  0  0  0  0  0
   58.5647   21.0869   43.3257 H   0  0  0  0  0  0  0  0  0  0  0  0
   55.6575   26.5867   47.0870 H   0  0  0  0  0  0  0  0  0  0  0  0
   57.3113   28.3014   46.3556 H   0  0  0  0  0  0  0  0  0  0  0  0
  1  2  1  0
  2  3  1  0
  3  4  2  0
  4  5  1  0
  5  6  2  0
  6  7  1  0
  7  8  2  0
  8  9  1  0
  9 10  1  0
 10 11  1  0
 11 12  1  0
 12 13  1  0
 12 14  1  0
 14 15  1  0
  8 16  1  0
 16 17  2  0
 17 18  1  0
 18 19  2  0
 18 20  1  0
 20 21  1  0
 21 22  1  0
 22 23  2  0
 23 24  1  0
 24 25  2  0
 25 26  1  0
 26 27  2  0
 27 28  1  0
 28 29  2  0
 29 30  1  0
 30 31  2  0
 31 32  1  0
 32 33  2  0
 32 34  2  0
 32 35  1  0
 35 36  1  0
 36 37  1  0
 36 38  2  0
 25 39  1  0
 39 40  2  0
 20  3  1  0
 40 22  1  0
 17  5  1  0
 31 26  1  0
 15  9  1  0
  1 41  1  0
  1 42  1  0
  1 43  1  0
  2 44  1  0
  2 45  1  0
  6 46  1  0
  7 47  1  0
 10 48  1  0
 10 49  1  0
 11 50  1  0
 11 51  1  0
 12 52  1  0
 13 53  1  0
 13 54  1  0
 13 55  1  0
 14 56  1  0
 14 57  1  0
 15 58  1  0
 15 59  1  0
 16 60  1  0
 21 61  1  0
 21 62  1  0
 23 63  1  0
 24 64  1  0
 27 65  1  0
 28 66  1  0
 29 67  1  0
 30 68  1  0
 37 69  1  0
 37 70  1  0
 37 71  1  0
 39 72  1  0
 40 73  1  0
M  CHG  2  12   1  35  -1
M  END
>  <UniqueID>  (8) 
8

>  <SMILES>  (8) 
CCc1nc2ccc(N3CC[NH+](C)CC3)cc2c(=O)n1Cc1ccc(-c2ccccc2S(=O)(=O)[N-]C(C)=O)cc1

>  <Energy>  (8) 
103.00435698912428

>  <Genealogy>  (8) 
CCc1nc2ccc(N3CC[NH+](C)CC3)cc2c(=O)n1Cc1ccc(-c2ccccc2S(=O)(=O)[N-]C(C)=O)cc1 (protonated)
CCc1nc2ccc(N3CC[NH+](C)CC3)cc2c(=O)n1Cc1ccc(-c2ccccc2S(=O)(=O)[N-]C(C)=O)cc1 (3D coordinates assigned)
CCc1nc2ccc(N3CC[NH+](C)CC3)cc2c(=O)n1Cc1ccc(-c2ccccc2S(=O)(=O)[N-]C(C)=O)cc1 (nonaromatic ring conformer: 103.00435698912428 kcal/mol)

>  <smiles>  (8) 
CCc1nc2ccc(N3CCN(C)CC3)cc2c(=O)n1Cc1ccc(-c2ccccc2S(=O)(=O)NC(C)=O)cc1

>  <score_type>  (8) 
oracle

>  <origin>  (8) 
adg

>  <m_score__min__energy>  (8) 
-11.19

>  <m_primary>  (8) 
energy

$$$$
8:0
     RDKit          3D

 41 42  0  0  0  0  0  0  0  0999 V2000
   56.8800   32.7060   40.7390 C   0  0  0  0  0  0  0  0  0  0  0  0
   58.2520   32.4310   41.3420 C   0  0  0  0  0  0  0  0  0  0  0  0
   58.1620   32.3720   42.8020 N   0  0  0  0  0  0  0  0  0  0  0  0
   58.7350   33.2610   43.5980 N   0  0  0  0  0  0  0  0  0  0  0  0
   58.6110   32.8510   44.8730 C   0  0  0  0  0  0  0  0  0  0  0  0
   59.2540   33.5460   46.0330 C   0  0  0  0  0  0  0  0  0  0  0  0
   57.9440   31.6320   44.8920 C   0  0  0  0  0  0  0  0  0  0  0  0
   57.7980   30.6950   46.0590 C   0  0  0  0  0  0  0  0  0  0  0  0
   58.9650   29.8130   46.1400 N   0  0  0  0  0  0  0  0  0  0  0  0
   60.2030   30.2850   46.7580 C   0  0  0  0  0  0  0  0  0  0  0  0
   58.9760   28.5930   45.3870 C   0  0  0  0  0  0  0  0  0  0  0  0
   59.8890   28.4060   44.5380 O   0  0  0  0  0  0  0  0  0  0  0  0
   57.9110   27.5780   45.5710 C   0  0  0  0  0  0  0  0  0  0  0  0
   58.2260   26.2180   45.7250 C   0  0  0  0  0  0  0  0  0  0  0  0
   57.2120   25.2800   45.9280 C   0  0  0  0  0  0  0  0  0  0  0  0
   55.8850   25.7070   45.9780 C   0  0  0  0  0  0  0  0  0  0  0  0
   54.9600   24.8750   46.1640 O   0  0  0  0  0  0  0  0  0  0  0  0
   55.5910   27.0250   45.8250 N   0  0  0  0  0  0  0  0  0  0  0  0
   56.5580   27.9580   45.6230 C   0  0  0  0  0  0  0  0  0  0  0  0
   57.6640   31.3640   43.5550 C   0  0  0  0  0  0  0  0  0  0  0  0
   57.0690   30.0960   43.0110 C   0  0  0  0  0  0  0  0  0  0  0  0
   56.1474   32.8528   41.5463 H   0  0  0  0  0  0  0  0  0  0  0  0
   56.9276   33.6125   40.1177 H   0  0  0  0  0  0  0  0  0  0  0  0
   56.5745   31.8512   40.1177 H   0  0  0  0  0  0  0  0  0  0  0  0
   58.6293   31.4700   40.9624 H   0  0  0  0  0  0  0  0  0  0  0  0
   58.9373   33.2432   41.0580 H   0  0  0  0  0  0  0  0  0  0  0  0
   59.2510   34.1090   43.2710 H   0  0  0  0  0  0  0  0  0  0  0  0
   58.8658   33.1264   46.9728 H   0  0  0  0  0  0  0  0  0  0  0  0
   60.3435   33.4011   45.9892 H   0  0  0  0  0  0  0  0  0  0  0  0
   59.0250   34.6210   45.9892 H   0  0  0  0  0  0  0  0  0  0  0  0
   57.7172   31.2790   46.9876 H   0  0  0  0  0  0  0  0  0  0  0  0
   56.8925   30.0855   45.9227 H   0  0  0  0  0  0  0  0  0  0  0  0
   60.1039   30.2472   47.8529 H   0  0  0  0  0  0  0  0  0  0  0  0
   61.0383   29.6422   46.4431 H   0  0  0  0  0  0  0  0  0  0  0  0
   60.3984   31.3207   46.4431 H   0  0  0  0  0  0  0  0  0  0  0  0
   59.2754   25.8907   45.6855 H   0  0  0  0  0  0  0  0  0  0  0  0
   57.4572   24.2143   46.0474 H   0  0  0  0  0  0  0  0  0  0  0  0
   56.2812   29.0154   45.4996 H   0  0  0  0  0  0  0  0  0  0  0  0
   56.7643   29.4467   43.8450 H   0  0  0  0  0  0  0  0  0  0  0  0
   56.1905   30.3381   42.3949 H   0  0  0  0  0  0  0  0  0  0  0  0
   57.8166   29.5750   42.3949 H   0  0  0  0  0  0  0  0  0  0  0  0
  1  2  1  0
  2  3  1  0
  3  4  1  0
  4  5  2  0
  5  6  1  0
  5  7  1  0
  7  8  1  0
  8  9  1  0
  9 10  1  0
  9 11  1  0
 11 12  2  0
 11 13  1  0
 13 14  1  0
 14 15  2  0
 15 16  1  0
 16 17  2  0
 16 18  1  0
 18 19  1  0
  7 20  2  0
 20 21  1  0
 20  3  1  0
 19 13  2  0
  1 22  1  0
  1 23  1  0
  1 24  1  0
  2 25  1  0
  2 26  1  0
  4 27  1  0
  6 28  1  0
  6 29  1  0
  6 30  1  0
  8 31  1  0
  8 32  1  0
 10 33  1  0
 10 34  1  0
 10 35  1  0
 14 36  1  0
 15 37  1  0
 19 38  1  0
 21 39  1  0
 21 40  1  0
 21 41  1  0
M  CHG  2   4   1  18  -1
M  END
>  <UniqueID>  (9) 
9

>  <SMILES>  (9) 
CCn1[nH+]c(C)c(CN(C)C(=O)c2ccc(=O)[n-]c2)c1C

>  <Energy>  (9) 
67.45211188639627

>  <Genealogy>  (9) 
CCn1[nH+]c(C)c(CN(C)C(=O)c2ccc(=O)[n-]c2)c1C (protonated)
CCn1[nH+]c(C)c(CN(C)C(=O)c2ccc(=O)[n-]c2)c1C (3D coordinates assigned)
CCn1[nH+]c(C)c(CN(C)C(=O)c2ccc(=O)[n-]c2)c1C (optimized conformer: 67.45211188639627 kcal/mol)

>  <smiles>  (9) 
CCn1nc(C)c(CN(C)C(=O)c2ccc(=O)[nH]c2)c1C

>  <score_type>  (9) 
oracle

>  <origin>  (9) 
adg

>  <m_score__min__energy>  (9) 
-7.7599999999999998

>  <m_primary>  (9) 
energy

$$$$
9:0
     RDKit          3D

 37 37  0  0  0  0  0  0  0  0999 V2000
   58.6218   33.5863   44.3192 H   0  0  0  0  0  0  0  0  0  0  0  0
   58.1030   32.7260   43.8710 C   0  0  0  0  0  0  0  0  0  0  0  0
   57.9460   32.6560   42.4880 C   0  0  0  0  0  0  0  0  0  0  0  0
   58.3423   33.4596   41.8499 H   0  0  0  0  0  0  0  0  0  0  0  0
   57.3060   31.6000   41.9260 N   0  0  0  0  0  0  0  0  0  0  0  0
   57.1960   31.5630   40.8880 H   0  0  0  0  0  0  0  0  0  0  0  0
   56.8080   30.5870   42.6830 C   0  0  0  0  0  0  0  0  0  0  0  0
   56.2937   29.7456   42.1956 H   0  0  0  0  0  0  0  0  0  0  0  0
   56.9430   30.6030   44.0800 C   0  0  0  0  0  0  0  0  0  0  0  0
   56.3900   29.4550   44.8080 C   0  0  0  0  0  0  0  0  0  0  0  0
   55.1420   29.3520   44.9570 O   0  0  0  0  0  0  0  0  0  0  0  0
   57.2770   28.4950   45.3880 N   0  0  0  0  0  0  0  0  0  0  0  0
   57.9780   27.4730   44.6170 C   0  0  0  0  0  0  0  0  0  0  0  0
   58.9356   27.8834   44.2640 H   0  0  0  0  0  0  0  0  0  0  0  0
   57.3443   27.1819   43.7663 H   0  0  0  0  0  0  0  0  0  0  0  0
   58.2510   26.2270   45.4690 C   0  0  0  0  0  0  0  0  0  0  0  0
   59.3108   26.2227   45.7637 H   0  0  0  0  0  0  0  0  0  0  0  0
   58.0038   25.3406   44.8663 H   0  0  0  0  0  0  0  0  0  0  0  0
   57.3850   26.1990   46.7330 C   0  0  0  0  0  0  0  0  0  0  0  0
   57.3879   27.1964   47.1969 H   0  0  0  0  0  0  0  0  0  0  0  0
   57.7970   25.4565   47.4323 H   0  0  0  0  0  0  0  0  0  0  0  0
   55.9800   25.8180   46.3920 C   0  0  0  0  0  0  0  0  0  0  0  0
   55.1670   26.7030   46.0080 O   0  0  0  0  0  0  0  0  0  0  0  0
   55.5950   24.4750   46.4670 O   0  0  0  0  0  0  0  0  0  0  0  0
   55.1080   23.7340   45.3490 C   0  0  0  0  0  0  0  0  0  0  0  0
   54.1163   24.1167   45.0661 H   0  0  0  0  0  0  0  0  0  0  0  0
   55.0408   22.6725   45.6296 H   0  0  0  0  0  0  0  0  0  0  0  0
   56.0540   23.8690   44.1620 C   0  0  0  0  0  0  0  0  0  0  0  0
   57.0814   24.0156   44.5267 H   0  0  0  0  0  0  0  0  0  0  0  0
   56.0086   22.9553   43.5512 H   0  0  0  0  0  0  0  0  0  0  0  0
   55.7549   24.7336   43.5512 H   0  0  0  0  0  0  0  0  0  0  0  0
   57.6040   31.7070   44.6950 C   0  0  0  0  0  0  0  0  0  0  0  0
   57.7740   31.8560   45.9830 N   0  0  0  0  0  0  0  0  0  0  0  0
   57.6950   33.0580   46.8040 C   0  0  0  0  0  0  0  0  0  0  0  0
   57.7134   32.7775   47.8675 H   0  0  0  0  0  0  0  0  0  0  0  0
   58.5522   33.7106   46.5820 H   0  0  0  0  0  0  0  0  0  0  0  0
   56.7598   33.5928   46.5820 H   0  0  0  0  0  0  0  0  0  0  0  0
  1  2  1  0
  2  3  2  0
  3  4  1  0
  3  5  1  0
  5  6  1  0
  5  7  1  0
  7  8  1  0
  7  9  2  0
  9 10  1  0
 10 11  2  0
 10 12  1  0
 12 13  1  0
 13 14  1  0
 13 15  1  0
 13 16  1  0
 16 17  1  0
 16 18  1  0
 16 19  1  0
 19 20  1  0
 19 21  1  0
 19 22  1  0
 22 23  2  0
 22 24  1  0
 24 25  1  0
 25 26  1  0
 25 27  1  0
 25 28  1  0
 28 29  1  0
 28 30  1  0
 28 31  1  0
  9 32  1  0
 32 33  2  0
 33 34  1  0
 34 35  1  0
 34 36  1  0
 34 37  1  0
 32  2  1  0
M  CHG  1  12  -1
M  END
>  <UniqueID>  (10) 
10

>  <SMILES>  (10) 
CCOC(=O)CCC[N-]C(=O)c1c[nH]cc/c1=N/C

>  <Energy>  (10) 
37.623948620993644

>  <Genealogy>  (10) 
CCOC(=O)CCC[N-]C(=O)c1c[nH]ccc1=NC (protonated)
CCOC(=O)CCC[N-]C(=O)c1c[nH]cc/c1=N/C (cis-trans isomerization)
CCOC(=O)CCC[N-]C(=O)c1c[nH]cc/c1=N/C (3D coordinates assigned)
CCOC(=O)CCC[N-]C(=O)c1c[nH]cc/c1=N/C (optimized conformer: 37.623948620993644 kcal/mol)

>  <smiles>  (10) 
CCOC(=O)CCCNC(=O)c1c[nH]ccc1=NC

>  <score_type>  (10) 
oracle

>  <origin>  (10) 
adg

>  <m_score__min__energy>  (10) 
-8.2899999999999991

>  <m_primary>  (10) 
energy

$$$$
10:0
     RDKit          3D

 27 27  0  0  0  0  0  0  0  0999 V2000
   59.6310   35.3480   46.6300 C   0  0  0  0  0  0  0  0  0  0  0  0
   58.9440   34.2120   45.9300 C   0  0  0  0  0  0  0  0  0  0  0  0
   58.9050   34.1660   44.5280 C   0  0  0  0  0  0  0  0  0  0  0  0
   58.2990   33.0890   43.8740 C   0  0  0  0  0  0  0  0  0  0  0  0
   57.7350   32.0420   44.6150 C   0  0  0  0  0  0  0  0  0  0  0  0
   56.9880   30.6680   43.8010 S   0  0  0  0  0  0  0  0  0  0  0  0
   55.6940   30.3440   44.4960 O   0  0  0  0  0  0  0  0  0  0  0  0
   56.6880   31.0230   42.3700 O   0  0  0  0  0  0  0  0  0  0  0  0
   58.0550   29.2880   43.8640 N   0  0  0  0  0  0  0  0  0  0  0  0
   59.3210   29.6650   44.5070 C   0  0  0  0  0  0  0  0  0  0  0  0
   57.4120   28.1860   44.5940 C   0  0  0  0  0  0  0  0  0  0  0  0
   57.7940   32.0740   46.0140 C   0  0  0  0  0  0  0  0  0  0  0  0
   58.3990   33.1510   46.6690 C   0  0  0  0  0  0  0  0  0  0  0  0
   59.5485   35.2116   47.7184 H   0  0  0  0  0  0  0  0  0  0  0  0
   60.6925   35.3677   46.3423 H   0  0  0  0  0  0  0  0  0  0  0  0
   59.1555   36.2973   46.3423 H   0  0  0  0  0  0  0  0  0  0  0  0
   59.3533   34.9810   43.9408 H   0  0  0  0  0  0  0  0  0  0  0  0
   58.2649   33.0635   42.7748 H   0  0  0  0  0  0  0  0  0  0  0  0
   58.2510   28.9770   42.8840 H   0  0  0  0  0  0  0  0  0  0  0  0
   59.2019   29.6295   45.6000 H   0  0  0  0  0  0  0  0  0  0  0  0
   60.1108   28.9631   44.2012 H   0  0  0  0  0  0  0  0  0  0  0  0
   59.5982   30.6847   44.2012 H   0  0  0  0  0  0  0  0  0  0  0  0
   57.5112   28.3560   45.6763 H   0  0  0  0  0  0  0  0  0  0  0  0
   56.3461   28.1413   44.3260 H   0  0  0  0  0  0  0  0  0  0  0  0
   57.8976   27.2361   44.3260 H   0  0  0  0  0  0  0  0  0  0  0  0
   57.3627   31.2487   46.5996 H   0  0  0  0  0  0  0  0  0  0  0  0
   58.4479   33.1666   47.7678 H   0  0  0  0  0  0  0  0  0  0  0  0
  1  2  1  0
  2  3  2  0
  3  4  1  0
  4  5  2  0
  5  6  1  0
  6  7  2  0
  6  8  2  0
  6  9  1  0
  9 10  1  0
  9 11  1  0
  5 12  1  0
 12 13  2  0
 13  2  1  0
  1 14  1  0
  1 15  1  0
  1 16  1  0
  3 17  1  0
  4 18  1  0
  9 19  1  0
 10 20  1  0
 10 21  1  0
 10 22  1  0
 11 23  1  0
 11 24  1  0
 11 25  1  0
 12 26  1  0
 13 27  1  0
M  CHG  1   9   1
M  END
>  <UniqueID>  (11) 
11

>  <SMILES>  (11) 
Cc1ccc(S(=O)(=O)[NH+](C)C)cc1

>  <Energy>  (11) 
21.358581795500225

>  <Genealogy>  (11) 
Cc1ccc(S(=O)(=O)[NH+](C)C)cc1 (protonated)
Cc1ccc(S(=O)(=O)[NH+](C)C)cc1 (3D coordinates assigned)
Cc1ccc(S(=O)(=O)[NH+](C)C)cc1 (optimized conformer: 21.358581795500225 kcal/mol)

>  <smiles>  (11) 
Cc1ccc(S(=O)(=O)N(C)C)cc1

>  <score_type>  (11) 
oracle

>  <origin>  (11) 
adg

>  <m_score__min__energy>  (11) 
-4.9800000000000004

>  <m_primary>  (11) 
energy

$$$$
11:0
     RDKit          3D

 35 36  0  0  0  0  0  0  0  0999 V2000
   57.9346   30.1324   44.9852 H   0  0  0  0  0  0  0  0  0  0  0  0
   57.9000   29.1370   45.4520 C   0  0  0  0  0  0  0  0  0  0  0  0
   59.0490   28.6110   46.0510 C   0  0  0  0  0  0  0  0  0  0  0  0
   60.2930   29.3290   46.0270 N   0  0  0  0  0  0  0  0  0  0  0  0
   60.5140   30.5570   46.4130 C   0  0  0  0  0  0  0  0  0  0  0  0
   61.6660   30.9230   47.1400 C   0  0  0  0  0  0  0  0  0  0  0  0
   62.4151   30.1639   47.4096 H   0  0  0  0  0  0  0  0  0  0  0  0
   61.8490   32.2550   47.5150 C   0  0  0  0  0  0  0  0  0  0  0  0
   62.9530   32.6180   48.2140 F   0  0  0  0  0  0  0  0  0  0  0  0
   60.9020   33.2130   47.1610 C   0  0  0  0  0  0  0  0  0  0  0  0
   61.0361   34.2633   47.4592 H   0  0  0  0  0  0  0  0  0  0  0  0
   59.7810   32.8270   46.4240 C   0  0  0  0  0  0  0  0  0  0  0  0
   58.5870   34.0270   45.9600 Cl  0  0  0  0  0  0  0  0  0  0  0  0
   59.6160   31.5230   46.0630 N   0  0  0  0  0  0  0  0  0  0  0  0
   58.7680   31.2610   45.5100 H   0  0  0  0  0  0  0  0  0  0  0  0
   59.0200   27.3210   46.5830 C   0  0  0  0  0  0  0  0  0  0  0  0
   59.9380   26.8896   47.0086 H   0  0  0  0  0  0  0  0  0  0  0  0
   57.8320   26.5630   46.5830 C   0  0  0  0  0  0  0  0  0  0  0  0
   57.8020   25.2730   47.1360 O   0  0  0  0  0  0  0  0  0  0  0  0
   58.0920   24.0730   46.4270 C   0  0  0  0  0  0  0  0  0  0  0  0
   58.2880   23.2619   47.1437 H   0  0  0  0  0  0  0  0  0  0  0  0
   57.2330   23.8040   45.7947 H   0  0  0  0  0  0  0  0  0  0  0  0
   58.9790   24.2259   45.7947 H   0  0  0  0  0  0  0  0  0  0  0  0
   56.6580   27.1180   46.0100 C   0  0  0  0  0  0  0  0  0  0  0  0
   55.4190   26.4510   45.9660 O   0  0  0  0  0  0  0  0  0  0  0  0
   55.1990   25.0900   45.6080 C   0  0  0  0  0  0  0  0  0  0  0  0
   55.1008   24.4823   46.5196 H   0  0  0  0  0  0  0  0  0  0  0  0
   54.2765   25.0116   45.0139 H   0  0  0  0  0  0  0  0  0  0  0  0
   56.0498   24.7250   45.0139 H   0  0  0  0  0  0  0  0  0  0  0  0
   56.7010   28.4030   45.4420 C   0  0  0  0  0  0  0  0  0  0  0  0
   55.5240   28.9160   44.8700 O   0  0  0  0  0  0  0  0  0  0  0  0
   55.4790   29.7170   43.6940 C   0  0  0  0  0  0  0  0  0  0  0  0
   55.4194   30.7787   43.9756 H   0  0  0  0  0  0  0  0  0  0  0  0
   56.3882   29.5460   43.0989 H   0  0  0  0  0  0  0  0  0  0  0  0
   54.5947   29.4452   43.0989 H   0  0  0  0  0  0  0  0  0  0  0  0
  1  2  1  0
  2  3  2  0
  3  4  1  0
  4  5  2  0
  5  6  1  0
  6  7  1  0
  6  8  2  0
  8  9  1  0
  8 10  1  0
 10 11  1  0
 10 12  2  0
 12 13  1  0
 12 14  1  0
 14 15  1  0
  3 16  1  0
 16 17  1  0
 16 18  2  0
 18 19  1  0
 19 20  1  0
 20 21  1  0
 20 22  1  0
 20 23  1  0
 18 24  1  0
 24 25  1  0
 25 26  1  0
 26 27  1  0
 26 28  1  0
 26 29  1  0
 24 30  2  0
 30 31  1  0
 31 32  1  0
 32 33  1  0
 32 34  1  0
 32 35  1  0
 30  2  1  0
 14  5  1  0
M  END
>  <UniqueID>  (12) 
12

>  <SMILES>  (12) 
COc1cc(/N=c2\cc(F)cc(Cl)[nH]2)cc(OC)c1OC

>  <Energy>  (12) 
46.621955048677144

>  <Genealogy>  (12) 
COc1cc(/N=c2\cc(F)cc(Cl)[nH]2)cc(OC)c1OC (cis-trans isomerization)
COc1cc(/N=c2\cc(F)cc(Cl)[nH]2)cc(OC)c1OC (3D coordinates assigned)
COc1cc(/N=c2\cc(F)cc(Cl)[nH]2)cc(OC)c1OC (optimized conformer: 46.621955048677144 kcal/mol)

>  <smiles>  (12) 
COc1cc(N=c2cc(F)cc(Cl)[nH]2)cc(OC)c1OC

>  <score_type>  (12) 
oracle

>  <origin>  (12) 
adg

>  <m_score__min__energy>  (12) 
-6.0199999999999996

>  <m_primary>  (12) 
energy

$$$$
12:0
     RDKit          3D

 33 35  0  0  0  0  0  0  0  0999 V2000
   57.5960   32.8510   44.8800 C   0  0  0  0  0  0  0  0  0  0  0  0
   56.9200   31.5970   44.8820 O   0  0  0  0  0  0  0  0  0  0  0  0
   57.4990   30.3830   45.2830 C   0  0  0  0  0  0  0  0  0  0  0  0
   58.8210   30.4010   45.7380 C   0  0  0  0  0  0  0  0  0  0  0  0
   59.4440   29.2210   46.1490 C   0  0  0  0  0  0  0  0  0  0  0  0
   58.7500   28.0110   46.1090 C   0  0  0  0  0  0  0  0  0  0  0  0
   57.4190   27.9650   45.6550 C   0  0  0  0  0  0  0  0  0  0  0  0
   56.6970   26.6690   45.6200 C   0  0  0  0  0  0  0  0  0  0  0  0
   57.1090   25.5000   45.0040 C   0  0  0  0  0  0  0  0  0  0  0  0
   56.0900   24.6050   45.2660 C   0  0  0  0  0  0  0  0  0  0  0  0
   56.0160   23.1650   44.8280 C   0  0  2  0  0  0  0  0  0  0  0  0
   57.3500   22.4760   44.8190 C   0  0  0  0  0  0  0  0  0  0  0  0
   57.1820   21.4420   43.7210 C   0  0  0  0  0  0  0  0  0  0  0  0
   56.1270   21.8240   42.8650 O   0  0  0  0  0  0  0  0  0  0  0  0
   55.5450   22.9930   43.3950 C   0  0  0  0  0  0  0  0  0  0  0  0
   55.1320   25.2090   45.9940 N   0  0  0  0  0  0  0  0  0  0  0  0
   55.5010   26.4620   46.2080 N   0  0  0  0  0  0  0  0  0  0  0  0
   56.7990   29.1610   45.2430 C   0  0  0  0  0  0  0  0  0  0  0  0
   57.7707   33.1750   45.9166 H   0  0  0  0  0  0  0  0  0  0  0  0
   58.5602   32.7469   44.3609 H   0  0  0  0  0  0  0  0  0  0  0  0
   56.9791   33.5993   44.3609 H   0  0  0  0  0  0  0  0  0  0  0  0
   59.3740   31.3513   45.7724 H   0  0  0  0  0  0  0  0  0  0  0  0
   60.4844   29.2452   46.5052 H   0  0  0  0  0  0  0  0  0  0  0  0
   59.2475   27.0857   46.4350 H   0  0  0  0  0  0  0  0  0  0  0  0
   58.0347   25.3242   44.4365 H   0  0  0  0  0  0  0  0  0  0  0  0
   55.3172   22.7379   45.5623 H   0  0  0  0  0  0  0  0  0  0  0  0
   58.1595   23.1813   44.5796 H   0  0  0  0  0  0  0  0  0  0  0  0
   57.6238   22.0406   45.7914 H   0  0  0  0  0  0  0  0  0  0  0  0
   58.1144   21.3688   43.1420 H   0  0  0  0  0  0  0  0  0  0  0  0
   56.9497   20.4661   44.1722 H   0  0  0  0  0  0  0  0  0  0  0  0
   55.8529   23.8635   42.7972 H   0  0  0  0  0  0  0  0  0  0  0  0
   54.4484   22.9108   43.3684 H   0  0  0  0  0  0  0  0  0  0  0  0
   55.7585   29.1406   44.8867 H   0  0  0  0  0  0  0  0  0  0  0  0
  1  2  1  0
  2  3  1  0
  3  4  2  0
  4  5  1  0
  5  6  2  0
  6  7  1  0
  7  8  1  0
  8  9  1  0
  9 10  2  0
 10 11  1  0
 11 12  1  0
 12 13  1  0
 13 14  1  0
 14 15  1  0
 10 16  1  0
 16 17  1  0
  7 18  2  0
 18  3  1  0
 17  8  2  0
 15 11  1  0
  1 19  1  0
  1 20  1  0
  1 21  1  0
  4 22  1  0
  5 23  1  0
  6 24  1  0
  9 25  1  0
 11 26  1  1
 12 27  1  0
 12 28  1  0
 13 29  1  0
 13 30  1  0
 15 31  1  0
 15 32  1  0
 18 33  1  0
M  CHG  1  16  -1
M  END
>  <UniqueID>  (13) 
13

>  <SMILES>  (13) 
COc1cccc(-c2cc([C@@H]3CCOC3)[n-]n2)c1

>  <Energy>  (13) 
65.01194677648581

>  <Genealogy>  (13) 
COc1cccc(-c2cc(C3CCOC3)[n-]n2)c1 (protonated)
COc1cccc(-c2cc([C@@H]3CCOC3)[n-]n2)c1 (chirality)
COc1cccc(-c2cc([C@@H]3CCOC3)[n-]n2)c1 (3D coordinates assigned)
COc1cccc(-c2cc([C@@H]3CCOC3)[n-]n2)c1 (nonaromatic ring conformer: 65.01194677648581 kcal/mol)

>  <smiles>  (13) 
COc1cccc(-c2cc(C3CCOC3)[nH]n2)c1

>  <score_type>  (13) 
oracle

>  <origin>  (13) 
adg

>  <m_score__min__energy>  (13) 
-9.2300000000000004

>  <m_primary>  (13) 
energy

$$$$
13:0
     RDKit          3D

 44 47  0  0  0  0  0  0  0  0999 V2000
   58.2992   35.7123   44.7198 H   0  0  0  0  0  0  0  0  0  0  0  0
   58.8460   34.8880   45.2010 C   0  0  0  0  0  0  0  0  0  0  0  0
   59.8240   35.1940   46.0060 N   0  0  0  0  0  0  0  0  0  0  0  0
   60.1800   34.5230   47.2230 C   0  0  0  0  0  0  0  0  0  0  0  0
   61.4080   33.9700   47.5480 C   0  0  0  0  0  0  0  0  0  0  0  0
   62.5720   33.8620   46.7030 C   0  0  0  0  0  0  0  0  0  0  0  0
   63.5060   33.7770   46.0250 N   0  0  0  0  0  0  0  0  0  0  0  0
   61.2060   33.3530   48.7740 C   0  0  0  0  0  0  0  0  0  0  0  0
   62.1970   32.5270   49.5000 C   0  0  0  0  0  0  0  0  0  0  0  0
   61.8750   31.2220   49.9120 C   0  0  0  0  0  0  0  0  0  0  0  0
   60.8790   30.8091   49.6943 H   0  0  0  0  0  0  0  0  0  0  0  0
   62.8150   30.4470   50.5970 C   0  0  0  0  0  0  0  0  0  0  0  0
   62.5559   29.4280   50.9202 H   0  0  0  0  0  0  0  0  0  0  0  0
   64.0840   30.9650   50.8720 C   0  0  0  0  0  0  0  0  0  0  0  0
   65.2620   29.9910   51.7340 Cl  0  0  0  0  0  0  0  0  0  0  0  0
   64.4150   32.2590   50.4570 C   0  0  0  0  0  0  0  0  0  0  0  0
   65.4149   32.6653   50.6696 H   0  0  0  0  0  0  0  0  0  0  0  0
   63.4760   33.0370   49.7720 C   0  0  0  0  0  0  0  0  0  0  0  0
   63.7411   34.0532   49.4449 H   0  0  0  0  0  0  0  0  0  0  0  0
   59.9100   33.5380   49.1370 N   0  0  0  0  0  0  0  0  0  0  0  0
   59.2700   33.1250   50.3580 C   0  0  0  0  0  0  0  0  0  0  0  0
   58.4090   32.0160   50.3590 C   0  0  0  0  0  0  0  0  0  0  0  0
   58.2300   31.4604   49.4266 H   0  0  0  0  0  0  0  0  0  0  0  0
   57.7780   31.6150   51.5410 C   0  0  0  0  0  0  0  0  0  0  0  0
   57.1092   30.7416   51.5369 H   0  0  0  0  0  0  0  0  0  0  0  0
   57.9950   32.3210   52.7270 C   0  0  0  0  0  0  0  0  0  0  0  0
   57.5021   32.0004   53.6566 H   0  0  0  0  0  0  0  0  0  0  0  0
   58.8390   33.4350   52.7310 C   0  0  0  0  0  0  0  0  0  0  0  0
   59.0064   33.9940   53.6635 H   0  0  0  0  0  0  0  0  0  0  0  0
   59.4710   33.8400   51.5510 C   0  0  0  0  0  0  0  0  0  0  0  0
   60.1283   34.7220   51.5567 H   0  0  0  0  0  0  0  0  0  0  0  0
   59.2930   34.2270   48.1880 N   0  0  0  0  0  0  0  0  0  0  0  0
   58.2870   34.5120   48.2060 H   0  0  0  0  0  0  0  0  0  0  0  0
   58.4230   33.5040   44.8920 C   0  0  0  0  0  0  0  0  0  0  0  0
   58.1790   33.0840   43.5710 C   0  0  0  0  0  0  0  0  0  0  0  0
   58.3084   33.7915   42.7387 H   0  0  0  0  0  0  0  0  0  0  0  0
   57.7730   31.7720   43.3120 C   0  0  0  0  0  0  0  0  0  0  0  0
   57.6010   31.4452   42.2759 H   0  0  0  0  0  0  0  0  0  0  0  0
   57.5850   30.8740   44.3670 C   0  0  0  0  0  0  0  0  0  0  0  0
   57.0330   29.0820   44.0090 Br  0  0  0  0  0  0  0  0  0  0  0  0
   57.7900   31.2940   45.6850 C   0  0  0  0  0  0  0  0  0  0  0  0
   57.6310   30.5917   46.5165 H   0  0  0  0  0  0  0  0  0  0  0  0
   58.1970   32.6060   45.9470 C   0  0  0  0  0  0  0  0  0  0  0  0
   58.3409   32.9364   46.9863 H   0  0  0  0  0  0  0  0  0  0  0  0
  1  2  1  0
  2  3  2  0
  3  4  1  0
  4  5  1  0
  5  6  1  0
  6  7  3  0
  5  8  2  0
  8  9  1  0
  9 10  2  0
 10 11  1  0
 10 12  1  0
 12 13  1  0
 12 14  2  0
 14 15  1  0
 14 16  1  0
 16 17  1  0
 16 18  2  0
 18 19  1  0
  8 20  1  0
 20 21  1  0
 21 22  2  0
 22 23  1  0
 22 24  1  0
 24 25  1  0
 24 26  2  0
 26 27  1  0
 26 28  1  0
 28 29  1  0
 28 30  2  0
 30 31  1  0
 20 32  1  0
 32 33  1  0
  2 34  1  0
 34 35  2  0
 35 36  1  0
 35 37  1  0
 37 38  1  0
 37 39  2  0
 39 40  1  0
 39 41  1  0
 41 42  1  0
 41 43  2  0
 43 44  1  0
 32  4  2  0
 43 34  1  0
 18  9  1  0
 30 21  1  0
M  CHG  1  32   1
M  END
>  <UniqueID>  (14) 
14

>  <SMILES>  (14) 
N#Cc1c(/N=C\c2ccc(Br)cc2)[nH+]n(-c2ccccc2)c1-c1ccc(Cl)cc1

>  <Energy>  (14) 
100.43287822081636

>  <Genealogy>  (14) 
N#Cc1c(N=Cc2ccc(Br)cc2)[nH+]n(-c2ccccc2)c1-c1ccc(Cl)cc1 (protonated)
N#Cc1c(/N=C\c2ccc(Br)cc2)[nH+]n(-c2ccccc2)c1-c1ccc(Cl)cc1 (cis-trans isomerization)
N#Cc1c(/N=C\c2ccc(Br)cc2)[nH+]n(-c2ccccc2)c1-c1ccc(Cl)cc1 (3D coordinates assigned)
N#Cc1c(/N=C\c2ccc(Br)cc2)[nH+]n(-c2ccccc2)c1-c1ccc(Cl)cc1 (optimized conformer: 100.43287822081636 kcal/mol)

>  <smiles>  (14) 
N#Cc1c(N=Cc2ccc(Br)cc2)nn(-c2ccccc2)c1-c1ccc(Cl)cc1

>  <score_type>  (14) 
oracle

>  <origin>  (14) 
adg

>  <m_score__min__energy>  (14) 
-7.5800000000000001

>  <m_primary>  (14) 
energy

$$$$
14:0
     RDKit          3D

 35 37  0  0  0  0  0  0  0  0999 V2000
   53.9470   24.8560   45.6220 C   0  0  0  0  0  0  0  0  0  0  0  0
   54.8470   25.9070   45.9580 O   0  0  0  0  0  0  0  0  0  0  0  0
   56.2440   25.7850   45.9570 C   0  0  0  0  0  0  0  0  0  0  0  0
   56.9060   24.7010   45.3500 C   0  0  0  0  0  0  0  0  0  0  0  0
   58.3020   24.6350   45.3630 C   0  0  0  0  0  0  0  0  0  0  0  0
   59.0470   25.6370   45.9870 C   0  0  0  0  0  0  0  0  0  0  0  0
   58.4000   26.7090   46.6190 C   0  0  0  0  0  0  0  0  0  0  0  0
   59.1990   27.7780   47.2500 C   0  0  0  0  0  0  0  0  0  0  0  0
   59.2610   27.9270   48.5910 N   0  0  0  0  0  0  0  0  0  0  0  0
   60.0370   29.0140   48.7710 C   0  0  0  0  0  0  0  0  0  0  0  0
   60.4200   29.5140   47.5500 C   0  0  0  0  0  0  0  0  0  0  0  0
   59.9040   28.7280   46.5860 N   0  0  0  0  0  0  0  0  0  0  0  0
   59.8960   29.0400   45.1520 C   0  0  0  0  0  0  0  0  0  0  0  0
   58.5480   29.5620   44.7270 C   0  0  0  0  0  0  0  0  0  0  0  0
   57.7650   28.8540   43.8020 C   0  0  0  0  0  0  0  0  0  0  0  0
   56.5060   29.3360   43.4410 C   0  0  0  0  0  0  0  0  0  0  0  0
   56.0360   30.5200   44.0130 C   0  0  0  0  0  0  0  0  0  0  0  0
   56.8010   31.1900   44.9150 N   0  0  0  0  0  0  0  0  0  0  0  0
   58.0320   30.7410   45.2830 C   0  0  0  0  0  0  0  0  0  0  0  0
   56.9990   26.7860   46.5810 C   0  0  0  0  0  0  0  0  0  0  0  0
   53.5561   24.3995   46.5433 H   0  0  0  0  0  0  0  0  0  0  0  0
   53.1126   25.2625   45.0316 H   0  0  0  0  0  0  0  0  0  0  0  0
   54.4770   24.0941   45.0316 H   0  0  0  0  0  0  0  0  0  0  0  0
   56.3234   23.9043   44.8645 H   0  0  0  0  0  0  0  0  0  0  0  0
   58.8154   23.7906   44.8799 H   0  0  0  0  0  0  0  0  0  0  0  0
   60.1458   25.5857   45.9831 H   0  0  0  0  0  0  0  0  0  0  0  0
   60.3204   29.4363   49.7464 H   0  0  0  0  0  0  0  0  0  0  0  0
   61.0430   30.4059   47.3873 H   0  0  0  0  0  0  0  0  0  0  0  0
   60.6604   29.8033   44.9445 H   0  0  0  0  0  0  0  0  0  0  0  0
   60.1120   28.1199   44.5891 H   0  0  0  0  0  0  0  0  0  0  0  0
   58.1435   27.9197   43.3618 H   0  0  0  0  0  0  0  0  0  0  0  0
   55.8897   28.7884   42.7128 H   0  0  0  0  0  0  0  0  0  0  0  0
   55.0464   30.9106   43.7336 H   0  0  0  0  0  0  0  0  0  0  0  0
   58.6239   31.3049   46.0190 H   0  0  0  0  0  0  0  0  0  0  0  0
   56.4884   27.6420   47.0465 H   0  0  0  0  0  0  0  0  0  0  0  0
  1  2  1  0
  2  3  1  0
  3  4  2  0
  4  5  1  0
  5  6  2  0
  6  7  1  0
  7  8  1  0
  8  9  2  0
  9 10  1  0
 10 11  2  0
 11 12  1  0
 12 13  1  0
 13 14  1  0
 14 15  2  0
 15 16  1  0
 16 17  2  0
 17 18  1  0
 18 19  2  0
  7 20  2  0
 20  3  1  0
 12  8  1  0
 19 14  1  0
  1 21  1  0
  1 22  1  0
  1 23  1  0
  4 24  1  0
  5 25  1  0
  6 26  1  0
 10 27  1  0
 11 28  1  0
 13 29  1  0
 13 30  1  0
 15 31  1  0
 16 32  1  0
 17 33  1  0
 19 34  1  0
 20 35  1  0
M  END
>  <UniqueID>  (15) 
15

>  <SMILES>  (15) 
COc1cccc(-c2nccn2Cc2cccnc2)c1

>  <Energy>  (15) 
72.19411055059678

>  <Genealogy>  (15) 
COc1cccc(-c2nccn2Cc2cccnc2)c1 (3D coordinates assigned)
COc1cccc(-c2nccn2Cc2cccnc2)c1 (optimized conformer: 72.19411055059678 kcal/mol)

>  <smiles>  (15) 
COc1cccc(-c2nccn2Cc2cccnc2)c1

>  <score_type>  (15) 
oracle

>  <origin>  (15) 
adg

>  <m_score__min__energy>  (15) 
-6.5300000000000002

>  <m_primary>  (15) 
energy

$$$$
15:0
     RDKit          3D

 49 51  0  0  0  0  0  0  0  0999 V2000
   54.1930   25.0420   45.6100 C   0  0  0  0  0  0  0  0  0  0  0  0
   54.7560   26.2940   45.9890 O   0  0  0  0  0  0  0  0  0  0  0  0
   56.1320   26.5540   46.0730 C   0  0  0  0  0  0  0  0  0  0  0  0
   57.0380   25.6230   46.6150 C   0  0  0  0  0  0  0  0  0  0  0  0
   58.3980   25.9220   46.6940 C   0  0  0  0  0  0  0  0  0  0  0  0
   58.8820   27.1630   46.2530 C   0  0  0  0  0  0  0  0  0  0  0  0
   60.3540   27.4970   46.3750 C   0  0  0  0  0  0  0  0  0  0  0  0
   60.6540   28.4790   47.4430 N   0  0  0  0  0  0  0  0  0  0  0  0
   61.1450   29.7900   46.9540 C   0  0  0  0  0  0  0  0  0  0  0  0
   60.7470   30.9540   47.8650 C   0  0  0  0  0  0  0  0  0  0  0  0
   59.3010   30.9110   48.1000 N   0  0  0  0  0  0  0  0  0  0  0  0
   58.5300   32.1220   48.1460 C   0  0  0  0  0  0  0  0  0  0  0  0
   57.7760   32.3360   49.1350 O   0  0  0  0  0  0  0  0  0  0  0  0
   58.5840   33.1120   47.0470 C   0  0  0  0  0  0  0  0  0  0  0  0
   57.6860   33.0240   45.9680 C   0  0  0  0  0  0  0  0  0  0  0  0
   57.7450   33.9510   44.9220 C   0  0  0  0  0  0  0  0  0  0  0  0
   58.7040   34.9650   44.9380 C   0  0  0  0  0  0  0  0  0  0  0  0
   59.6110   35.0530   45.9970 C   0  0  0  0  0  0  0  0  0  0  0  0
   59.5560   34.1300   47.0460 C   0  0  0  0  0  0  0  0  0  0  0  0
   58.6620   29.6400   48.4520 C   0  0  0  0  0  0  0  0  0  0  0  0
   59.6910   28.5040   48.5690 C   0  0  0  0  0  0  0  0  0  0  0  0
   57.9850   28.0750   45.6730 C   0  0  0  0  0  0  0  0  0  0  0  0
   56.6100   27.7830   45.5940 C   0  0  0  0  0  0  0  0  0  0  0  0
   55.6880   28.6880   45.0440 O   0  0  0  0  0  0  0  0  0  0  0  0
   56.0230   29.7280   44.1320 C   0  0  0  0  0  0  0  0  0  0  0  0
   53.9349   24.4679   46.5121 H   0  0  0  0  0  0  0  0  0  0  0  0
   53.2855   25.2139   45.0126 H   0  0  0  0  0  0  0  0  0  0  0  0
   54.9238   24.4772   45.0126 H   0  0  0  0  0  0  0  0  0  0  0  0
   56.6706   24.6522   46.9790 H   0  0  0  0  0  0  0  0  0  0  0  0
   59.0969   25.1788   47.1054 H   0  0  0  0  0  0  0  0  0  0  0  0
   60.9041   26.5693   46.5914 H   0  0  0  0  0  0  0  0  0  0  0  0
   60.6607   27.9535   45.4223 H   0  0  0  0  0  0  0  0  0  0  0  0
   62.2426   29.7525   46.8920 H   0  0  0  0  0  0  0  0  0  0  0  0
   60.6847   29.9685   45.9710 H   0  0  0  0  0  0  0  0  0  0  0  0
   61.2781   30.8682   48.8244 H   0  0  0  0  0  0  0  0  0  0  0  0
   61.0147   31.9067   47.3847 H   0  0  0  0  0  0  0  0  0  0  0  0
   56.9334   32.2221   45.9465 H   0  0  0  0  0  0  0  0  0  0  0  0
   57.0343   33.8807   44.0854 H   0  0  0  0  0  0  0  0  0  0  0  0
   58.7457   35.6952   44.1164 H   0  0  0  0  0  0  0  0  0  0  0  0
   60.3695   35.8496   46.0056 H   0  0  0  0  0  0  0  0  0  0  0  0
   60.2760   34.1999   47.8746 H   0  0  0  0  0  0  0  0  0  0  0  0
   58.1456   29.7549   49.4164 H   0  0  0  0  0  0  0  0  0  0  0  0
   57.9504   29.3796   47.6546 H   0  0  0  0  0  0  0  0  0  0  0  0
   60.2511   28.6332   49.5069 H   0  0  0  0  0  0  0  0  0  0  0  0
   59.1369   27.5539   48.5502 H   0  0  0  0  0  0  0  0  0  0  0  0
   58.3614   29.0291   45.2756 H   0  0  0  0  0  0  0  0  0  0  0  0
   56.3131   30.6285   44.6932 H   0  0  0  0  0  0  0  0  0  0  0  0
   56.8623   29.4043   43.4989 H   0  0  0  0  0  0  0  0  0  0  0  0
   55.1525   29.9550   43.4989 H   0  0  0  0  0  0  0  0  0  0  0  0
  1  2  1  0
  2  3  1  0
  3  4  2  0
  4  5  1  0
  5  6  2  0
  6  7  1  0
  7  8  1  0
  8  9  1  0
  9 10  1  0
 10 11  1  0
 11 12  1  0
 12 13  2  0
 12 14  1  0
 14 15  2  0
 15 16  1  0
 16 17  2  0
 17 18  1  0
 18 19  2  0
 11 20  1  0
 20 21  1  0
  6 22  1  0
 22 23  2  0
 23 24  1  0
 24 25  1  0
 23  3  1  0
 21  8  1  0
 19 14  1  0
  1 26  1  0
  1 27  1  0
  1 28  1  0
  4 29  1  0
  5 30  1  0
  7 31  1  0
  7 32  1  0
  9 33  1  0
  9 34  1  0
 10 35  1  0
 10 36  1  0
 15 37  1  0
 16 38  1  0
 17 39  1  0
 18 40  1  0
 19 41  1  0
 20 42  1  0
 20 43  1  0
 21 44  1  0
 21 45  1  0
 22 46  1  0
 25 47  1  0
 25 48  1  0
 25 49  1  0
M  END
>  <UniqueID>  (16) 
16

>  <SMILES>  (16) 
COc1ccc(CN2CCN(C(=O)c3ccccc3)CC2)cc1OC

>  <Energy>  (16) 
62.83286065673287

>  <Genealogy>  (16) 
COc1ccc(CN2CCN(C(=O)c3ccccc3)CC2)cc1OC (3D coordinates assigned)
COc1ccc(CN2CCN(C(=O)c3ccccc3)CC2)cc1OC (nonaromatic ring conformer: 62.83286065673287 kcal/mol)

>  <smiles>  (16) 
COc1ccc(CN2CCN(C(=O)c3ccccc3)CC2)cc1OC

>  <score_type>  (16) 
oracle

>  <origin>  (16) 
adg

>  <m_score__min__energy>  (16) 
-8.5600000000000005

>  <m_primary>  (16) 
energy

$$$$
16:0
     RDKit          3D

 51 54  0  0  0  0  0  0  0  0999 V2000
   60.2360   27.4470   49.1850 C   0  0  0  0  0  0  0  0  0  0  0  0
   60.0340   28.8130   48.5990 C   0  0  0  0  0  0  0  0  0  0  0  0
   58.7250   29.3110   48.3960 C   0  0  0  0  0  0  0  0  0  0  0  0
   58.5170   30.6040   47.8820 C   0  0  0  0  0  0  0  0  0  0  0  0
   59.6380   31.3910   47.6020 C   0  0  0  0  0  0  0  0  0  0  0  0
   60.9120   30.9000   47.7960 C   0  0  0  0  0  0  0  0  0  0  0  0
   61.1490   29.6230   48.3010 C   0  0  0  0  0  0  0  0  0  0  0  0
   61.7750   31.8870   47.3860 C   0  0  0  0  0  0  0  0  0  0  0  0
   63.1680   31.9330   47.3480 C   0  0  0  0  0  0  0  0  0  0  0  0
   63.7710   33.1020   46.8570 C   0  0  0  0  0  0  0  0  0  0  0  0
   62.9810   34.1850   46.4150 C   0  0  0  0  0  0  0  0  0  0  0  0
   61.5780   34.1120   46.4620 C   0  0  0  0  0  0  0  0  0  0  0  0
   60.9910   32.9440   46.9630 C   0  0  0  0  0  0  0  0  0  0  0  0
   59.6680   32.6600   47.1140 N   0  0  0  0  0  0  0  0  0  0  0  0
   58.5160   33.5020   46.7640 C   0  0  0  0  0  0  0  0  0  0  0  0
   58.5380   33.9510   45.2900 C   0  0  0  0  0  0  0  0  0  0  0  0
   58.1060   32.8740   44.2740 C   0  0  0  0  0  0  0  0  0  0  0  0
   58.1880   31.3980   44.7350 C   0  0  0  0  0  0  0  0  0  0  0  0
   57.9650   30.3870   43.6630 N   0  0  0  0  0  0  0  0  0  0  0  0
   58.0770   29.0130   44.2010 C   0  0  0  0  0  0  0  0  0  0  0  0
   56.8820   28.6490   45.1160 C   0  0  0  0  0  0  0  0  0  0  0  0
   55.7620   29.4990   44.9400 O   0  0  0  0  0  0  0  0  0  0  0  0
   55.5320   29.7210   43.5670 C   0  0  0  0  0  0  0  0  0  0  0  0
   56.6680   30.5660   42.9550 C   0  0  0  0  0  0  0  0  0  0  0  0
   60.2261   27.5139   50.2829 H   0  0  0  0  0  0  0  0  0  0  0  0
   59.4265   26.7813   48.8509 H   0  0  0  0  0  0  0  0  0  0  0  0
   61.2035   27.0441   48.8509 H   0  0  0  0  0  0  0  0  0  0  0  0
   57.8592   28.6791   48.6432 H   0  0  0  0  0  0  0  0  0  0  0  0
   57.5004   30.9852   47.7053 H   0  0  0  0  0  0  0  0  0  0  0  0
   62.1742   29.2582   48.4621 H   0  0  0  0  0  0  0  0  0  0  0  0
   63.7743   31.0818   47.6913 H   0  0  0  0  0  0  0  0  0  0  0  0
   64.8679   33.1745   46.8164 H   0  0  0  0  0  0  0  0  0  0  0  0
   63.4673   35.0937   46.0306 H   0  0  0  0  0  0  0  0  0  0  0  0
   60.9574   34.9509   46.1141 H   0  0  0  0  0  0  0  0  0  0  0  0
   57.5937   32.9304   46.9447 H   0  0  0  0  0  0  0  0  0  0  0  0
   58.5612   34.4061   47.3890 H   0  0  0  0  0  0  0  0  0  0  0  0
   57.8599   34.8107   45.1850 H   0  0  0  0  0  0  0  0  0  0  0  0
   59.5861   34.1904   45.0572 H   0  0  0  0  0  0  0  0  0  0  0  0
   57.0607   33.0779   43.9989 H   0  0  0  0  0  0  0  0  0  0  0  0
   58.8278   32.9553   43.4480 H   0  0  0  0  0  0  0  0  0  0  0  0
   59.1884   31.2289   45.1599 H   0  0  0  0  0  0  0  0  0  0  0  0
   57.3738   31.2585   45.4614 H   0  0  0  0  0  0  0  0  0  0  0  0
   58.7300   30.4710   42.9580 H   0  0  0  0  0  0  0  0  0  0  0  0
   58.1095   28.3041   43.3605 H   0  0  0  0  0  0  0  0  0  0  0  0
   58.9955   28.9580   44.8038 H   0  0  0  0  0  0  0  0  0  0  0  0
   56.5747   27.6162   44.8947 H   0  0  0  0  0  0  0  0  0  0  0  0
   57.2203   28.7670   46.1560 H   0  0  0  0  0  0  0  0  0  0  0  0
   55.4820   28.7525   43.0478 H   0  0  0  0  0  0  0  0  0  0  0  0
   54.5833   30.2653   43.4502 H   0  0  0  0  0  0  0  0  0  0  0  0
   56.7980   30.2712   41.9032 H   0  0  0  0  0  0  0  0  0  0  0  0
   56.3820   31.6240   43.0496 H   0  0  0  0  0  0  0  0  0  0  0  0
  1  2  1  0
  2  3  2  0
  3  4  1  0
  4  5  2  0
  5  6  1  0
  6  7  2  0
  6  8  1  0
  8  9  2  0
  9 10  1  0
 10 11  2  0
 11 12  1  0
 12 13  2  0
 13 14  1  0
 14 15  1  0
 15 16  1  0
 16 17  1  0
 17 18  1  0
 18 19  1  0
 19 20  1  0
 20 21  1  0
 21 22  1  0
 22 23  1  0
 23 24  1  0
  7  2  1  0
 13  8  1  0
 24 19  1  0
 14  5  1  0
  1 25  1  0
  1 26  1  0
  1 27  1  0
  3 28  1  0
  4 29  1  0
  7 30  1  0
  9 31  1  0
 10 32  1  0
 11 33  1  0
 12 34  1  0
 15 35  1  0
 15 36  1  0
 16 37  1  0
 16 38  1  0
 17 39  1  0
 17 40  1  0
 18 41  1  0
 18 42  1  0
 19 43  1  0
 20 44  1  0
 20 45  1  0
 21 46  1  0
 21 47  1  0
 23 48  1  0
 23 49  1  0
 24 50  1  0
 24 51  1  0
M  CHG  1  19   1
M  END
>  <UniqueID>  (17) 
17

>  <SMILES>  (17) 
Cc1ccc2c(c1)c1ccccc1n2CCCC[NH+]1CCOCC1

>  <Energy>  (17) 
104.75105864316211

>  <Genealogy>  (17) 
Cc1ccc2c(c1)c1ccccc1n2CCCC[NH+]1CCOCC1 (protonated)
Cc1ccc2c(c1)c1ccccc1n2CCCC[NH+]1CCOCC1 (3D coordinates assigned)
Cc1ccc2c(c1)c1ccccc1n2CCCC[NH+]1CCOCC1 (nonaromatic ring conformer: 104.75105864316211 kcal/mol)

>  <smiles>  (17) 
Cc1ccc2c(c1)c1ccccc1n2CCCCN1CCOCC1

>  <score_type>  (17) 
oracle

>  <origin>  (17) 
adg

>  <m_score__min__energy>  (17) 
-6.79

>  <m_primary>  (17) 
energy

$$$$
17:0
     RDKit          3D

 44 46  0  0  0  0  0  0  0  0999 V2000
   57.7070   32.7870   43.3320 O   0  0  0  0  0  0  0  0  0  0  0  0
   58.0150   32.3130   44.4600 C   0  0  0  0  0  0  0  0  0  0  0  0
   58.5280   33.2310   45.5060 C   0  0  0  0  0  0  0  0  0  0  0  0
   58.4130   32.9130   46.8720 C   0  0  0  0  0  0  0  0  0  0  0  0
   58.9180   33.7800   47.8460 C   0  0  0  0  0  0  0  0  0  0  0  0
   59.5510   34.9660   47.4670 C   0  0  0  0  0  0  0  0  0  0  0  0
   59.6860   35.2850   46.1140 C   0  0  0  0  0  0  0  0  0  0  0  0
   59.1830   34.4200   45.1360 C   0  0  0  0  0  0  0  0  0  0  0  0
   57.8530   30.8570   44.6930 C   0  0  0  0  0  0  0  0  0  0  0  0
   56.6280   30.2160   44.4390 C   0  0  0  0  0  0  0  0  0  0  0  0
   56.4930   28.8400   44.6440 C   0  0  0  0  0  0  0  0  0  0  0  0
   57.5730   28.0800   45.1120 C   0  0  0  0  0  0  0  0  0  0  0  0
   57.4130   26.6630   45.2950 N   0  0  0  0  0  0  0  0  0  0  0  0
   56.2460   26.0530   45.8690 C   0  0  0  0  0  0  0  0  0  0  0  0
   55.1810   26.7170   45.9960 O   0  0  0  0  0  0  0  0  0  0  0  0
   56.2670   24.5830   46.2240 C   0  0  0  0  0  0  0  0  0  0  0  0
   55.0250   23.8220   45.6760 C   0  0  0  0  0  0  0  0  0  0  0  0
   55.3540   22.8200   44.5550 C   0  0  0  0  0  0  0  0  0  0  0  0
   56.3730   23.4020   43.5690 C   0  0  0  0  0  0  0  0  0  0  0  0
   57.7020   23.7850   44.2520 C   0  0  0  0  0  0  0  0  0  0  0  0
   57.5950   23.9390   45.7810 C   0  0  0  0  0  0  0  0  0  0  0  0
   58.8100   28.7120   45.3290 C   0  0  0  0  0  0  0  0  0  0  0  0
   58.9470   30.0870   45.1220 C   0  0  0  0  0  0  0  0  0  0  0  0
   57.9227   31.9763   47.1756 H   0  0  0  0  0  0  0  0  0  0  0  0
   58.8166   33.5277   48.9119 H   0  0  0  0  0  0  0  0  0  0  0  0
   59.9434   35.6492   48.2346 H   0  0  0  0  0  0  0  0  0  0  0  0
   60.1884   36.2174   45.8169 H   0  0  0  0  0  0  0  0  0  0  0  0
   59.3003   34.6710   44.0715 H   0  0  0  0  0  0  0  0  0  0  0  0
   55.7700   30.8012   44.0765 H   0  0  0  0  0  0  0  0  0  0  0  0
   55.5306   28.3496   44.4361 H   0  0  0  0  0  0  0  0  0  0  0  0
   58.1520   26.0320   44.9090 H   0  0  0  0  0  0  0  0  0  0  0  0
   56.2046   24.5015   47.3192 H   0  0  0  0  0  0  0  0  0  0  0  0
   54.5609   23.2716   46.5077 H   0  0  0  0  0  0  0  0  0  0  0  0
   54.3525   24.5771   45.2430 H   0  0  0  0  0  0  0  0  0  0  0  0
   55.7705   21.9056   45.0026 H   0  0  0  0  0  0  0  0  0  0  0  0
   54.4274   22.5973   44.0056 H   0  0  0  0  0  0  0  0  0  0  0  0
   56.5792   22.6523   42.7909 H   0  0  0  0  0  0  0  0  0  0  0  0
   55.9398   24.3185   43.1420 H   0  0  0  0  0  0  0  0  0  0  0  0
   58.4423   23.0013   44.0336 H   0  0  0  0  0  0  0  0  0  0  0  0
   57.9961   24.7664   43.8516 H   0  0  0  0  0  0  0  0  0  0  0  0
   57.6734   22.9429   46.2410 H   0  0  0  0  0  0  0  0  0  0  0  0
   58.4099   24.6030   46.1052 H   0  0  0  0  0  0  0  0  0  0  0  0
   59.6750   28.1205   45.6637 H   0  0  0  0  0  0  0  0  0  0  0  0
   59.9195   30.5706   45.2964 H   0  0  0  0  0  0  0  0  0  0  0  0
  1  2  2  0
  2  3  1  0
  3  4  2  0
  4  5  1  0
  5  6  2  0
  6  7  1  0
  7  8  2  0
  2  9  1  0
  9 10  2  0
 10 11  1  0
 11 12  2  0
 12 13  1  0
 13 14  1  0
 14 15  2  0
 14 16  1  0
 16 17  1  0
 17 18  1  0
 18 19  1  0
 19 20  1  0
 20 21  1  0
 12 22  1  0
 22 23  2  0
  8  3  1  0
 23  9  1  0
 21 16  1  0
  4 24  1  0
  5 25  1  0
  6 26  1  0
  7 27  1  0
  8 28  1  0
 10 29  1  0
 11 30  1  0
 13 31  1  0
 16 32  1  0
 17 33  1  0
 17 34  1  0
 18 35  1  0
 18 36  1  0
 19 37  1  0
 19 38  1  0
 20 39  1  0
 20 40  1  0
 21 41  1  0
 21 42  1  0
 22 43  1  0
 23 44  1  0
M  END
>  <UniqueID>  (18) 
18

>  <SMILES>  (18) 
O=C(c1ccccc1)c1ccc(NC(=O)C2CCCCC2)cc1

>  <Energy>  (18) 
57.93880305847543

>  <Genealogy>  (18) 
O=C(c1ccccc1)c1ccc(NC(=O)C2CCCCC2)cc1 (3D coordinates assigned)
O=C(c1ccccc1)c1ccc(NC(=O)C2CCCCC2)cc1 (nonaromatic ring conformer: 57.93880305847543 kcal/mol)

>  <smiles>  (18) 
O=C(c1ccccc1)c1ccc(NC(=O)C2CCCCC2)cc1

>  <score_type>  (18) 
oracle

>  <origin>  (18) 
adg

>  <m_score__min__energy>  (18) 
-8.6799999999999997

>  <m_primary>  (18) 
energy

$$$$
18:0
     RDKit          3D

 32 34  0  0  0  0  0  0  0  0999 V2000
   55.1530   26.7400   46.0090 N   0  0  0  0  0  0  0  0  0  0  0  0
   55.9060   25.5300   46.1040 C   0  0  0  0  0  0  0  0  0  0  0  0
   55.2980   24.4350   46.2410 O   0  0  0  0  0  0  0  0  0  0  0  0
   57.3830   25.5460   46.1010 C   0  0  0  0  0  0  0  0  0  0  0  0
   58.1380   24.3890   45.8410 C   0  0  0  0  0  0  0  0  0  0  0  0
   59.5070   24.5640   45.9940 C   0  0  0  0  0  0  0  0  0  0  0  0
   59.7960   26.1590   46.4400 S   0  0  0  0  0  0  0  0  0  0  0  0
   58.1890   26.6420   46.4290 C   0  0  0  0  0  0  0  0  0  0  0  0
   57.7760   27.9920   46.6660 N   0  0  0  0  0  0  0  0  0  0  0  0
   57.4410   28.9310   45.6380 C   0  0  0  0  0  0  0  0  0  0  0  0
   56.2420   29.2620   45.4390 O   0  0  0  0  0  0  0  0  0  0  0  0
   58.5150   29.4520   44.7390 C   0  0  0  0  0  0  0  0  0  0  0  0
   58.2490   30.8510   44.4060 N   0  0  0  0  0  0  0  0  0  0  0  0
   57.5390   31.3400   43.3590 C   0  0  0  0  0  0  0  0  0  0  0  0
   57.0390   30.6180   42.4550 O   0  0  0  0  0  0  0  0  0  0  0  0
   57.4140   32.6560   43.3850 O   0  0  0  0  0  0  0  0  0  0  0  0
   58.0380   33.0470   44.4720 C   0  0  0  0  0  0  0  0  0  0  0  0
   58.1910   34.3370   44.9700 C   0  0  0  0  0  0  0  0  0  0  0  0
   58.8960   34.4900   46.1790 C   0  0  0  0  0  0  0  0  0  0  0  0
   59.4220   33.3610   46.8510 C   0  0  0  0  0  0  0  0  0  0  0  0
   59.2510   32.0680   46.3180 C   0  0  0  0  0  0  0  0  0  0  0  0
   58.5520   31.9540   45.1150 C   0  0  0  0  0  0  0  0  0  0  0  0
   55.6220   27.6730   46.0460 H   0  0  0  0  0  0  0  0  0  0  0  0
   54.1100   26.7070   45.9720 H   0  0  0  0  0  0  0  0  0  0  0  0
   57.6853   23.4317   45.5433 H   0  0  0  0  0  0  0  0  0  0  0  0
   60.2738   23.7890   45.8479 H   0  0  0  0  0  0  0  0  0  0  0  0
   59.4865   29.3768   45.2494 H   0  0  0  0  0  0  0  0  0  0  0  0
   58.5342   28.8566   43.8143 H   0  0  0  0  0  0  0  0  0  0  0  0
   57.7761   35.2060   44.4383 H   0  0  0  0  0  0  0  0  0  0  0  0
   59.0390   35.4943   46.6044 H   0  0  0  0  0  0  0  0  0  0  0  0
   59.9684   33.4939   47.7964 H   0  0  0  0  0  0  0  0  0  0  0  0
   59.6532   31.1817   46.8305 H   0  0  0  0  0  0  0  0  0  0  0  0
  1  2  1  0
  2  3  2  0
  2  4  1  0
  4  5  1  0
  5  6  2  0
  6  7  1  0
  7  8  1  0
  8  9  1  0
  9 10  1  0
 10 11  2  0
 10 12  1  0
 12 13  1  0
 13 14  1  0
 14 15  2  0
 14 16  1  0
 16 17  1  0
 17 18  2  0
 18 19  1  0
 19 20  2  0
 20 21  1  0
 21 22  2  0
  8  4  2  0
 22 13  1  0
 22 17  1  0
  1 23  1  0
  1 24  1  0
  5 25  1  0
  6 26  1  0
 12 27  1  0
 12 28  1  0
 18 29  1  0
 19 30  1  0
 20 31  1  0
 21 32  1  0
M  CHG  1   9  -1
M  END
>  <UniqueID>  (19) 
19

>  <SMILES>  (19) 
NC(=O)c1ccsc1[N-]C(=O)Cn1c(=O)oc2ccccc21

>  <Energy>  (19) 
107.10099544969206

>  <Genealogy>  (19) 
NC(=O)c1ccsc1[N-]C(=O)Cn1c(=O)oc2ccccc21 (protonated)
NC(=O)c1ccsc1[N-]C(=O)Cn1c(=O)oc2ccccc21 (3D coordinates assigned)
NC(=O)c1ccsc1[N-]C(=O)Cn1c(=O)oc2ccccc21 (optimized conformer: 107.10099544969206 kcal/mol)

>  <smiles>  (19) 
NC(=O)c1ccsc1NC(=O)Cn1c(=O)oc2ccccc21

>  <score_type>  (19) 
oracle

>  <origin>  (19) 
adg

>  <m_score__min__energy>  (19) 
-9.9299999999999997

>  <m_primary>  (19) 
energy

$$$$
19:0
     RDKit          3D

 51 53  0  0  0  0  0  0  0  0999 V2000
   64.3490   29.8460   51.6290 C   0  0  0  0  0  0  0  0  0  0  0  0
   64.0700   31.3410   51.5360 C   0  0  0  0  0  0  0  0  0  0  0  0
   64.6270   31.8970   50.2930 N   0  0  0  0  0  0  0  0  0  0  0  0
   66.0880   31.9980   50.1440 C   0  0  0  0  0  0  0  0  0  0  0  0
   66.5810   33.3920   50.5280 C   0  0  0  0  0  0  0  0  0  0  0  0
   63.7430   32.3190   49.2290 C   0  0  0  0  0  0  0  0  0  0  0  0
   64.1540   32.7000   47.9950 N   0  0  0  0  0  0  0  0  0  0  0  0
   63.1600   33.0380   47.1740 N   0  0  0  0  0  0  0  0  0  0  0  0
   61.9340   32.9330   47.7370 C   0  0  0  0  0  0  0  0  0  0  0  0
   60.6750   33.2440   47.0220 C   0  0  0  0  0  0  0  0  0  0  0  0
   60.1650   34.5500   47.0270 C   0  0  0  0  0  0  0  0  0  0  0  0
   58.9780   34.8520   46.3610 C   0  0  0  0  0  0  0  0  0  0  0  0
   58.2700   33.8550   45.6700 C   0  0  0  0  0  0  0  0  0  0  0  0
   56.9900   34.2290   44.9700 C   0  0  0  0  0  0  0  0  0  0  0  0
   58.7940   32.5400   45.6250 C   0  0  0  0  0  0  0  0  0  0  0  0
   57.9790   31.2310   44.7480 S   0  0  0  0  0  0  0  0  0  0  0  0
   56.4940   31.4280   44.8730 O   0  0  0  0  0  0  0  0  0  0  0  0
   58.3640   31.2590   43.2940 O   0  0  0  0  0  0  0  0  0  0  0  0
   58.4220   29.6830   45.4290 N   0  0  0  0  0  0  0  0  0  0  0  0
   59.7660   29.2920   44.9800 C   0  0  0  0  0  0  0  0  0  0  0  0
   60.1610   27.9490   45.6290 C   0  0  0  0  0  0  0  0  0  0  0  0
   59.0610   27.3010   46.2480 O   0  0  0  0  0  0  0  0  0  0  0  0
   57.9700   27.2410   45.3510 C   0  0  0  0  0  0  0  0  0  0  0  0
   57.4410   28.6560   45.0340 C   0  0  0  0  0  0  0  0  0  0  0  0
   59.9750   32.2460   46.3250 C   0  0  0  0  0  0  0  0  0  0  0  0
   62.0600   32.3900   49.3320 S   0  0  0  0  0  0  0  0  0  0  0  0
   64.4045   29.5485   52.6865 H   0  0  0  0  0  0  0  0  0  0  0  0
   63.5390   29.2903   51.1338 H   0  0  0  0  0  0  0  0  0  0  0  0
   65.3048   29.6199   51.1338 H   0  0  0  0  0  0  0  0  0  0  0  0
   62.9827   31.5071   51.5506 H   0  0  0  0  0  0  0  0  0  0  0  0
   64.5441   31.8434   52.3921 H   0  0  0  0  0  0  0  0  0  0  0  0
   66.5686   31.2539   50.7961 H   0  0  0  0  0  0  0  0  0  0  0  0
   66.3472   31.8116   49.0914 H   0  0  0  0  0  0  0  0  0  0  0  0
   66.6124   33.4808   51.6240 H   0  0  0  0  0  0  0  0  0  0  0  0
   67.5895   33.5500   50.1183 H   0  0  0  0  0  0  0  0  0  0  0  0
   65.8960   34.1489   50.1183 H   0  0  0  0  0  0  0  0  0  0  0  0
   65.1480   32.7280   47.6820 H   0  0  0  0  0  0  0  0  0  0  0  0
   60.7067   35.3442   47.5616 H   0  0  0  0  0  0  0  0  0  0  0  0
   58.5919   35.8819   46.3769 H   0  0  0  0  0  0  0  0  0  0  0  0
   56.2157   34.4552   45.7179 H   0  0  0  0  0  0  0  0  0  0  0  0
   57.1616   35.1146   44.3404 H   0  0  0  0  0  0  0  0  0  0  0  0
   56.6578   33.3904   44.3404 H   0  0  0  0  0  0  0  0  0  0  0  0
   59.7687   29.1839   43.8853 H   0  0  0  0  0  0  0  0  0  0  0  0
   60.4888   30.0664   45.2766 H   0  0  0  0  0  0  0  0  0  0  0  0
   60.5680   27.2870   44.8504 H   0  0  0  0  0  0  0  0  0  0  0  0
   60.9066   28.1611   46.4094 H   0  0  0  0  0  0  0  0  0  0  0  0
   58.2973   26.7610   44.4170 H   0  0  0  0  0  0  0  0  0  0  0  0
   57.1616   26.6594   45.8182 H   0  0  0  0  0  0  0  0  0  0  0  0
   57.2505   28.7360   43.9536 H   0  0  0  0  0  0  0  0  0  0  0  0
   56.5122   28.8199   45.6000 H   0  0  0  0  0  0  0  0  0  0  0  0
   60.3589   31.2152   46.3275 H   0  0  0  0  0  0  0  0  0  0  0  0
  1  2  1  0
  2  3  1  0
  3  4  1  0
  4  5  1  0
  3  6  1  0
  6  7  2  0
  7  8  1  0
  8  9  2  0
  9 10  1  0
 10 11  2  0
 11 12  1  0
 12 13  2  0
 13 14  1  0
 13 15  1  0
 15 16  1  0
 16 17  2  0
 16 18  2  0
 16 19  1  0
 19 20  1  0
 20 21  1  0
 21 22  1  0
 22 23  1  0
 23 24  1  0
 15 25  2  0
  9 26  1  0
 26  6  1  0
 25 10  1  0
 24 19  1  0
  1 27  1  0
  1 28  1  0
  1 29  1  0
  2 30  1  0
  2 31  1  0
  4 32  1  0
  4 33  1  0
  5 34  1  0
  5 35  1  0
  5 36  1  0
  7 37  1  0
 11 38  1  0
 12 39  1  0
 14 40  1  0
 14 41  1  0
 14 42  1  0
 20 43  1  0
 20 44  1  0
 21 45  1  0
 21 46  1  0
 23 47  1  0
 23 48  1  0
 24 49  1  0
 24 50  1  0
 25 51  1  0
M  CHG  1   7   1
M  END
>  <UniqueID>  (20) 
20

>  <SMILES>  (20) 
CCN(CC)c1[nH+]nc(-c2ccc(C)c(S(=O)(=O)N3CCOCC3)c2)s1

>  <Energy>  (20) 
88.9562231066368

>  <Genealogy>  (20) 
CCN(CC)c1[nH+]nc(-c2ccc(C)c(S(=O)(=O)N3CCOCC3)c2)s1 (protonated)
CCN(CC)c1[nH+]nc(-c2ccc(C)c(S(=O)(=O)N3CCOCC3)c2)s1 (3D coordinates assigned)
CCN(CC)c1[nH+]nc(-c2ccc(C)c(S(=O)(=O)N3CCOCC3)c2)s1 (nonaromatic ring conformer: 88.9562231066368 kcal/mol)

>  <smiles>  (20) 
CCN(CC)c1nnc(-c2ccc(C)c(S(=O)(=O)N3CCOCC3)c2)s1

>  <score_type>  (20) 
oracle

>  <origin>  (20) 
adg

>  <m_score__min__energy>  (20) 
-7.5599999999999996

>  <m_primary>  (20) 
energy

$$$$
20:0
     RDKit          3D

 57 60  0  0  0  0  0  0  0  0999 V2000
   62.2960   31.2510   52.1000 C   0  0  0  0  0  0  0  0  0  0  0  0
   62.1230   32.6600   52.2050 O   0  0  0  0  0  0  0  0  0  0  0  0
   60.9330   33.2900   52.6020 C   0  0  0  0  0  0  0  0  0  0  0  0
   60.7900   33.8730   53.8770 C   0  0  0  0  0  0  0  0  0  0  0  0
   59.6040   34.5200   54.2310 C   0  0  0  0  0  0  0  0  0  0  0  0
   58.5490   34.5960   53.3200 C   0  0  0  0  0  0  0  0  0  0  0  0
   58.6750   34.0190   52.0560 C   0  0  0  0  0  0  0  0  0  0  0  0
   59.8600   33.3570   51.6890 C   0  0  0  0  0  0  0  0  0  0  0  0
   59.9660   32.7560   50.3860 N   0  0  0  0  0  0  0  0  0  0  0  0
   59.4300   31.4030   50.1730 C   0  0  0  0  0  0  0  0  0  0  0  0
   59.2310   31.1070   48.6830 C   0  0  0  0  0  0  0  0  0  0  0  0
   60.4370   31.4730   47.9270 N   0  0  0  0  0  0  0  0  0  0  0  0
   60.9770   30.5910   46.9220 C   0  0  0  0  0  0  0  0  0  0  0  0
   62.2280   30.5220   46.7700 O   0  0  0  0  0  0  0  0  0  0  0  0
   60.1020   29.7680   46.0550 C   0  0  0  0  0  0  0  0  0  0  0  0
   60.3840   28.4060   45.8610 C   0  0  0  0  0  0  0  0  0  0  0  0
   59.5660   27.6270   45.0390 C   0  0  0  0  0  0  0  0  0  0  0  0
   58.4680   28.2010   44.3950 C   0  0  0  0  0  0  0  0  0  0  0  0
   58.1880   29.5620   44.5630 C   0  0  0  0  0  0  0  0  0  0  0  0
   56.8190   30.2840   43.7220 S   0  0  0  0  0  0  0  0  0  0  0  0
   56.6380   29.5840   42.4040 O   0  0  0  0  0  0  0  0  0  0  0  0
   55.5590   30.1380   44.5290 O   0  0  0  0  0  0  0  0  0  0  0  0
   57.1180   31.9700   43.4380 N   0  0  0  0  0  0  0  0  0  0  0  0
   57.6960   32.8580   44.4110 C   0  0  0  0  0  0  0  0  0  0  0  0
   57.1190   32.9430   45.6890 C   0  0  0  0  0  0  0  0  0  0  0  0
   57.6530   33.8010   46.6550 C   0  0  0  0  0  0  0  0  0  0  0  0
   58.7710   34.5830   46.3560 C   0  0  0  0  0  0  0  0  0  0  0  0
   59.3580   34.5030   45.0910 C   0  0  0  0  0  0  0  0  0  0  0  0
   58.8280   33.6450   44.1220 C   0  0  0  0  0  0  0  0  0  0  0  0
   59.0060   30.3440   45.3900 C   0  0  0  0  0  0  0  0  0  0  0  0
   61.1480   32.7240   48.2290 C   0  0  0  0  0  0  0  0  0  0  0  0
   60.3820   33.5780   49.2430 C   0  0  0  0  0  0  0  0  0  0  0  0
   62.3499   30.8121   53.1072 H   0  0  0  0  0  0  0  0  0  0  0  0
   61.4445   30.8166   51.5558 H   0  0  0  0  0  0  0  0  0  0  0  0
   63.2274   31.0355   51.5558 H   0  0  0  0  0  0  0  0  0  0  0  0
   61.6184   33.8181   54.5986 H   0  0  0  0  0  0  0  0  0  0  0  0
   59.5010   34.9704   55.2293 H   0  0  0  0  0  0  0  0  0  0  0  0
   57.6179   35.1111   53.5989 H   0  0  0  0  0  0  0  0  0  0  0  0
   57.8412   34.0824   51.3413 H   0  0  0  0  0  0  0  0  0  0  0  0
   60.1341   30.6693   50.5924 H   0  0  0  0  0  0  0  0  0  0  0  0
   58.4520   31.3362   50.6721 H   0  0  0  0  0  0  0  0  0  0  0  0
   59.0303   30.0337   48.5495 H   0  0  0  0  0  0  0  0  0  0  0  0
   58.3810   31.6974   48.3103 H   0  0  0  0  0  0  0  0  0  0  0  0
   61.2529   27.9505   46.3585 H   0  0  0  0  0  0  0  0  0  0  0  0
   59.7875   26.5587   44.8987 H   0  0  0  0  0  0  0  0  0  0  0  0
   57.8220   27.5825   43.7546 H   0  0  0  0  0  0  0  0  0  0  0  0
   56.9290   32.3270   42.4750 H   0  0  0  0  0  0  0  0  0  0  0  0
   56.2392   32.3290   45.9318 H   0  0  0  0  0  0  0  0  0  0  0  0
   57.1920   33.8603   47.6520 H   0  0  0  0  0  0  0  0  0  0  0  0
   59.1885   35.2606   47.1153 H   0  0  0  0  0  0  0  0  0  0  0  0
   60.2401   35.1169   44.8562 H   0  0  0  0  0  0  0  0  0  0  0  0
   59.2975   33.5844   43.1291 H   0  0  0  0  0  0  0  0  0  0  0  0
   58.7889   31.4146   45.5193 H   0  0  0  0  0  0  0  0  0  0  0  0
   62.1378   32.4809   48.6427 H   0  0  0  0  0  0  0  0  0  0  0  0
   61.2421   33.2996   47.2964 H   0  0  0  0  0  0  0  0  0  0  0  0
   61.0320   34.3914   49.5978 H   0  0  0  0  0  0  0  0  0  0  0  0
   59.4881   33.9965   48.7574 H   0  0  0  0  0  0  0  0  0  0  0  0
  1  2  1  0
  2  3  1  0
  3  4  2  0
  4  5  1  0
  5  6  2  0
  6  7  1  0
  7  8  2  0
  8  9  1  0
  9 10  1  0
 10 11  1  0
 11 12  1  0
 12 13  1  0
 13 14  2  0
 13 15  1  0
 15 16  2  0
 16 17  1  0
 17 18  2  0
 18 19  1  0
 19 20  1  0
 20 21  2  0
 20 22  2  0
 20 23  1  0
 23 24  1  0
 24 25  2  0
 25 26  1  0
 26 27  2  0
 27 28  1  0
 28 29  2  0
 19 30  2  0
 12 31  1  0
 31 32  1  0
  8  3  1  0
 32  9  1  0
 30 15  1  0
 29 24  1  0
  1 33  1  0
  1 34  1  0
  1 35  1  0
  4 36  1  0
  5 37  1  0
  6 38  1  0
  7 39  1  0
 10 40  1  0
 10 41  1  0
 11 42  1  0
 11 43  1  0
 16 44  1  0
 17 45  1  0
 18 46  1  0
 23 47  1  0
 25 48  1  0
 26 49  1  0
 27 50  1  0
 28 51  1  0
 29 52  1  0
 30 53  1  0
 31 54  1  0
 31 55  1  0
 32 56  1  0
 32 57  1  0
M  END
>  <UniqueID>  (21) 
21

>  <SMILES>  (21) 
COc1ccccc1N1CCN(C(=O)c2cccc(S(=O)(=O)Nc3ccccc3)c2)CC1

>  <Energy>  (21) 
71.6918162329468

>  <Genealogy>  (21) 
COc1ccccc1N1CCN(C(=O)c2cccc(S(=O)(=O)Nc3ccccc3)c2)CC1 (3D coordinates assigned)
COc1ccccc1N1CCN(C(=O)c2cccc(S(=O)(=O)Nc3ccccc3)c2)CC1 (nonaromatic ring conformer: 71.6918162329468 kcal/mol)

>  <smiles>  (21) 
COc1ccccc1N1CCN(C(=O)c2cccc(S(=O)(=O)Nc3ccccc3)c2)CC1

>  <score_type>  (21) 
oracle

>  <origin>  (21) 
adg

>  <m_score__min__energy>  (21) 
-9.4399999999999995

>  <m_primary>  (21) 
energy

$$$$
21:0
     RDKit          3D

 42 44  0  0  0  0  0  0  0  0999 V2000
   57.2600   21.5000   43.3590 C   0  0  0  0  0  0  0  0  0  0  0  0
   58.4420   22.0980   44.1220 C   0  0  0  0  0  0  0  0  0  0  0  0
   58.1000   22.4020   45.5870 C   0  0  0  0  0  0  0  0  0  0  0  0
   57.1560   23.5650   45.7110 C   0  0  0  0  0  0  0  0  0  0  0  0
   55.7770   23.3600   45.8280 C   0  0  0  0  0  0  0  0  0  0  0  0
   54.9440   24.4760   45.9060 C   0  0  0  0  0  0  0  0  0  0  0  0
   53.6990   24.3300   46.0160 O   0  0  0  0  0  0  0  0  0  0  0  0
   55.4770   25.7240   45.8620 N   0  0  0  0  0  0  0  0  0  0  0  0
   56.8200   25.9150   45.7410 C   0  0  0  0  0  0  0  0  0  0  0  0
   57.3680   27.2480   45.6820 N   0  0  0  0  0  0  0  0  0  0  0  0
   57.6120   27.9010   44.3880 C   0  0  0  0  0  0  0  0  0  0  0  0
   57.3150   29.4000   44.4850 C   0  0  0  0  0  0  0  0  0  0  0  0
   57.9830   30.0160   45.6410 N   0  0  0  0  0  0  0  0  0  0  0  0
   58.0610   31.4550   45.7090 C   0  0  0  0  0  0  0  0  0  0  0  0
   59.1940   32.1050   46.2310 C   0  0  0  0  0  0  0  0  0  0  0  0
   59.2320   33.5000   46.2670 C   0  0  0  0  0  0  0  0  0  0  0  0
   58.1530   34.2380   45.7810 C   0  0  0  0  0  0  0  0  0  0  0  0
   57.0490   33.5670   45.2580 C   0  0  0  0  0  0  0  0  0  0  0  0
   57.0280   32.2070   45.2320 N   0  0  0  0  0  0  0  0  0  0  0  0
   58.6130   29.1700   46.6670 C   0  0  0  0  0  0  0  0  0  0  0  0
   57.7730   27.9130   46.9290 C   0  0  0  0  0  0  0  0  0  0  0  0
   57.6430   24.8330   45.6640 N   0  0  0  0  0  0  0  0  0  0  0  0
   56.5146   21.1229   44.0747 H   0  0  0  0  0  0  0  0  0  0  0  0
   56.8020   22.2748   42.7267 H   0  0  0  0  0  0  0  0  0  0  0  0
   57.6129   20.6720   42.7267 H   0  0  0  0  0  0  0  0  0  0  0  0
   59.2776   21.3831   44.0954 H   0  0  0  0  0  0  0  0  0  0  0  0
   58.7085   23.0481   43.6360 H   0  0  0  0  0  0  0  0  0  0  0  0
   57.6308   21.5135   46.0347 H   0  0  0  0  0  0  0  0  0  0  0  0
   59.0329   22.6622   46.1086 H   0  0  0  0  0  0  0  0  0  0  0  0
   55.3596   22.3427   45.8578 H   0  0  0  0  0  0  0  0  0  0  0  0
   58.6643   27.7573   44.1017 H   0  0  0  0  0  0  0  0  0  0  0  0
   56.9511   27.4535   43.6310 H   0  0  0  0  0  0  0  0  0  0  0  0
   57.6667   29.8927   43.5665 H   0  0  0  0  0  0  0  0  0  0  0  0
   56.2295   29.5257   44.6108 H   0  0  0  0  0  0  0  0  0  0  0  0
   60.0443   31.5180   46.6083 H   0  0  0  0  0  0  0  0  0  0  0  0
   60.1119   34.0165   46.6782 H   0  0  0  0  0  0  0  0  0  0  0  0
   58.1731   35.3374   45.8101 H   0  0  0  0  0  0  0  0  0  0  0  0
   56.1941   34.1375   44.8660 H   0  0  0  0  0  0  0  0  0  0  0  0
   59.6134   28.8696   46.3220 H   0  0  0  0  0  0  0  0  0  0  0  0
   58.6866   29.7455   47.6015 H   0  0  0  0  0  0  0  0  0  0  0  0
   58.3669   27.2085   47.5298 H   0  0  0  0  0  0  0  0  0  0  0  0
   56.8603   28.2205   47.4605 H   0  0  0  0  0  0  0  0  0  0  0  0
  1  2  1  0
  2  3  1  0
  3  4  1  0
  4  5  2  0
  5  6  1  0
  6  7  2  0
  6  8  1  0
  8  9  1  0
  9 10  1  0
 10 11  1  0
 11 12  1  0
 12 13  1  0
 13 14  1  0
 14 15  2  0
 15 16  1  0
 16 17  2  0
 17 18  1  0
 18 19  2  0
 13 20  1  0
 20 21  1  0
  9 22  2  0
 22  4  1  0
 21 10  1  0
 19 14  1  0
  1 23  1  0
  1 24  1  0
  1 25  1  0
  2 26  1  0
  2 27  1  0
  3 28  1  0
  3 29  1  0
  5 30  1  0
 11 31  1  0
 11 32  1  0
 12 33  1  0
 12 34  1  0
 15 35  1  0
 16 36  1  0
 17 37  1  0
 18 38  1  0
 20 39  1  0
 20 40  1  0
 21 41  1  0
 21 42  1  0
M  CHG  1   8  -1
M  END
>  <UniqueID>  (22) 
22

>  <SMILES>  (22) 
CCCc1cc(=O)[n-]c(N2CCN(c3ccccn3)CC2)n1

>  <Energy>  (22) 
41.96993633084566

>  <Genealogy>  (22) 
CCCc1cc(=O)[n-]c(N2CCN(c3ccccn3)CC2)n1 (protonated)
CCCc1cc(=O)[n-]c(N2CCN(c3ccccn3)CC2)n1 (3D coordinates assigned)
CCCc1cc(=O)[n-]c(N2CCN(c3ccccn3)CC2)n1 (nonaromatic ring conformer: 41.96993633084566 kcal/mol)

>  <smiles>  (22) 
CCCc1cc(=O)[nH]c(N2CCN(c3ccccn3)CC2)n1

>  <score_type>  (22) 
oracle

>  <origin>  (22) 
adg

>  <m_score__min__energy>  (22) 
-8.4900000000000002

>  <m_primary>  (22) 
energy

$$$$
22:0
     RDKit          3D

 27 27  0  0  0  0  0  0  0  0999 V2000
   57.0780   32.6760   40.6230 C   0  0  0  0  0  0  0  0  0  0  0  0
   58.2190   32.4080   41.6160 C   0  0  0  0  0  0  0  0  0  0  0  0
   57.7500   32.2650   43.0210 N   0  0  0  0  0  0  0  0  0  0  0  0
   58.4930   33.1680   43.9530 C   0  0  0  0  0  0  0  0  0  0  0  0
   57.6260   34.0390   44.8810 C   0  0  0  0  0  0  0  0  0  0  0  0
   57.6290   30.8370   43.4550 C   0  0  2  0  0  0  0  0  0  0  0  0
   56.5960   30.0360   42.6260 C   0  0  0  0  0  0  0  0  0  0  0  0
   55.4290   29.7180   43.5790 C   0  0  0  0  0  0  0  0  0  0  0  0
   55.9020   30.0120   44.8790 O   0  0  0  0  0  0  0  0  0  0  0  0
   57.1240   30.6450   44.8400 C   0  0  0  0  0  0  0  0  0  0  0  0
   57.7600   30.9550   45.8810 O   0  0  0  0  0  0  0  0  0  0  0  0
   56.1530   32.8933   41.1773 H   0  0  0  0  0  0  0  0  0  0  0  0
   57.3373   33.5377   39.9903 H   0  0  0  0  0  0  0  0  0  0  0  0
   56.9266   31.7890   39.9903 H   0  0  0  0  0  0  0  0  0  0  0  0
   58.7286   31.4789   41.3210 H   0  0  0  0  0  0  0  0  0  0  0  0
   58.8931   33.2766   41.5825 H   0  0  0  0  0  0  0  0  0  0  0  0
   56.7700   32.6380   43.0320 H   0  0  0  0  0  0  0  0  0  0  0  0
   59.1389   32.5414   44.5856 H   0  0  0  0  0  0  0  0  0  0  0  0
   59.0410   33.8727   43.3103 H   0  0  0  0  0  0  0  0  0  0  0  0
   57.8605   33.8035   45.9296 H   0  0  0  0  0  0  0  0  0  0  0  0
   57.8357   35.1015   44.6881 H   0  0  0  0  0  0  0  0  0  0  0  0
   56.5626   33.8342   44.6881 H   0  0  0  0  0  0  0  0  0  0  0  0
   58.6670   30.4929   43.3360 H   0  0  0  0  0  0  0  0  0  0  0  0
   56.2407   30.6377   41.7765 H   0  0  0  0  0  0  0  0  0  0  0  0
   57.0392   29.1163   42.2164 H   0  0  0  0  0  0  0  0  0  0  0  0
   54.5566   30.3433   43.3383 H   0  0  0  0  0  0  0  0  0  0  0  0
   55.1096   28.6690   43.4920 H   0  0  0  0  0  0  0  0  0  0  0  0
  1  2  1  0
  2  3  1  0
  3  4  1  0
  4  5  1  0
  3  6  1  0
  6  7  1  0
  7  8  1  0
  8  9  1  0
  9 10  1  0
 10 11  2  0
 10  6  1  0
  1 12  1  0
  1 13  1  0
  1 14  1  0
  2 15  1  0
  2 16  1  0
  3 17  1  0
  4 18  1  0
  4 19  1  0
  5 20  1  0
  5 21  1  0
  5 22  1  0
  6 23  1  1
  7 24  1  0
  7 25  1  0
  8 26  1  0
  8 27  1  0
M  CHG  1   3   1
M  END
>  <UniqueID>  (23) 
23

>  <SMILES>  (23) 
CC[NH+](CC)[C@@H]1CCOC1=O

>  <Energy>  (23) 
42.620937462374634

>  <Genealogy>  (23) 
CC[NH+](CC)C1CCOC1=O (protonated)
CC[NH+](CC)[C@@H]1CCOC1=O (chirality)
CC[NH+](CC)[C@@H]1CCOC1=O (3D coordinates assigned)
CC[NH+](CC)[C@@H]1CCOC1=O (nonaromatic ring conformer: 42.620937462374634 kcal/mol)

>  <smiles>  (23) 
CCN(CC)C1CCOC1=O

>  <score_type>  (23) 
oracle

>  <origin>  (23) 
adg

>  <m_score__min__energy>  (23) 
-3.4199999999999999

>  <m_primary>  (23) 
energy

$$$$
23:0
     RDKit          3D

 53 56  0  0  0  0  0  0  0  0999 V2000
   61.7690   30.9880   50.3350 C   0  0  0  0  0  0  0  0  0  0  0  0
   62.9950   31.6920   49.9710 N   0  0  0  0  0  0  0  0  0  0  0  0
   63.0850   32.6500   49.0390 C   0  0  0  0  0  0  0  0  0  0  0  0
   62.0630   33.2270   48.1770 C   0  0  0  0  0  0  0  0  0  0  0  0
   62.1300   33.2250   46.8010 C   0  0  0  0  0  0  0  0  0  0  0  0
   61.1150   33.7960   46.0350 C   0  0  0  0  0  0  0  0  0  0  0  0
   60.0060   34.3850   46.6030 C   0  0  0  0  0  0  0  0  0  0  0  0
   58.9330   34.9860   45.8030 C   0  0  0  0  0  0  0  0  0  0  0  0
   58.3110   34.1170   44.8460 N   0  0  0  0  0  0  0  0  0  0  0  0
   57.4810   33.0940   45.4430 C   0  0  0  0  0  0  0  0  0  0  0  0
   58.2070   31.8190   45.7300 C   0  0  0  0  0  0  0  0  0  0  0  0
   57.7150   30.6620   45.0740 N   0  0  0  0  0  0  0  0  0  0  0  0
   56.4850   30.9880   44.4020 C   0  0  0  0  0  0  0  0  0  0  0  0
   55.8120   29.7870   43.7890 C   0  0  0  0  0  0  0  0  0  0  0  0
   55.5230   28.9290   44.8510 O   0  0  0  0  0  0  0  0  0  0  0  0
   56.7350   28.4210   45.2880 C   0  0  0  0  0  0  0  0  0  0  0  0
   57.6680   29.4720   45.8520 C   0  0  0  0  0  0  0  0  0  0  0  0
   59.9370   34.3880   47.9920 C   0  0  0  0  0  0  0  0  0  0  0  0
   60.9400   33.8230   48.7490 C   0  0  0  0  0  0  0  0  0  0  0  0
   64.4230   33.0590   49.0020 C   0  0  0  0  0  0  0  0  0  0  0  0
   65.1430   32.3290   49.9300 C   0  0  0  0  0  0  0  0  0  0  0  0
   66.4650   32.2930   50.3300 C   0  0  0  0  0  0  0  0  0  0  0  0
   67.3100   33.1060   49.7550 N   0  0  0  0  0  0  0  0  0  0  0  0
   66.8570   31.4430   51.2840 N   0  0  0  0  0  0  0  0  0  0  0  0
   65.9680   30.6150   51.8630 C   0  0  0  0  0  0  0  0  0  0  0  0
   64.6550   30.6250   51.4930 N   0  0  0  0  0  0  0  0  0  0  0  0
   64.2160   31.4770   50.5230 C   0  0  0  0  0  0  0  0  0  0  0  0
   61.6853   30.9399   51.4308 H   0  0  0  0  0  0  0  0  0  0  0  0
   60.9017   31.5257   49.9243 H   0  0  0  0  0  0  0  0  0  0  0  0
   61.7962   29.9679   49.9243 H   0  0  0  0  0  0  0  0  0  0  0  0
   62.9957   32.7669   46.3003 H   0  0  0  0  0  0  0  0  0  0  0  0
   61.2022   33.7758   44.9387 H   0  0  0  0  0  0  0  0  0  0  0  0
   58.1541   35.3409   46.4940 H   0  0  0  0  0  0  0  0  0  0  0  0
   59.4075   35.7872   45.2174 H   0  0  0  0  0  0  0  0  0  0  0  0
   59.0690   33.7120   44.2500 H   0  0  0  0  0  0  0  0  0  0  0  0
   57.0771   33.4836   46.3891 H   0  0  0  0  0  0  0  0  0  0  0  0
   56.6920   32.8562   44.7144 H   0  0  0  0  0  0  0  0  0  0  0  0
   59.2567   31.9548   45.4306 H   0  0  0  0  0  0  0  0  0  0  0  0
   58.0658   31.6329   46.8049 H   0  0  0  0  0  0  0  0  0  0  0  0
   55.7970   31.4412   45.1308 H   0  0  0  0  0  0  0  0  0  0  0  0
   56.7311   31.6804   43.5835 H   0  0  0  0  0  0  0  0  0  0  0  0
   54.8862   30.0870   43.2763 H   0  0  0  0  0  0  0  0  0  0  0  0
   56.4548   29.3014   43.0400 H   0  0  0  0  0  0  0  0  0  0  0  0
   56.5366   27.6758   46.0725 H   0  0  0  0  0  0  0  0  0  0  0  0
   57.2354   27.9844   44.4111 H   0  0  0  0  0  0  0  0  0  0  0  0
   57.3289   29.7314   46.8658 H   0  0  0  0  0  0  0  0  0  0  0  0
   58.6806   29.0423   45.8495 H   0  0  0  0  0  0  0  0  0  0  0  0
   59.0714   34.8469   48.4922 H   0  0  0  0  0  0  0  0  0  0  0  0
   60.8514   33.8429   49.8452 H   0  0  0  0  0  0  0  0  0  0  0  0
   64.8354   33.8358   48.3413 H   0  0  0  0  0  0  0  0  0  0  0  0
   67.3280   33.0810   48.7140 H   0  0  0  0  0  0  0  0  0  0  0  0
   66.3051   29.9199   52.6461 H   0  0  0  0  0  0  0  0  0  0  0  0
   63.9580   29.9670   51.9560 H   0  0  0  0  0  0  0  0  0  0  0  0
  1  2  1  0
  2  3  1  0
  3  4  1  0
  4  5  2  0
  5  6  1  0
  6  7  2  0
  7  8  1  0
  8  9  1  0
  9 10  1  0
 10 11  1  0
 11 12  1  0
 12 13  1  0
 13 14  1  0
 14 15  1  0
 15 16  1  0
 16 17  1  0
  7 18  1  0
 18 19  2  0
  3 20  2  0
 20 21  1  0
 21 22  1  0
 22 23  2  3
 22 24  1  0
 24 25  2  0
 25 26  1  0
 26 27  1  0
 27  2  1  0
 19  4  1  0
 27 21  2  0
 17 12  1  0
  1 28  1  0
  1 29  1  0
  1 30  1  0
  5 31  1  0
  6 32  1  0
  8 33  1  0
  8 34  1  0
  9 35  1  0
 10 36  1  0
 10 37  1  0
 11 38  1  0
 11 39  1  0
 13 40  1  0
 13 41  1  0
 14 42  1  0
 14 43  1  0
 16 44  1  0
 16 45  1  0
 17 46  1  0
 17 47  1  0
 18 48  1  0
 19 49  1  0
 20 50  1  0
 23 51  1  0
 25 52  1  0
 26 53  1  0
M  END
>  <smiles>  (24) 
Cn1c(-c2ccc(CNCCN3CCOCC3)cc2)cc2c(=N)nc[nH]c21

>  <score_type>  (24) 
oracle

>  <origin>  (24) 
adg

>  <m_score__min__energy>  (24) 
-7.9900000000000002

>  <m_primary>  (24) 
energy

$$$$
24:0
     RDKit          3D

 21 21  0  0  0  0  0  0  0  0999 V2000
   60.3920   27.0510   47.3840 C   0  0  0  0  0  0  0  0  0  0  0  0
   61.0270   27.1140   46.1130 O   0  0  0  0  0  0  0  0  0  0  0  0
   60.7780   28.1380   45.1950 C   0  0  0  0  0  0  0  0  0  0  0  0
   61.7190   28.8830   44.8060 O   0  0  0  0  0  0  0  0  0  0  0  0
   59.3980   28.3580   44.7170 C   0  0  0  0  0  0  0  0  0  0  0  0
   58.7030   27.4780   43.9090 C   0  0  0  0  0  0  0  0  0  0  0  0
   57.4610   27.9550   43.7240 N   0  0  0  0  0  0  0  0  0  0  0  0
   57.4090   29.1090   44.4180 C   0  0  0  0  0  0  0  0  0  0  0  0
   56.2100   29.8930   44.5330 N   0  0  0  0  0  0  0  0  0  0  0  0
   55.1390   29.3390   44.8480 O   0  0  0  0  0  0  0  0  0  0  0  0
   56.2610   31.2660   44.4970 O   0  0  0  0  0  0  0  0  0  0  0  0
   58.5890   29.4040   45.0180 N   0  0  0  0  0  0  0  0  0  0  0  0
   58.9210   30.6000   45.7950 C   0  0  0  0  0  0  0  0  0  0  0  0
   61.1506   27.1263   48.1770 H   0  0  0  0  0  0  0  0  0  0  0  0
   59.6785   27.8828   47.4790 H   0  0  0  0  0  0  0  0  0  0  0  0
   59.8558   26.0952   47.4790 H   0  0  0  0  0  0  0  0  0  0  0  0
   59.1007   26.5429   43.4877 H   0  0  0  0  0  0  0  0  0  0  0  0
   56.6900   27.5000   43.1860 H   0  0  0  0  0  0  0  0  0  0  0  0
   58.8569   30.3692   46.8686 H   0  0  0  0  0  0  0  0  0  0  0  0
   59.9431   30.9244   45.5500 H   0  0  0  0  0  0  0  0  0  0  0  0
   58.2123   31.4048   45.5500 H   0  0  0  0  0  0  0  0  0  0  0  0
  1  2  1  0
  2  3  1  0
  3  4  2  0
  3  5  1  0
  5  6  2  0
  6  7  1  0
  7  8  2  0
  8  9  1  0
  9 10  2  0
  9 11  1  0
  8 12  1  0
 12 13  1  0
 12  5  1  0
  1 14  1  0
  1 15  1  0
  1 16  1  0
  6 17  1  0
  7 18  1  0
 13 19  1  0
 13 20  1  0
 13 21  1  0
M  CHG  3   7   1   9   1  11  -1
M  END
>  <UniqueID>  (25) 
24

>  <SMILES>  (25) 
COC(=O)c1c[nH+]c([N+](=O)[O-])n1C

>  <Energy>  (25) 
51.29013730222892

>  <Genealogy>  (25) 
COC(=O)c1c[nH+]c([N+](=O)[O-])n1C (protonated)
COC(=O)c1c[nH+]c([N+](=O)[O-])n1C (3D coordinates assigned)
COC(=O)c1c[nH+]c([N+](=O)[O-])n1C (optimized conformer: 51.29013730222892 kcal/mol)

>  <smiles>  (25) 
COC(=O)c1cnc([N+](=O)[O-])n1C

>  <score_type>  (25) 
oracle

>  <origin>  (25) 
adg

>  <m_score__min__energy>  (25) 
-3.71

>  <m_primary>  (25) 
energy

$$$$
25:0
     RDKit          3D

 45 48  0  0  0  0  0  0  0  0999 V2000
   58.1170   29.7420   42.8260 H   0  0  0  0  0  0  0  0  0  0  0  0
   57.5490   29.8830   43.6800 N   0  0  0  0  0  0  0  0  0  0  0  0
   57.8050   29.4120   44.8600 C   0  0  0  0  0  0  0  0  0  0  0  0
   57.7360   28.0910   45.0270 O   0  0  0  0  0  0  0  0  0  0  0  0
   58.0260   27.4760   46.1770 C   0  0  0  0  0  0  0  0  0  0  0  0
   57.9260   26.0400   46.2710 N   0  0  0  0  0  0  0  0  0  0  0  0
   56.8020   25.4290   46.9930 C   0  0  0  0  0  0  0  0  0  0  0  0
   57.0193   25.4336   48.0713 H   0  0  0  0  0  0  0  0  0  0  0  0
   55.8902   26.0087   46.7869 H   0  0  0  0  0  0  0  0  0  0  0  0
   56.5860   23.9860   46.5290 C   0  0  0  0  0  0  0  0  0  0  0  0
   55.8517   23.5010   47.1891 H   0  0  0  0  0  0  0  0  0  0  0  0
   56.2184   24.0003   45.4924 H   0  0  0  0  0  0  0  0  0  0  0  0
   57.7970   23.2590   46.5700 O   0  0  0  0  0  0  0  0  0  0  0  0
   58.6970   23.7890   45.6160 C   0  0  0  0  0  0  0  0  0  0  0  0
   59.5944   23.1541   45.5757 H   0  0  0  0  0  0  0  0  0  0  0  0
   58.1979   23.8110   44.6360 H   0  0  0  0  0  0  0  0  0  0  0  0
   59.1090   25.2170   45.9880 C   0  0  0  0  0  0  0  0  0  0  0  0
   59.7504   25.1870   46.8811 H   0  0  0  0  0  0  0  0  0  0  0  0
   59.6547   25.6601   45.1419 H   0  0  0  0  0  0  0  0  0  0  0  0
   58.4250   28.2070   47.2520 N   0  0  0  0  0  0  0  0  0  0  0  0
   58.5020   29.5500   47.1350 C   0  0  0  0  0  0  0  0  0  0  0  0
   58.9840   30.6070   48.3420 S   0  0  0  0  0  0  0  0  0  0  0  0
   58.7820   31.9730   47.3800 C   0  0  0  0  0  0  0  0  0  0  0  0
   58.2970   31.6240   46.1180 C   0  0  0  0  0  0  0  0  0  0  0  0
   58.1780   30.2180   45.9640 C   0  0  0  0  0  0  0  0  0  0  0  0
   57.9840   32.6960   45.1070 C   0  0  0  0  0  0  0  0  0  0  0  0
   58.7370   32.6578   44.3060 H   0  0  0  0  0  0  0  0  0  0  0  0
   56.9732   32.5063   44.7168 H   0  0  0  0  0  0  0  0  0  0  0  0
   57.9930   34.1100   45.7310 C   0  0  0  0  0  0  0  0  0  0  0  0
   58.0842   34.8498   44.9221 H   0  0  0  0  0  0  0  0  0  0  0  0
   57.0540   34.2290   46.2914 H   0  0  0  0  0  0  0  0  0  0  0  0
   59.1070   34.3130   46.6840 N   0  0  0  0  0  0  0  0  0  0  0  0
   60.4320   34.2490   46.0240 C   0  0  0  0  0  0  0  0  0  0  0  0
   60.3920   33.5090   45.2111 H   0  0  0  0  0  0  0  0  0  0  0  0
   60.6721   35.2475   45.6299 H   0  0  0  0  0  0  0  0  0  0  0  0
   61.5300   33.8430   47.0160 C   0  0  0  0  0  0  0  0  0  0  0  0
   61.5274   34.5512   47.8577 H   0  0  0  0  0  0  0  0  0  0  0  0
   61.3178   32.8187   47.3564 H   0  0  0  0  0  0  0  0  0  0  0  0
   62.9150   33.8480   46.3720 C   0  0  0  0  0  0  0  0  0  0  0  0
   63.6847   33.8508   47.1578 H   0  0  0  0  0  0  0  0  0  0  0  0
   63.0321   32.9503   45.7472 H   0  0  0  0  0  0  0  0  0  0  0  0
   63.0256   34.7465   45.7472 H   0  0  0  0  0  0  0  0  0  0  0  0
   58.9910   33.3860   47.8330 C   0  0  0  0  0  0  0  0  0  0  0  0
   59.9145   33.4375   48.4284 H   0  0  0  0  0  0  0  0  0  0  0  0
   58.1203   33.6881   48.4336 H   0  0  0  0  0  0  0  0  0  0  0  0
  1  2  1  0
  2  3  2  0
  3  4  1  0
  4  5  1  0
  5  6  1  0
  6  7  1  0
  7  8  1  0
  7  9  1  0
  7 10  1  0
 10 11  1  0
 10 12  1  0
 10 13  1  0
 13 14  1  0
 14 15  1  0
 14 16  1  0
 14 17  1  0
 17 18  1  0
 17 19  1  0
  5 20  2  0
 20 21  1  0
 21 22  1  0
 22 23  1  0
 23 24  2  0
 24 25  1  0
 24 26  1  0
 26 27  1  0
 26 28  1  0
 26 29  1  0
 29 30  1  0
 29 31  1  0
 29 32  1  0
 32 33  1  0
 33 34  1  0
 33 35  1  0
 33 36  1  0
 36 37  1  0
 36 38  1  0
 36 39  1  0
 39 40  1  0
 39 41  1  0
 39 42  1  0
 32 43  1  0
 43 44  1  0
 43 45  1  0
 25  3  1  0
 17  6  1  0
 25 21  2  0
 43 23  1  0
M  END
>  <UniqueID>  (26) 
25

>  <SMILES>  (26) 
[H]/N=c1/oc(N2CCOCC2)nc2sc3c(c12)CCN(CCC)C3

>  <Energy>  (26) 
91.19811153921

>  <Genealogy>  (26) 
[H]/N=c1/oc(N2CCOCC2)nc2sc3c(c12)CCN(CCC)C3 (cis-trans isomerization)
[H]/N=c1/oc(N2CCOCC2)nc2sc3c(c12)CCN(CCC)C3 (3D coordinates assigned)
[H]/N=c1/oc(N2CCOCC2)nc2sc3c(c12)CCN(CCC)C3 (nonaromatic ring conformer: 91.19811153921 kcal/mol)

>  <smiles>  (26) 
CCCN1CCc2c(sc3nc(N4CCOCC4)oc(=N)c23)C1

>  <score_type>  (26) 
oracle

>  <origin>  (26) 
adg

>  <m_score__min__energy>  (26) 
-6.8799999999999999

>  <m_primary>  (26) 
energy

$$$$
26:0
     RDKit          3D

 33 34  0  0  0  0  0  0  0  0999 V2000
   57.3740   31.6910   42.4140 C   0  0  0  0  0  0  0  0  0  0  0  0
   57.3720   30.8900   43.6720 C   0  0  0  0  0  0  0  0  0  0  0  0
   58.4350   30.1820   44.1850 C   0  0  0  0  0  0  0  0  0  0  0  0
   57.9370   29.6770   45.3690 C   0  0  0  0  0  0  0  0  0  0  0  0
   58.7070   28.8880   46.3820 C   0  0  0  0  0  0  0  0  0  0  0  0
   58.5310   29.4570   47.7160 N   0  0  0  0  0  0  0  0  0  0  0  0
   59.0840   30.7030   48.1610 C   0  0  0  0  0  0  0  0  0  0  0  0
   59.7120   30.7380   49.2510 O   0  0  0  0  0  0  0  0  0  0  0  0
   58.9180   31.9430   47.3870 C   0  0  0  0  0  0  0  0  0  0  0  0
   57.8420   32.2150   46.6250 N   0  0  0  0  0  0  0  0  0  0  0  0
   57.9850   33.4200   46.0940 N   0  0  0  0  0  0  0  0  0  0  0  0
   56.9830   34.0570   45.2440 C   0  0  0  0  0  0  0  0  0  0  0  0
   59.1600   33.9520   46.5080 C   0  0  0  0  0  0  0  0  0  0  0  0
   59.6470   35.3340   46.1810 C   0  0  0  0  0  0  0  0  0  0  0  0
   59.7860   33.0260   47.3340 C   0  0  0  0  0  0  0  0  0  0  0  0
   61.0040   33.2060   48.0760 N   0  0  0  0  0  0  0  0  0  0  0  0
   62.0660   32.6820   47.6860 O   0  0  0  0  0  0  0  0  0  0  0  0
   61.0110   33.9270   49.2470 O   0  0  0  0  0  0  0  0  0  0  0  0
   56.6580   30.0690   45.5320 N   0  0  0  0  0  0  0  0  0  0  0  0
   56.3540   30.7950   44.4940 O   0  0  0  0  0  0  0  0  0  0  0  0
   57.3767   32.7627   42.6617 H   0  0  0  0  0  0  0  0  0  0  0  0
   58.2715   31.4483   41.8262 H   0  0  0  0  0  0  0  0  0  0  0  0
   56.4753   31.4528   41.8262 H   0  0  0  0  0  0  0  0  0  0  0  0
   59.4390   30.0504   43.7552 H   0  0  0  0  0  0  0  0  0  0  0  0
   58.3465   27.8487   46.3814 H   0  0  0  0  0  0  0  0  0  0  0  0
   59.7749   28.9194   46.1202 H   0  0  0  0  0  0  0  0  0  0  0  0
   57.0210   31.5880   46.4670 H   0  0  0  0  0  0  0  0  0  0  0  0
   56.2219   34.5408   45.8738 H   0  0  0  0  0  0  0  0  0  0  0  0
   57.4680   34.8130   44.6089 H   0  0  0  0  0  0  0  0  0  0  0  0
   56.5043   33.2971   44.6089 H   0  0  0  0  0  0  0  0  0  0  0  0
   59.8410   35.8846   47.1133 H   0  0  0  0  0  0  0  0  0  0  0  0
   60.5755   35.2665   45.5950 H   0  0  0  0  0  0  0  0  0  0  0  0
   58.8813   35.8635   45.5950 H   0  0  0  0  0  0  0  0  0  0  0  0
  1  2  1  0
  2  3  2  0
  3  4  1  0
  4  5  1  0
  5  6  1  0
  6  7  1  0
  7  8  2  0
  7  9  1  0
  9 10  2  0
 10 11  1  0
 11 12  1  0
 11 13  1  0
 13 14  1  0
 13 15  2  0
 15 16  1  0
 16 17  2  0
 16 18  1  0
  4 19  2  0
 19 20  1  0
 20  2  1  0
 15  9  1  0
  1 21  1  0
  1 22  1  0
  1 23  1  0
  3 24  1  0
  5 25  1  0
  5 26  1  0
 10 27  1  0
 12 28  1  0
 12 29  1  0
 12 30  1  0
 14 31  1  0
 14 32  1  0
 14 33  1  0
M  CHG  4   6  -1  10   1  16   1  18  -1
M  END
>  <UniqueID>  (27) 
26

>  <SMILES>  (27) 
Cc1cc(C[N-]C(=O)c2[nH+]n(C)c(C)c2[N+](=O)[O-])no1

>  <Energy>  (27) 
94.78040697455413

>  <Genealogy>  (27) 
Cc1cc(C[N-]C(=O)c2[nH+]n(C)c(C)c2[N+](=O)[O-])no1 (protonated)
Cc1cc(C[N-]C(=O)c2[nH+]n(C)c(C)c2[N+](=O)[O-])no1 (3D coordinates assigned)
Cc1cc(C[N-]C(=O)c2[nH+]n(C)c(C)c2[N+](=O)[O-])no1 (optimized conformer: 94.78040697455413 kcal/mol)

>  <smiles>  (27) 
Cc1cc(CNC(=O)c2nn(C)c(C)c2[N+](=O)[O-])no1

>  <score_type>  (27) 
oracle

>  <origin>  (27) 
adg

>  <m_score__min__energy>  (27) 
-6.7599999999999998

>  <m_primary>  (27) 
energy

$$$$
27:0
     RDKit          3D

 59 58  0  0  0  0  0  0  0  0999 V2000
   58.6729   31.6405   44.2948 H   0  0  0  0  0  0  0  0  0  0  0  0
   57.5790   31.7280   44.3700 C   0  0  0  0  0  0  0  0  0  0  0  0
   57.0500   32.6960   45.1350 C   0  0  0  0  0  0  0  0  0  0  0  0
   56.2989   32.4370   45.8958 H   0  0  0  0  0  0  0  0  0  0  0  0
   57.4720   34.1340   44.9650 C   0  0  0  0  0  0  0  0  0  0  0  0
   57.1129   34.7135   45.8283 H   0  0  0  0  0  0  0  0  0  0  0  0
   57.0368   34.5060   44.0257 H   0  0  0  0  0  0  0  0  0  0  0  0
   58.9990   34.2810   44.8700 C   0  0  0  0  0  0  0  0  0  0  0  0
   59.2457   34.7762   43.9192 H   0  0  0  0  0  0  0  0  0  0  0  0
   59.4326   33.2718   44.9299 H   0  0  0  0  0  0  0  0  0  0  0  0
   59.5930   35.1090   46.0240 C   0  0  0  0  0  0  0  0  0  0  0  0
   58.8194   35.7914   46.4060 H   0  0  0  0  0  0  0  0  0  0  0  0
   60.4572   35.6656   45.6324 H   0  0  0  0  0  0  0  0  0  0  0  0
   60.0850   34.2200   47.1790 C   0  0  0  0  0  0  0  0  0  0  0  0
   60.4095   34.8675   48.0069 H   0  0  0  0  0  0  0  0  0  0  0  0
   60.9110   33.6044   46.7934 H   0  0  0  0  0  0  0  0  0  0  0  0
   59.0010   33.2640   47.7000 C   0  0  0  0  0  0  0  0  0  0  0  0
   58.0676   33.4801   47.1595 H   0  0  0  0  0  0  0  0  0  0  0  0
   58.9310   33.4414   48.7833 H   0  0  0  0  0  0  0  0  0  0  0  0
   59.3150   31.7650   47.5300 C   0  0  0  0  0  0  0  0  0  0  0  0
   58.4891   31.3008   46.9710 H   0  0  0  0  0  0  0  0  0  0  0  0
   59.4313   31.3498   48.5420 H   0  0  0  0  0  0  0  0  0  0  0  0
   60.6330   31.4750   46.7770 C   0  0  0  0  0  0  0  0  0  0  0  0
   60.8507   32.3357   46.1276 H   0  0  0  0  0  0  0  0  0  0  0  0
   60.4695   30.5384   46.2238 H   0  0  0  0  0  0  0  0  0  0  0  0
   61.8610   31.2330   47.6760 C   0  0  0  0  0  0  0  0  0  0  0  0
   62.0042   30.1458   47.7629 H   0  0  0  0  0  0  0  0  0  0  0  0
   61.6336   31.7375   48.6267 H   0  0  0  0  0  0  0  0  0  0  0  0
   63.1880   31.8440   47.1930 C   0  0  0  0  0  0  0  0  0  0  0  0
   63.2555   31.7016   46.1044 H   0  0  0  0  0  0  0  0  0  0  0  0
   63.9882   31.3293   47.7450 H   0  0  0  0  0  0  0  0  0  0  0  0
   63.3470   33.3510   47.4930 C   0  0  0  0  0  0  0  0  0  0  0  0
   62.4576   33.8710   47.1076 H   0  0  0  0  0  0  0  0  0  0  0  0
   64.2823   33.6637   47.0057 H   0  0  0  0  0  0  0  0  0  0  0  0
   63.5000   33.7080   48.9880 C   0  0  0  0  0  0  0  0  0  0  0  0
   64.3152   34.4410   49.0782 H   0  0  0  0  0  0  0  0  0  0  0  0
   63.6948   32.7562   49.5039 H   0  0  0  0  0  0  0  0  0  0  0  0
   62.2510   34.3040   49.6670 C   0  0  0  0  0  0  0  0  0  0  0  0
   61.5973   34.7248   48.8888 H   0  0  0  0  0  0  0  0  0  0  0  0
   62.5983   35.0715   50.3743 H   0  0  0  0  0  0  0  0  0  0  0  0
   61.4490   33.2710   50.4720 C   0  0  0  0  0  0  0  0  0  0  0  0
   61.9655   33.0763   51.4235 H   0  0  0  0  0  0  0  0  0  0  0  0
   61.3723   32.3470   49.8800 H   0  0  0  0  0  0  0  0  0  0  0  0
   60.0330   33.7840   50.7650 C   0  0  0  0  0  0  0  0  0  0  0  0
   59.6731   34.3597   49.8995 H   0  0  0  0  0  0  0  0  0  0  0  0
   60.0698   34.4185   51.6628 H   0  0  0  0  0  0  0  0  0  0  0  0
   59.0730   32.6260   51.0280 C   0  0  0  0  0  0  0  0  0  0  0  0
   58.9565   32.4855   52.1127 H   0  0  0  0  0  0  0  0  0  0  0  0
   58.0940   32.8524   50.5804 H   0  0  0  0  0  0  0  0  0  0  0  0
   59.4769   31.7060   50.5804 H   0  0  0  0  0  0  0  0  0  0  0  0
   56.7110   30.7600   43.6130 C   0  0  0  0  0  0  0  0  0  0  0  0
   55.7701   31.2610   43.3416 H   0  0  0  0  0  0  0  0  0  0  0  0
   57.2575   30.4376   42.7144 H   0  0  0  0  0  0  0  0  0  0  0  0
   56.3950   29.5390   44.4360 C   0  0  0  0  0  0  0  0  0  0  0  0
   55.2610   29.3670   44.8570 O   0  0  0  0  0  0  0  0  0  0  0  0
   57.4610   28.5250   44.7360 C   0  0  0  0  0  0  0  0  0  0  0  0
   57.5712   28.4202   45.8254 H   0  0  0  0  0  0  0  0  0  0  0  0
   57.1774   27.5552   44.3012 H   0  0  0  0  0  0  0  0  0  0  0  0
   58.4154   28.8567   44.3012 H   0  0  0  0  0  0  0  0  0  0  0  0
  1  2  1  0
  2  3  2  0
  3  4  1  0
  3  5  1  0
  5  6  1  0
  5  7  1  0
  5  8  1  0
  8  9  1  0
  8 10  1  0
  8 11  1  0
 11 12  1  0
 11 13  1  0
 11 14  1  0
 14 15  1  0
 14 16  1  0
 14 17  1  0
 17 18  1  0
 17 19  1  0
 17 20  1  0
 20 21  1  0
 20 22  1  0
 20 23  1  0
 23 24  1  0
 23 25  1  0
 23 26  1  0
 26 27  1  0
 26 28  1  0
 26 29  1  0
 29 30  1  0
 29 31  1  0
 29 32  1  0
 32 33  1  0
 32 34  1  0
 32 35  1  0
 35 36  1  0
 35 37  1  0
 35 38  1  0
 38 39  1  0
 38 40  1  0
 38 41  1  0
 41 42  1  0
 41 43  1  0
 41 44  1  0
 44 45  1  0
 44 46  1  0
 44 47  1  0
 47 48  1  0
 47 49  1  0
 47 50  1  0
  2 51  1  0
 51 52  1  0
 51 53  1  0
 51 54  1  0
 54 55  2  0
 54 56  1  0
 56 57  1  0
 56 58  1  0
 56 59  1  0
M  END
>  <UniqueID>  (28) 
27

>  <SMILES>  (28) 
CCCCCCCCCCCCCCC/C=C/CC(C)=O

>  <Energy>  (28) 
26.44277557596229

>  <Genealogy>  (28) 
CCCCCCCCCCCCCCC/C=C/CC(C)=O (cis-trans isomerization)
CCCCCCCCCCCCCCC/C=C/CC(C)=O (3D coordinates assigned)
CCCCCCCCCCCCCCC/C=C/CC(C)=O (optimized conformer: 26.44277557596229 kcal/mol)

>  <smiles>  (28) 
CCCCCCCCCCCCCCCC=CCC(C)=O

>  <score_type>  (28) 
oracle

>  <origin>  (28) 
adg

>  <m_score__min__energy>  (28) 
-6.7599999999999998

>  <m_primary>  (28) 
energy

$$$$
28:0
     RDKit          3D

 48 49  0  0  0  0  0  0  0  0999 V2000
   59.4910   34.9710   47.4060 C   0  0  0  0  0  0  0  0  0  0  0  0
   59.8890   34.5570   45.9950 C   0  0  0  0  0  0  0  0  0  0  0  0
   58.4490   34.5940   44.8690 S   0  0  0  0  0  0  0  0  0  0  0  0
   58.0860   32.8400   45.0090 C   0  0  0  0  0  0  0  0  0  0  0  0
   58.5070   32.1250   46.1310 C   0  0  0  0  0  0  0  0  0  0  0  0
   58.2210   30.7640   46.2430 C   0  0  0  0  0  0  0  0  0  0  0  0
   57.5180   30.0930   45.2260 C   0  0  0  0  0  0  0  0  0  0  0  0
   57.1840   28.7010   45.3790 N   0  0  0  0  0  0  0  0  0  0  0  0
   58.0490   27.6340   44.9580 C   0  0  0  0  0  0  0  0  0  0  0  0
   58.9740   27.8670   44.1330 O   0  0  0  0  0  0  0  0  0  0  0  0
   57.8360   26.2520   45.4480 C   0  0  0  0  0  0  0  0  0  0  0  0
   58.8360   25.2820   45.3040 C   0  0  0  0  0  0  0  0  0  0  0  0
   58.6360   23.9700   45.7660 C   0  0  0  0  0  0  0  0  0  0  0  0
   59.6240   22.9790   45.6310 O   0  0  0  0  0  0  0  0  0  0  0  0
   59.7960   22.1580   44.4800 C   0  0  0  0  0  0  0  0  0  0  0  0
   57.4240   23.6180   46.3820 C   0  0  0  0  0  0  0  0  0  0  0  0
   57.3070   22.2890   46.8330 O   0  0  0  0  0  0  0  0  0  0  0  0
   57.0570   21.1390   46.0330 C   0  0  0  0  0  0  0  0  0  0  0  0
   56.3950   24.5870   46.5160 C   0  0  0  0  0  0  0  0  0  0  0  0
   55.1730   24.2340   47.1070 O   0  0  0  0  0  0  0  0  0  0  0  0
   54.3240   23.1780   46.6670 C   0  0  0  0  0  0  0  0  0  0  0  0
   56.6170   25.8950   46.0420 C   0  0  0  0  0  0  0  0  0  0  0  0
   57.1030   30.8140   44.0820 C   0  0  0  0  0  0  0  0  0  0  0  0
   56.3440   30.1390   42.9720 C   0  0  0  0  0  0  0  0  0  0  0  0
   57.3930   32.1850   43.9850 C   0  0  0  0  0  0  0  0  0  0  0  0
   60.0609   34.3782   48.1366 H   0  0  0  0  0  0  0  0  0  0  0  0
   59.7098   36.0393   47.5501 H   0  0  0  0  0  0  0  0  0  0  0  0
   58.4149   34.7944   47.5501 H   0  0  0  0  0  0  0  0  0  0  0  0
   60.6565   35.2501   45.6200 H   0  0  0  0  0  0  0  0  0  0  0  0
   60.2803   33.5295   46.0290 H   0  0  0  0  0  0  0  0  0  0  0  0
   59.0657   32.6357   46.9291 H   0  0  0  0  0  0  0  0  0  0  0  0
   58.5485   30.2103   47.1353 H   0  0  0  0  0  0  0  0  0  0  0  0
   56.2350   28.4540   45.7410 H   0  0  0  0  0  0  0  0  0  0  0  0
   59.7887   25.5502   44.8239 H   0  0  0  0  0  0  0  0  0  0  0  0
   60.0121   21.1263   44.7945 H   0  0  0  0  0  0  0  0  0  0  0  0
   58.8753   22.1726   43.8783 H   0  0  0  0  0  0  0  0  0  0  0  0
   60.6334   22.5410   43.8783 H   0  0  0  0  0  0  0  0  0  0  0  0
   56.8687   20.2730   46.6846 H   0  0  0  0  0  0  0  0  0  0  0  0
   56.1769   21.3183   45.3980 H   0  0  0  0  0  0  0  0  0  0  0  0
   57.9322   20.9368   45.3980 H   0  0  0  0  0  0  0  0  0  0  0  0
   53.9048   22.6566   47.5401 H   0  0  0  0  0  0  0  0  0  0  0  0
   53.5059   23.5938   46.0606 H   0  0  0  0  0  0  0  0  0  0  0  0
   54.9058   22.4683   46.0606 H   0  0  0  0  0  0  0  0  0  0  0  0
   55.8213   26.6483   46.1394 H   0  0  0  0  0  0  0  0  0  0  0  0
   55.5873   29.4661   43.4016 H   0  0  0  0  0  0  0  0  0  0  0  0
   55.8480   30.8999   42.3514 H   0  0  0  0  0  0  0  0  0  0  0  0
   57.0418   29.5576   42.3514 H   0  0  0  0  0  0  0  0  0  0  0  0
   57.0725   32.7486   43.0964 H   0  0  0  0  0  0  0  0  0  0  0  0
  1  2  1  0
  2  3  1  0
  3  4  1  0
  4  5  2  0
  5  6  1  0
  6  7  2  0
  7  8  1  0
  8  9  1  0
  9 10  2  0
  9 11  1  0
 11 12  2  0
 12 13  1  0
 13 14  1  0
 14 15  1  0
 13 16  2  0
 16 17  1  0
 17 18  1  0
 16 19  1  0
 19 20  1  0
 20 21  1  0
 19 22  2  0
  7 23  1  0
 23 24  1  0
 23 25  2  0
 25  4  1  0
 22 11  1  0
  1 26  1  0
  1 27  1  0
  1 28  1  0
  2 29  1  0
  2 30  1  0
  5 31  1  0
  6 32  1  0
  8 33  1  0
 12 34  1  0
 15 35  1  0
 15 36  1  0
 15 37  1  0
 18 38  1  0
 18 39  1  0
 18 40  1  0
 21 41  1  0
 21 42  1  0
 21 43  1  0
 22 44  1  0
 24 45  1  0
 24 46  1  0
 24 47  1  0
 25 48  1  0
M  END
>  <UniqueID>  (29) 
28

>  <SMILES>  (29) 
CCSc1ccc(NC(=O)c2cc(OC)c(OC)c(OC)c2)c(C)c1

>  <Energy>  (29) 
49.53349099013506

>  <Genealogy>  (29) 
CCSc1ccc(NC(=O)c2cc(OC)c(OC)c(OC)c2)c(C)c1 (3D coordinates assigned)
CCSc1ccc(NC(=O)c2cc(OC)c(OC)c(OC)c2)c(C)c1 (optimized conformer: 49.53349099013506 kcal/mol)

>  <smiles>  (29) 
CCSc1ccc(NC(=O)c2cc(OC)c(OC)c(OC)c2)c(C)c1

>  <score_type>  (29) 
oracle

>  <origin>  (29) 
adg

>  <m_score__min__energy>  (29) 
-7.5

>  <m_primary>  (29) 
energy

$$$$
29:0
     RDKit          3D

 65 70  0  0  0  0  0  0  0  0999 V2000
   67.5180   33.5220   50.6380 C   0  0  0  0  0  0  0  0  0  0  0  0
   66.0780   33.2120   50.6510 N   0  0  0  0  0  0  0  0  0  0  0  0
   65.8550   31.7610   50.4300 C   0  0  0  0  0  0  0  0  0  0  0  0
   64.5750   31.2370   51.1180 C   0  0  0  0  0  0  0  0  0  0  0  0
   63.4990   32.2540   51.1470 N   0  0  0  0  0  0  0  0  0  0  0  0
   62.8510   32.5760   49.8370 C   0  0  1  0  0  0  0  0  0  0  0  0
   63.2630   31.6140   48.6920 C   0  0  0  0  0  0  0  0  0  0  0  0
   62.4980   31.9230   47.3990 C   0  0  0  0  0  0  0  0  0  0  0  0
   60.9560   31.8230   47.5810 C   0  0  2  0  0  0  0  0  0  0  0  0
   60.1860   32.8720   46.8590 N   0  0  0  0  0  0  0  0  0  0  0  0
   60.3580   34.2260   47.1120 C   0  0  0  0  0  0  0  0  0  0  0  0
   61.0290   34.6220   48.1010 O   0  0  0  0  0  0  0  0  0  0  0  0
   59.7960   35.1700   46.2960 N   0  0  0  0  0  0  0  0  0  0  0  0
   59.0180   34.8350   45.2380 C   0  0  0  0  0  0  0  0  0  0  0  0
   58.5300   35.7260   44.4950 O   0  0  0  0  0  0  0  0  0  0  0  0
   58.7500   33.4950   45.0280 C   0  0  0  0  0  0  0  0  0  0  0  0
   57.9230   32.9620   44.1070 N   0  0  0  0  0  0  0  0  0  0  0  0
   57.8910   31.6460   44.3950 C   0  0  0  0  0  0  0  0  0  0  0  0
   57.1060   30.6890   43.7590 C   0  0  0  0  0  0  0  0  0  0  0  0
   57.1120   29.3810   44.2640 C   0  0  0  0  0  0  0  0  0  0  0  0
   57.8650   29.0530   45.4180 C   0  0  0  0  0  0  0  0  0  0  0  0
   57.8140   27.6770   45.9750 C   0  0  0  0  0  0  0  0  0  0  0  0
   58.9500   27.1140   46.5850 C   0  0  0  0  0  0  0  0  0  0  0  0
   58.9010   25.8200   47.1130 C   0  0  0  0  0  0  0  0  0  0  0  0
   57.7220   25.0750   47.0370 C   0  0  0  0  0  0  0  0  0  0  0  0
   57.6790   23.8210   47.5500 F   0  0  0  0  0  0  0  0  0  0  0  0
   56.5880   25.6230   46.4300 C   0  0  0  0  0  0  0  0  0  0  0  0
   55.4440   24.8990   46.3480 F   0  0  0  0  0  0  0  0  0  0  0  0
   56.6310   26.9170   45.9010 C   0  0  0  0  0  0  0  0  0  0  0  0
   58.6460   30.0490   46.0500 C   0  0  0  0  0  0  0  0  0  0  0  0
   58.6860   31.3350   45.4880 C   0  0  0  0  0  0  0  0  0  0  0  0
   59.2820   32.5440   45.8720 C   0  0  0  0  0  0  0  0  0  0  0  0
   60.5070   31.7070   49.0540 C   0  0  0  0  0  0  0  0  0  0  0  0
   61.2970   32.6040   50.0170 C   0  0  0  0  0  0  0  0  0  0  0  0
   63.9360   33.4710   51.8870 C   0  0  0  0  0  0  0  0  0  0  0  0
   65.4670   33.6740   51.9120 C   0  0  0  0  0  0  0  0  0  0  0  0
   67.8854   33.6011   51.6718 H   0  0  0  0  0  0  0  0  0  0  0  0
   68.0610   32.7202   50.1162 H   0  0  0  0  0  0  0  0  0  0  0  0
   67.6829   34.4762   50.1162 H   0  0  0  0  0  0  0  0  0  0  0  0
   65.6470   33.7470   49.8610 H   0  0  0  0  0  0  0  0  0  0  0  0
   65.7712   31.5797   49.3483 H   0  0  0  0  0  0  0  0  0  0  0  0
   66.7089   31.2253   50.8704 H   0  0  0  0  0  0  0  0  0  0  0  0
   64.2138   30.3547   50.5693 H   0  0  0  0  0  0  0  0  0  0  0  0
   64.8297   30.9852   52.1581 H   0  0  0  0  0  0  0  0  0  0  0  0
   63.2092   33.5698   49.5303 H   0  0  0  0  0  0  0  0  0  0  0  0
   63.0459   30.5799   48.9978 H   0  0  0  0  0  0  0  0  0  0  0  0
   64.3377   31.7464   48.4985 H   0  0  0  0  0  0  0  0  0  0  0  0
   62.8092   31.2060   46.6250 H   0  0  0  0  0  0  0  0  0  0  0  0
   62.7342   32.9577   47.1099 H   0  0  0  0  0  0  0  0  0  0  0  0
   60.7043   30.8678   47.0970 H   0  0  0  0  0  0  0  0  0  0  0  0
   57.3770   33.4640   43.3720 H   0  0  0  0  0  0  0  0  0  0  0  0
   56.4961   30.9521   42.8822 H   0  0  0  0  0  0  0  0  0  0  0  0
   56.5250   28.6003   43.7580 H   0  0  0  0  0  0  0  0  0  0  0  0
   59.8820   27.6950   46.6469 H   0  0  0  0  0  0  0  0  0  0  0  0
   59.7933   25.3878   47.5894 H   0  0  0  0  0  0  0  0  0  0  0  0
   55.7358   27.3433   45.4246 H   0  0  0  0  0  0  0  0  0  0  0  0
   59.2117   29.8200   46.9652 H   0  0  0  0  0  0  0  0  0  0  0  0
   60.6320   30.6617   49.3730 H   0  0  0  0  0  0  0  0  0  0  0  0
   59.4590   32.0386   49.0956 H   0  0  0  0  0  0  0  0  0  0  0  0
   61.0684   32.2835   51.0441 H   0  0  0  0  0  0  0  0  0  0  0  0
   60.9846   33.6353   49.7962 H   0  0  0  0  0  0  0  0  0  0  0  0
   63.4782   34.3496   51.4091 H   0  0  0  0  0  0  0  0  0  0  0  0
   63.6146   33.3417   52.9310 H   0  0  0  0  0  0  0  0  0  0  0  0
   65.6867   34.7431   52.0486 H   0  0  0  0  0  0  0  0  0  0  0  0
   65.8867   33.0874   52.7425 H   0  0  0  0  0  0  0  0  0  0  0  0
  1  2  1  0
  2  3  1  0
  3  4  1  0
  4  5  1  0
  5  6  1  0
  6  7  1  0
  7  8  1  0
  8  9  1  0
  9 10  1  0
 10 11  1  0
 11 12  2  0
 11 13  1  0
 13 14  1  0
 14 15  2  0
 14 16  1  0
 16 17  1  0
 17 18  1  0
 18 19  2  0
 19 20  1  0
 20 21  2  0
 21 22  1  0
 22 23  2  0
 23 24  1  0
 24 25  2  0
 25 26  1  0
 25 27  1  0
 27 28  1  0
 27 29  2  0
 21 30  1  0
 30 31  2  0
 31 32  1  0
  9 33  1  0
 33 34  1  0
  5 35  1  0
 35 36  1  0
 36  2  1  0
 34  6  1  0
 32 10  1  0
 32 16  2  0
 31 18  1  0
 29 22  1  0
  1 37  1  0
  1 38  1  0
  1 39  1  0
  2 40  1  0
  3 41  1  0
  3 42  1  0
  4 43  1  0
  4 44  1  0
  6 45  1  6
  7 46  1  0
  7 47  1  0
  8 48  1  0
  8 49  1  0
  9 50  1  6
 17 51  1  0
 19 52  1  0
 20 53  1  0
 23 54  1  0
 24 55  1  0
 29 56  1  0
 30 57  1  0
 33 58  1  0
 33 59  1  0
 34 60  1  0
 34 61  1  0
 35 62  1  0
 35 63  1  0
 36 64  1  0
 36 65  1  0
M  CHG  2   2   1  13  -1
M  END
>  <UniqueID>  (30) 
29

>  <SMILES>  (30) 
C[NH+]1CCN(C2CCC(n3c(=O)[n-]c(=O)c4[nH]c5ccc(-c6ccc(F)c(F)c6)cc5c43)CC2)CC1

>  <Energy>  (30) 
158.94043417902228

>  <Genealogy>  (30) 
C[NH+]1CCN(C2CCC(n3c(=O)[n-]c(=O)c4[nH]c5ccc(-c6ccc(F)c(F)c6)cc5c43)CC2)CC1 (protonated)
C[NH+]1CCN(C2CCC(n3c(=O)[n-]c(=O)c4[nH]c5ccc(-c6ccc(F)c(F)c6)cc5c43)CC2)CC1 (3D coordinates assigned)
C[NH+]1CCN(C2CCC(n3c(=O)[n-]c(=O)c4[nH]c5ccc(-c6ccc(F)c(F)c6)cc5c43)CC2)CC1 (nonaromatic ring conformer: 158.94043417902228 kcal/mol)

>  <smiles>  (30) 
CN1CCN(C2CCC(n3c(=O)[nH]c(=O)c4[nH]c5ccc(-c6ccc(F)c(F)c6)cc5c43)CC2)CC1

>  <score_type>  (30) 
oracle

>  <origin>  (30) 
adg

>  <m_score__min__energy>  (30) 
-8.8599999999999994

>  <m_primary>  (30) 
energy

$$$$
30:0
     RDKit          3D

 49 51  0  0  0  0  0  0  0  0999 V2000
   59.5280   35.1030   46.2350 C   0  0  0  0  0  0  0  0  0  0  0  0
   58.7820   34.8670   45.0450 O   0  0  0  0  0  0  0  0  0  0  0  0
   58.3400   33.6030   44.6270 C   0  0  0  0  0  0  0  0  0  0  0  0
   58.4800   33.1540   43.2990 C   0  0  0  0  0  0  0  0  0  0  0  0
   58.0250   31.8830   42.9330 C   0  0  0  0  0  0  0  0  0  0  0  0
   57.4300   31.0490   43.8840 C   0  0  0  0  0  0  0  0  0  0  0  0
   56.8780   29.4470   43.4170 S   0  0  0  0  0  0  0  0  0  0  0  0
   55.2000   29.3430   43.3990 O   0  0  0  0  0  0  0  0  0  0  0  0
   57.6420   28.1240   44.3420 C   0  0  0  0  0  0  0  0  0  0  0  0
   58.6560   28.6680   45.3070 C   0  0  0  0  0  0  0  0  0  0  0  0
   59.9650   28.9390   44.8790 C   0  0  0  0  0  0  0  0  0  0  0  0
   60.8930   29.5000   45.7590 C   0  0  0  0  0  0  0  0  0  0  0  0
   60.5240   29.8010   47.0850 C   0  0  0  0  0  0  0  0  0  0  0  0
   61.4130   30.3720   48.0110 O   0  0  0  0  0  0  0  0  0  0  0  0
   61.3130   31.6890   48.5620 C   0  0  0  0  0  0  0  0  0  0  0  0
   61.3200   32.7560   47.4420 C   0  0  0  0  0  0  0  0  0  0  0  0
   62.7300   33.3020   47.1410 C   0  0  0  0  0  0  0  0  0  0  0  0
   63.7580   32.2770   47.3760 N   0  0  0  0  0  0  0  0  0  0  0  0
   63.8460   31.8890   48.7990 C   0  0  0  0  0  0  0  0  0  0  0  0
   62.4830   31.9110   49.5270 C   0  0  0  0  0  0  0  0  0  0  0  0
   59.2180   29.5300   47.5060 C   0  0  0  0  0  0  0  0  0  0  0  0
   58.2880   28.9700   46.6260 C   0  0  0  0  0  0  0  0  0  0  0  0
   57.2810   31.4930   45.2040 C   0  0  0  0  0  0  0  0  0  0  0  0
   57.7380   32.7630   45.5710 C   0  0  0  0  0  0  0  0  0  0  0  0
   58.8939   34.9024   47.1111 H   0  0  0  0  0  0  0  0  0  0  0  0
   60.4041   34.4381   46.2565 H   0  0  0  0  0  0  0  0  0  0  0  0
   59.8623   36.1508   46.2565 H   0  0  0  0  0  0  0  0  0  0  0  0
   58.9490   33.8055   42.5470 H   0  0  0  0  0  0  0  0  0  0  0  0
   58.1357   31.5388   41.8941 H   0  0  0  0  0  0  0  0  0  0  0  0
   54.9860   28.7750   42.6170 H   0  0  0  0  0  0  0  0  0  0  0  0
   56.8667   27.5799   44.9014 H   0  0  0  0  0  0  0  0  0  0  0  0
   58.1502   27.4481   43.6385 H   0  0  0  0  0  0  0  0  0  0  0  0
   60.2614   28.7083   43.8451 H   0  0  0  0  0  0  0  0  0  0  0  0
   61.9170   29.7079   45.4152 H   0  0  0  0  0  0  0  0  0  0  0  0
   60.3620   31.7862   49.1063 H   0  0  0  0  0  0  0  0  0  0  0  0
   60.9156   32.3040   46.5243 H   0  0  0  0  0  0  0  0  0  0  0  0
   60.7062   33.6008   47.7877 H   0  0  0  0  0  0  0  0  0  0  0  0
   62.7745   33.6204   46.0890 H   0  0  0  0  0  0  0  0  0  0  0  0
   62.9253   34.1517   47.8118 H   0  0  0  0  0  0  0  0  0  0  0  0
   64.6850   32.6550   47.0710 H   0  0  0  0  0  0  0  0  0  0  0  0
   63.5500   31.4350   46.7890 H   0  0  0  0  0  0  0  0  0  0  0  0
   64.2562   30.8700   48.8578 H   0  0  0  0  0  0  0  0  0  0  0  0
   64.4920   32.6269   49.2972 H   0  0  0  0  0  0  0  0  0  0  0  0
   62.4730   31.1151   50.2863 H   0  0  0  0  0  0  0  0  0  0  0  0
   62.3599   32.9022   49.9879 H   0  0  0  0  0  0  0  0  0  0  0  0
   58.9201   29.7599   48.5396 H   0  0  0  0  0  0  0  0  0  0  0  0
   57.2632   28.7653   46.9694 H   0  0  0  0  0  0  0  0  0  0  0  0
   56.8044   30.8427   45.9523 H   0  0  0  0  0  0  0  0  0  0  0  0
   57.6233   33.1045   46.6103 H   0  0  0  0  0  0  0  0  0  0  0  0
  1  2  1  0
  2  3  1  0
  3  4  2  0
  4  5  1  0
  5  6  2  0
  6  7  1  0
  7  8  1  1
  7  9  1  0
  9 10  1  0
 10 11  2  0
 11 12  1  0
 12 13  2  0
 13 14  1  0
 14 15  1  0
 15 16  1  0
 16 17  1  0
 17 18  1  0
 18 19  1  0
 19 20  1  0
 13 21  1  0
 21 22  2  0
  6 23  1  0
 23 24  2  0
 24  3  1  0
 22 10  1  0
 20 15  1  0
  1 25  1  0
  1 26  1  0
  1 27  1  0
  4 28  1  0
  5 29  1  0
  8 30  1  0
  9 31  1  0
  9 32  1  0
 11 33  1  0
 12 34  1  0
 15 35  1  0
 16 36  1  0
 16 37  1  0
 17 38  1  0
 17 39  1  0
 18 40  1  0
 18 41  1  0
 19 42  1  0
 19 43  1  0
 20 44  1  0
 20 45  1  0
 21 46  1  0
 22 47  1  0
 23 48  1  0
 24 49  1  0
M  CHG  2   7   1  18   1
M  END
>  <UniqueID>  (31) 
30

>  <SMILES>  (31) 
COc1ccc([S@+](O)Cc2ccc(OC3CC[NH2+]CC3)cc2)cc1

>  <Energy>  (31) 
47.6941696635579

>  <Genealogy>  (31) 
COc1ccc([S+](O)Cc2ccc(OC3CC[NH2+]CC3)cc2)cc1 (protonated)
COc1ccc([S@+](O)Cc2ccc(OC3CC[NH2+]CC3)cc2)cc1 (chirality)
COc1ccc([S@+](O)Cc2ccc(OC3CC[NH2+]CC3)cc2)cc1 (3D coordinates assigned)
COc1ccc([S@+](O)Cc2ccc(OC3CC[NH2+]CC3)cc2)cc1 (nonaromatic ring conformer: 47.6941696635579 kcal/mol)

>  <smiles>  (31) 
COc1ccc([S+]([O-])Cc2ccc(OC3CCNCC3)cc2)cc1

>  <score_type>  (31) 
oracle

>  <origin>  (31) 
adg

>  <m_score__min__energy>  (31) 
-5.04

>  <m_primary>  (31) 
energy

$$$$
31:0
     RDKit          3D

 40 42  0  0  0  0  0  0  0  0999 V2000
   60.0460   28.4320   48.5760 C   0  0  0  0  0  0  0  0  0  0  0  0
   60.3570   29.0840   47.3480 O   0  0  0  0  0  0  0  0  0  0  0  0
   59.4840   29.9270   46.6410 C   0  0  0  0  0  0  0  0  0  0  0  0
   59.7880   31.2890   46.4600 C   0  0  0  0  0  0  0  0  0  0  0  0
   58.9390   32.1270   45.7280 C   0  0  0  0  0  0  0  0  0  0  0  0
   59.2640   33.5150   45.5370 N   0  0  0  0  0  0  0  0  0  0  0  0
   58.6180   34.3310   44.7240 N   0  0  0  0  0  0  0  0  0  0  0  0
   59.0720   35.5650   44.8700 N   0  0  0  0  0  0  0  0  0  0  0  0
   60.0330   35.5750   45.7830 N   0  0  0  0  0  0  0  0  0  0  0  0
   60.1530   34.2950   46.1940 C   0  0  0  0  0  0  0  0  0  0  0  0
   61.1660   33.8470   47.1730 C   0  0  0  0  0  0  0  0  0  0  0  0
   60.8460   33.8130   48.5410 C   0  0  0  0  0  0  0  0  0  0  0  0
   61.7940   33.3910   49.4770 C   0  0  0  0  0  0  0  0  0  0  0  0
   63.0730   33.0140   49.0580 C   0  0  0  0  0  0  0  0  0  0  0  0
   63.4080   33.0660   47.7030 C   0  0  0  0  0  0  0  0  0  0  0  0
   62.4620   33.4890   46.7640 C   0  0  0  0  0  0  0  0  0  0  0  0
   57.7490   31.6120   45.2060 C   0  0  0  0  0  0  0  0  0  0  0  0
   57.4160   30.2580   45.3850 C   0  0  0  0  0  0  0  0  0  0  0  0
   56.2300   29.7140   44.8660 O   0  0  0  0  0  0  0  0  0  0  0  0
   55.8630   29.7350   43.4900 C   0  0  0  0  0  0  0  0  0  0  0  0
   58.2800   29.4090   46.0970 C   0  0  0  0  0  0  0  0  0  0  0  0
   57.8800   28.0640   46.2250 O   0  0  0  0  0  0  0  0  0  0  0  0
   58.1930   26.9980   45.3370 C   0  0  0  0  0  0  0  0  0  0  0  0
   60.3508   29.0710   49.4179 H   0  0  0  0  0  0  0  0  0  0  0  0
   58.9629   28.2475   48.6291 H   0  0  0  0  0  0  0  0  0  0  0  0
   60.5842   27.4741   48.6291 H   0  0  0  0  0  0  0  0  0  0  0  0
   60.7075   31.7016   46.9008 H   0  0  0  0  0  0  0  0  0  0  0  0
   57.8350   34.0600   44.0880 H   0  0  0  0  0  0  0  0  0  0  0  0
   59.8445   34.1200   48.8766 H   0  0  0  0  0  0  0  0  0  0  0  0
   61.5332   33.3555   50.5451 H   0  0  0  0  0  0  0  0  0  0  0  0
   63.8160   32.6763   49.7955 H   0  0  0  0  0  0  0  0  0  0  0  0
   64.4164   32.7741   47.3744 H   0  0  0  0  0  0  0  0  0  0  0  0
   62.7338   33.5418   45.6994 H   0  0  0  0  0  0  0  0  0  0  0  0
   57.0669   32.2721   44.6501 H   0  0  0  0  0  0  0  0  0  0  0  0
   54.7682   29.7976   43.4034 H   0  0  0  0  0  0  0  0  0  0  0  0
   56.3200   30.6085   43.0019 H   0  0  0  0  0  0  0  0  0  0  0  0
   56.2174   28.8151   43.0019 H   0  0  0  0  0  0  0  0  0  0  0  0
   58.4561   26.1019   45.9182 H   0  0  0  0  0  0  0  0  0  0  0  0
   57.3207   26.7808   44.7030 H   0  0  0  0  0  0  0  0  0  0  0  0
   59.0442   27.2869   44.7030 H   0  0  0  0  0  0  0  0  0  0  0  0
  1  2  1  0
  2  3  1  0
  3  4  2  0
  4  5  1  0
  5  6  1  0
  6  7  1  0
  7  8  2  0
  8  9  1  0
  9 10  2  0
 10 11  1  0
 11 12  2  0
 12 13  1  0
 13 14  2  0
 14 15  1  0
 15 16  2  0
  5 17  2  0
 17 18  1  0
 18 19  1  0
 19 20  1  0
 18 21  2  0
 21 22  1  0
 22 23  1  0
 21  3  1  0
 10  6  1  0
 16 11  1  0
  1 24  1  0
  1 25  1  0
  1 26  1  0
  4 27  1  0
  7 28  1  0
 12 29  1  0
 13 30  1  0
 14 31  1  0
 15 32  1  0
 16 33  1  0
 17 34  1  0
 20 35  1  0
 20 36  1  0
 20 37  1  0
 23 38  1  0
 23 39  1  0
 23 40  1  0
M  CHG  1   7   1
M  END
>  <UniqueID>  (32) 
31

>  <SMILES>  (32) 
COc1cc(-n2[nH+]nnc2-c2ccccc2)cc(OC)c1OC

>  <Energy>  (32) 
92.29077142361051

>  <Genealogy>  (32) 
COc1cc(-n2[nH+]nnc2-c2ccccc2)cc(OC)c1OC (protonated)
COc1cc(-n2[nH+]nnc2-c2ccccc2)cc(OC)c1OC (3D coordinates assigned)
COc1cc(-n2[nH+]nnc2-c2ccccc2)cc(OC)c1OC (optimized conformer: 92.29077142361051 kcal/mol)

>  <smiles>  (32) 
COc1cc(-n2nnnc2-c2ccccc2)cc(OC)c1OC

>  <score_type>  (32) 
oracle

>  <origin>  (32) 
adg

>  <m_score__min__energy>  (32) 
-5.71

>  <m_primary>  (32) 
energy

$$$$
32:0
     RDKit          3D

 41 43  0  0  0  0  0  0  0  0999 V2000
   56.3010   24.6850   46.9010 C   0  0  0  0  0  0  0  0  0  0  0  0
   56.1710   26.0210   46.2370 C   0  0  0  0  0  0  0  0  0  0  0  0
   55.0160   26.4680   45.9990 O   0  0  0  0  0  0  0  0  0  0  0  0
   57.3320   26.7940   45.8640 N   0  0  0  0  0  0  0  0  0  0  0  0
   58.1580   26.3330   44.7330 C   0  0  0  0  0  0  0  0  0  0  0  0
   58.6810   27.4910   43.8430 C   0  0  2  0  0  0  0  0  0  0  0  0
   59.8700   28.2260   44.4990 C   0  0  0  0  0  0  0  0  0  0  0  0
   59.4160   29.3790   45.4110 C   0  0  0  0  0  0  0  0  0  0  0  0
   57.9480   29.2140   45.8630 C   0  0  2  0  0  0  0  0  0  0  0  0
   57.7770   27.9270   46.7000 C   0  0  0  0  0  0  0  0  0  0  0  0
   57.0240   29.1630   44.7000 N   0  0  0  0  0  0  0  0  0  0  0  0
   56.2580   30.3980   44.4330 C   0  0  0  0  0  0  0  0  0  0  0  0
   57.0970   31.6510   44.4720 C   0  0  0  0  0  0  0  0  0  0  0  0
   57.3910   32.4080   45.5920 C   0  0  0  0  0  0  0  0  0  0  0  0
   58.1300   33.4300   45.2210 O   0  0  0  0  0  0  0  0  0  0  0  0
   58.3370   33.4060   43.9380 N   0  0  0  0  0  0  0  0  0  0  0  0
   57.7080   32.3320   43.4280 C   0  0  0  0  0  0  0  0  0  0  0  0
   57.7210   31.9800   41.9730 C   0  0  0  0  0  0  0  0  0  0  0  0
   57.5660   28.5010   43.4900 C   0  0  0  0  0  0  0  0  0  0  0  0
   56.2883   24.8156   47.9932 H   0  0  0  0  0  0  0  0  0  0  0  0
   55.4612   24.0421   46.5988 H   0  0  0  0  0  0  0  0  0  0  0  0
   57.2490   24.2160   46.5988 H   0  0  0  0  0  0  0  0  0  0  0  0
   59.0222   25.7826   45.1333 H   0  0  0  0  0  0  0  0  0  0  0  0
   57.5195   25.6988   44.1005 H   0  0  0  0  0  0  0  0  0  0  0  0
   59.0310   27.0265   42.9093 H   0  0  0  0  0  0  0  0  0  0  0  0
   60.4429   27.5047   45.1002 H   0  0  0  0  0  0  0  0  0  0  0  0
   60.4833   28.6569   43.6939 H   0  0  0  0  0  0  0  0  0  0  0  0
   60.0614   29.4031   46.3014 H   0  0  0  0  0  0  0  0  0  0  0  0
   59.4928   30.3156   44.8393 H   0  0  0  0  0  0  0  0  0  0  0  0
   57.6968   30.0909   46.4777 H   0  0  0  0  0  0  0  0  0  0  0  0
   58.7409   27.6718   47.1645 H   0  0  0  0  0  0  0  0  0  0  0  0
   57.0104   28.1127   47.4667 H   0  0  0  0  0  0  0  0  0  0  0  0
   55.8027   30.3156   43.4350 H   0  0  0  0  0  0  0  0  0  0  0  0
   55.5059   30.4892   45.2306 H   0  0  0  0  0  0  0  0  0  0  0  0
   57.0621   32.1914   46.6191 H   0  0  0  0  0  0  0  0  0  0  0  0
   58.8940   34.1140   43.4100 H   0  0  0  0  0  0  0  0  0  0  0  0
   57.7614   30.8865   41.8607 H   0  0  0  0  0  0  0  0  0  0  0  0
   56.8081   32.3643   41.4946 H   0  0  0  0  0  0  0  0  0  0  0  0
   58.6031   32.4306   41.4946 H   0  0  0  0  0  0  0  0  0  0  0  0
   56.7504   27.9678   42.9796 H   0  0  0  0  0  0  0  0  0  0  0  0
   57.9980   29.2756   42.8393 H   0  0  0  0  0  0  0  0  0  0  0  0
  1  2  1  0
  2  3  2  0
  2  4  1  0
  4  5  1  0
  5  6  1  0
  6  7  1  0
  7  8  1  0
  8  9  1  0
  9 10  1  0
  9 11  1  0
 11 12  1  0
 12 13  1  0
 13 14  2  0
 14 15  1  0
 15 16  1  0
 16 17  2  0
 17 18  1  0
 11 19  1  0
 10  4  1  0
 17 13  1  0
 19  6  1  0
  1 20  1  0
  1 21  1  0
  1 22  1  0
  5 23  1  0
  5 24  1  0
  6 25  1  6
  7 26  1  0
  7 27  1  0
  8 28  1  0
  8 29  1  0
  9 30  1  1
 10 31  1  0
 10 32  1  0
 12 33  1  0
 12 34  1  0
 14 35  1  0
 16 36  1  0
 18 37  1  0
 18 38  1  0
 18 39  1  0
 19 40  1  0
 19 41  1  0
M  CHG  1  16   1
M  END
>  <UniqueID>  (33) 
32

>  <SMILES>  (33) 
CC(=O)N1C[C@@H]2CC[C@H](C1)N(Cc1co[nH+]c1C)C2

>  <Energy>  (33) 
88.87306216989539

>  <Genealogy>  (33) 
CC(=O)N1CC2CCC(C1)N(Cc1co[nH+]c1C)C2 (protonated)
CC(=O)N1C[C@@H]2CC[C@H](C1)N(Cc1co[nH+]c1C)C2 (chirality)
CC(=O)N1C[C@@H]2CC[C@H](C1)N(Cc1co[nH+]c1C)C2 (3D coordinates assigned)
CC(=O)N1C[C@@H]2CC[C@H](C1)N(Cc1co[nH+]c1C)C2 (nonaromatic ring conformer: 88.87306216989539 kcal/mol)

>  <smiles>  (33) 
CC(=O)N1CC2CCC(C1)N(Cc1conc1C)C2

>  <score_type>  (33) 
oracle

>  <origin>  (33) 
adg

>  <m_score__min__energy>  (33) 
-4.7699999999999996

>  <m_primary>  (33) 
energy

$$$$
33:0
     RDKit          3D

 42 44  0  0  0  0  0  0  0  0999 V2000
   64.3980   34.1810   51.8370 C   0  0  0  0  0  0  0  0  0  0  0  0
   63.2350   34.4740   51.0690 O   0  0  0  0  0  0  0  0  0  0  0  0
   63.0240   34.0340   49.7540 C   0  0  0  0  0  0  0  0  0  0  0  0
   64.0270   33.3970   49.0010 C   0  0  0  0  0  0  0  0  0  0  0  0
   63.7650   32.9760   47.6960 C   0  0  0  0  0  0  0  0  0  0  0  0
   62.5060   33.1880   47.1290 C   0  0  0  0  0  0  0  0  0  0  0  0
   61.4950   33.8300   47.8620 C   0  0  0  0  0  0  0  0  0  0  0  0
   60.1920   34.0370   47.2810 N   0  0  0  0  0  0  0  0  0  0  0  0
   59.9870   35.0360   46.2240 C   0  0  0  0  0  0  0  0  0  0  0  0
   59.2350   34.4190   45.0280 C   0  0  0  0  0  0  0  0  0  0  0  0
   58.4230   33.2390   45.4080 N   0  0  0  0  0  0  0  0  0  0  0  0
   57.4020   32.8930   44.3960 C   0  0  0  0  0  0  0  0  0  0  0  0
   57.1690   31.4120   44.2640 C   0  0  0  0  0  0  0  0  0  0  0  0
   56.8640   30.7410   43.0920 C   0  0  0  0  0  0  0  0  0  0  0  0
   56.7510   29.4100   43.4370 C   0  0  0  0  0  0  0  0  0  0  0  0
   56.9940   29.3640   44.7970 C   0  0  0  0  0  0  0  0  0  0  0  0
   56.9880   28.1850   45.6050 N   0  0  0  0  0  0  0  0  0  0  0  0
   57.9670   27.9040   46.3270 O   0  0  0  0  0  0  0  0  0  0  0  0
   55.8960   27.3500   45.5890 O   0  0  0  0  0  0  0  0  0  0  0  0
   57.2390   30.5640   45.2650 O   0  0  0  0  0  0  0  0  0  0  0  0
   57.8780   33.3350   46.7750 C   0  0  0  0  0  0  0  0  0  0  0  0
   59.0360   33.2770   47.7760 C   0  0  0  0  0  0  0  0  0  0  0  0
   61.7640   34.2430   49.1790 C   0  0  0  0  0  0  0  0  0  0  0  0
   64.1551   34.2422   52.9081 H   0  0  0  0  0  0  0  0  0  0  0  0
   64.7492   33.1663   51.5980 H   0  0  0  0  0  0  0  0  0  0  0  0
   65.1880   34.9082   51.5980 H   0  0  0  0  0  0  0  0  0  0  0  0
   65.0209   33.2301   49.4418 H   0  0  0  0  0  0  0  0  0  0  0  0
   64.5521   32.4760   47.1126 H   0  0  0  0  0  0  0  0  0  0  0  0
   62.3054   32.8498   46.1017 H   0  0  0  0  0  0  0  0  0  0  0  0
   59.3982   35.8729   46.6277 H   0  0  0  0  0  0  0  0  0  0  0  0
   60.9691   35.3912   45.8785 H   0  0  0  0  0  0  0  0  0  0  0  0
   58.5678   35.1820   44.6007 H   0  0  0  0  0  0  0  0  0  0  0  0
   59.9884   34.0826   44.3005 H   0  0  0  0  0  0  0  0  0  0  0  0
   56.4531   33.3713   44.6804 H   0  0  0  0  0  0  0  0  0  0  0  0
   57.7734   33.2511   43.4245 H   0  0  0  0  0  0  0  0  0  0  0  0
   56.7377   31.1793   42.0910 H   0  0  0  0  0  0  0  0  0  0  0  0
   56.5174   28.5656   42.7718 H   0  0  0  0  0  0  0  0  0  0  0  0
   57.3370   34.2857   46.8909 H   0  0  0  0  0  0  0  0  0  0  0  0
   57.1842   32.5015   46.9590 H   0  0  0  0  0  0  0  0  0  0  0  0
   58.7063   33.7052   48.7341 H   0  0  0  0  0  0  0  0  0  0  0  0
   59.3351   32.2268   47.9088 H   0  0  0  0  0  0  0  0  0  0  0  0
   60.9748   34.7365   49.7652 H   0  0  0  0  0  0  0  0  0  0  0  0
  1  2  1  0
  2  3  1  0
  3  4  2  0
  4  5  1  0
  5  6  2  0
  6  7  1  0
  7  8  1  0
  8  9  1  0
  9 10  1  0
 10 11  1  0
 11 12  1  0
 12 13  1  0
 13 14  2  0
 14 15  1  0
 15 16  2  0
 16 17  1  0
 17 18  2  0
 17 19  1  0
 16 20  1  0
 11 21  1  0
 21 22  1  0
  7 23  2  0
 23  3  1  0
 22  8  1  0
 20 13  1  0
  1 24  1  0
  1 25  1  0
  1 26  1  0
  4 27  1  0
  5 28  1  0
  6 29  1  0
  9 30  1  0
  9 31  1  0
 10 32  1  0
 10 33  1  0
 12 34  1  0
 12 35  1  0
 14 36  1  0
 15 37  1  0
 21 38  1  0
 21 39  1  0
 22 40  1  0
 22 41  1  0
 23 42  1  0
M  CHG  2  17   1  19  -1
M  END
>  <UniqueID>  (34) 
33

>  <SMILES>  (34) 
COc1cccc(N2CCN(Cc3ccc([N+](=O)[O-])o3)CC2)c1

>  <Energy>  (34) 
79.54127583676106

>  <Genealogy>  (34) 
COc1cccc(N2CCN(Cc3ccc([N+](=O)[O-])o3)CC2)c1 (3D coordinates assigned)
COc1cccc(N2CCN(Cc3ccc([N+](=O)[O-])o3)CC2)c1 (nonaromatic ring conformer: 79.54127583676106 kcal/mol)

>  <smiles>  (34) 
COc1cccc(N2CCN(Cc3ccc([N+](=O)[O-])o3)CC2)c1

>  <score_type>  (34) 
oracle

>  <origin>  (34) 
adg

>  <m_score__min__energy>  (34) 
-7.8899999999999997

>  <m_primary>  (34) 
energy

$$$$
34:0
     RDKit          3D

 32 34  0  0  0  0  0  0  0  0999 V2000
   57.7420   32.2790   42.0540 C   0  0  0  0  0  0  0  0  0  0  0  0
   57.6170   32.0300   43.4880 N   0  0  0  0  0  0  0  0  0  0  0  0
   56.9460   31.0320   44.1240 C   0  0  0  0  0  0  0  0  0  0  0  0
   56.0000   29.7560   43.2850 S   0  0  0  0  0  0  0  0  0  0  0  0
   57.3930   28.5790   43.1740 C   0  0  0  0  0  0  0  0  0  0  0  0
   58.1660   28.5280   44.4640 C   0  0  0  0  0  0  0  0  0  0  0  0
   59.4560   29.0780   44.5350 C   0  0  0  0  0  0  0  0  0  0  0  0
   60.1910   29.0000   45.7220 C   0  0  0  0  0  0  0  0  0  0  0  0
   59.6440   28.3710   46.8450 C   0  0  0  0  0  0  0  0  0  0  0  0
   58.3620   27.8180   46.7810 C   0  0  0  0  0  0  0  0  0  0  0  0
   57.8360   27.1990   47.8670 F   0  0  0  0  0  0  0  0  0  0  0  0
   57.6240   27.8950   45.5950 C   0  0  0  0  0  0  0  0  0  0  0  0
   57.0320   31.0980   45.4780 N   0  0  0  0  0  0  0  0  0  0  0  0
   57.7820   32.1970   45.6780 C   0  0  0  0  0  0  0  0  0  0  0  0
   58.1760   32.7470   46.8960 C   0  0  0  0  0  0  0  0  0  0  0  0
   58.9550   33.9180   46.8640 C   0  0  0  0  0  0  0  0  0  0  0  0
   59.3170   34.5050   45.6290 C   0  0  0  0  0  0  0  0  0  0  0  0
   58.9030   33.9240   44.4160 C   0  0  0  0  0  0  0  0  0  0  0  0
   58.1330   32.7620   44.4860 C   0  0  0  0  0  0  0  0  0  0  0  0
   58.2301   33.2513   41.8919 H   0  0  0  0  0  0  0  0  0  0  0  0
   58.3477   31.4836   41.5952 H   0  0  0  0  0  0  0  0  0  0  0  0
   56.7423   32.2895   41.5952 H   0  0  0  0  0  0  0  0  0  0  0  0
   56.9988   27.5763   42.9520 H   0  0  0  0  0  0  0  0  0  0  0  0
   58.0703   28.9150   42.3750 H   0  0  0  0  0  0  0  0  0  0  0  0
   59.8901   29.5722   43.6533 H   0  0  0  0  0  0  0  0  0  0  0  0
   61.2006   29.4339   45.7726 H   0  0  0  0  0  0  0  0  0  0  0  0
   60.2227   28.3115   47.7786 H   0  0  0  0  0  0  0  0  0  0  0  0
   56.6155   27.4583   45.5479 H   0  0  0  0  0  0  0  0  0  0  0  0
   57.8878   32.2815   47.8501 H   0  0  0  0  0  0  0  0  0  0  0  0
   59.2849   34.3804   47.8060 H   0  0  0  0  0  0  0  0  0  0  0  0
   59.9258   35.4211   45.6167 H   0  0  0  0  0  0  0  0  0  0  0  0
   59.1763   34.3694   43.4480 H   0  0  0  0  0  0  0  0  0  0  0  0
  1  2  1  0
  2  3  1  0
  3  4  1  0
  4  5  1  0
  5  6  1  0
  6  7  2  0
  7  8  1  0
  8  9  2  0
  9 10  1  0
 10 11  1  0
 10 12  2  0
  3 13  2  0
 13 14  1  0
 14 15  2  0
 15 16  1  0
 16 17  2  0
 17 18  1  0
 18 19  2  0
 19  2  1  0
 12  6  1  0
 19 14  1  0
  1 20  1  0
  1 21  1  0
  1 22  1  0
  5 23  1  0
  5 24  1  0
  7 25  1  0
  8 26  1  0
  9 27  1  0
 12 28  1  0
 15 29  1  0
 16 30  1  0
 17 31  1  0
 18 32  1  0
M  END
>  <UniqueID>  (35) 
34

>  <SMILES>  (35) 
Cn1c(SCc2cccc(F)c2)nc2ccccc21

>  <Energy>  (35) 
65.55264713679752

>  <Genealogy>  (35) 
Cn1c(SCc2cccc(F)c2)nc2ccccc21 (3D coordinates assigned)
Cn1c(SCc2cccc(F)c2)nc2ccccc21 (optimized conformer: 65.55264713679752 kcal/mol)

>  <smiles>  (35) 
Cn1c(SCc2cccc(F)c2)nc2ccccc21

>  <score_type>  (35) 
oracle

>  <origin>  (35) 
adg

>  <m_score__min__energy>  (35) 
-7.0199999999999996

>  <m_primary>  (35) 
energy

$$$$
35:0
     RDKit          3D

 54 57  0  0  0  0  0  0  0  0999 V2000
   56.7430   22.3480   43.4510 C   0  0  0  0  0  0  0  0  0  0  0  0
   56.0940   23.6440   43.7160 N   0  0  0  0  0  0  0  0  0  0  0  0
   57.0150   24.7370   43.3690 C   0  0  0  0  0  0  0  0  0  0  0  0
   55.6880   23.7450   45.1340 C   0  0  0  0  0  0  0  0  0  0  0  0
   55.8400   25.1620   45.6200 C   0  0  0  0  0  0  0  0  0  0  0  0
   54.8120   25.8940   45.6460 O   0  0  0  0  0  0  0  0  0  0  0  0
   57.1230   25.6970   46.0270 N   0  0  0  0  0  0  0  0  0  0  0  0
   58.2840   24.7990   46.1850 C   0  0  0  0  0  0  0  0  0  0  0  0
   59.5800   25.5820   46.4280 C   0  0  0  0  0  0  0  0  0  0  0  0
   59.6010   26.8070   45.5180 C   0  0  0  0  0  0  0  0  0  0  0  0
   58.4800   27.8310   45.9090 C   0  0  2  0  0  0  0  0  0  0  0  0
   58.0830   28.6610   44.6560 C   0  0  0  0  0  0  0  0  0  0  0  0
   56.7570   29.2890   44.7680 C   0  0  0  0  0  0  0  0  0  0  0  0
   55.7150   29.7830   44.8580 N   0  0  0  0  0  0  0  0  0  0  0  0
   58.9820   28.7790   46.9330 N   0  0  0  0  0  0  0  0  0  0  0  0
   59.3130   30.0720   46.7180 C   0  0  0  0  0  0  0  0  0  0  0  0
   59.7870   30.6030   47.9000 C   0  0  0  0  0  0  0  0  0  0  0  0
   60.2780   31.9790   48.1330 C   0  0  0  0  0  0  0  0  0  0  0  0
   61.4010   32.2270   48.9590 C   0  0  0  0  0  0  0  0  0  0  0  0
   62.0450   31.2090   49.5860 F   0  0  0  0  0  0  0  0  0  0  0  0
   61.8420   33.5520   49.1740 C   0  0  0  0  0  0  0  0  0  0  0  0
   61.2020   34.6040   48.5840 N   0  0  0  0  0  0  0  0  0  0  0  0
   60.1300   34.3620   47.7900 C   0  0  0  0  0  0  0  0  0  0  0  0
   59.4220   35.2870   47.1240 N   0  0  0  0  0  0  0  0  0  0  0  0
   58.4850   34.5970   46.4350 C   0  0  0  0  0  0  0  0  0  0  0  0
   58.6050   33.2300   46.6700 C   0  0  0  0  0  0  0  0  0  0  0  0
   59.6630   33.0980   47.5530 C   0  0  0  0  0  0  0  0  0  0  0  0
   59.7410   29.5600   48.8050 C   0  0  0  0  0  0  0  0  0  0  0  0
   59.2590   28.4620   48.1910 N   0  0  0  0  0  0  0  0  0  0  0  0
   57.2300   27.0890   46.5010 C   0  0  0  0  0  0  0  0  0  0  0  0
   56.9880   21.8587   44.4052 H   0  0  0  0  0  0  0  0  0  0  0  0
   56.0597   21.7067   42.8750 H   0  0  0  0  0  0  0  0  0  0  0  0
   57.6658   22.5110   42.8750 H   0  0  0  0  0  0  0  0  0  0  0  0
   57.4023   25.1966   44.2903 H   0  0  0  0  0  0  0  0  0  0  0  0
   57.8526   24.3372   42.7786 H   0  0  0  0  0  0  0  0  0  0  0  0
   56.4789   25.4947   42.7786 H   0  0  0  0  0  0  0  0  0  0  0  0
   54.6364   23.4378   45.2334 H   0  0  0  0  0  0  0  0  0  0  0  0
   56.3305   23.0879   45.7385 H   0  0  0  0  0  0  0  0  0  0  0  0
   58.1047   24.1324   47.0415 H   0  0  0  0  0  0  0  0  0  0  0  0
   58.4010   24.2240   45.2545 H   0  0  0  0  0  0  0  0  0  0  0  0
   59.6249   25.9031   47.4791 H   0  0  0  0  0  0  0  0  0  0  0  0
   60.4469   24.9417   46.2078 H   0  0  0  0  0  0  0  0  0  0  0  0
   60.5809   27.2994   45.6037 H   0  0  0  0  0  0  0  0  0  0  0  0
   59.4198   26.4737   44.4855 H   0  0  0  0  0  0  0  0  0  0  0  0
   58.8327   29.4526   44.5101 H   0  0  0  0  0  0  0  0  0  0  0  0
   58.0424   27.9654   43.8048 H   0  0  0  0  0  0  0  0  0  0  0  0
   59.2202   30.6095   45.7628 H   0  0  0  0  0  0  0  0  0  0  0  0
   62.7101   33.7380   49.8235 H   0  0  0  0  0  0  0  0  0  0  0  0
   59.5720   36.3200   47.1220 H   0  0  0  0  0  0  0  0  0  0  0  0
   57.7303   35.0539   45.7780 H   0  0  0  0  0  0  0  0  0  0  0  0
   57.9889   32.4245   46.2438 H   0  0  0  0  0  0  0  0  0  0  0  0
   60.0490   29.6171   49.8594 H   0  0  0  0  0  0  0  0  0  0  0  0
   57.3102   27.0829   47.5981 H   0  0  0  0  0  0  0  0  0  0  0  0
   56.3315   27.6268   46.1642 H   0  0  0  0  0  0  0  0  0  0  0  0
  1  2  1  0
  2  3  1  0
  2  4  1  0
  4  5  1  0
  5  6  2  0
  5  7  1  0
  7  8  1  0
  8  9  1  0
  9 10  1  0
 10 11  1  0
 11 12  1  6
 12 13  1  0
 13 14  3  0
 11 15  1  0
 15 16  1  0
 16 17  2  0
 17 18  1  0
 18 19  2  0
 19 20  1  0
 19 21  1  0
 21 22  2  0
 22 23  1  0
 23 24  1  0
 24 25  1  0
 25 26  2  0
 26 27  1  0
 17 28  1  0
 28 29  2  0
 11 30  1  0
 30  7  1  0
 29 15  1  0
 27 18  1  0
 27 23  2  0
  1 31  1  0
  1 32  1  0
  1 33  1  0
  3 34  1  0
  3 35  1  0
  3 36  1  0
  4 37  1  0
  4 38  1  0
  8 39  1  0
  8 40  1  0
  9 41  1  0
  9 42  1  0
 10 43  1  0
 10 44  1  0
 12 45  1  0
 12 46  1  0
 16 47  1  0
 21 48  1  0
 24 49  1  0
 25 50  1  0
 26 51  1  0
 28 52  1  0
 30 53  1  0
 30 54  1  0
M  END
>  <UniqueID>  (36) 
35

>  <SMILES>  (36) 
CN(C)CC(=O)N1CCC[C@](CC#N)(n2cc(-c3c(F)cnc4[nH]ccc34)cn2)C1

>  <Energy>  (36) 
131.4398897607491

>  <Genealogy>  (36) 
CN(C)CC(=O)N1CCC[C@](CC#N)(n2cc(-c3c(F)cnc4[nH]ccc34)cn2)C1 (chirality)
CN(C)CC(=O)N1CCC[C@](CC#N)(n2cc(-c3c(F)cnc4[nH]ccc34)cn2)C1 (3D coordinates assigned)
CN(C)CC(=O)N1CCC[C@](CC#N)(n2cc(-c3c(F)cnc4[nH]ccc34)cn2)C1 (nonaromatic ring conformer: 131.4398897607491 kcal/mol)

>  <smiles>  (36) 
CN(C)CC(=O)N1CCCC(CC#N)(n2cc(-c3c(F)cnc4[nH]ccc34)cn2)C1

>  <score_type>  (36) 
oracle

>  <origin>  (36) 
adg

>  <m_score__min__energy>  (36) 
-8.4000000000000004

>  <m_primary>  (36) 
energy

$$$$
36:0
     RDKit          3D

 42 43  0  0  0  0  0  0  0  0999 V2000
   57.2210   25.3730   45.2350 C   0  0  0  0  0  0  0  0  0  0  0  0
   56.6130   26.6480   45.7370 C   0  0  0  0  0  0  0  0  0  0  0  0
   55.3790   26.6620   45.9960 O   0  0  0  0  0  0  0  0  0  0  0  0
   57.4220   27.8820   45.9340 C   0  0  0  0  0  0  0  0  0  0  0  0
   57.4590   28.8680   44.9320 C   0  0  0  0  0  0  0  0  0  0  0  0
   58.2130   30.0310   45.1050 C   0  0  0  0  0  0  0  0  0  0  0  0
   58.9580   30.2350   46.2740 C   0  0  0  0  0  0  0  0  0  0  0  0
   59.7040   31.4570   46.4290 N   0  0  0  0  0  0  0  0  0  0  0  0
   60.9620   31.5600   47.1200 C   0  0  0  0  0  0  0  0  0  0  0  0
   61.6510   30.5240   47.3230 O   0  0  0  0  0  0  0  0  0  0  0  0
   61.4910   32.8460   47.5030 N   0  0  0  0  0  0  0  0  0  0  0  0
   62.4090   33.5280   46.5860 C   0  0  0  0  0  0  0  0  0  0  0  0
   61.1400   33.4810   48.7840 C   0  0  0  0  0  0  0  0  0  0  0  0
   59.6500   33.8590   48.8410 C   0  0  0  0  0  0  0  0  0  0  0  0
   59.2730   34.9590   47.8400 C   0  0  0  0  0  0  0  0  0  0  0  0
   58.7480   34.3920   46.5980 N   0  0  0  0  0  0  0  0  0  0  0  0
   59.2120   34.5950   45.3540 C   0  0  0  0  0  0  0  0  0  0  0  0
   58.4210   33.8740   44.4870 C   0  0  0  0  0  0  0  0  0  0  0  0
   57.4620   33.2260   45.1810 N   0  0  0  0  0  0  0  0  0  0  0  0
   57.6920   33.5670   46.4660 C   0  0  0  0  0  0  0  0  0  0  0  0
   58.9120   29.2600   47.2860 C   0  0  0  0  0  0  0  0  0  0  0  0
   58.1570   28.0960   47.1160 C   0  0  0  0  0  0  0  0  0  0  0  0
   57.5192   24.7477   46.0894 H   0  0  0  0  0  0  0  0  0  0  0  0
   56.4843   24.8313   44.6236 H   0  0  0  0  0  0  0  0  0  0  0  0
   58.1057   25.6045   44.6236 H   0  0  0  0  0  0  0  0  0  0  0  0
   56.8886   28.7219   44.0029 H   0  0  0  0  0  0  0  0  0  0  0  0
   58.2220   30.7956   44.3143 H   0  0  0  0  0  0  0  0  0  0  0  0
   59.3820   32.2890   45.8870 H   0  0  0  0  0  0  0  0  0  0  0  0
   63.1594   34.0855   47.1657 H   0  0  0  0  0  0  0  0  0  0  0  0
   62.9138   32.7842   45.9521 H   0  0  0  0  0  0  0  0  0  0  0  0
   61.8426   34.2261   45.9521 H   0  0  0  0  0  0  0  0  0  0  0  0
   61.3617   32.7800   49.6022 H   0  0  0  0  0  0  0  0  0  0  0  0
   61.7321   34.4026   48.8840 H   0  0  0  0  0  0  0  0  0  0  0  0
   59.0521   32.9628   48.6190 H   0  0  0  0  0  0  0  0  0  0  0  0
   59.4470   34.2478   49.8498 H   0  0  0  0  0  0  0  0  0  0  0  0
   58.5058   35.6057   48.2908 H   0  0  0  0  0  0  0  0  0  0  0  0
   60.1786   35.5362   47.6019 H   0  0  0  0  0  0  0  0  0  0  0  0
   60.0704   35.2246   45.0770 H   0  0  0  0  0  0  0  0  0  0  0  0
   58.5511   33.8327   43.3955 H   0  0  0  0  0  0  0  0  0  0  0  0
   57.0848   33.2109   47.3113 H   0  0  0  0  0  0  0  0  0  0  0  0
   59.4745   29.4144   48.2186 H   0  0  0  0  0  0  0  0  0  0  0  0
   58.1368   27.3391   47.9140 H   0  0  0  0  0  0  0  0  0  0  0  0
  1  2  1  0
  2  3  2  0
  2  4  1  0
  4  5  2  0
  5  6  1  0
  6  7  2  0
  7  8  1  0
  8  9  1  0
  9 10  2  0
  9 11  1  0
 11 12  1  0
 11 13  1  0
 13 14  1  0
 14 15  1  0
 15 16  1  0
 16 17  1  0
 17 18  2  0
 18 19  1  0
 19 20  2  0
  7 21  1  0
 21 22  2  0
 22  4  1  0
 20 16  1  0
  1 23  1  0
  1 24  1  0
  1 25  1  0
  5 26  1  0
  6 27  1  0
  8 28  1  0
 12 29  1  0
 12 30  1  0
 12 31  1  0
 13 32  1  0
 13 33  1  0
 14 34  1  0
 14 35  1  0
 15 36  1  0
 15 37  1  0
 17 38  1  0
 18 39  1  0
 20 40  1  0
 21 41  1  0
 22 42  1  0
M  END
>  <UniqueID>  (37) 
36

>  <SMILES>  (37) 
CC(=O)c1ccc(NC(=O)N(C)CCCn2ccnc2)cc1

>  <Energy>  (37) 
68.79938206609435

>  <Genealogy>  (37) 
CC(=O)c1ccc(NC(=O)N(C)CCCn2ccnc2)cc1 (3D coordinates assigned)
CC(=O)c1ccc(NC(=O)N(C)CCCn2ccnc2)cc1 (optimized conformer: 68.79938206609435 kcal/mol)

>  <smiles>  (37) 
CC(=O)c1ccc(NC(=O)N(C)CCCn2ccnc2)cc1

>  <score_type>  (37) 
oracle

>  <origin>  (37) 
adg

>  <m_score__min__energy>  (37) 
-6.6799999999999997

>  <m_primary>  (37) 
energy

$$$$
37:0
     RDKit          3D

 42 43  0  0  0  0  0  0  0  0999 V2000
   57.8710   26.5560   46.4230 C   0  0  0  0  0  0  0  0  0  0  0  0
   57.3460   27.2880   45.1930 C   0  0  0  0  0  0  0  0  0  0  0  0
   56.8700   28.6190   45.5540 N   0  0  0  0  0  0  0  0  0  0  0  0
   56.6550   29.6690   44.6030 C   0  0  0  0  0  0  0  0  0  0  0  0
   55.4930   30.1290   44.4250 O   0  0  0  0  0  0  0  0  0  0  0  0
   57.7780   30.2160   43.8740 N   0  0  2  0  0  0  0  0  0  0  0  0
   59.0500   29.9520   44.5900 C   0  0  0  0  0  0  0  0  0  0  0  0
   59.1140   30.4530   46.0450 C   0  0  0  0  0  0  0  0  0  0  0  0
   58.2360   31.6630   46.4180 C   0  0  0  0  0  0  0  0  0  0  0  0
   58.3360   32.8420   45.5310 N   0  0  0  0  0  0  0  0  0  0  0  0
   59.3270   34.1360   46.1650 S   0  0  0  0  0  0  0  0  0  0  0  0
   58.5400   34.9090   47.1860 O   0  0  0  0  0  0  0  0  0  0  0  0
   59.6790   35.0780   45.0470 O   0  0  0  0  0  0  0  0  0  0  0  0
   60.8200   33.5540   46.9030 C   0  0  0  0  0  0  0  0  0  0  0  0
   62.0550   33.7910   46.2830 C   0  0  0  0  0  0  0  0  0  0  0  0
   63.2380   33.3320   46.8700 C   0  0  0  0  0  0  0  0  0  0  0  0
   63.1950   32.6440   48.0860 C   0  0  0  0  0  0  0  0  0  0  0  0
   64.3420   32.1970   48.6550 F   0  0  0  0  0  0  0  0  0  0  0  0
   61.9680   32.4220   48.7200 C   0  0  0  0  0  0  0  0  0  0  0  0
   60.7850   32.8810   48.1350 C   0  0  0  0  0  0  0  0  0  0  0  0
   58.5130   32.6370   44.0770 C   0  0  0  0  0  0  0  0  0  0  0  0
   57.5240   31.6240   43.4660 C   0  0  0  0  0  0  0  0  0  0  0  0
   57.5096   27.0599   47.3316 H   0  0  0  0  0  0  0  0  0  0  0  0
   57.5112   25.5165   46.4124 H   0  0  0  0  0  0  0  0  0  0  0  0
   58.9709   26.5634   46.4124 H   0  0  0  0  0  0  0  0  0  0  0  0
   58.1558   27.3813   44.4544 H   0  0  0  0  0  0  0  0  0  0  0  0
   56.5091   26.7143   44.7683 H   0  0  0  0  0  0  0  0  0  0  0  0
   57.8510   29.6670   42.9830 H   0  0  0  0  0  0  0  0  0  0  0  0
   59.2128   28.8642   44.5997 H   0  0  0  0  0  0  0  0  0  0  0  0
   59.8229   30.5140   44.0452 H   0  0  0  0  0  0  0  0  0  0  0  0
   58.8168   29.6169   46.6951 H   0  0  0  0  0  0  0  0  0  0  0  0
   60.1479   30.8049   46.1759 H   0  0  0  0  0  0  0  0  0  0  0  0
   57.1876   31.3299   46.4161 H   0  0  0  0  0  0  0  0  0  0  0  0
   58.6028   32.0010   47.3984 H   0  0  0  0  0  0  0  0  0  0  0  0
   62.0933   34.3404   45.3308 H   0  0  0  0  0  0  0  0  0  0  0  0
   64.2034   33.5124   46.3745 H   0  0  0  0  0  0  0  0  0  0  0  0
   61.9344   31.8857   49.6798 H   0  0  0  0  0  0  0  0  0  0  0  0
   59.8228   32.7146   48.6414 H   0  0  0  0  0  0  0  0  0  0  0  0
   58.3755   33.6041   43.5712 H   0  0  0  0  0  0  0  0  0  0  0  0
   59.5229   32.2257   43.9322 H   0  0  0  0  0  0  0  0  0  0  0  0
   56.5068   31.8986   43.7821 H   0  0  0  0  0  0  0  0  0  0  0  0
   57.6523   31.6694   42.3745 H   0  0  0  0  0  0  0  0  0  0  0  0
  1  2  1  0
  2  3  1  0
  3  4  1  0
  4  5  2  0
  4  6  1  0
  6  7  1  0
  7  8  1  0
  8  9  1  0
  9 10  1  0
 10 11  1  0
 11 12  2  0
 11 13  2  0
 11 14  1  0
 14 15  2  0
 15 16  1  0
 16 17  2  0
 17 18  1  0
 17 19  1  0
 19 20  2  0
 10 21  1  0
 21 22  1  0
 22  6  1  0
 20 14  1  0
  1 23  1  0
  1 24  1  0
  1 25  1  0
  2 26  1  0
  2 27  1  0
  6 28  1  6
  7 29  1  0
  7 30  1  0
  8 31  1  0
  8 32  1  0
  9 33  1  0
  9 34  1  0
 15 35  1  0
 16 36  1  0
 19 37  1  0
 20 38  1  0
 21 39  1  0
 21 40  1  0
 22 41  1  0
 22 42  1  0
M  CHG  2   3  -1   6   1
M  END
>  <UniqueID>  (38) 
37

>  <SMILES>  (38) 
CC[N-]C(=O)[N@@H+]1CCCN(S(=O)(=O)c2ccc(F)cc2)CC1

>  <Energy>  (38) 
60.15642657612604

>  <Genealogy>  (38) 
CC[N-]C(=O)[NH+]1CCCN(S(=O)(=O)c2ccc(F)cc2)CC1 (protonated)
CC[N-]C(=O)[N@@H+]1CCCN(S(=O)(=O)c2ccc(F)cc2)CC1 (chirality)
CC[N-]C(=O)[N@@H+]1CCCN(S(=O)(=O)c2ccc(F)cc2)CC1 (3D coordinates assigned)
CC[N-]C(=O)[N@@H+]1CCCN(S(=O)(=O)c2ccc(F)cc2)CC1 (nonaromatic ring conformer: 60.15642657612604 kcal/mol)

>  <smiles>  (38) 
CCNC(=O)N1CCCN(S(=O)(=O)c2ccc(F)cc2)CC1

>  <score_type>  (38) 
oracle

>  <origin>  (38) 
adg

>  <m_score__min__energy>  (38) 
-5.9900000000000002

>  <m_primary>  (38) 
energy

$$$$
38:0
     RDKit          3D

 35 37  0  0  0  0  0  0  0  0999 V2000
   59.2370   31.5530   49.0130 C   0  0  0  0  0  0  0  0  0  0  0  0
   60.3170   31.1780   48.3310 C   0  0  0  0  0  0  0  0  0  0  0  0
   61.3510   32.1370   47.8760 C   0  0  0  0  0  0  0  0  0  0  0  0
   62.5690   32.1500   48.5750 C   0  0  0  0  0  0  0  0  0  0  0  0
   63.6170   32.9800   48.1720 C   0  0  0  0  0  0  0  0  0  0  0  0
   64.8190   32.9590   48.8760 O   0  0  0  0  0  0  0  0  0  0  0  0
   63.4530   33.8200   47.0680 C   0  0  0  0  0  0  0  0  0  0  0  0
   62.2400   33.8450   46.3790 C   0  0  0  0  0  0  0  0  0  0  0  0
   61.1700   33.0200   46.7750 C   0  0  0  0  0  0  0  0  0  0  0  0
   59.8630   33.1730   46.0910 C   0  0  0  0  0  0  0  0  0  0  0  0
   59.3430   34.4400   45.7920 C   0  0  0  0  0  0  0  0  0  0  0  0
   58.1050   34.5390   45.1560 C   0  0  0  0  0  0  0  0  0  0  0  0
   57.3970   33.3840   44.8240 C   0  0  0  0  0  0  0  0  0  0  0  0
   57.9370   32.1250   45.1360 C   0  0  0  0  0  0  0  0  0  0  0  0
   57.2130   30.8780   44.7740 C   0  0  0  0  0  0  0  0  0  0  0  0
   55.9760   30.9420   44.5330 O   0  0  0  0  0  0  0  0  0  0  0  0
   57.8760   29.5550   44.6710 C   0  0  0  0  0  0  0  0  0  0  0  0
   57.5560   28.5770   43.7330 C   0  0  0  0  0  0  0  0  0  0  0  0
   58.3200   27.4080   43.8550 C   0  0  0  0  0  0  0  0  0  0  0  0
   59.2420   27.4490   44.8910 C   0  0  0  0  0  0  0  0  0  0  0  0
   59.1040   28.9400   45.6510 S   0  0  0  0  0  0  0  0  0  0  0  0
   59.1450   32.0640   45.7580 N   0  0  0  0  0  0  0  0  0  0  0  0
   58.4976   30.8022   49.3286 H   0  0  0  0  0  0  0  0  0  0  0  0
   59.0839   32.6137   49.2610 H   0  0  0  0  0  0  0  0  0  0  0  0
   60.4473   30.1115   48.0953 H   0  0  0  0  0  0  0  0  0  0  0  0
   62.6991   31.4979   49.4513 H   0  0  0  0  0  0  0  0  0  0  0  0
   65.7110   32.8870   48.4000 H   0  0  0  0  0  0  0  0  0  0  0  0
   64.2828   34.4638   46.7408 H   0  0  0  0  0  0  0  0  0  0  0  0
   62.1183   34.5169   45.5166 H   0  0  0  0  0  0  0  0  0  0  0  0
   59.9056   35.3476   46.0563 H   0  0  0  0  0  0  0  0  0  0  0  0
   57.6873   35.5280   44.9164 H   0  0  0  0  0  0  0  0  0  0  0  0
   56.4216   33.4584   44.3209 H   0  0  0  0  0  0  0  0  0  0  0  0
   56.7768   28.7093   42.9680 H   0  0  0  0  0  0  0  0  0  0  0  0
   58.1997   26.5391   43.1912 H   0  0  0  0  0  0  0  0  0  0  0  0
   59.9410   26.6455   45.1663 H   0  0  0  0  0  0  0  0  0  0  0  0
  1  2  2  0
  2  3  1  0
  3  4  2  0
  4  5  1  0
  5  6  1  0
  5  7  2  0
  7  8  1  0
  8  9  2  0
  9 10  1  0
 10 11  2  0
 11 12  1  0
 12 13  2  0
 13 14  1  0
 14 15  1  0
 15 16  2  0
 15 17  1  0
 17 18  2  0
 18 19  1  0
 19 20  2  0
 20 21  1  0
 14 22  2  0
  9  3  1  0
 22 10  1  0
 21 17  1  0
  1 23  1  0
  1 24  1  0
  2 25  1  0
  4 26  1  0
  6 27  1  0
  7 28  1  0
  8 29  1  0
 11 30  1  0
 12 31  1  0
 13 32  1  0
 18 33  1  0
 19 34  1  0
 20 35  1  0
M  END
>  <UniqueID>  (39) 
38

>  <SMILES>  (39) 
C=Cc1cc(O)ccc1-c1cccc(C(=O)c2cccs2)n1

>  <Energy>  (39) 
75.1779907276397

>  <Genealogy>  (39) 
C=Cc1cc(O)ccc1-c1cccc(C(=O)c2cccs2)n1 (3D coordinates assigned)
C=Cc1cc(O)ccc1-c1cccc(C(=O)c2cccs2)n1 (optimized conformer: 75.1779907276397 kcal/mol)

>  <smiles>  (39) 
C=Cc1cc(O)ccc1-c1cccc(C(=O)c2cccs2)n1

>  <score_type>  (39) 
oracle

>  <origin>  (39) 
adg

>  <m_score__min__energy>  (39) 
-7.9800000000000004

>  <m_primary>  (39) 
energy

$$$$
39:0
     RDKit          3D

 36 38  0  0  0  0  0  0  0  0999 V2000
   56.4650   27.0290   45.6290 C   0  0  0  0  0  0  0  0  0  0  0  0
   55.8450   28.2480   45.2330 O   0  0  0  0  0  0  0  0  0  0  0  0
   56.5320   29.3480   44.6980 C   0  0  0  0  0  0  0  0  0  0  0  0
   56.3110   29.8140   43.3880 C   0  0  0  0  0  0  0  0  0  0  0  0
   57.0220   30.9150   42.9040 C   0  0  0  0  0  0  0  0  0  0  0  0
   57.9550   31.5610   43.7170 C   0  0  0  0  0  0  0  0  0  0  0  0
   58.1880   31.1090   45.0240 C   0  0  0  0  0  0  0  0  0  0  0  0
   59.1390   31.7770   45.8680 N   0  0  0  0  0  0  0  0  0  0  0  0
   59.4680   33.0890   45.8540 C   0  0  0  0  0  0  0  0  0  0  0  0
   58.6530   34.3450   44.8630 S   0  0  0  0  0  0  0  0  0  0  0  0
   57.0310   34.0850   45.6460 C   0  0  0  0  0  0  0  0  0  0  0  0
   60.5560   33.3420   46.6070 N   0  0  0  0  0  0  0  0  0  0  0  0
   60.9290   32.1780   47.1160 N   0  0  0  0  0  0  0  0  0  0  0  0
   60.0820   31.2310   46.6710 C   0  0  0  0  0  0  0  0  0  0  0  0
   60.1850   29.8000   47.0370 C   0  0  0  0  0  0  0  0  0  0  0  0
   60.1170   29.4120   48.3830 C   0  0  0  0  0  0  0  0  0  0  0  0
   60.2130   28.0580   48.7180 C   0  0  0  0  0  0  0  0  0  0  0  0
   60.3590   27.1230   47.7420 N   0  0  0  0  0  0  0  0  0  0  0  0
   60.4150   27.4680   46.4280 C   0  0  0  0  0  0  0  0  0  0  0  0
   60.3240   28.8100   46.0510 C   0  0  0  0  0  0  0  0  0  0  0  0
   57.4720   30.0010   45.5050 C   0  0  0  0  0  0  0  0  0  0  0  0
   56.4939   26.9722   46.7272 H   0  0  0  0  0  0  0  0  0  0  0  0
   55.8895   26.1793   45.2329 H   0  0  0  0  0  0  0  0  0  0  0  0
   57.4906   26.9937   45.2329 H   0  0  0  0  0  0  0  0  0  0  0  0
   55.5761   29.3096   42.7434 H   0  0  0  0  0  0  0  0  0  0  0  0
   56.8461   31.2739   41.8792 H   0  0  0  0  0  0  0  0  0  0  0  0
   58.5100   32.4286   43.3307 H   0  0  0  0  0  0  0  0  0  0  0  0
   57.1448   34.1032   46.7399 H   0  0  0  0  0  0  0  0  0  0  0  0
   56.3417   34.8841   45.3357 H   0  0  0  0  0  0  0  0  0  0  0  0
   56.6260   33.1105   45.3357 H   0  0  0  0  0  0  0  0  0  0  0  0
   61.7420   32.0490   47.7570 H   0  0  0  0  0  0  0  0  0  0  0  0
   59.9888   30.1689   49.1709 H   0  0  0  0  0  0  0  0  0  0  0  0
   60.1703   27.7488   49.7728 H   0  0  0  0  0  0  0  0  0  0  0  0
   60.5322   26.6889   45.6604 H   0  0  0  0  0  0  0  0  0  0  0  0
   60.3610   29.0896   44.9878 H   0  0  0  0  0  0  0  0  0  0  0  0
   57.6517   29.6413   46.5289 H   0  0  0  0  0  0  0  0  0  0  0  0
  1  2  1  0
  2  3  1  0
  3  4  2  0
  4  5  1  0
  5  6  2  0
  6  7  1  0
  7  8  1  0
  8  9  1  0
  9 10  1  0
 10 11  1  0
  9 12  2  0
 12 13  1  0
 13 14  2  0
 14 15  1  0
 15 16  2  0
 16 17  1  0
 17 18  2  0
 18 19  1  0
 19 20  2  0
  7 21  2  0
 21  3  1  0
 14  8  1  0
 20 15  1  0
  1 22  1  0
  1 23  1  0
  1 24  1  0
  4 25  1  0
  5 26  1  0
  6 27  1  0
 11 28  1  0
 11 29  1  0
 11 30  1  0
 13 31  1  0
 16 32  1  0
 17 33  1  0
 19 34  1  0
 20 35  1  0
 21 36  1  0
M  CHG  1  13   1
M  END
>  <UniqueID>  (40) 
39

>  <SMILES>  (40) 
COc1cccc(-n2c(SC)n[nH+]c2-c2ccncc2)c1

>  <Energy>  (40) 
79.9235005367061

>  <Genealogy>  (40) 
COc1cccc(-n2c(SC)n[nH+]c2-c2ccncc2)c1 (protonated)
COc1cccc(-n2c(SC)n[nH+]c2-c2ccncc2)c1 (3D coordinates assigned)
COc1cccc(-n2c(SC)n[nH+]c2-c2ccncc2)c1 (optimized conformer: 79.9235005367061 kcal/mol)

>  <smiles>  (40) 
COc1cccc(-n2c(SC)nnc2-c2ccncc2)c1

>  <score_type>  (40) 
oracle

>  <origin>  (40) 
adg

>  <m_score__min__energy>  (40) 
-5.5

>  <m_primary>  (40) 
energy

$$$$
40:0
     RDKit          3D

 43 44  0  0  0  0  0  0  0  0999 V2000
   60.4680   33.9900   46.1820 C   0  0  0  0  0  0  0  0  0  0  0  0
   61.1660   32.8410   46.9010 C   0  0  0  0  0  0  0  0  0  0  0  0
   60.2630   31.6620   46.9560 N   0  0  0  0  0  0  0  0  0  0  0  0
   59.4280   31.6640   48.1800 C   0  0  0  0  0  0  0  0  0  0  0  0
   58.1920   32.5460   48.0110 C   0  0  0  0  0  0  0  0  0  0  0  0
   61.0180   30.3910   46.8530 C   0  0  0  0  0  0  0  0  0  0  0  0
   60.3370   29.3990   45.8860 C   0  0  0  0  0  0  0  0  0  0  0  0
   58.9260   29.7280   45.6230 N   0  0  0  0  0  0  0  0  0  0  0  0
   58.0760   28.5950   45.8450 C   0  0  0  0  0  0  0  0  0  0  0  0
   56.7600   28.2940   45.5470 C   0  0  0  0  0  0  0  0  0  0  0  0
   55.7100   28.9810   44.8630 N   0  0  0  0  0  0  0  0  0  0  0  0
   55.9220   29.6210   43.5700 C   0  0  0  0  0  0  0  0  0  0  0  0
   56.7610   30.8450   43.7450 C   0  0  0  0  0  0  0  0  0  0  0  0
   57.3400   31.5790   42.7310 C   0  0  0  0  0  0  0  0  0  0  0  0
   58.0490   32.5820   43.3580 C   0  0  0  0  0  0  0  0  0  0  0  0
   57.8610   32.3940   44.7120 C   0  0  0  0  0  0  0  0  0  0  0  0
   57.0900   31.3500   44.9120 O   0  0  0  0  0  0  0  0  0  0  0  0
   56.8960   27.0750   46.1860 C   0  0  0  0  0  0  0  0  0  0  0  0
   56.1380   26.0950   46.4090 O   0  0  0  0  0  0  0  0  0  0  0  0
   58.2110   27.3750   46.4790 C   0  0  0  0  0  0  0  0  0  0  0  0
   59.1450   26.7830   47.0810 O   0  0  0  0  0  0  0  0  0  0  0  0
   60.0462   34.6843   46.9236 H   0  0  0  0  0  0  0  0  0  0  0  0
   61.1947   34.5236   45.5518 H   0  0  0  0  0  0  0  0  0  0  0  0
   59.6595   33.5910   45.5518 H   0  0  0  0  0  0  0  0  0  0  0  0
   62.0840   32.5734   46.3573 H   0  0  0  0  0  0  0  0  0  0  0  0
   61.4205   33.1529   47.9247 H   0  0  0  0  0  0  0  0  0  0  0  0
   59.1061   30.6344   48.3952 H   0  0  0  0  0  0  0  0  0  0  0  0
   60.0295   32.0665   49.0084 H   0  0  0  0  0  0  0  0  0  0  0  0
   57.8020   32.8243   49.0012 H   0  0  0  0  0  0  0  0  0  0  0  0
   58.4638   33.4555   47.4551 H   0  0  0  0  0  0  0  0  0  0  0  0
   57.4204   31.9933   47.4551 H   0  0  0  0  0  0  0  0  0  0  0  0
   62.0320   30.6075   46.4858 H   0  0  0  0  0  0  0  0  0  0  0  0
   61.0502   29.9295   47.8510 H   0  0  0  0  0  0  0  0  0  0  0  0
   60.8831   29.4095   44.9312 H   0  0  0  0  0  0  0  0  0  0  0  0
   60.3603   28.4075   46.3618 H   0  0  0  0  0  0  0  0  0  0  0  0
   58.6140   30.5190   46.2300 H   0  0  0  0  0  0  0  0  0  0  0  0
   58.8260   30.0190   44.6240 H   0  0  0  0  0  0  0  0  0  0  0  0
   54.7520   28.9750   45.2780 H   0  0  0  0  0  0  0  0  0  0  0  0
   56.4345   28.9200   42.8948 H   0  0  0  0  0  0  0  0  0  0  0  0
   54.9499   29.9043   43.1402 H   0  0  0  0  0  0  0  0  0  0  0  0
   57.2542   31.4015   41.6488 H   0  0  0  0  0  0  0  0  0  0  0  0
   58.6439   33.3719   42.8763 H   0  0  0  0  0  0  0  0  0  0  0  0
   58.2920   33.0237   45.5043 H   0  0  0  0  0  0  0  0  0  0  0  0
  1  2  1  0
  2  3  1  0
  3  4  1  0
  4  5  1  0
  3  6  1  0
  6  7  1  0
  7  8  1  0
  8  9  1  0
  9 10  2  0
 10 11  1  0
 11 12  1  0
 12 13  1  0
 13 14  2  0
 14 15  1  0
 15 16  2  0
 16 17  1  0
 10 18  1  0
 18 19  2  0
 18 20  1  0
 20 21  2  0
 20  9  1  0
 17 13  1  0
  1 22  1  0
  1 23  1  0
  1 24  1  0
  2 25  1  0
  2 26  1  0
  4 27  1  0
  4 28  1  0
  5 29  1  0
  5 30  1  0
  5 31  1  0
  6 32  1  0
  6 33  1  0
  7 34  1  0
  7 35  1  0
  8 36  1  0
  8 37  1  0
 11 38  1  0
 12 39  1  0
 12 40  1  0
 14 41  1  0
 15 42  1  0
 16 43  1  0
M  CHG  1   8   1
M  END
>  <UniqueID>  (41) 
40

>  <SMILES>  (41) 
CCN(CC)CC[NH2+]c1c(NCc2ccco2)c(=O)c1=O

>  <Energy>  (41) 
50.26567307218477

>  <Genealogy>  (41) 
CCN(CC)CC[NH2+]c1c(NCc2ccco2)c(=O)c1=O (protonated)
CCN(CC)CC[NH2+]c1c(NCc2ccco2)c(=O)c1=O (3D coordinates assigned)
CCN(CC)CC[NH2+]c1c(NCc2ccco2)c(=O)c1=O (optimized conformer: 50.26567307218477 kcal/mol)

>  <smiles>  (41) 
CCN(CC)CCNc1c(NCc2ccco2)c(=O)c1=O

>  <score_type>  (41) 
oracle

>  <origin>  (41) 
adg

>  <m_score__min__energy>  (41) 
-4.8200000000000003

>  <m_primary>  (41) 
energy

$$$$
41:0
     RDKit          3D

 31 32  0  0  0  0  0  0  0  0999 V2000
   63.3790   31.5990   47.5010 C   0  0  0  0  0  0  0  0  0  0  0  0
   63.7660   33.0340   47.1550 C   0  0  0  0  0  0  0  0  0  0  0  0
   62.5490   33.8420   46.6990 C   0  0  0  0  0  0  0  0  0  0  0  0
   61.6400   34.0710   47.8270 N   0  0  0  0  0  0  0  0  0  0  0  0
   62.1130   34.1810   49.2020 C   0  0  0  0  0  0  0  0  0  0  0  0
   60.9250   33.7130   50.0540 C   0  0  0  0  0  0  0  0  0  0  0  0
   59.8780   33.4140   49.0920 N   0  0  0  0  0  0  0  0  0  0  0  0
   60.2910   33.6200   47.8880 C   0  0  0  0  0  0  0  0  0  0  0  0
   59.4030   33.4870   46.7110 C   0  0  0  0  0  0  0  0  0  0  0  0
   59.0230   34.6230   45.9770 C   0  0  0  0  0  0  0  0  0  0  0  0
   58.1730   34.4980   44.8750 C   0  0  0  0  0  0  0  0  0  0  0  0
   57.6900   33.2420   44.5010 C   0  0  0  0  0  0  0  0  0  0  0  0
   58.0540   32.1060   45.2310 C   0  0  0  0  0  0  0  0  0  0  0  0
   57.4450   30.5290   44.7620 Cl  0  0  0  0  0  0  0  0  0  0  0  0
   58.9050   32.2270   46.3350 C   0  0  0  0  0  0  0  0  0  0  0  0
   63.3472   31.4812   48.5942 H   0  0  0  0  0  0  0  0  0  0  0  0
   62.3882   31.3745   47.0791 H   0  0  0  0  0  0  0  0  0  0  0  0
   64.1226   30.9068   47.0791 H   0  0  0  0  0  0  0  0  0  0  0  0
   64.2012   33.5125   48.0447 H   0  0  0  0  0  0  0  0  0  0  0  0
   64.4951   33.0087   46.3317 H   0  0  0  0  0  0  0  0  0  0  0  0
   62.8848   34.8108   46.3008 H   0  0  0  0  0  0  0  0  0  0  0  0
   62.0167   33.2786   45.9184 H   0  0  0  0  0  0  0  0  0  0  0  0
   62.9877   33.5343   49.3655 H   0  0  0  0  0  0  0  0  0  0  0  0
   62.4329   35.2027   49.4545 H   0  0  0  0  0  0  0  0  0  0  0  0
   61.1907   32.8145   50.6303 H   0  0  0  0  0  0  0  0  0  0  0  0
   60.6132   34.4717   50.7869 H   0  0  0  0  0  0  0  0  0  0  0  0
   58.9110   33.1170   49.3500 H   0  0  0  0  0  0  0  0  0  0  0  0
   59.3962   35.6151   46.2711 H   0  0  0  0  0  0  0  0  0  0  0  0
   57.8837   35.3906   44.3009 H   0  0  0  0  0  0  0  0  0  0  0  0
   57.0228   33.1462   43.6317 H   0  0  0  0  0  0  0  0  0  0  0  0
   59.1855   31.3329   46.9111 H   0  0  0  0  0  0  0  0  0  0  0  0
  1  2  1  0
  2  3  1  0
  3  4  1  0
  4  5  1  0
  5  6  1  0
  6  7  1  0
  7  8  2  0
  8  9  1  0
  9 10  2  0
 10 11  1  0
 11 12  2  0
 12 13  1  0
 13 14  1  0
 13 15  2  0
  8  4  1  0
 15  9  1  0
  1 16  1  0
  1 17  1  0
  1 18  1  0
  2 19  1  0
  2 20  1  0
  3 21  1  0
  3 22  1  0
  5 23  1  0
  5 24  1  0
  6 25  1  0
  6 26  1  0
  7 27  1  0
 10 28  1  0
 11 29  1  0
 12 30  1  0
 15 31  1  0
M  CHG  1   7   1
M  END
>  <UniqueID>  (42) 
41

>  <SMILES>  (42) 
CCCN1CC[NH+]=C1c1cccc(Cl)c1

>  <Energy>  (42) 
40.09463111310452

>  <Genealogy>  (42) 
CCCN1CC[NH+]=C1c1cccc(Cl)c1 (protonated)
CCCN1CC[NH+]=C1c1cccc(Cl)c1 (3D coordinates assigned)
CCCN1CC[NH+]=C1c1cccc(Cl)c1 (nonaromatic ring conformer: 40.09463111310452 kcal/mol)

>  <smiles>  (42) 
CCCN1CCN=C1c1cccc(Cl)c1

>  <score_type>  (42) 
oracle

>  <origin>  (42) 
adg

>  <m_score__min__energy>  (42) 
-4.3799999999999999

>  <m_primary>  (42) 
energy

$$$$
42:0
     RDKit          3D

 45 48  0  0  0  0  0  0  0  0999 V2000
   55.3690   29.7240   43.7250 C   0  0  0  0  0  0  0  0  0  0  0  0
   56.8000   29.4520   43.8600 N   0  0  0  0  0  0  0  0  0  0  0  0
   57.3930   28.4260   43.0060 C   0  0  0  0  0  0  0  0  0  0  0  0
   57.4510   29.7770   45.0980 C   0  0  0  0  0  0  0  0  0  0  0  0
   57.8110   31.0660   45.3300 N   0  0  0  0  0  0  0  0  0  0  0  0
   58.4760   31.4340   46.4570 C   0  0  0  0  0  0  0  0  0  0  0  0
   58.8280   32.8160   46.6610 N   0  0  0  0  0  0  0  0  0  0  0  0
   58.3690   33.8370   45.7130 C   0  0  0  0  0  0  0  0  0  0  0  0
   59.3650   35.0010   45.6750 C   0  0  0  0  0  0  0  0  0  0  0  0
   59.6380   35.5110   47.0260 N   0  0  0  0  0  0  0  0  0  0  0  0
   60.1940   34.4530   47.8820 C   0  0  0  0  0  0  0  0  0  0  0  0
   59.2320   33.2650   47.9960 C   0  0  0  0  0  0  0  0  0  0  0  0
   58.7870   30.4920   47.3900 N   0  0  0  0  0  0  0  0  0  0  0  0
   58.4450   29.1910   47.2100 C   0  0  0  0  0  0  0  0  0  0  0  0
   57.7520   28.7870   46.0590 C   0  0  0  0  0  0  0  0  0  0  0  0
   57.3250   27.3730   45.9180 C   0  0  0  0  0  0  0  0  0  0  0  0
   56.0210   26.9860   45.8910 N   0  0  0  0  0  0  0  0  0  0  0  0
   56.1100   25.6530   45.7770 C   0  0  0  0  0  0  0  0  0  0  0  0
   55.0680   24.7320   45.7000 C   0  0  0  0  0  0  0  0  0  0  0  0
   55.4070   23.3700   45.5860 C   0  0  0  0  0  0  0  0  0  0  0  0
   54.4280   22.4350   45.5080 F   0  0  0  0  0  0  0  0  0  0  0  0
   56.7650   22.9740   45.5540 C   0  0  0  0  0  0  0  0  0  0  0  0
   57.7900   23.9340   45.6350 C   0  0  0  0  0  0  0  0  0  0  0  0
   57.4140   25.2710   45.7450 C   0  0  0  0  0  0  0  0  0  0  0  0
   58.2130   26.3440   45.8370 N   0  0  0  0  0  0  0  0  0  0  0  0
   54.9163   29.8100   44.7238 H   0  0  0  0  0  0  0  0  0  0  0  0
   55.2250   30.6656   43.1748 H   0  0  0  0  0  0  0  0  0  0  0  0
   54.8896   28.9009   43.1748 H   0  0  0  0  0  0  0  0  0  0  0  0
   57.8453   27.6435   43.6330 H   0  0  0  0  0  0  0  0  0  0  0  0
   56.6125   27.9815   42.3709 H   0  0  0  0  0  0  0  0  0  0  0  0
   58.1678   28.8804   42.3709 H   0  0  0  0  0  0  0  0  0  0  0  0
   58.2888   33.3931   44.7098 H   0  0  0  0  0  0  0  0  0  0  0  0
   57.3862   34.2125   46.0339 H   0  0  0  0  0  0  0  0  0  0  0  0
   60.3068   34.6529   45.2258 H   0  0  0  0  0  0  0  0  0  0  0  0
   58.9277   35.8144   45.0774 H   0  0  0  0  0  0  0  0  0  0  0  0
   58.7430   35.8550   47.4480 H   0  0  0  0  0  0  0  0  0  0  0  0
   61.1437   34.1047   47.4499 H   0  0  0  0  0  0  0  0  0  0  0  0
   60.3530   34.8684   48.8880 H   0  0  0  0  0  0  0  0  0  0  0  0
   59.7340   32.4392   48.5214 H   0  0  0  0  0  0  0  0  0  0  0  0
   58.3388   33.5768   48.5572 H   0  0  0  0  0  0  0  0  0  0  0  0
   59.2620   30.7640   48.2790 H   0  0  0  0  0  0  0  0  0  0  0  0
   58.7137   28.4463   47.9737 H   0  0  0  0  0  0  0  0  0  0  0  0
   54.0175   25.0570   45.7273 H   0  0  0  0  0  0  0  0  0  0  0  0
   57.0210   21.9079   45.4652 H   0  0  0  0  0  0  0  0  0  0  0  0
   58.8497   23.6398   45.6123 H   0  0  0  0  0  0  0  0  0  0  0  0
  1  2  1  0
  2  3  1  0
  2  4  1  0
  4  5  2  0
  5  6  1  0
  6  7  1  0
  7  8  1  0
  8  9  1  0
  9 10  1  0
 10 11  1  0
 11 12  1  0
  6 13  2  0
 13 14  1  0
 14 15  2  0
 15 16  1  0
 16 17  2  0
 17 18  1  0
 18 19  2  0
 19 20  1  0
 20 21  1  0
 20 22  2  0
 22 23  1  0
 23 24  2  0
 24 25  1  0
 15  4  1  0
 25 16  1  0
 12  7  1  0
 24 18  1  0
  1 26  1  0
  1 27  1  0
  1 28  1  0
  3 29  1  0
  3 30  1  0
  3 31  1  0
  8 32  1  0
  8 33  1  0
  9 34  1  0
  9 35  1  0
 10 36  1  0
 11 37  1  0
 11 38  1  0
 12 39  1  0
 12 40  1  0
 13 41  1  0
 14 42  1  0
 19 43  1  0
 22 44  1  0
 23 45  1  0
M  CHG  2  13   1  25  -1
M  END
>  <UniqueID>  (43) 
42

>  <SMILES>  (43) 
CN(C)c1nc(N2CCNCC2)[nH+]cc1-c1nc2cc(F)ccc2[n-]1

>  <Energy>  (43) 
90.35626432375834

>  <Genealogy>  (43) 
CN(C)c1nc(N2CCNCC2)[nH+]cc1-c1nc2cc(F)ccc2[n-]1 (protonated)
CN(C)c1nc(N2CCNCC2)[nH+]cc1-c1nc2cc(F)ccc2[n-]1 (3D coordinates assigned)
CN(C)c1nc(N2CCNCC2)[nH+]cc1-c1nc2cc(F)ccc2[n-]1 (nonaromatic ring conformer: 90.35626432375834 kcal/mol)

>  <smiles>  (43) 
CN(C)c1nc(N2CCNCC2)ncc1-c1nc2cc(F)ccc2[nH]1

>  <score_type>  (43) 
oracle

>  <origin>  (43) 
adg

>  <m_score__min__energy>  (43) 
-6.96

>  <m_primary>  (43) 
energy

$$$$
43:0
     RDKit          3D

 42 44  0  0  0  0  0  0  0  0999 V2000
   54.9330   24.4710   45.0190 C   0  0  0  0  0  0  0  0  0  0  0  0
   55.1700   24.8460   46.3560 O   0  0  0  0  0  0  0  0  0  0  0  0
   55.2500   23.6890   47.1610 C   0  0  0  0  0  0  0  0  0  0  0  0
   56.6140   23.6340   47.8510 C   0  0  0  0  0  0  0  0  0  0  0  0
   57.6360   23.1030   46.9510 N   0  0  0  0  0  0  0  0  0  0  0  0
   58.4470   23.8680   46.0480 C   0  0  0  0  0  0  0  0  0  0  0  0
   59.3240   23.2700   45.3700 O   0  0  0  0  0  0  0  0  0  0  0  0
   58.2890   25.3260   45.8840 C   0  0  0  0  0  0  0  0  0  0  0  0
   57.9440   25.8740   44.6410 C   0  0  0  0  0  0  0  0  0  0  0  0
   57.7890   27.2560   44.4960 C   0  0  0  0  0  0  0  0  0  0  0  0
   57.9620   28.1160   45.5980 C   0  0  0  0  0  0  0  0  0  0  0  0
   57.8140   29.5440   45.4660 N   0  0  0  0  0  0  0  0  0  0  0  0
   58.6400   30.5110   45.9220 C   0  0  0  0  0  0  0  0  0  0  0  0
   58.0870   31.7220   45.5460 C   0  0  0  0  0  0  0  0  0  0  0  0
   58.6230   33.0810   45.8120 C   0  0  0  0  0  0  0  0  0  0  0  0
   58.7630   34.0160   44.7680 C   0  0  0  0  0  0  0  0  0  0  0  0
   59.2690   35.2930   45.0230 C   0  0  0  0  0  0  0  0  0  0  0  0
   59.6420   35.6550   46.3180 C   0  0  0  0  0  0  0  0  0  0  0  0
   59.5110   34.7380   47.3630 C   0  0  0  0  0  0  0  0  0  0  0  0
   59.0050   33.4570   47.1140 C   0  0  0  0  0  0  0  0  0  0  0  0
   56.9490   31.4450   44.8760 N   0  0  0  0  0  0  0  0  0  0  0  0
   56.8040   30.1300   44.8400 N   0  0  0  0  0  0  0  0  0  0  0  0
   58.2880   27.5550   46.8470 C   0  0  0  0  0  0  0  0  0  0  0  0
   58.4400   26.1730   46.9900 C   0  0  0  0  0  0  0  0  0  0  0  0
   54.3454   23.5413   44.9976 H   0  0  0  0  0  0  0  0  0  0  0  0
   54.3750   25.2693   44.5077 H   0  0  0  0  0  0  0  0  0  0  0  0
   55.8935   24.3096   44.5077 H   0  0  0  0  0  0  0  0  0  0  0  0
   54.4562   23.7175   47.9220 H   0  0  0  0  0  0  0  0  0  0  0  0
   55.1250   22.7968   46.5298 H   0  0  0  0  0  0  0  0  0  0  0  0
   56.9010   24.6494   48.1618 H   0  0  0  0  0  0  0  0  0  0  0  0
   56.5379   22.9702   48.7248 H   0  0  0  0  0  0  0  0  0  0  0  0
   57.7943   25.2130   43.7745 H   0  0  0  0  0  0  0  0  0  0  0  0
   57.5297   27.6753   43.5127 H   0  0  0  0  0  0  0  0  0  0  0  0
   59.5737   30.3636   46.4846 H   0  0  0  0  0  0  0  0  0  0  0  0
   58.4717   33.7387   43.7442 H   0  0  0  0  0  0  0  0  0  0  0  0
   59.3737   36.0155   44.2002 H   0  0  0  0  0  0  0  0  0  0  0  0
   60.0388   36.6617   46.5155 H   0  0  0  0  0  0  0  0  0  0  0  0
   59.8060   35.0229   48.3837 H   0  0  0  0  0  0  0  0  0  0  0  0
   58.9051   32.7389   47.9413 H   0  0  0  0  0  0  0  0  0  0  0  0
   56.2670   32.1180   44.4630 H   0  0  0  0  0  0  0  0  0  0  0  0
   58.4245   28.2109   47.7195 H   0  0  0  0  0  0  0  0  0  0  0  0
   58.6794   25.7480   47.9759 H   0  0  0  0  0  0  0  0  0  0  0  0
  1  2  1  0
  2  3  1  0
  3  4  1  0
  4  5  1  0
  5  6  1  0
  6  7  2  0
  6  8  1  0
  8  9  2  0
  9 10  1  0
 10 11  2  0
 11 12  1  0
 12 13  1  0
 13 14  2  0
 14 15  1  0
 15 16  2  0
 16 17  1  0
 17 18  2  0
 18 19  1  0
 19 20  2  0
 14 21  1  0
 21 22  2  0
 11 23  1  0
 23 24  2  0
 24  8  1  0
 22 12  1  0
 20 15  1  0
  1 25  1  0
  1 26  1  0
  1 27  1  0
  3 28  1  0
  3 29  1  0
  4 30  1  0
  4 31  1  0
  9 32  1  0
 10 33  1  0
 13 34  1  0
 16 35  1  0
 17 36  1  0
 18 37  1  0
 19 38  1  0
 20 39  1  0
 21 40  1  0
 23 41  1  0
 24 42  1  0
M  CHG  2   5  -1  21   1
M  END
>  <UniqueID>  (44) 
43

>  <SMILES>  (44) 
COCC[N-]C(=O)c1ccc(-n2cc(-c3ccccc3)[nH+]n2)cc1

>  <Energy>  (44) 
87.15070678364599

>  <Genealogy>  (44) 
COCC[N-]C(=O)c1ccc(-n2cc(-c3ccccc3)[nH+]n2)cc1 (protonated)
COCC[N-]C(=O)c1ccc(-n2cc(-c3ccccc3)[nH+]n2)cc1 (3D coordinates assigned)
COCC[N-]C(=O)c1ccc(-n2cc(-c3ccccc3)[nH+]n2)cc1 (optimized conformer: 87.15070678364599 kcal/mol)

>  <smiles>  (44) 
COCCNC(=O)c1ccc(-n2cc(-c3ccccc3)nn2)cc1

>  <score_type>  (44) 
oracle

>  <origin>  (44) 
adg

>  <m_score__min__energy>  (44) 
-8.6500000000000004

>  <m_primary>  (44) 
energy

$$$$
44:0
     RDKit          3D

 48 51  0  0  0  0  0  0  0  0999 V2000
   64.5430   34.7940   51.9980 C   0  0  0  0  0  0  0  0  0  0  0  0
   65.6030   33.9530   51.4490 N   0  0  0  0  0  0  0  0  0  0  0  0
   66.9040   33.9990   51.7990 C   0  0  0  0  0  0  0  0  0  0  0  0
   67.6350   33.1380   51.0020 C   0  0  0  0  0  0  0  0  0  0  0  0
   66.7440   32.5580   50.1200 C   0  0  0  0  0  0  0  0  0  0  0  0
   65.5040   33.0930   50.4130 C   0  0  0  0  0  0  0  0  0  0  0  0
   64.2430   32.7610   49.7160 C   0  0  0  0  0  0  0  0  0  0  0  0
   64.0250   31.5420   49.4710 O   0  0  0  0  0  0  0  0  0  0  0  0
   63.2980   33.7650   49.2420 N   0  0  1  0  0  0  0  0  0  0  0  0
   63.3340   33.8670   47.7510 C   0  0  0  0  0  0  0  0  0  0  0  0
   62.1940   33.0860   47.0830 C   0  0  0  0  0  0  0  0  0  0  0  0
   60.7990   33.6600   47.4980 C   0  0  1  0  0  0  0  0  0  0  0  0
   60.8700   34.2970   48.9190 C   0  0  0  0  0  0  0  0  0  0  0  0
   61.9170   33.5820   49.7800 C   0  0  0  0  0  0  0  0  0  0  0  0
   60.3230   34.7070   46.4540 C   0  0  0  0  0  0  0  0  0  0  0  0
   59.4470   33.9160   45.5650 C   0  0  0  0  0  0  0  0  0  0  0  0
   58.9440   34.3690   44.5030 O   0  0  0  0  0  0  0  0  0  0  0  0
   59.1510   32.6300   46.0870 N   0  0  0  0  0  0  0  0  0  0  0  0
   58.3210   31.6260   45.4690 C   0  0  0  0  0  0  0  0  0  0  0  0
   57.0270   31.9450   45.0200 C   0  0  0  0  0  0  0  0  0  0  0  0
   56.2430   30.9900   44.4540 N   0  0  0  0  0  0  0  0  0  0  0  0
   56.6670   29.7070   44.3100 C   0  0  0  0  0  0  0  0  0  0  0  0
   57.9380   29.3380   44.7530 C   0  0  0  0  0  0  0  0  0  0  0  0
   58.5360   27.5330   44.5730 Br  0  0  0  0  0  0  0  0  0  0  0  0
   58.7640   30.3000   45.3380 C   0  0  0  0  0  0  0  0  0  0  0  0
   59.7270   32.5290   47.4190 C   0  0  0  0  0  0  0  0  0  0  0  0
   64.5823   34.7628   53.0969 H   0  0  0  0  0  0  0  0  0  0  0  0
   64.6823   35.8299   51.6554 H   0  0  0  0  0  0  0  0  0  0  0  0
   63.5659   34.4228   51.6554 H   0  0  0  0  0  0  0  0  0  0  0  0
   67.3215   34.6277   52.5992 H   0  0  0  0  0  0  0  0  0  0  0  0
   68.7175   32.9508   51.0591 H   0  0  0  0  0  0  0  0  0  0  0  0
   66.9754   31.8178   49.3399 H   0  0  0  0  0  0  0  0  0  0  0  0
   63.6470   34.6800   49.6170 H   0  0  0  0  0  0  0  0  0  0  0  0
   63.2499   34.9265   47.4673 H   0  0  0  0  0  0  0  0  0  0  0  0
   64.2843   33.4319   47.4081 H   0  0  0  0  0  0  0  0  0  0  0  0
   62.3014   33.1576   45.9906 H   0  0  0  0  0  0  0  0  0  0  0  0
   62.2512   32.0370   47.4092 H   0  0  0  0  0  0  0  0  0  0  0  0
   61.1426   35.3586   48.8259 H   0  0  0  0  0  0  0  0  0  0  0  0
   59.8865   34.1971   49.4015 H   0  0  0  0  0  0  0  0  0  0  0  0
   61.8761   33.9890   50.8011 H   0  0  0  0  0  0  0  0  0  0  0  0
   61.6877   32.5062   49.7730 H   0  0  0  0  0  0  0  0  0  0  0  0
   59.7636   35.5214   46.9376 H   0  0  0  0  0  0  0  0  0  0  0  0
   61.1522   35.1962   45.9219 H   0  0  0  0  0  0  0  0  0  0  0  0
   56.6478   32.9720   45.1274 H   0  0  0  0  0  0  0  0  0  0  0  0
   56.0084   28.9592   43.8442 H   0  0  0  0  0  0  0  0  0  0  0  0
   59.7647   30.0182   45.6973 H   0  0  0  0  0  0  0  0  0  0  0  0
   58.9522   32.6799   48.1851 H   0  0  0  0  0  0  0  0  0  0  0  0
   60.1672   31.5370   47.5985 H   0  0  0  0  0  0  0  0  0  0  0  0
  1  2  1  0
  2  3  1  0
  3  4  2  0
  4  5  1  0
  5  6  2  0
  6  7  1  0
  7  8  2  0
  7  9  1  0
  9 10  1  0
 10 11  1  0
 12 11  1  6
 12 13  1  0
 13 14  1  0
 12 15  1  0
 15 16  1  0
 16 17  2  0
 16 18  1  0
 18 19  1  0
 19 20  2  0
 20 21  1  0
 21 22  2  0
 22 23  1  0
 23 24  1  0
 23 25  2  0
 18 26  1  0
  6  2  1  0
 14  9  1  0
 25 19  1  0
 26 12  1  0
  1 27  1  0
  1 28  1  0
  1 29  1  0
  3 30  1  0
  4 31  1  0
  5 32  1  0
  9 33  1  1
 10 34  1  0
 10 35  1  0
 11 36  1  0
 11 37  1  0
 13 38  1  0
 13 39  1  0
 14 40  1  0
 14 41  1  0
 15 42  1  0
 15 43  1  0
 20 44  1  0
 22 45  1  0
 25 46  1  0
 26 47  1  0
 26 48  1  0
M  CHG  1   9   1
M  END
>  <UniqueID>  (45) 
44

>  <SMILES>  (45) 
Cn1cccc1C(=O)[NH+]1CCC2(CC1)CC(=O)N(c1cncc(Br)c1)C2

>  <Energy>  (45) 
112.03516299884909

>  <Genealogy>  (45) 
Cn1cccc1C(=O)[NH+]1CCC2(CC1)CC(=O)N(c1cncc(Br)c1)C2 (protonated)
Cn1cccc1C(=O)[NH+]1CCC2(CC1)CC(=O)N(c1cncc(Br)c1)C2 (3D coordinates assigned)
Cn1cccc1C(=O)[NH+]1CCC2(CC1)CC(=O)N(c1cncc(Br)c1)C2 (nonaromatic ring conformer: 112.03516299884909 kcal/mol)

>  <smiles>  (45) 
Cn1cccc1C(=O)N1CCC2(CC1)CC(=O)N(c1cncc(Br)c1)C2

>  <score_type>  (45) 
oracle

>  <origin>  (45) 
adg

>  <m_score__min__energy>  (45) 
-7.4400000000000004

>  <m_primary>  (45) 
energy

$$$$
45:0
     RDKit          3D

 48 50  0  0  0  0  0  0  0  0999 V2000
   59.0390   29.3520   44.3900 C   0  0  0  0  0  0  0  0  0  0  0  0
   57.9390   29.1710   45.4610 C   0  0  1  0  0  0  0  0  0  0  0  0
   58.3650   29.9900   46.7250 C   0  0  0  0  0  0  0  0  0  0  0  0
   59.6520   30.8350   46.5740 C   0  0  0  0  0  0  0  0  0  0  0  0
   59.3700   32.1870   46.0380 N   0  0  0  0  0  0  0  0  0  0  0  0
   60.3790   33.1810   46.4880 C   0  0  0  0  0  0  0  0  0  0  0  0
   59.9350   34.6390   46.2360 C   0  0  0  0  0  0  0  0  0  0  0  0
   58.8360   34.7130   45.1780 C   0  0  0  0  0  0  0  0  0  0  0  0
   57.6140   33.8830   45.6030 C   0  0  0  0  0  0  0  0  0  0  0  0
   58.0060   32.6240   46.3990 C   0  0  0  0  0  0  0  0  0  0  0  0
   56.6340   29.7670   44.9380 C   0  0  0  0  0  0  0  0  0  0  0  0
   55.4500   28.9730   44.8740 N   0  0  0  0  0  0  0  0  0  0  0  0
   56.6080   30.9410   44.4730 O   0  0  0  0  0  0  0  0  0  0  0  0
   57.8100   27.6490   45.7030 C   0  0  0  0  0  0  0  0  0  0  0  0
   58.0340   27.0650   46.9710 C   0  0  0  0  0  0  0  0  0  0  0  0
   57.9750   25.6820   47.1520 C   0  0  0  0  0  0  0  0  0  0  0  0
   57.7330   24.8360   46.0650 C   0  0  0  0  0  0  0  0  0  0  0  0
   57.6740   23.4440   46.2380 C   0  0  0  0  0  0  0  0  0  0  0  0
   57.4520   22.6100   45.1390 C   0  0  0  0  0  0  0  0  0  0  0  0
   57.2900   23.1550   43.8640 C   0  0  0  0  0  0  0  0  0  0  0  0
   57.3480   24.5400   43.6800 C   0  0  0  0  0  0  0  0  0  0  0  0
   57.5660   25.3890   44.7760 C   0  0  0  0  0  0  0  0  0  0  0  0
   57.6250   26.7790   44.6030 C   0  0  0  0  0  0  0  0  0  0  0  0
   60.0089   29.5116   44.8839 H   0  0  0  0  0  0  0  0  0  0  0  0
   59.0913   28.4504   43.7620 H   0  0  0  0  0  0  0  0  0  0  0  0
   58.7996   30.2228   43.7620 H   0  0  0  0  0  0  0  0  0  0  0  0
   57.5405   30.6723   46.9793 H   0  0  0  0  0  0  0  0  0  0  0  0
   58.5845   29.2458   47.5047 H   0  0  0  0  0  0  0  0  0  0  0  0
   60.1277   30.9365   47.5606 H   0  0  0  0  0  0  0  0  0  0  0  0
   60.3147   30.3197   45.8631 H   0  0  0  0  0  0  0  0  0  0  0  0
   60.5486   33.0464   47.5665 H   0  0  0  0  0  0  0  0  0  0  0  0
   61.2967   33.0085   45.9066 H   0  0  0  0  0  0  0  0  0  0  0  0
   59.5554   35.0649   47.1765 H   0  0  0  0  0  0  0  0  0  0  0  0
   60.8039   35.2071   45.8723 H   0  0  0  0  0  0  0  0  0  0  0  0
   58.5318   35.7619   45.0465 H   0  0  0  0  0  0  0  0  0  0  0  0
   59.2273   34.3071   44.2335 H   0  0  0  0  0  0  0  0  0  0  0  0
   56.9630   34.5091   46.2308 H   0  0  0  0  0  0  0  0  0  0  0  0
   57.0982   33.5541   44.6888 H   0  0  0  0  0  0  0  0  0  0  0  0
   57.9715   32.8507   47.4748 H   0  0  0  0  0  0  0  0  0  0  0  0
   57.2986   31.8167   46.1584 H   0  0  0  0  0  0  0  0  0  0  0  0
   54.5420   29.3360   45.2360 H   0  0  0  0  0  0  0  0  0  0  0  0
   58.2590   27.7126   47.8312 H   0  0  0  0  0  0  0  0  0  0  0  0
   58.1197   25.2552   48.1554 H   0  0  0  0  0  0  0  0  0  0  0  0
   57.8027   23.0092   47.2402 H   0  0  0  0  0  0  0  0  0  0  0  0
   57.4047   21.5200   45.2790 H   0  0  0  0  0  0  0  0  0  0  0  0
   57.1164   22.4936   43.0024 H   0  0  0  0  0  0  0  0  0  0  0  0
   57.2224   24.9652   42.6733 H   0  0  0  0  0  0  0  0  0  0  0  0
   57.5255   27.2013   43.5922 H   0  0  0  0  0  0  0  0  0  0  0  0
  2  1  1  6
  2  3  1  0
  3  4  1  0
  4  5  1  0
  5  6  1  0
  6  7  1  0
  7  8  1  0
  8  9  1  0
  9 10  1  0
  2 11  1  0
 11 12  1  0
 11 13  2  0
  2 14  1  0
 14 15  2  0
 15 16  1  0
 16 17  2  0
 17 18  1  0
 18 19  2  0
 19 20  1  0
 20 21  2  0
 21 22  1  0
 22 23  2  0
 10  5  1  0
 23 14  1  0
 22 17  1  0
  1 24  1  0
  1 25  1  0
  1 26  1  0
  3 27  1  0
  3 28  1  0
  4 29  1  0
  4 30  1  0
  6 31  1  0
  6 32  1  0
  7 33  1  0
  7 34  1  0
  8 35  1  0
  8 36  1  0
  9 37  1  0
  9 38  1  0
 10 39  1  0
 10 40  1  0
 12 41  1  0
 15 42  1  0
 16 43  1  0
 18 44  1  0
 19 45  1  0
 20 46  1  0
 21 47  1  0
 23 48  1  0
M  CHG  1  12  -1
M  END
>  <UniqueID>  (46) 
45

>  <SMILES>  (46) 
C[C@@](CCN1CCCCC1)(C([NH-])=O)c1ccc2ccccc2c1

>  <Energy>  (46) 
62.67827141177802

>  <Genealogy>  (46) 
CC(CCN1CCCCC1)(C([NH-])=O)c1ccc2ccccc2c1 (protonated)
C[C@@](CCN1CCCCC1)(C([NH-])=O)c1ccc2ccccc2c1 (chirality)
C[C@@](CCN1CCCCC1)(C([NH-])=O)c1ccc2ccccc2c1 (3D coordinates assigned)
C[C@@](CCN1CCCCC1)(C([NH-])=O)c1ccc2ccccc2c1 (nonaromatic ring conformer: 62.67827141177802 kcal/mol)

>  <smiles>  (46) 
CC(CCN1CCCCC1)(C(N)=O)c1ccc2ccccc2c1

>  <score_type>  (46) 
oracle

>  <origin>  (46) 
adg

>  <m_score__min__energy>  (46) 
-11.779999999999999

>  <m_primary>  (46) 
energy

$$$$
46:0
     RDKit          3D

 34 36  0  0  0  0  0  0  0  0999 V2000
   56.4470   30.0890   43.4680 C   0  0  0  0  0  0  0  0  0  0  0  0
   56.6190   30.2730   44.8700 O   0  0  0  0  0  0  0  0  0  0  0  0
   57.8320   30.6220   45.4850 C   0  0  0  0  0  0  0  0  0  0  0  0
   58.8460   29.6630   45.7300 C   0  0  0  0  0  0  0  0  0  0  0  0
   60.0380   30.0330   46.3590 C   0  0  0  0  0  0  0  0  0  0  0  0
   60.2230   31.3690   46.6960 C   0  0  0  0  0  0  0  0  0  0  0  0
   59.2530   32.3220   46.4710 C   0  0  0  0  0  0  0  0  0  0  0  0
   58.0200   31.9670   45.8690 C   0  0  0  0  0  0  0  0  0  0  0  0
   56.9530   32.8560   45.6380 O   0  0  0  0  0  0  0  0  0  0  0  0
   57.0450   34.1950   45.1700 C   0  0  0  0  0  0  0  0  0  0  0  0
   59.7480   33.6340   47.0040 C   0  0  0  0  0  0  0  0  0  0  0  0
   61.1830   33.3970   47.2180 N   0  0  0  0  0  0  0  0  0  0  0  0
   61.8450   34.1630   48.2770 C   0  0  0  0  0  0  0  0  0  0  0  0
   63.2110   33.5050   48.5910 C   0  0  0  0  0  0  0  0  0  0  0  0
   63.6200   32.4700   47.4960 C   0  0  0  0  0  0  0  0  0  0  0  0
   62.6130   31.5210   47.1200 O   0  0  0  0  0  0  0  0  0  0  0  0
   61.3200   31.9640   47.4850 C   0  0  2  0  0  0  0  0  0  0  0  0
   55.7057   29.2960   43.2905 H   0  0  0  0  0  0  0  0  0  0  0  0
   56.0951   31.0278   43.0154 H   0  0  0  0  0  0  0  0  0  0  0  0
   57.4074   29.8011   43.0154 H   0  0  0  0  0  0  0  0  0  0  0  0
   58.6936   28.6179   45.4224 H   0  0  0  0  0  0  0  0  0  0  0  0
   60.8122   29.2841   46.5823 H   0  0  0  0  0  0  0  0  0  0  0  0
   57.0921   34.8811   46.0285 H   0  0  0  0  0  0  0  0  0  0  0  0
   57.9531   34.3085   44.5596 H   0  0  0  0  0  0  0  0  0  0  0  0
   56.1610   34.4316   44.5596 H   0  0  0  0  0  0  0  0  0  0  0  0
   59.5872   34.4410   46.2740 H   0  0  0  0  0  0  0  0  0  0  0  0
   59.2246   33.9503   47.9183 H   0  0  0  0  0  0  0  0  0  0  0  0
   62.0022   35.1985   47.9409 H   0  0  0  0  0  0  0  0  0  0  0  0
   61.2176   34.1700   49.1805 H   0  0  0  0  0  0  0  0  0  0  0  0
   63.9803   34.2894   48.6449 H   0  0  0  0  0  0  0  0  0  0  0  0
   63.1223   32.9725   49.5494 H   0  0  0  0  0  0  0  0  0  0  0  0
   63.9078   33.0303   46.5942 H   0  0  0  0  0  0  0  0  0  0  0  0
   64.4351   31.8779   47.9376 H   0  0  0  0  0  0  0  0  0  0  0  0
   61.2359   31.6787   48.5440 H   0  0  0  0  0  0  0  0  0  0  0  0
  1  2  1  0
  2  3  1  0
  3  4  2  0
  4  5  1  0
  5  6  2  0
  6  7  1  0
  7  8  2  0
  8  9  1  0
  9 10  1  0
  7 11  1  0
 11 12  1  0
 12 13  1  0
 13 14  1  0
 14 15  1  0
 15 16  1  0
 16 17  1  0
  8  3  1  0
 17 12  1  0
 17  6  1  0
  1 18  1  0
  1 19  1  0
  1 20  1  0
  4 21  1  0
  5 22  1  0
 10 23  1  0
 10 24  1  0
 10 25  1  0
 11 26  1  0
 11 27  1  0
 13 28  1  0
 13 29  1  0
 14 30  1  0
 14 31  1  0
 15 32  1  0
 15 33  1  0
 17 34  1  1
M  END
>  <UniqueID>  (47) 
46

>  <SMILES>  (47) 
COc1ccc2c(c1OC)CN1CCCO[C@H]21

>  <Energy>  (47) 
67.73798736627562

>  <Genealogy>  (47) 
COc1ccc2c(c1OC)CN1CCCO[C@H]21 (chirality)
COc1ccc2c(c1OC)CN1CCCO[C@H]21 (3D coordinates assigned)
COc1ccc2c(c1OC)CN1CCCO[C@H]21 (nonaromatic ring conformer: 67.73798736627562 kcal/mol)

>  <smiles>  (47) 
COc1ccc2c(c1OC)CN1CCCOC21

>  <score_type>  (47) 
oracle

>  <origin>  (47) 
adg

>  <m_score__min__energy>  (47) 
-5.8200000000000003

>  <m_primary>  (47) 
energy

$$$$
