0:0
     RDKit          3D

 60 62  0  0  0  0  0  0  0  0999 V2000
   55.1730   28.1630   53.7690 C   0  0  0  0  0  0  0  0  0  0  0  0
   54.0210   28.6130   52.8640 C   0  0  0  0  0  0  0  0  0  0  0  0
   54.4230   29.6830   51.9140 N   0  0  0  0  0  0  0  0  0  0  0  0
   53.2790   30.0910   51.0570 C   0  0  0  0  0  0  0  0  0  0  0  0
   52.6320   31.4260   51.4640 C   0  0  0  0  0  0  0  0  0  0  0  0
   55.0450   30.8580   52.5970 C   0  0  0  0  0  0  0  0  0  0  0  0
   56.4420   31.1850   52.0510 C   0  0  0  0  0  0  0  0  0  0  0  0
   57.0560   29.9970   51.5890 O   0  0  0  0  0  0  0  0  0  0  0  0
   58.4630   30.1420   51.5260 C   0  0  0  0  0  0  0  0  0  0  0  0
   58.8770   31.5640   51.1010 C   0  0  0  0  0  0  0  0  0  0  0  0
   58.4690   31.8730   49.6530 C   0  0  0  0  0  0  0  0  0  0  0  0
   59.5310   31.4940   48.7200 N   0  0  0  0  0  0  0  0  0  0  0  0
   59.2890   31.4270   47.3070 C   0  0  0  0  0  0  0  0  0  0  0  0
   59.0330   30.1750   46.7200 C   0  0  0  0  0  0  0  0  0  0  0  0
   59.2800   28.9780   47.4280 C   0  0  0  0  0  0  0  0  0  0  0  0
   59.0650   27.7400   46.8280 C   0  0  0  0  0  0  0  0  0  0  0  0
   58.6090   27.6710   45.5170 C   0  0  0  0  0  0  0  0  0  0  0  0
   58.3310   28.8400   44.8100 C   0  0  0  0  0  0  0  0  0  0  0  0
   58.4990   30.1150   45.4100 C   0  0  0  0  0  0  0  0  0  0  0  0
   58.1400   31.2800   44.7600 N   0  0  0  0  0  0  0  0  0  0  0  0
   57.2700   31.2160   43.5630 C   0  0  0  0  0  0  0  0  0  0  0  0
   58.5820   32.5010   45.2340 C   0  0  0  0  0  0  0  0  0  0  0  0
   58.4630   33.6780   44.4520 C   0  0  0  0  0  0  0  0  0  0  0  0
   58.8990   34.9060   44.9280 C   0  0  0  0  0  0  0  0  0  0  0  0
   59.5200   34.9960   46.1640 C   0  0  0  0  0  0  0  0  0  0  0  0
   59.7060   33.8600   46.9520 C   0  0  0  0  0  0  0  0  0  0  0  0
   60.8480   34.1250   48.4810 Br  0  0  0  0  0  0  0  0  0  0  0  0
   59.1940   32.5980   46.5210 C   0  0  0  0  0  0  0  0  0  0  0  0
   54.8782   28.2782   54.8225 H   0  0  0  0  0  0  0  0  0  0  0  0
   55.4071   27.1073   53.5671 H   0  0  0  0  0  0  0  0  0  0  0  0
   56.0606   28.7805   53.5671 H   0  0  0  0  0  0  0  0  0  0  0  0
   53.6665   27.7456   52.2878 H   0  0  0  0  0  0  0  0  0  0  0  0
   53.2306   29.0221   53.5105 H   0  0  0  0  0  0  0  0  0  0  0  0
   55.1160   29.2590   51.2510 H   0  0  0  0  0  0  0  0  0  0  0  0
   53.6391   30.1834   50.0217 H   0  0  0  0  0  0  0  0  0  0  0  0
   52.5060   29.3168   51.1714 H   0  0  0  0  0  0  0  0  0  0  0  0
   52.5975   31.4973   52.5611 H   0  0  0  0  0  0  0  0  0  0  0  0
   53.2262   32.2594   51.0609 H   0  0  0  0  0  0  0  0  0  0  0  0
   51.6097   31.4760   51.0609 H   0  0  0  0  0  0  0  0  0  0  0  0
   54.3959   31.7342   52.4523 H   0  0  0  0  0  0  0  0  0  0  0  0
   55.1535   30.6059   53.6622 H   0  0  0  0  0  0  0  0  0  0  0  0
   56.3530   31.8995   51.2194 H   0  0  0  0  0  0  0  0  0  0  0  0
   57.0543   31.6282   52.8501 H   0  0  0  0  0  0  0  0  0  0  0  0
   58.8869   29.9302   52.5187 H   0  0  0  0  0  0  0  0  0  0  0  0
   58.8444   29.4371   50.7726 H   0  0  0  0  0  0  0  0  0  0  0  0
   58.3913   32.2901   51.7695 H   0  0  0  0  0  0  0  0  0  0  0  0
   59.9728   31.6332   51.1675 H   0  0  0  0  0  0  0  0  0  0  0  0
   57.5562   31.3102   49.4079 H   0  0  0  0  0  0  0  0  0  0  0  0
   58.2893   32.9543   49.5612 H   0  0  0  0  0  0  0  0  0  0  0  0
   60.4550   31.1840   49.0970 H   0  0  0  0  0  0  0  0  0  0  0  0
   59.6461   29.0243   48.4643 H   0  0  0  0  0  0  0  0  0  0  0  0
   59.2563   26.8154   47.3924 H   0  0  0  0  0  0  0  0  0  0  0  0
   58.4671   26.6919   45.0361 H   0  0  0  0  0  0  0  0  0  0  0  0
   57.9759   28.7730   43.7710 H   0  0  0  0  0  0  0  0  0  0  0  0
   56.2188   31.1387   43.8775 H   0  0  0  0  0  0  0  0  0  0  0  0
   57.4067   32.1266   42.9613 H   0  0  0  0  0  0  0  0  0  0  0  0
   57.5385   30.3352   42.9613 H   0  0  0  0  0  0  0  0  0  0  0  0
   58.0164   33.6161   43.4487 H   0  0  0  0  0  0  0  0  0  0  0  0
   58.7513   35.8121   44.3220 H   0  0  0  0  0  0  0  0  0  0  0  0
   59.8698   35.9735   46.5273 H   0  0  0  0  0  0  0  0  0  0  0  0
  1  2  1  0
  2  3  1  0
  3  4  1  0
  4  5  1  0
  3  6  1  0
  6  7  1  0
  7  8  1  0
  8  9  1  0
  9 10  1  0
 10 11  1  0
 11 12  1  0
 12 13  1  0
 13 14  2  0
 14 15  1  0
 15 16  2  0
 16 17  1  0
 17 18  2  0
 18 19  1  0
 19 20  2  0
 20 21  1  0
 20 22  1  0
 22 23  2  0
 23 24  1  0
 24 25  2  0
 25 26  1  0
 26 27  1  0
 26 28  2  0
 28 13  1  0
 19 14  1  0
 28 22  1  0
  1 29  1  0
  1 30  1  0
  1 31  1  0
  2 32  1  0
  2 33  1  0
  3 34  1  0
  4 35  1  0
  4 36  1  0
  5 37  1  0
  5 38  1  0
  5 39  1  0
  6 40  1  0
  6 41  1  0
  7 42  1  0
  7 43  1  0
  9 44  1  0
  9 45  1  0
 10 46  1  0
 10 47  1  0
 11 48  1  0
 11 49  1  0
 12 50  1  0
 15 51  1  0
 16 52  1  0
 17 53  1  0
 18 54  1  0
 21 55  1  0
 21 56  1  0
 21 57  1  0
 23 58  1  0
 24 59  1  0
 25 60  1  0
M  CHG  2   3   1  20   1
M  END
>  <UniqueID>  (1) 
1

>  <SMILES>  (1) 
CC[NH+](CC)CCOCCCNc1c2ccccc2[n+](C)c2cccc(Br)c12

>  <Energy>  (1) 
97.80497064372213

>  <Genealogy>  (1) 
CC[NH+](CC)CCOCCCNc1c2ccccc2[n+](C)c2cccc(Br)c12 (protonated)
CC[NH+](CC)CCOCCCNc1c2ccccc2[n+](C)c2cccc(Br)c12 (3D coordinates assigned)
CC[NH+](CC)CCOCCCNc1c2ccccc2[n+](C)c2cccc(Br)c12 (optimized conformer: 97.80497064372213 kcal/mol)

>  <smiles>  (1) 
CCN(CC)CCOCCCNc1c2ccccc2[n+](C)c2cccc(Br)c12

>  <score_type>  (1) 
oracle

>  <origin>  (1) 
adg

>  <m_score__min__energy>  (1) 
-4.6200000000000001

>  <m_primary>  (1) 
energy

$$$$
1:0
     RDKit          3D

 79 82  0  0  0  0  0  0  0  0999 V2000
   57.4190   31.6310   42.5120 C   0  0  0  0  0  0  0  0  0  0  0  0
   56.3750   30.1730   42.8160 S   0  0  0  0  0  0  0  0  0  0  0  0
   57.3740   29.5990   44.1860 C   0  0  0  0  0  0  0  0  0  0  0  0
   57.8900   28.3030   44.1870 C   0  0  0  0  0  0  0  0  0  0  0  0
   58.6650   27.8730   45.2640 C   0  0  0  0  0  0  0  0  0  0  0  0
   58.9230   28.7390   46.3470 C   0  0  0  0  0  0  0  0  0  0  0  0
   59.6920   28.3460   47.4740 C   0  0  0  0  0  0  0  0  0  0  0  0
   60.2600   26.9490   47.5690 C   0  0  0  0  0  0  0  0  0  0  0  0
   59.9030   29.2650   48.5290 C   0  0  0  0  0  0  0  0  0  0  0  0
   60.6440   28.8580   49.6550 O   0  0  0  0  0  0  0  0  0  0  0  0
   60.4070   29.2690   51.0020 C   0  0  0  0  0  0  0  0  0  0  0  0
   61.6560   29.9190   51.6000 C   0  0  0  0  0  0  0  0  0  0  0  0
   61.5310   29.9890   53.0640 N   0  0  0  0  0  0  0  0  0  0  0  0
   62.0100   31.2790   53.5830 C   0  0  0  0  0  0  0  0  0  0  0  0
   63.3710   31.6420   52.9530 C   0  0  0  0  0  0  0  0  0  0  0  0
   63.3160   32.9020   52.0780 C   0  0  0  0  0  0  0  0  0  0  0  0
   61.9780   33.1420   51.5280 N   0  0  0  0  0  0  0  0  0  0  0  0
   61.7440   33.2890   50.1120 C   0  0  0  0  0  0  0  0  0  0  0  0
   62.7980   33.1630   49.1940 C   0  0  0  0  0  0  0  0  0  0  0  0
   62.5940   33.3140   47.8210 C   0  0  0  0  0  0  0  0  0  0  0  0
   63.7070   33.1410   46.9920 O   0  0  0  0  0  0  0  0  0  0  0  0
   61.3020   33.6330   47.3320 C   0  0  0  0  0  0  0  0  0  0  0  0
   61.0470   33.8390   45.9580 C   0  0  0  0  0  0  0  0  0  0  0  0
   59.7680   34.1780   45.5140 C   0  0  0  0  0  0  0  0  0  0  0  0
   58.7240   34.3260   46.4230 C   0  0  0  0  0  0  0  0  0  0  0  0
   58.9490   34.1300   47.7840 C   0  0  0  0  0  0  0  0  0  0  0  0
   60.2260   33.7670   48.2560 C   0  0  0  0  0  0  0  0  0  0  0  0
   60.4480   33.5610   49.6360 C   0  0  0  0  0  0  0  0  0  0  0  0
   59.3910   33.6530   50.5450 O   0  0  0  0  0  0  0  0  0  0  0  0
   58.5950   32.5190   50.8760 C   0  0  0  0  0  0  0  0  0  0  0  0
   57.9170   32.7500   52.2270 C   0  0  0  0  0  0  0  0  0  0  0  0
   58.8740   32.4940   53.3990 C   0  0  0  0  0  0  0  0  0  0  0  0
   59.6780   33.7020   53.6950 N   0  0  0  0  0  0  0  0  0  0  0  0
   60.1810   33.6670   55.0770 C   0  0  0  0  0  0  0  0  0  0  0  0
   58.8850   34.9270   53.4900 C   0  0  0  0  0  0  0  0  0  0  0  0
   59.3670   30.5620   48.4380 C   0  0  0  0  0  0  0  0  0  0  0  0
   58.6110   30.9440   47.3330 C   0  0  0  0  0  0  0  0  0  0  0  0
   58.3830   30.0450   46.2930 C   0  0  0  0  0  0  0  0  0  0  0  0
   57.6330   30.4340   45.2250 N   0  0  0  0  0  0  0  0  0  0  0  0
   57.7304   32.0659   43.4732 H   0  0  0  0  0  0  0  0  0  0  0  0
   58.3092   31.3316   41.9395 H   0  0  0  0  0  0  0  0  0  0  0  0
   56.8488   32.3773   41.9395 H   0  0  0  0  0  0  0  0  0  0  0  0
   57.6872   27.6252   43.3447 H   0  0  0  0  0  0  0  0  0  0  0  0
   59.0772   26.8531   45.2688 H   0  0  0  0  0  0  0  0  0  0  0  0
   60.3733   26.6704   48.6271 H   0  0  0  0  0  0  0  0  0  0  0  0
   59.5781   26.2415   47.0745 H   0  0  0  0  0  0  0  0  0  0  0  0
   61.2421   26.9181   47.0745 H   0  0  0  0  0  0  0  0  0  0  0  0
   59.5804   29.9946   51.0174 H   0  0  0  0  0  0  0  0  0  0  0  0
   60.1500   28.3827   51.6007 H   0  0  0  0  0  0  0  0  0  0  0  0
   62.5404   29.3198   51.3376 H   0  0  0  0  0  0  0  0  0  0  0  0
   61.7636   30.9366   51.1964 H   0  0  0  0  0  0  0  0  0  0  0  0
   62.1220   29.2280   53.4740 H   0  0  0  0  0  0  0  0  0  0  0  0
   61.2773   32.0623   53.3386 H   0  0  0  0  0  0  0  0  0  0  0  0
   62.1317   31.2012   54.6735 H   0  0  0  0  0  0  0  0  0  0  0  0
   64.0971   31.8098   53.7621 H   0  0  0  0  0  0  0  0  0  0  0  0
   63.6634   30.8048   52.3022 H   0  0  0  0  0  0  0  0  0  0  0  0
   63.6079   33.7692   52.6885 H   0  0  0  0  0  0  0  0  0  0  0  0
   64.0047   32.7542   51.2331 H   0  0  0  0  0  0  0  0  0  0  0  0
   61.1840   33.3040   52.1870 H   0  0  0  0  0  0  0  0  0  0  0  0
   63.8092   32.9399   49.5651 H   0  0  0  0  0  0  0  0  0  0  0  0
   64.5230   32.5980   47.2290 H   0  0  0  0  0  0  0  0  0  0  0  0
   61.8649   33.7311   45.2304 H   0  0  0  0  0  0  0  0  0  0  0  0
   59.5839   34.3291   44.4401 H   0  0  0  0  0  0  0  0  0  0  0  0
   57.7197   34.5981   46.0661 H   0  0  0  0  0  0  0  0  0  0  0  0
   58.1215   34.2599   48.4970 H   0  0  0  0  0  0  0  0  0  0  0  0
   57.8282   32.3704   50.1014 H   0  0  0  0  0  0  0  0  0  0  0  0
   59.2347   31.6260   50.9343 H   0  0  0  0  0  0  0  0  0  0  0  0
   57.5662   33.7914   52.2753 H   0  0  0  0  0  0  0  0  0  0  0  0
   57.0775   32.0443   52.3121 H   0  0  0  0  0  0  0  0  0  0  0  0
   58.2886   32.2232   54.2900 H   0  0  0  0  0  0  0  0  0  0  0  0
   59.5556   31.6752   53.1252 H   0  0  0  0  0  0  0  0  0  0  0  0
   59.3344   33.7259   55.7769 H   0  0  0  0  0  0  0  0  0  0  0  0
   60.7300   32.7285   55.2437 H   0  0  0  0  0  0  0  0  0  0  0  0
   60.8547   34.5204   55.2437 H   0  0  0  0  0  0  0  0  0  0  0  0
   58.6093   35.3529   54.4660 H   0  0  0  0  0  0  0  0  0  0  0  0
   59.4808   35.6593   52.9255 H   0  0  0  0  0  0  0  0  0  0  0  0
   57.9729   34.6832   52.9255 H   0  0  0  0  0  0  0  0  0  0  0  0
   59.5471   31.2829   49.2491 H   0  0  0  0  0  0  0  0  0  0  0  0
   58.1919   31.9597   47.2807 H   0  0  0  0  0  0  0  0  0  0  0  0
  1  2  1  0
  2  3  1  0
  3  4  2  0
  4  5  1  0
  5  6  2  0
  6  7  1  0
  7  8  1  0
  7  9  2  0
  9 10  1  0
 10 11  1  0
 11 12  1  0
 12 13  1  0
 13 14  1  0
 14 15  1  0
 15 16  1  0
 16 17  1  0
 17 18  1  0
 18 19  2  0
 19 20  1  0
 20 21  1  0
 20 22  2  0
 22 23  1  0
 23 24  2  0
 24 25  1  0
 25 26  2  0
 26 27  1  0
 27 28  2  0
 28 29  1  0
 29 30  1  0
 30 31  1  0
 31 32  1  0
 32 33  1  0
 33 34  1  0
 33 35  1  0
  9 36  1  0
 36 37  2  0
 37 38  1  0
 38 39  2  0
 39  3  1  0
 38  6  1  0
 28 18  1  0
 27 22  1  0
  1 40  1  0
  1 41  1  0
  1 42  1  0
  4 43  1  0
  5 44  1  0
  8 45  1  0
  8 46  1  0
  8 47  1  0
 11 48  1  0
 11 49  1  0
 12 50  1  0
 12 51  1  0
 13 52  1  0
 14 53  1  0
 14 54  1  0
 15 55  1  0
 15 56  1  0
 16 57  1  0
 16 58  1  0
 17 59  1  0
 19 60  1  0
 21 61  1  0
 23 62  1  0
 24 63  1  0
 25 64  1  0
 26 65  1  0
 30 66  1  0
 30 67  1  0
 31 68  1  0
 31 69  1  0
 32 70  1  0
 32 71  1  0
 34 72  1  0
 34 73  1  0
 34 74  1  0
 35 75  1  0
 35 76  1  0
 35 77  1  0
 36 78  1  0
 37 79  1  0
M  END
>  <UniqueID>  (2) 
2

>  <SMILES>  (2) 
CSc1ccc2c(C)c(OCCNCCCNc3cc(O)c4ccccc4c3OCCCN(C)C)ccc2n1

>  <Energy>  (2) 
85.32746803601256

>  <Genealogy>  (2) 
CSc1ccc2c(C)c(OCCNCCCNc3cc(O)c4ccccc4c3OCCCN(C)C)ccc2n1 (3D coordinates assigned)
CSc1ccc2c(C)c(OCCNCCCNc3cc(O)c4ccccc4c3OCCCN(C)C)ccc2n1 (optimized conformer: 85.32746803601256 kcal/mol)

>  <smiles>  (2) 
CSc1ccc2c(C)c(OCCNCCCNc3cc(O)c4ccccc4c3OCCCN(C)C)ccc2n1

>  <score_type>  (2) 
oracle

>  <origin>  (2) 
adg

>  <m_score__min__energy>  (2) 
-7.8399999999999999

>  <m_primary>  (2) 
energy

$$$$
2:0
     RDKit          3D

 43 46  0  0  0  0  0  0  0  0999 V2000
   59.2710   35.3330   46.7160 C   0  0  0  0  0  0  0  0  0  0  0  0
   59.0500   33.8760   46.4360 C   0  0  0  0  0  0  0  0  0  0  0  0
   59.1690   32.9340   47.4630 C   0  0  0  0  0  0  0  0  0  0  0  0
   58.9400   31.5830   47.2100 C   0  0  0  0  0  0  0  0  0  0  0  0
   58.5770   31.1410   45.9270 C   0  0  0  0  0  0  0  0  0  0  0  0
   58.3870   29.6860   45.7200 C   0  0  0  0  0  0  0  0  0  0  0  0
   59.1470   28.7530   46.3510 N   0  0  0  0  0  0  0  0  0  0  0  0
   58.8300   27.5010   45.9360 C   0  0  0  0  0  0  0  0  0  0  0  0
   59.4260   26.3350   46.3930 C   0  0  0  0  0  0  0  0  0  0  0  0
   58.9970   25.1110   45.8600 C   0  0  0  0  0  0  0  0  0  0  0  0
   57.9700   25.0700   44.8690 C   0  0  0  0  0  0  0  0  0  0  0  0
   57.5180   23.7990   44.3080 N   0  0  0  0  0  0  0  0  0  0  0  0
   56.6010   23.8030   43.1480 C   0  0  0  0  0  0  0  0  0  0  0  0
   56.2700   22.4020   42.6240 C   0  0  0  0  0  0  0  0  0  0  0  0
   56.1370   21.4840   43.6820 O   0  0  0  0  0  0  0  0  0  0  0  0
   57.4050   21.2860   44.2600 C   0  0  0  0  0  0  0  0  0  0  0  0
   57.8710   22.5430   45.0000 C   0  0  0  0  0  0  0  0  0  0  0  0
   57.4220   26.2600   44.4450 N   0  0  0  0  0  0  0  0  0  0  0  0
   57.8470   27.4330   44.9760 C   0  0  0  0  0  0  0  0  0  0  0  0
   57.3240   28.9790   44.5960 S   0  0  0  0  0  0  0  0  0  0  0  0
   58.3950   32.0980   44.8940 C   0  0  0  0  0  0  0  0  0  0  0  0
   57.9240   31.7140   43.5150 C   0  0  0  0  0  0  0  0  0  0  0  0
   58.6500   33.4560   45.1600 C   0  0  0  0  0  0  0  0  0  0  0  0
   59.2960   35.4977   47.8033 H   0  0  0  0  0  0  0  0  0  0  0  0
   60.2275   35.6502   46.2750 H   0  0  0  0  0  0  0  0  0  0  0  0
   58.4515   35.9195   46.2750 H   0  0  0  0  0  0  0  0  0  0  0  0
   59.4449   33.2615   48.4762 H   0  0  0  0  0  0  0  0  0  0  0  0
   59.0449   30.8528   48.0260 H   0  0  0  0  0  0  0  0  0  0  0  0
   60.2173   26.3696   47.1563 H   0  0  0  0  0  0  0  0  0  0  0  0
   59.4558   24.1740   46.2085 H   0  0  0  0  0  0  0  0  0  0  0  0
   55.6629   24.2929   43.4478 H   0  0  0  0  0  0  0  0  0  0  0  0
   57.1114   24.3397   42.3347 H   0  0  0  0  0  0  0  0  0  0  0  0
   55.3250   22.4424   42.0624 H   0  0  0  0  0  0  0  0  0  0  0  0
   57.0922   22.0689   41.9736 H   0  0  0  0  0  0  0  0  0  0  0  0
   57.3496   20.4490   44.9716 H   0  0  0  0  0  0  0  0  0  0  0  0
   58.1251   21.0626   43.4590 H   0  0  0  0  0  0  0  0  0  0  0  0
   57.4064   22.5524   45.9970 H   0  0  0  0  0  0  0  0  0  0  0  0
   58.9689   22.4997   45.0517 H   0  0  0  0  0  0  0  0  0  0  0  0
   56.6810   26.3040   43.7140 H   0  0  0  0  0  0  0  0  0  0  0  0
   57.0738   31.0209   43.5977 H   0  0  0  0  0  0  0  0  0  0  0  0
   57.6096   32.6165   42.9704 H   0  0  0  0  0  0  0  0  0  0  0  0
   58.7447   31.2243   42.9704 H   0  0  0  0  0  0  0  0  0  0  0  0
   58.5339   34.1977   44.3560 H   0  0  0  0  0  0  0  0  0  0  0  0
  1  2  1  0
  2  3  2  0
  3  4  1  0
  4  5  2  0
  5  6  1  0
  6  7  2  0
  7  8  1  0
  8  9  2  0
  9 10  1  0
 10 11  2  0
 11 12  1  0
 12 13  1  0
 13 14  1  0
 14 15  1  0
 15 16  1  0
 16 17  1  0
 11 18  1  0
 18 19  2  0
 19 20  1  0
  5 21  1  0
 21 22  1  0
 21 23  2  0
 23  2  1  0
 20  6  1  0
 19  8  1  0
 17 12  1  0
  1 24  1  0
  1 25  1  0
  1 26  1  0
  3 27  1  0
  4 28  1  0
  9 29  1  0
 10 30  1  0
 13 31  1  0
 13 32  1  0
 14 33  1  0
 14 34  1  0
 16 35  1  0
 16 36  1  0
 17 37  1  0
 17 38  1  0
 18 39  1  0
 22 40  1  0
 22 41  1  0
 22 42  1  0
 23 43  1  0
M  CHG  1  18   1
M  END
>  <UniqueID>  (3) 
3

>  <SMILES>  (3) 
Cc1ccc(-c2nc3ccc(N4CCOCC4)[nH+]c3s2)c(C)c1

>  <Energy>  (3) 
94.00061813100515

>  <Genealogy>  (3) 
Cc1ccc(-c2nc3ccc(N4CCOCC4)[nH+]c3s2)c(C)c1 (protonated)
Cc1ccc(-c2nc3ccc(N4CCOCC4)[nH+]c3s2)c(C)c1 (3D coordinates assigned)
Cc1ccc(-c2nc3ccc(N4CCOCC4)[nH+]c3s2)c(C)c1 (nonaromatic ring conformer: 94.00061813100515 kcal/mol)

>  <smiles>  (3) 
Cc1ccc(-c2nc3ccc(N4CCOCC4)nc3s2)c(C)c1

>  <score_type>  (3) 
oracle

>  <origin>  (3) 
adg

>  <m_score__min__energy>  (3) 
-6.9900000000000002

>  <m_primary>  (3) 
energy

$$$$
3:0
     RDKit          3D

 55 58  0  0  0  0  0  0  0  0999 V2000
   55.8650   30.1120   43.7140 C   0  0  0  0  0  0  0  0  0  0  0  0
   56.9410   29.1860   44.2600 C   0  0  0  0  0  0  0  0  0  0  0  0
   56.3800   28.3500   45.2410 O   0  0  0  0  0  0  0  0  0  0  0  0
   57.0360   27.1630   45.1430 N   0  0  0  0  0  0  0  0  0  0  0  0
   56.6580   26.3490   46.2990 C   0  0  0  0  0  0  0  0  0  0  0  0
   57.8880   26.0110   47.1470 C   0  0  0  0  0  0  0  0  0  0  0  0
   59.1670   25.9520   46.2990 C   0  0  0  0  0  0  0  0  0  0  0  0
   59.8850   27.3050   46.2470 C   0  0  0  0  0  0  0  0  0  0  0  0
   59.0650   28.3550   46.8500 N   0  0  0  0  0  0  0  0  0  0  0  0
   59.6820   29.4460   47.5460 C   0  0  0  0  0  0  0  0  0  0  0  0
   59.5950   30.7390   47.0380 C   0  0  0  0  0  0  0  0  0  0  0  0
   60.2200   31.7950   47.6750 C   0  0  0  0  0  0  0  0  0  0  0  0
   61.0360   31.6060   48.7630 N   0  0  0  0  0  0  0  0  0  0  0  0
   61.9340   32.6840   49.2080 C   0  0  0  0  0  0  0  0  0  0  0  0
   61.0400   30.3630   49.3760 C   0  0  0  0  0  0  0  0  0  0  0  0
   61.6710   30.1510   50.6270 C   0  0  0  0  0  0  0  0  0  0  0  0
   61.6950   28.8860   51.2140 C   0  0  0  0  0  0  0  0  0  0  0  0
   61.0850   27.8060   50.5830 C   0  0  0  0  0  0  0  0  0  0  0  0
   60.4270   27.9840   49.3690 C   0  0  0  0  0  0  0  0  0  0  0  0
   60.3830   29.2520   48.7550 C   0  0  0  0  0  0  0  0  0  0  0  0
   59.9130   33.0160   46.9180 C   0  0  0  0  0  0  0  0  0  0  0  0
   60.1000   34.3720   47.2260 C   0  0  0  0  0  0  0  0  0  0  0  0
   59.6220   35.3390   46.3290 C   0  0  0  0  0  0  0  0  0  0  0  0
   58.9270   34.9530   45.1690 C   0  0  0  0  0  0  0  0  0  0  0  0
   58.6860   33.5970   44.9090 C   0  0  0  0  0  0  0  0  0  0  0  0
   59.1790   32.6460   45.8030 C   0  0  0  0  0  0  0  0  0  0  0  0
   58.9170   31.1740   45.7710 C   0  0  0  0  0  0  0  0  0  0  0  0
   55.3234   30.5781   44.5503 H   0  0  0  0  0  0  0  0  0  0  0  0
   56.3326   30.8946   43.0984 H   0  0  0  0  0  0  0  0  0  0  0  0
   55.1608   29.5331   43.0984 H   0  0  0  0  0  0  0  0  0  0  0  0
   57.3471   28.5722   43.4425 H   0  0  0  0  0  0  0  0  0  0  0  0
   57.7509   29.7834   44.7040 H   0  0  0  0  0  0  0  0  0  0  0  0
   56.6750   26.6900   44.2810 H   0  0  0  0  0  0  0  0  0  0  0  0
   55.9374   26.9078   46.9143 H   0  0  0  0  0  0  0  0  0  0  0  0
   56.2068   25.4121   45.9402 H   0  0  0  0  0  0  0  0  0  0  0  0
   58.0096   26.7828   47.9214 H   0  0  0  0  0  0  0  0  0  0  0  0
   57.7306   25.0199   47.5976 H   0  0  0  0  0  0  0  0  0  0  0  0
   59.8475   25.2054   46.7344 H   0  0  0  0  0  0  0  0  0  0  0  0
   58.8814   25.6795   45.2723 H   0  0  0  0  0  0  0  0  0  0  0  0
   60.8349   27.2298   46.7965 H   0  0  0  0  0  0  0  0  0  0  0  0
   60.0694   27.5645   45.1941 H   0  0  0  0  0  0  0  0  0  0  0  0
   58.1130   28.5160   46.4510 H   0  0  0  0  0  0  0  0  0  0  0  0
   61.9570   32.7116   50.3074 H   0  0  0  0  0  0  0  0  0  0  0  0
   62.9481   32.4981   48.8246 H   0  0  0  0  0  0  0  0  0  0  0  0
   61.5680   33.6478   48.8246 H   0  0  0  0  0  0  0  0  0  0  0  0
   62.1491   30.9968   51.1429 H   0  0  0  0  0  0  0  0  0  0  0  0
   62.1989   28.7412   52.1810 H   0  0  0  0  0  0  0  0  0  0  0  0
   61.1228   26.8084   51.0449 H   0  0  0  0  0  0  0  0  0  0  0  0
   59.9367   27.1268   48.8844 H   0  0  0  0  0  0  0  0  0  0  0  0
   60.6115   34.6711   48.1528 H   0  0  0  0  0  0  0  0  0  0  0  0
   59.7920   36.4062   46.5344 H   0  0  0  0  0  0  0  0  0  0  0  0
   58.5712   35.7180   44.4632 H   0  0  0  0  0  0  0  0  0  0  0  0
   58.1195   33.2887   44.0179 H   0  0  0  0  0  0  0  0  0  0  0  0
   57.8394   30.9542   45.7927 H   0  0  0  0  0  0  0  0  0  0  0  0
   59.2786   30.6670   44.8642 H   0  0  0  0  0  0  0  0  0  0  0  0
  1  2  1  0
  2  3  1  0
  3  4  1  0
  4  5  1  0
  5  6  1  0
  6  7  1  0
  7  8  1  0
  8  9  1  0
  9 10  1  0
 10 11  2  0
 11 12  1  0
 12 13  2  0
 13 14  1  0
 13 15  1  0
 15 16  2  0
 16 17  1  0
 17 18  2  0
 18 19  1  0
 19 20  2  0
 12 21  1  0
 21 22  2  0
 22 23  1  0
 23 24  2  0
 24 25  1  0
 25 26  2  0
 26 27  1  0
 20 10  1  0
 26 21  1  0
 27 11  1  0
 20 15  1  0
  1 28  1  0
  1 29  1  0
  1 30  1  0
  2 31  1  0
  2 32  1  0
  4 33  1  0
  5 34  1  0
  5 35  1  0
  6 36  1  0
  6 37  1  0
  7 38  1  0
  7 39  1  0
  8 40  1  0
  8 41  1  0
  9 42  1  0
 14 43  1  0
 14 44  1  0
 14 45  1  0
 16 46  1  0
 17 47  1  0
 18 48  1  0
 19 49  1  0
 22 50  1  0
 23 51  1  0
 24 52  1  0
 25 53  1  0
 27 54  1  0
 27 55  1  0
M  CHG  1  13   1
M  END
>  <UniqueID>  (4) 
4

>  <SMILES>  (4) 
CCONCCCCNc1c2c([n+](C)c3ccccc13)-c1ccccc1C2

>  <Energy>  (4) 
88.29050149050171

>  <Genealogy>  (4) 
CCONCCCCNc1c2c([n+](C)c3ccccc13)-c1ccccc1C2 (3D coordinates assigned)
CCONCCCCNc1c2c([n+](C)c3ccccc13)-c1ccccc1C2 (nonaromatic ring conformer: 88.29050149050171 kcal/mol)

>  <smiles>  (4) 
CCONCCCCNc1c2c([n+](C)c3ccccc13)-c1ccccc1C2

>  <score_type>  (4) 
oracle

>  <origin>  (4) 
adg

>  <m_score__min__energy>  (4) 
-6.9699999999999998

>  <m_primary>  (4) 
energy

$$$$
4:0
     RDKit          3D

 47 49  0  0  0  0  0  0  0  0999 V2000
   63.7750   33.4310   47.6970 C   0  0  0  0  0  0  0  0  0  0  0  0
   63.3600   32.0580   47.1620 C   0  0  0  0  0  0  0  0  0  0  0  0
   62.2950   31.4370   47.9650 N   0  0  0  0  0  0  0  0  0  0  0  0
   62.5390   31.5680   49.4080 C   0  0  0  0  0  0  0  0  0  0  0  0
   61.2290   31.3990   50.1800 C   0  0  0  0  0  0  0  0  0  0  0  0
   60.1200   32.0680   49.4800 N   0  0  0  0  0  0  0  0  0  0  0  0
   60.0290   33.5100   49.7840 C   0  0  0  0  0  0  0  0  0  0  0  0
   60.5810   34.3920   48.6510 C   0  0  0  0  0  0  0  0  0  0  0  0
   60.5910   33.6810   47.3720 N   0  0  0  0  0  0  0  0  0  0  0  0
   59.4330   33.4890   46.5290 C   0  0  0  0  0  0  0  0  0  0  0  0
   58.7640   34.5800   45.9420 C   0  0  0  0  0  0  0  0  0  0  0  0
   57.6480   34.3770   45.1270 C   0  0  0  0  0  0  0  0  0  0  0  0
   57.1790   33.0860   44.8830 C   0  0  0  0  0  0  0  0  0  0  0  0
   57.8280   31.9790   45.4560 C   0  0  0  0  0  0  0  0  0  0  0  0
   57.3890   30.6630   45.2280 C   0  0  0  0  0  0  0  0  0  0  0  0
   56.3820   30.4430   44.4970 O   0  0  0  0  0  0  0  0  0  0  0  0
   58.0820   29.5940   45.8210 C   0  0  0  0  0  0  0  0  0  0  0  0
   57.6960   28.2540   45.6320 C   0  0  0  0  0  0  0  0  0  0  0  0
   58.4190   27.2230   46.2420 C   0  0  0  0  0  0  0  0  0  0  0  0
   59.5260   27.5180   47.0410 C   0  0  0  0  0  0  0  0  0  0  0  0
   59.9180   28.8460   47.2350 C   0  0  0  0  0  0  0  0  0  0  0  0
   59.2030   29.8850   46.6300 C   0  0  0  0  0  0  0  0  0  0  0  0
   59.5860   31.1420   46.8240 O   0  0  0  0  0  0  0  0  0  0  0  0
   58.9600   32.1840   46.2840 C   0  0  0  0  0  0  0  0  0  0  0  0
   63.7695   33.4129   48.7968 H   0  0  0  0  0  0  0  0  0  0  0  0
   64.7866   33.6735   47.3393 H   0  0  0  0  0  0  0  0  0  0  0  0
   63.0671   34.1932   47.3393 H   0  0  0  0  0  0  0  0  0  0  0  0
   62.9994   32.1763   46.1295 H   0  0  0  0  0  0  0  0  0  0  0  0
   64.2408   31.4009   47.2109 H   0  0  0  0  0  0  0  0  0  0  0  0
   61.3780   31.8830   47.7300 H   0  0  0  0  0  0  0  0  0  0  0  0
   63.2524   30.7943   49.7281 H   0  0  0  0  0  0  0  0  0  0  0  0
   62.9523   32.5664   49.6142 H   0  0  0  0  0  0  0  0  0  0  0  0
   61.0016   30.3269   50.2742 H   0  0  0  0  0  0  0  0  0  0  0  0
   61.3444   31.8546   51.1745 H   0  0  0  0  0  0  0  0  0  0  0  0
   60.2270   31.9160   48.4500 H   0  0  0  0  0  0  0  0  0  0  0  0
   58.9726   33.7689   49.9486 H   0  0  0  0  0  0  0  0  0  0  0  0
   60.6388   33.6997   50.6796 H   0  0  0  0  0  0  0  0  0  0  0  0
   59.9502   35.2882   48.5565 H   0  0  0  0  0  0  0  0  0  0  0  0
   61.6167   34.6656   48.9010 H   0  0  0  0  0  0  0  0  0  0  0  0
   61.5130   33.3080   47.0540 H   0  0  0  0  0  0  0  0  0  0  0  0
   59.1240   35.6028   46.1272 H   0  0  0  0  0  0  0  0  0  0  0  0
   57.1363   35.2395   44.6752 H   0  0  0  0  0  0  0  0  0  0  0  0
   56.2991   32.9342   44.2406 H   0  0  0  0  0  0  0  0  0  0  0  0
   56.8247   28.0168   45.0039 H   0  0  0  0  0  0  0  0  0  0  0  0
   58.1146   26.1767   46.0918 H   0  0  0  0  0  0  0  0  0  0  0  0
   60.0907   26.7038   47.5187 H   0  0  0  0  0  0  0  0  0  0  0  0
   60.7905   29.0743   47.8647 H   0  0  0  0  0  0  0  0  0  0  0  0
  1  2  1  0
  2  3  1  0
  3  4  1  0
  4  5  1  0
  5  6  1  0
  6  7  1  0
  7  8  1  0
  8  9  1  0
  9 10  1  0
 10 11  2  0
 11 12  1  0
 12 13  2  0
 13 14  1  0
 14 15  1  0
 15 16  2  0
 15 17  1  0
 17 18  2  0
 18 19  1  0
 19 20  2  0
 20 21  1  0
 21 22  2  0
 22 23  1  0
 23 24  1  0
 24 10  1  0
 24 14  2  0
 22 17  1  0
  1 25  1  0
  1 26  1  0
  1 27  1  0
  2 28  1  0
  2 29  1  0
  3 30  1  0
  4 31  1  0
  4 32  1  0
  5 33  1  0
  5 34  1  0
  6 35  1  0
  7 36  1  0
  7 37  1  0
  8 38  1  0
  8 39  1  0
  9 40  1  0
 11 41  1  0
 12 42  1  0
 13 43  1  0
 18 44  1  0
 19 45  1  0
 20 46  1  0
 21 47  1  0
M  END
>  <UniqueID>  (5) 
5

>  <SMILES>  (5) 
CCNCCNCCNc1cccc2c(=O)c3ccccc3oc12

>  <Energy>  (5) 
53.679365358201416

>  <Genealogy>  (5) 
CCNCCNCCNc1cccc2c(=O)c3ccccc3oc12 (3D coordinates assigned)
CCNCCNCCNc1cccc2c(=O)c3ccccc3oc12 (optimized conformer: 53.679365358201416 kcal/mol)

>  <smiles>  (5) 
CCNCCNCCNc1cccc2c(=O)c3ccccc3oc12

>  <score_type>  (5) 
oracle

>  <origin>  (5) 
adg

>  <m_score__min__energy>  (5) 
-7.3600000000000003

>  <m_primary>  (5) 
energy

$$$$
5:0
     RDKit          3D

 40 41  0  0  0  0  0  0  0  0999 V2000
   57.1130   28.9430   45.6350 C   0  0  0  0  0  0  0  0  0  0  0  0
   56.8020   30.1820   44.9080 N   0  0  0  0  0  0  0  0  0  0  0  0
   55.5160   30.0770   44.2010 C   0  0  0  0  0  0  0  0  0  0  0  0
   57.9080   30.6330   44.0330 C   0  0  0  0  0  0  0  0  0  0  0  0
   57.5170   31.7390   43.0300 C   0  0  0  0  0  0  0  0  0  0  0  0
   58.0810   33.0910   43.4650 C   0  0  0  0  0  0  0  0  0  0  0  0
   57.0500   33.7930   44.7950 S   0  0  0  0  0  0  0  0  0  0  0  0
   58.1170   33.1800   46.1010 C   0  0  0  0  0  0  0  0  0  0  0  0
   57.8660   32.0660   46.8090 N   0  0  0  0  0  0  0  0  0  0  0  0
   58.8490   31.9050   47.6800 N   0  0  0  0  0  0  0  0  0  0  0  0
   59.7060   32.9310   47.4830 C   0  0  0  0  0  0  0  0  0  0  0  0
   60.9470   33.0980   48.2700 C   0  0  0  0  0  0  0  0  0  0  0  0
   62.1790   32.7170   47.7100 C   0  0  0  0  0  0  0  0  0  0  0  0
   63.3630   32.8820   48.4340 C   0  0  0  0  0  0  0  0  0  0  0  0
   63.3310   33.4400   49.7150 C   0  0  0  0  0  0  0  0  0  0  0  0
   62.1140   33.8430   50.2700 C   0  0  0  0  0  0  0  0  0  0  0  0
   60.9270   33.6800   49.5490 C   0  0  0  0  0  0  0  0  0  0  0  0
   59.2630   33.7620   46.5080 N   0  0  0  0  0  0  0  0  0  0  0  0
   59.8590   34.9990   46.0050 C   0  0  0  0  0  0  0  0  0  0  0  0
   57.0657   29.1314   46.7177 H   0  0  0  0  0  0  0  0  0  0  0  0
   56.3819   28.1665   45.3657 H   0  0  0  0  0  0  0  0  0  0  0  0
   58.1241   28.6038   45.3657 H   0  0  0  0  0  0  0  0  0  0  0  0
   54.6988   30.0103   44.9343 H   0  0  0  0  0  0  0  0  0  0  0  0
   55.3708   30.9663   43.5701 H   0  0  0  0  0  0  0  0  0  0  0  0
   55.5169   29.1759   43.5701 H   0  0  0  0  0  0  0  0  0  0  0  0
   58.7168   31.0179   44.6715 H   0  0  0  0  0  0  0  0  0  0  0  0
   58.2115   29.7606   43.4357 H   0  0  0  0  0  0  0  0  0  0  0  0
   57.9173   31.4838   42.0377 H   0  0  0  0  0  0  0  0  0  0  0  0
   56.4199   31.8101   42.9939 H   0  0  0  0  0  0  0  0  0  0  0  0
   59.1090   32.9564   43.8326 H   0  0  0  0  0  0  0  0  0  0  0  0
   58.0810   33.7775   42.6055 H   0  0  0  0  0  0  0  0  0  0  0  0
   57.0480   31.4270   46.7070 H   0  0  0  0  0  0  0  0  0  0  0  0
   62.2112   32.2873   46.6979 H   0  0  0  0  0  0  0  0  0  0  0  0
   64.3225   32.5719   47.9945 H   0  0  0  0  0  0  0  0  0  0  0  0
   64.2634   33.5618   50.2858 H   0  0  0  0  0  0  0  0  0  0  0  0
   62.0894   34.2890   51.2752 H   0  0  0  0  0  0  0  0  0  0  0  0
   59.9724   34.0091   49.9853 H   0  0  0  0  0  0  0  0  0  0  0  0
   60.1633   35.6305   46.8527 H   0  0  0  0  0  0  0  0  0  0  0  0
   60.7401   34.7586   45.3920 H   0  0  0  0  0  0  0  0  0  0  0  0
   59.1219   35.5383   45.3920 H   0  0  0  0  0  0  0  0  0  0  0  0
  1  2  1  0
  2  3  1  0
  2  4  1  0
  4  5  1  0
  5  6  1  0
  6  7  1  0
  7  8  1  0
  8  9  2  0
  9 10  1  0
 10 11  2  0
 11 12  1  0
 12 13  2  0
 13 14  1  0
 14 15  2  0
 15 16  1  0
 16 17  2  0
 11 18  1  0
 18 19  1  0
 18  8  1  0
 17 12  1  0
  1 20  1  0
  1 21  1  0
  1 22  1  0
  3 23  1  0
  3 24  1  0
  3 25  1  0
  4 26  1  0
  4 27  1  0
  5 28  1  0
  5 29  1  0
  6 30  1  0
  6 31  1  0
  9 32  1  0
 13 33  1  0
 14 34  1  0
 15 35  1  0
 16 36  1  0
 17 37  1  0
 19 38  1  0
 19 39  1  0
 19 40  1  0
M  CHG  1   9   1
M  END
>  <UniqueID>  (6) 
6

>  <SMILES>  (6) 
CN(C)CCCSc1[nH+]nc(-c2ccccc2)n1C

>  <Energy>  (6) 
74.27441308157667

>  <Genealogy>  (6) 
CN(C)CCCSc1[nH+]nc(-c2ccccc2)n1C (protonated)
CN(C)CCCSc1[nH+]nc(-c2ccccc2)n1C (3D coordinates assigned)
CN(C)CCCSc1[nH+]nc(-c2ccccc2)n1C (optimized conformer: 74.27441308157667 kcal/mol)

>  <smiles>  (6) 
CN(C)CCCSc1nnc(-c2ccccc2)n1C

>  <score_type>  (6) 
oracle

>  <origin>  (6) 
adg

>  <m_score__min__energy>  (6) 
-5.6200000000000001

>  <m_primary>  (6) 
energy

$$$$
6:0
     RDKit          3D

 44 46  0  0  0  0  0  0  0  0999 V2000
   60.0020   30.0360   46.0720 C   0  0  0  0  0  0  0  0  0  0  0  0
   58.5010   30.0010   46.3570 C   0  0  0  0  0  0  0  0  0  0  0  0
   57.6790   29.8990   45.0690 C   0  0  0  0  0  0  0  0  0  0  0  0
   56.9160   31.1350   44.8500 N   0  0  0  0  0  0  0  0  0  0  0  0
   57.7170   32.1550   44.1600 C   0  0  0  0  0  0  0  0  0  0  0  0
   57.4500   33.5560   44.7320 C   0  0  0  0  0  0  0  0  0  0  0  0
   58.7020   34.2400   45.3110 C   0  0  0  0  0  0  0  0  0  0  0  0
   59.1410   33.6190   46.6280 C   0  0  0  0  0  0  0  0  0  0  0  0
   58.1200   33.2070   47.4960 C   0  0  0  0  0  0  0  0  0  0  0  0
   58.4110   32.6580   48.7350 C   0  0  0  0  0  0  0  0  0  0  0  0
   59.7290   32.5110   49.1480 C   0  0  0  0  0  0  0  0  0  0  0  0
   60.8040   32.9150   48.3220 C   0  0  0  0  0  0  0  0  0  0  0  0
   60.5020   33.4760   47.0390 C   0  0  0  0  0  0  0  0  0  0  0  0
   61.5680   33.8760   46.2080 C   0  0  0  0  0  0  0  0  0  0  0  0
   62.8890   33.7420   46.6140 C   0  0  0  0  0  0  0  0  0  0  0  0
   63.2040   33.2020   47.8590 C   0  0  0  0  0  0  0  0  0  0  0  0
   64.5150   33.0850   48.2270 N   0  0  0  0  0  0  0  0  0  0  0  0
   64.8780   32.5650   49.4280 C   0  0  0  0  0  0  0  0  0  0  0  0
   66.0980   32.4710   49.7330 O   0  0  0  0  0  0  0  0  0  0  0  0
   63.9050   32.1330   50.3230 C   0  0  0  0  0  0  0  0  0  0  0  0
   62.5580   32.2380   49.9810 C   0  0  0  0  0  0  0  0  0  0  0  0
   62.1690   32.7780   48.7330 C   0  0  0  0  0  0  0  0  0  0  0  0
   60.5555   30.0489   47.0225 H   0  0  0  0  0  0  0  0  0  0  0  0
   60.2864   29.1442   45.4942 H   0  0  0  0  0  0  0  0  0  0  0  0
   60.2445   30.9400   45.4942 H   0  0  0  0  0  0  0  0  0  0  0  0
   58.2793   29.1296   46.9907 H   0  0  0  0  0  0  0  0  0  0  0  0
   58.2275   30.9384   46.8634 H   0  0  0  0  0  0  0  0  0  0  0  0
   58.3569   29.7358   44.2182 H   0  0  0  0  0  0  0  0  0  0  0  0
   56.9768   29.0571   45.1592 H   0  0  0  0  0  0  0  0  0  0  0  0
   56.6560   31.5160   45.7910 H   0  0  0  0  0  0  0  0  0  0  0  0
   58.7837   31.9156   44.2817 H   0  0  0  0  0  0  0  0  0  0  0  0
   57.4370   32.1552   43.0962 H   0  0  0  0  0  0  0  0  0  0  0  0
   57.0503   34.1892   43.9262 H   0  0  0  0  0  0  0  0  0  0  0  0
   56.7394   33.4328   45.5625 H   0  0  0  0  0  0  0  0  0  0  0  0
   59.5233   34.1478   44.5851 H   0  0  0  0  0  0  0  0  0  0  0  0
   58.4520   35.2940   45.5023 H   0  0  0  0  0  0  0  0  0  0  0  0
   57.0701   33.3214   47.1885 H   0  0  0  0  0  0  0  0  0  0  0  0
   57.5925   32.3365   49.3958 H   0  0  0  0  0  0  0  0  0  0  0  0
   59.9405   32.0728   50.1345 H   0  0  0  0  0  0  0  0  0  0  0  0
   61.3490   34.3028   45.2181 H   0  0  0  0  0  0  0  0  0  0  0  0
   63.6981   34.0667   45.9433 H   0  0  0  0  0  0  0  0  0  0  0  0
   65.2690   33.4020   47.5730 H   0  0  0  0  0  0  0  0  0  0  0  0
   64.1971   31.7106   51.2958 H   0  0  0  0  0  0  0  0  0  0  0  0
   61.7888   31.8971   50.6896 H   0  0  0  0  0  0  0  0  0  0  0  0
  1  2  1  0
  2  3  1  0
  3  4  1  0
  4  5  1  0
  5  6  1  0
  6  7  1  0
  7  8  1  0
  8  9  2  0
  9 10  1  0
 10 11  2  0
 11 12  1  0
 12 13  2  0
 13 14  1  0
 14 15  2  0
 15 16  1  0
 16 17  1  0
 17 18  1  0
 18 19  2  0
 18 20  1  0
 20 21  2  0
 21 22  1  0
 13  8  1  0
 22 16  2  0
 22 12  1  0
  1 23  1  0
  1 24  1  0
  1 25  1  0
  2 26  1  0
  2 27  1  0
  3 28  1  0
  3 29  1  0
  4 30  1  0
  5 31  1  0
  5 32  1  0
  6 33  1  0
  6 34  1  0
  7 35  1  0
  7 36  1  0
  9 37  1  0
 10 38  1  0
 11 39  1  0
 14 40  1  0
 15 41  1  0
 17 42  1  0
 20 43  1  0
 21 44  1  0
M  END
>  <UniqueID>  (7) 
7

>  <SMILES>  (7) 
CCCNCCCc1cccc2c1ccc1[nH]c(=O)ccc12

>  <Energy>  (7) 
52.63572605908007

>  <Genealogy>  (7) 
CCCNCCCc1cccc2c1ccc1[nH]c(=O)ccc12 (3D coordinates assigned)
CCCNCCCc1cccc2c1ccc1[nH]c(=O)ccc12 (optimized conformer: 52.63572605908007 kcal/mol)

>  <smiles>  (7) 
CCCNCCCc1cccc2c1ccc1[nH]c(=O)ccc12

>  <score_type>  (7) 
oracle

>  <origin>  (7) 
adg

>  <m_score__min__energy>  (7) 
-7.8200000000000003

>  <m_primary>  (7) 
energy

$$$$
7:0
     RDKit          3D

 43 45  0  0  0  0  0  0  0  0999 V2000
   56.3340   29.6670   42.6480 C   0  0  0  0  0  0  0  0  0  0  0  0
   55.7020   29.7730   44.0310 C   0  0  0  0  0  0  0  0  0  0  0  0
   56.3460   30.7800   44.7860 O   0  0  0  0  0  0  0  0  0  0  0  0
   57.4020   31.3600   44.0490 C   0  0  0  0  0  0  0  0  0  0  0  0
   58.2850   32.1970   44.9810 C   0  0  0  0  0  0  0  0  0  0  0  0
   57.8830   32.1180   46.4020 N   0  0  0  0  0  0  0  0  0  0  0  0
   58.9190   31.5430   47.2550 C   0  0  0  0  0  0  0  0  0  0  0  0
   59.8330   32.3680   47.9730 C   0  0  0  0  0  0  0  0  0  0  0  0
   59.8340   33.7830   47.8520 C   0  0  0  0  0  0  0  0  0  0  0  0
   60.7820   34.5650   48.5060 C   0  0  0  0  0  0  0  0  0  0  0  0
   61.7570   33.9690   49.2880 C   0  0  0  0  0  0  0  0  0  0  0  0
   61.7710   32.5890   49.4510 C   0  0  0  0  0  0  0  0  0  0  0  0
   60.7930   31.7630   48.8360 C   0  0  0  0  0  0  0  0  0  0  0  0
   60.7770   30.4020   49.0530 N   0  0  0  0  0  0  0  0  0  0  0  0
   61.5360   29.8250   50.1870 C   0  0  0  0  0  0  0  0  0  0  0  0
   60.0310   29.5780   48.2380 C   0  0  0  0  0  0  0  0  0  0  0  0
   60.2210   28.1720   48.2430 C   0  0  0  0  0  0  0  0  0  0  0  0
   59.4240   27.3310   47.4730 C   0  0  0  0  0  0  0  0  0  0  0  0
   58.4270   27.8630   46.6700 C   0  0  0  0  0  0  0  0  0  0  0  0
   57.3280   26.7010   45.6240 Br  0  0  0  0  0  0  0  0  0  0  0  0
   58.2430   29.2420   46.6070 C   0  0  0  0  0  0  0  0  0  0  0  0
   59.0560   30.1290   47.3590 C   0  0  0  0  0  0  0  0  0  0  0  0
   57.4140   29.4859   42.7513 H   0  0  0  0  0  0  0  0  0  0  0  0
   55.8735   28.8336   42.0973 H   0  0  0  0  0  0  0  0  0  0  0  0
   56.1706   30.6051   42.0973 H   0  0  0  0  0  0  0  0  0  0  0  0
   54.6362   30.0237   43.9252 H   0  0  0  0  0  0  0  0  0  0  0  0
   55.8113   28.8096   44.5505 H   0  0  0  0  0  0  0  0  0  0  0  0
   58.0069   30.5645   43.5893 H   0  0  0  0  0  0  0  0  0  0  0  0
   56.9849   32.0079   43.2640 H   0  0  0  0  0  0  0  0  0  0  0  0
   59.3217   31.8402   44.8920 H   0  0  0  0  0  0  0  0  0  0  0  0
   58.1776   33.2472   44.6720 H   0  0  0  0  0  0  0  0  0  0  0  0
   57.5400   33.0400   46.7370 H   0  0  0  0  0  0  0  0  0  0  0  0
   57.0210   31.5330   46.4770 H   0  0  0  0  0  0  0  0  0  0  0  0
   59.0701   34.2710   47.2288 H   0  0  0  0  0  0  0  0  0  0  0  0
   60.7565   35.6597   48.4012 H   0  0  0  0  0  0  0  0  0  0  0  0
   62.5210   34.5884   49.7806 H   0  0  0  0  0  0  0  0  0  0  0  0
   62.5553   32.1272   50.0687 H   0  0  0  0  0  0  0  0  0  0  0  0
   61.0919   30.1626   51.1351 H   0  0  0  0  0  0  0  0  0  0  0  0
   61.4963   28.7270   50.1340 H   0  0  0  0  0  0  0  0  0  0  0  0
   62.5834   30.1570   50.1340 H   0  0  0  0  0  0  0  0  0  0  0  0
   61.0149   27.7379   48.8686 H   0  0  0  0  0  0  0  0  0  0  0  0
   59.5850   26.2432   47.5013 H   0  0  0  0  0  0  0  0  0  0  0  0
   57.4519   29.6516   45.9616 H   0  0  0  0  0  0  0  0  0  0  0  0
  1  2  1  0
  2  3  1  0
  3  4  1  0
  4  5  1  0
  5  6  1  0
  6  7  1  0
  7  8  2  0
  8  9  1  0
  9 10  2  0
 10 11  1  0
 11 12  2  0
 12 13  1  0
 13 14  2  0
 14 15  1  0
 14 16  1  0
 16 17  2  0
 17 18  1  0
 18 19  2  0
 19 20  1  0
 19 21  1  0
 21 22  2  0
 22  7  1  0
 13  8  1  0
 22 16  1  0
  1 23  1  0
  1 24  1  0
  1 25  1  0
  2 26  1  0
  2 27  1  0
  4 28  1  0
  4 29  1  0
  5 30  1  0
  5 31  1  0
  6 32  1  0
  6 33  1  0
  9 34  1  0
 10 35  1  0
 11 36  1  0
 12 37  1  0
 15 38  1  0
 15 39  1  0
 15 40  1  0
 17 41  1  0
 18 42  1  0
 21 43  1  0
M  CHG  2   6   1  14   1
M  END
>  <UniqueID>  (8) 
8

>  <SMILES>  (8) 
CCOCC[NH2+]c1c2ccccc2[n+](C)c2ccc(Br)cc12

>  <Energy>  (8) 
72.35881070350825

>  <Genealogy>  (8) 
CCOCC[NH2+]c1c2ccccc2[n+](C)c2ccc(Br)cc12 (protonated)
CCOCC[NH2+]c1c2ccccc2[n+](C)c2ccc(Br)cc12 (3D coordinates assigned)
CCOCC[NH2+]c1c2ccccc2[n+](C)c2ccc(Br)cc12 (optimized conformer: 72.35881070350825 kcal/mol)

>  <smiles>  (8) 
CCOCCNc1c2ccccc2[n+](C)c2ccc(Br)cc12

>  <score_type>  (8) 
oracle

>  <origin>  (8) 
adg

>  <m_score__min__energy>  (8) 
-4.0199999999999996

>  <m_primary>  (8) 
energy

$$$$
8:0
     RDKit          3D

 40 41  0  0  0  0  0  0  0  0999 V2000
   56.2700   30.1000   42.9210 C   0  0  0  0  0  0  0  0  0  0  0  0
   57.5440   30.3170   43.7210 C   0  0  0  0  0  0  0  0  0  0  0  0
   57.2360   30.9790   44.9460 O   0  0  0  0  0  0  0  0  0  0  0  0
   57.7920   32.2040   45.3470 C   0  0  0  0  0  0  0  0  0  0  0  0
   57.8930   33.3030   44.4700 C   0  0  0  0  0  0  0  0  0  0  0  0
   58.4710   34.4980   44.9000 C   0  0  0  0  0  0  0  0  0  0  0  0
   58.9550   34.6120   46.2030 C   0  0  0  0  0  0  0  0  0  0  0  0
   58.8570   33.5330   47.0840 C   0  0  0  0  0  0  0  0  0  0  0  0
   58.2690   32.3230   46.6640 C   0  0  0  0  0  0  0  0  0  0  0  0
   58.1410   31.2190   47.5190 O   0  0  0  0  0  0  0  0  0  0  0  0
   59.1900   30.6890   48.3250 C   0  0  0  0  0  0  0  0  0  0  0  0
   59.6630   29.3610   47.7390 C   0  0  0  0  0  0  0  0  0  0  0  0
   58.6230   28.7800   46.8920 N   0  0  0  0  0  0  0  0  0  0  0  0
   58.7170   27.4280   46.4190 C   0  0  0  0  0  0  0  0  0  0  0  0
   59.9620   26.7830   46.4760 C   0  0  0  0  0  0  0  0  0  0  0  0
   60.0860   25.4450   46.0990 C   0  0  0  0  0  0  0  0  0  0  0  0
   58.9690   24.7410   45.6520 C   0  0  0  0  0  0  0  0  0  0  0  0
   57.7260   25.3740   45.5740 C   0  0  0  0  0  0  0  0  0  0  0  0
   57.5850   26.7260   45.9390 C   0  0  0  0  0  0  0  0  0  0  0  0
   56.3140   27.3790   45.7690 N   0  0  0  0  0  0  0  0  0  0  0  0
   56.2630   28.6000   45.5130 O   0  0  0  0  0  0  0  0  0  0  0  0
   55.1420   26.7070   46.0290 O   0  0  0  0  0  0  0  0  0  0  0  0
   55.4245   29.9560   43.6098 H   0  0  0  0  0  0  0  0  0  0  0  0
   56.0809   30.9789   42.2871 H   0  0  0  0  0  0  0  0  0  0  0  0
   56.3825   29.2081   42.2871 H   0  0  0  0  0  0  0  0  0  0  0  0
   58.0095   29.3443   43.9381 H   0  0  0  0  0  0  0  0  0  0  0  0
   58.2395   30.9374   43.1368 H   0  0  0  0  0  0  0  0  0  0  0  0
   57.5140   33.2181   43.4408 H   0  0  0  0  0  0  0  0  0  0  0  0
   58.5450   35.3516   44.2101 H   0  0  0  0  0  0  0  0  0  0  0  0
   59.4148   35.5537   46.5374 H   0  0  0  0  0  0  0  0  0  0  0  0
   59.2405   33.6279   48.1106 H   0  0  0  0  0  0  0  0  0  0  0  0
   60.0296   31.3994   48.3472 H   0  0  0  0  0  0  0  0  0  0  0  0
   58.8191   30.5263   49.3477 H   0  0  0  0  0  0  0  0  0  0  0  0
   60.5676   29.5319   47.1369 H   0  0  0  0  0  0  0  0  0  0  0  0
   59.8834   28.6654   48.5622 H   0  0  0  0  0  0  0  0  0  0  0  0
   58.0630   29.4500   46.3160 H   0  0  0  0  0  0  0  0  0  0  0  0
   60.8477   27.3367   46.8208 H   0  0  0  0  0  0  0  0  0  0  0  0
   61.0648   24.9461   46.1546 H   0  0  0  0  0  0  0  0  0  0  0  0
   59.0664   23.6849   45.3601 H   0  0  0  0  0  0  0  0  0  0  0  0
   56.8488   24.8102   45.2239 H   0  0  0  0  0  0  0  0  0  0  0  0
  1  2  1  0
  2  3  1  0
  3  4  1  0
  4  5  2  0
  5  6  1  0
  6  7  2  0
  7  8  1  0
  8  9  2  0
  9 10  1  0
 10 11  1  0
 11 12  1  0
 12 13  1  0
 13 14  1  0
 14 15  2  0
 15 16  1  0
 16 17  2  0
 17 18  1  0
 18 19  2  0
 19 20  1  0
 20 21  2  0
 20 22  1  0
  9  4  1  0
 19 14  1  0
  1 23  1  0
  1 24  1  0
  1 25  1  0
  2 26  1  0
  2 27  1  0
  5 28  1  0
  6 29  1  0
  7 30  1  0
  8 31  1  0
 11 32  1  0
 11 33  1  0
 12 34  1  0
 12 35  1  0
 13 36  1  0
 15 37  1  0
 16 38  1  0
 17 39  1  0
 18 40  1  0
M  CHG  2  20   1  22  -1
M  END
>  <UniqueID>  (9) 
9

>  <SMILES>  (9) 
CCOc1ccccc1OCCNc1ccccc1[N+](=O)[O-]

>  <Energy>  (9) 
39.59092477082368

>  <Genealogy>  (9) 
CCOc1ccccc1OCCNc1ccccc1[N+](=O)[O-] (3D coordinates assigned)
CCOc1ccccc1OCCNc1ccccc1[N+](=O)[O-] (optimized conformer: 39.59092477082368 kcal/mol)

>  <smiles>  (9) 
CCOc1ccccc1OCCNc1ccccc1[N+](=O)[O-]

>  <score_type>  (9) 
oracle

>  <origin>  (9) 
adg

>  <m_score__min__energy>  (9) 
-7.8200000000000003

>  <m_primary>  (9) 
energy

$$$$
9:0
     RDKit          3D

 53 56  0  0  0  0  0  0  0  0999 V2000
   63.5050   33.3200   47.0560 C   0  0  0  0  0  0  0  0  0  0  0  0
   63.1670   32.4290   48.2490 C   0  0  0  0  0  0  0  0  0  0  0  0
   61.8880   31.7260   48.0290 N   0  0  0  0  0  0  0  0  0  0  0  0
   61.7910   30.9690   46.8810 C   0  0  0  0  0  0  0  0  0  0  0  0
   60.6170   30.2900   46.6250 C   0  0  0  0  0  0  0  0  0  0  0  0
   60.1880   29.4330   45.6460 C   0  0  0  0  0  0  0  0  0  0  0  0
   60.8590   29.0480   44.6500 O   0  0  0  0  0  0  0  0  0  0  0  0
   58.9240   29.0350   45.9280 N   0  0  0  0  0  0  0  0  0  0  0  0
   58.1450   28.0420   45.1910 C   0  0  0  0  0  0  0  0  0  0  0  0
   56.6740   28.0820   45.6130 C   0  0  0  0  0  0  0  0  0  0  0  0
   56.0230   29.2890   45.0770 N   0  0  0  0  0  0  0  0  0  0  0  0
   56.6160   29.7110   43.8000 C   0  0  0  0  0  0  0  0  0  0  0  0
   57.0460   31.1780   43.8770 C   0  0  0  0  0  0  0  0  0  0  0  0
   57.4090   31.5550   45.2430 N   0  0  0  0  0  0  0  0  0  0  0  0
   58.1290   32.7510   45.6020 C   0  0  0  0  0  0  0  0  0  0  0  0
   58.8910   33.4750   44.6630 C   0  0  0  0  0  0  0  0  0  0  0  0
   59.5730   34.6330   45.0490 C   0  0  0  0  0  0  0  0  0  0  0  0
   59.4990   35.0840   46.3690 C   0  0  0  0  0  0  0  0  0  0  0  0
   58.7410   34.3790   47.3060 C   0  0  0  0  0  0  0  0  0  0  0  0
   58.0570   33.2200   46.9250 C   0  0  0  0  0  0  0  0  0  0  0  0
   58.5090   29.5860   47.0680 N   0  0  0  0  0  0  0  0  0  0  0  0
   59.5160   30.3620   47.5180 C   0  0  0  0  0  0  0  0  0  0  0  0
   59.5930   31.1220   48.6730 C   0  0  0  0  0  0  0  0  0  0  0  0
   58.5180   31.1980   49.5700 C   0  0  0  0  0  0  0  0  0  0  0  0
   58.6230   31.9850   50.7150 C   0  0  0  0  0  0  0  0  0  0  0  0
   57.5820   32.0610   51.5820 F   0  0  0  0  0  0  0  0  0  0  0  0
   59.7930   32.7000   50.9680 C   0  0  0  0  0  0  0  0  0  0  0  0
   60.8760   32.6290   50.0860 C   0  0  0  0  0  0  0  0  0  0  0  0
   60.8130   31.8300   48.9190 C   0  0  0  0  0  0  0  0  0  0  0  0
   63.8736   34.2916   47.4168 H   0  0  0  0  0  0  0  0  0  0  0  0
   64.2822   32.8366   46.4459 H   0  0  0  0  0  0  0  0  0  0  0  0
   62.6027   33.4737   46.4459 H   0  0  0  0  0  0  0  0  0  0  0  0
   63.9681   31.6874   48.3843 H   0  0  0  0  0  0  0  0  0  0  0  0
   63.0747   33.0589   49.1461 H   0  0  0  0  0  0  0  0  0  0  0  0
   62.6363   30.9071   46.1798 H   0  0  0  0  0  0  0  0  0  0  0  0
   58.2170   28.2541   44.1141 H   0  0  0  0  0  0  0  0  0  0  0  0
   58.5481   27.0428   45.4125 H   0  0  0  0  0  0  0  0  0  0  0  0
   56.1605   27.1898   45.2252 H   0  0  0  0  0  0  0  0  0  0  0  0
   56.6165   28.1013   46.7113 H   0  0  0  0  0  0  0  0  0  0  0  0
   56.1570   30.0690   45.7650 H   0  0  0  0  0  0  0  0  0  0  0  0
   57.4945   29.0856   43.5829 H   0  0  0  0  0  0  0  0  0  0  0  0
   55.8680   29.5973   43.0015 H   0  0  0  0  0  0  0  0  0  0  0  0
   57.9149   31.3316   43.2201 H   0  0  0  0  0  0  0  0  0  0  0  0
   56.2004   31.8047   43.5572 H   0  0  0  0  0  0  0  0  0  0  0  0
   57.1250   30.8990   46.0070 H   0  0  0  0  0  0  0  0  0  0  0  0
   58.9495   33.1272   43.6211 H   0  0  0  0  0  0  0  0  0  0  0  0
   60.1692   35.1902   44.3114 H   0  0  0  0  0  0  0  0  0  0  0  0
   60.0378   35.9945   46.6702 H   0  0  0  0  0  0  0  0  0  0  0  0
   58.6817   34.7355   48.3449 H   0  0  0  0  0  0  0  0  0  0  0  0
   57.4580   32.6712   47.6666 H   0  0  0  0  0  0  0  0  0  0  0  0
   57.5931   30.6371   49.3701 H   0  0  0  0  0  0  0  0  0  0  0  0
   59.8649   33.3258   51.8698 H   0  0  0  0  0  0  0  0  0  0  0  0
   61.7897   33.2021   50.3021 H   0  0  0  0  0  0  0  0  0  0  0  0
  1  2  1  0
  2  3  1  0
  3  4  1  0
  4  5  2  0
  5  6  1  0
  6  7  2  0
  6  8  1  0
  8  9  1  0
  9 10  1  0
 10 11  1  0
 11 12  1  0
 12 13  1  0
 13 14  1  0
 14 15  1  0
 15 16  2  0
 16 17  1  0
 17 18  2  0
 18 19  1  0
 19 20  2  0
  8 21  1  0
 21 22  2  0
 22 23  1  0
 23 24  2  0
 24 25  1  0
 25 26  1  0
 25 27  2  0
 27 28  1  0
 28 29  2  0
 29  3  1  0
 22  5  1  0
 29 23  1  0
 20 15  1  0
  1 30  1  0
  1 31  1  0
  1 32  1  0
  2 33  1  0
  2 34  1  0
  4 35  1  0
  9 36  1  0
  9 37  1  0
 10 38  1  0
 10 39  1  0
 11 40  1  0
 12 41  1  0
 12 42  1  0
 13 43  1  0
 13 44  1  0
 14 45  1  0
 16 46  1  0
 17 47  1  0
 18 48  1  0
 19 49  1  0
 20 50  1  0
 24 51  1  0
 27 52  1  0
 28 53  1  0
M  END
>  <UniqueID>  (10) 
10

>  <SMILES>  (10) 
CCn1cc2c(=O)n(CCNCCNc3ccccc3)nc-2c2cc(F)ccc21

>  <Energy>  (10) 
98.33915910653508

>  <Genealogy>  (10) 
CCn1cc2c(=O)n(CCNCCNc3ccccc3)nc-2c2cc(F)ccc21 (3D coordinates assigned)
CCn1cc2c(=O)n(CCNCCNc3ccccc3)nc-2c2cc(F)ccc21 (optimized conformer: 98.33915910653508 kcal/mol)

>  <smiles>  (10) 
CCn1cc2c(=O)n(CCNCCNc3ccccc3)nc-2c2cc(F)ccc21

>  <score_type>  (10) 
oracle

>  <origin>  (10) 
adg

>  <m_score__min__energy>  (10) 
-7.46

>  <m_primary>  (10) 
energy

$$$$
10:0
     RDKit          3D

 74 78  0  0  0  0  0  0  0  0999 V2000
   57.8820   32.9050   47.2440 C   0  0  0  0  0  0  0  0  0  0  0  0
   58.4180   32.0610   48.2550 O   0  0  0  0  0  0  0  0  0  0  0  0
   59.0790   32.5620   49.3840 C   0  0  0  0  0  0  0  0  0  0  0  0
   60.2370   33.3570   49.2240 C   0  0  0  0  0  0  0  0  0  0  0  0
   60.8640   33.4590   47.9250 N   0  0  0  0  0  0  0  0  0  0  0  0
   62.1880   34.0300   47.6560 C   0  0  0  0  0  0  0  0  0  0  0  0
   63.0530   33.1800   46.6970 C   0  0  0  0  0  0  0  0  0  0  0  0
   64.1380   32.4320   47.3630 N   0  0  0  0  0  0  0  0  0  0  0  0
   63.7750   31.9550   48.6810 C   0  0  0  0  0  0  0  0  0  0  0  0
   64.6710   32.0440   49.7550 C   0  0  0  0  0  0  0  0  0  0  0  0
   64.2790   31.6670   51.0390 C   0  0  0  0  0  0  0  0  0  0  0  0
   62.9920   31.1300   51.2810 C   0  0  0  0  0  0  0  0  0  0  0  0
   62.1790   30.8300   50.1590 C   0  0  0  0  0  0  0  0  0  0  0  0
   62.5490   31.3040   48.8840 C   0  0  0  0  0  0  0  0  0  0  0  0
   61.0000   30.0860   50.3400 C   0  0  0  0  0  0  0  0  0  0  0  0
   60.2480   29.6200   49.2050 N   0  0  0  0  0  0  0  0  0  0  0  0
   60.3340   28.2400   48.7130 C   0  0  0  0  0  0  0  0  0  0  0  0
   59.5990   28.0640   47.3750 C   0  0  0  0  0  0  0  0  0  0  0  0
   59.0620   29.3470   46.8650 N   0  0  0  0  0  0  0  0  0  0  0  0
   60.1140   30.0900   46.1530 C   0  0  0  0  0  0  0  0  0  0  0  0
   57.9170   29.1300   45.9630 C   0  0  0  0  0  0  0  0  0  0  0  0
   60.5990   29.7290   51.6400 C   0  0  0  0  0  0  0  0  0  0  0  0
   59.4280   28.9670   51.8470 C   0  0  0  0  0  0  0  0  0  0  0  0
   59.0580   28.5680   53.1290 C   0  0  0  0  0  0  0  0  0  0  0  0
   59.8490   28.9080   54.2180 C   0  0  0  0  0  0  0  0  0  0  0  0
   61.0050   29.6660   54.0390 C   0  0  0  0  0  0  0  0  0  0  0  0
   61.3950   30.1160   52.7510 C   0  0  0  0  0  0  0  0  0  0  0  0
   62.5320   30.8800   52.5600 N   0  0  0  0  0  0  0  0  0  0  0  0
   63.2280   31.4640   53.7290 C   0  0  0  0  0  0  0  0  0  0  0  0
   60.7740   34.0110   50.3490 C   0  0  0  0  0  0  0  0  0  0  0  0
   60.2550   33.7860   51.6230 C   0  0  0  0  0  0  0  0  0  0  0  0
   59.1610   32.9360   51.8010 C   0  0  0  0  0  0  0  0  0  0  0  0
   58.6530   32.7000   53.0880 C   0  0  0  0  0  0  0  0  0  0  0  0
   57.5430   31.8710   53.2640 C   0  0  0  0  0  0  0  0  0  0  0  0
   56.9210   31.2890   52.1580 C   0  0  0  0  0  0  0  0  0  0  0  0
   57.4110   31.5240   50.8710 C   0  0  0  0  0  0  0  0  0  0  0  0
   58.5490   32.3320   50.6750 C   0  0  0  0  0  0  0  0  0  0  0  0
   57.3485   33.7451   47.7125 H   0  0  0  0  0  0  0  0  0  0  0  0
   58.6996   33.2929   46.6187 H   0  0  0  0  0  0  0  0  0  0  0  0
   57.1833   32.3299   46.6187 H   0  0  0  0  0  0  0  0  0  0  0  0
   60.3120   33.1800   47.0830 H   0  0  0  0  0  0  0  0  0  0  0  0
   62.0516   35.0257   47.2089 H   0  0  0  0  0  0  0  0  0  0  0  0
   62.7208   34.0686   48.6176 H   0  0  0  0  0  0  0  0  0  0  0  0
   62.3970   32.4575   46.1895 H   0  0  0  0  0  0  0  0  0  0  0  0
   63.5344   33.8815   45.9997 H   0  0  0  0  0  0  0  0  0  0  0  0
   64.9620   33.0690   47.4770 H   0  0  0  0  0  0  0  0  0  0  0  0
   64.4410   31.6450   46.7420 H   0  0  0  0  0  0  0  0  0  0  0  0
   65.6924   32.4145   49.5836 H   0  0  0  0  0  0  0  0  0  0  0  0
   64.9811   31.7889   51.8770 H   0  0  0  0  0  0  0  0  0  0  0  0
   61.8652   31.1611   48.0343 H   0  0  0  0  0  0  0  0  0  0  0  0
   59.5380   30.2570   48.7790 H   0  0  0  0  0  0  0  0  0  0  0  0
   61.3930   27.9767   48.5747 H   0  0  0  0  0  0  0  0  0  0  0  0
   59.8565   27.5825   49.4544 H   0  0  0  0  0  0  0  0  0  0  0  0
   60.3017   27.6536   46.6349 H   0  0  0  0  0  0  0  0  0  0  0  0
   58.7518   27.3819   47.5394 H   0  0  0  0  0  0  0  0  0  0  0  0
   60.7860   30.5646   46.8832 H   0  0  0  0  0  0  0  0  0  0  0  0
   60.6893   29.3968   45.5218 H   0  0  0  0  0  0  0  0  0  0  0  0
   59.6531   30.8640   45.5218 H   0  0  0  0  0  0  0  0  0  0  0  0
   57.0084   28.9578   46.5587 H   0  0  0  0  0  0  0  0  0  0  0  0
   57.7767   30.0175   45.3285 H   0  0  0  0  0  0  0  0  0  0  0  0
   58.1112   28.2527   45.3285 H   0  0  0  0  0  0  0  0  0  0  0  0
   58.8021   28.6859   50.9872 H   0  0  0  0  0  0  0  0  0  0  0  0
   58.1385   27.9831   53.2788 H   0  0  0  0  0  0  0  0  0  0  0  0
   59.5621   28.5776   55.2272 H   0  0  0  0  0  0  0  0  0  0  0  0
   61.6255   29.9197   54.9111 H   0  0  0  0  0  0  0  0  0  0  0  0
   62.7731   31.0823   54.6549 H   0  0  0  0  0  0  0  0  0  0  0  0
   64.2913   31.1838   53.7003 H   0  0  0  0  0  0  0  0  0  0  0  0
   63.1367   32.5598   53.7003 H   0  0  0  0  0  0  0  0  0  0  0  0
   61.6145   34.7090   50.2210 H   0  0  0  0  0  0  0  0  0  0  0  0
   60.7099   34.2810   52.4937 H   0  0  0  0  0  0  0  0  0  0  0  0
   59.1306   33.1694   53.9606 H   0  0  0  0  0  0  0  0  0  0  0  0
   57.1581   31.6763   54.2759 H   0  0  0  0  0  0  0  0  0  0  0  0
   56.0420   30.6431   52.3004 H   0  0  0  0  0  0  0  0  0  0  0  0
   56.9047   31.0749   50.0039 H   0  0  0  0  0  0  0  0  0  0  0  0
  1  2  1  0
  2  3  1  0
  3  4  2  0
  4  5  1  0
  5  6  1  0
  6  7  1  0
  7  8  1  0
  8  9  1  0
  9 10  2  0
 10 11  1  0
 11 12  2  0
 12 13  1  0
 13 14  2  0
 13 15  1  0
 15 16  1  0
 16 17  1  0
 17 18  1  0
 18 19  1  0
 19 20  1  0
 19 21  1  0
 15 22  2  0
 22 23  1  0
 23 24  2  0
 24 25  1  0
 25 26  2  0
 26 27  1  0
 27 28  2  0
 28 29  1  0
  4 30  1  0
 30 31  2  0
 31 32  1  0
 32 33  2  0
 33 34  1  0
 34 35  2  0
 35 36  1  0
 36 37  2  0
 37  3  1  0
 14  9  1  0
 27 22  1  0
 37 32  1  0
 28 12  1  0
  1 38  1  0
  1 39  1  0
  1 40  1  0
  5 41  1  0
  6 42  1  0
  6 43  1  0
  7 44  1  0
  7 45  1  0
  8 46  1  0
  8 47  1  0
 10 48  1  0
 11 49  1  0
 14 50  1  0
 16 51  1  0
 17 52  1  0
 17 53  1  0
 18 54  1  0
 18 55  1  0
 20 56  1  0
 20 57  1  0
 20 58  1  0
 21 59  1  0
 21 60  1  0
 21 61  1  0
 23 62  1  0
 24 63  1  0
 25 64  1  0
 26 65  1  0
 29 66  1  0
 29 67  1  0
 29 68  1  0
 30 69  1  0
 31 70  1  0
 33 71  1  0
 34 72  1  0
 35 73  1  0
 36 74  1  0
M  CHG  2   8   1  28   1
M  END
>  <UniqueID>  (11) 
11

>  <SMILES>  (11) 
COc1c(NCC[NH2+]c2ccc3c(c2)c(NCCN(C)C)c2ccccc2[n+]3C)ccc2ccccc12

>  <Energy>  (11) 
109.55566496926431

>  <Genealogy>  (11) 
COc1c(NCC[NH2+]c2ccc3c(c2)c(NCCN(C)C)c2ccccc2[n+]3C)ccc2ccccc12 (protonated)
COc1c(NCC[NH2+]c2ccc3c(c2)c(NCCN(C)C)c2ccccc2[n+]3C)ccc2ccccc12 (3D coordinates assigned)
COc1c(NCC[NH2+]c2ccc3c(c2)c(NCCN(C)C)c2ccccc2[n+]3C)ccc2ccccc12 (optimized conformer: 109.55566496926431 kcal/mol)

>  <smiles>  (11) 
COc1c(NCCNc2ccc3c(c2)c(NCCN(C)C)c2ccccc2[n+]3C)ccc2ccccc12

>  <score_type>  (11) 
oracle

>  <origin>  (11) 
adg

>  <m_score__min__energy>  (11) 
-6.0300000000000002

>  <m_primary>  (11) 
energy

$$$$
11:0
     RDKit          3D

 42 44  0  0  0  0  0  0  0  0999 V2000
   58.0900   32.1790   42.2990 C   0  0  0  0  0  0  0  0  0  0  0  0
   57.0760   31.2430   42.9460 C   0  0  0  0  0  0  0  0  0  0  0  0
   57.5850   30.7480   44.2290 N   0  0  0  0  0  0  0  0  0  0  0  0
   57.9360   31.4640   45.3330 C   0  0  0  0  0  0  0  0  0  0  0  0
   57.7490   32.9530   45.4800 C   0  0  0  0  0  0  0  0  0  0  0  0
   57.9690   33.4000   46.8660 N   0  0  0  0  0  0  0  0  0  0  0  0
   58.8640   34.5650   46.9500 C   0  0  0  0  0  0  0  0  0  0  0  0
   60.0320   34.4110   45.9730 C   0  0  0  0  0  0  0  0  0  0  0  0
   61.0570   33.4580   46.5240 C   0  0  0  0  0  0  0  0  0  0  0  0
   62.4090   33.8310   46.5870 C   0  0  0  0  0  0  0  0  0  0  0  0
   63.3410   32.9480   47.1340 C   0  0  0  0  0  0  0  0  0  0  0  0
   62.9210   31.7110   47.6220 C   0  0  0  0  0  0  0  0  0  0  0  0
   61.5670   31.3750   47.5590 C   0  0  0  0  0  0  0  0  0  0  0  0
   60.6690   32.2460   47.0230 N   0  0  0  0  0  0  0  0  0  0  0  0
   58.4510   30.6980   46.3320 N   0  0  0  0  0  0  0  0  0  0  0  0
   58.4290   29.4610   45.8070 C   0  0  0  0  0  0  0  0  0  0  0  0
   58.8650   28.2800   46.4040 C   0  0  0  0  0  0  0  0  0  0  0  0
   58.7650   27.0920   45.6560 C   0  0  0  0  0  0  0  0  0  0  0  0
   58.2420   27.1150   44.3430 C   0  0  0  0  0  0  0  0  0  0  0  0
   57.8110   28.3260   43.7680 C   0  0  0  0  0  0  0  0  0  0  0  0
   57.9170   29.4840   44.5430 C   0  0  0  0  0  0  0  0  0  0  0  0
   58.6574   32.7028   43.0824 H   0  0  0  0  0  0  0  0  0  0  0  0
   58.7814   31.5949   41.6738 H   0  0  0  0  0  0  0  0  0  0  0  0
   57.5630   32.9148   41.6738 H   0  0  0  0  0  0  0  0  0  0  0  0
   56.1356   31.7880   43.1149 H   0  0  0  0  0  0  0  0  0  0  0  0
   56.9015   30.3876   42.2768 H   0  0  0  0  0  0  0  0  0  0  0  0
   58.4648   33.4679   44.8224 H   0  0  0  0  0  0  0  0  0  0  0  0
   56.7120   33.1952   45.2042 H   0  0  0  0  0  0  0  0  0  0  0  0
   58.3860   32.6160   47.4210 H   0  0  0  0  0  0  0  0  0  0  0  0
   58.2992   35.4750   46.6993 H   0  0  0  0  0  0  0  0  0  0  0  0
   59.2614   34.6371   47.9732 H   0  0  0  0  0  0  0  0  0  0  0  0
   59.6544   34.0228   45.0156 H   0  0  0  0  0  0  0  0  0  0  0  0
   60.5034   35.3937   45.8241 H   0  0  0  0  0  0  0  0  0  0  0  0
   62.7313   34.8121   46.2080 H   0  0  0  0  0  0  0  0  0  0  0  0
   64.4040   33.2270   47.1801 H   0  0  0  0  0  0  0  0  0  0  0  0
   63.6487   31.0072   48.0521 H   0  0  0  0  0  0  0  0  0  0  0  0
   61.2251   30.4029   47.9439 H   0  0  0  0  0  0  0  0  0  0  0  0
   59.6610   31.9730   46.9970 H   0  0  0  0  0  0  0  0  0  0  0  0
   59.2735   28.2762   47.4253 H   0  0  0  0  0  0  0  0  0  0  0  0
   59.0959   26.1396   46.0959 H   0  0  0  0  0  0  0  0  0  0  0  0
   58.1712   26.1808   43.7666 H   0  0  0  0  0  0  0  0  0  0  0  0
   57.4056   28.3593   42.7460 H   0  0  0  0  0  0  0  0  0  0  0  0
  1  2  1  0
  2  3  1  0
  3  4  1  0
  4  5  1  0
  5  6  1  0
  6  7  1  0
  7  8  1  0
  8  9  1  0
  9 10  2  0
 10 11  1  0
 11 12  2  0
 12 13  1  0
 13 14  2  0
  4 15  2  0
 15 16  1  0
 16 17  2  0
 17 18  1  0
 18 19  2  0
 19 20  1  0
 20 21  2  0
 21  3  1  0
 14  9  1  0
 21 16  1  0
  1 22  1  0
  1 23  1  0
  1 24  1  0
  2 25  1  0
  2 26  1  0
  5 27  1  0
  5 28  1  0
  6 29  1  0
  7 30  1  0
  7 31  1  0
  8 32  1  0
  8 33  1  0
 10 34  1  0
 11 35  1  0
 12 36  1  0
 13 37  1  0
 14 38  1  0
 17 39  1  0
 18 40  1  0
 19 41  1  0
 20 42  1  0
M  CHG  1  14   1
M  END
>  <UniqueID>  (12) 
12

>  <SMILES>  (12) 
CCn1c(CNCCc2cccc[nH+]2)nc2ccccc21

>  <Energy>  (12) 
75.69860029549594

>  <Genealogy>  (12) 
CCn1c(CNCCc2cccc[nH+]2)nc2ccccc21 (protonated)
CCn1c(CNCCc2cccc[nH+]2)nc2ccccc21 (3D coordinates assigned)
CCn1c(CNCCc2cccc[nH+]2)nc2ccccc21 (optimized conformer: 75.69860029549594 kcal/mol)

>  <smiles>  (12) 
CCn1c(CNCCc2ccccn2)nc2ccccc21

>  <score_type>  (12) 
oracle

>  <origin>  (12) 
adg

>  <m_score__min__energy>  (12) 
-6.3200000000000003

>  <m_primary>  (12) 
energy

$$$$
12:0
     RDKit          3D

 55 57  0  0  0  0  0  0  0  0999 V2000
   62.5170   34.2330   48.8070 C   0  0  0  0  0  0  0  0  0  0  0  0
   63.5350   33.6420   47.8140 C   0  0  0  0  0  0  0  0  0  0  0  0
   63.0160   33.8270   46.3810 C   0  0  0  0  0  0  0  0  0  0  0  0
   63.8060   32.2060   48.0680 N   0  0  0  0  0  0  0  0  0  0  0  0
   64.1510   31.8690   49.4650 C   0  0  0  0  0  0  0  0  0  0  0  0
   62.9300   31.4240   50.3010 C   0  0  0  0  0  0  0  0  0  0  0  0
   61.6900   31.3670   49.5060 N   0  0  0  0  0  0  0  0  0  0  0  0
   60.7720   30.3030   49.9430 C   0  0  0  0  0  0  0  0  0  0  0  0
   60.1460   29.5840   48.7450 C   0  0  0  0  0  0  0  0  0  0  0  0
   60.6110   30.1680   47.4870 N   0  0  0  0  0  0  0  0  0  0  0  0
   59.6850   30.5090   46.4400 C   0  0  0  0  0  0  0  0  0  0  0  0
   59.1230   29.5050   45.6300 C   0  0  0  0  0  0  0  0  0  0  0  0
   59.4010   28.1400   45.8650 C   0  0  0  0  0  0  0  0  0  0  0  0
   58.8080   27.1470   45.0860 C   0  0  0  0  0  0  0  0  0  0  0  0
   57.9220   27.4930   44.0730 C   0  0  0  0  0  0  0  0  0  0  0  0
   57.6470   28.8330   43.8100 C   0  0  0  0  0  0  0  0  0  0  0  0
   58.2690   29.8700   44.5530 C   0  0  0  0  0  0  0  0  0  0  0  0
   58.0560   31.2030   44.2590 N   0  0  0  0  0  0  0  0  0  0  0  0
   57.4250   31.5880   42.9750 C   0  0  0  0  0  0  0  0  0  0  0  0
   58.4490   32.1810   45.1550 C   0  0  0  0  0  0  0  0  0  0  0  0
   58.0130   33.5240   45.0310 C   0  0  0  0  0  0  0  0  0  0  0  0
   58.4330   34.5030   45.9300 C   0  0  0  0  0  0  0  0  0  0  0  0
   59.2770   34.1710   46.9830 C   0  0  0  0  0  0  0  0  0  0  0  0
   59.6970   32.8540   47.1520 C   0  0  0  0  0  0  0  0  0  0  0  0
   59.2920   31.8460   46.2500 C   0  0  0  0  0  0  0  0  0  0  0  0
   62.8529   34.0380   49.8361 H   0  0  0  0  0  0  0  0  0  0  0  0
   62.4364   35.3183   48.6471 H   0  0  0  0  0  0  0  0  0  0  0  0
   61.5345   33.7649   48.6471 H   0  0  0  0  0  0  0  0  0  0  0  0
   64.4840   34.1812   47.9504 H   0  0  0  0  0  0  0  0  0  0  0  0
   61.9802   34.1962   46.4110 H   0  0  0  0  0  0  0  0  0  0  0  0
   63.6495   34.5547   45.8527 H   0  0  0  0  0  0  0  0  0  0  0  0
   63.0464   32.8627   45.8527 H   0  0  0  0  0  0  0  0  0  0  0  0
   62.9630   31.6460   47.8000 H   0  0  0  0  0  0  0  0  0  0  0  0
   64.5960   31.8940   47.4590 H   0  0  0  0  0  0  0  0  0  0  0  0
   64.8862   31.0508   49.4563 H   0  0  0  0  0  0  0  0  0  0  0  0
   64.5536   32.7799   49.9321 H   0  0  0  0  0  0  0  0  0  0  0  0
   63.1306   30.4241   50.7132 H   0  0  0  0  0  0  0  0  0  0  0  0
   62.7818   32.1684   51.0972 H   0  0  0  0  0  0  0  0  0  0  0  0
   61.1960   32.2880   49.5580 H   0  0  0  0  0  0  0  0  0  0  0  0
   61.3306   29.5732   50.5474 H   0  0  0  0  0  0  0  0  0  0  0  0
   59.9653   30.7607   50.5345 H   0  0  0  0  0  0  0  0  0  0  0  0
   60.4277   28.5211   48.7749 H   0  0  0  0  0  0  0  0  0  0  0  0
   59.0528   29.6924   48.8009 H   0  0  0  0  0  0  0  0  0  0  0  0
   61.5820   30.5510   47.4490 H   0  0  0  0  0  0  0  0  0  0  0  0
   60.0932   27.8572   46.6718 H   0  0  0  0  0  0  0  0  0  0  0  0
   59.0418   26.0886   45.2736 H   0  0  0  0  0  0  0  0  0  0  0  0
   57.4363   26.7063   43.4770 H   0  0  0  0  0  0  0  0  0  0  0  0
   56.9352   29.0920   43.0124 H   0  0  0  0  0  0  0  0  0  0  0  0
   56.5016   32.1514   43.1747 H   0  0  0  0  0  0  0  0  0  0  0  0
   58.1203   32.2159   42.3985 H   0  0  0  0  0  0  0  0  0  0  0  0
   57.1847   30.6825   42.3985 H   0  0  0  0  0  0  0  0  0  0  0  0
   57.3320   33.7982   44.2118 H   0  0  0  0  0  0  0  0  0  0  0  0
   58.0951   35.5424   45.8055 H   0  0  0  0  0  0  0  0  0  0  0  0
   59.6136   34.9493   47.6837 H   0  0  0  0  0  0  0  0  0  0  0  0
   60.3516   32.5961   47.9976 H   0  0  0  0  0  0  0  0  0  0  0  0
  1  2  1  0
  2  3  1  0
  2  4  1  0
  4  5  1  0
  5  6  1  0
  6  7  1  0
  7  8  1  0
  8  9  1  0
  9 10  1  0
 10 11  1  0
 11 12  2  0
 12 13  1  0
 13 14  2  0
 14 15  1  0
 15 16  2  0
 16 17  1  0
 17 18  2  0
 18 19  1  0
 18 20  1  0
 20 21  2  0
 21 22  1  0
 22 23  2  0
 23 24  1  0
 24 25  2  0
 25 11  1  0
 17 12  1  0
 25 20  1  0
  1 26  1  0
  1 27  1  0
  1 28  1  0
  2 29  1  0
  3 30  1  0
  3 31  1  0
  3 32  1  0
  4 33  1  0
  4 34  1  0
  5 35  1  0
  5 36  1  0
  6 37  1  0
  6 38  1  0
  7 39  1  0
  8 40  1  0
  8 41  1  0
  9 42  1  0
  9 43  1  0
 10 44  1  0
 13 45  1  0
 14 46  1  0
 15 47  1  0
 16 48  1  0
 19 49  1  0
 19 50  1  0
 19 51  1  0
 21 52  1  0
 22 53  1  0
 23 54  1  0
 24 55  1  0
M  CHG  2   4   1  18   1
M  END
>  <UniqueID>  (13) 
13

>  <SMILES>  (13) 
CC(C)[NH2+]CCNCCNc1c2ccccc2[n+](C)c2ccccc12

>  <Energy>  (13) 
79.4904198222445

>  <Genealogy>  (13) 
CC(C)[NH2+]CCNCCNc1c2ccccc2[n+](C)c2ccccc12 (protonated)
CC(C)[NH2+]CCNCCNc1c2ccccc2[n+](C)c2ccccc12 (3D coordinates assigned)
CC(C)[NH2+]CCNCCNc1c2ccccc2[n+](C)c2ccccc12 (optimized conformer: 79.4904198222445 kcal/mol)

>  <smiles>  (13) 
CC(C)NCCNCCNc1c2ccccc2[n+](C)c2ccccc12

>  <score_type>  (13) 
oracle

>  <origin>  (13) 
adg

>  <m_score__min__energy>  (13) 
-4.5099999999999998

>  <m_primary>  (13) 
energy

$$$$
14:0
     RDKit          3D

 48 51  0  0  0  0  0  0  0  0999 V2000
   63.0930   34.5770   50.7550 C   0  0  0  0  0  0  0  0  0  0  0  0
   63.1060   33.0560   50.6690 C   0  0  0  0  0  0  0  0  0  0  0  0
   62.8810   32.6240   49.2920 N   0  0  0  0  0  0  0  0  0  0  0  0
   63.7450   32.7470   48.2540 C   0  0  0  0  0  0  0  0  0  0  0  0
   63.2210   32.1540   47.1070 C   0  0  0  0  0  0  0  0  0  0  0  0
   61.9970   31.6460   47.4900 C   0  0  0  0  0  0  0  0  0  0  0  0
   61.0340   30.9360   46.7830 C   0  0  0  0  0  0  0  0  0  0  0  0
   59.8720   30.5400   47.4800 C   0  0  0  0  0  0  0  0  0  0  0  0
   58.7920   29.7770   46.7620 C   0  0  0  0  0  0  0  0  0  0  0  0
   57.8000   30.6700   46.2600 O   0  0  0  0  0  0  0  0  0  0  0  0
   57.6360   31.0360   44.9140 C   0  0  0  0  0  0  0  0  0  0  0  0
   57.1080   30.1450   43.9560 C   0  0  0  0  0  0  0  0  0  0  0  0
   56.9870   30.5320   42.6200 C   0  0  0  0  0  0  0  0  0  0  0  0
   57.3900   31.8070   42.2210 C   0  0  0  0  0  0  0  0  0  0  0  0
   57.2720   32.1800   40.9230 F   0  0  0  0  0  0  0  0  0  0  0  0
   57.9120   32.7000   43.1580 C   0  0  0  0  0  0  0  0  0  0  0  0
   58.0320   32.3260   44.5060 C   0  0  0  0  0  0  0  0  0  0  0  0
   58.5370   33.2790   45.4580 N   0  0  0  0  0  0  0  0  0  0  0  0
   59.6050   34.2130   45.0920 C   0  0  0  0  0  0  0  0  0  0  0  0
   60.4940   34.4720   46.3120 C   0  0  0  0  0  0  0  0  0  0  0  0
   59.7150   34.8690   47.4250 O   0  0  0  0  0  0  0  0  0  0  0  0
   58.8660   33.8080   47.8230 C   0  0  0  0  0  0  0  0  0  0  0  0
   57.8420   33.4900   46.7290 C   0  0  0  0  0  0  0  0  0  0  0  0
   59.7450   30.8610   48.8560 C   0  0  0  0  0  0  0  0  0  0  0  0
   60.7260   31.5590   49.5020 N   0  0  0  0  0  0  0  0  0  0  0  0
   61.8280   31.9430   48.8100 C   0  0  0  0  0  0  0  0  0  0  0  0
   63.0904   34.8845   51.8111 H   0  0  0  0  0  0  0  0  0  0  0  0
   63.9877   34.9800   50.2580 H   0  0  0  0  0  0  0  0  0  0  0  0
   62.1915   34.9647   50.2580 H   0  0  0  0  0  0  0  0  0  0  0  0
   64.0818   32.6815   51.0119 H   0  0  0  0  0  0  0  0  0  0  0  0
   62.3035   32.6548   51.3054 H   0  0  0  0  0  0  0  0  0  0  0  0
   64.7238   33.2458   48.3097 H   0  0  0  0  0  0  0  0  0  0  0  0
   63.6839   32.1021   46.1105 H   0  0  0  0  0  0  0  0  0  0  0  0
   61.1721   30.6916   45.7194 H   0  0  0  0  0  0  0  0  0  0  0  0
   59.2373   29.2219   45.9232 H   0  0  0  0  0  0  0  0  0  0  0  0
   58.3185   29.0798   47.4689 H   0  0  0  0  0  0  0  0  0  0  0  0
   56.7894   29.1382   44.2639 H   0  0  0  0  0  0  0  0  0  0  0  0
   56.5732   29.8305   41.8806 H   0  0  0  0  0  0  0  0  0  0  0  0
   58.2313   33.7030   42.8385 H   0  0  0  0  0  0  0  0  0  0  0  0
   60.2102   33.7795   44.2822 H   0  0  0  0  0  0  0  0  0  0  0  0
   59.1634   35.1610   44.7511 H   0  0  0  0  0  0  0  0  0  0  0  0
   61.0391   33.5503   46.5635 H   0  0  0  0  0  0  0  0  0  0  0  0
   61.2002   35.2797   46.0692 H   0  0  0  0  0  0  0  0  0  0  0  0
   59.4749   32.9129   48.0180 H   0  0  0  0  0  0  0  0  0  0  0  0
   58.3269   34.1106   48.7329 H   0  0  0  0  0  0  0  0  0  0  0  0
   57.2872   32.5795   46.9993 H   0  0  0  0  0  0  0  0  0  0  0  0
   57.1395   34.3305   46.6282 H   0  0  0  0  0  0  0  0  0  0  0  0
   58.8478   30.5448   49.4084 H   0  0  0  0  0  0  0  0  0  0  0  0
  1  2  1  0
  2  3  1  0
  3  4  1  0
  4  5  2  0
  5  6  1  0
  6  7  2  0
  7  8  1  0
  8  9  1  0
  9 10  1  0
 10 11  1  0
 11 12  2  0
 12 13  1  0
 13 14  2  0
 14 15  1  0
 14 16  1  0
 16 17  2  0
 17 18  1  0
 18 19  1  0
 19 20  1  0
 20 21  1  0
 21 22  1  0
 22 23  1  0
  8 24  2  0
 24 25  1  0
 25 26  2  0
 26  3  1  0
 26  6  1  0
 17 11  1  0
 23 18  1  0
  1 27  1  0
  1 28  1  0
  1 29  1  0
  2 30  1  0
  2 31  1  0
  4 32  1  0
  5 33  1  0
  7 34  1  0
  9 35  1  0
  9 36  1  0
 12 37  1  0
 13 38  1  0
 16 39  1  0
 19 40  1  0
 19 41  1  0
 20 42  1  0
 20 43  1  0
 22 44  1  0
 22 45  1  0
 23 46  1  0
 23 47  1  0
 24 48  1  0
M  END
>  <UniqueID>  (14) 
14

>  <SMILES>  (14) 
CCn1ccc2cc(COc3ccc(F)cc3N3CCOCC3)cnc21

>  <Energy>  (14) 
87.88477809763582

>  <Genealogy>  (14) 
CCn1ccc2cc(COc3ccc(F)cc3N3CCOCC3)cnc21 (3D coordinates assigned)
CCn1ccc2cc(COc3ccc(F)cc3N3CCOCC3)cnc21 (nonaromatic ring conformer: 87.88477809763582 kcal/mol)

>  <smiles>  (14) 
CCn1ccc2cc(COc3ccc(F)cc3N3CCOCC3)cnc21

>  <score_type>  (14) 
oracle

>  <origin>  (14) 
adg

>  <m_score__min__energy>  (14) 
-7.4900000000000002

>  <m_primary>  (14) 
energy

$$$$
15:0
     RDKit          3D

 60 62  0  0  0  0  0  0  0  0999 V2000
   58.1690   30.3030   50.9120 C   0  0  0  0  0  0  0  0  0  0  0  0
   59.6270   30.2390   50.4550 C   0  0  0  0  0  0  0  0  0  0  0  0
   60.0210   31.4420   49.8210 O   0  0  0  0  0  0  0  0  0  0  0  0
   59.0080   32.4210   49.9230 C   0  0  0  0  0  0  0  0  0  0  0  0
   59.6460   33.8050   49.8510 C   0  0  0  0  0  0  0  0  0  0  0  0
   61.0210   33.7010   49.5340 O   0  0  0  0  0  0  0  0  0  0  0  0
   61.8310   33.8320   50.6880 C   0  0  0  0  0  0  0  0  0  0  0  0
   62.6600   32.5590   50.9140 C   0  0  0  0  0  0  0  0  0  0  0  0
   63.1650   32.0310   49.7030 O   0  0  0  0  0  0  0  0  0  0  0  0
   63.9350   32.9850   49.0020 C   0  0  0  0  0  0  0  0  0  0  0  0
   63.6950   32.8480   47.4940 C   0  0  0  0  0  0  0  0  0  0  0  0
   62.8670   31.5960   47.1220 C   0  0  0  0  0  0  0  0  0  0  0  0
   61.5970   31.4860   47.8710 N   0  0  0  0  0  0  0  0  0  0  0  0
   60.4460   31.2750   47.0000 C   0  0  0  0  0  0  0  0  0  0  0  0
   59.8680   29.9820   46.8190 C   0  0  0  0  0  0  0  0  0  0  0  0
   60.3560   28.8230   47.4840 C   0  0  0  0  0  0  0  0  0  0  0  0
   59.7260   27.5890   47.3480 C   0  0  0  0  0  0  0  0  0  0  0  0
   58.5980   27.4660   46.5560 C   0  0  0  0  0  0  0  0  0  0  0  0
   58.1140   28.5680   45.8600 C   0  0  0  0  0  0  0  0  0  0  0  0
   58.7580   29.8300   45.9360 C   0  0  0  0  0  0  0  0  0  0  0  0
   58.3230   30.8930   45.1730 N   0  0  0  0  0  0  0  0  0  0  0  0
   57.4310   30.6520   44.0140 C   0  0  0  0  0  0  0  0  0  0  0  0
   58.7410   32.1720   45.4640 C   0  0  0  0  0  0  0  0  0  0  0  0
   58.0970   33.3010   44.8930 C   0  0  0  0  0  0  0  0  0  0  0  0
   58.5460   34.5930   45.1430 C   0  0  0  0  0  0  0  0  0  0  0  0
   59.6280   34.8020   45.9840 C   0  0  0  0  0  0  0  0  0  0  0  0
   60.2550   33.7200   46.5960 C   0  0  0  0  0  0  0  0  0  0  0  0
   59.8260   32.3880   46.3600 C   0  0  0  0  0  0  0  0  0  0  0  0
   58.1290   30.3048   52.0113 H   0  0  0  0  0  0  0  0  0  0  0  0
   57.7040   31.2224   50.5267 H   0  0  0  0  0  0  0  0  0  0  0  0
   57.6252   29.4279   50.5267 H   0  0  0  0  0  0  0  0  0  0  0  0
   60.2699   30.0686   51.3311 H   0  0  0  0  0  0  0  0  0  0  0  0
   59.7282   29.4163   49.7318 H   0  0  0  0  0  0  0  0  0  0  0  0
   58.2939   32.3005   49.0950 H   0  0  0  0  0  0  0  0  0  0  0  0
   58.4753   32.3065   50.8786 H   0  0  0  0  0  0  0  0  0  0  0  0
   59.1393   34.3972   49.0747 H   0  0  0  0  0  0  0  0  0  0  0  0
   59.5428   34.2956   50.8301 H   0  0  0  0  0  0  0  0  0  0  0  0
   62.5103   34.6873   50.5577 H   0  0  0  0  0  0  0  0  0  0  0  0
   61.1812   33.9917   51.5611 H   0  0  0  0  0  0  0  0  0  0  0  0
   63.5051   32.7989   51.5760 H   0  0  0  0  0  0  0  0  0  0  0  0
   62.0019   31.8019   51.3653 H   0  0  0  0  0  0  0  0  0  0  0  0
   63.6461   33.9956   49.3264 H   0  0  0  0  0  0  0  0  0  0  0  0
   65.0008   32.8150   49.2146 H   0  0  0  0  0  0  0  0  0  0  0  0
   63.1566   33.7406   47.1428 H   0  0  0  0  0  0  0  0  0  0  0  0
   64.6792   32.7446   47.0136 H   0  0  0  0  0  0  0  0  0  0  0  0
   62.6352   31.6383   46.0475 H   0  0  0  0  0  0  0  0  0  0  0  0
   63.4742   30.7167   47.3830 H   0  0  0  0  0  0  0  0  0  0  0  0
   61.4480   32.3580   48.4250 H   0  0  0  0  0  0  0  0  0  0  0  0
   61.7050   30.7790   48.6210 H   0  0  0  0  0  0  0  0  0  0  0  0
   61.2504   28.9035   48.1193 H   0  0  0  0  0  0  0  0  0  0  0  0
   60.1264   26.7086   47.8720 H   0  0  0  0  0  0  0  0  0  0  0  0
   58.0843   26.4965   46.4771 H   0  0  0  0  0  0  0  0  0  0  0  0
   57.2135   28.4593   45.2378 H   0  0  0  0  0  0  0  0  0  0  0  0
   56.4275   30.3809   44.3738 H   0  0  0  0  0  0  0  0  0  0  0  0
   57.3675   31.5652   43.4040 H   0  0  0  0  0  0  0  0  0  0  0  0
   57.8360   29.8311   43.4040 H   0  0  0  0  0  0  0  0  0  0  0  0
   57.2250   33.1506   44.2395 H   0  0  0  0  0  0  0  0  0  0  0  0
   58.0420   35.4503   44.6729 H   0  0  0  0  0  0  0  0  0  0  0  0
   59.9916   35.8237   46.1680 H   0  0  0  0  0  0  0  0  0  0  0  0
   61.1002   33.9013   47.2763 H   0  0  0  0  0  0  0  0  0  0  0  0
  1  2  1  0
  2  3  1  0
  3  4  1  0
  4  5  1  0
  5  6  1  0
  6  7  1  0
  7  8  1  0
  8  9  1  0
  9 10  1  0
 10 11  1  0
 11 12  1  0
 12 13  1  0
 13 14  1  0
 14 15  2  0
 15 16  1  0
 16 17  2  0
 17 18  1  0
 18 19  2  0
 19 20  1  0
 20 21  2  0
 21 22  1  0
 21 23  1  0
 23 24  2  0
 24 25  1  0
 25 26  2  0
 26 27  1  0
 27 28  2  0
 28 14  1  0
 20 15  1  0
 28 23  1  0
  1 29  1  0
  1 30  1  0
  1 31  1  0
  2 32  1  0
  2 33  1  0
  4 34  1  0
  4 35  1  0
  5 36  1  0
  5 37  1  0
  7 38  1  0
  7 39  1  0
  8 40  1  0
  8 41  1  0
 10 42  1  0
 10 43  1  0
 11 44  1  0
 11 45  1  0
 12 46  1  0
 12 47  1  0
 13 48  1  0
 13 49  1  0
 16 50  1  0
 17 51  1  0
 18 52  1  0
 19 53  1  0
 22 54  1  0
 22 55  1  0
 22 56  1  0
 24 57  1  0
 25 58  1  0
 26 59  1  0
 27 60  1  0
M  CHG  2  13   1  21   1
M  END
>  <UniqueID>  (15) 
15

>  <SMILES>  (15) 
CCOCCOCCOCCC[NH2+]c1c2ccccc2[n+](C)c2ccccc12

>  <Energy>  (15) 
92.57593351683876

>  <Genealogy>  (15) 
CCOCCOCCOCCC[NH2+]c1c2ccccc2[n+](C)c2ccccc12 (protonated)
CCOCCOCCOCCC[NH2+]c1c2ccccc2[n+](C)c2ccccc12 (3D coordinates assigned)
CCOCCOCCOCCC[NH2+]c1c2ccccc2[n+](C)c2ccccc12 (optimized conformer: 92.57593351683876 kcal/mol)

>  <smiles>  (15) 
CCOCCOCCOCCCNc1c2ccccc2[n+](C)c2ccccc12

>  <score_type>  (15) 
oracle

>  <origin>  (15) 
adg

>  <m_score__min__energy>  (15) 
-2.9399999999999999

>  <m_primary>  (15) 
energy

$$$$
16:0
     RDKit          3D

 43 45  0  0  0  0  0  0  0  0999 V2000
   56.2870   30.0700   42.9540 C   0  0  0  0  0  0  0  0  0  0  0  0
   55.8540   29.5880   44.3340 C   0  0  0  0  0  0  0  0  0  0  0  0
   57.0120   29.0690   45.0700 N   0  0  0  0  0  0  0  0  0  0  0  0
   58.0320   28.5550   44.1480 C   0  0  0  0  0  0  0  0  0  0  0  0
   59.2090   27.9380   44.9190 C   0  0  0  0  0  0  0  0  0  0  0  0
   60.0960   28.9800   45.6310 C   0  0  0  0  0  0  0  0  0  0  0  0
   59.2920   29.8560   46.4860 N   0  0  0  0  0  0  0  0  0  0  0  0
   59.4940   31.2760   46.4950 C   0  0  0  0  0  0  0  0  0  0  0  0
   60.7100   31.8760   46.9000 C   0  0  0  0  0  0  0  0  0  0  0  0
   61.7440   31.1040   47.4600 C   0  0  0  0  0  0  0  0  0  0  0  0
   62.9440   31.6970   47.8470 C   0  0  0  0  0  0  0  0  0  0  0  0
   63.1290   33.0680   47.6930 C   0  0  0  0  0  0  0  0  0  0  0  0
   62.1120   33.8640   47.1640 C   0  0  0  0  0  0  0  0  0  0  0  0
   60.8790   33.2980   46.7620 C   0  0  0  0  0  0  0  0  0  0  0  0
   59.8520   34.0800   46.2530 N   0  0  0  0  0  0  0  0  0  0  0  0
   60.0180   35.5330   46.0690 C   0  0  0  0  0  0  0  0  0  0  0  0
   58.6730   33.4630   45.9290 C   0  0  0  0  0  0  0  0  0  0  0  0
   57.4940   33.9800   45.4200 C   0  0  0  0  0  0  0  0  0  0  0  0
   56.6690   32.8760   45.2530 C   0  0  0  0  0  0  0  0  0  0  0  0
   57.2920   31.7760   45.6300 O   0  0  0  0  0  0  0  0  0  0  0  0
   58.4890   32.1160   46.0380 C   0  0  0  0  0  0  0  0  0  0  0  0
   57.0185   30.8843   43.0629 H   0  0  0  0  0  0  0  0  0  0  0  0
   56.7456   29.2365   42.4017 H   0  0  0  0  0  0  0  0  0  0  0  0
   55.4093   30.4370   42.4017 H   0  0  0  0  0  0  0  0  0  0  0  0
   55.4143   30.4279   44.8919 H   0  0  0  0  0  0  0  0  0  0  0  0
   55.1098   28.7861   44.2195 H   0  0  0  0  0  0  0  0  0  0  0  0
   57.4340   29.8770   45.5840 H   0  0  0  0  0  0  0  0  0  0  0  0
   57.5805   27.7856   43.5044 H   0  0  0  0  0  0  0  0  0  0  0  0
   58.4098   29.3911   43.5412 H   0  0  0  0  0  0  0  0  0  0  0  0
   58.8058   27.2493   45.6761 H   0  0  0  0  0  0  0  0  0  0  0  0
   59.8436   27.4247   44.1816 H   0  0  0  0  0  0  0  0  0  0  0  0
   60.8397   28.4567   46.2500 H   0  0  0  0  0  0  0  0  0  0  0  0
   60.5948   29.5959   44.8682 H   0  0  0  0  0  0  0  0  0  0  0  0
   58.3440   29.5070   46.7540 H   0  0  0  0  0  0  0  0  0  0  0  0
   61.6038   30.0212   47.5937 H   0  0  0  0  0  0  0  0  0  0  0  0
   63.7475   31.0799   48.2755 H   0  0  0  0  0  0  0  0  0  0  0  0
   64.0833   33.5272   47.9903 H   0  0  0  0  0  0  0  0  0  0  0  0
   62.2713   34.9472   47.0580 H   0  0  0  0  0  0  0  0  0  0  0  0
   60.0740   36.0231   47.0522 H   0  0  0  0  0  0  0  0  0  0  0  0
   60.9443   35.7282   45.5087 H   0  0  0  0  0  0  0  0  0  0  0  0
   59.1596   35.9321   45.5087 H   0  0  0  0  0  0  0  0  0  0  0  0
   57.2623   35.0320   45.1973 H   0  0  0  0  0  0  0  0  0  0  0  0
   55.6416   32.9132   44.8618 H   0  0  0  0  0  0  0  0  0  0  0  0
  1  2  1  0
  2  3  1  0
  3  4  1  0
  4  5  1  0
  5  6  1  0
  6  7  1  0
  7  8  1  0
  8  9  2  0
  9 10  1  0
 10 11  2  0
 11 12  1  0
 12 13  2  0
 13 14  1  0
 14 15  2  0
 15 16  1  0
 15 17  1  0
 17 18  1  0
 18 19  2  0
 19 20  1  0
 20 21  1  0
 21  8  1  0
 14  9  1  0
 21 17  2  0
  1 22  1  0
  1 23  1  0
  1 24  1  0
  2 25  1  0
  2 26  1  0
  3 27  1  0
  4 28  1  0
  4 29  1  0
  5 30  1  0
  5 31  1  0
  6 32  1  0
  6 33  1  0
  7 34  1  0
 10 35  1  0
 11 36  1  0
 12 37  1  0
 13 38  1  0
 16 39  1  0
 16 40  1  0
 16 41  1  0
 18 42  1  0
 19 43  1  0
M  CHG  1  15   1
M  END
>  <UniqueID>  (16) 
16

>  <SMILES>  (16) 
CCNCCCNc1c2ccccc2[n+](C)c2ccoc12

>  <Energy>  (16) 
84.82054470198327

>  <Genealogy>  (16) 
CCNCCCNc1c2ccccc2[n+](C)c2ccoc12 (3D coordinates assigned)
CCNCCCNc1c2ccccc2[n+](C)c2ccoc12 (optimized conformer: 84.82054470198327 kcal/mol)

>  <smiles>  (16) 
CCNCCCNc1c2ccccc2[n+](C)c2ccoc12

>  <score_type>  (16) 
oracle

>  <origin>  (16) 
adg

>  <m_score__min__energy>  (16) 
-5.3300000000000001

>  <m_primary>  (16) 
energy

$$$$
17:0
     RDKit          3D

 54 56  0  0  0  0  0  0  0  0999 V2000
   57.3180   25.4430   46.8870 C   0  0  0  0  0  0  0  0  0  0  0  0
   56.3040   26.2920   46.1300 C   0  0  0  0  0  0  0  0  0  0  0  0
   56.9700   27.4410   45.5060 N   0  0  0  0  0  0  0  0  0  0  0  0
   58.1480   26.9980   44.7520 C   0  0  0  0  0  0  0  0  0  0  0  0
   58.9900   28.2010   44.3060 C   0  0  0  0  0  0  0  0  0  0  0  0
   60.0530   28.6110   45.3460 C   0  0  0  0  0  0  0  0  0  0  0  0
   59.5430   28.6060   46.8030 C   0  0  0  0  0  0  0  0  0  0  0  0
   58.2940   29.3860   46.9650 N   0  0  0  0  0  0  0  0  0  0  0  0
   58.5420   30.8250   46.9590 C   0  0  0  0  0  0  0  0  0  0  0  0
   59.2390   31.4150   48.0520 C   0  0  0  0  0  0  0  0  0  0  0  0
   59.5030   30.6880   49.2400 C   0  0  0  0  0  0  0  0  0  0  0  0
   60.2410   31.2440   50.2810 C   0  0  0  0  0  0  0  0  0  0  0  0
   60.7460   32.5290   50.1650 C   0  0  0  0  0  0  0  0  0  0  0  0
   61.8030   33.2690   51.5750 Br  0  0  0  0  0  0  0  0  0  0  0  0
   60.4840   33.2790   49.0210 C   0  0  0  0  0  0  0  0  0  0  0  0
   59.6920   32.7580   47.9630 C   0  0  0  0  0  0  0  0  0  0  0  0
   59.3970   33.5190   46.8530 N   0  0  0  0  0  0  0  0  0  0  0  0
   59.6310   34.9830   46.8800 C   0  0  0  0  0  0  0  0  0  0  0  0
   58.8330   32.9350   45.7380 C   0  0  0  0  0  0  0  0  0  0  0  0
   58.8210   33.6140   44.4970 C   0  0  0  0  0  0  0  0  0  0  0  0
   58.1550   33.0950   43.3990 C   0  0  0  0  0  0  0  0  0  0  0  0
   57.4440   31.9140   43.5160 C   0  0  0  0  0  0  0  0  0  0  0  0
   57.4480   31.1870   44.7200 C   0  0  0  0  0  0  0  0  0  0  0  0
   56.6020   30.0760   44.8620 O   0  0  0  0  0  0  0  0  0  0  0  0
   55.5150   29.7600   43.9970 C   0  0  0  0  0  0  0  0  0  0  0  0
   58.2650   31.6270   45.8090 C   0  0  0  0  0  0  0  0  0  0  0  0
   57.1670   25.5695   47.9692 H   0  0  0  0  0  0  0  0  0  0  0  0
   57.1829   24.3847   46.6191 H   0  0  0  0  0  0  0  0  0  0  0  0
   58.3361   25.7620   46.6191 H   0  0  0  0  0  0  0  0  0  0  0  0
   55.8282   25.6800   45.3496 H   0  0  0  0  0  0  0  0  0  0  0  0
   55.5439   26.6578   46.8360 H   0  0  0  0  0  0  0  0  0  0  0  0
   56.3040   27.8610   44.8160 H   0  0  0  0  0  0  0  0  0  0  0  0
   58.7610   26.3450   45.3906 H   0  0  0  0  0  0  0  0  0  0  0  0
   57.8114   26.4511   43.8589 H   0  0  0  0  0  0  0  0  0  0  0  0
   59.5002   27.9428   43.3663 H   0  0  0  0  0  0  0  0  0  0  0  0
   58.3060   29.0533   44.1809 H   0  0  0  0  0  0  0  0  0  0  0  0
   60.8968   27.9091   45.2728 H   0  0  0  0  0  0  0  0  0  0  0  0
   60.3412   29.6469   45.1140 H   0  0  0  0  0  0  0  0  0  0  0  0
   59.3525   27.5663   47.1074 H   0  0  0  0  0  0  0  0  0  0  0  0
   60.3154   29.0739   47.4311 H   0  0  0  0  0  0  0  0  0  0  0  0
   57.7820   29.0880   47.8220 H   0  0  0  0  0  0  0  0  0  0  0  0
   57.6090   29.1580   46.2100 H   0  0  0  0  0  0  0  0  0  0  0  0
   59.1166   29.6631   49.3413 H   0  0  0  0  0  0  0  0  0  0  0  0
   60.4235   30.6626   51.1968 H   0  0  0  0  0  0  0  0  0  0  0  0
   60.8983   34.2943   48.9351 H   0  0  0  0  0  0  0  0  0  0  0  0
   59.6859   35.3264   47.9236 H   0  0  0  0  0  0  0  0  0  0  0  0
   60.5772   35.2126   46.3682 H   0  0  0  0  0  0  0  0  0  0  0  0
   58.8035   35.4961   46.3682 H   0  0  0  0  0  0  0  0  0  0  0  0
   59.3511   34.5732   44.4021 H   0  0  0  0  0  0  0  0  0  0  0  0
   58.1914   33.6218   42.4340 H   0  0  0  0  0  0  0  0  0  0  0  0
   56.8685   31.5390   42.6568 H   0  0  0  0  0  0  0  0  0  0  0  0
   54.6306   29.5029   44.5984 H   0  0  0  0  0  0  0  0  0  0  0  0
   55.2868   30.6290   43.3623 H   0  0  0  0  0  0  0  0  0  0  0  0
   55.7883   28.9041   43.3623 H   0  0  0  0  0  0  0  0  0  0  0  0
  1  2  1  0
  2  3  1  0
  3  4  1  0
  4  5  1  0
  5  6  1  0
  6  7  1  0
  7  8  1  0
  8  9  1  0
  9 10  2  0
 10 11  1  0
 11 12  2  0
 12 13  1  0
 13 14  1  0
 13 15  2  0
 15 16  1  0
 16 17  2  0
 17 18  1  0
 17 19  1  0
 19 20  2  0
 20 21  1  0
 21 22  2  0
 22 23  1  0
 23 24  1  0
 24 25  1  0
 23 26  2  0
 26  9  1  0
 16 10  1  0
 26 19  1  0
  1 27  1  0
  1 28  1  0
  1 29  1  0
  2 30  1  0
  2 31  1  0
  3 32  1  0
  4 33  1  0
  4 34  1  0
  5 35  1  0
  5 36  1  0
  6 37  1  0
  6 38  1  0
  7 39  1  0
  7 40  1  0
  8 41  1  0
  8 42  1  0
 11 43  1  0
 12 44  1  0
 15 45  1  0
 18 46  1  0
 18 47  1  0
 18 48  1  0
 20 49  1  0
 21 50  1  0
 22 51  1  0
 25 52  1  0
 25 53  1  0
 25 54  1  0
M  CHG  2   8   1  17   1
M  END
>  <UniqueID>  (17) 
17

>  <SMILES>  (17) 
CCNCCCC[NH2+]c1c2ccc(Br)cc2[n+](C)c2cccc(OC)c12

>  <Energy>  (17) 
83.93191543491123

>  <Genealogy>  (17) 
CCNCCCC[NH2+]c1c2ccc(Br)cc2[n+](C)c2cccc(OC)c12 (protonated)
CCNCCCC[NH2+]c1c2ccc(Br)cc2[n+](C)c2cccc(OC)c12 (3D coordinates assigned)
CCNCCCC[NH2+]c1c2ccc(Br)cc2[n+](C)c2cccc(OC)c12 (optimized conformer: 83.93191543491123 kcal/mol)

>  <smiles>  (17) 
CCNCCCCNc1c2ccc(Br)cc2[n+](C)c2cccc(OC)c12

>  <score_type>  (17) 
oracle

>  <origin>  (17) 
adg

>  <m_score__min__energy>  (17) 
-3.7400000000000002

>  <m_primary>  (17) 
energy

$$$$
18:0
     RDKit          3D

 42 43  0  0  0  0  0  0  0  0999 V2000
   58.1140   27.8710   45.5670 C   0  0  0  0  0  0  0  0  0  0  0  0
   57.5500   28.1550   44.1710 C   0  0  0  0  0  0  0  0  0  0  0  0
   58.1460   27.1890   43.1430 C   0  0  0  0  0  0  0  0  0  0  0  0
   57.8350   29.5380   43.7810 N   0  0  0  0  0  0  0  0  0  0  0  0
   57.0120   30.6360   44.2010 C   0  0  0  0  0  0  0  0  0  0  0  0
   55.9410   30.4200   44.8300 O   0  0  0  0  0  0  0  0  0  0  0  0
   57.4250   32.0550   43.9030 C   0  0  0  0  0  0  0  0  0  0  0  0
   57.4180   32.9250   45.0990 N   0  0  0  0  0  0  0  0  0  0  0  0
   57.8240   32.2260   46.3440 C   0  0  0  0  0  0  0  0  0  0  0  0
   58.4550   33.1720   47.3660 C   0  0  0  0  0  0  0  0  0  0  0  0
   59.5850   33.8590   46.7380 N   0  0  0  0  0  0  0  0  0  0  0  0
   60.8800   33.8460   47.3590 C   0  0  0  0  0  0  0  0  0  0  0  0
   62.0170   33.5110   46.6050 C   0  0  0  0  0  0  0  0  0  0  0  0
   63.2830   33.5120   47.2000 C   0  0  0  0  0  0  0  0  0  0  0  0
   63.4210   33.8440   48.5510 C   0  0  0  0  0  0  0  0  0  0  0  0
   62.2940   34.1750   49.3080 C   0  0  0  0  0  0  0  0  0  0  0  0
   61.0260   34.1780   48.7180 C   0  0  0  0  0  0  0  0  0  0  0  0
   59.9400   34.4740   49.4750 F   0  0  0  0  0  0  0  0  0  0  0  0
   59.4410   34.4010   45.3820 C   0  0  0  0  0  0  0  0  0  0  0  0
   57.9940   34.2750   44.8810 C   0  0  0  0  0  0  0  0  0  0  0  0
   57.4050   28.2280   46.3285 H   0  0  0  0  0  0  0  0  0  0  0  0
   58.2670   26.7884   45.6874 H   0  0  0  0  0  0  0  0  0  0  0  0
   59.0749   28.3927   45.6874 H   0  0  0  0  0  0  0  0  0  0  0  0
   56.4602   28.0085   44.2012 H   0  0  0  0  0  0  0  0  0  0  0  0
   58.6543   26.3652   43.6656 H   0  0  0  0  0  0  0  0  0  0  0  0
   57.3416   26.7824   42.5125 H   0  0  0  0  0  0  0  0  0  0  0  0
   58.8703   27.7255   42.5125 H   0  0  0  0  0  0  0  0  0  0  0  0
   58.6850   29.7430   43.2070 H   0  0  0  0  0  0  0  0  0  0  0  0
   58.4424   32.0430   43.4849 H   0  0  0  0  0  0  0  0  0  0  0  0
   56.6927   32.4674   43.1933 H   0  0  0  0  0  0  0  0  0  0  0  0
   56.9342   31.7622   46.7946 H   0  0  0  0  0  0  0  0  0  0  0  0
   58.5790   31.4729   46.0741 H   0  0  0  0  0  0  0  0  0  0  0  0
   57.7097   33.9110   47.6952 H   0  0  0  0  0  0  0  0  0  0  0  0
   58.8033   32.6006   48.2390 H   0  0  0  0  0  0  0  0  0  0  0  0
   61.9113   33.2468   45.5424 H   0  0  0  0  0  0  0  0  0  0  0  0
   64.1704   33.2514   46.6046 H   0  0  0  0  0  0  0  0  0  0  0  0
   64.4169   33.8447   49.0182 H   0  0  0  0  0  0  0  0  0  0  0  0
   62.4045   34.4340   50.3713 H   0  0  0  0  0  0  0  0  0  0  0  0
   59.7267   35.4632   45.3885 H   0  0  0  0  0  0  0  0  0  0  0  0
   60.0931   33.8267   44.7075 H   0  0  0  0  0  0  0  0  0  0  0  0
   57.3737   35.0105   45.4141 H   0  0  0  0  0  0  0  0  0  0  0  0
   58.0057   34.4553   43.7959 H   0  0  0  0  0  0  0  0  0  0  0  0
  1  2  1  0
  2  3  1  0
  2  4  1  0
  4  5  1  0
  5  6  2  0
  5  7  1  0
  7  8  1  0
  8  9  1  0
  9 10  1  0
 10 11  1  0
 11 12  1  0
 12 13  2  0
 13 14  1  0
 14 15  2  0
 15 16  1  0
 16 17  2  0
 17 18  1  0
 11 19  1  0
 19 20  1  0
 20  8  1  0
 17 12  1  0
  1 21  1  0
  1 22  1  0
  1 23  1  0
  2 24  1  0
  3 25  1  0
  3 26  1  0
  3 27  1  0
  4 28  1  0
  7 29  1  0
  7 30  1  0
  9 31  1  0
  9 32  1  0
 10 33  1  0
 10 34  1  0
 13 35  1  0
 14 36  1  0
 15 37  1  0
 16 38  1  0
 19 39  1  0
 19 40  1  0
 20 41  1  0
 20 42  1  0
M  END
>  <UniqueID>  (18) 
18

>  <SMILES>  (18) 
CC(C)NC(=O)CN1CCN(c2ccccc2F)CC1

>  <Energy>  (18) 
48.2198079841618

>  <Genealogy>  (18) 
CC(C)NC(=O)CN1CCN(c2ccccc2F)CC1 (3D coordinates assigned)
CC(C)NC(=O)CN1CCN(c2ccccc2F)CC1 (nonaromatic ring conformer: 48.2198079841618 kcal/mol)

>  <smiles>  (18) 
CC(C)NC(=O)CN1CCN(c2ccccc2F)CC1

>  <score_type>  (18) 
oracle

>  <origin>  (18) 
adg

>  <m_score__min__energy>  (18) 
-7.7800000000000002

>  <m_primary>  (18) 
energy

$$$$
19:0
     RDKit          3D

 70 72  0  0  0  0  0  0  0  0999 V2000
   54.8170   30.8300   51.9780 C   0  0  0  0  0  0  0  0  0  0  0  0
   56.0640   30.0240   52.3290 C   0  0  0  0  0  0  0  0  0  0  0  0
   57.2460   30.5170   51.6050 N   0  0  0  0  0  0  0  0  0  0  0  0
   57.8880   31.6720   52.2630 C   0  0  0  0  0  0  0  0  0  0  0  0
   58.4850   32.6370   51.2210 C   0  0  0  0  0  0  0  0  0  0  0  0
   58.3180   32.1490   49.8430 N   0  0  0  0  0  0  0  0  0  0  0  0
   59.3050   32.2640   48.7850 C   0  0  0  0  0  0  0  0  0  0  0  0
   59.0430   33.0070   47.6010 C   0  0  0  0  0  0  0  0  0  0  0  0
   57.7510   33.4670   47.2520 C   0  0  0  0  0  0  0  0  0  0  0  0
   57.5010   34.0370   46.0060 C   0  0  0  0  0  0  0  0  0  0  0  0
   58.5300   34.1860   45.0890 C   0  0  0  0  0  0  0  0  0  0  0  0
   59.8310   33.8460   45.4470 C   0  0  0  0  0  0  0  0  0  0  0  0
   60.1220   33.3260   46.7330 C   0  0  0  0  0  0  0  0  0  0  0  0
   61.4210   33.1750   47.1680 N   0  0  0  0  0  0  0  0  0  0  0  0
   62.5160   33.9050   46.4880 C   0  0  0  0  0  0  0  0  0  0  0  0
   61.6950   32.3720   48.2570 C   0  0  0  0  0  0  0  0  0  0  0  0
   63.0300   32.0850   48.6390 C   0  0  0  0  0  0  0  0  0  0  0  0
   63.3080   31.3040   49.7510 C   0  0  0  0  0  0  0  0  0  0  0  0
   62.2810   30.6690   50.4260 C   0  0  0  0  0  0  0  0  0  0  0  0
   60.9510   30.8050   49.9980 C   0  0  0  0  0  0  0  0  0  0  0  0
   60.0010   29.7940   50.4190 N   0  0  0  0  0  0  0  0  0  0  0  0
   59.9960   28.5990   49.5470 C   0  0  0  0  0  0  0  0  0  0  0  0
   60.2660   28.8990   48.0530 C   0  0  0  0  0  0  0  0  0  0  0  0
   58.9700   29.0850   47.2210 C   0  0  0  0  0  0  0  0  0  0  0  0
   59.1780   29.2650   45.7480 N   0  0  0  0  0  0  0  0  0  0  0  0
   60.6250   29.3110   45.4120 C   0  0  0  0  0  0  0  0  0  0  0  0
   58.5520   28.1430   44.9970 C   0  0  0  0  0  0  0  0  0  0  0  0
   58.5020   30.5240   45.2900 C   0  0  0  0  0  0  0  0  0  0  0  0
   57.3980   30.3390   44.2320 C   0  0  0  0  0  0  0  0  0  0  0  0
   60.6310   31.8010   49.0180 C   0  0  0  0  0  0  0  0  0  0  0  0
   54.3169   31.1532   52.9029 H   0  0  0  0  0  0  0  0  0  0  0  0
   55.1050   31.7132   51.3890 H   0  0  0  0  0  0  0  0  0  0  0  0
   54.1300   30.2046   51.3890 H   0  0  0  0  0  0  0  0  0  0  0  0
   56.2484   30.1036   53.4105 H   0  0  0  0  0  0  0  0  0  0  0  0
   55.8921   28.9775   52.0371 H   0  0  0  0  0  0  0  0  0  0  0  0
   57.9390   29.7330   51.5860 H   0  0  0  0  0  0  0  0  0  0  0  0
   57.1372   32.2083   52.8619 H   0  0  0  0  0  0  0  0  0  0  0  0
   58.7006   31.3029   52.9061 H   0  0  0  0  0  0  0  0  0  0  0  0
   57.9831   33.6114   51.3138 H   0  0  0  0  0  0  0  0  0  0  0  0
   59.5639   32.7184   51.4192 H   0  0  0  0  0  0  0  0  0  0  0  0
   57.4010   31.7170   49.5900 H   0  0  0  0  0  0  0  0  0  0  0  0
   56.9297   33.3727   47.9776 H   0  0  0  0  0  0  0  0  0  0  0  0
   56.4846   34.3698   45.7489 H   0  0  0  0  0  0  0  0  0  0  0  0
   58.3186   34.5720   44.0809 H   0  0  0  0  0  0  0  0  0  0  0  0
   60.6459   33.9829   44.7209 H   0  0  0  0  0  0  0  0  0  0  0  0
   63.1832   34.3498   47.2410 H   0  0  0  0  0  0  0  0  0  0  0  0
   63.0872   33.2064   45.8590 H   0  0  0  0  0  0  0  0  0  0  0  0
   62.0908   34.7010   45.8590 H   0  0  0  0  0  0  0  0  0  0  0  0
   63.8609   32.4894   48.0422 H   0  0  0  0  0  0  0  0  0  0  0  0
   64.3460   31.1895   50.0965 H   0  0  0  0  0  0  0  0  0  0  0  0
   62.5089   30.0512   51.3071 H   0  0  0  0  0  0  0  0  0  0  0  0
   59.0330   30.1480   50.4180 H   0  0  0  0  0  0  0  0  0  0  0  0
   60.2330   29.5010   51.3970 H   0  0  0  0  0  0  0  0  0  0  0  0
   60.7731   27.9079   49.9054 H   0  0  0  0  0  0  0  0  0  0  0  0
   58.9840   28.1717   49.6044 H   0  0  0  0  0  0  0  0  0  0  0  0
   60.8607   29.8218   47.9840 H   0  0  0  0  0  0  0  0  0  0  0  0
   60.7985   28.0309   47.6372 H   0  0  0  0  0  0  0  0  0  0  0  0
   58.3397   28.1958   47.3696 H   0  0  0  0  0  0  0  0  0  0  0  0
   58.5076   30.0163   47.5801 H   0  0  0  0  0  0  0  0  0  0  0  0
   61.2163   29.3298   46.3393 H   0  0  0  0  0  0  0  0  0  0  0  0
   60.8934   28.4209   44.8240 H   0  0  0  0  0  0  0  0  0  0  0  0
   60.8363   30.2163   44.8240 H   0  0  0  0  0  0  0  0  0  0  0  0
   58.1428   27.4095   45.7073 H   0  0  0  0  0  0  0  0  0  0  0  0
   57.7409   28.5327   44.3643 H   0  0  0  0  0  0  0  0  0  0  0  0
   59.3096   27.6575   44.3643 H   0  0  0  0  0  0  0  0  0  0  0  0
   58.0503   31.0051   46.1701 H   0  0  0  0  0  0  0  0  0  0  0  0
   59.2845   31.1271   44.8064 H   0  0  0  0  0  0  0  0  0  0  0  0
   56.4326   30.1772   44.7338 H   0  0  0  0  0  0  0  0  0  0  0  0
   57.3380   31.2396   43.6033 H   0  0  0  0  0  0  0  0  0  0  0  0
   57.6349   29.4680   43.6033 H   0  0  0  0  0  0  0  0  0  0  0  0
  1  2  1  0
  2  3  1  0
  3  4  1  0
  4  5  1  0
  5  6  1  0
  6  7  1  0
  7  8  2  0
  8  9  1  0
  9 10  2  0
 10 11  1  0
 11 12  2  0
 12 13  1  0
 13 14  2  0
 14 15  1  0
 14 16  1  0
 16 17  2  0
 17 18  1  0
 18 19  2  0
 19 20  1  0
 20 21  1  0
 21 22  1  0
 22 23  1  0
 23 24  1  0
 24 25  1  0
 25 26  1  0
 25 27  1  0
 25 28  1  0
 28 29  1  0
 20 30  2  0
 30  7  1  0
 13  8  1  0
 30 16  1  0
  1 31  1  0
  1 32  1  0
  1 33  1  0
  2 34  1  0
  2 35  1  0
  3 36  1  0
  4 37  1  0
  4 38  1  0
  5 39  1  0
  5 40  1  0
  6 41  1  0
  9 42  1  0
 10 43  1  0
 11 44  1  0
 12 45  1  0
 15 46  1  0
 15 47  1  0
 15 48  1  0
 17 49  1  0
 18 50  1  0
 19 51  1  0
 21 52  1  0
 21 53  1  0
 22 54  1  0
 22 55  1  0
 23 56  1  0
 23 57  1  0
 24 58  1  0
 24 59  1  0
 26 60  1  0
 26 61  1  0
 26 62  1  0
 27 63  1  0
 27 64  1  0
 27 65  1  0
 28 66  1  0
 28 67  1  0
 29 68  1  0
 29 69  1  0
 29 70  1  0
M  CHG  3  14   1  21   1  25   1
M  END
>  <UniqueID>  (19) 
19

>  <SMILES>  (19) 
CCNCCNc1c2ccccc2[n+](C)c2cccc([NH2+]CCC[N+](C)(C)CC)c12

>  <Energy>  (19) 
119.01986757573293

>  <Genealogy>  (19) 
CCNCCNc1c2ccccc2[n+](C)c2cccc([NH2+]CCC[N+](C)(C)CC)c12 (protonated)
CCNCCNc1c2ccccc2[n+](C)c2cccc([NH2+]CCC[N+](C)(C)CC)c12 (3D coordinates assigned)
CCNCCNc1c2ccccc2[n+](C)c2cccc([NH2+]CCC[N+](C)(C)CC)c12 (optimized conformer: 119.01986757573293 kcal/mol)

>  <smiles>  (19) 
CCNCCNc1c2ccccc2[n+](C)c2cccc(NCCC[N+](C)(C)CC)c12

>  <score_type>  (19) 
oracle

>  <origin>  (19) 
adg

>  <m_score__min__energy>  (19) 
-2.5600000000000001

>  <m_primary>  (19) 
energy

$$$$
20:0
     RDKit          3D

 55 57  0  0  0  0  0  0  0  0999 V2000
   60.2530   26.8270   47.3850 C   0  0  0  0  0  0  0  0  0  0  0  0
   60.6970   28.0880   48.1200 C   0  0  0  0  0  0  0  0  0  0  0  0
   59.6010   28.5870   49.0730 C   0  0  0  0  0  0  0  0  0  0  0  0
   59.3370   30.1000   48.9330 C   0  0  0  0  0  0  0  0  0  0  0  0
   59.9540   30.6740   47.7320 N   0  0  0  0  0  0  0  0  0  0  0  0
   59.1710   31.3130   46.7120 C   0  0  0  0  0  0  0  0  0  0  0  0
   58.3670   30.5210   45.8740 C   0  0  0  0  0  0  0  0  0  0  0  0
   58.0380   29.1960   46.2270 C   0  0  0  0  0  0  0  0  0  0  0  0
   57.2130   28.4270   45.4090 C   0  0  0  0  0  0  0  0  0  0  0  0
   56.6980   28.9680   44.2350 C   0  0  0  0  0  0  0  0  0  0  0  0
   57.0270   30.2710   43.8600 C   0  0  0  0  0  0  0  0  0  0  0  0
   57.8950   31.0620   44.6540 C   0  0  0  0  0  0  0  0  0  0  0  0
   58.3000   32.3210   44.2610 N   0  0  0  0  0  0  0  0  0  0  0  0
   58.1320   32.7380   42.8510 C   0  0  0  0  0  0  0  0  0  0  0  0
   58.8730   33.1810   45.1800 C   0  0  0  0  0  0  0  0  0  0  0  0
   59.0380   34.5550   44.8840 C   0  0  0  0  0  0  0  0  0  0  0  0
   59.6220   35.4230   45.7940 C   0  0  0  0  0  0  0  0  0  0  0  0
   60.0000   34.9710   47.0470 C   0  0  0  0  0  0  0  0  0  0  0  0
   59.8130   33.6310   47.4190 C   0  0  0  0  0  0  0  0  0  0  0  0
   60.0430   33.3050   48.8850 C   0  0  0  0  0  0  0  0  0  0  0  0
   61.3350   32.6420   49.1060 N   0  0  0  0  0  0  0  0  0  0  0  0
   62.4620   33.4960   48.7070 C   0  0  0  0  0  0  0  0  0  0  0  0
   63.2030   32.8650   47.5250 C   0  0  0  0  0  0  0  0  0  0  0  0
   63.3620   33.8580   46.3780 C   0  0  0  0  0  0  0  0  0  0  0  0
   59.2960   32.7000   46.4570 C   0  0  0  0  0  0  0  0  0  0  0  0
   59.9803   26.0526   48.1171 H   0  0  0  0  0  0  0  0  0  0  0  0
   59.3821   27.0579   46.7539 H   0  0  0  0  0  0  0  0  0  0  0  0
   61.0764   26.4613   46.7539 H   0  0  0  0  0  0  0  0  0  0  0  0
   61.6040   27.8647   48.7010 H   0  0  0  0  0  0  0  0  0  0  0  0
   60.8978   28.8734   47.3765 H   0  0  0  0  0  0  0  0  0  0  0  0
   58.6694   28.0450   48.8531 H   0  0  0  0  0  0  0  0  0  0  0  0
   59.9446   28.4026   50.1016 H   0  0  0  0  0  0  0  0  0  0  0  0
   58.2505   30.2645   48.8832 H   0  0  0  0  0  0  0  0  0  0  0  0
   59.7843   30.5974   49.8062 H   0  0  0  0  0  0  0  0  0  0  0  0
   60.9550   30.9630   47.8130 H   0  0  0  0  0  0  0  0  0  0  0  0
   58.4366   28.7653   47.1574 H   0  0  0  0  0  0  0  0  0  0  0  0
   56.9688   27.3923   45.6912 H   0  0  0  0  0  0  0  0  0  0  0  0
   56.0298   28.3668   43.6009 H   0  0  0  0  0  0  0  0  0  0  0  0
   56.6065   30.6908   42.9343 H   0  0  0  0  0  0  0  0  0  0  0  0
   57.7211   33.7578   42.8167 H   0  0  0  0  0  0  0  0  0  0  0  0
   59.1081   32.7187   42.3441 H   0  0  0  0  0  0  0  0  0  0  0  0
   57.4419   32.0474   42.3441 H   0  0  0  0  0  0  0  0  0  0  0  0
   58.6962   34.9421   43.9127 H   0  0  0  0  0  0  0  0  0  0  0  0
   59.7858   36.4755   45.5192 H   0  0  0  0  0  0  0  0  0  0  0  0
   60.4539   35.6732   47.7618 H   0  0  0  0  0  0  0  0  0  0  0  0
   60.0200   34.2398   49.4644 H   0  0  0  0  0  0  0  0  0  0  0  0
   59.2485   32.6164   49.2083 H   0  0  0  0  0  0  0  0  0  0  0  0
   61.4180   32.4630   50.1340 H   0  0  0  0  0  0  0  0  0  0  0  0
   62.0830   34.4859   48.4130 H   0  0  0  0  0  0  0  0  0  0  0  0
   63.1552   33.5992   49.5548 H   0  0  0  0  0  0  0  0  0  0  0  0
   64.1995   32.5402   47.8587 H   0  0  0  0  0  0  0  0  0  0  0  0
   62.6156   32.0079   47.1639 H   0  0  0  0  0  0  0  0  0  0  0  0
   63.5235   34.8667   46.7860 H   0  0  0  0  0  0  0  0  0  0  0  0
   64.2254   33.5697   45.7604 H   0  0  0  0  0  0  0  0  0  0  0  0
   62.4517   33.8537   45.7604 H   0  0  0  0  0  0  0  0  0  0  0  0
  1  2  1  0
  2  3  1  0
  3  4  1  0
  4  5  1  0
  5  6  1  0
  6  7  2  0
  7  8  1  0
  8  9  2  0
  9 10  1  0
 10 11  2  0
 11 12  1  0
 12 13  2  0
 13 14  1  0
 13 15  1  0
 15 16  2  0
 16 17  1  0
 17 18  2  0
 18 19  1  0
 19 20  1  0
 20 21  1  0
 21 22  1  0
 22 23  1  0
 23 24  1  0
 19 25  2  0
 25  6  1  0
 12  7  1  0
 25 15  1  0
  1 26  1  0
  1 27  1  0
  1 28  1  0
  2 29  1  0
  2 30  1  0
  3 31  1  0
  3 32  1  0
  4 33  1  0
  4 34  1  0
  5 35  1  0
  8 36  1  0
  9 37  1  0
 10 38  1  0
 11 39  1  0
 14 40  1  0
 14 41  1  0
 14 42  1  0
 16 43  1  0
 17 44  1  0
 18 45  1  0
 20 46  1  0
 20 47  1  0
 21 48  1  0
 22 49  1  0
 22 50  1  0
 23 51  1  0
 23 52  1  0
 24 53  1  0
 24 54  1  0
 24 55  1  0
M  CHG  1  13   1
M  END
>  <UniqueID>  (20) 
20

>  <SMILES>  (20) 
CCCCNc1c2ccccc2[n+](C)c2cccc(CNCCC)c12

>  <Energy>  (20) 
79.80208755819075

>  <Genealogy>  (20) 
CCCCNc1c2ccccc2[n+](C)c2cccc(CNCCC)c12 (3D coordinates assigned)
CCCCNc1c2ccccc2[n+](C)c2cccc(CNCCC)c12 (optimized conformer: 79.80208755819075 kcal/mol)

>  <smiles>  (20) 
CCCCNc1c2ccccc2[n+](C)c2cccc(CNCCC)c12

>  <score_type>  (20) 
oracle

>  <origin>  (20) 
adg

>  <m_score__min__energy>  (20) 
-6.3899999999999997

>  <m_primary>  (20) 
energy

$$$$
21:0
     RDKit          3D

 64 66  0  0  0  0  0  0  0  0999 V2000
   53.3680   28.6870   53.1330 C   0  0  0  0  0  0  0  0  0  0  0  0
   54.8200   28.2430   53.3410 C   0  0  0  0  0  0  0  0  0  0  0  0
   55.7820   29.1390   52.6720 N   0  0  0  0  0  0  0  0  0  0  0  0
   55.5570   30.5520   53.0200 C   0  0  0  0  0  0  0  0  0  0  0  0
   56.2330   31.4780   51.9970 C   0  0  0  0  0  0  0  0  0  0  0  0
   57.6810   31.0600   51.7110 C   0  0  0  0  0  0  0  0  0  0  0  0
   57.7480   29.7190   51.2600 O   0  0  0  0  0  0  0  0  0  0  0  0
   58.9890   29.4380   50.6390 C   0  0  0  0  0  0  0  0  0  0  0  0
   58.9080   29.6310   49.1190 C   0  0  0  0  0  0  0  0  0  0  0  0
   59.5720   28.4780   48.3560 C   0  0  0  0  0  0  0  0  0  0  0  0
   60.2420   28.9710   47.1540 N   0  0  0  0  0  0  0  0  0  0  0  0
   59.7940   30.1770   46.5200 C   0  0  0  0  0  0  0  0  0  0  0  0
   60.4470   31.3860   46.7920 C   0  0  0  0  0  0  0  0  0  0  0  0
   59.9320   32.5970   46.2580 C   0  0  0  0  0  0  0  0  0  0  0  0
   58.8760   32.5650   45.3540 N   0  0  0  0  0  0  0  0  0  0  0  0
   58.4340   33.8200   44.6880 C   0  0  0  0  0  0  0  0  0  0  0  0
   57.0740   34.2680   45.2200 C   0  0  0  0  0  0  0  0  0  0  0  0
   58.2800   31.3560   45.0170 C   0  0  0  0  0  0  0  0  0  0  0  0
   57.2270   31.2670   44.0630 C   0  0  0  0  0  0  0  0  0  0  0  0
   56.6290   30.0450   43.7550 C   0  0  0  0  0  0  0  0  0  0  0  0
   57.0620   28.8790   44.3700 C   0  0  0  0  0  0  0  0  0  0  0  0
   58.1020   28.9240   45.2900 C   0  0  0  0  0  0  0  0  0  0  0  0
   58.7210   30.1480   45.6230 C   0  0  0  0  0  0  0  0  0  0  0  0
   60.5940   33.9250   46.6410 C   0  0  0  0  0  0  0  0  0  0  0  0
   61.6530   33.8420   47.7460 C   0  0  0  0  0  0  0  0  0  0  0  0
   62.5170   32.6070   47.5740 C   0  0  0  0  0  0  0  0  0  0  0  0
   61.6460   31.3680   47.7240 C   0  0  0  0  0  0  0  0  0  0  0  0
   52.8860   28.8344   54.1107 H   0  0  0  0  0  0  0  0  0  0  0  0
   53.3505   29.6315   52.5695 H   0  0  0  0  0  0  0  0  0  0  0  0
   52.8253   27.9138   52.5695 H   0  0  0  0  0  0  0  0  0  0  0  0
   55.0360   28.2344   54.4196 H   0  0  0  0  0  0  0  0  0  0  0  0
   54.9314   27.2413   52.9003 H   0  0  0  0  0  0  0  0  0  0  0  0
   56.7450   28.8720   52.9850 H   0  0  0  0  0  0  0  0  0  0  0  0
   55.7290   29.0100   51.6340 H   0  0  0  0  0  0  0  0  0  0  0  0
   54.4757   30.7535   53.0301 H   0  0  0  0  0  0  0  0  0  0  0  0
   55.9907   30.7451   54.0123 H   0  0  0  0  0  0  0  0  0  0  0  0
   55.6620   31.4457   51.0573 H   0  0  0  0  0  0  0  0  0  0  0  0
   56.2499   32.4940   52.4182 H   0  0  0  0  0  0  0  0  0  0  0  0
   58.0986   31.7202   50.9366 H   0  0  0  0  0  0  0  0  0  0  0  0
   58.2579   31.1427   52.6439 H   0  0  0  0  0  0  0  0  0  0  0  0
   59.7547   30.1149   51.0459 H   0  0  0  0  0  0  0  0  0  0  0  0
   59.2494   28.3888   50.8424 H   0  0  0  0  0  0  0  0  0  0  0  0
   57.8497   29.6886   48.8244 H   0  0  0  0  0  0  0  0  0  0  0  0
   59.4432   30.5581   48.8658 H   0  0  0  0  0  0  0  0  0  0  0  0
   60.3125   27.9925   49.0086 H   0  0  0  0  0  0  0  0  0  0  0  0
   58.7955   27.7582   48.0577 H   0  0  0  0  0  0  0  0  0  0  0  0
   61.1400   28.5440   46.8320 H   0  0  0  0  0  0  0  0  0  0  0  0
   59.1745   34.6103   44.8806 H   0  0  0  0  0  0  0  0  0  0  0  0
   58.3451   33.6328   43.6077 H   0  0  0  0  0  0  0  0  0  0  0  0
   57.0906   34.2625   46.3199 H   0  0  0  0  0  0  0  0  0  0  0  0
   56.8570   35.2851   44.8616 H   0  0  0  0  0  0  0  0  0  0  0  0
   56.2950   33.5790   44.8616 H   0  0  0  0  0  0  0  0  0  0  0  0
   56.8780   32.1802   43.5587 H   0  0  0  0  0  0  0  0  0  0  0  0
   55.8104   30.0055   43.0212 H   0  0  0  0  0  0  0  0  0  0  0  0
   56.5818   27.9191   44.1291 H   0  0  0  0  0  0  0  0  0  0  0  0
   58.4474   27.9939   45.7650 H   0  0  0  0  0  0  0  0  0  0  0  0
   61.0753   34.3353   45.7410 H   0  0  0  0  0  0  0  0  0  0  0  0
   59.7890   34.5581   47.0423 H   0  0  0  0  0  0  0  0  0  0  0  0
   62.2908   34.7371   47.7019 H   0  0  0  0  0  0  0  0  0  0  0  0
   61.1429   33.7822   48.7187 H   0  0  0  0  0  0  0  0  0  0  0  0
   62.9775   32.6153   46.5751 H   0  0  0  0  0  0  0  0  0  0  0  0
   63.3095   32.5987   48.3369 H   0  0  0  0  0  0  0  0  0  0  0  0
   62.2543   30.4794   47.4996 H   0  0  0  0  0  0  0  0  0  0  0  0
   61.2675   31.3475   48.7566 H   0  0  0  0  0  0  0  0  0  0  0  0
  1  2  1  0
  2  3  1  0
  3  4  1  0
  4  5  1  0
  5  6  1  0
  6  7  1  0
  7  8  1  0
  8  9  1  0
  9 10  1  0
 10 11  1  0
 11 12  1  0
 12 13  2  0
 13 14  1  0
 14 15  2  0
 15 16  1  0
 16 17  1  0
 15 18  1  0
 18 19  2  0
 19 20  1  0
 20 21  2  0
 21 22  1  0
 22 23  2  0
 14 24  1  0
 24 25  1  0
 25 26  1  0
 26 27  1  0
 23 12  1  0
 27 13  1  0
 23 18  1  0
  1 28  1  0
  1 29  1  0
  1 30  1  0
  2 31  1  0
  2 32  1  0
  3 33  1  0
  3 34  1  0
  4 35  1  0
  4 36  1  0
  5 37  1  0
  5 38  1  0
  6 39  1  0
  6 40  1  0
  8 41  1  0
  8 42  1  0
  9 43  1  0
  9 44  1  0
 10 45  1  0
 10 46  1  0
 11 47  1  0
 16 48  1  0
 16 49  1  0
 17 50  1  0
 17 51  1  0
 17 52  1  0
 19 53  1  0
 20 54  1  0
 21 55  1  0
 22 56  1  0
 24 57  1  0
 24 58  1  0
 25 59  1  0
 25 60  1  0
 26 61  1  0
 26 62  1  0
 27 63  1  0
 27 64  1  0
M  CHG  2   3   1  15   1
M  END
>  <UniqueID>  (21) 
21

>  <SMILES>  (21) 
CC[NH2+]CCCOCCCNc1c2c([n+](CC)c3ccccc13)CCCC2

>  <Energy>  (21) 
78.0934176932811

>  <Genealogy>  (21) 
CC[NH2+]CCCOCCCNc1c2c([n+](CC)c3ccccc13)CCCC2 (protonated)
CC[NH2+]CCCOCCCNc1c2c([n+](CC)c3ccccc13)CCCC2 (3D coordinates assigned)
CC[NH2+]CCCOCCCNc1c2c([n+](CC)c3ccccc13)CCCC2 (nonaromatic ring conformer: 78.0934176932811 kcal/mol)

>  <smiles>  (21) 
CCNCCCOCCCNc1c2c([n+](CC)c3ccccc13)CCCC2

>  <score_type>  (21) 
oracle

>  <origin>  (21) 
adg

>  <m_score__min__energy>  (21) 
-4.9699999999999998

>  <m_primary>  (21) 
energy

$$$$
22:0
     RDKit          3D

 38 40  0  0  0  0  0  0  0  0999 V2000
   56.2640   29.6380   42.5870 C   0  0  0  0  0  0  0  0  0  0  0  0
   55.7720   30.0390   43.9830 C   0  0  0  0  0  0  0  0  0  0  0  0
   56.8490   30.4810   44.8900 N   0  0  0  0  0  0  0  0  0  0  0  0
   58.0690   29.6510   44.8040 C   0  0  0  0  0  0  0  0  0  0  0  0
   59.0330   30.0290   45.9320 C   0  0  0  0  0  0  0  0  0  0  0  0
   59.2170   31.4850   46.0000 N   0  0  0  0  0  0  0  0  0  0  0  0
   60.2760   32.0080   46.8190 C   0  0  0  0  0  0  0  0  0  0  0  0
   61.5120   31.4440   46.8520 N   0  0  0  0  0  0  0  0  0  0  0  0
   62.1850   32.2450   47.6950 C   0  0  0  0  0  0  0  0  0  0  0  0
   63.5220   32.1410   48.0720 C   0  0  0  0  0  0  0  0  0  0  0  0
   64.0300   33.1110   48.9560 C   0  0  0  0  0  0  0  0  0  0  0  0
   63.1930   34.1420   49.4410 C   0  0  0  0  0  0  0  0  0  0  0  0
   61.8450   34.2200   49.0400 C   0  0  0  0  0  0  0  0  0  0  0  0
   61.3760   33.2440   48.1580 C   0  0  0  0  0  0  0  0  0  0  0  0
   60.1500   33.0970   47.6260 N   0  0  0  0  0  0  0  0  0  0  0  0
   58.9700   33.9280   47.8590 C   0  0  0  0  0  0  0  0  0  0  0  0
   58.5630   32.3360   45.0020 C   0  0  0  0  0  0  0  0  0  0  0  0
   57.0820   31.9500   44.8660 C   0  0  0  0  0  0  0  0  0  0  0  0
   57.1134   28.9457   42.6825 H   0  0  0  0  0  0  0  0  0  0  0  0
   55.4483   29.1442   42.0386 H   0  0  0  0  0  0  0  0  0  0  0  0
   56.5832   30.5365   42.0386 H   0  0  0  0  0  0  0  0  0  0  0  0
   55.0512   30.8626   43.8733 H   0  0  0  0  0  0  0  0  0  0  0  0
   55.3215   29.1424   44.4337 H   0  0  0  0  0  0  0  0  0  0  0  0
   57.7960   28.5895   44.8971 H   0  0  0  0  0  0  0  0  0  0  0  0
   58.5586   29.8237   43.8342 H   0  0  0  0  0  0  0  0  0  0  0  0
   58.6244   29.6727   46.8892 H   0  0  0  0  0  0  0  0  0  0  0  0
   60.0081   29.5610   45.7319 H   0  0  0  0  0  0  0  0  0  0  0  0
   64.1588   31.3286   47.6918 H   0  0  0  0  0  0  0  0  0  0  0  0
   65.0830   33.0668   49.2710 H   0  0  0  0  0  0  0  0  0  0  0  0
   63.5983   34.8903   50.1380 H   0  0  0  0  0  0  0  0  0  0  0  0
   61.1860   35.0202   49.4080 H   0  0  0  0  0  0  0  0  0  0  0  0
   58.8092   34.0412   48.9413 H   0  0  0  0  0  0  0  0  0  0  0  0
   59.1236   34.9183   47.4055 H   0  0  0  0  0  0  0  0  0  0  0  0
   58.0893   33.4497   47.4055 H   0  0  0  0  0  0  0  0  0  0  0  0
   58.6373   33.3876   45.3161 H   0  0  0  0  0  0  0  0  0  0  0  0
   59.0609   32.1987   44.0308 H   0  0  0  0  0  0  0  0  0  0  0  0
   56.5254   32.4048   45.6987 H   0  0  0  0  0  0  0  0  0  0  0  0
   56.7397   32.3168   43.8871 H   0  0  0  0  0  0  0  0  0  0  0  0
  1  2  1  0
  2  3  1  0
  3  4  1  0
  4  5  1  0
  5  6  1  0
  6  7  1  0
  7  8  2  0
  8  9  1  0
  9 10  2  0
 10 11  1  0
 11 12  2  0
 12 13  1  0
 13 14  2  0
 14 15  1  0
 15 16  1  0
  6 17  1  0
 17 18  1  0
 18  3  1  0
 15  7  1  0
 14  9  1  0
  1 19  1  0
  1 20  1  0
  1 21  1  0
  2 22  1  0
  2 23  1  0
  4 24  1  0
  4 25  1  0
  5 26  1  0
  5 27  1  0
 10 28  1  0
 11 29  1  0
 12 30  1  0
 13 31  1  0
 16 32  1  0
 16 33  1  0
 16 34  1  0
 17 35  1  0
 17 36  1  0
 18 37  1  0
 18 38  1  0
M  END
>  <UniqueID>  (22) 
22

>  <SMILES>  (22) 
CCN1CCN(c2nc3ccccc3n2C)CC1

>  <Energy>  (22) 
87.34112553583762

>  <Genealogy>  (22) 
CCN1CCN(c2nc3ccccc3n2C)CC1 (3D coordinates assigned)
CCN1CCN(c2nc3ccccc3n2C)CC1 (nonaromatic ring conformer: 87.34112553583762 kcal/mol)

>  <smiles>  (22) 
CCN1CCN(c2nc3ccccc3n2C)CC1

>  <score_type>  (22) 
oracle

>  <origin>  (22) 
adg

>  <m_score__min__energy>  (22) 
-6.2300000000000004

>  <m_primary>  (22) 
energy

$$$$
23:0
     RDKit          3D

 54 56  0  0  0  0  0  0  0  0999 V2000
   57.3250   25.3470   46.4290 C   0  0  0  0  0  0  0  0  0  0  0  0
   56.2410   26.3190   45.9910 C   0  0  0  0  0  0  0  0  0  0  0  0
   56.7940   27.6080   45.8900 O   0  0  0  0  0  0  0  0  0  0  0  0
   55.8730   28.3720   45.2450 N   0  0  0  0  0  0  0  0  0  0  0  0
   56.2370   29.5510   44.5130 C   0  0  0  0  0  0  0  0  0  0  0  0
   55.4900   30.5660   44.5800 O   0  0  0  0  0  0  0  0  0  0  0  0
   57.4680   29.5930   43.6460 C   0  0  0  0  0  0  0  0  0  0  0  0
   58.2320   28.3410   43.7620 N   0  0  0  0  0  0  0  0  0  0  0  0
   59.5300   28.5400   44.4370 C   0  0  0  0  0  0  0  0  0  0  0  0
   59.4120   28.5250   45.9720 C   0  0  0  0  0  0  0  0  0  0  0  0
   58.4840   29.5560   46.4400 N   0  0  0  0  0  0  0  0  0  0  0  0
   58.9350   30.7210   47.1570 C   0  0  0  0  0  0  0  0  0  0  0  0
   58.8150   31.9990   46.5780 C   0  0  0  0  0  0  0  0  0  0  0  0
   58.2900   32.1620   45.2770 C   0  0  0  0  0  0  0  0  0  0  0  0
   58.2210   33.4220   44.6880 C   0  0  0  0  0  0  0  0  0  0  0  0
   58.6830   34.5380   45.3740 C   0  0  0  0  0  0  0  0  0  0  0  0
   59.1790   34.4080   46.6700 C   0  0  0  0  0  0  0  0  0  0  0  0
   59.2230   33.1440   47.3160 C   0  0  0  0  0  0  0  0  0  0  0  0
   59.6610   33.0060   48.6200 N   0  0  0  0  0  0  0  0  0  0  0  0
   59.8060   34.2030   49.4840 C   0  0  0  0  0  0  0  0  0  0  0  0
   59.9610   31.7530   49.1210 C   0  0  0  0  0  0  0  0  0  0  0  0
   60.6700   31.5880   50.3390 C   0  0  0  0  0  0  0  0  0  0  0  0
   60.9520   30.3200   50.8460 C   0  0  0  0  0  0  0  0  0  0  0  0
   60.5560   29.1780   50.1500 C   0  0  0  0  0  0  0  0  0  0  0  0
   60.9380   27.8200   50.6540 C   0  0  0  0  0  0  0  0  0  0  0  0
   59.8990   29.3140   48.9220 C   0  0  0  0  0  0  0  0  0  0  0  0
   59.5810   30.5880   48.4020 C   0  0  0  0  0  0  0  0  0  0  0  0
   57.3640   25.3120   47.5278 H   0  0  0  0  0  0  0  0  0  0  0  0
   57.0980   24.3442   46.0381 H   0  0  0  0  0  0  0  0  0  0  0  0
   58.2972   25.6816   46.0381 H   0  0  0  0  0  0  0  0  0  0  0  0
   55.8430   26.0110   45.0129 H   0  0  0  0  0  0  0  0  0  0  0  0
   55.4250   26.3220   46.7287 H   0  0  0  0  0  0  0  0  0  0  0  0
   57.1661   29.7354   42.5979 H   0  0  0  0  0  0  0  0  0  0  0  0
   58.1046   30.4264   43.9779 H   0  0  0  0  0  0  0  0  0  0  0  0
   57.6750   27.6600   44.3340 H   0  0  0  0  0  0  0  0  0  0  0  0
   58.3720   27.9280   42.8110 H   0  0  0  0  0  0  0  0  0  0  0  0
   60.2135   27.7350   44.1291 H   0  0  0  0  0  0  0  0  0  0  0  0
   59.9079   29.5304   44.1433 H   0  0  0  0  0  0  0  0  0  0  0  0
   59.0458   27.5391   46.2944 H   0  0  0  0  0  0  0  0  0  0  0  0
   60.4045   28.7282   46.4004 H   0  0  0  0  0  0  0  0  0  0  0  0
   57.4620   29.3520   46.3950 H   0  0  0  0  0  0  0  0  0  0  0  0
   57.9311   31.2827   44.7220 H   0  0  0  0  0  0  0  0  0  0  0  0
   57.8000   33.5337   43.6779 H   0  0  0  0  0  0  0  0  0  0  0  0
   58.6573   35.5270   44.8931 H   0  0  0  0  0  0  0  0  0  0  0  0
   59.5426   35.2997   47.2016 H   0  0  0  0  0  0  0  0  0  0  0  0
   59.7692   33.8992   50.5406 H   0  0  0  0  0  0  0  0  0  0  0  0
   60.7698   34.6907   49.2761 H   0  0  0  0  0  0  0  0  0  0  0  0
   58.9865   34.9067   49.2761 H   0  0  0  0  0  0  0  0  0  0  0  0
   61.0035   32.4773   50.8938 H   0  0  0  0  0  0  0  0  0  0  0  0
   61.4898   30.2198   51.8003 H   0  0  0  0  0  0  0  0  0  0  0  0
   60.9370   27.8235   51.7540 H   0  0  0  0  0  0  0  0  0  0  0  0
   60.2142   27.0765   50.2890 H   0  0  0  0  0  0  0  0  0  0  0  0
   61.9433   27.5629   50.2890 H   0  0  0  0  0  0  0  0  0  0  0  0
   59.6257   28.4136   48.3522 H   0  0  0  0  0  0  0  0  0  0  0  0
  1  2  1  0
  2  3  1  0
  3  4  1  0
  4  5  1  0
  5  6  2  0
  5  7  1  0
  7  8  1  0
  8  9  1  0
  9 10  1  0
 10 11  1  0
 11 12  1  0
 12 13  2  0
 13 14  1  0
 14 15  2  0
 15 16  1  0
 16 17  2  0
 17 18  1  0
 18 19  2  0
 19 20  1  0
 19 21  1  0
 21 22  2  0
 22 23  1  0
 23 24  2  0
 24 25  1  0
 24 26  1  0
 26 27  2  0
 27 12  1  0
 18 13  1  0
 27 21  1  0
  1 28  1  0
  1 29  1  0
  1 30  1  0
  2 31  1  0
  2 32  1  0
  7 33  1  0
  7 34  1  0
  8 35  1  0
  8 36  1  0
  9 37  1  0
  9 38  1  0
 10 39  1  0
 10 40  1  0
 11 41  1  0
 14 42  1  0
 15 43  1  0
 16 44  1  0
 17 45  1  0
 20 46  1  0
 20 47  1  0
 20 48  1  0
 22 49  1  0
 23 50  1  0
 25 51  1  0
 25 52  1  0
 25 53  1  0
 26 54  1  0
M  CHG  3   4  -1   8   1  19   1
M  END
>  <UniqueID>  (23) 
23

>  <SMILES>  (23) 
CCO[N-]C(=O)C[NH2+]CCNc1c2ccccc2[n+](C)c2ccc(C)cc12

>  <Energy>  (23) 
69.72934986156343

>  <Genealogy>  (23) 
CCO[N-]C(=O)C[NH2+]CCNc1c2ccccc2[n+](C)c2ccc(C)cc12 (protonated)
CCO[N-]C(=O)C[NH2+]CCNc1c2ccccc2[n+](C)c2ccc(C)cc12 (3D coordinates assigned)
CCO[N-]C(=O)C[NH2+]CCNc1c2ccccc2[n+](C)c2ccc(C)cc12 (optimized conformer: 69.72934986156343 kcal/mol)

>  <smiles>  (23) 
CCONC(=O)CNCCNc1c2ccccc2[n+](C)c2ccc(C)cc12

>  <score_type>  (23) 
oracle

>  <origin>  (23) 
adg

>  <m_score__min__energy>  (23) 
-6.5099999999999998

>  <m_primary>  (23) 
energy

$$$$
24:0
     RDKit          3D

 48 50  0  0  0  0  0  0  0  0999 V2000
   66.3150   32.7270   50.1200 C   0  0  0  0  0  0  0  0  0  0  0  0
   64.8010   32.7360   49.9410 C   0  0  0  0  0  0  0  0  0  0  0  0
   64.4360   32.9270   48.5350 N   0  0  0  0  0  0  0  0  0  0  0  0
   63.1300   33.3590   48.1130 C   0  0  0  0  0  0  0  0  0  0  0  0
   62.1920   33.7590   49.0780 C   0  0  0  0  0  0  0  0  0  0  0  0
   60.9260   34.2120   48.6970 C   0  0  0  0  0  0  0  0  0  0  0  0
   60.5740   34.2720   47.3410 C   0  0  0  0  0  0  0  0  0  0  0  0
   59.2430   34.8460   46.9210 C   0  0  0  0  0  0  0  0  0  0  0  0
   58.1220   33.7900   46.9260 C   0  0  0  0  0  0  0  0  0  0  0  0
   58.1960   32.8870   45.7150 C   0  0  0  0  0  0  0  0  0  0  0  0
   57.8970   33.4480   44.4540 C   0  0  0  0  0  0  0  0  0  0  0  0
   57.7500   32.6400   43.3190 C   0  0  0  0  0  0  0  0  0  0  0  0
   57.8900   31.2560   43.4370 C   0  0  0  0  0  0  0  0  0  0  0  0
   58.2000   30.7370   44.6540 N   0  0  0  0  0  0  0  0  0  0  0  0
   58.3830   29.4530   45.0180 C   0  0  0  0  0  0  0  0  0  0  0  0
   58.1860   28.2650   44.1220 C   0  0  0  0  0  0  0  0  0  0  0  0
   57.7460   27.0510   44.9330 C   0  0  0  0  0  0  0  0  0  0  0  0
   58.6880   29.3340   46.3280 N   0  0  0  0  0  0  0  0  0  0  0  0
   58.6970   30.6010   46.8010 C   0  0  0  0  0  0  0  0  0  0  0  0
   59.1060   30.9070   48.2050 C   0  0  0  0  0  0  0  0  0  0  0  0
   58.3760   31.4820   45.7640 C   0  0  0  0  0  0  0  0  0  0  0  0
   61.4970   33.8440   46.3740 C   0  0  0  0  0  0  0  0  0  0  0  0
   62.7660   33.3990   46.7540 C   0  0  0  0  0  0  0  0  0  0  0  0
   66.5574   32.7256   51.1930 H   0  0  0  0  0  0  0  0  0  0  0  0
   66.7347   31.8263   49.6481 H   0  0  0  0  0  0  0  0  0  0  0  0
   66.7453   33.6226   49.6481 H   0  0  0  0  0  0  0  0  0  0  0  0
   64.3924   31.7765   50.2908 H   0  0  0  0  0  0  0  0  0  0  0  0
   64.3856   33.5700   50.5256 H   0  0  0  0  0  0  0  0  0  0  0  0
   65.1490   32.7190   47.7980 H   0  0  0  0  0  0  0  0  0  0  0  0
   62.4562   33.7154   50.1449 H   0  0  0  0  0  0  0  0  0  0  0  0
   60.2021   34.5230   49.4646 H   0  0  0  0  0  0  0  0  0  0  0  0
   58.9710   35.6536   47.6165 H   0  0  0  0  0  0  0  0  0  0  0  0
   59.3480   35.2197   45.8918 H   0  0  0  0  0  0  0  0  0  0  0  0
   58.2150   33.1762   47.8341 H   0  0  0  0  0  0  0  0  0  0  0  0
   57.1563   34.3162   46.9018 H   0  0  0  0  0  0  0  0  0  0  0  0
   57.7775   34.5376   44.3614 H   0  0  0  0  0  0  0  0  0  0  0  0
   57.5259   33.0928   42.3419 H   0  0  0  0  0  0  0  0  0  0  0  0
   57.7525   30.6004   42.5645 H   0  0  0  0  0  0  0  0  0  0  0  0
   57.4142   28.4997   43.3742 H   0  0  0  0  0  0  0  0  0  0  0  0
   59.1390   28.0334   43.6239 H   0  0  0  0  0  0  0  0  0  0  0  0
   57.8281   27.2777   46.0063 H   0  0  0  0  0  0  0  0  0  0  0  0
   56.7018   26.8058   44.6889 H   0  0  0  0  0  0  0  0  0  0  0  0
   58.3906   26.1937   44.6889 H   0  0  0  0  0  0  0  0  0  0  0  0
   58.4260   30.3983   48.9041 H   0  0  0  0  0  0  0  0  0  0  0  0
   60.1346   30.5549   48.3723 H   0  0  0  0  0  0  0  0  0  0  0  0
   59.0585   31.9932   48.3723 H   0  0  0  0  0  0  0  0  0  0  0  0
   61.2195   33.8590   45.3097 H   0  0  0  0  0  0  0  0  0  0  0  0
   63.4851   33.0779   45.9860 H   0  0  0  0  0  0  0  0  0  0  0  0
  1  2  1  0
  2  3  1  0
  3  4  1  0
  4  5  2  0
  5  6  1  0
  6  7  2  0
  7  8  1  0
  8  9  1  0
  9 10  1  0
 10 11  2  0
 11 12  1  0
 12 13  2  0
 13 14  1  0
 14 15  1  0
 15 16  1  0
 16 17  1  0
 15 18  2  0
 18 19  1  0
 19 20  1  0
 19 21  2  0
  7 22  1  0
 22 23  2  0
 23  4  1  0
 21 10  1  0
 21 14  1  0
  1 24  1  0
  1 25  1  0
  1 26  1  0
  2 27  1  0
  2 28  1  0
  3 29  1  0
  5 30  1  0
  6 31  1  0
  8 32  1  0
  8 33  1  0
  9 34  1  0
  9 35  1  0
 11 36  1  0
 12 37  1  0
 13 38  1  0
 16 39  1  0
 16 40  1  0
 17 41  1  0
 17 42  1  0
 17 43  1  0
 20 44  1  0
 20 45  1  0
 20 46  1  0
 22 47  1  0
 23 48  1  0
M  END
>  <UniqueID>  (24) 
24

>  <SMILES>  (24) 
CCNc1ccc(CCc2cccn3c(CC)nc(C)c23)cc1

>  <Energy>  (24) 
76.67788123630729

>  <Genealogy>  (24) 
CCNc1ccc(CCc2cccn3c(CC)nc(C)c23)cc1 (3D coordinates assigned)
CCNc1ccc(CCc2cccn3c(CC)nc(C)c23)cc1 (optimized conformer: 76.67788123630729 kcal/mol)

>  <smiles>  (24) 
CCNc1ccc(CCc2cccn3c(CC)nc(C)c23)cc1

>  <score_type>  (24) 
oracle

>  <origin>  (24) 
adg

>  <m_score__min__energy>  (24) 
-7.7999999999999998

>  <m_primary>  (24) 
energy

$$$$
25:0
     RDKit          3D

 57 59  0  0  0  0  0  0  0  0999 V2000
   59.2580   29.6650   47.8250 C   0  0  0  0  0  0  0  0  0  0  0  0
   60.4110   30.0050   46.8820 C   0  0  0  0  0  0  0  0  0  0  0  0
   60.2920   29.3220   45.5090 C   0  0  0  0  0  0  0  0  0  0  0  0
   58.8350   29.1210   45.0380 C   0  0  0  0  0  0  0  0  0  0  0  0
   58.4560   30.1150   44.0170 N   0  0  0  0  0  0  0  0  0  0  0  0
   57.1270   30.7030   44.2680 C   0  0  0  0  0  0  0  0  0  0  0  0
   57.1800   32.1190   44.8800 C   0  0  0  0  0  0  0  0  0  0  0  0
   58.5010   32.6160   44.9750 O   0  0  0  0  0  0  0  0  0  0  0  0
   58.4950   34.0130   45.1840 C   0  0  0  0  0  0  0  0  0  0  0  0
   58.7670   34.2900   46.6580 C   0  0  0  0  0  0  0  0  0  0  0  0
   59.0110   33.0390   47.3750 N   0  0  0  0  0  0  0  0  0  0  0  0
   59.9390   32.9920   48.4730 C   0  0  0  0  0  0  0  0  0  0  0  0
   61.3140   33.1910   48.2520 C   0  0  0  0  0  0  0  0  0  0  0  0
   61.8200   33.3830   46.9470 C   0  0  0  0  0  0  0  0  0  0  0  0
   63.1870   33.5370   46.7300 C   0  0  0  0  0  0  0  0  0  0  0  0
   64.0710   33.4920   47.7990 C   0  0  0  0  0  0  0  0  0  0  0  0
   63.5930   33.3270   49.0990 C   0  0  0  0  0  0  0  0  0  0  0  0
   62.2040   33.2120   49.3600 C   0  0  0  0  0  0  0  0  0  0  0  0
   61.7110   33.1140   50.6480 N   0  0  0  0  0  0  0  0  0  0  0  0
   62.5830   33.4360   51.8000 C   0  0  0  0  0  0  0  0  0  0  0  0
   60.3970   32.7400   50.8590 C   0  0  0  0  0  0  0  0  0  0  0  0
   59.9250   32.3660   52.1430 C   0  0  0  0  0  0  0  0  0  0  0  0
   58.5870   32.0210   52.3480 C   0  0  0  0  0  0  0  0  0  0  0  0
   58.0320   31.5680   53.9500 Cl  0  0  0  0  0  0  0  0  0  0  0  0
   57.6960   32.0190   51.2800 C   0  0  0  0  0  0  0  0  0  0  0  0
   58.1380   32.3440   50.0010 C   0  0  0  0  0  0  0  0  0  0  0  0
   59.4840   32.7020   49.7720 C   0  0  0  0  0  0  0  0  0  0  0  0
   59.5953   29.7645   48.8673 H   0  0  0  0  0  0  0  0  0  0  0  0
   58.4203   30.3544   47.6433 H   0  0  0  0  0  0  0  0  0  0  0  0
   58.9283   28.6314   47.6433 H   0  0  0  0  0  0  0  0  0  0  0  0
   60.4290   31.0943   46.7303 H   0  0  0  0  0  0  0  0  0  0  0  0
   61.3359   29.6379   47.3508 H   0  0  0  0  0  0  0  0  0  0  0  0
   60.8143   29.9429   44.7662 H   0  0  0  0  0  0  0  0  0  0  0  0
   60.7378   28.3213   45.6088 H   0  0  0  0  0  0  0  0  0  0  0  0
   58.7333   28.1126   44.6104 H   0  0  0  0  0  0  0  0  0  0  0  0
   58.1709   29.2467   45.9059 H   0  0  0  0  0  0  0  0  0  0  0  0
   59.1530   30.8970   44.0420 H   0  0  0  0  0  0  0  0  0  0  0  0
   58.4870   29.6970   43.0600 H   0  0  0  0  0  0  0  0  0  0  0  0
   56.5855   30.7580   43.3121 H   0  0  0  0  0  0  0  0  0  0  0  0
   56.6222   30.0554   45.0000 H   0  0  0  0  0  0  0  0  0  0  0  0
   56.5911   32.7995   44.2475 H   0  0  0  0  0  0  0  0  0  0  0  0
   56.7697   32.0597   45.8989 H   0  0  0  0  0  0  0  0  0  0  0  0
   59.2771   34.4822   44.5691 H   0  0  0  0  0  0  0  0  0  0  0  0
   57.5174   34.4294   44.8995 H   0  0  0  0  0  0  0  0  0  0  0  0
   59.6515   34.9378   46.7479 H   0  0  0  0  0  0  0  0  0  0  0  0
   57.8887   34.7868   47.0958 H   0  0  0  0  0  0  0  0  0  0  0  0
   58.7200   32.1450   46.9190 H   0  0  0  0  0  0  0  0  0  0  0  0
   61.1269   33.4112   46.0933 H   0  0  0  0  0  0  0  0  0  0  0  0
   63.5667   33.6946   45.7097 H   0  0  0  0  0  0  0  0  0  0  0  0
   65.1523   33.5868   47.6205 H   0  0  0  0  0  0  0  0  0  0  0  0
   64.3057   33.2854   49.9359 H   0  0  0  0  0  0  0  0  0  0  0  0
   62.0419   33.2362   52.7366 H   0  0  0  0  0  0  0  0  0  0  0  0
   63.4887   32.8130   51.7597 H   0  0  0  0  0  0  0  0  0  0  0  0
   62.8664   34.4981   51.7597 H   0  0  0  0  0  0  0  0  0  0  0  0
   60.6244   32.3473   52.9918 H   0  0  0  0  0  0  0  0  0  0  0  0
   56.6400   31.7600   51.4466 H   0  0  0  0  0  0  0  0  0  0  0  0
   57.4304   32.3216   49.1591 H   0  0  0  0  0  0  0  0  0  0  0  0
  1  2  1  0
  2  3  1  0
  3  4  1  0
  4  5  1  0
  5  6  1  0
  6  7  1  0
  7  8  1  0
  8  9  1  0
  9 10  1  0
 10 11  1  0
 11 12  1  0
 12 13  2  0
 13 14  1  0
 14 15  2  0
 15 16  1  0
 16 17  2  0
 17 18  1  0
 18 19  2  0
 19 20  1  0
 19 21  1  0
 21 22  2  0
 22 23  1  0
 23 24  1  0
 23 25  2  0
 25 26  1  0
 26 27  2  0
 27 12  1  0
 18 13  1  0
 27 21  1  0
  1 28  1  0
  1 29  1  0
  1 30  1  0
  2 31  1  0
  2 32  1  0
  3 33  1  0
  3 34  1  0
  4 35  1  0
  4 36  1  0
  5 37  1  0
  5 38  1  0
  6 39  1  0
  6 40  1  0
  7 41  1  0
  7 42  1  0
  9 43  1  0
  9 44  1  0
 10 45  1  0
 10 46  1  0
 11 47  1  0
 14 48  1  0
 15 49  1  0
 16 50  1  0
 17 51  1  0
 20 52  1  0
 20 53  1  0
 20 54  1  0
 22 55  1  0
 25 56  1  0
 26 57  1  0
M  CHG  2   5   1  19   1
M  END
>  <UniqueID>  (25) 
25

>  <SMILES>  (25) 
CCCC[NH2+]CCOCCNc1c2ccccc2[n+](C)c2cc(Cl)ccc12

>  <Energy>  (25) 
78.45778678354199

>  <Genealogy>  (25) 
CCCC[NH2+]CCOCCNc1c2ccccc2[n+](C)c2cc(Cl)ccc12 (protonated)
CCCC[NH2+]CCOCCNc1c2ccccc2[n+](C)c2cc(Cl)ccc12 (3D coordinates assigned)
CCCC[NH2+]CCOCCNc1c2ccccc2[n+](C)c2cc(Cl)ccc12 (optimized conformer: 78.45778678354199 kcal/mol)

>  <smiles>  (25) 
CCCCNCCOCCNc1c2ccccc2[n+](C)c2cc(Cl)ccc12

>  <score_type>  (25) 
oracle

>  <origin>  (25) 
adg

>  <m_score__min__energy>  (25) 
-4.3099999999999996

>  <m_primary>  (25) 
energy

$$$$
26:0
     RDKit          3D

 43 45  0  0  0  0  0  0  0  0999 V2000
   55.5710   29.7470   43.5900 C   0  0  0  0  0  0  0  0  0  0  0  0
   56.5900   30.3830   42.6340 C   0  0  0  0  0  0  0  0  0  0  0  0
   57.5740   31.2560   43.3120 N   0  0  0  0  0  0  0  0  0  0  0  0
   57.9750   32.4230   42.4890 C   0  0  0  0  0  0  0  0  0  0  0  0
   57.3980   32.2990   41.0850 C   0  0  0  0  0  0  0  0  0  0  0  0
   57.1460   31.6310   44.6780 C   0  0  0  0  0  0  0  0  0  0  0  0
   58.2710   31.5130   45.6150 N   0  0  0  0  0  0  0  0  0  0  0  0
   58.8830   30.3600   46.0070 C   0  0  0  0  0  0  0  0  0  0  0  0
   58.5080   29.0060   45.5560 C   0  0  0  0  0  0  0  0  0  0  0  0
   57.7970   28.1540   46.4170 C   0  0  0  0  0  0  0  0  0  0  0  0
   57.4570   26.8620   46.0070 C   0  0  0  0  0  0  0  0  0  0  0  0
   57.8140   26.4150   44.7310 C   0  0  0  0  0  0  0  0  0  0  0  0
   57.3510   24.6480   44.1730 Br  0  0  0  0  0  0  0  0  0  0  0  0
   58.5050   27.2650   43.8610 C   0  0  0  0  0  0  0  0  0  0  0  0
   58.8470   28.5580   44.2690 C   0  0  0  0  0  0  0  0  0  0  0  0
   59.9860   30.6330   46.8110 C   0  0  0  0  0  0  0  0  0  0  0  0
   60.0240   32.0030   46.9170 C   0  0  0  0  0  0  0  0  0  0  0  0
   60.9300   32.8240   47.5870 C   0  0  0  0  0  0  0  0  0  0  0  0
   60.7480   34.2140   47.4990 C   0  0  0  0  0  0  0  0  0  0  0  0
   59.6810   34.7470   46.7460 C   0  0  0  0  0  0  0  0  0  0  0  0
   58.7840   33.8970   46.0740 C   0  0  0  0  0  0  0  0  0  0  0  0
   58.9800   32.5130   46.1840 C   0  0  0  0  0  0  0  0  0  0  0  0
   55.8755   29.9370   44.6298 H   0  0  0  0  0  0  0  0  0  0  0  0
   54.5781   30.1860   43.4126 H   0  0  0  0  0  0  0  0  0  0  0  0
   55.5292   28.6622   43.4126 H   0  0  0  0  0  0  0  0  0  0  0  0
   57.1354   29.5772   42.1209 H   0  0  0  0  0  0  0  0  0  0  0  0
   56.0245   31.0166   41.9349 H   0  0  0  0  0  0  0  0  0  0  0  0
   57.5980   33.3444   42.9568 H   0  0  0  0  0  0  0  0  0  0  0  0
   59.0726   32.4568   42.4245 H   0  0  0  0  0  0  0  0  0  0  0  0
   56.3244   32.0683   41.1489 H   0  0  0  0  0  0  0  0  0  0  0  0
   57.5377   33.2477   40.5460 H   0  0  0  0  0  0  0  0  0  0  0  0
   57.9152   31.4915   40.5460 H   0  0  0  0  0  0  0  0  0  0  0  0
   56.7855   32.6702   44.6729 H   0  0  0  0  0  0  0  0  0  0  0  0
   56.3404   30.9543   44.9990 H   0  0  0  0  0  0  0  0  0  0  0  0
   57.5066   28.5052   47.4182 H   0  0  0  0  0  0  0  0  0  0  0  0
   56.9079   26.1959   46.6888 H   0  0  0  0  0  0  0  0  0  0  0  0
   58.7797   26.9158   42.8547 H   0  0  0  0  0  0  0  0  0  0  0  0
   59.3834   29.2265   43.5795 H   0  0  0  0  0  0  0  0  0  0  0  0
   60.6784   29.9082   47.2641 H   0  0  0  0  0  0  0  0  0  0  0  0
   61.7615   32.3965   48.1665 H   0  0  0  0  0  0  0  0  0  0  0  0
   61.4413   34.8906   48.0201 H   0  0  0  0  0  0  0  0  0  0  0  0
   59.5491   35.8373   46.6837 H   0  0  0  0  0  0  0  0  0  0  0  0
   57.9535   34.3059   45.4799 H   0  0  0  0  0  0  0  0  0  0  0  0
  1  2  1  0
  2  3  1  0
  3  4  1  0
  4  5  1  0
  3  6  1  0
  6  7  1  0
  7  8  1  0
  8  9  1  0
  9 10  2  0
 10 11  1  0
 11 12  2  0
 12 13  1  0
 12 14  1  0
 14 15  2  0
  8 16  2  0
 16 17  1  0
 17 18  2  0
 18 19  1  0
 19 20  2  0
 20 21  1  0
 21 22  2  0
 22  7  1  0
 15  9  1  0
 22 17  1  0
  1 23  1  0
  1 24  1  0
  1 25  1  0
  2 26  1  0
  2 27  1  0
  4 28  1  0
  4 29  1  0
  5 30  1  0
  5 31  1  0
  5 32  1  0
  6 33  1  0
  6 34  1  0
 10 35  1  0
 11 36  1  0
 14 37  1  0
 15 38  1  0
 16 39  1  0
 18 40  1  0
 19 41  1  0
 20 42  1  0
 21 43  1  0
M  END
>  <UniqueID>  (26) 
26

>  <SMILES>  (26) 
CCN(CC)Cn1c(-c2ccc(Br)cc2)cc2ccccc21

>  <Energy>  (26) 
83.05978169743335

>  <Genealogy>  (26) 
CCN(CC)Cn1c(-c2ccc(Br)cc2)cc2ccccc21 (3D coordinates assigned)
CCN(CC)Cn1c(-c2ccc(Br)cc2)cc2ccccc21 (optimized conformer: 83.05978169743335 kcal/mol)

>  <smiles>  (26) 
CCN(CC)Cn1c(-c2ccc(Br)cc2)cc2ccccc21

>  <score_type>  (26) 
oracle

>  <origin>  (26) 
adg

>  <m_score__min__energy>  (26) 
-7.6699999999999999

>  <m_primary>  (26) 
energy

$$$$
27:0
     RDKit          3D

 49 51  0  0  0  0  0  0  0  0999 V2000
   63.3690   33.8740   46.4380 C   0  0  0  0  0  0  0  0  0  0  0  0
   63.4790   32.5150   47.1120 C   0  0  0  0  0  0  0  0  0  0  0  0
   62.6670   32.5030   48.2660 O   0  0  0  0  0  0  0  0  0  0  0  0
   63.1320   33.4740   49.1790 C   0  0  0  0  0  0  0  0  0  0  0  0
   61.9450   34.2280   49.7640 C   0  0  0  0  0  0  0  0  0  0  0  0
   60.7910   33.4190   49.6760 O   0  0  0  0  0  0  0  0  0  0  0  0
   59.6690   34.2280   49.3940 C   0  0  0  0  0  0  0  0  0  0  0  0
   59.3350   34.1310   47.9060 C   0  0  0  0  0  0  0  0  0  0  0  0
   60.2060   33.1650   47.2350 N   0  0  0  0  0  0  0  0  0  0  0  0
   59.7270   31.8730   46.8290 C   0  0  0  0  0  0  0  0  0  0  0  0
   58.9780   31.7240   45.6500 C   0  0  0  0  0  0  0  0  0  0  0  0
   58.5460   32.8530   44.9210 C   0  0  0  0  0  0  0  0  0  0  0  0
   57.7710   32.7060   43.7740 C   0  0  0  0  0  0  0  0  0  0  0  0
   57.3930   31.4380   43.3470 C   0  0  0  0  0  0  0  0  0  0  0  0
   57.8000   30.3080   44.0560 C   0  0  0  0  0  0  0  0  0  0  0  0
   58.6190   30.4220   45.2080 C   0  0  0  0  0  0  0  0  0  0  0  0
   59.0490   29.3100   45.9090 N   0  0  0  0  0  0  0  0  0  0  0  0
   58.9280   27.9630   45.3120 C   0  0  0  0  0  0  0  0  0  0  0  0
   59.6050   29.4630   47.1660 C   0  0  0  0  0  0  0  0  0  0  0  0
   59.8160   28.3650   48.0330 C   0  0  0  0  0  0  0  0  0  0  0  0
   60.4200   28.5450   49.2740 C   0  0  0  0  0  0  0  0  0  0  0  0
   60.8020   29.8190   49.6690 C   0  0  0  0  0  0  0  0  0  0  0  0
   60.5700   30.8860   48.8610 N   0  0  0  0  0  0  0  0  0  0  0  0
   59.9750   30.7490   47.6350 C   0  0  0  0  0  0  0  0  0  0  0  0
   63.3054   34.6597   47.2052 H   0  0  0  0  0  0  0  0  0  0  0  0
   64.2562   34.0450   45.8107 H   0  0  0  0  0  0  0  0  0  0  0  0
   62.4658   33.9001   45.8107 H   0  0  0  0  0  0  0  0  0  0  0  0
   63.1427   31.7313   46.4172 H   0  0  0  0  0  0  0  0  0  0  0  0
   64.5252   32.3256   47.3940 H   0  0  0  0  0  0  0  0  0  0  0  0
   63.6880   32.9795   49.9891 H   0  0  0  0  0  0  0  0  0  0  0  0
   63.7953   34.1802   48.6581 H   0  0  0  0  0  0  0  0  0  0  0  0
   62.1457   34.4689   50.8184 H   0  0  0  0  0  0  0  0  0  0  0  0
   61.7862   35.1601   49.2018 H   0  0  0  0  0  0  0  0  0  0  0  0
   58.8091   33.8824   49.9865 H   0  0  0  0  0  0  0  0  0  0  0  0
   59.8949   35.2730   49.6527 H   0  0  0  0  0  0  0  0  0  0  0  0
   58.2886   33.8115   47.7923 H   0  0  0  0  0  0  0  0  0  0  0  0
   59.4883   35.1189   47.4472 H   0  0  0  0  0  0  0  0  0  0  0  0
   61.1860   33.4410   46.9960 H   0  0  0  0  0  0  0  0  0  0  0  0
   58.8250   33.8605   45.2632 H   0  0  0  0  0  0  0  0  0  0  0  0
   57.4574   33.5937   43.2051 H   0  0  0  0  0  0  0  0  0  0  0  0
   56.7708   31.3256   42.4469 H   0  0  0  0  0  0  0  0  0  0  0  0
   57.4804   29.3119   43.7159 H   0  0  0  0  0  0  0  0  0  0  0  0
   58.8605   27.2118   46.1127 H   0  0  0  0  0  0  0  0  0  0  0  0
   58.0222   27.9178   44.6895 H   0  0  0  0  0  0  0  0  0  0  0  0
   59.8113   27.7571   44.6895 H   0  0  0  0  0  0  0  0  0  0  0  0
   59.4993   27.3582   47.7230 H   0  0  0  0  0  0  0  0  0  0  0  0
   60.5931   27.6840   49.9364 H   0  0  0  0  0  0  0  0  0  0  0  0
   61.2951   29.9657   50.6413 H   0  0  0  0  0  0  0  0  0  0  0  0
   60.8490   31.8230   49.2240 H   0  0  0  0  0  0  0  0  0  0  0  0
  1  2  1  0
  2  3  1  0
  3  4  1  0
  4  5  1  0
  5  6  1  0
  6  7  1  0
  7  8  1  0
  8  9  1  0
  9 10  1  0
 10 11  2  0
 11 12  1  0
 12 13  2  0
 13 14  1  0
 14 15  2  0
 15 16  1  0
 16 17  2  0
 17 18  1  0
 17 19  1  0
 19 20  2  0
 20 21  1  0
 21 22  2  0
 22 23  1  0
 23 24  2  0
 24 10  1  0
 16 11  1  0
 24 19  1  0
  1 25  1  0
  1 26  1  0
  1 27  1  0
  2 28  1  0
  2 29  1  0
  4 30  1  0
  4 31  1  0
  5 32  1  0
  5 33  1  0
  7 34  1  0
  7 35  1  0
  8 36  1  0
  8 37  1  0
  9 38  1  0
 12 39  1  0
 13 40  1  0
 14 41  1  0
 15 42  1  0
 18 43  1  0
 18 44  1  0
 18 45  1  0
 20 46  1  0
 21 47  1  0
 22 48  1  0
 23 49  1  0
M  CHG  2  17   1  23   1
M  END
>  <UniqueID>  (27) 
27

>  <SMILES>  (27) 
CCOCCOCCNc1c2ccccc2[n+](C)c2ccc[nH+]c12

>  <Energy>  (27) 
68.05208861898517

>  <Genealogy>  (27) 
CCOCCOCCNc1c2ccccc2[n+](C)c2ccc[nH+]c12 (protonated)
CCOCCOCCNc1c2ccccc2[n+](C)c2ccc[nH+]c12 (3D coordinates assigned)
CCOCCOCCNc1c2ccccc2[n+](C)c2ccc[nH+]c12 (optimized conformer: 68.05208861898517 kcal/mol)

>  <smiles>  (27) 
CCOCCOCCNc1c2ccccc2[n+](C)c2cccnc12

>  <score_type>  (27) 
oracle

>  <origin>  (27) 
adg

>  <m_score__min__energy>  (27) 
-3.5600000000000001

>  <m_primary>  (27) 
energy

$$$$
28:0
     RDKit          3D

 86 88  0  0  0  0  0  0  0  0999 V2000
   54.5970   30.8330   51.9310 C   0  0  0  0  0  0  0  0  0  0  0  0
   55.2790   29.6870   52.6740 C   0  0  0  0  0  0  0  0  0  0  0  0
   56.5120   29.3640   52.0590 O   0  0  0  0  0  0  0  0  0  0  0  0
   57.3120   30.5170   51.8580 C   0  0  0  0  0  0  0  0  0  0  0  0
   58.5690   30.1540   51.0720 C   0  0  0  0  0  0  0  0  0  0  0  0
   58.4160   30.5400   49.7200 O   0  0  0  0  0  0  0  0  0  0  0  0
   58.8520   29.5020   48.8610 C   0  0  0  0  0  0  0  0  0  0  0  0
   60.1530   29.9130   48.1600 C   0  0  0  0  0  0  0  0  0  0  0  0
   59.8780   30.6140   46.9590 O   0  0  0  0  0  0  0  0  0  0  0  0
   60.3050   29.8780   45.8250 C   0  0  0  0  0  0  0  0  0  0  0  0
   59.6090   28.5000   45.7560 C   0  0  2  0  0  0  0  0  0  0  0  0
   60.6470   27.3870   45.9800 C   0  0  0  0  0  0  0  0  0  0  0  0
   58.8820   28.3230   44.4040 C   0  0  0  0  0  0  0  0  0  0  0  0
   57.6610   27.5140   44.5660 N   0  0  0  0  0  0  0  0  0  0  0  0
   56.5770   28.2520   45.2390 C   0  0  0  0  0  0  0  0  0  0  0  0
   55.8930   29.3400   44.3680 C   0  0  0  0  0  0  0  0  0  0  0  0
   56.2770   30.7230   44.7000 N   0  0  0  0  0  0  0  0  0  0  0  0
   57.2490   31.2860   43.7550 C   0  0  0  0  0  0  0  0  0  0  0  0
   58.2250   32.2270   44.4790 C   0  0  0  0  0  0  0  0  0  0  0  0
   57.9600   32.3220   45.9270 N   0  0  0  0  0  0  0  0  0  0  0  0
   57.6180   33.6850   46.3610 C   0  0  0  0  0  0  0  0  0  0  0  0
   58.5030   34.1380   47.5320 C   0  0  0  0  0  0  0  0  0  0  0  0
   59.1190   32.9970   48.2170 N   0  0  0  0  0  0  0  0  0  0  0  0
   60.2430   33.1480   49.1030 C   0  0  0  0  0  0  0  0  0  0  0  0
   61.5470   33.2200   48.5800 C   0  0  0  0  0  0  0  0  0  0  0  0
   61.7680   33.2580   47.1870 C   0  0  0  0  0  0  0  0  0  0  0  0
   63.0580   33.3800   46.6740 C   0  0  0  0  0  0  0  0  0  0  0  0
   64.1450   33.4670   47.5360 C   0  0  0  0  0  0  0  0  0  0  0  0
   63.9520   33.4010   48.9160 C   0  0  0  0  0  0  0  0  0  0  0  0
   62.6550   33.2430   49.4670 C   0  0  0  0  0  0  0  0  0  0  0  0
   62.4560   33.1240   50.8290 N   0  0  0  0  0  0  0  0  0  0  0  0
   63.5980   32.8290   51.7220 C   0  0  0  0  0  0  0  0  0  0  0  0
   61.1830   33.2630   51.3530 C   0  0  0  0  0  0  0  0  0  0  0  0
   60.9660   33.4390   52.7430 C   0  0  0  0  0  0  0  0  0  0  0  0
   59.6760   33.5640   53.2580 C   0  0  0  0  0  0  0  0  0  0  0  0
   58.5760   33.5400   52.4090 C   0  0  0  0  0  0  0  0  0  0  0  0
   58.7580   33.3990   51.0350 C   0  0  0  0  0  0  0  0  0  0  0  0
   60.0530   33.2560   50.4910 C   0  0  0  0  0  0  0  0  0  0  0  0
   54.1751   31.5420   52.6585 H   0  0  0  0  0  0  0  0  0  0  0  0
   55.3341   31.3507   51.2996 H   0  0  0  0  0  0  0  0  0  0  0  0
   53.7904   30.4321   51.2996 H   0  0  0  0  0  0  0  0  0  0  0  0
   55.4618   29.9887   53.7159 H   0  0  0  0  0  0  0  0  0  0  0  0
   54.6241   28.8037   52.6453 H   0  0  0  0  0  0  0  0  0  0  0  0
   56.7353   31.2662   51.2958 H   0  0  0  0  0  0  0  0  0  0  0  0
   57.6051   30.9262   52.8361 H   0  0  0  0  0  0  0  0  0  0  0  0
   59.4345   30.6766   51.5054 H   0  0  0  0  0  0  0  0  0  0  0  0
   58.7288   29.0669   51.1238 H   0  0  0  0  0  0  0  0  0  0  0  0
   59.0284   28.5907   49.4512 H   0  0  0  0  0  0  0  0  0  0  0  0
   58.0780   29.3115   48.1030 H   0  0  0  0  0  0  0  0  0  0  0  0
   60.7348   30.5619   48.8312 H   0  0  0  0  0  0  0  0  0  0  0  0
   60.7238   29.0050   47.9155 H   0  0  0  0  0  0  0  0  0  0  0  0
   60.0627   30.4478   44.9158 H   0  0  0  0  0  0  0  0  0  0  0  0
   61.3900   29.7156   45.9046 H   0  0  0  0  0  0  0  0  0  0  0  0
   58.8500   28.4378   46.5498 H   0  0  0  0  0  0  0  0  0  0  0  0
   60.7914   27.2322   47.0594 H   0  0  0  0  0  0  0  0  0  0  0  0
   60.2891   26.4539   45.5204 H   0  0  0  0  0  0  0  0  0  0  0  0
   61.6027   27.6791   45.5204 H   0  0  0  0  0  0  0  0  0  0  0  0
   58.6086   29.3128   44.0097 H   0  0  0  0  0  0  0  0  0  0  0  0
   59.5571   27.8051   43.7069 H   0  0  0  0  0  0  0  0  0  0  0  0
   57.3240   27.1690   43.6390 H   0  0  0  0  0  0  0  0  0  0  0  0
   55.8090   27.5271   45.5468 H   0  0  0  0  0  0  0  0  0  0  0  0
   57.0401   28.7790   46.0862 H   0  0  0  0  0  0  0  0  0  0  0  0
   56.1571   29.1537   43.3165 H   0  0  0  0  0  0  0  0  0  0  0  0
   54.8132   29.2613   44.5624 H   0  0  0  0  0  0  0  0  0  0  0  0
   56.6480   30.7740   45.6760 H   0  0  0  0  0  0  0  0  0  0  0  0
   57.8157   30.4668   43.2884 H   0  0  0  0  0  0  0  0  0  0  0  0
   56.7071   31.8590   42.9882 H   0  0  0  0  0  0  0  0  0  0  0  0
   59.2486   31.8516   44.3330 H   0  0  0  0  0  0  0  0  0  0  0  0
   58.0940   33.2322   44.0519 H   0  0  0  0  0  0  0  0  0  0  0  0
   58.7840   31.9880   46.4780 H   0  0  0  0  0  0  0  0  0  0  0  0
   57.7599   34.3758   45.5168 H   0  0  0  0  0  0  0  0  0  0  0  0
   56.5704   33.6893   46.6964 H   0  0  0  0  0  0  0  0  0  0  0  0
   59.2974   34.7938   47.1461 H   0  0  0  0  0  0  0  0  0  0  0  0
   57.8692   34.6719   48.2554 H   0  0  0  0  0  0  0  0  0  0  0  0
   58.6670   32.0590   48.1340 H   0  0  0  0  0  0  0  0  0  0  0  0
   60.9128   33.1906   46.4984 H   0  0  0  0  0  0  0  0  0  0  0  0
   63.2162   33.4075   45.5858 H   0  0  0  0  0  0  0  0  0  0  0  0
   65.1597   33.5882   47.1290 H   0  0  0  0  0  0  0  0  0  0  0  0
   64.8201   33.4727   49.5877 H   0  0  0  0  0  0  0  0  0  0  0  0
   63.2749   32.9125   52.7702 H   0  0  0  0  0  0  0  0  0  0  0  0
   63.9595   31.8080   51.5299 H   0  0  0  0  0  0  0  0  0  0  0  0
   64.4087   33.5472   51.5299 H   0  0  0  0  0  0  0  0  0  0  0  0
   61.8279   33.4775   53.4254 H   0  0  0  0  0  0  0  0  0  0  0  0
   59.5284   33.6822   54.3416 H   0  0  0  0  0  0  0  0  0  0  0  0
   57.5608   33.6324   52.8222 H   0  0  0  0  0  0  0  0  0  0  0  0
   57.8839   33.3991   50.3672 H   0  0  0  0  0  0  0  0  0  0  0  0
  1  2  1  0
  2  3  1  0
  3  4  1  0
  4  5  1  0
  5  6  1  0
  6  7  1  0
  7  8  1  0
  8  9  1  0
  9 10  1  0
 10 11  1  0
 11 12  1  0
 11 13  1  0
 13 14  1  0
 14 15  1  0
 15 16  1  0
 16 17  1  0
 17 18  1  0
 18 19  1  0
 19 20  1  0
 20 21  1  0
 21 22  1  0
 22 23  1  0
 23 24  1  0
 24 25  2  0
 25 26  1  0
 26 27  2  0
 27 28  1  0
 28 29  2  0
 29 30  1  0
 30 31  2  0
 31 32  1  0
 31 33  1  0
 33 34  2  0
 34 35  1  0
 35 36  2  0
 36 37  1  0
 37 38  2  0
 38 24  1  0
 30 25  1  0
 38 33  1  0
  1 39  1  0
  1 40  1  0
  1 41  1  0
  2 42  1  0
  2 43  1  0
  4 44  1  0
  4 45  1  0
  5 46  1  0
  5 47  1  0
  7 48  1  0
  7 49  1  0
  8 50  1  0
  8 51  1  0
 10 52  1  0
 10 53  1  0
 11 54  1  1
 12 55  1  0
 12 56  1  0
 12 57  1  0
 13 58  1  0
 13 59  1  0
 14 60  1  0
 15 61  1  0
 15 62  1  0
 16 63  1  0
 16 64  1  0
 17 65  1  0
 18 66  1  0
 18 67  1  0
 19 68  1  0
 19 69  1  0
 20 70  1  0
 21 71  1  0
 21 72  1  0
 22 73  1  0
 22 74  1  0
 23 75  1  0
 26 76  1  0
 27 77  1  0
 28 78  1  0
 29 79  1  0
 32 80  1  0
 32 81  1  0
 32 82  1  0
 34 83  1  0
 35 84  1  0
 36 85  1  0
 37 86  1  0
M  CHG  1  31   1
M  END
>  <UniqueID>  (28) 
28

>  <SMILES>  (28) 
CCOCCOCCOC[C@H](C)CNCCNCCNCCNc1c2ccccc2[n+](C)c2ccccc12

>  <Energy>  (28) 
110.15090942320913

>  <Genealogy>  (28) 
CCOCCOCCOC[C@H](C)CNCCNCCNCCNc1c2ccccc2[n+](C)c2ccccc12 (chirality)
CCOCCOCCOC[C@H](C)CNCCNCCNCCNc1c2ccccc2[n+](C)c2ccccc12 (3D coordinates assigned)
CCOCCOCCOC[C@H](C)CNCCNCCNCCNc1c2ccccc2[n+](C)c2ccccc12 (optimized conformer: 110.15090942320913 kcal/mol)

>  <smiles>  (28) 
CCOCCOCCOCC(C)CNCCNCCNCCNc1c2ccccc2[n+](C)c2ccccc12

>  <score_type>  (28) 
oracle

>  <origin>  (28) 
adg

>  <m_score__min__energy>  (28) 
-7

>  <m_primary>  (28) 
energy

$$$$
29:0
     RDKit          3D

 65 67  0  0  0  0  0  0  0  0999 V2000
   60.0130   34.8350   47.4380 C   0  0  0  0  0  0  0  0  0  0  0  0
   60.8890   34.3790   48.6010 C   0  0  0  0  0  0  0  0  0  0  0  0
   61.6800   33.1890   48.2110 N   0  0  0  0  0  0  0  0  0  0  0  0
   62.2100   33.3220   46.8340 C   0  0  0  0  0  0  0  0  0  0  0  0
   63.7300   33.1780   46.8280 C   0  0  0  0  0  0  0  0  0  0  0  0
   62.7590   32.9190   49.1900 C   0  0  0  0  0  0  0  0  0  0  0  0
   62.1940   32.2050   50.3430 N   0  0  0  0  0  0  0  0  0  0  0  0
   62.0070   33.0940   51.5000 C   0  0  0  0  0  0  0  0  0  0  0  0
   60.5360   33.1310   51.9410 C   0  0  0  0  0  0  0  0  0  0  0  0
   59.7980   32.1810   51.1990 O   0  0  0  0  0  0  0  0  0  0  0  0
   58.5750   32.7280   50.7510 C   0  0  0  0  0  0  0  0  0  0  0  0
   58.3400   32.3520   49.2850 C   0  0  0  0  0  0  0  0  0  0  0  0
   59.4820   31.6880   48.6430 N   0  0  0  0  0  0  0  0  0  0  0  0
   59.3970   30.7870   47.5250 C   0  0  0  0  0  0  0  0  0  0  0  0
   58.7700   31.2140   46.3410 C   0  0  0  0  0  0  0  0  0  0  0  0
   58.2610   32.5270   46.2280 C   0  0  0  0  0  0  0  0  0  0  0  0
   57.5990   32.9400   45.0760 C   0  0  0  0  0  0  0  0  0  0  0  0
   57.4040   32.0470   44.0310 C   0  0  0  0  0  0  0  0  0  0  0  0
   57.8910   30.7440   44.1200 C   0  0  0  0  0  0  0  0  0  0  0  0
   58.6230   30.3110   45.2570 C   0  0  0  0  0  0  0  0  0  0  0  0
   59.1720   29.0460   45.3300 N   0  0  0  0  0  0  0  0  0  0  0  0
   59.2650   28.2040   44.1140 C   0  0  0  0  0  0  0  0  0  0  0  0
   59.6510   28.5650   46.5370 C   0  0  0  0  0  0  0  0  0  0  0  0
   59.9850   27.1970   46.6970 C   0  0  0  0  0  0  0  0  0  0  0  0
   60.5200   26.7200   47.8860 C   0  0  0  0  0  0  0  0  0  0  0  0
   60.7220   27.5740   48.9560 C   0  0  0  0  0  0  0  0  0  0  0  0
   60.3640   28.9290   48.8680 C   0  0  0  0  0  0  0  0  0  0  0  0
   60.5580   29.7810   49.9700 O   0  0  0  0  0  0  0  0  0  0  0  0
   61.0580   29.3810   51.2420 C   0  0  0  0  0  0  0  0  0  0  0  0
   59.8040   29.4370   47.6550 C   0  0  0  0  0  0  0  0  0  0  0  0
   59.1013   35.3096   47.8298 H   0  0  0  0  0  0  0  0  0  0  0  0
   60.5678   35.5588   46.8229 H   0  0  0  0  0  0  0  0  0  0  0  0
   59.7384   33.9654   46.8229 H   0  0  0  0  0  0  0  0  0  0  0  0
   61.5729   35.1936   48.8817 H   0  0  0  0  0  0  0  0  0  0  0  0
   60.2452   34.1178   49.4538 H   0  0  0  0  0  0  0  0  0  0  0  0
   61.7699   32.5383   46.1998 H   0  0  0  0  0  0  0  0  0  0  0  0
   61.9461   34.3171   46.4466 H   0  0  0  0  0  0  0  0  0  0  0  0
   64.0991   33.1430   47.8636 H   0  0  0  0  0  0  0  0  0  0  0  0
   64.0083   32.2495   46.3080 H   0  0  0  0  0  0  0  0  0  0  0  0
   64.1777   34.0378   46.3080 H   0  0  0  0  0  0  0  0  0  0  0  0
   63.5374   32.3007   48.7191 H   0  0  0  0  0  0  0  0  0  0  0  0
   63.2032   33.8685   49.5233 H   0  0  0  0  0  0  0  0  0  0  0  0
   61.2490   31.8520   50.0680 H   0  0  0  0  0  0  0  0  0  0  0  0
   62.6229   32.7297   52.3355 H   0  0  0  0  0  0  0  0  0  0  0  0
   62.3090   34.1111   51.2098 H   0  0  0  0  0  0  0  0  0  0  0  0
   60.4683   32.8922   53.0126 H   0  0  0  0  0  0  0  0  0  0  0  0
   60.1247   34.1355   51.7627 H   0  0  0  0  0  0  0  0  0  0  0  0
   57.7523   32.3328   51.3650 H   0  0  0  0  0  0  0  0  0  0  0  0
   58.6143   33.8236   50.8414 H   0  0  0  0  0  0  0  0  0  0  0  0
   57.4752   31.6739   49.2372 H   0  0  0  0  0  0  0  0  0  0  0  0
   58.1744   33.2931   48.7401 H   0  0  0  0  0  0  0  0  0  0  0  0
   60.4210   31.8130   49.0860 H   0  0  0  0  0  0  0  0  0  0  0  0
   58.3898   33.2324   47.0621 H   0  0  0  0  0  0  0  0  0  0  0  0
   57.2305   33.9731   44.9933 H   0  0  0  0  0  0  0  0  0  0  0  0
   56.8629   32.3691   43.1291 H   0  0  0  0  0  0  0  0  0  0  0  0
   57.7052   30.0396   43.2958 H   0  0  0  0  0  0  0  0  0  0  0  0
   59.3814   27.1499   44.4060 H   0  0  0  0  0  0  0  0  0  0  0  0
   58.3486   28.3200   43.5167 H   0  0  0  0  0  0  0  0  0  0  0  0
   60.1340   28.5172   43.5167 H   0  0  0  0  0  0  0  0  0  0  0  0
   59.8171   26.4997   45.8630 H   0  0  0  0  0  0  0  0  0  0  0  0
   60.7850   25.6564   47.9781 H   0  0  0  0  0  0  0  0  0  0  0  0
   61.1674   27.1876   49.8846 H   0  0  0  0  0  0  0  0  0  0  0  0
   60.4634   29.8567   52.0358 H   0  0  0  0  0  0  0  0  0  0  0  0
   60.9873   28.2873   51.3364 H   0  0  0  0  0  0  0  0  0  0  0  0
   62.1095   29.6900   51.3364 H   0  0  0  0  0  0  0  0  0  0  0  0
  1  2  1  0
  2  3  1  0
  3  4  1  0
  4  5  1  0
  3  6  1  0
  6  7  1  0
  7  8  1  0
  8  9  1  0
  9 10  1  0
 10 11  1  0
 11 12  1  0
 12 13  1  0
 13 14  1  0
 14 15  2  0
 15 16  1  0
 16 17  2  0
 17 18  1  0
 18 19  2  0
 19 20  1  0
 20 21  2  0
 21 22  1  0
 21 23  1  0
 23 24  2  0
 24 25  1  0
 25 26  2  0
 26 27  1  0
 27 28  1  0
 28 29  1  0
 27 30  2  0
 30 14  1  0
 20 15  1  0
 30 23  1  0
  1 31  1  0
  1 32  1  0
  1 33  1  0
  2 34  1  0
  2 35  1  0
  4 36  1  0
  4 37  1  0
  5 38  1  0
  5 39  1  0
  5 40  1  0
  6 41  1  0
  6 42  1  0
  7 43  1  0
  8 44  1  0
  8 45  1  0
  9 46  1  0
  9 47  1  0
 11 48  1  0
 11 49  1  0
 12 50  1  0
 12 51  1  0
 13 52  1  0
 16 53  1  0
 17 54  1  0
 18 55  1  0
 19 56  1  0
 22 57  1  0
 22 58  1  0
 22 59  1  0
 24 60  1  0
 25 61  1  0
 26 62  1  0
 29 63  1  0
 29 64  1  0
 29 65  1  0
M  CHG  1  21   1
M  END
>  <UniqueID>  (29) 
29

>  <SMILES>  (29) 
CCN(CC)CNCCOCCNc1c2ccccc2[n+](C)c2cccc(OC)c12

>  <Energy>  (29) 
89.48745800131836

>  <Genealogy>  (29) 
CCN(CC)CNCCOCCNc1c2ccccc2[n+](C)c2cccc(OC)c12 (3D coordinates assigned)
CCN(CC)CNCCOCCNc1c2ccccc2[n+](C)c2cccc(OC)c12 (optimized conformer: 89.48745800131836 kcal/mol)

>  <smiles>  (29) 
CCN(CC)CNCCOCCNc1c2ccccc2[n+](C)c2cccc(OC)c12

>  <score_type>  (29) 
oracle

>  <origin>  (29) 
adg

>  <m_score__min__energy>  (29) 
-4.0199999999999996

>  <m_primary>  (29) 
energy

$$$$
30:0
     RDKit          3D

 51 53  0  0  0  0  0  0  0  0999 V2000
   58.9345   34.2557   44.0849 H   0  0  0  0  0  0  0  0  0  0  0  0
   58.4250   33.2820   44.0380 C   0  0  0  0  0  0  0  0  0  0  0  0
   57.8980   32.7350   42.9130 N   0  0  0  0  0  0  0  0  0  0  0  0
   57.3870   31.5640   43.3440 C   0  0  0  0  0  0  0  0  0  0  0  0
   56.6940   30.6330   42.5800 C   0  0  0  0  0  0  0  0  0  0  0  0
   56.5405   30.7794   41.5007 H   0  0  0  0  0  0  0  0  0  0  0  0
   56.1980   29.4990   43.2400 C   0  0  0  0  0  0  0  0  0  0  0  0
   55.6485   28.7302   42.6769 H   0  0  0  0  0  0  0  0  0  0  0  0
   56.4050   29.3460   44.6270 C   0  0  0  0  0  0  0  0  0  0  0  0
   55.9160   28.3090   45.2410 N   0  0  0  0  0  0  0  0  0  0  0  0
   56.6950   27.1470   45.6660 C   0  0  0  0  0  0  0  0  0  0  0  0
   57.3447   26.8311   44.8365 H   0  0  0  0  0  0  0  0  0  0  0  0
   55.9926   26.3475   45.9444 H   0  0  0  0  0  0  0  0  0  0  0  0
   57.5690   27.4630   46.8900 C   0  0  0  0  0  0  0  0  0  0  0  0
   57.5186   26.6198   47.5946 H   0  0  0  0  0  0  0  0  0  0  0  0
   57.1918   28.3832   47.3601 H   0  0  0  0  0  0  0  0  0  0  0  0
   58.9890   27.6820   46.4940 N   0  0  0  0  0  0  0  0  0  0  0  0
   59.8910   26.6770   47.1140 C   0  0  0  0  0  0  0  0  0  0  0  0
   60.7676   26.5419   46.4634 H   0  0  0  0  0  0  0  0  0  0  0  0
   59.3207   25.7432   47.2268 H   0  0  0  0  0  0  0  0  0  0  0  0
   60.3750   27.0970   48.5100 C   0  0  0  0  0  0  0  0  0  0  0  0
   61.4569   26.9113   48.5814 H   0  0  0  0  0  0  0  0  0  0  0  0
   59.8197   26.5066   49.2537 H   0  0  0  0  0  0  0  0  0  0  0  0
   60.1090   28.5760   48.7880 C   0  0  0  0  0  0  0  0  0  0  0  0
   60.0786   28.7452   49.8745 H   0  0  0  0  0  0  0  0  0  0  0  0
   60.9124   29.1827   48.3448 H   0  0  0  0  0  0  0  0  0  0  0  0
   59.1445   28.8647   48.3448 H   0  0  0  0  0  0  0  0  0  0  0  0
   59.1540   27.6440   45.0190 C   0  0  0  0  0  0  0  0  0  0  0  0
   59.5255   26.6509   44.7261 H   0  0  0  0  0  0  0  0  0  0  0  0
   58.1770   27.8480   44.5565 H   0  0  0  0  0  0  0  0  0  0  0  0
   60.1490   28.7120   44.5370 C   0  0  0  0  0  0  0  0  0  0  0  0
   61.0978   28.2231   44.2711 H   0  0  0  0  0  0  0  0  0  0  0  0
   59.7143   29.2213   43.6643 H   0  0  0  0  0  0  0  0  0  0  0  0
   60.4140   29.7550   45.6190 C   0  0  0  0  0  0  0  0  0  0  0  0
   60.2966   29.2929   46.6103 H   0  0  0  0  0  0  0  0  0  0  0  0
   61.4387   30.1408   45.5133 H   0  0  0  0  0  0  0  0  0  0  0  0
   59.6977   30.5831   45.5133 H   0  0  0  0  0  0  0  0  0  0  0  0
   57.0980   30.3050   45.3090 N   0  0  0  0  0  0  0  0  0  0  0  0
   57.5720   31.3610   44.6530 N   0  0  0  0  0  0  0  0  0  0  0  0
   58.2280   32.4340   45.1230 C   0  0  0  0  0  0  0  0  0  0  0  0
   58.6170   32.6790   46.5320 C   0  0  0  0  0  0  0  0  0  0  0  0
   58.5370   31.6390   47.4780 C   0  0  0  0  0  0  0  0  0  0  0  0
   58.1810   30.6452   47.1686 H   0  0  0  0  0  0  0  0  0  0  0  0
   58.9070   31.8610   48.8080 C   0  0  0  0  0  0  0  0  0  0  0  0
   58.8467   31.0411   49.5389 H   0  0  0  0  0  0  0  0  0  0  0  0
   59.3530   33.1220   49.2100 C   0  0  0  0  0  0  0  0  0  0  0  0
   59.6474   33.2939   50.2558 H   0  0  0  0  0  0  0  0  0  0  0  0
   59.4250   34.1640   48.2840 C   0  0  0  0  0  0  0  0  0  0  0  0
   59.7716   35.1581   48.6029 H   0  0  0  0  0  0  0  0  0  0  0  0
   59.0580   33.9480   46.9530 C   0  0  0  0  0  0  0  0  0  0  0  0
   59.1140   34.7748   46.2296 H   0  0  0  0  0  0  0  0  0  0  0  0
  1  2  1  0
  2  3  1  0
  3  4  2  0
  4  5  1  0
  5  6  1  0
  5  7  2  0
  7  8  1  0
  7  9  1  0
  9 10  2  0
 10 11  1  0
 11 12  1  0
 11 13  1  0
 11 14  1  0
 14 15  1  0
 14 16  1  0
 14 17  1  0
 17 18  1  0
 18 19  1  0
 18 20  1  0
 18 21  1  0
 21 22  1  0
 21 23  1  0
 21 24  1  0
 24 25  1  0
 24 26  1  0
 24 27  1  0
 17 28  1  0
 28 29  1  0
 28 30  1  0
 28 31  1  0
 31 32  1  0
 31 33  1  0
 31 34  1  0
 34 35  1  0
 34 36  1  0
 34 37  1  0
  9 38  1  0
 38 39  1  0
 39 40  1  0
 40 41  1  0
 41 42  2  0
 42 43  1  0
 42 44  1  0
 44 45  1  0
 44 46  2  0
 46 47  1  0
 46 48  1  0
 48 49  1  0
 48 50  2  0
 50 51  1  0
 40  2  2  0
 50 41  1  0
 39  4  1  0
M  CHG  1  38  -1
M  END
>  <UniqueID>  (30) 
30

>  <SMILES>  (30) 
CCCN(CCC)CC/N=c1/ccc2ncc(-c3ccccc3)n2[n-]1

>  <Energy>  (30) 
85.78921551333096

>  <Genealogy>  (30) 
CCCN(CCC)CCN=c1ccc2ncc(-c3ccccc3)n2[n-]1 (protonated)
CCCN(CCC)CC/N=c1/ccc2ncc(-c3ccccc3)n2[n-]1 (cis-trans isomerization)
CCCN(CCC)CC/N=c1/ccc2ncc(-c3ccccc3)n2[n-]1 (3D coordinates assigned)
CCCN(CCC)CC/N=c1/ccc2ncc(-c3ccccc3)n2[n-]1 (optimized conformer: 85.78921551333096 kcal/mol)

>  <smiles>  (30) 
CCCN(CCC)CCN=c1ccc2ncc(-c3ccccc3)n2[nH]1

>  <score_type>  (30) 
oracle

>  <origin>  (30) 
adg

>  <m_score__min__energy>  (30) 
-8.8900000000000006

>  <m_primary>  (30) 
energy

$$$$
