0:0
     RDKit          3D

 39 41  0  0  0  0  0  0  0  0999 V2000
   57.9170   26.9180   42.7810 C   0  0  0  0  0  0  0  0  0  0  0  0
   58.5630   27.8000   43.8440 C   0  0  0  0  0  0  0  0  0  0  0  0
   57.6140   28.1210   44.9070 N   0  0  0  0  0  0  0  0  0  0  0  0
   56.7860   29.2910   44.9840 C   0  0  0  0  0  0  0  0  0  0  0  0
   55.5390   29.1510   44.8710 O   0  0  0  0  0  0  0  0  0  0  0  0
   57.3510   30.6480   45.1610 C   0  0  0  0  0  0  0  0  0  0  0  0
   57.7730   31.0170   46.3990 N   0  0  0  0  0  0  0  0  0  0  0  0
   58.3260   32.2300   46.6600 C   0  0  0  0  0  0  0  0  0  0  0  0
   58.4960   33.1660   45.6170 C   0  0  0  0  0  0  0  0  0  0  0  0
   58.0720   32.8080   44.3250 C   0  0  0  0  0  0  0  0  0  0  0  0
   57.4850   31.5560   44.0850 C   0  0  0  0  0  0  0  0  0  0  0  0
   57.0190   31.2170   42.6930 C   0  0  0  0  0  0  0  0  0  0  0  0
   59.0800   34.4220   45.9130 C   0  0  0  0  0  0  0  0  0  0  0  0
   59.2970   35.4730   44.8630 C   0  0  0  0  0  0  0  0  0  0  0  0
   59.4610   34.7010   47.1910 N   0  0  0  0  0  0  0  0  0  0  0  0
   59.3040   33.8120   48.2060 C   0  0  0  0  0  0  0  0  0  0  0  0
   59.7070   34.1400   49.5030 C   0  0  0  0  0  0  0  0  0  0  0  0
   59.5480   33.2080   50.5390 C   0  0  0  0  0  0  0  0  0  0  0  0
   59.9390   33.5590   51.9440 C   0  0  0  0  0  0  0  0  0  0  0  0
   58.9550   31.9700   50.2540 C   0  0  0  0  0  0  0  0  0  0  0  0
   58.5680   31.6710   48.9850 N   0  0  0  0  0  0  0  0  0  0  0  0
   58.7300   32.5530   47.9600 C   0  0  0  0  0  0  0  0  0  0  0  0
   57.3345   26.1227   43.2689 H   0  0  0  0  0  0  0  0  0  0  0  0
   57.2507   27.5282   42.1536 H   0  0  0  0  0  0  0  0  0  0  0  0
   58.6998   26.4668   42.1536 H   0  0  0  0  0  0  0  0  0  0  0  0
   59.4228   27.2686   44.2781 H   0  0  0  0  0  0  0  0  0  0  0  0
   58.8881   28.7380   43.3701 H   0  0  0  0  0  0  0  0  0  0  0  0
   58.2017   33.5166   43.4937 H   0  0  0  0  0  0  0  0  0  0  0  0
   56.1307   30.5708   42.7509 H   0  0  0  0  0  0  0  0  0  0  0  0
   56.7647   32.1426   42.1559 H   0  0  0  0  0  0  0  0  0  0  0  0
   57.8214   30.6900   42.1559 H   0  0  0  0  0  0  0  0  0  0  0  0
   59.4967   36.4400   45.3479 H   0  0  0  0  0  0  0  0  0  0  0  0
   60.1563   35.1929   44.2359 H   0  0  0  0  0  0  0  0  0  0  0  0
   58.3971   35.5561   44.2359 H   0  0  0  0  0  0  0  0  0  0  0  0
   60.1476   35.1262   49.7110 H   0  0  0  0  0  0  0  0  0  0  0  0
   59.3117   32.9959   52.6507 H   0  0  0  0  0  0  0  0  0  0  0  0
   60.9960   33.3009   52.1058 H   0  0  0  0  0  0  0  0  0  0  0  0
   59.7960   34.6376   52.1058 H   0  0  0  0  0  0  0  0  0  0  0  0
   58.8021   31.2374   51.0602 H   0  0  0  0  0  0  0  0  0  0  0  0
  1  2  1  0
  2  3  1  0
  3  4  1  0
  4  5  2  0
  4  6  1  0
  6  7  2  0
  7  8  1  0
  8  9  2  0
  9 10  1  0
 10 11  2  0
 11 12  1  0
  9 13  1  0
 13 14  1  0
 13 15  2  0
 15 16  1  0
 16 17  2  0
 17 18  1  0
 18 19  1  0
 18 20  2  0
 20 21  1  0
 21 22  2  0
 11  6  1  0
 22 16  1  0
 22  8  1  0
  1 23  1  0
  1 24  1  0
  1 25  1  0
  2 26  1  0
  2 27  1  0
 10 28  1  0
 12 29  1  0
 12 30  1  0
 12 31  1  0
 14 32  1  0
 14 33  1  0
 14 34  1  0
 17 35  1  0
 19 36  1  0
 19 37  1  0
 19 38  1  0
 20 39  1  0
M  CHG  1   3  -1
M  END
>  <UniqueID>  (1) 
1

>  <SMILES>  (1) 
CC[N-]C(=O)c1nc2c(cc1C)c(C)nc1cc(C)cnc12

>  <Energy>  (1) 
48.7639936876217

>  <Genealogy>  (1) 
CC[N-]C(=O)c1nc2c(cc1C)c(C)nc1cc(C)cnc12 (protonated)
CC[N-]C(=O)c1nc2c(cc1C)c(C)nc1cc(C)cnc12 (3D coordinates assigned)
CC[N-]C(=O)c1nc2c(cc1C)c(C)nc1cc(C)cnc12 (optimized conformer: 48.7639936876217 kcal/mol)

>  <smiles>  (1) 
CCNC(=O)c1nc2c(cc1C)c(C)nc1cc(C)cnc12

>  <score_type>  (1) 
oracle

>  <origin>  (1) 
adg

>  <m_score__min__energy>  (1) 
-9.1500000000000004

>  <m_primary>  (1) 
energy

$$$$
1:0
     RDKit          3D

 42 45  0  0  0  0  0  0  0  0999 V2000
   55.3790   29.6170   44.8480 O   0  0  0  0  0  0  0  0  0  0  0  0
   56.5170   30.1500   44.7400 C   0  0  0  0  0  0  0  0  0  0  0  0
   56.6410   31.5130   44.3220 N   0  0  0  0  0  0  0  0  0  0  0  0
   56.7000   32.6400   45.2470 C   0  0  0  0  0  0  0  0  0  0  0  0
   58.0710   32.7430   45.8550 C   0  0  0  0  0  0  0  0  0  0  0  0
   58.4640   31.8750   46.8840 C   0  0  0  0  0  0  0  0  0  0  0  0
   59.7490   31.9570   47.4270 C   0  0  0  0  0  0  0  0  0  0  0  0
   60.6710   32.9080   46.9450 C   0  0  0  0  0  0  0  0  0  0  0  0
   61.9980   33.0110   47.4970 N   0  0  0  0  0  0  0  0  0  0  0  0
   62.3500   33.1730   48.7920 C   0  0  0  0  0  0  0  0  0  0  0  0
   63.7320   33.2180   48.8270 C   0  0  0  0  0  0  0  0  0  0  0  0
   64.5970   33.3790   50.0200 C   0  0  0  0  0  0  0  0  0  0  0  0
   64.1380   34.0840   51.1500 C   0  0  0  0  0  0  0  0  0  0  0  0
   64.9540   34.2330   52.2750 C   0  0  0  0  0  0  0  0  0  0  0  0
   66.2390   33.6870   52.2850 C   0  0  0  0  0  0  0  0  0  0  0  0
   66.7090   32.9890   51.1710 C   0  0  0  0  0  0  0  0  0  0  0  0
   65.8950   32.8340   50.0440 C   0  0  0  0  0  0  0  0  0  0  0  0
   64.1660   33.0780   47.5580 N   0  0  0  0  0  0  0  0  0  0  0  0
   63.1080   32.9500   46.7740 N   0  0  0  0  0  0  0  0  0  0  0  0
   60.2700   33.7730   45.9120 C   0  0  0  0  0  0  0  0  0  0  0  0
   58.9850   33.6880   45.3690 C   0  0  0  0  0  0  0  0  0  0  0  0
   57.7230   29.3700   45.0460 C   0  0  0  0  0  0  0  0  0  0  0  0
   58.9860   29.5680   44.4970 C   0  0  0  0  0  0  0  0  0  0  0  0
   59.9410   28.6590   44.9660 C   0  0  0  0  0  0  0  0  0  0  0  0
   59.4290   27.7500   45.8810 C   0  0  0  0  0  0  0  0  0  0  0  0
   60.4070   26.3510   46.7320 Br  0  0  0  0  0  0  0  0  0  0  0  0
   57.7940   28.0660   46.1110 S   0  0  0  0  0  0  0  0  0  0  0  0
   56.4734   33.5687   44.7028 H   0  0  0  0  0  0  0  0  0  0  0  0
   55.9631   32.4845   46.0488 H   0  0  0  0  0  0  0  0  0  0  0  0
   57.7562   31.1247   47.2662 H   0  0  0  0  0  0  0  0  0  0  0  0
   60.0434   31.2738   48.2373 H   0  0  0  0  0  0  0  0  0  0  0  0
   61.6689   33.2535   49.6520 H   0  0  0  0  0  0  0  0  0  0  0  0
   63.1286   34.5211   51.1470 H   0  0  0  0  0  0  0  0  0  0  0  0
   64.5833   34.7812   53.1537 H   0  0  0  0  0  0  0  0  0  0  0  0
   66.8808   33.8068   53.1703 H   0  0  0  0  0  0  0  0  0  0  0  0
   67.7218   32.5599   51.1795 H   0  0  0  0  0  0  0  0  0  0  0  0
   66.2717   32.2823   49.1701 H   0  0  0  0  0  0  0  0  0  0  0  0
   65.1530   33.0460   47.2180 H   0  0  0  0  0  0  0  0  0  0  0  0
   60.9749   34.5246   45.5270 H   0  0  0  0  0  0  0  0  0  0  0  0
   58.6892   34.3667   44.5555 H   0  0  0  0  0  0  0  0  0  0  0  0
   59.2113   30.3598   43.7674 H   0  0  0  0  0  0  0  0  0  0  0  0
   60.9921   28.6645   44.6419 H   0  0  0  0  0  0  0  0  0  0  0  0
  1  2  2  0
  2  3  1  0
  3  4  1  0
  4  5  1  0
  5  6  2  0
  6  7  1  0
  7  8  2  0
  8  9  1  0
  9 10  1  0
 10 11  2  0
 11 12  1  0
 12 13  2  0
 13 14  1  0
 14 15  2  0
 15 16  1  0
 16 17  2  0
 11 18  1  0
 18 19  2  0
  8 20  1  0
 20 21  2  0
  2 22  1  0
 22 23  2  0
 23 24  1  0
 24 25  2  0
 25 26  1  0
 25 27  1  0
 21  5  1  0
 27 22  1  0
 19  9  1  0
 17 12  1  0
  4 28  1  0
  4 29  1  0
  6 30  1  0
  7 31  1  0
 10 32  1  0
 13 33  1  0
 14 34  1  0
 15 35  1  0
 16 36  1  0
 17 37  1  0
 18 38  1  0
 20 39  1  0
 21 40  1  0
 23 41  1  0
 24 42  1  0
M  CHG  2   3  -1  18   1
M  END
>  <UniqueID>  (2) 
2

>  <SMILES>  (2) 
O=C([N-]Cc1ccc(-n2cc(-c3ccccc3)[nH+]n2)cc1)c1ccc(Br)s1

>  <Energy>  (2) 
109.91732796017114

>  <Genealogy>  (2) 
O=C([N-]Cc1ccc(-n2cc(-c3ccccc3)[nH+]n2)cc1)c1ccc(Br)s1 (protonated)
O=C([N-]Cc1ccc(-n2cc(-c3ccccc3)[nH+]n2)cc1)c1ccc(Br)s1 (3D coordinates assigned)
O=C([N-]Cc1ccc(-n2cc(-c3ccccc3)[nH+]n2)cc1)c1ccc(Br)s1 (optimized conformer: 109.91732796017114 kcal/mol)

>  <smiles>  (2) 
O=C(NCc1ccc(-n2cc(-c3ccccc3)nn2)cc1)c1ccc(Br)s1

>  <score_type>  (2) 
oracle

>  <origin>  (2) 
adg

>  <m_score__min__energy>  (2) 
-9.7599999999999998

>  <m_primary>  (2) 
energy

$$$$
2:0
     RDKit          3D

 37 39  0  0  0  0  0  0  0  0999 V2000
   61.0160   31.4510   49.0770 C   0  0  0  0  0  0  0  0  0  0  0  0
   61.9950   32.1270   48.2320 N   0  0  0  0  0  0  0  0  0  0  0  0
   63.0940   31.5910   47.6750 C   0  0  0  0  0  0  0  0  0  0  0  0
   63.6940   32.4860   46.8710 N   0  0  0  0  0  0  0  0  0  0  0  0
   62.9840   33.6030   46.8840 N   0  0  0  0  0  0  0  0  0  0  0  0
   61.9440   33.3710   47.7110 C   0  0  0  0  0  0  0  0  0  0  0  0
   60.6550   34.5760   48.0360 S   0  0  0  0  0  0  0  0  0  0  0  0
   59.4710   33.7240   46.9950 C   0  0  0  0  0  0  0  0  0  0  0  0
   58.6770   32.7030   47.5290 C   0  0  0  0  0  0  0  0  0  0  0  0
   57.7680   32.0210   46.7150 C   0  0  0  0  0  0  0  0  0  0  0  0
   57.6410   32.3610   45.3550 C   0  0  0  0  0  0  0  0  0  0  0  0
   56.7340   31.6770   44.4800 N   0  0  0  0  0  0  0  0  0  0  0  0
   56.6460   29.9550   44.2900 S   0  0  0  0  0  0  0  0  0  0  0  0
   56.6460   29.6200   42.8250 O   0  0  0  0  0  0  0  0  0  0  0  0
   55.3690   29.4580   44.9060 O   0  0  0  0  0  0  0  0  0  0  0  0
   58.0430   29.1990   45.0470 C   0  0  0  0  0  0  0  0  0  0  0  0
   57.8790   28.3060   46.1170 C   0  0  0  0  0  0  0  0  0  0  0  0
   58.9980   27.7310   46.7280 C   0  0  0  0  0  0  0  0  0  0  0  0
   60.2830   28.0420   46.2730 C   0  0  0  0  0  0  0  0  0  0  0  0
   60.4510   28.9260   45.2010 C   0  0  0  0  0  0  0  0  0  0  0  0
   59.3330   29.5020   44.5890 C   0  0  0  0  0  0  0  0  0  0  0  0
   58.4230   33.4000   44.8330 C   0  0  0  0  0  0  0  0  0  0  0  0
   59.3360   34.0780   45.6480 C   0  0  0  0  0  0  0  0  0  0  0  0
   61.2642   31.6224   50.1348 H   0  0  0  0  0  0  0  0  0  0  0  0
   60.0126   31.8496   48.8666 H   0  0  0  0  0  0  0  0  0  0  0  0
   61.0332   30.3715   48.8666 H   0  0  0  0  0  0  0  0  0  0  0  0
   63.4518   30.5659   47.8517 H   0  0  0  0  0  0  0  0  0  0  0  0
   64.5630   32.3390   46.3110 H   0  0  0  0  0  0  0  0  0  0  0  0
   58.7684   32.4363   48.5923 H   0  0  0  0  0  0  0  0  0  0  0  0
   57.1498   31.2158   47.1387 H   0  0  0  0  0  0  0  0  0  0  0  0
   56.8691   28.0579   46.4756 H   0  0  0  0  0  0  0  0  0  0  0  0
   58.8669   27.0329   47.5679 H   0  0  0  0  0  0  0  0  0  0  0  0
   61.1620   27.5919   46.7576 H   0  0  0  0  0  0  0  0  0  0  0  0
   61.4616   29.1676   44.8400 H   0  0  0  0  0  0  0  0  0  0  0  0
   59.4663   30.1952   43.7454 H   0  0  0  0  0  0  0  0  0  0  0  0
   58.3184   33.6844   43.7756 H   0  0  0  0  0  0  0  0  0  0  0  0
   59.9484   34.8903   45.2294 H   0  0  0  0  0  0  0  0  0  0  0  0
  1  2  1  0
  2  3  1  0
  3  4  2  0
  4  5  1  0
  5  6  2  0
  6  7  1  0
  7  8  1  0
  8  9  2  0
  9 10  1  0
 10 11  2  0
 11 12  1  0
 12 13  1  0
 13 14  2  0
 13 15  2  0
 13 16  1  0
 16 17  2  0
 17 18  1  0
 18 19  2  0
 19 20  1  0
 20 21  2  0
 11 22  1  0
 22 23  2  0
  6  2  1  0
 23  8  1  0
 21 16  1  0
  1 24  1  0
  1 25  1  0
  1 26  1  0
  3 27  1  0
  4 28  1  0
  9 29  1  0
 10 30  1  0
 17 31  1  0
 18 32  1  0
 19 33  1  0
 20 34  1  0
 21 35  1  0
 22 36  1  0
 23 37  1  0
M  CHG  2   4   1  12  -1
M  END
>  <UniqueID>  (3) 
3

>  <SMILES>  (3) 
Cn1c[nH+]nc1Sc1ccc([N-]S(=O)(=O)c2ccccc2)cc1

>  <Energy>  (3) 
72.05142077256296

>  <Genealogy>  (3) 
Cn1c[nH+]nc1Sc1ccc([N-]S(=O)(=O)c2ccccc2)cc1 (protonated)
Cn1c[nH+]nc1Sc1ccc([N-]S(=O)(=O)c2ccccc2)cc1 (3D coordinates assigned)
Cn1c[nH+]nc1Sc1ccc([N-]S(=O)(=O)c2ccccc2)cc1 (optimized conformer: 72.05142077256296 kcal/mol)

>  <smiles>  (3) 
Cn1cnnc1Sc1ccc(NS(=O)(=O)c2ccccc2)cc1

>  <score_type>  (3) 
oracle

>  <origin>  (3) 
adg

>  <m_score__min__energy>  (3) 
-9.0199999999999996

>  <m_primary>  (3) 
energy

$$$$
3:0
     RDKit          3D

 38 40  0  0  0  0  0  0  0  0999 V2000
   55.8080   24.1360   44.5730 C   0  0  0  0  0  0  0  0  0  0  0  0
   54.8300   24.7480   45.5710 C   0  0  0  0  0  0  0  0  0  0  0  0
   55.3030   26.0150   46.0250 O   0  0  0  0  0  0  0  0  0  0  0  0
   56.6620   26.3340   46.1480 C   0  0  0  0  0  0  0  0  0  0  0  0
   57.4820   25.4660   46.5570 O   0  0  0  0  0  0  0  0  0  0  0  0
   57.1320   27.6950   45.8040 C   0  0  0  0  0  0  0  0  0  0  0  0
   56.2720   28.5980   45.1620 C   0  0  0  0  0  0  0  0  0  0  0  0
   56.7140   29.8770   44.8270 C   0  0  0  0  0  0  0  0  0  0  0  0
   58.0220   30.2870   45.1350 C   0  0  0  0  0  0  0  0  0  0  0  0
   58.8910   29.3960   45.7950 C   0  0  0  0  0  0  0  0  0  0  0  0
   58.4420   28.1010   46.1080 C   0  0  0  0  0  0  0  0  0  0  0  0
   60.3060   29.7280   46.0840 C   0  0  0  0  0  0  0  0  0  0  0  0
   60.7780   30.9270   46.4500 C   0  0  0  0  0  0  0  0  0  0  0  0
   59.9820   32.1610   46.6330 C   0  0  0  0  0  0  0  0  0  0  0  0
   60.4040   33.0780   47.6120 C   0  0  0  0  0  0  0  0  0  0  0  0
   59.7340   34.2900   47.7890 C   0  0  0  0  0  0  0  0  0  0  0  0
   58.6460   34.6110   46.9770 C   0  0  0  0  0  0  0  0  0  0  0  0
   58.2280   33.7220   45.9860 C   0  0  0  0  0  0  0  0  0  0  0  0
   58.8910   32.4950   45.8020 C   0  0  0  0  0  0  0  0  0  0  0  0
   58.4600   31.6020   44.7660 N   0  0  0  0  0  0  0  0  0  0  0  0
   58.1900   32.1150   43.4210 C   0  0  0  0  0  0  0  0  0  0  0  0
   56.6182   23.6290   45.1175 H   0  0  0  0  0  0  0  0  0  0  0  0
   55.2791   23.4075   43.9409 H   0  0  0  0  0  0  0  0  0  0  0  0
   56.2319   24.9302   43.9409 H   0  0  0  0  0  0  0  0  0  0  0  0
   53.8524   24.8803   45.0844 H   0  0  0  0  0  0  0  0  0  0  0  0
   54.7368   24.0738   46.4352 H   0  0  0  0  0  0  0  0  0  0  0  0
   55.2423   28.2951   44.9213 H   0  0  0  0  0  0  0  0  0  0  0  0
   56.0316   30.5724   44.3163 H   0  0  0  0  0  0  0  0  0  0  0  0
   59.1275   27.3944   46.5988 H   0  0  0  0  0  0  0  0  0  0  0  0
   61.0381   28.9126   45.9890 H   0  0  0  0  0  0  0  0  0  0  0  0
   61.8603   31.0014   46.6318 H   0  0  0  0  0  0  0  0  0  0  0  0
   61.2710   32.8379   48.2449 H   0  0  0  0  0  0  0  0  0  0  0  0
   60.0641   34.9920   48.5689 H   0  0  0  0  0  0  0  0  0  0  0  0
   58.1174   35.5653   47.1180 H   0  0  0  0  0  0  0  0  0  0  0  0
   57.3737   33.9826   45.3439 H   0  0  0  0  0  0  0  0  0  0  0  0
   57.6788   33.0862   43.4948 H   0  0  0  0  0  0  0  0  0  0  0  0
   59.1390   32.2403   42.8790 H   0  0  0  0  0  0  0  0  0  0  0  0
   57.5494   31.4037   42.8790 H   0  0  0  0  0  0  0  0  0  0  0  0
  1  2  1  0
  2  3  1  0
  3  4  1  0
  4  5  2  0
  4  6  1  0
  6  7  2  0
  7  8  1  0
  8  9  2  0
  9 10  1  0
 10 11  2  0
 10 12  1  0
 12 13  2  0
 13 14  1  0
 14 15  2  0
 15 16  1  0
 16 17  2  0
 17 18  1  0
 18 19  2  0
 19 20  1  0
 20 21  1  0
 11  6  1  0
 19 14  1  0
 20  9  1  0
  1 22  1  0
  1 23  1  0
  1 24  1  0
  2 25  1  0
  2 26  1  0
  7 27  1  0
  8 28  1  0
 11 29  1  0
 12 30  1  0
 13 31  1  0
 15 32  1  0
 16 33  1  0
 17 34  1  0
 18 35  1  0
 21 36  1  0
 21 37  1  0
 21 38  1  0
M  END
>  <UniqueID>  (4) 
4

>  <SMILES>  (4) 
CCOC(=O)c1ccc2c(c1)C=Cc1ccccc1N2C

>  <Energy>  (4) 
56.934858547261925

>  <Genealogy>  (4) 
CCOC(=O)c1ccc2c(c1)C=Cc1ccccc1N2C (3D coordinates assigned)
CCOC(=O)c1ccc2c(c1)C=Cc1ccccc1N2C (nonaromatic ring conformer: 56.934858547261925 kcal/mol)

>  <smiles>  (4) 
CCOC(=O)c1ccc2c(c1)C=Cc1ccccc1N2C

>  <score_type>  (4) 
oracle

>  <origin>  (4) 
adg

>  <m_score__min__energy>  (4) 
-6.1699999999999999

>  <m_primary>  (4) 
energy

$$$$
4:0
     RDKit          3D

 48 50  0  0  0  0  0  0  0  0999 V2000
   57.7390   21.9550   45.5100 C   0  0  0  0  0  0  0  0  0  0  0  0
   57.5790   22.9290   46.5370 O   0  0  0  0  0  0  0  0  0  0  0  0
   57.6550   24.3140   46.3330 C   0  0  0  0  0  0  0  0  0  0  0  0
   57.6920   25.2340   47.3970 C   0  0  0  0  0  0  0  0  0  0  0  0
   57.7710   26.6070   47.1420 C   0  0  0  0  0  0  0  0  0  0  0  0
   57.8290   27.0820   45.8200 C   0  0  0  0  0  0  0  0  0  0  0  0
   57.8840   28.4890   45.5300 N   0  0  0  0  0  0  0  0  0  0  0  0
   56.7720   29.2500   45.0220 C   0  0  0  0  0  0  0  0  0  0  0  0
   55.6090   28.7620   45.0400 O   0  0  0  0  0  0  0  0  0  0  0  0
   56.9660   30.6590   44.5220 C   0  0  2  0  0  0  0  0  0  0  0  0
   57.0900   30.7030   42.9810 C   0  0  0  0  0  0  0  0  0  0  0  0
   57.8950   31.9200   42.4930 C   0  0  0  0  0  0  0  0  0  0  0  0
   57.7700   33.0930   43.4720 C   0  0  0  0  0  0  0  0  0  0  0  0
   58.3220   32.7630   44.8140 N   0  0  0  0  0  0  0  0  0  0  0  0
   57.7690   33.6550   45.8560 C   0  0  0  0  0  0  0  0  0  0  0  0
   58.6640   33.6840   47.0730 C   0  0  0  0  0  0  0  0  0  0  0  0
   58.4370   32.7760   48.1210 C   0  0  0  0  0  0  0  0  0  0  0  0
   59.2700   32.7720   49.2440 C   0  0  0  0  0  0  0  0  0  0  0  0
   60.3380   33.6690   49.3270 C   0  0  0  0  0  0  0  0  0  0  0  0
   60.5760   34.5700   48.2880 C   0  0  0  0  0  0  0  0  0  0  0  0
   59.7470   34.5800   47.1600 C   0  0  0  0  0  0  0  0  0  0  0  0
   60.0050   35.4590   46.1580 F   0  0  0  0  0  0  0  0  0  0  0  0
   58.1820   31.3310   45.1920 C   0  0  0  0  0  0  0  0  0  0  0  0
   57.7680   26.1640   44.7630 C   0  0  0  0  0  0  0  0  0  0  0  0
   57.6910   24.7920   45.0180 C   0  0  0  0  0  0  0  0  0  0  0  0
   57.9014   20.9664   45.9643 H   0  0  0  0  0  0  0  0  0  0  0  0
   56.8333   21.9276   44.8863 H   0  0  0  0  0  0  0  0  0  0  0  0
   58.6058   22.2188   44.8863 H   0  0  0  0  0  0  0  0  0  0  0  0
   57.6586   24.8715   48.4350 H   0  0  0  0  0  0  0  0  0  0  0  0
   57.7878   27.3190   47.9803 H   0  0  0  0  0  0  0  0  0  0  0  0
   58.7620   29.0010   45.7710 H   0  0  0  0  0  0  0  0  0  0  0  0
   56.0682   31.2299   44.8015 H   0  0  0  0  0  0  0  0  0  0  0  0
   57.5939   29.7863   42.6406 H   0  0  0  0  0  0  0  0  0  0  0  0
   56.0750   30.7827   42.5645 H   0  0  0  0  0  0  0  0  0  0  0  0
   58.9544   31.6377   42.4040 H   0  0  0  0  0  0  0  0  0  0  0  0
   57.4955   32.2349   41.5177 H   0  0  0  0  0  0  0  0  0  0  0  0
   58.3189   33.9549   43.0648 H   0  0  0  0  0  0  0  0  0  0  0  0
   56.7007   33.3215   43.5923 H   0  0  0  0  0  0  0  0  0  0  0  0
   57.6818   34.6732   45.4490 H   0  0  0  0  0  0  0  0  0  0  0  0
   56.7814   33.2745   46.1557 H   0  0  0  0  0  0  0  0  0  0  0  0
   57.6001   32.0650   48.0577 H   0  0  0  0  0  0  0  0  0  0  0  0
   59.0843   32.0617   50.0632 H   0  0  0  0  0  0  0  0  0  0  0  0
   60.9916   33.6651   50.2117 H   0  0  0  0  0  0  0  0  0  0  0  0
   61.4179   35.2747   48.3557 H   0  0  0  0  0  0  0  0  0  0  0  0
   59.0932   30.7952   44.8876 H   0  0  0  0  0  0  0  0  0  0  0  0
   58.0307   31.2861   46.2806 H   0  0  0  0  0  0  0  0  0  0  0  0
   57.7808   26.5261   43.7244 H   0  0  0  0  0  0  0  0  0  0  0  0
   57.6584   24.0821   44.1784 H   0  0  0  0  0  0  0  0  0  0  0  0
  1  2  1  0
  2  3  1  0
  3  4  2  0
  4  5  1  0
  5  6  2  0
  6  7  1  0
  7  8  1  0
  8  9  2  0
  8 10  1  0
 10 11  1  0
 11 12  1  0
 12 13  1  0
 13 14  1  0
 14 15  1  0
 15 16  1  0
 16 17  2  0
 17 18  1  0
 18 19  2  0
 19 20  1  0
 20 21  2  0
 21 22  1  0
 14 23  1  0
  6 24  1  0
 24 25  2  0
 25  3  1  0
 23 10  1  0
 21 16  1  0
  1 26  1  0
  1 27  1  0
  1 28  1  0
  4 29  1  0
  5 30  1  0
  7 31  1  0
 10 32  1  6
 11 33  1  0
 11 34  1  0
 12 35  1  0
 12 36  1  0
 13 37  1  0
 13 38  1  0
 15 39  1  0
 15 40  1  0
 17 41  1  0
 18 42  1  0
 19 43  1  0
 20 44  1  0
 23 45  1  0
 23 46  1  0
 24 47  1  0
 25 48  1  0
M  END
>  <UniqueID>  (5) 
5

>  <SMILES>  (5) 
COc1ccc(NC(=O)[C@@H]2CCCN(Cc3ccccc3F)C2)cc1

>  <Energy>  (5) 
60.27334342405773

>  <Genealogy>  (5) 
COc1ccc(NC(=O)[C@@H]2CCCN(Cc3ccccc3F)C2)cc1 (chirality)
COc1ccc(NC(=O)[C@@H]2CCCN(Cc3ccccc3F)C2)cc1 (3D coordinates assigned)
COc1ccc(NC(=O)[C@@H]2CCCN(Cc3ccccc3F)C2)cc1 (nonaromatic ring conformer: 60.27334342405773 kcal/mol)

>  <smiles>  (5) 
COc1ccc(NC(=O)C2CCCN(Cc3ccccc3F)C2)cc1

>  <score_type>  (5) 
oracle

>  <origin>  (5) 
adg

>  <m_score__min__energy>  (5) 
-7.8399999999999999

>  <m_primary>  (5) 
energy

$$$$
5:0
     RDKit          3D

 36 37  0  0  0  0  0  0  0  0999 V2000
   57.2550   31.9730   41.3330 C   0  0  0  0  0  0  0  0  0  0  0  0
   58.1470   32.6230   42.3920 C   0  0  0  0  0  0  0  0  0  0  0  0
   58.0800   31.9280   43.6910 N   0  0  0  0  0  0  0  0  0  0  0  0
   58.5040   32.7810   44.7840 C   0  0  0  0  0  0  0  0  0  0  0  0
   58.8760   34.1090   44.5070 C   0  0  0  0  0  0  0  0  0  0  0  0
   59.2800   34.9530   45.5390 C   0  0  0  0  0  0  0  0  0  0  0  0
   59.3070   34.5020   46.8170 N   0  0  0  0  0  0  0  0  0  0  0  0
   58.9480   33.2300   47.1340 C   0  0  0  0  0  0  0  0  0  0  0  0
   58.5450   32.3300   46.1330 C   0  0  0  0  0  0  0  0  0  0  0  0
   58.1120   30.9450   46.5420 C   0  0  0  0  0  0  0  0  0  0  0  0
   57.1120   30.4490   45.6040 N   0  0  0  0  0  0  0  0  0  0  0  0
   57.3220   29.3270   44.7410 C   0  0  0  0  0  0  0  0  0  0  0  0
   57.1440   29.4620   43.5020 O   0  0  0  0  0  0  0  0  0  0  0  0
   57.7780   28.0290   45.2660 C   0  0  0  0  0  0  0  0  0  0  0  0
   56.8250   27.0890   45.6850 C   0  0  0  0  0  0  0  0  0  0  0  0
   57.2310   25.8420   46.1690 C   0  0  0  0  0  0  0  0  0  0  0  0
   58.5900   25.5290   46.2440 C   0  0  0  0  0  0  0  0  0  0  0  0
   59.5470   26.4650   45.8400 C   0  0  0  0  0  0  0  0  0  0  0  0
   59.1500   27.7160   45.3530 C   0  0  0  0  0  0  0  0  0  0  0  0
   60.3890   28.8790   44.8950 Cl  0  0  0  0  0  0  0  0  0  0  0  0
   56.4609   31.3943   41.8275 H   0  0  0  0  0  0  0  0  0  0  0  0
   56.8024   32.7545   40.7050 H   0  0  0  0  0  0  0  0  0  0  0  0
   57.8603   31.3027   40.7050 H   0  0  0  0  0  0  0  0  0  0  0  0
   59.1876   32.6054   42.0358 H   0  0  0  0  0  0  0  0  0  0  0  0
   57.7890   33.6519   42.5446 H   0  0  0  0  0  0  0  0  0  0  0  0
   57.0830   31.6540   43.8600 H   0  0  0  0  0  0  0  0  0  0  0  0
   58.6170   31.0350   43.6440 H   0  0  0  0  0  0  0  0  0  0  0  0
   58.8478   34.4821   43.4726 H   0  0  0  0  0  0  0  0  0  0  0  0
   59.5779   35.9882   45.3162 H   0  0  0  0  0  0  0  0  0  0  0  0
   58.9732   32.9021   48.1837 H   0  0  0  0  0  0  0  0  0  0  0  0
   58.9828   30.2730   46.5382 H   0  0  0  0  0  0  0  0  0  0  0  0
   57.6793   30.9807   47.5527 H   0  0  0  0  0  0  0  0  0  0  0  0
   55.7539   27.3340   45.6325 H   0  0  0  0  0  0  0  0  0  0  0  0
   56.4792   25.1064   46.4911 H   0  0  0  0  0  0  0  0  0  0  0  0
   58.9077   24.5457   46.6211 H   0  0  0  0  0  0  0  0  0  0  0  0
   60.6167   26.2172   45.9051 H   0  0  0  0  0  0  0  0  0  0  0  0
  1  2  1  0
  2  3  1  0
  3  4  1  0
  4  5  2  0
  5  6  1  0
  6  7  2  0
  7  8  1  0
  8  9  2  0
  9 10  1  0
 10 11  1  0
 11 12  1  0
 12 13  2  0
 12 14  1  0
 14 15  2  0
 15 16  1  0
 16 17  2  0
 17 18  1  0
 18 19  2  0
 19 20  1  0
  9  4  1  0
 19 14  1  0
  1 21  1  0
  1 22  1  0
  1 23  1  0
  2 24  1  0
  2 25  1  0
  3 26  1  0
  3 27  1  0
  5 28  1  0
  6 29  1  0
  8 30  1  0
 10 31  1  0
 10 32  1  0
 15 33  1  0
 16 34  1  0
 17 35  1  0
 18 36  1  0
M  CHG  2   3   1  11  -1
M  END
>  <UniqueID>  (6) 
6

>  <SMILES>  (6) 
CC[NH2+]c1ccncc1C[N-]C(=O)c1ccccc1Cl

>  <Energy>  (6) 
43.498337476939284

>  <Genealogy>  (6) 
CC[NH2+]c1ccncc1C[N-]C(=O)c1ccccc1Cl (protonated)
CC[NH2+]c1ccncc1C[N-]C(=O)c1ccccc1Cl (3D coordinates assigned)
CC[NH2+]c1ccncc1C[N-]C(=O)c1ccccc1Cl (optimized conformer: 43.498337476939284 kcal/mol)

>  <smiles>  (6) 
CCNc1ccncc1CNC(=O)c1ccccc1Cl

>  <score_type>  (6) 
oracle

>  <origin>  (6) 
adg

>  <m_score__min__energy>  (6) 
-5.4500000000000002

>  <m_primary>  (6) 
energy

$$$$
6:0
     RDKit          3D

 51 54  0  0  0  0  0  0  0  0999 V2000
   58.3720   34.1760   44.8080 O   0  0  0  0  0  0  0  0  0  0  0  0
   58.2360   33.3430   45.7470 C   0  0  0  0  0  0  0  0  0  0  0  0
   58.1060   31.9230   45.3820 C   0  0  0  0  0  0  0  0  0  0  0  0
   57.3100   31.5420   44.2970 C   0  0  0  0  0  0  0  0  0  0  0  0
   57.1930   30.1840   43.9650 C   0  0  0  0  0  0  0  0  0  0  0  0
   56.2830   29.7460   42.8460 C   0  0  0  0  0  0  0  0  0  0  0  0
   56.2700   30.7190   41.8640 F   0  0  0  0  0  0  0  0  0  0  0  0
   54.9930   29.5580   43.3120 F   0  0  0  0  0  0  0  0  0  0  0  0
   56.7220   28.5550   42.2960 F   0  0  0  0  0  0  0  0  0  0  0  0
   57.8560   29.2320   44.7570 C   0  0  0  0  0  0  0  0  0  0  0  0
   58.6680   29.6500   45.8260 C   0  0  0  0  0  0  0  0  0  0  0  0
   59.3740   28.6740   46.6950 C   0  0  0  0  0  0  0  0  0  0  0  0
   59.7780   27.4160   46.2080 C   0  0  0  0  0  0  0  0  0  0  0  0
   60.4360   26.5100   47.0460 C   0  0  0  0  0  0  0  0  0  0  0  0
   60.7030   26.8490   48.3740 C   0  0  0  0  0  0  0  0  0  0  0  0
   60.3180   28.0980   48.8650 C   0  0  0  0  0  0  0  0  0  0  0  0
   59.6630   29.0080   48.0320 C   0  0  0  0  0  0  0  0  0  0  0  0
   58.7690   30.9790   46.0990 N   0  0  0  0  0  0  0  0  0  0  0  0
   58.2260   33.8210   47.1200 N   0  0  0  0  0  0  0  0  0  0  0  0
   59.1350   34.9700   47.3060 C   0  0  0  0  0  0  0  0  0  0  0  0
   60.6040   34.5490   47.3260 C   0  0  0  0  0  0  0  0  0  0  0  0
   60.8110   33.4870   48.3140 N   0  0  0  0  0  0  0  0  0  0  0  0
   62.1050   33.3640   48.9310 C   0  0  0  0  0  0  0  0  0  0  0  0
   62.4190   34.1040   50.0840 C   0  0  0  0  0  0  0  0  0  0  0  0
   63.6710   33.9680   50.6910 C   0  0  0  0  0  0  0  0  0  0  0  0
   64.6200   33.0970   50.1500 C   0  0  0  0  0  0  0  0  0  0  0  0
   64.3190   32.3630   48.9980 C   0  0  0  0  0  0  0  0  0  0  0  0
   63.0670   32.4940   48.3890 C   0  0  0  0  0  0  0  0  0  0  0  0
   62.7990   31.7910   47.2600 F   0  0  0  0  0  0  0  0  0  0  0  0
   59.8980   32.3420   48.3280 C   0  0  0  0  0  0  0  0  0  0  0  0
   58.4310   32.7820   48.1610 C   0  0  0  0  0  0  0  0  0  0  0  0
   56.7784   32.3032   43.7070 H   0  0  0  0  0  0  0  0  0  0  0  0
   57.7399   28.1597   44.5409 H   0  0  0  0  0  0  0  0  0  0  0  0
   59.5747   27.1441   45.1617 H   0  0  0  0  0  0  0  0  0  0  0  0
   60.7440   25.5279   46.6580 H   0  0  0  0  0  0  0  0  0  0  0  0
   61.2161   26.1328   49.0326 H   0  0  0  0  0  0  0  0  0  0  0  0
   60.5310   28.3660   49.9104 H   0  0  0  0  0  0  0  0  0  0  0  0
   59.3706   29.9935   48.4236 H   0  0  0  0  0  0  0  0  0  0  0  0
   57.2580   34.1880   47.2800 H   0  0  0  0  0  0  0  0  0  0  0  0
   58.9815   35.6800   46.4800 H   0  0  0  0  0  0  0  0  0  0  0  0
   58.9029   35.4292   48.2782 H   0  0  0  0  0  0  0  0  0  0  0  0
   60.8901   34.1799   46.3300 H   0  0  0  0  0  0  0  0  0  0  0  0
   61.2232   35.4171   47.5961 H   0  0  0  0  0  0  0  0  0  0  0  0
   61.6759   34.7936   50.5109 H   0  0  0  0  0  0  0  0  0  0  0  0
   63.9091   34.5472   51.5953 H   0  0  0  0  0  0  0  0  0  0  0  0
   65.6038   32.9885   50.6300 H   0  0  0  0  0  0  0  0  0  0  0  0
   65.0688   31.6812   48.5702 H   0  0  0  0  0  0  0  0  0  0  0  0
   60.1632   31.6643   47.5031 H   0  0  0  0  0  0  0  0  0  0  0  0
   59.9962   31.8365   49.3000 H   0  0  0  0  0  0  0  0  0  0  0  0
   57.8338   31.8988   47.8903 H   0  0  0  0  0  0  0  0  0  0  0  0
   58.1213   33.2260   49.1186 H   0  0  0  0  0  0  0  0  0  0  0  0
  1  2  2  0
  2  3  1  0
  3  4  2  0
  4  5  1  0
  5  6  1  0
  6  7  1  0
  6  8  1  0
  6  9  1  0
  5 10  2  0
 10 11  1  0
 11 12  1  0
 12 13  2  0
 13 14  1  0
 14 15  2  0
 15 16  1  0
 16 17  2  0
 11 18  2  0
  2 19  1  0
 19 20  1  0
 20 21  1  0
 21 22  1  0
 22 23  1  0
 23 24  2  0
 24 25  1  0
 25 26  2  0
 26 27  1  0
 27 28  2  0
 28 29  1  0
 22 30  1  0
 30 31  1  0
 18  3  1  0
 31 19  1  0
 17 12  1  0
 28 23  1  0
  4 32  1  0
 10 33  1  0
 13 34  1  0
 14 35  1  0
 15 36  1  0
 16 37  1  0
 17 38  1  0
 19 39  1  0
 20 40  1  0
 20 41  1  0
 21 42  1  0
 21 43  1  0
 24 44  1  0
 25 45  1  0
 26 46  1  0
 27 47  1  0
 30 48  1  0
 30 49  1  0
 31 50  1  0
 31 51  1  0
M  CHG  1  19   1
M  END
>  <UniqueID>  (7) 
7

>  <SMILES>  (7) 
O=C(c1cc(C(F)(F)F)cc(-c2ccccc2)n1)[NH+]1CCN(c2ccccc2F)CC1

>  <Energy>  (7) 
76.71501246520216

>  <Genealogy>  (7) 
O=C(c1cc(C(F)(F)F)cc(-c2ccccc2)n1)[NH+]1CCN(c2ccccc2F)CC1 (protonated)
O=C(c1cc(C(F)(F)F)cc(-c2ccccc2)n1)[NH+]1CCN(c2ccccc2F)CC1 (3D coordinates assigned)
O=C(c1cc(C(F)(F)F)cc(-c2ccccc2)n1)[NH+]1CCN(c2ccccc2F)CC1 (nonaromatic ring conformer: 76.71501246520216 kcal/mol)

>  <smiles>  (7) 
O=C(c1cc(C(F)(F)F)cc(-c2ccccc2)n1)N1CCN(c2ccccc2F)CC1

>  <score_type>  (7) 
oracle

>  <origin>  (7) 
adg

>  <m_score__min__energy>  (7) 
-7.0999999999999996

>  <m_primary>  (7) 
energy

$$$$
7:0
     RDKit          3D

 29 29  0  0  0  0  0  0  0  0999 V2000
   58.9060   30.2510   47.4430 C   0  0  0  0  0  0  0  0  0  0  0  0
   59.3490   30.8510   46.1130 C   0  0  0  0  0  0  0  0  0  0  0  0
   58.3350   31.7840   45.6050 N   0  0  0  0  0  0  0  0  0  0  0  0
   57.7140   32.7850   46.4800 C   0  0  0  0  0  0  0  0  0  0  0  0
   58.1480   34.1910   46.0800 C   0  0  0  0  0  0  0  0  0  0  0  0
   57.8440   31.6220   44.2660 C   0  0  0  0  0  0  0  0  0  0  0  0
   58.1930   32.4950   43.2260 C   0  0  0  0  0  0  0  0  0  0  0  0
   57.6130   32.1670   42.0090 C   0  0  0  0  0  0  0  0  0  0  0  0
   56.6670   30.7940   42.2310 S   0  0  0  0  0  0  0  0  0  0  0  0
   56.9810   30.5980   43.8730 C   0  0  0  0  0  0  0  0  0  0  0  0
   56.4270   29.5240   44.7130 C   0  0  0  0  0  0  0  0  0  0  0  0
   55.1780   29.4430   44.8730 O   0  0  0  0  0  0  0  0  0  0  0  0
   57.2790   28.6020   45.3270 O   0  0  0  0  0  0  0  0  0  0  0  0
   58.2880   27.8950   44.6170 C   0  0  0  0  0  0  0  0  0  0  0  0
   59.3368   30.8344   48.2701 H   0  0  0  0  0  0  0  0  0  0  0  0
   57.8083   30.2763   47.5092 H   0  0  0  0  0  0  0  0  0  0  0  0
   59.2534   29.2094   47.5092 H   0  0  0  0  0  0  0  0  0  0  0  0
   60.2968   31.3903   46.2572 H   0  0  0  0  0  0  0  0  0  0  0  0
   59.4814   30.0385   45.3834 H   0  0  0  0  0  0  0  0  0  0  0  0
   56.6198   32.7075   46.3983 H   0  0  0  0  0  0  0  0  0  0  0  0
   58.0326   32.5969   47.5159 H   0  0  0  0  0  0  0  0  0  0  0  0
   58.3326   34.7890   46.9846 H   0  0  0  0  0  0  0  0  0  0  0  0
   59.0704   34.1342   45.4834 H   0  0  0  0  0  0  0  0  0  0  0  0
   57.3540   34.6640   45.4834 H   0  0  0  0  0  0  0  0  0  0  0  0
   58.8624   33.3572   43.3618 H   0  0  0  0  0  0  0  0  0  0  0  0
   57.7484   32.7109   41.0625 H   0  0  0  0  0  0  0  0  0  0  0  0
   58.9723   27.4155   45.3325 H   0  0  0  0  0  0  0  0  0  0  0  0
   57.8207   27.1257   43.9846 H   0  0  0  0  0  0  0  0  0  0  0  0
   58.8515   28.5968   43.9846 H   0  0  0  0  0  0  0  0  0  0  0  0
  1  2  1  0
  2  3  1  0
  3  4  1  0
  4  5  1  0
  3  6  1  0
  6  7  1  0
  7  8  2  0
  8  9  1  0
  9 10  1  0
 10 11  1  0
 11 12  2  0
 11 13  1  0
 13 14  1  0
 10  6  2  0
  1 15  1  0
  1 16  1  0
  1 17  1  0
  2 18  1  0
  2 19  1  0
  4 20  1  0
  4 21  1  0
  5 22  1  0
  5 23  1  0
  5 24  1  0
  7 25  1  0
  8 26  1  0
 14 27  1  0
 14 28  1  0
 14 29  1  0
M  END
>  <UniqueID>  (8) 
8

>  <SMILES>  (8) 
CCN(CC)c1ccsc1C(=O)OC

>  <Energy>  (8) 
48.015893022176414

>  <Genealogy>  (8) 
CCN(CC)c1ccsc1C(=O)OC (3D coordinates assigned)
CCN(CC)c1ccsc1C(=O)OC (optimized conformer: 48.015893022176414 kcal/mol)

>  <smiles>  (8) 
CCN(CC)c1ccsc1C(=O)OC

>  <score_type>  (8) 
oracle

>  <origin>  (8) 
adg

>  <m_score__min__energy>  (8) 
-4.8099999999999996

>  <m_primary>  (8) 
energy

$$$$
8:0
     RDKit          3D

 46 49  0  0  1  0  0  0  0  0999 V2000
   58.0440   31.6600   50.5500 C   0  0  0  0  0  0  0  0  0  0  0  0
   58.8930   30.4390   50.2320 C   0  0  0  0  0  0  0  0  0  0  0  0
   59.5510   30.5580   48.9660 N   0  0  0  0  0  0  0  0  0  0  0  0
   59.4520   29.7700   47.8830 C   0  0  0  0  0  0  0  0  0  0  0  0
   58.6000   28.2610   47.5960 S   0  0  0  0  0  0  0  0  0  0  0  0
   58.1300   27.9110   45.9210 C   0  0  0  0  0  0  0  0  0  0  0  0
   56.7290   27.6730   45.6290 C   0  0  0  0  0  0  0  0  0  0  0  0
   56.0880   26.6050   45.7430 O   0  0  0  0  0  0  0  0  0  0  0  0
   55.9530   28.7960   45.1450 N   0  0  0  0  0  0  0  0  0  0  0  0
   56.4590   29.7800   44.5040 C   0  0  0  0  0  0  0  0  0  0  0  0
   57.0060   30.8220   45.1510 N   0  0  0  0  0  0  0  0  0  0  0  0
   57.5350   31.8560   44.4780 C   0  0  0  0  0  0  0  0  0  0  0  0
   58.1210   32.9590   45.2280 C   0  0  0  0  0  0  0  0  0  0  0  0
   58.8780   33.8830   44.5510 C   0  0  0  0  0  0  0  0  0  0  0  0
   59.4610   34.9600   45.2110 C   0  0  0  0  0  0  0  0  0  0  0  0
   59.2870   35.1220   46.5850 C   0  0  0  0  0  0  0  0  0  0  0  0
   58.5330   34.1970   47.2460 C   0  0  0  0  0  0  0  0  0  0  0  0
   57.9610   33.1360   46.5810 C   0  0  0  0  0  0  0  0  0  0  0  0
   57.4910   31.8020   43.1020 C   0  0  0  0  0  0  0  0  0  0  0  0
   56.9380   30.7500   42.4750 N   0  0  0  0  0  0  0  0  0  0  0  0
   56.4230   29.7390   43.1570 N   0  0  0  0  0  0  0  0  0  0  0  0
   60.2430   30.3540   46.9250 N   0  0  0  0  0  0  0  0  0  0  0  0
   60.8110   31.4590   47.3960 C   0  0  0  0  0  0  0  0  0  0  0  0
   61.6700   32.3370   46.7650 C   0  0  0  0  0  0  0  0  0  0  0  0
   62.1220   33.4310   47.5010 C   0  0  0  0  0  0  0  0  0  0  0  0
   61.6930   33.5800   48.8050 C   0  0  0  0  0  0  0  0  0  0  0  0
   60.8320   32.6910   49.4180 C   0  0  0  0  0  0  0  0  0  0  0  0
   60.3860   31.6080   48.6890 C   0  0  0  0  0  0  0  0  0  0  0  0
   57.9631   31.7763   51.6408 H   0  0  0  0  0  0  0  0  0  0  0  0
   58.5148   32.5562   50.1196 H   0  0  0  0  0  0  0  0  0  0  0  0
   57.0400   31.5307   50.1196 H   0  0  0  0  0  0  0  0  0  0  0  0
   59.6536   30.3209   51.0178 H   0  0  0  0  0  0  0  0  0  0  0  0
   58.2272   29.5645   50.1879 H   0  0  0  0  0  0  0  0  0  0  0  0
   58.4479   28.7680   45.3090 H   0  0  0  0  0  0  0  0  0  0  0  0
   58.6174   26.9498   45.7006 H   0  0  0  0  0  0  0  0  0  0  0  0
   59.0262   33.7696   43.4669 H   0  0  0  0  0  0  0  0  0  0  0  0
   60.0623   35.6875   44.6461 H   0  0  0  0  0  0  0  0  0  0  0  0
   59.7432   35.9687   47.1189 H   0  0  0  0  0  0  0  0  0  0  0  0
   58.3793   34.3008   48.3302 H   0  0  0  0  0  0  0  0  0  0  0  0
   57.3596   32.4103   47.1482 H   0  0  0  0  0  0  0  0  0  0  0  0
   57.9127   32.6282   42.5108 H   0  0  0  0  0  0  0  0  0  0  0  0
   55.9940   28.9240   42.6780 H   0  0  0  0  0  0  0  0  0  0  0  0
   61.9850   32.1793   45.7229 H   0  0  0  0  0  0  0  0  0  0  0  0
   62.8086   34.1630   47.0508 H   0  0  0  0  0  0  0  0  0  0  0  0
   62.0530   34.4452   49.3811 H   0  0  0  0  0  0  0  0  0  0  0  0
   60.5106   32.8423   50.4591 H   0  0  0  0  0  0  0  0  0  0  0  0
  1  2  1  0
  2  3  1  0
  3  4  1  0
  4  5  1  0
  5  6  1  0
  6  7  1  0
  7  8  2  0
  7  9  1  0
  9 10  2  0
 10 11  1  0
 11 12  2  0
 12 13  1  0
 13 14  2  0
 14 15  1  0
 15 16  2  0
 16 17  1  0
 17 18  2  0
 12 19  1  0
 19 20  2  0
 20 21  1  0
  4 22  2  0
 22 23  1  0
 23 24  2  0
 24 25  1  0
 25 26  2  0
 26 27  1  0
 27 28  2  0
 28  3  1  0
 21 10  1  0
 28 23  1  0
 18 13  1  0
  1 29  1  0
  1 30  1  0
  1 31  1  0
  2 32  1  0
  2 33  1  0
  6 34  1  0
  6 35  1  0
 14 36  1  0
 15 37  1  0
 16 38  1  0
 17 39  1  0
 18 40  1  0
 19 41  1  0
 21 42  1  0
 24 43  1  0
 25 44  1  0
 26 45  1  0
 27 46  1  0
M  END
>  <smiles>  (9) 
CCn1c(SCC(=O)N=c2nc(-c3ccccc3)cn[nH]2)nc2ccccc21

>  <score_type>  (9) 
oracle

>  <origin>  (9) 
adg

>  <m_score__min__energy>  (9) 
-9.0399999999999991

>  <m_primary>  (9) 
energy

$$$$
9:0
     RDKit          3D

 42 44  0  0  0  0  0  0  0  0999 V2000
   59.6300   35.0620   46.0320 C   0  0  0  0  0  0  0  0  0  0  0  0
   59.3590   34.6410   47.3270 C   0  0  0  0  0  0  0  0  0  0  0  0
   58.2350   33.3910   47.2540 S   0  0  0  0  0  0  0  0  0  0  0  0
   58.0740   33.3920   45.5800 C   0  0  0  0  0  0  0  0  0  0  0  0
   57.2380   32.4340   44.7910 C   0  0  0  0  0  0  0  0  0  0  0  0
   58.1220   31.5870   43.8610 C   0  0  0  0  0  0  0  0  0  0  0  0
   57.6840   30.1840   43.7910 N   0  0  0  0  0  0  0  0  0  0  0  0
   58.1270   29.4010   44.9510 C   0  0  0  0  0  0  0  0  0  0  0  0
   57.8400   27.9460   44.7120 C   0  0  0  0  0  0  0  0  0  0  0  0
   58.0770   27.3670   43.4590 C   0  0  0  0  0  0  0  0  0  0  0  0
   57.7720   26.0230   43.2390 C   0  0  0  0  0  0  0  0  0  0  0  0
   57.2170   25.2560   44.2790 C   0  0  0  0  0  0  0  0  0  0  0  0
   56.8860   23.8620   44.0960 N   0  0  0  0  0  0  0  0  0  0  0  0
   57.1410   22.9110   45.1850 C   0  0  0  0  0  0  0  0  0  0  0  0
   57.3540   21.5040   44.6220 C   0  0  0  0  0  0  0  0  0  0  0  0
   56.2970   21.1440   43.7540 O   0  0  0  0  0  0  0  0  0  0  0  0
   56.3170   21.9790   42.6140 C   0  0  0  0  0  0  0  0  0  0  0  0
   56.0120   23.4310   42.9970 C   0  0  0  0  0  0  0  0  0  0  0  0
   56.9740   25.8530   45.4810 N   0  0  0  0  0  0  0  0  0  0  0  0
   57.2650   27.1590   45.7170 C   0  0  0  0  0  0  0  0  0  0  0  0
   58.9190   34.3590   45.0520 C   0  0  0  0  0  0  0  0  0  0  0  0
   60.3368   35.8717   45.7980 H   0  0  0  0  0  0  0  0  0  0  0  0
   59.8034   35.0542   48.2445 H   0  0  0  0  0  0  0  0  0  0  0  0
   56.6992   31.7695   45.4824 H   0  0  0  0  0  0  0  0  0  0  0  0
   56.5237   33.0052   44.1798 H   0  0  0  0  0  0  0  0  0  0  0  0
   58.0856   32.0188   42.8499 H   0  0  0  0  0  0  0  0  0  0  0  0
   59.1435   31.5983   44.2690 H   0  0  0  0  0  0  0  0  0  0  0  0
   58.0600   29.7460   42.9170 H   0  0  0  0  0  0  0  0  0  0  0  0
   59.2080   29.5423   45.0976 H   0  0  0  0  0  0  0  0  0  0  0  0
   57.5881   29.7384   45.8486 H   0  0  0  0  0  0  0  0  0  0  0  0
   58.5045   27.9729   42.6465 H   0  0  0  0  0  0  0  0  0  0  0  0
   57.9647   25.5659   42.2572 H   0  0  0  0  0  0  0  0  0  0  0  0
   58.0414   23.2220   45.7350 H   0  0  0  0  0  0  0  0  0  0  0  0
   56.2727   22.8987   45.8602 H   0  0  0  0  0  0  0  0  0  0  0  0
   58.3023   21.4783   44.0652 H   0  0  0  0  0  0  0  0  0  0  0  0
   57.3812   20.7903   45.4586 H   0  0  0  0  0  0  0  0  0  0  0  0
   57.3126   21.9303   42.1489 H   0  0  0  0  0  0  0  0  0  0  0  0
   55.5474   21.6314   41.9091 H   0  0  0  0  0  0  0  0  0  0  0  0
   56.1795   24.0794   42.1244 H   0  0  0  0  0  0  0  0  0  0  0  0
   54.9641   23.5026   43.3237 H   0  0  0  0  0  0  0  0  0  0  0  0
   57.0480   27.5996   46.7013 H   0  0  0  0  0  0  0  0  0  0  0  0
   59.0195   34.5529   43.9739 H   0  0  0  0  0  0  0  0  0  0  0  0
  1  2  2  0
  2  3  1  0
  3  4  1  0
  4  5  1  0
  5  6  1  0
  6  7  1  0
  7  8  1  0
  8  9  1  0
  9 10  2  0
 10 11  1  0
 11 12  2  0
 12 13  1  0
 13 14  1  0
 14 15  1  0
 15 16  1  0
 16 17  1  0
 17 18  1  0
 12 19  1  0
 19 20  2  0
  4 21  2  0
 21  1  1  0
 20  9  1  0
 18 13  1  0
  1 22  1  0
  2 23  1  0
  5 24  1  0
  5 25  1  0
  6 26  1  0
  6 27  1  0
  7 28  1  0
  8 29  1  0
  8 30  1  0
 10 31  1  0
 11 32  1  0
 14 33  1  0
 14 34  1  0
 15 35  1  0
 15 36  1  0
 17 37  1  0
 17 38  1  0
 18 39  1  0
 18 40  1  0
 20 41  1  0
 21 42  1  0
M  END
>  <UniqueID>  (10) 
9

>  <SMILES>  (10) 
c1csc(CCNCc2ccc(N3CCOCC3)nc2)c1

>  <Energy>  (10) 
70.34421879273208

>  <Genealogy>  (10) 
c1csc(CCNCc2ccc(N3CCOCC3)nc2)c1 (3D coordinates assigned)
c1csc(CCNCc2ccc(N3CCOCC3)nc2)c1 (nonaromatic ring conformer: 70.34421879273208 kcal/mol)

>  <smiles>  (10) 
c1csc(CCNCc2ccc(N3CCOCC3)nc2)c1

>  <score_type>  (10) 
oracle

>  <origin>  (10) 
adg

>  <m_score__min__energy>  (10) 
-7.0199999999999996

>  <m_primary>  (10) 
energy

$$$$
10:0
     RDKit          3D

 52 55  0  0  0  0  0  0  0  0999 V2000
   59.7240   33.4450   51.6440 C   0  0  0  0  0  0  0  0  0  0  0  0
   61.0970   33.5140   50.9620 C   0  0  0  0  0  0  0  0  0  0  0  0
   61.0040   33.8390   49.5160 N   0  0  1  0  0  0  0  0  0  0  0  0
   61.6560   32.7930   48.7000 C   0  0  0  0  0  0  0  0  0  0  0  0
   59.5780   33.9870   49.1330 C   0  0  0  0  0  0  0  0  0  0  0  0
   59.3990   34.1420   47.6400 C   0  0  0  0  0  0  0  0  0  0  0  0
   59.8100   35.3200   47.0000 C   0  0  0  0  0  0  0  0  0  0  0  0
   59.6620   35.4590   45.6190 C   0  0  0  0  0  0  0  0  0  0  0  0
   59.1080   34.4230   44.8630 C   0  0  0  0  0  0  0  0  0  0  0  0
   58.6950   33.2310   45.4840 C   0  0  0  0  0  0  0  0  0  0  0  0
   58.1170   32.1230   44.6810 C   0  0  0  0  0  0  0  0  0  0  0  0
   57.6260   32.3610   43.3860 C   0  0  0  0  0  0  0  0  0  0  0  0
   57.0820   31.3190   42.6330 C   0  0  0  0  0  0  0  0  0  0  0  0
   57.0190   30.0280   43.1600 C   0  0  0  0  0  0  0  0  0  0  0  0
   57.5050   29.7650   44.4530 C   0  0  0  0  0  0  0  0  0  0  0  0
   57.4390   28.3960   45.0120 C   0  0  0  0  0  0  0  0  0  0  0  0
   58.5400   27.6160   45.1900 N   0  0  0  0  0  0  0  0  0  0  0  0
   58.0270   26.4900   45.7090 C   0  0  0  0  0  0  0  0  0  0  0  0
   58.7090   25.3310   46.0950 C   0  0  0  0  0  0  0  0  0  0  0  0
   60.2030   25.2340   45.9990 C   0  0  0  0  0  0  0  0  0  0  0  0
   57.9410   24.2820   46.6460 C   0  0  0  0  0  0  0  0  0  0  0  0
   56.5380   24.4070   46.7670 C   0  0  0  0  0  0  0  0  0  0  0  0
   55.8890   25.5850   46.3550 C   0  0  0  0  0  0  0  0  0  0  0  0
   56.6770   26.6070   45.8310 C   0  0  0  0  0  0  0  0  0  0  0  0
   56.2740   27.8100   45.3970 N   0  0  0  0  0  0  0  0  0  0  0  0
   58.0530   30.8180   45.2050 C   0  0  0  0  0  0  0  0  0  0  0  0
   58.8420   33.1010   46.8770 C   0  0  0  0  0  0  0  0  0  0  0  0
   59.8563   33.4516   52.7360 H   0  0  0  0  0  0  0  0  0  0  0  0
   59.1207   34.3140   51.3424 H   0  0  0  0  0  0  0  0  0  0  0  0
   59.2109   32.5199   51.3424 H   0  0  0  0  0  0  0  0  0  0  0  0
   61.6980   34.2898   51.4589 H   0  0  0  0  0  0  0  0  0  0  0  0
   61.5613   32.5207   51.0497 H   0  0  0  0  0  0  0  0  0  0  0  0
   61.4910   34.7510   49.3450 H   0  0  0  0  0  0  0  0  0  0  0  0
   62.1206   32.0477   49.3624 H   0  0  0  0  0  0  0  0  0  0  0  0
   60.9041   32.3014   48.0652 H   0  0  0  0  0  0  0  0  0  0  0  0
   62.4285   33.2516   48.0652 H   0  0  0  0  0  0  0  0  0  0  0  0
   59.0280   33.0939   49.4646 H   0  0  0  0  0  0  0  0  0  0  0  0
   59.1925   34.8976   49.6149 H   0  0  0  0  0  0  0  0  0  0  0  0
   60.2509   36.1380   47.5887 H   0  0  0  0  0  0  0  0  0  0  0  0
   59.9827   36.3876   45.1242 H   0  0  0  0  0  0  0  0  0  0  0  0
   58.9942   34.5405   43.7752 H   0  0  0  0  0  0  0  0  0  0  0  0
   57.6706   33.3753   42.9628 H   0  0  0  0  0  0  0  0  0  0  0  0
   56.7013   31.5161   41.6200 H   0  0  0  0  0  0  0  0  0  0  0  0
   56.5872   29.2126   42.5611 H   0  0  0  0  0  0  0  0  0  0  0  0
   60.6344   25.2060   47.0105 H   0  0  0  0  0  0  0  0  0  0  0  0
   60.4768   24.3162   45.4581 H   0  0  0  0  0  0  0  0  0  0  0  0
   60.5932   26.1087   45.4581 H   0  0  0  0  0  0  0  0  0  0  0  0
   58.4381   23.3606   46.9836 H   0  0  0  0  0  0  0  0  0  0  0  0
   55.9498   23.5773   47.1862 H   0  0  0  0  0  0  0  0  0  0  0  0
   54.7981   25.6951   46.4435 H   0  0  0  0  0  0  0  0  0  0  0  0
   58.4371   30.6199   46.2166 H   0  0  0  0  0  0  0  0  0  0  0  0
   58.5177   32.1750   47.3744 H   0  0  0  0  0  0  0  0  0  0  0  0
  1  2  1  0
  2  3  1  0
  3  4  1  0
  3  5  1  0
  5  6  1  0
  6  7  2  0
  7  8  1  0
  8  9  2  0
  9 10  1  0
 10 11  1  0
 11 12  2  0
 12 13  1  0
 13 14  2  0
 14 15  1  0
 15 16  1  0
 16 17  2  0
 17 18  1  0
 18 19  2  0
 19 20  1  0
 19 21  1  0
 21 22  2  0
 22 23  1  0
 23 24  2  0
 24 25  1  0
 15 26  2  0
 10 27  2  0
 27  6  1  0
 26 11  1  0
 25 16  1  0
 24 18  1  0
  1 28  1  0
  1 29  1  0
  1 30  1  0
  2 31  1  0
  2 32  1  0
  3 33  1  1
  4 34  1  0
  4 35  1  0
  4 36  1  0
  5 37  1  0
  5 38  1  0
  7 39  1  0
  8 40  1  0
  9 41  1  0
 12 42  1  0
 13 43  1  0
 14 44  1  0
 20 45  1  0
 20 46  1  0
 20 47  1  0
 21 48  1  0
 22 49  1  0
 23 50  1  0
 26 51  1  0
 27 52  1  0
M  CHG  2   3   1  25  -1
M  END
>  <UniqueID>  (11) 
10

>  <SMILES>  (11) 
CC[N@@H+](C)Cc1cccc(-c2cccc(-c3nc4c(C)cccc4[n-]3)c2)c1

>  <Energy>  (11) 
96.33605742038755

>  <Genealogy>  (11) 
CC[NH+](C)Cc1cccc(-c2cccc(-c3nc4c(C)cccc4[n-]3)c2)c1 (protonated)
CC[N@@H+](C)Cc1cccc(-c2cccc(-c3nc4c(C)cccc4[n-]3)c2)c1 (chirality)
CC[N@@H+](C)Cc1cccc(-c2cccc(-c3nc4c(C)cccc4[n-]3)c2)c1 (3D coordinates assigned)
CC[N@@H+](C)Cc1cccc(-c2cccc(-c3nc4c(C)cccc4[n-]3)c2)c1 (optimized conformer: 96.33605742038755 kcal/mol)

>  <smiles>  (11) 
CCN(C)Cc1cccc(-c2cccc(-c3nc4c(C)cccc4[nH]3)c2)c1

>  <score_type>  (11) 
oracle

>  <origin>  (11) 
adg

>  <m_score__min__energy>  (11) 
-8.8699999999999992

>  <m_primary>  (11) 
energy

$$$$
11:0
     RDKit          3D

 57 59  0  0  0  0  0  0  0  0999 V2000
   58.4480   27.4210   43.7550 C   0  0  0  0  0  0  0  0  0  0  0  0
   57.8100   27.2620   45.1310 C   0  0  0  0  0  0  0  0  0  0  0  0
   58.8410   27.2400   46.1800 N   0  0  0  0  0  0  0  0  0  0  0  0
   59.3360   25.9530   46.6870 C   0  0  0  0  0  0  0  0  0  0  0  0
   58.6430   24.7850   45.9900 C   0  0  0  0  0  0  0  0  0  0  0  0
   59.3690   28.4760   46.7060 C   0  0  0  0  0  0  0  0  0  0  0  0
   60.3650   29.1780   46.0100 C   0  0  0  0  0  0  0  0  0  0  0  0
   60.9040   30.3540   46.5380 C   0  0  0  0  0  0  0  0  0  0  0  0
   60.4630   30.8470   47.7790 C   0  0  0  0  0  0  0  0  0  0  0  0
   61.0790   32.1060   48.3560 C   0  0  0  0  0  0  0  0  0  0  0  0
   60.5450   33.3780   47.7940 N   0  0  0  0  0  0  0  0  0  0  0  0
   60.9150   33.5870   46.3600 C   0  0  0  0  0  0  0  0  0  0  0  0
   59.7450   34.0260   45.4790 C   0  0  0  0  0  0  0  0  0  0  0  0
   58.5940   33.1700   45.7490 N   0  0  0  0  0  0  0  0  0  0  0  0
   58.0090   32.3570   44.7170 C   0  0  0  0  0  0  0  0  0  0  0  0
   57.4000   31.1340   45.0380 C   0  0  0  0  0  0  0  0  0  0  0  0
   56.8660   30.3260   44.0310 C   0  0  0  0  0  0  0  0  0  0  0  0
   56.9480   30.7260   42.6940 C   0  0  0  0  0  0  0  0  0  0  0  0
   57.5520   31.9470   42.3570 C   0  0  0  0  0  0  0  0  0  0  0  0
   57.7060   32.3420   40.9190 C   0  0  0  0  0  0  0  0  0  0  0  0
   58.0850   32.7560   43.3710 C   0  0  0  0  0  0  0  0  0  0  0  0
   58.1110   33.0530   47.1240 C   0  0  0  0  0  0  0  0  0  0  0  0
   59.1180   33.6400   48.1350 C   0  0  0  0  0  0  0  0  0  0  0  0
   59.4240   30.1760   48.4440 C   0  0  0  0  0  0  0  0  0  0  0  0
   58.8940   28.9940   47.9210 C   0  0  0  0  0  0  0  0  0  0  0  0
   59.5094   27.6855   43.8713 H   0  0  0  0  0  0  0  0  0  0  0  0
   58.3646   26.4746   43.2006 H   0  0  0  0  0  0  0  0  0  0  0  0
   57.9302   28.2176   43.2006 H   0  0  0  0  0  0  0  0  0  0  0  0
   57.1273   28.1052   45.3126 H   0  0  0  0  0  0  0  0  0  0  0  0
   57.2564   26.3118   45.1577 H   0  0  0  0  0  0  0  0  0  0  0  0
   60.4191   25.8881   46.5060 H   0  0  0  0  0  0  0  0  0  0  0  0
   59.1201   25.8952   47.7641 H   0  0  0  0  0  0  0  0  0  0  0  0
   58.2349   24.0972   46.7453 H   0  0  0  0  0  0  0  0  0  0  0  0
   57.8249   25.1664   45.3612 H   0  0  0  0  0  0  0  0  0  0  0  0
   59.3698   24.2498   45.3612 H   0  0  0  0  0  0  0  0  0  0  0  0
   60.7241   28.7996   45.0415 H   0  0  0  0  0  0  0  0  0  0  0  0
   61.6792   30.8983   45.9787 H   0  0  0  0  0  0  0  0  0  0  0  0
   60.8982   32.1090   49.4410 H   0  0  0  0  0  0  0  0  0  0  0  0
   62.1468   32.0762   48.0935 H   0  0  0  0  0  0  0  0  0  0  0  0
   61.0720   34.1190   48.3190 H   0  0  0  0  0  0  0  0  0  0  0  0
   61.6948   34.3613   46.3123 H   0  0  0  0  0  0  0  0  0  0  0  0
   61.2610   32.6170   45.9735 H   0  0  0  0  0  0  0  0  0  0  0  0
   59.4870   35.0714   45.7039 H   0  0  0  0  0  0  0  0  0  0  0  0
   60.0280   33.9418   44.4194 H   0  0  0  0  0  0  0  0  0  0  0  0
   57.3428   30.8100   46.0876 H   0  0  0  0  0  0  0  0  0  0  0  0
   56.3804   29.3738   44.2906 H   0  0  0  0  0  0  0  0  0  0  0  0
   56.5375   30.0811   41.9031 H   0  0  0  0  0  0  0  0  0  0  0  0
   58.1050   33.3654   40.8606 H   0  0  0  0  0  0  0  0  0  0  0  0
   58.3998   31.6490   40.4207 H   0  0  0  0  0  0  0  0  0  0  0  0
   56.7262   32.3015   40.4207 H   0  0  0  0  0  0  0  0  0  0  0  0
   58.5664   33.7103   43.1112 H   0  0  0  0  0  0  0  0  0  0  0  0
   57.1582   33.5951   47.2144 H   0  0  0  0  0  0  0  0  0  0  0  0
   57.9801   31.9848   47.3515 H   0  0  0  0  0  0  0  0  0  0  0  0
   58.9678   34.7288   48.1798 H   0  0  0  0  0  0  0  0  0  0  0  0
   58.9258   33.1448   49.0982 H   0  0  0  0  0  0  0  0  0  0  0  0
   59.0244   30.5843   49.3840 H   0  0  0  0  0  0  0  0  0  0  0  0
   58.0981   28.4650   48.4657 H   0  0  0  0  0  0  0  0  0  0  0  0
  1  2  1  0
  2  3  1  0
  3  4  1  0
  4  5  1  0
  3  6  1  0
  6  7  2  0
  7  8  1  0
  8  9  2  0
  9 10  1  0
 10 11  1  0
 11 12  1  0
 12 13  1  0
 13 14  1  0
 14 15  1  0
 15 16  2  0
 16 17  1  0
 17 18  2  0
 18 19  1  0
 19 20  1  0
 19 21  2  0
 14 22  1  0
 22 23  1  0
  9 24  1  0
 24 25  2  0
 25  6  1  0
 23 11  1  0
 21 15  1  0
  1 26  1  0
  1 27  1  0
  1 28  1  0
  2 29  1  0
  2 30  1  0
  4 31  1  0
  4 32  1  0
  5 33  1  0
  5 34  1  0
  5 35  1  0
  7 36  1  0
  8 37  1  0
 10 38  1  0
 10 39  1  0
 11 40  1  0
 12 41  1  0
 12 42  1  0
 13 43  1  0
 13 44  1  0
 16 45  1  0
 17 46  1  0
 18 47  1  0
 20 48  1  0
 20 49  1  0
 20 50  1  0
 21 51  1  0
 22 52  1  0
 22 53  1  0
 23 54  1  0
 23 55  1  0
 24 56  1  0
 25 57  1  0
M  CHG  1  11   1
M  END
>  <UniqueID>  (12) 
11

>  <SMILES>  (12) 
CCN(CC)c1ccc(C[NH+]2CCN(c3cccc(C)c3)CC2)cc1

>  <Energy>  (12) 
67.02394033789496

>  <Genealogy>  (12) 
CCN(CC)c1ccc(C[NH+]2CCN(c3cccc(C)c3)CC2)cc1 (protonated)
CCN(CC)c1ccc(C[NH+]2CCN(c3cccc(C)c3)CC2)cc1 (3D coordinates assigned)
CCN(CC)c1ccc(C[NH+]2CCN(c3cccc(C)c3)CC2)cc1 (nonaromatic ring conformer: 67.02394033789496 kcal/mol)

>  <smiles>  (12) 
CCN(CC)c1ccc(CN2CCN(c3cccc(C)c3)CC2)cc1

>  <score_type>  (12) 
oracle

>  <origin>  (12) 
adg

>  <m_score__min__energy>  (12) 
-6.0599999999999996

>  <m_primary>  (12) 
energy

$$$$
12:0
     RDKit          3D

 49 51  0  0  0  0  0  0  0  0999 V2000
   64.6050   32.7090   49.5450 C   0  0  0  0  0  0  0  0  0  0  0  0
   64.1040   32.5330   48.2250 O   0  0  0  0  0  0  0  0  0  0  0  0
   62.7850   32.8080   47.8340 C   0  0  0  0  0  0  0  0  0  0  0  0
   62.4800   33.6730   46.7710 C   0  0  0  0  0  0  0  0  0  0  0  0
   61.1520   33.9150   46.4180 C   0  0  0  0  0  0  0  0  0  0  0  0
   60.1010   33.2910   47.1100 C   0  0  0  0  0  0  0  0  0  0  0  0
   58.6890   33.5570   46.7390 C   0  0  0  0  0  0  0  0  0  0  0  0
   58.1500   34.6230   47.1420 O   0  0  0  0  0  0  0  0  0  0  0  0
   57.8540   32.6080   45.9020 C   0  0  1  0  0  0  0  0  0  0  0  0
   57.7280   33.0970   44.4410 C   0  0  0  0  0  0  0  0  0  0  0  0
   57.5050   31.9350   43.4580 C   0  0  0  0  0  0  0  0  0  0  0  0
   56.6970   30.8070   44.1160 C   0  0  0  0  0  0  0  0  0  0  0  0
   57.3870   30.2110   45.2990 N   0  0  1  0  0  0  0  0  0  0  0  0
   58.0590   28.9430   44.9230 C   0  0  0  0  0  0  0  0  0  0  0  0
   57.3240   27.7330   45.4460 C   0  0  0  0  0  0  0  0  0  0  0  0
   58.0070   26.5500   45.7440 C   0  0  0  0  0  0  0  0  0  0  0  0
   57.2880   25.4430   46.1900 C   0  0  0  0  0  0  0  0  0  0  0  0
   55.9030   25.5430   46.3220 C   0  0  0  0  0  0  0  0  0  0  0  0
   55.2290   24.5590   46.7220 O   0  0  0  0  0  0  0  0  0  0  0  0
   55.2830   26.7120   46.0150 N   0  0  0  0  0  0  0  0  0  0  0  0
   55.9720   27.7730   45.5880 N   0  0  0  0  0  0  0  0  0  0  0  0
   58.3420   31.1450   45.9630 C   0  0  0  0  0  0  0  0  0  0  0  0
   60.3980   32.4250   48.1830 C   0  0  0  0  0  0  0  0  0  0  0  0
   59.3400   31.8020   48.8670 O   0  0  0  0  0  0  0  0  0  0  0  0
   58.9280   32.1270   50.1910 C   0  0  0  0  0  0  0  0  0  0  0  0
   61.7430   32.1930   48.5340 C   0  0  0  0  0  0  0  0  0  0  0  0
   63.8263   32.4355   50.2722 H   0  0  0  0  0  0  0  0  0  0  0  0
   65.4857   32.0664   49.6916 H   0  0  0  0  0  0  0  0  0  0  0  0
   64.8903   33.7612   49.6916 H   0  0  0  0  0  0  0  0  0  0  0  0
   63.2922   34.1625   46.2136 H   0  0  0  0  0  0  0  0  0  0  0  0
   60.9257   34.6017   45.5890 H   0  0  0  0  0  0  0  0  0  0  0  0
   56.8509   32.6151   46.3535 H   0  0  0  0  0  0  0  0  0  0  0  0
   56.8758   33.7890   44.3710 H   0  0  0  0  0  0  0  0  0  0  0  0
   58.6703   33.5946   44.1684 H   0  0  0  0  0  0  0  0  0  0  0  0
   56.9559   32.3064   42.5802 H   0  0  0  0  0  0  0  0  0  0  0  0
   58.4851   31.5359   43.1580 H   0  0  0  0  0  0  0  0  0  0  0  0
   55.7285   31.2136   44.4427 H   0  0  0  0  0  0  0  0  0  0  0  0
   56.5751   30.0092   43.3686 H   0  0  0  0  0  0  0  0  0  0  0  0
   56.6410   29.9740   45.9970 H   0  0  0  0  0  0  0  0  0  0  0  0
   58.1095   28.8803   43.8259 H   0  0  0  0  0  0  0  0  0  0  0  0
   59.0642   28.9475   45.3697 H   0  0  0  0  0  0  0  0  0  0  0  0
   59.0994   26.4939   45.6277 H   0  0  0  0  0  0  0  0  0  0  0  0
   57.8052   24.5035   46.4345 H   0  0  0  0  0  0  0  0  0  0  0  0
   58.4521   30.8507   47.0172 H   0  0  0  0  0  0  0  0  0  0  0  0
   59.3031   31.0842   45.4313 H   0  0  0  0  0  0  0  0  0  0  0  0
   59.5789   31.6136   50.9140 H   0  0  0  0  0  0  0  0  0  0  0  0
   58.9997   33.2144   50.3408 H   0  0  0  0  0  0  0  0  0  0  0  0
   57.8872   31.8041   50.3408 H   0  0  0  0  0  0  0  0  0  0  0  0
   61.9762   31.5183   49.3709 H   0  0  0  0  0  0  0  0  0  0  0  0
  1  2  1  0
  2  3  1  0
  3  4  2  0
  4  5  1  0
  5  6  2  0
  6  7  1  0
  7  8  2  0
  7  9  1  0
  9 10  1  0
 10 11  1  0
 11 12  1  0
 12 13  1  0
 13 14  1  0
 14 15  1  0
 15 16  1  0
 16 17  2  0
 17 18  1  0
 18 19  2  0
 18 20  1  0
 20 21  1  0
 13 22  1  0
  6 23  1  0
 23 24  1  0
 24 25  1  0
 23 26  2  0
 26  3  1  0
 22  9  1  0
 21 15  2  0
  1 27  1  0
  1 28  1  0
  1 29  1  0
  4 30  1  0
  5 31  1  0
  9 32  1  1
 10 33  1  0
 10 34  1  0
 11 35  1  0
 11 36  1  0
 12 37  1  0
 12 38  1  0
 13 39  1  1
 14 40  1  0
 14 41  1  0
 16 42  1  0
 17 43  1  0
 22 44  1  0
 22 45  1  0
 25 46  1  0
 25 47  1  0
 25 48  1  0
 26 49  1  0
M  CHG  2  13   1  20  -1
M  END
>  <UniqueID>  (13) 
12

>  <SMILES>  (13) 
COc1ccc(C(=O)[C@H]2CCC[N@@H+](Cc3ccc(=O)[n-]n3)C2)c(OC)c1

>  <Energy>  (13) 
64.97674701736108

>  <Genealogy>  (13) 
COc1ccc(C(=O)C2CCC[NH+](Cc3ccc(=O)[n-]n3)C2)c(OC)c1 (protonated)
COc1ccc(C(=O)[C@H]2CCC[N@@H+](Cc3ccc(=O)[n-]n3)C2)c(OC)c1 (chirality)
COc1ccc(C(=O)[C@H]2CCC[N@@H+](Cc3ccc(=O)[n-]n3)C2)c(OC)c1 (3D coordinates assigned)
COc1ccc(C(=O)[C@H]2CCC[N@@H+](Cc3ccc(=O)[n-]n3)C2)c(OC)c1 (nonaromatic ring conformer: 64.97674701736108 kcal/mol)

>  <smiles>  (13) 
COc1ccc(C(=O)C2CCCN(Cc3ccc(=O)[nH]n3)C2)c(OC)c1

>  <score_type>  (13) 
oracle

>  <origin>  (13) 
adg

>  <m_score__min__energy>  (13) 
-9.1400000000000006

>  <m_primary>  (13) 
energy

$$$$
13:0
     RDKit          3D

 40 42  0  0  0  0  0  0  0  0999 V2000
   58.3630   32.3820   41.4070 C   0  0  0  0  0  0  0  0  0  0  0  0
   57.4400   32.3350   42.4890 O   0  0  0  0  0  0  0  0  0  0  0  0
   57.6800   31.6960   43.7180 C   0  0  0  0  0  0  0  0  0  0  0  0
   57.6050   30.2950   43.8480 C   0  0  0  0  0  0  0  0  0  0  0  0
   57.8210   29.6870   45.0840 C   0  0  0  0  0  0  0  0  0  0  0  0
   58.1140   30.4610   46.2060 C   0  0  0  0  0  0  0  0  0  0  0  0
   58.2160   31.8550   46.0970 C   0  0  0  0  0  0  0  0  0  0  0  0
   57.9980   32.4810   44.8480 C   0  0  0  0  0  0  0  0  0  0  0  0
   58.0510   33.9920   44.7440 C   0  0  1  0  0  0  0  0  0  0  0  0
   56.6590   34.5920   44.9570 C   0  0  0  0  0  0  0  0  0  0  0  0
   59.0180   34.5640   45.7460 C   0  0  0  0  0  0  0  0  0  0  0  0
   59.6090   35.6460   45.4810 O   0  0  0  0  0  0  0  0  0  0  0  0
   59.2450   33.8950   47.0030 N   0  0  0  0  0  0  0  0  0  0  0  0
   60.0590   34.5330   48.0450 C   0  0  0  0  0  0  0  0  0  0  0  0
   61.4690   34.0080   48.0000 C   0  0  0  0  0  0  0  0  0  0  0  0
   62.2070   33.8640   49.1870 C   0  0  0  0  0  0  0  0  0  0  0  0
   63.5300   33.4130   49.1440 C   0  0  0  0  0  0  0  0  0  0  0  0
   64.1260   33.1040   47.9180 C   0  0  0  0  0  0  0  0  0  0  0  0
   63.4000   33.2490   46.7320 C   0  0  0  0  0  0  0  0  0  0  0  0
   62.0770   33.7020   46.7700 C   0  0  0  0  0  0  0  0  0  0  0  0
   58.4780   32.6840   47.3270 C   0  0  0  0  0  0  0  0  0  0  0  0
   59.3884   32.4342   41.8018 H   0  0  0  0  0  0  0  0  0  0  0  0
   58.2527   31.4771   40.7914 H   0  0  0  0  0  0  0  0  0  0  0  0
   58.1614   33.2710   40.7914 H   0  0  0  0  0  0  0  0  0  0  0  0
   57.3744   29.6765   42.9681 H   0  0  0  0  0  0  0  0  0  0  0  0
   57.7600   28.5924   45.1742 H   0  0  0  0  0  0  0  0  0  0  0  0
   58.2659   29.9756   47.1814 H   0  0  0  0  0  0  0  0  0  0  0  0
   58.4003   34.2523   43.7339 H   0  0  0  0  0  0  0  0  0  0  0  0
   56.4581   34.6786   46.0350 H   0  0  0  0  0  0  0  0  0  0  0  0
   56.6148   35.5891   44.4945 H   0  0  0  0  0  0  0  0  0  0  0  0
   55.9038   33.9395   44.4945 H   0  0  0  0  0  0  0  0  0  0  0  0
   60.0712   35.6206   47.8810 H   0  0  0  0  0  0  0  0  0  0  0  0
   59.6234   34.3055   49.0291 H   0  0  0  0  0  0  0  0  0  0  0  0
   61.7422   34.1070   50.1539 H   0  0  0  0  0  0  0  0  0  0  0  0
   64.1026   33.3012   50.0765 H   0  0  0  0  0  0  0  0  0  0  0  0
   65.1659   32.7469   47.8863 H   0  0  0  0  0  0  0  0  0  0  0  0
   63.8699   33.0065   45.7674 H   0  0  0  0  0  0  0  0  0  0  0  0
   61.5106   33.8191   45.8343 H   0  0  0  0  0  0  0  0  0  0  0  0
   59.0480   32.0819   48.0499 H   0  0  0  0  0  0  0  0  0  0  0  0
   57.5104   32.9898   47.7514 H   0  0  0  0  0  0  0  0  0  0  0  0
  1  2  1  0
  2  3  1  0
  3  4  2  0
  4  5  1  0
  5  6  2  0
  6  7  1  0
  7  8  2  0
  8  9  1  0
  9 10  1  0
  9 11  1  0
 11 12  2  0
 11 13  1  0
 13 14  1  0
 14 15  1  0
 15 16  2  0
 16 17  1  0
 17 18  2  0
 18 19  1  0
 19 20  2  0
 13 21  1  0
  8  3  1  0
 20 15  1  0
 21  7  1  0
  1 22  1  0
  1 23  1  0
  1 24  1  0
  4 25  1  0
  5 26  1  0
  6 27  1  0
  9 28  1  6
 10 29  1  0
 10 30  1  0
 10 31  1  0
 14 32  1  0
 14 33  1  0
 16 34  1  0
 17 35  1  0
 18 36  1  0
 19 37  1  0
 20 38  1  0
 21 39  1  0
 21 40  1  0
M  END
>  <UniqueID>  (14) 
13

>  <SMILES>  (14) 
COc1cccc2c1[C@@H](C)C(=O)N(Cc1ccccc1)C2

>  <Energy>  (14) 
39.848939398239544

>  <Genealogy>  (14) 
COc1cccc2c1[C@@H](C)C(=O)N(Cc1ccccc1)C2 (chirality)
COc1cccc2c1[C@@H](C)C(=O)N(Cc1ccccc1)C2 (3D coordinates assigned)
COc1cccc2c1[C@@H](C)C(=O)N(Cc1ccccc1)C2 (nonaromatic ring conformer: 39.848939398239544 kcal/mol)

>  <smiles>  (14) 
COc1cccc2c1C(C)C(=O)N(Cc1ccccc1)C2

>  <score_type>  (14) 
oracle

>  <origin>  (14) 
adg

>  <m_score__min__energy>  (14) 
-7.4900000000000002

>  <m_primary>  (14) 
energy

$$$$
14:0
     RDKit          3D

 31 33  0  0  1  0  0  0  0  0999 V2000
   57.4870   32.1940   41.4680 C   0  0  0  0  0  0  0  0  0  0  0  0
   57.7630   32.0760   42.9340 C   0  0  0  0  0  0  0  0  0  0  0  0
   57.7020   33.1100   43.7730 N   0  0  0  0  0  0  0  0  0  0  0  0
   57.9610   32.9440   45.0830 C   0  0  0  0  0  0  0  0  0  0  0  0
   57.8970   33.9550   45.8840 N   0  0  0  0  0  0  0  0  0  0  0  0
   58.9250   34.9600   46.0010 C   0  0  0  0  0  0  0  0  0  0  0  0
   60.0240   34.5330   46.9170 C   0  0  0  0  0  0  0  0  0  0  0  0
   60.0280   34.5380   48.2990 C   0  0  0  0  0  0  0  0  0  0  0  0
   61.2450   34.0630   48.7490 C   0  0  0  0  0  0  0  0  0  0  0  0
   61.9540   33.7810   47.5770 C   0  0  0  0  0  0  0  0  0  0  0  0
   63.7390   33.0830   47.5590 Br  0  0  0  0  0  0  0  0  0  0  0  0
   61.2110   34.0680   46.5400 O   0  0  0  0  0  0  0  0  0  0  0  0
   58.2980   31.6930   45.5800 C   0  0  0  0  0  0  0  0  0  0  0  0
   58.5700   31.5010   46.9370 C   0  0  0  0  0  0  0  0  0  0  0  0
   58.8970   30.2260   47.3560 C   0  0  0  0  0  0  0  0  0  0  0  0
   58.9620   29.1520   46.4860 C   0  0  0  0  0  0  0  0  0  0  0  0
   58.6860   29.3690   45.1400 C   0  0  0  0  0  0  0  0  0  0  0  0
   58.3560   30.6360   44.6940 C   0  0  0  0  0  0  0  0  0  0  0  0
   58.0900   30.8310   43.3820 N   0  0  0  0  0  0  0  0  0  0  0  0
   56.4852   32.6223   41.3168 H   0  0  0  0  0  0  0  0  0  0  0  0
   58.2396   32.8490   41.0048 H   0  0  0  0  0  0  0  0  0  0  0  0
   57.5334   31.1974   41.0048 H   0  0  0  0  0  0  0  0  0  0  0  0
   59.3484   35.1525   45.0042 H   0  0  0  0  0  0  0  0  0  0  0  0
   58.4664   35.8674   46.4209 H   0  0  0  0  0  0  0  0  0  0  0  0
   59.1957   34.8674   48.9383 H   0  0  0  0  0  0  0  0  0  0  0  0
   61.5792   33.9360   49.7893 H   0  0  0  0  0  0  0  0  0  0  0  0
   58.5252   32.3384   47.6489 H   0  0  0  0  0  0  0  0  0  0  0  0
   59.1139   30.0582   48.4213 H   0  0  0  0  0  0  0  0  0  0  0  0
   59.2262   28.1484   46.8508 H   0  0  0  0  0  0  0  0  0  0  0  0
   58.7303   28.5311   44.4287 H   0  0  0  0  0  0  0  0  0  0  0  0
   58.1340   30.0230   42.7050 H   0  0  0  0  0  0  0  0  0  0  0  0
  1  2  1  0
  2  3  2  0
  3  4  1  0
  4  5  2  0
  5  6  1  0
  6  7  1  0
  7  8  2  0
  8  9  1  0
  9 10  2  0
 10 11  1  0
 10 12  1  0
  4 13  1  0
 13 14  2  0
 14 15  1  0
 15 16  2  0
 16 17  1  0
 17 18  2  0
 18 19  1  0
 19  2  1  0
 12  7  1  0
 18 13  1  0
  1 20  1  0
  1 21  1  0
  1 22  1  0
  6 23  1  0
  6 24  1  0
  8 25  1  0
  9 26  1  0
 14 27  1  0
 15 28  1  0
 16 29  1  0
 17 30  1  0
 19 31  1  0
M  END
>  <smiles>  (15) 
Cc1nc(=NCc2ccc(Br)o2)c2ccccc2[nH]1

>  <score_type>  (15) 
oracle

>  <origin>  (15) 
adg

>  <m_score__min__energy>  (15) 
-7.3799999999999999

>  <m_primary>  (15) 
energy

$$$$
15:0
     RDKit          3D

 58 61  0  0  0  0  0  0  0  0999 V2000
   54.0290   26.3290   46.3810 H   0  0  0  0  0  0  0  0  0  0  0  0
   54.9050   26.6980   46.0350 O   0  0  0  0  0  0  0  0  0  0  0  0
   55.9990   25.8950   45.7060 C   0  0  0  0  0  0  0  0  0  0  0  0
   55.7640   24.5370   45.4540 C   0  0  0  0  0  0  0  0  0  0  0  0
   54.7479   24.1296   45.5618 H   0  0  0  0  0  0  0  0  0  0  0  0
   56.8100   23.6970   45.0670 C   0  0  0  0  0  0  0  0  0  0  0  0
   56.5680   22.3860   44.8170 F   0  0  0  0  0  0  0  0  0  0  0  0
   58.1010   24.2060   44.9310 C   0  0  0  0  0  0  0  0  0  0  0  0
   58.9215   23.5449   44.6153 H   0  0  0  0  0  0  0  0  0  0  0  0
   58.3540   25.5540   45.1950 C   0  0  0  0  0  0  0  0  0  0  0  0
   59.3758   25.9477   45.0901 H   0  0  0  0  0  0  0  0  0  0  0  0
   57.3130   26.4130   45.5940 C   0  0  0  0  0  0  0  0  0  0  0  0
   57.6320   27.8160   45.9420 C   0  0  0  0  0  0  0  0  0  0  0  0
   57.1980   28.8220   45.1390 N   0  0  0  0  0  0  0  0  0  0  0  0
   57.4430   30.1260   45.4370 C   0  0  0  0  0  0  0  0  0  0  0  0
   57.0220   31.0780   44.6590 N   0  0  0  0  0  0  0  0  0  0  0  0
   56.7770   32.4520   45.0980 C   0  0  0  0  0  0  0  0  0  0  0  0
   56.4660   33.0576   44.2340 H   0  0  0  0  0  0  0  0  0  0  0  0
   55.9856   32.4444   45.8620 H   0  0  0  0  0  0  0  0  0  0  0  0
   58.0000   33.0360   45.6850 N   0  0  0  0  0  0  0  0  0  0  0  0
   58.4870   34.1780   44.8750 C   0  0  0  0  0  0  0  0  0  0  0  0
   58.8967   33.7910   43.9303 H   0  0  0  0  0  0  0  0  0  0  0  0
   57.6349   34.8514   44.7008 H   0  0  0  0  0  0  0  0  0  0  0  0
   59.5860   34.9890   45.5960 C   0  0  0  0  0  0  0  0  0  0  0  0
   60.3851   35.2245   44.8776 H   0  0  0  0  0  0  0  0  0  0  0  0
   59.1306   35.9084   45.9927 H   0  0  0  0  0  0  0  0  0  0  0  0
   60.1860   34.2080   46.7680 C   0  0  0  0  0  0  0  0  0  0  0  0
   60.6790   33.3032   46.3831 H   0  0  0  0  0  0  0  0  0  0  0  0
   60.9135   34.8519   47.2838 H   0  0  0  0  0  0  0  0  0  0  0  0
   59.0950   33.7990   47.7700 C   0  0  0  0  0  0  0  0  0  0  0  0
   59.4435   32.9197   48.3315 H   0  0  0  0  0  0  0  0  0  0  0  0
   58.9126   34.6567   48.4342 H   0  0  0  0  0  0  0  0  0  0  0  0
   57.7630   33.4490   47.0810 C   0  0  0  0  0  0  0  0  0  0  0  0
   57.2786   32.6251   47.6256 H   0  0  0  0  0  0  0  0  0  0  0  0
   57.1144   34.3374   47.0854 H   0  0  0  0  0  0  0  0  0  0  0  0
   58.1260   30.4400   46.5680 N   0  0  0  0  0  0  0  0  0  0  0  0
   58.5760   29.4780   47.4200 C   0  0  0  0  0  0  0  0  0  0  0  0
   59.3200   29.8810   48.6410 C   0  0  0  0  0  0  0  0  0  0  0  0
   58.8900   30.9520   49.4430 C   0  0  0  0  0  0  0  0  0  0  0  0
   57.9793   31.5053   49.1700 H   0  0  0  0  0  0  0  0  0  0  0  0
   59.6080   31.3210   50.5840 C   0  0  0  0  0  0  0  0  0  0  0  0
   59.2510   32.1580   51.2021 H   0  0  0  0  0  0  0  0  0  0  0  0
   60.7830   30.6360   50.9540 C   0  0  0  0  0  0  0  0  0  0  0  0
   61.5280   31.0180   52.1390 N   0  0  0  0  0  0  0  0  0  0  0  0
   62.8160   30.3840   52.4500 C   0  0  0  0  0  0  0  0  0  0  0  0
   62.9405   30.3227   53.5412 H   0  0  0  0  0  0  0  0  0  0  0  0
   62.8394   29.3714   52.0208 H   0  0  0  0  0  0  0  0  0  0  0  0
   63.6327   30.9831   52.0208 H   0  0  0  0  0  0  0  0  0  0  0  0
   61.0080   32.0480   53.0490 C   0  0  0  0  0  0  0  0  0  0  0  0
   61.1677   31.7317   54.0904 H   0  0  0  0  0  0  0  0  0  0  0  0
   61.5353   32.9964   52.8689 H   0  0  0  0  0  0  0  0  0  0  0  0
   59.9318   32.1869   52.8689 H   0  0  0  0  0  0  0  0  0  0  0  0
   61.2150   29.5700   50.1380 C   0  0  0  0  0  0  0  0  0  0  0  0
   62.1304   29.0206   50.4031 H   0  0  0  0  0  0  0  0  0  0  0  0
   60.4970   29.2020   48.9980 C   0  0  0  0  0  0  0  0  0  0  0  0
   60.8569   28.3715   48.3729 H   0  0  0  0  0  0  0  0  0  0  0  0
   58.3360   28.1290   47.1130 C   0  0  0  0  0  0  0  0  0  0  0  0
   58.6944   27.3313   47.7802 H   0  0  0  0  0  0  0  0  0  0  0  0
  1  2  1  0
  2  3  1  0
  3  4  2  0
  4  5  1  0
  4  6  1  0
  6  7  1  0
  6  8  2  0
  8  9  1  0
  8 10  1  0
 10 11  1  0
 10 12  2  0
 12 13  1  0
 13 14  2  0
 14 15  1  0
 15 16  2  0
 16 17  1  0
 17 18  1  0
 17 19  1  0
 17 20  1  0
 20 21  1  0
 21 22  1  0
 21 23  1  0
 21 24  1  0
 24 25  1  0
 24 26  1  0
 24 27  1  0
 27 28  1  0
 27 29  1  0
 27 30  1  0
 30 31  1  0
 30 32  1  0
 30 33  1  0
 33 34  1  0
 33 35  1  0
 15 36  1  0
 36 37  1  0
 37 38  1  0
 38 39  2  0
 39 40  1  0
 39 41  1  0
 41 42  1  0
 41 43  2  0
 43 44  1  0
 44 45  1  0
 45 46  1  0
 45 47  1  0
 45 48  1  0
 44 49  1  0
 49 50  1  0
 49 51  1  0
 49 52  1  0
 43 53  1  0
 53 54  1  0
 53 55  2  0
 55 56  1  0
 37 57  2  0
 57 58  1  0
 12  3  1  0
 57 13  1  0
 33 20  1  0
 55 38  1  0
M  CHG  1  36  -1
M  END
>  <UniqueID>  (16) 
14

>  <SMILES>  (16) 
CN(C)c1ccc(-c2cc(-c3ccc(F)cc3O)n/c(=N\CN3CCCCC3)[n-]2)cc1

>  <Energy>  (16) 
77.0918655101825

>  <Genealogy>  (16) 
CN(C)c1ccc(-c2cc(-c3ccc(F)cc3O)nc(=NCN3CCCCC3)[n-]2)cc1 (protonated)
CN(C)c1ccc(-c2cc(-c3ccc(F)cc3O)n/c(=N\CN3CCCCC3)[n-]2)cc1 (cis-trans isomerization)
CN(C)c1ccc(-c2cc(-c3ccc(F)cc3O)n/c(=N\CN3CCCCC3)[n-]2)cc1 (3D coordinates assigned)
CN(C)c1ccc(-c2cc(-c3ccc(F)cc3O)n/c(=N\CN3CCCCC3)[n-]2)cc1 (nonaromatic ring conformer: 77.0918655101825 kcal/mol)

>  <smiles>  (16) 
CN(C)c1ccc(-c2cc(-c3ccc(F)cc3O)nc(=NCN3CCCCC3)[nH]2)cc1

>  <score_type>  (16) 
oracle

>  <origin>  (16) 
adg

>  <m_score__min__energy>  (16) 
-11.67

>  <m_primary>  (16) 
energy

$$$$
16:0
     RDKit          3D

 51 53  0  0  0  0  0  0  0  0999 V2000
   56.6320   29.7350   43.7120 C   0  0  0  0  0  0  0  0  0  0  0  0
   56.7420   30.4780   44.9220 O   0  0  0  0  0  0  0  0  0  0  0  0
   57.4830   31.6610   45.0580 C   0  0  0  0  0  0  0  0  0  0  0  0
   57.7690   32.5090   43.9520 C   0  0  0  0  0  0  0  0  0  0  0  0
   58.5160   33.6870   44.1270 C   0  0  0  0  0  0  0  0  0  0  0  0
   58.9670   33.9920   45.4080 C   0  0  0  0  0  0  0  0  0  0  0  0
   59.6900   35.0610   45.7810 N   0  0  0  0  0  0  0  0  0  0  0  0
   59.8880   34.9310   47.1130 C   0  0  0  0  0  0  0  0  0  0  0  0
   59.2940   33.7630   47.5820 C   0  0  0  0  0  0  0  0  0  0  0  0
   59.2700   33.2850   49.0090 C   0  0  0  0  0  0  0  0  0  0  0  0
   60.6780   32.9580   49.5620 C   0  0  0  0  0  0  0  0  0  0  0  0
   61.3490   31.7790   48.9570 N   0  0  2  0  0  0  0  0  0  0  0  0
   60.6400   30.5080   49.2390 C   0  0  0  0  0  0  0  0  0  0  0  0
   60.2190   29.8170   47.9670 C   0  0  0  0  0  0  0  0  0  0  0  0
   59.2100   28.8430   47.9820 C   0  0  0  0  0  0  0  0  0  0  0  0
   58.8190   28.2440   46.7840 C   0  0  0  0  0  0  0  0  0  0  0  0
   59.4280   28.6240   45.5860 C   0  0  0  0  0  0  0  0  0  0  0  0
   60.4230   29.6030   45.6060 C   0  0  0  0  0  0  0  0  0  0  0  0
   60.7900   30.1760   46.7840 N   0  0  0  0  0  0  0  0  0  0  0  0
   62.7560   31.7280   49.3280 C   0  0  0  0  0  0  0  0  0  0  0  0
   63.1430   30.9030   50.2050 O   0  0  0  0  0  0  0  0  0  0  0  0
   63.7200   32.6480   48.7640 N   0  0  0  0  0  0  0  0  0  0  0  0
   63.4060   33.4570   47.5810 C   0  0  0  0  0  0  0  0  0  0  0  0
   65.0510   32.7370   49.3750 C   0  0  0  0  0  0  0  0  0  0  0  0
   58.6960   33.1810   46.4780 C   0  0  0  0  0  0  0  0  0  0  0  0
   57.9520   32.0080   46.3400 C   0  0  0  0  0  0  0  0  0  0  0  0
   56.4746   28.6721   43.9474 H   0  0  0  0  0  0  0  0  0  0  0  0
   55.7797   30.1111   43.1270 H   0  0  0  0  0  0  0  0  0  0  0  0
   57.5567   29.8480   43.1270 H   0  0  0  0  0  0  0  0  0  0  0  0
   57.4021   32.2403   42.9504 H   0  0  0  0  0  0  0  0  0  0  0  0
   58.7376   34.3484   43.2764 H   0  0  0  0  0  0  0  0  0  0  0  0
   60.0280   35.8380   45.1720 H   0  0  0  0  0  0  0  0  0  0  0  0
   60.4409   35.6479   47.7377 H   0  0  0  0  0  0  0  0  0  0  0  0
   58.8219   34.0712   49.6343 H   0  0  0  0  0  0  0  0  0  0  0  0
   58.6829   32.3551   49.0342 H   0  0  0  0  0  0  0  0  0  0  0  0
   61.3196   33.8355   49.3936 H   0  0  0  0  0  0  0  0  0  0  0  0
   60.5331   32.7090   50.6236 H   0  0  0  0  0  0  0  0  0  0  0  0
   61.2810   31.9180   47.9240 H   0  0  0  0  0  0  0  0  0  0  0  0
   61.3101   29.8422   49.8027 H   0  0  0  0  0  0  0  0  0  0  0  0
   59.7363   30.7386   49.8222 H   0  0  0  0  0  0  0  0  0  0  0  0
   58.7314   28.5540   48.9293 H   0  0  0  0  0  0  0  0  0  0  0  0
   58.0331   27.4744   46.7831 H   0  0  0  0  0  0  0  0  0  0  0  0
   59.1269   28.1569   44.6367 H   0  0  0  0  0  0  0  0  0  0  0  0
   60.9103   29.9111   44.6692 H   0  0  0  0  0  0  0  0  0  0  0  0
   63.0249   34.4387   47.8988 H   0  0  0  0  0  0  0  0  0  0  0  0
   64.3161   33.5944   46.9786 H   0  0  0  0  0  0  0  0  0  0  0  0
   62.6415   32.9444   46.9786 H   0  0  0  0  0  0  0  0  0  0  0  0
   64.9527   32.7304   50.4706 H   0  0  0  0  0  0  0  0  0  0  0  0
   65.6590   31.8775   49.0562 H   0  0  0  0  0  0  0  0  0  0  0  0
   65.5392   33.6698   49.0562 H   0  0  0  0  0  0  0  0  0  0  0  0
   57.7374   31.3707   47.2105 H   0  0  0  0  0  0  0  0  0  0  0  0
  1  2  1  0
  2  3  1  0
  3  4  2  0
  4  5  1  0
  5  6  2  0
  6  7  1  0
  7  8  1  0
  8  9  2  0
  9 10  1  0
 10 11  1  0
 11 12  1  0
 12 13  1  0
 13 14  1  0
 14 15  2  0
 15 16  1  0
 16 17  2  0
 17 18  1  0
 18 19  2  0
 12 20  1  0
 20 21  2  0
 20 22  1  0
 22 23  1  0
 22 24  1  0
  9 25  1  0
 25 26  2  0
 26  3  1  0
 25  6  1  0
 19 14  1  0
  1 27  1  0
  1 28  1  0
  1 29  1  0
  4 30  1  0
  5 31  1  0
  7 32  1  0
  8 33  1  0
 10 34  1  0
 10 35  1  0
 11 36  1  0
 11 37  1  0
 12 38  1  6
 13 39  1  0
 13 40  1  0
 15 41  1  0
 16 42  1  0
 17 43  1  0
 18 44  1  0
 23 45  1  0
 23 46  1  0
 23 47  1  0
 24 48  1  0
 24 49  1  0
 24 50  1  0
 26 51  1  0
M  CHG  1  12   1
M  END
>  <UniqueID>  (17) 
15

>  <SMILES>  (17) 
COc1ccc2[nH]cc(CC[N@H+](Cc3ccccn3)C(=O)N(C)C)c2c1

>  <Energy>  (17) 
88.41027268954788

>  <Genealogy>  (17) 
COc1ccc2[nH]cc(CC[NH+](Cc3ccccn3)C(=O)N(C)C)c2c1 (protonated)
COc1ccc2[nH]cc(CC[N@H+](Cc3ccccn3)C(=O)N(C)C)c2c1 (chirality)
COc1ccc2[nH]cc(CC[N@H+](Cc3ccccn3)C(=O)N(C)C)c2c1 (3D coordinates assigned)
COc1ccc2[nH]cc(CC[N@H+](Cc3ccccn3)C(=O)N(C)C)c2c1 (optimized conformer: 88.41027268954788 kcal/mol)

>  <smiles>  (17) 
COc1ccc2[nH]cc(CCN(Cc3ccccn3)C(=O)N(C)C)c2c1

>  <score_type>  (17) 
oracle

>  <origin>  (17) 
adg

>  <m_score__min__energy>  (17) 
-5.9800000000000004

>  <m_primary>  (17) 
energy

$$$$
17:0
     RDKit          3D

 32 34  0  0  0  0  0  0  0  0999 V2000
   56.2890   29.7250   44.4330 C   0  0  0  0  0  0  0  0  0  0  0  0
   57.5940   30.0890   45.0140 N   0  0  0  0  0  0  0  0  0  0  0  0
   57.8800   31.4830   45.2560 C   0  0  0  0  0  0  0  0  0  0  0  0
   57.5040   32.4420   44.2960 C   0  0  0  0  0  0  0  0  0  0  0  0
   57.7510   33.7960   44.5030 C   0  0  0  0  0  0  0  0  0  0  0  0
   58.3890   34.2180   45.6640 C   0  0  0  0  0  0  0  0  0  0  0  0
   58.7950   33.2880   46.6250 C   0  0  0  0  0  0  0  0  0  0  0  0
   59.7180   33.9630   48.1690 Br  0  0  0  0  0  0  0  0  0  0  0  0
   58.5460   31.9070   46.4380 C   0  0  0  0  0  0  0  0  0  0  0  0
   59.0780   30.9360   47.4770 C   0  0  0  0  0  0  0  0  0  0  0  0
   58.5940   29.1780   47.3120 S   0  0  0  0  0  0  0  0  0  0  0  0
   58.5480   29.0640   45.4860 C   0  0  2  0  0  0  0  0  0  0  0  0
   59.9590   29.3180   44.9040 C   0  0  0  0  0  0  0  0  0  0  0  0
   58.1250   27.6530   45.0740 C   0  0  0  0  0  0  0  0  0  0  0  0
   58.3200   27.0760   43.8170 C   0  0  0  0  0  0  0  0  0  0  0  0
   57.7650   25.7970   43.6900 C   0  0  0  0  0  0  0  0  0  0  0  0
   57.1140   25.3520   44.8310 C   0  0  0  0  0  0  0  0  0  0  0  0
   57.2280   26.5560   45.9940 S   0  0  0  0  0  0  0  0  0  0  0  0
   55.5707   29.5246   45.2416 H   0  0  0  0  0  0  0  0  0  0  0  0
   55.9200   30.5545   43.8119 H   0  0  0  0  0  0  0  0  0  0  0  0
   56.4026   28.8242   43.8119 H   0  0  0  0  0  0  0  0  0  0  0  0
   57.0082   32.1166   43.3696 H   0  0  0  0  0  0  0  0  0  0  0  0
   57.4412   34.5329   43.7474 H   0  0  0  0  0  0  0  0  0  0  0  0
   58.5752   35.2898   45.8271 H   0  0  0  0  0  0  0  0  0  0  0  0
   60.1764   30.9809   47.4389 H   0  0  0  0  0  0  0  0  0  0  0  0
   58.6280   31.2641   48.4256 H   0  0  0  0  0  0  0  0  0  0  0  0
   60.6773   29.4473   45.7270 H   0  0  0  0  0  0  0  0  0  0  0  0
   60.2605   28.4597   44.2856 H   0  0  0  0  0  0  0  0  0  0  0  0
   59.9423   30.2276   44.2856 H   0  0  0  0  0  0  0  0  0  0  0  0
   58.8599   27.5801   43.0019 H   0  0  0  0  0  0  0  0  0  0  0  0
   57.8385   25.1995   42.7693 H   0  0  0  0  0  0  0  0  0  0  0  0
   56.6116   24.3810   44.9521 H   0  0  0  0  0  0  0  0  0  0  0  0
  1  2  1  0
  2  3  1  0
  3  4  2  0
  4  5  1  0
  5  6  2  0
  6  7  1  0
  7  8  1  0
  7  9  2  0
  9 10  1  0
 10 11  1  0
 11 12  1  0
 12 13  1  6
 12 14  1  0
 14 15  2  0
 15 16  1  0
 16 17  2  0
 17 18  1  0
 12  2  1  0
 18 14  1  0
  9  3  1  0
  1 19  1  0
  1 20  1  0
  1 21  1  0
  4 22  1  0
  5 23  1  0
  6 24  1  0
 10 25  1  0
 10 26  1  0
 13 27  1  0
 13 28  1  0
 13 29  1  0
 15 30  1  0
 16 31  1  0
 17 32  1  0
M  END
>  <UniqueID>  (18) 
16

>  <SMILES>  (18) 
CN1c2cccc(Br)c2CS[C@@]1(C)c1cccs1

>  <Energy>  (18) 
73.30277551360669

>  <Genealogy>  (18) 
CN1c2cccc(Br)c2CS[C@@]1(C)c1cccs1 (chirality)
CN1c2cccc(Br)c2CS[C@@]1(C)c1cccs1 (3D coordinates assigned)
CN1c2cccc(Br)c2CS[C@@]1(C)c1cccs1 (nonaromatic ring conformer: 73.30277551360669 kcal/mol)

>  <smiles>  (18) 
CN1c2cccc(Br)c2CSC1(C)c1cccs1

>  <score_type>  (18) 
oracle

>  <origin>  (18) 
adg

>  <m_score__min__energy>  (18) 
-7.25

>  <m_primary>  (18) 
energy

$$$$
18:0
     RDKit          3D

 35 36  0  0  0  0  0  0  0  0999 V2000
   61.9440   31.7350   48.6710 C   0  0  0  0  0  0  0  0  0  0  0  0
   62.0550   32.6240   47.5020 N   0  0  0  0  0  0  0  0  0  0  0  0
   63.4710   32.7310   47.1040 C   0  0  0  0  0  0  0  0  0  0  0  0
   61.4900   33.9530   47.8170 C   0  0  0  0  0  0  0  0  0  0  0  0
   60.0370   33.8270   48.2920 C   0  0  0  0  0  0  0  0  0  0  0  0
   59.1240   33.7930   47.1460 N   0  0  0  0  0  0  0  0  0  0  0  0
   59.2150   34.6940   46.0500 C   0  0  0  0  0  0  0  0  0  0  0  0
   60.1280   35.5580   45.9680 O   0  0  0  0  0  0  0  0  0  0  0  0
   58.1890   34.5430   44.9970 C   0  0  0  0  0  0  0  0  0  0  0  0
   57.0300   33.2560   45.5660 S   0  0  0  0  0  0  0  0  0  0  0  0
   58.0460   32.8220   47.0290 C   0  0  1  0  0  0  0  0  0  0  0  0
   58.5930   31.4220   46.8750 C   0  0  0  0  0  0  0  0  0  0  0  0
   58.8410   30.8970   45.5960 C   0  0  0  0  0  0  0  0  0  0  0  0
   59.3510   29.6030   45.4500 C   0  0  0  0  0  0  0  0  0  0  0  0
   59.6210   28.8230   46.5790 C   0  0  0  0  0  0  0  0  0  0  0  0
   60.3160   27.0570   46.3760 Br  0  0  0  0  0  0  0  0  0  0  0  0
   59.3830   29.3390   47.8570 C   0  0  0  0  0  0  0  0  0  0  0  0
   58.8740   30.6320   48.0070 C   0  0  0  0  0  0  0  0  0  0  0  0
   62.0184   32.3305   49.5929 H   0  0  0  0  0  0  0  0  0  0  0  0
   60.9741   31.2165   48.6466 H   0  0  0  0  0  0  0  0  0  0  0  0
   62.7566   30.9940   48.6466 H   0  0  0  0  0  0  0  0  0  0  0  0
   64.1021   32.7787   48.0037 H   0  0  0  0  0  0  0  0  0  0  0  0
   63.7512   31.8515   46.5057 H   0  0  0  0  0  0  0  0  0  0  0  0
   63.6158   33.6426   46.5057 H   0  0  0  0  0  0  0  0  0  0  0  0
   62.0900   34.4212   48.6112 H   0  0  0  0  0  0  0  0  0  0  0  0
   61.5118   34.5707   46.9071 H   0  0  0  0  0  0  0  0  0  0  0  0
   59.9248   32.8991   48.8720 H   0  0  0  0  0  0  0  0  0  0  0  0
   59.7904   34.6973   48.9179 H   0  0  0  0  0  0  0  0  0  0  0  0
   57.6557   35.4937   44.8496 H   0  0  0  0  0  0  0  0  0  0  0  0
   58.6483   34.2624   44.0377 H   0  0  0  0  0  0  0  0  0  0  0  0
   57.4344   32.8474   47.9429 H   0  0  0  0  0  0  0  0  0  0  0  0
   58.6330   31.5069   44.7045 H   0  0  0  0  0  0  0  0  0  0  0  0
   59.5402   29.1978   44.4450 H   0  0  0  0  0  0  0  0  0  0  0  0
   59.5967   28.7264   48.7453 H   0  0  0  0  0  0  0  0  0  0  0  0
   58.6919   31.0349   49.0142 H   0  0  0  0  0  0  0  0  0  0  0  0
  1  2  1  0
  2  3  1  0
  2  4  1  0
  4  5  1  0
  5  6  1  0
  6  7  1  0
  7  8  2  0
  7  9  1  0
  9 10  1  0
 10 11  1  0
 11 12  1  0
 12 13  2  0
 13 14  1  0
 14 15  2  0
 15 16  1  0
 15 17  1  0
 17 18  2  0
 11  6  1  0
 18 12  1  0
  1 19  1  0
  1 20  1  0
  1 21  1  0
  3 22  1  0
  3 23  1  0
  3 24  1  0
  4 25  1  0
  4 26  1  0
  5 27  1  0
  5 28  1  0
  9 29  1  0
  9 30  1  0
 11 31  1  1
 13 32  1  0
 14 33  1  0
 17 34  1  0
 18 35  1  0
M  END
>  <UniqueID>  (19) 
17

>  <SMILES>  (19) 
CN(C)CCN1C(=O)CS[C@H]1c1ccc(Br)cc1

>  <Energy>  (19) 
28.792023754044244

>  <Genealogy>  (19) 
CN(C)CCN1C(=O)CS[C@H]1c1ccc(Br)cc1 (chirality)
CN(C)CCN1C(=O)CS[C@H]1c1ccc(Br)cc1 (3D coordinates assigned)
CN(C)CCN1C(=O)CS[C@H]1c1ccc(Br)cc1 (nonaromatic ring conformer: 28.792023754044244 kcal/mol)

>  <smiles>  (19) 
CN(C)CCN1C(=O)CSC1c1ccc(Br)cc1

>  <score_type>  (19) 
oracle

>  <origin>  (19) 
adg

>  <m_score__min__energy>  (19) 
-6.2800000000000002

>  <m_primary>  (19) 
energy

$$$$
19:0
     RDKit          3D

 55 57  0  0  0  0  0  0  0  0999 V2000
   56.3790   30.4620   52.6480 C   0  0  0  0  0  0  0  0  0  0  0  0
   57.3610   29.6720   51.9860 O   0  0  0  0  0  0  0  0  0  0  0  0
   58.2280   30.1510   50.9930 C   0  0  0  0  0  0  0  0  0  0  0  0
   58.0600   31.4630   50.5400 C   0  0  0  0  0  0  0  0  0  0  0  0
   58.9000   31.9860   49.5550 C   0  0  0  0  0  0  0  0  0  0  0  0
   59.9280   31.2050   48.9980 C   0  0  0  0  0  0  0  0  0  0  0  0
   60.7850   31.7540   47.9680 N   0  0  0  0  0  0  0  0  0  0  0  0
   61.1520   30.9610   46.7840 C   0  0  0  0  0  0  0  0  0  0  0  0
   59.9970   30.0390   46.3710 C   0  0  0  0  0  0  0  0  0  0  0  0
   58.8880   30.8020   45.6350 C   0  0  0  0  0  0  0  0  0  0  0  0
   58.5820   30.1490   44.3400 N   0  0  0  0  0  0  0  0  0  0  0  0
   58.3640   28.6970   44.4850 C   0  0  0  0  0  0  0  0  0  0  0  0
   57.0260   28.3880   45.1970 C   0  0  0  0  0  0  0  0  0  0  0  0
   56.1370   29.4930   45.2180 O   0  0  0  0  0  0  0  0  0  0  0  0
   56.0970   30.1080   43.9480 C   0  0  0  0  0  0  0  0  0  0  0  0
   57.4450   30.7890   43.6350 C   0  0  0  0  0  0  0  0  0  0  0  0
   61.2780   33.1060   48.0870 C   0  0  0  0  0  0  0  0  0  0  0  0
   62.8940   33.3610   48.2600 S   0  0  0  0  0  0  0  0  0  0  0  0
   60.3740   34.2290   48.0670 N   0  0  0  0  0  0  0  0  0  0  0  0
   59.4940   34.1330   46.9300 C   0  0  0  0  0  0  0  0  0  0  0  0
   59.9920   34.3060   45.6250 C   0  0  0  0  0  0  0  0  0  0  0  0
   59.1370   34.1930   44.5240 C   0  0  0  0  0  0  0  0  0  0  0  0
   57.7830   33.9040   44.7120 C   0  0  0  0  0  0  0  0  0  0  0  0
   57.2800   33.7260   46.0030 C   0  0  0  0  0  0  0  0  0  0  0  0
   58.1290   33.8380   47.1080 C   0  0  0  0  0  0  0  0  0  0  0  0
   60.0940   29.8840   49.4530 C   0  0  0  0  0  0  0  0  0  0  0  0
   59.2540   29.3610   50.4410 C   0  0  0  0  0  0  0  0  0  0  0  0
   56.5018   30.3632   53.7366 H   0  0  0  0  0  0  0  0  0  0  0  0
   56.5012   31.5164   52.3594 H   0  0  0  0  0  0  0  0  0  0  0  0
   55.3752   30.1168   52.3594 H   0  0  0  0  0  0  0  0  0  0  0  0
   57.2598   32.0881   50.9629 H   0  0  0  0  0  0  0  0  0  0  0  0
   58.7559   33.0208   49.2108 H   0  0  0  0  0  0  0  0  0  0  0  0
   61.3865   31.6413   45.9520 H   0  0  0  0  0  0  0  0  0  0  0  0
   62.0282   30.3429   47.0294 H   0  0  0  0  0  0  0  0  0  0  0  0
   60.3889   29.2542   45.7073 H   0  0  0  0  0  0  0  0  0  0  0  0
   59.5634   29.6070   47.2850 H   0  0  0  0  0  0  0  0  0  0  0  0
   57.9815   30.8137   46.2579 H   0  0  0  0  0  0  0  0  0  0  0  0
   59.2292   31.8301   45.4439 H   0  0  0  0  0  0  0  0  0  0  0  0
   58.3508   28.2369   43.4859 H   0  0  0  0  0  0  0  0  0  0  0  0
   59.1809   28.2869   45.0969 H   0  0  0  0  0  0  0  0  0  0  0  0
   56.5354   27.5543   44.6732 H   0  0  0  0  0  0  0  0  0  0  0  0
   57.2615   28.1375   46.2419 H   0  0  0  0  0  0  0  0  0  0  0  0
   55.8904   29.3453   43.1828 H   0  0  0  0  0  0  0  0  0  0  0  0
   55.3043   30.8707   43.9468 H   0  0  0  0  0  0  0  0  0  0  0  0
   57.6253   30.7329   42.5513 H   0  0  0  0  0  0  0  0  0  0  0  0
   57.3812   31.8312   43.9811 H   0  0  0  0  0  0  0  0  0  0  0  0
   60.9000   35.1310   48.0150 H   0  0  0  0  0  0  0  0  0  0  0  0
   59.8220   34.2460   48.9560 H   0  0  0  0  0  0  0  0  0  0  0  0
   61.0576   34.5309   45.4705 H   0  0  0  0  0  0  0  0  0  0  0  0
   59.5318   34.3321   43.5067 H   0  0  0  0  0  0  0  0  0  0  0  0
   57.1133   33.8167   43.8437 H   0  0  0  0  0  0  0  0  0  0  0  0
   56.2142   33.4973   46.1504 H   0  0  0  0  0  0  0  0  0  0  0  0
   57.7282   33.6948   48.1223 H   0  0  0  0  0  0  0  0  0  0  0  0
   60.8916   29.2571   49.0277 H   0  0  0  0  0  0  0  0  0  0  0  0
   59.3957   28.3270   50.7886 H   0  0  0  0  0  0  0  0  0  0  0  0
  1  2  1  0
  2  3  1  0
  3  4  2  0
  4  5  1  0
  5  6  2  0
  6  7  1  0
  7  8  1  0
  8  9  1  0
  9 10  1  0
 10 11  1  0
 11 12  1  0
 12 13  1  0
 13 14  1  0
 14 15  1  0
 15 16  1  0
  7 17  1  0
 17 18  2  0
 17 19  1  0
 19 20  1  0
 20 21  2  0
 21 22  1  0
 22 23  2  0
 23 24  1  0
 24 25  2  0
  6 26  1  0
 26 27  2  0
 27  3  1  0
 16 11  1  0
 25 20  1  0
  1 28  1  0
  1 29  1  0
  1 30  1  0
  4 31  1  0
  5 32  1  0
  8 33  1  0
  8 34  1  0
  9 35  1  0
  9 36  1  0
 10 37  1  0
 10 38  1  0
 12 39  1  0
 12 40  1  0
 13 41  1  0
 13 42  1  0
 15 43  1  0
 15 44  1  0
 16 45  1  0
 16 46  1  0
 19 47  1  0
 19 48  1  0
 21 49  1  0
 22 50  1  0
 23 51  1  0
 24 52  1  0
 25 53  1  0
 26 54  1  0
 27 55  1  0
M  CHG  1  19   1
M  END
>  <UniqueID>  (20) 
18

>  <SMILES>  (20) 
COc1ccc(N(CCCN2CCOCC2)C(=S)[NH2+]c2ccccc2)cc1

>  <Energy>  (20) 
72.55490831387095

>  <Genealogy>  (20) 
COc1ccc(N(CCCN2CCOCC2)C(=S)[NH2+]c2ccccc2)cc1 (protonated)
COc1ccc(N(CCCN2CCOCC2)C(=S)[NH2+]c2ccccc2)cc1 (3D coordinates assigned)
COc1ccc(N(CCCN2CCOCC2)C(=S)[NH2+]c2ccccc2)cc1 (nonaromatic ring conformer: 72.55490831387095 kcal/mol)

>  <smiles>  (20) 
COc1ccc(N(CCCN2CCOCC2)C(=S)Nc2ccccc2)cc1

>  <score_type>  (20) 
oracle

>  <origin>  (20) 
adg

>  <m_score__min__energy>  (20) 
-6.3099999999999996

>  <m_primary>  (20) 
energy

$$$$
20:0
     RDKit          3D

 47 50  0  0  0  0  0  0  0  0999 V2000
   63.4120   31.9590   47.4030 C   0  0  0  0  0  0  0  0  0  0  0  0
   62.2360   31.2060   47.4380 C   0  0  0  0  0  0  0  0  0  0  0  0
   61.0250   31.8120   47.7860 C   0  0  0  0  0  0  0  0  0  0  0  0
   60.9740   33.1880   48.0780 C   0  0  0  0  0  0  0  0  0  0  0  0
   59.6590   33.8570   48.4360 C   0  0  0  0  0  0  0  0  0  0  0  0
   58.8000   34.1990   47.2690 N   0  0  1  0  0  0  0  0  0  0  0  0
   59.5530   34.9220   46.2050 C   0  0  0  0  0  0  0  0  0  0  0  0
   58.7900   34.9220   44.8730 C   0  0  0  0  0  0  0  0  0  0  0  0
   58.5920   33.4870   44.3470 C   0  0  0  0  0  0  0  0  0  0  0  0
   58.5790   32.4380   45.4790 C   0  0  2  0  0  0  0  0  0  0  0  0
   57.8450   31.2360   45.0630 N   0  0  0  0  0  0  0  0  0  0  0  0
   56.6450   31.2220   44.2180 C   0  0  0  0  0  0  0  0  0  0  0  0
   56.3810   29.7400   43.8610 C   0  0  0  0  0  0  0  0  0  0  0  0
   57.5200   29.0260   44.4980 C   0  0  0  0  0  0  0  0  0  0  0  0
   57.8020   27.6590   44.4620 C   0  0  0  0  0  0  0  0  0  0  0  0
   58.9470   27.1940   45.1280 C   0  0  0  0  0  0  0  0  0  0  0  0
   59.7850   28.0960   45.8110 C   0  0  0  0  0  0  0  0  0  0  0  0
   59.4820   29.4670   45.8310 C   0  0  0  0  0  0  0  0  0  0  0  0
   58.3300   29.9040   45.1640 C   0  0  0  0  0  0  0  0  0  0  0  0
   57.9940   33.0470   46.7710 C   0  0  0  0  0  0  0  0  0  0  0  0
   62.1710   33.9270   48.0750 C   0  0  0  0  0  0  0  0  0  0  0  0
   63.3800   33.3170   47.7290 C   0  0  0  0  0  0  0  0  0  0  0  0
   64.3622   31.4832   47.1190 H   0  0  0  0  0  0  0  0  0  0  0  0
   62.2627   30.1343   47.1913 H   0  0  0  0  0  0  0  0  0  0  0  0
   60.1059   31.2094   47.8319 H   0  0  0  0  0  0  0  0  0  0  0  0
   59.0944   33.1760   49.0898 H   0  0  0  0  0  0  0  0  0  0  0  0
   59.9160   34.8089   48.9237 H   0  0  0  0  0  0  0  0  0  0  0  0
   58.1060   34.8920   47.6410 H   0  0  0  0  0  0  0  0  0  0  0  0
   59.7127   35.9623   46.5249 H   0  0  0  0  0  0  0  0  0  0  0  0
   60.5125   34.4063   46.0518 H   0  0  0  0  0  0  0  0  0  0  0  0
   57.8053   35.3887   45.0231 H   0  0  0  0  0  0  0  0  0  0  0  0
   59.3771   35.4871   44.1341 H   0  0  0  0  0  0  0  0  0  0  0  0
   57.6335   33.4376   43.8095 H   0  0  0  0  0  0  0  0  0  0  0  0
   59.4396   33.2540   43.6857 H   0  0  0  0  0  0  0  0  0  0  0  0
   59.6143   32.1338   45.6927 H   0  0  0  0  0  0  0  0  0  0  0  0
   55.7881   31.6398   44.7668 H   0  0  0  0  0  0  0  0  0  0  0  0
   56.7866   31.8315   43.3133 H   0  0  0  0  0  0  0  0  0  0  0  0
   55.4209   29.3997   44.2762 H   0  0  0  0  0  0  0  0  0  0  0  0
   56.3146   29.5637   42.7773 H   0  0  0  0  0  0  0  0  0  0  0  0
   57.1421   26.9624   43.9241 H   0  0  0  0  0  0  0  0  0  0  0  0
   59.1903   26.1213   45.1162 H   0  0  0  0  0  0  0  0  0  0  0  0
   60.6806   27.7253   46.3310 H   0  0  0  0  0  0  0  0  0  0  0  0
   60.1331   30.1804   46.3574 H   0  0  0  0  0  0  0  0  0  0  0  0
   56.9702   33.3936   46.5667 H   0  0  0  0  0  0  0  0  0  0  0  0
   58.0068   32.2670   47.5465 H   0  0  0  0  0  0  0  0  0  0  0  0
   62.1554   34.9927   48.3470 H   0  0  0  0  0  0  0  0  0  0  0  0
   64.3080   33.9073   47.7134 H   0  0  0  0  0  0  0  0  0  0  0  0
  1  2  2  0
  2  3  1  0
  3  4  2  0
  4  5  1  0
  5  6  1  0
  6  7  1  0
  7  8  1  0
  8  9  1  0
  9 10  1  0
 10 11  1  0
 11 12  1  0
 12 13  1  0
 13 14  1  0
 14 15  2  0
 15 16  1  0
 16 17  2  0
 17 18  1  0
 18 19  2  0
 10 20  1  0
  4 21  1  0
 21 22  2  0
 22  1  1  0
 20  6  1  0
 19 11  1  0
 19 14  1  0
  1 23  1  0
  2 24  1  0
  3 25  1  0
  5 26  1  0
  5 27  1  0
  6 28  1  1
  7 29  1  0
  7 30  1  0
  8 31  1  0
  8 32  1  0
  9 33  1  0
  9 34  1  0
 10 35  1  1
 12 36  1  0
 12 37  1  0
 13 38  1  0
 13 39  1  0
 15 40  1  0
 16 41  1  0
 17 42  1  0
 18 43  1  0
 20 44  1  0
 20 45  1  0
 21 46  1  0
 22 47  1  0
M  CHG  1   6   1
M  END
>  <UniqueID>  (21) 
19

>  <SMILES>  (21) 
c1ccc(C[N@H+]2CCC[C@H](N3CCc4ccccc43)C2)cc1

>  <Energy>  (21) 
73.8971702229391

>  <Genealogy>  (21) 
c1ccc(C[NH+]2CCCC(N3CCc4ccccc43)C2)cc1 (protonated)
c1ccc(C[N@H+]2CCC[C@H](N3CCc4ccccc43)C2)cc1 (chirality)
c1ccc(C[N@H+]2CCC[C@H](N3CCc4ccccc43)C2)cc1 (3D coordinates assigned)
c1ccc(C[N@H+]2CCC[C@H](N3CCc4ccccc43)C2)cc1 (nonaromatic ring conformer: 73.8971702229391 kcal/mol)

>  <smiles>  (21) 
c1ccc(CN2CCCC(N3CCc4ccccc43)C2)cc1

>  <score_type>  (21) 
oracle

>  <origin>  (21) 
adg

>  <m_score__min__energy>  (21) 
-6.5899999999999999

>  <m_primary>  (21) 
energy

$$$$
21:0
     RDKit          3D

 30 31  0  0  0  0  0  0  0  0999 V2000
   55.1440   29.3340   44.8640 N   0  0  0  0  0  0  0  0  0  0  0  0
   56.7600   29.5410   44.2880 S   0  0  0  0  0  0  0  0  0  0  0  0
   57.5980   28.3650   44.7050 O   0  0  0  0  0  0  0  0  0  0  0  0
   56.7480   29.6170   42.7860 O   0  0  0  0  0  0  0  0  0  0  0  0
   57.4370   31.0220   44.9550 C   0  0  0  0  0  0  0  0  0  0  0  0
   57.3830   32.2160   44.2230 C   0  0  0  0  0  0  0  0  0  0  0  0
   57.9120   33.3950   44.7590 C   0  0  0  0  0  0  0  0  0  0  0  0
   58.4930   33.3940   46.0360 C   0  0  0  0  0  0  0  0  0  0  0  0
   59.0880   34.6500   46.6100 C   0  0  0  0  0  0  0  0  0  0  0  0
   60.1510   34.3210   47.5570 N   0  0  0  0  0  0  0  0  0  0  0  0
   61.4360   33.8420   47.1300 C   0  0  0  0  0  0  0  0  0  0  0  0
   61.7110   33.8000   45.9000 O   0  0  0  0  0  0  0  0  0  0  0  0
   62.4510   33.3980   48.1040 C   0  0  0  0  0  0  0  0  0  0  0  0
   62.7860   34.0090   49.3100 C   0  0  0  0  0  0  0  0  0  0  0  0
   63.7870   33.3290   50.0160 C   0  0  0  0  0  0  0  0  0  0  0  0
   64.2430   32.1840   49.3780 C   0  0  0  0  0  0  0  0  0  0  0  0
   63.3990   32.0170   47.9350 S   0  0  0  0  0  0  0  0  0  0  0  0
   58.5440   32.1970   46.7670 C   0  0  0  0  0  0  0  0  0  0  0  0
   58.0150   31.0190   46.2320 C   0  0  0  0  0  0  0  0  0  0  0  0
   55.1840   28.6270   45.6340 H   0  0  0  0  0  0  0  0  0  0  0  0
   56.9232   32.2261   43.2238 H   0  0  0  0  0  0  0  0  0  0  0  0
   57.8722   34.3272   44.1764 H   0  0  0  0  0  0  0  0  0  0  0  0
   59.5044   35.2598   45.7946 H   0  0  0  0  0  0  0  0  0  0  0  0
   58.3012   35.2106   47.1360 H   0  0  0  0  0  0  0  0  0  0  0  0
   59.9550   34.4640   48.5720 H   0  0  0  0  0  0  0  0  0  0  0  0
   62.3119   34.9332   49.6720 H   0  0  0  0  0  0  0  0  0  0  0  0
   64.1757   33.6711   50.9865 H   0  0  0  0  0  0  0  0  0  0  0  0
   65.0221   31.5036   49.7523 H   0  0  0  0  0  0  0  0  0  0  0  0
   59.0029   32.1858   47.7666 H   0  0  0  0  0  0  0  0  0  0  0  0
   58.0524   30.0868   46.8148 H   0  0  0  0  0  0  0  0  0  0  0  0
  1  2  1  0
  2  3  2  0
  2  4  2  0
  2  5  1  0
  5  6  2  0
  6  7  1  0
  7  8  2  0
  8  9  1  0
  9 10  1  0
 10 11  1  0
 11 12  2  0
 11 13  1  0
 13 14  2  0
 14 15  1  0
 15 16  2  0
 16 17  1  0
  8 18  1  0
 18 19  2  0
 19  5  1  0
 17 13  1  0
  1 20  1  0
  6 21  1  0
  7 22  1  0
  9 23  1  0
  9 24  1  0
 10 25  1  0
 14 26  1  0
 15 27  1  0
 16 28  1  0
 18 29  1  0
 19 30  1  0
M  CHG  1   1  -1
M  END
>  <UniqueID>  (22) 
20

>  <SMILES>  (22) 
[NH-]S(=O)(=O)c1ccc(CNC(=O)c2cccs2)cc1

>  <Energy>  (22) 
53.45054945260409

>  <Genealogy>  (22) 
[NH-]S(=O)(=O)c1ccc(CNC(=O)c2cccs2)cc1 (protonated)
[NH-]S(=O)(=O)c1ccc(CNC(=O)c2cccs2)cc1 (3D coordinates assigned)
[NH-]S(=O)(=O)c1ccc(CNC(=O)c2cccs2)cc1 (optimized conformer: 53.45054945260409 kcal/mol)

>  <smiles>  (22) 
NS(=O)(=O)c1ccc(CNC(=O)c2cccs2)cc1

>  <score_type>  (22) 
oracle

>  <origin>  (22) 
adg

>  <m_score__min__energy>  (22) 
-10.050000000000001

>  <m_primary>  (22) 
energy

$$$$
22:0
     RDKit          3D

 39 41  0  0  0  0  0  0  0  0999 V2000
   58.3462   35.4658   45.5847 H   0  0  0  0  0  0  0  0  0  0  0  0
   58.2830   34.3680   45.5560 C   0  0  0  0  0  0  0  0  0  0  0  0
   57.7270   33.8020   44.5230 N   0  0  0  0  0  0  0  0  0  0  0  0
   58.2980   32.7150   43.7220 C   0  0  0  0  0  0  0  0  0  0  0  0
   59.3913   32.7154   43.8430 H   0  0  0  0  0  0  0  0  0  0  0  0
   58.0260   32.8768   42.6685 H   0  0  0  0  0  0  0  0  0  0  0  0
   57.7540   31.3760   44.1580 C   0  0  0  0  0  0  0  0  0  0  0  0
   58.3400   30.6860   45.2300 C   0  0  0  0  0  0  0  0  0  0  0  0
   59.2613   31.0721   45.6906 H   0  0  0  0  0  0  0  0  0  0  0  0
   57.7600   29.5110   45.7160 C   0  0  0  0  0  0  0  0  0  0  0  0
   58.2161   28.9863   46.5684 H   0  0  0  0  0  0  0  0  0  0  0  0
   56.5940   28.9970   45.1180 C   0  0  0  0  0  0  0  0  0  0  0  0
   55.9480   27.8480   45.5980 O   0  0  0  0  0  0  0  0  0  0  0  0
   56.6190   26.6570   45.9930 C   0  0  0  0  0  0  0  0  0  0  0  0
   56.6506   26.6009   47.0911 H   0  0  0  0  0  0  0  0  0  0  0  0
   56.0801   25.7838   45.5966 H   0  0  0  0  0  0  0  0  0  0  0  0
   57.6451   26.6655   45.5966 H   0  0  0  0  0  0  0  0  0  0  0  0
   56.0460   29.6560   44.0110 C   0  0  0  0  0  0  0  0  0  0  0  0
   55.1566   29.2412   43.5140 H   0  0  0  0  0  0  0  0  0  0  0  0
   56.6200   30.8360   43.5330 C   0  0  0  0  0  0  0  0  0  0  0  0
   56.1808   31.3446   42.6621 H   0  0  0  0  0  0  0  0  0  0  0  0
   58.8300   33.6010   46.6860 C   0  0  0  0  0  0  0  0  0  0  0  0
   58.1160   33.0560   47.7470 C   0  0  0  0  0  0  0  0  0  0  0  0
   57.0190   33.0378   47.8258 H   0  0  0  0  0  0  0  0  0  0  0  0
   58.9690   32.5510   48.6690 N   0  0  0  0  0  0  0  0  0  0  0  0
   58.5990   31.9950   49.9660 C   0  0  0  0  0  0  0  0  0  0  0  0
   59.0168   32.6229   50.7668 H   0  0  0  0  0  0  0  0  0  0  0  0
   57.5029   31.9690   50.0546 H   0  0  0  0  0  0  0  0  0  0  0  0
   58.9983   30.9739   50.0546 H   0  0  0  0  0  0  0  0  0  0  0  0
   60.2140   32.7920   48.2110 C   0  0  0  0  0  0  0  0  0  0  0  0
   61.4310   32.5530   48.8570 C   0  0  0  0  0  0  0  0  0  0  0  0
   61.4644   32.0462   49.8327 H   0  0  0  0  0  0  0  0  0  0  0  0
   62.6110   32.9800   48.2220 C   0  0  0  0  0  0  0  0  0  0  0  0
   63.5850   32.8015   48.7011 H   0  0  0  0  0  0  0  0  0  0  0  0
   62.5530   33.6360   46.9740 C   0  0  0  0  0  0  0  0  0  0  0  0
   63.4828   33.9663   46.4877 H   0  0  0  0  0  0  0  0  0  0  0  0
   61.3170   33.8710   46.3470 C   0  0  0  0  0  0  0  0  0  0  0  0
   61.2606   34.3888   45.3781 H   0  0  0  0  0  0  0  0  0  0  0  0
   60.1650   33.4260   46.9940 C   0  0  0  0  0  0  0  0  0  0  0  0
  1  2  1  0
  2  3  2  0
  3  4  1  0
  4  5  1  0
  4  6  1  0
  4  7  1  0
  7  8  2  0
  8  9  1  0
  8 10  1  0
 10 11  1  0
 10 12  2  0
 12 13  1  0
 13 14  1  0
 14 15  1  0
 14 16  1  0
 14 17  1  0
 12 18  1  0
 18 19  1  0
 18 20  2  0
 20 21  1  0
  2 22  1  0
 22 23  2  0
 23 24  1  0
 23 25  1  0
 25 26  1  0
 26 27  1  0
 26 28  1  0
 26 29  1  0
 25 30  1  0
 30 31  2  0
 31 32  1  0
 31 33  1  0
 33 34  1  0
 33 35  2  0
 35 36  1  0
 35 37  1  0
 37 38  1  0
 37 39  2  0
 20  7  1  0
 39 22  1  0
 39 30  1  0
M  END
>  <UniqueID>  (23) 
21

>  <SMILES>  (23) 
COc1ccc(C/N=C\c2cn(C)c3ccccc23)cc1

>  <Energy>  (23) 
76.21634883065346

>  <Genealogy>  (23) 
COc1ccc(C/N=C\c2cn(C)c3ccccc23)cc1 (cis-trans isomerization)
COc1ccc(C/N=C\c2cn(C)c3ccccc23)cc1 (3D coordinates assigned)
COc1ccc(C/N=C\c2cn(C)c3ccccc23)cc1 (optimized conformer: 76.21634883065346 kcal/mol)

>  <smiles>  (23) 
COc1ccc(CN=Cc2cn(C)c3ccccc23)cc1

>  <score_type>  (23) 
oracle

>  <origin>  (23) 
adg

>  <m_score__min__energy>  (23) 
-7.5599999999999996

>  <m_primary>  (23) 
energy

$$$$
23:0
     RDKit          3D

 62 65  0  0  0  0  0  0  0  0999 V2000
   61.7730   30.9280   47.2700 C   0  0  0  0  0  0  0  0  0  0  0  0
   61.8150   32.1020   48.2580 C   0  0  0  0  0  0  0  0  0  0  0  0
   62.5380   33.3020   47.7680 N   0  0  0  0  0  0  0  0  0  0  0  0
   64.0020   33.3350   47.9750 C   0  0  0  0  0  0  0  0  0  0  0  0
   64.3540   33.0300   49.4280 C   0  0  0  0  0  0  0  0  0  0  0  0
   62.0870   33.8290   46.4600 C   0  0  0  0  0  0  0  0  0  0  0  0
   60.7630   34.6190   46.5140 C   0  0  0  0  0  0  0  0  0  0  0  0
   59.9400   34.3960   45.3200 N   0  0  0  0  0  0  0  0  0  0  0  0
   59.0860   33.2490   45.1560 C   0  0  0  0  0  0  0  0  0  0  0  0
   58.2470   33.1760   44.0350 C   0  0  0  0  0  0  0  0  0  0  0  0
   57.3950   32.0850   43.8570 C   0  0  0  0  0  0  0  0  0  0  0  0
   57.3700   31.0420   44.7950 C   0  0  0  0  0  0  0  0  0  0  0  0
   58.2280   31.0840   45.9060 C   0  0  0  0  0  0  0  0  0  0  0  0
   59.0690   32.1960   46.0900 C   0  0  0  0  0  0  0  0  0  0  0  0
   58.2350   30.0020   46.9120 C   0  0  0  0  0  0  0  0  0  0  0  0
   58.2160   30.3250   48.1320 O   0  0  0  0  0  0  0  0  0  0  0  0
   58.3710   28.5630   46.5470 C   0  0  0  0  0  0  0  0  0  0  0  0
   59.0530   27.7260   47.4510 C   0  0  0  0  0  0  0  0  0  0  0  0
   59.3110   26.3910   47.1430 C   0  0  0  0  0  0  0  0  0  0  0  0
   58.8880   25.8490   45.9280 C   0  0  0  0  0  0  0  0  0  0  0  0
   59.1950   24.4770   45.6190 N   0  0  0  0  0  0  0  0  0  0  0  0
   58.3430   23.6240   44.8350 C   0  0  0  0  0  0  0  0  0  0  0  0
   57.0610   24.0650   44.4620 C   0  0  0  0  0  0  0  0  0  0  0  0
   56.2050   23.2290   43.7430 C   0  0  0  0  0  0  0  0  0  0  0  0
   56.6140   21.9390   43.3990 C   0  0  0  0  0  0  0  0  0  0  0  0
   57.8790   21.4840   43.7730 C   0  0  0  0  0  0  0  0  0  0  0  0
   58.7530   22.3160   44.4910 C   0  0  0  0  0  0  0  0  0  0  0  0
   60.0580   21.8310   44.8300 N   0  0  0  0  0  0  0  0  0  0  0  0
   58.2090   26.6710   45.0160 C   0  0  0  0  0  0  0  0  0  0  0  0
   57.9170   28.0070   45.3190 C   0  0  0  0  0  0  0  0  0  0  0  0
   57.1560   28.7070   44.3700 O   0  0  0  0  0  0  0  0  0  0  0  0
   56.4250   29.8950   44.6250 C   0  0  0  0  0  0  0  0  0  0  0  0
   61.7391   29.9805   47.8277 H   0  0  0  0  0  0  0  0  0  0  0  0
   60.8773   31.0132   46.6371 H   0  0  0  0  0  0  0  0  0  0  0  0
   62.6725   30.9490   46.6371 H   0  0  0  0  0  0  0  0  0  0  0  0
   60.7795   32.3954   48.4851 H   0  0  0  0  0  0  0  0  0  0  0  0
   62.3682   31.7455   49.1394 H   0  0  0  0  0  0  0  0  0  0  0  0
   64.4746   32.5841   47.3248 H   0  0  0  0  0  0  0  0  0  0  0  0
   64.3689   34.3423   47.7287 H   0  0  0  0  0  0  0  0  0  0  0  0
   63.6922   33.6034   50.0937 H   0  0  0  0  0  0  0  0  0  0  0  0
   64.2236   31.9546   49.6189 H   0  0  0  0  0  0  0  0  0  0  0  0
   65.3999   33.3121   49.6189 H   0  0  0  0  0  0  0  0  0  0  0  0
   62.8698   34.4957   46.0692 H   0  0  0  0  0  0  0  0  0  0  0  0
   61.9060   32.9564   45.8152 H   0  0  0  0  0  0  0  0  0  0  0  0
   60.1955   34.3005   47.4009 H   0  0  0  0  0  0  0  0  0  0  0  0
   61.0086   35.6902   46.5618 H   0  0  0  0  0  0  0  0  0  0  0  0
   59.9470   35.1100   44.5580 H   0  0  0  0  0  0  0  0  0  0  0  0
   58.2604   33.9851   43.2899 H   0  0  0  0  0  0  0  0  0  0  0  0
   56.7386   32.0426   42.9753 H   0  0  0  0  0  0  0  0  0  0  0  0
   59.7214   32.2435   46.9744 H   0  0  0  0  0  0  0  0  0  0  0  0
   59.3879   28.1325   48.4167 H   0  0  0  0  0  0  0  0  0  0  0  0
   59.8522   25.7597   47.8631 H   0  0  0  0  0  0  0  0  0  0  0  0
   60.0600   24.0600   46.0300 H   0  0  0  0  0  0  0  0  0  0  0  0
   56.7300   25.0768   44.7390 H   0  0  0  0  0  0  0  0  0  0  0  0
   55.2077   23.5867   43.4473 H   0  0  0  0  0  0  0  0  0  0  0  0
   55.9385   21.2809   42.8327 H   0  0  0  0  0  0  0  0  0  0  0  0
   58.1941   20.4652   43.5031 H   0  0  0  0  0  0  0  0  0  0  0  0
   60.2070   20.8780   45.2300 H   0  0  0  0  0  0  0  0  0  0  0  0
   60.8960   22.4450   44.7260 H   0  0  0  0  0  0  0  0  0  0  0  0
   57.9000   26.2583   44.0443 H   0  0  0  0  0  0  0  0  0  0  0  0
   55.7515   30.0984   43.7795 H   0  0  0  0  0  0  0  0  0  0  0  0
   55.8354   29.7694   45.5451 H   0  0  0  0  0  0  0  0  0  0  0  0
  1  2  1  0
  2  3  1  0
  3  4  1  0
  4  5  1  0
  3  6  1  0
  6  7  1  0
  7  8  1  0
  8  9  1  0
  9 10  2  0
 10 11  1  0
 11 12  2  0
 12 13  1  0
 13 14  2  0
 13 15  1  0
 15 16  2  0
 15 17  1  0
 17 18  2  0
 18 19  1  0
 19 20  2  0
 20 21  1  0
 21 22  1  0
 22 23  2  0
 23 24  1  0
 24 25  2  0
 25 26  1  0
 26 27  2  0
 27 28  1  0
 20 29  1  0
 29 30  2  0
 30 31  1  0
 31 32  1  0
 14  9  1  0
 30 17  1  0
 32 12  1  0
 27 22  1  0
  1 33  1  0
  1 34  1  0
  1 35  1  0
  2 36  1  0
  2 37  1  0
  4 38  1  0
  4 39  1  0
  5 40  1  0
  5 41  1  0
  5 42  1  0
  6 43  1  0
  6 44  1  0
  7 45  1  0
  7 46  1  0
  8 47  1  0
 10 48  1  0
 11 49  1  0
 14 50  1  0
 18 51  1  0
 19 52  1  0
 21 53  1  0
 23 54  1  0
 24 55  1  0
 25 56  1  0
 26 57  1  0
 28 58  1  0
 28 59  1  0
 29 60  1  0
 32 61  1  0
 32 62  1  0
M  END
>  <UniqueID>  (24) 
22

>  <SMILES>  (24) 
CCN(CC)CCNc1ccc2c(c1)C(=O)c1ccc(Nc3ccccc3N)cc1OC2

>  <Energy>  (24) 
91.34577832876661

>  <Genealogy>  (24) 
CCN(CC)CCNc1ccc2c(c1)C(=O)c1ccc(Nc3ccccc3N)cc1OC2 (3D coordinates assigned)
CCN(CC)CCNc1ccc2c(c1)C(=O)c1ccc(Nc3ccccc3N)cc1OC2 (nonaromatic ring conformer: 91.34577832876661 kcal/mol)

>  <smiles>  (24) 
CCN(CC)CCNc1ccc2c(c1)C(=O)c1ccc(Nc3ccccc3N)cc1OC2

>  <score_type>  (24) 
oracle

>  <origin>  (24) 
adg

>  <m_score__min__energy>  (24) 
-8.4900000000000002

>  <m_primary>  (24) 
energy

$$$$
24:0
     RDKit          3D

 42 43  0  0  0  0  0  0  0  0999 V2000
   57.0990   31.8650   41.4820 C   0  0  0  0  0  0  0  0  0  0  0  0
   57.4090   31.8830   42.9450 C   0  0  0  0  0  0  0  0  0  0  0  0
   58.3010   32.7280   43.5730 C   0  0  0  0  0  0  0  0  0  0  0  0
   58.2710   32.3270   44.8980 C   0  0  0  0  0  0  0  0  0  0  0  0
   59.1160   32.8960   46.0040 C   0  0  1  0  0  0  0  0  0  0  0  0
   58.8810   34.4020   46.1520 C   0  0  0  0  0  0  0  0  0  0  0  0
   59.8220   34.9790   47.2220 C   0  0  0  0  0  0  0  0  0  0  0  0
   59.8890   34.1740   48.4750 N   0  0  2  0  0  0  0  0  0  0  0  0
   61.5110   33.5920   48.8030 S   0  0  0  0  0  0  0  0  0  0  0  0
   61.4300   32.5260   49.8620 O   0  0  0  0  0  0  0  0  0  0  0  0
   62.3290   34.7280   49.3550 O   0  0  0  0  0  0  0  0  0  0  0  0
   62.2490   32.9530   47.3440 N   0  0  0  0  0  0  0  0  0  0  0  0
   62.7410   31.5890   47.5720 C   0  0  0  0  0  0  0  0  0  0  0  0
   63.3530   33.8140   46.8990 C   0  0  0  0  0  0  0  0  0  0  0  0
   58.8910   33.0840   48.5690 C   0  0  0  0  0  0  0  0  0  0  0  0
   58.8540   32.1580   47.3340 C   0  0  0  0  0  0  0  0  0  0  0  0
   57.4270   31.2840   45.0460 N   0  0  0  0  0  0  0  0  0  0  0  0
   56.9070   31.0240   43.8570 N   0  0  0  0  0  0  0  0  0  0  0  0
   55.9510   29.9520   43.6100 C   0  0  0  0  0  0  0  0  0  0  0  0
   56.0102   31.8018   41.3387 H   0  0  0  0  0  0  0  0  0  0  0  0
   57.4773   32.7866   41.0157 H   0  0  0  0  0  0  0  0  0  0  0  0
   57.5815   30.9934   41.0157 H   0  0  0  0  0  0  0  0  0  0  0  0
   58.8987   33.5350   43.1241 H   0  0  0  0  0  0  0  0  0  0  0  0
   60.1726   32.7446   45.7380 H   0  0  0  0  0  0  0  0  0  0  0  0
   57.8374   34.5801   46.4506 H   0  0  0  0  0  0  0  0  0  0  0  0
   59.0834   34.8950   45.1897 H   0  0  0  0  0  0  0  0  0  0  0  0
   59.4729   35.9898   47.4796 H   0  0  0  0  0  0  0  0  0  0  0  0
   60.8332   34.9749   46.7891 H   0  0  0  0  0  0  0  0  0  0  0  0
   59.6780   34.8250   49.2690 H   0  0  0  0  0  0  0  0  0  0  0  0
   62.8092   31.3998   48.6535 H   0  0  0  0  0  0  0  0  0  0  0  0
   62.0464   30.8678   47.1167 H   0  0  0  0  0  0  0  0  0  0  0  0
   63.7361   31.4773   47.1167 H   0  0  0  0  0  0  0  0  0  0  0  0
   63.8763   34.2221   47.7763 H   0  0  0  0  0  0  0  0  0  0  0  0
   64.0570   33.2241   46.2937 H   0  0  0  0  0  0  0  0  0  0  0  0
   62.9524   34.6405   46.2937 H   0  0  0  0  0  0  0  0  0  0  0  0
   57.8958   33.5360   48.6923 H   0  0  0  0  0  0  0  0  0  0  0  0
   59.1818   32.4594   49.4265 H   0  0  0  0  0  0  0  0  0  0  0  0
   57.8613   31.6871   47.2814 H   0  0  0  0  0  0  0  0  0  0  0  0
   59.6596   31.4194   47.4587 H   0  0  0  0  0  0  0  0  0  0  0  0
   55.5935   29.5511   44.5700 H   0  0  0  0  0  0  0  0  0  0  0  0
   55.0987   30.3457   43.0368 H   0  0  0  0  0  0  0  0  0  0  0  0
   56.4393   29.1501   43.0368 H   0  0  0  0  0  0  0  0  0  0  0  0
  1  2  1  0
  2  3  2  0
  3  4  1  0
  4  5  1  0
  5  6  1  0
  6  7  1  0
  7  8  1  0
  8  9  1  0
  9 10  2  0
  9 11  2  0
  9 12  1  0
 12 13  1  0
 12 14  1  0
  8 15  1  0
 15 16  1  0
  4 17  2  0
 17 18  1  0
 18 19  1  0
 18  2  1  0
 16  5  1  0
  1 20  1  0
  1 21  1  0
  1 22  1  0
  3 23  1  0
  5 24  1  6
  6 25  1  0
  6 26  1  0
  7 27  1  0
  7 28  1  0
  8 29  1  1
 13 30  1  0
 13 31  1  0
 13 32  1  0
 14 33  1  0
 14 34  1  0
 14 35  1  0
 15 36  1  0
 15 37  1  0
 16 38  1  0
 16 39  1  0
 19 40  1  0
 19 41  1  0
 19 42  1  0
M  CHG  1   8   1
M  END
>  <UniqueID>  (25) 
23

>  <SMILES>  (25) 
Cc1cc(C2CC[NH+](S(=O)(=O)N(C)C)CC2)nn1C

>  <Energy>  (25) 
73.93204071821484

>  <Genealogy>  (25) 
Cc1cc(C2CC[NH+](S(=O)(=O)N(C)C)CC2)nn1C (protonated)
Cc1cc(C2CC[NH+](S(=O)(=O)N(C)C)CC2)nn1C (3D coordinates assigned)
Cc1cc(C2CC[NH+](S(=O)(=O)N(C)C)CC2)nn1C (nonaromatic ring conformer: 73.93204071821484 kcal/mol)

>  <smiles>  (25) 
Cc1cc(C2CCN(S(=O)(=O)N(C)C)CC2)nn1C

>  <score_type>  (25) 
oracle

>  <origin>  (25) 
adg

>  <m_score__min__energy>  (25) 
-5.6799999999999997

>  <m_primary>  (25) 
energy

$$$$
25:0
     RDKit          3D

 38 40  0  0  0  0  0  0  0  0999 V2000
   60.5940   29.7860   46.1130 C   0  0  0  0  0  0  0  0  0  0  0  0
   60.9270   30.3430   47.3810 O   0  0  0  0  0  0  0  0  0  0  0  0
   61.6770   31.5160   47.5660 C   0  0  0  0  0  0  0  0  0  0  0  0
   63.0280   31.6020   47.1740 C   0  0  0  0  0  0  0  0  0  0  0  0
   63.7450   32.7850   47.3620 C   0  0  0  0  0  0  0  0  0  0  0  0
   63.1290   33.8930   47.9410 C   0  0  0  0  0  0  0  0  0  0  0  0
   61.7930   33.8220   48.3380 C   0  0  0  0  0  0  0  0  0  0  0  0
   61.0550   32.6370   48.1600 C   0  0  0  0  0  0  0  0  0  0  0  0
   59.6610   32.5940   48.5420 N   0  0  0  0  0  0  0  0  0  0  0  0
   58.8630   33.5720   47.7830 C   0  0  0  0  0  0  0  0  0  0  0  0
   58.3600   32.9990   46.4850 C   0  0  0  0  0  0  0  0  0  0  0  0
   57.8210   31.7590   46.3880 N   0  0  0  0  0  0  0  0  0  0  0  0
   57.6150   31.6090   45.0640 C   0  0  0  0  0  0  0  0  0  0  0  0
   57.0870   30.4760   44.4480 C   0  0  0  0  0  0  0  0  0  0  0  0
   56.9780   30.4840   43.0490 C   0  0  0  0  0  0  0  0  0  0  0  0
   57.3990   31.6060   42.3090 C   0  0  0  0  0  0  0  0  0  0  0  0
   57.9250   32.7190   42.9810 C   0  0  0  0  0  0  0  0  0  0  0  0
   58.0040   32.6730   44.3380 N   0  0  0  0  0  0  0  0  0  0  0  0
   58.4720   33.5710   45.2210 C   0  0  0  0  0  0  0  0  0  0  0  0
   59.1150   34.8780   44.8640 C   0  0  0  0  0  0  0  0  0  0  0  0
   60.0346   28.8502   46.2591 H   0  0  0  0  0  0  0  0  0  0  0  0
   59.9743   30.4997   45.5503 H   0  0  0  0  0  0  0  0  0  0  0  0
   61.5160   29.5780   45.5503 H   0  0  0  0  0  0  0  0  0  0  0  0
   63.5208   30.7312   46.7169 H   0  0  0  0  0  0  0  0  0  0  0  0
   64.7989   32.8428   47.0523 H   0  0  0  0  0  0  0  0  0  0  0  0
   63.6964   34.8243   48.0852 H   0  0  0  0  0  0  0  0  0  0  0  0
   61.3125   34.7001   48.7941 H   0  0  0  0  0  0  0  0  0  0  0  0
   59.5570   32.7710   49.5690 H   0  0  0  0  0  0  0  0  0  0  0  0
   59.2790   31.6360   48.3640 H   0  0  0  0  0  0  0  0  0  0  0  0
   58.0013   33.8788   48.3940 H   0  0  0  0  0  0  0  0  0  0  0  0
   59.5089   34.4311   47.5490 H   0  0  0  0  0  0  0  0  0  0  0  0
   56.7665   29.6049   45.0384 H   0  0  0  0  0  0  0  0  0  0  0  0
   56.5616   29.6095   42.5276 H   0  0  0  0  0  0  0  0  0  0  0  0
   57.3159   31.6093   41.2121 H   0  0  0  0  0  0  0  0  0  0  0  0
   58.2646   33.6055   42.4253 H   0  0  0  0  0  0  0  0  0  0  0  0
   59.3812   35.4191   45.7840 H   0  0  0  0  0  0  0  0  0  0  0  0
   60.0236   34.6903   44.2731 H   0  0  0  0  0  0  0  0  0  0  0  0
   58.4118   35.4833   44.2731 H   0  0  0  0  0  0  0  0  0  0  0  0
  1  2  1  0
  2  3  1  0
  3  4  2  0
  4  5  1  0
  5  6  2  0
  6  7  1  0
  7  8  2  0
  8  9  1  0
  9 10  1  0
 10 11  1  0
 11 12  1  0
 12 13  2  0
 13 14  1  0
 14 15  2  0
 15 16  1  0
 16 17  2  0
 17 18  1  0
 18 19  1  0
 19 20  1  0
  8  3  1  0
 19 11  2  0
 18 13  1  0
  1 21  1  0
  1 22  1  0
  1 23  1  0
  4 24  1  0
  5 25  1  0
  6 26  1  0
  7 27  1  0
  9 28  1  0
  9 29  1  0
 10 30  1  0
 10 31  1  0
 14 32  1  0
 15 33  1  0
 16 34  1  0
 17 35  1  0
 20 36  1  0
 20 37  1  0
 20 38  1  0
M  CHG  1   9   1
M  END
>  <UniqueID>  (26) 
24

>  <SMILES>  (26) 
COc1ccccc1[NH2+]Cc1nc2ccccn2c1C

>  <Energy>  (26) 
73.86813790881799

>  <Genealogy>  (26) 
COc1ccccc1[NH2+]Cc1nc2ccccn2c1C (protonated)
COc1ccccc1[NH2+]Cc1nc2ccccn2c1C (3D coordinates assigned)
COc1ccccc1[NH2+]Cc1nc2ccccn2c1C (optimized conformer: 73.86813790881799 kcal/mol)

>  <smiles>  (26) 
COc1ccccc1NCc1nc2ccccn2c1C

>  <score_type>  (26) 
oracle

>  <origin>  (26) 
adg

>  <m_score__min__energy>  (26) 
-6.7699999999999996

>  <m_primary>  (26) 
energy

$$$$
26:0
     RDKit          3D

 48 50  0  0  0  0  0  0  0  0999 V2000
   58.7780   30.9400   50.8240 C   0  0  0  0  0  0  0  0  0  0  0  0
   58.5370   31.3720   49.4900 O   0  0  0  0  0  0  0  0  0  0  0  0
   59.1620   30.7930   48.3800 C   0  0  0  0  0  0  0  0  0  0  0  0
   58.6030   29.7160   47.7570 N   0  0  0  0  0  0  0  0  0  0  0  0
   59.1690   29.1440   46.6620 C   0  0  0  0  0  0  0  0  0  0  0  0
   60.3550   29.6600   46.1400 C   0  0  0  0  0  0  0  0  0  0  0  0
   60.9520   30.7590   46.7570 C   0  0  0  0  0  0  0  0  0  0  0  0
   60.3640   31.3330   47.8900 C   0  0  0  0  0  0  0  0  0  0  0  0
   61.0060   32.4860   48.5510 C   0  0  0  0  0  0  0  0  0  0  0  0
   60.5740   33.8000   48.5190 C   0  0  0  0  0  0  0  0  0  0  0  0
   59.3330   34.3580   47.8880 C   0  0  0  0  0  0  0  0  0  0  0  0
   59.4550   34.3820   46.4110 N   0  0  0  0  0  0  0  0  0  0  0  0
   59.9410   35.7030   45.9750 C   0  0  0  0  0  0  0  0  0  0  0  0
   58.1720   34.0600   45.7350 C   0  0  0  0  0  0  0  0  0  0  0  0
   57.7160   32.6390   46.0860 C   0  0  0  0  0  0  0  0  0  0  0  0
   57.3440   31.8780   44.8450 C   0  0  0  0  0  0  0  0  0  0  0  0
   57.7340   32.3350   43.5770 C   0  0  0  0  0  0  0  0  0  0  0  0
   57.3940   31.5890   42.4450 C   0  0  0  0  0  0  0  0  0  0  0  0
   56.6840   30.3970   42.5880 C   0  0  0  0  0  0  0  0  0  0  0  0
   56.3200   29.9650   43.8660 C   0  0  0  0  0  0  0  0  0  0  0  0
   56.6560   30.7070   44.9550 N   0  0  0  0  0  0  0  0  0  0  0  0
   61.4720   34.4880   49.3150 C   0  0  0  0  0  0  0  0  0  0  0  0
   62.4060   33.6340   49.7780 N   0  0  0  0  0  0  0  0  0  0  0  0
   62.1250   32.4280   49.3050 N   0  0  0  0  0  0  0  0  0  0  0  0
   62.9190   31.2430   49.6080 C   0  0  0  0  0  0  0  0  0  0  0  0
   58.3664   31.6779   51.5284 H   0  0  0  0  0  0  0  0  0  0  0  0
   58.2926   29.9665   50.9875 H   0  0  0  0  0  0  0  0  0  0  0  0
   59.8613   30.8416   50.9875 H   0  0  0  0  0  0  0  0  0  0  0  0
   58.6918   28.2740   46.1873 H   0  0  0  0  0  0  0  0  0  0  0  0
   60.8149   29.2047   45.2505 H   0  0  0  0  0  0  0  0  0  0  0  0
   61.8864   31.1753   46.3526 H   0  0  0  0  0  0  0  0  0  0  0  0
   58.4736   33.7312   48.1682 H   0  0  0  0  0  0  0  0  0  0  0  0
   59.1901   35.3884   48.2454 H   0  0  0  0  0  0  0  0  0  0  0  0
   60.1679   36.3197   46.8572 H   0  0  0  0  0  0  0  0  0  0  0  0
   60.8519   35.5776   45.3712 H   0  0  0  0  0  0  0  0  0  0  0  0
   59.1660   36.1978   45.3712 H   0  0  0  0  0  0  0  0  0  0  0  0
   57.4031   34.7765   46.0597 H   0  0  0  0  0  0  0  0  0  0  0  0
   58.3196   34.1253   44.6469 H   0  0  0  0  0  0  0  0  0  0  0  0
   58.5347   32.1138   46.5997 H   0  0  0  0  0  0  0  0  0  0  0  0
   56.8334   32.7025   46.7394 H   0  0  0  0  0  0  0  0  0  0  0  0
   58.3019   33.2715   43.4748 H   0  0  0  0  0  0  0  0  0  0  0  0
   57.6855   31.9409   41.4444 H   0  0  0  0  0  0  0  0  0  0  0  0
   56.4131   29.8026   41.7030 H   0  0  0  0  0  0  0  0  0  0  0  0
   55.7620   29.0253   43.9912 H   0  0  0  0  0  0  0  0  0  0  0  0
   61.4302   35.5648   49.5358 H   0  0  0  0  0  0  0  0  0  0  0  0
   62.9987   31.1241   50.6986 H   0  0  0  0  0  0  0  0  0  0  0  0
   62.4325   30.3556   49.1770 H   0  0  0  0  0  0  0  0  0  0  0  0
   63.9248   31.3555   49.1770 H   0  0  0  0  0  0  0  0  0  0  0  0
  1  2  1  0
  2  3  1  0
  3  4  2  0
  4  5  1  0
  5  6  2  0
  6  7  1  0
  7  8  2  0
  8  9  1  0
  9 10  2  0
 10 11  1  0
 11 12  1  0
 12 13  1  0
 12 14  1  0
 14 15  1  0
 15 16  1  0
 16 17  2  0
 17 18  1  0
 18 19  2  0
 19 20  1  0
 20 21  2  0
 10 22  1  0
 22 23  2  0
 23 24  1  0
 24 25  1  0
  8  3  1  0
 24  9  1  0
 21 16  1  0
  1 26  1  0
  1 27  1  0
  1 28  1  0
  5 29  1  0
  6 30  1  0
  7 31  1  0
 11 32  1  0
 11 33  1  0
 13 34  1  0
 13 35  1  0
 13 36  1  0
 14 37  1  0
 14 38  1  0
 15 39  1  0
 15 40  1  0
 17 41  1  0
 18 42  1  0
 19 43  1  0
 20 44  1  0
 22 45  1  0
 25 46  1  0
 25 47  1  0
 25 48  1  0
M  END
>  <UniqueID>  (27) 
25

>  <SMILES>  (27) 
COc1ncccc1-c1c(CN(C)CCc2ccccn2)cnn1C

>  <Energy>  (27) 
83.49446853045234

>  <Genealogy>  (27) 
COc1ncccc1-c1c(CN(C)CCc2ccccn2)cnn1C (3D coordinates assigned)
COc1ncccc1-c1c(CN(C)CCc2ccccn2)cnn1C (optimized conformer: 83.49446853045234 kcal/mol)

>  <smiles>  (27) 
COc1ncccc1-c1c(CN(C)CCc2ccccn2)cnn1C

>  <score_type>  (27) 
oracle

>  <origin>  (27) 
adg

>  <m_score__min__energy>  (27) 
-7.1600000000000001

>  <m_primary>  (27) 
energy

$$$$
27:0
     RDKit          3D

 39 42  0  0  0  0  0  0  0  0999 V2000
   58.6540   23.7210   45.5970 Cl  0  0  0  0  0  0  0  0  0  0  0  0
   57.7490   25.2200   45.5910 C   0  0  0  0  0  0  0  0  0  0  0  0
   58.0930   26.4090   44.9730 C   0  0  0  0  0  0  0  0  0  0  0  0
   57.1360   27.4350   45.1700 C   0  0  0  0  0  0  0  0  0  0  0  0
   57.3120   28.8380   44.6290 C   0  0  2  0  0  0  0  0  0  0  0  0
   57.0930   28.8810   43.1100 C   0  0  0  0  0  0  0  0  0  0  0  0
   56.5050   30.2590   42.8850 C   0  0  0  0  0  0  0  0  0  0  0  0
   56.2670   30.7830   44.3050 C   0  0  2  0  0  0  0  0  0  0  0  0
   57.3200   31.8430   44.7520 C   0  0  0  0  0  0  0  0  0  0  0  0
   57.8450   31.5710   46.1190 N   0  0  2  0  0  0  0  0  0  0  0  0
   58.5510   32.7600   46.6560 C   0  0  0  0  0  0  0  0  0  0  0  0
   59.2820   33.5510   45.5520 C   0  0  0  0  0  0  0  0  0  0  0  0
   58.4700   34.7050   44.9810 C   0  0  0  0  0  0  0  0  0  0  0  0
   59.6610   34.9890   45.8800 C   0  0  0  0  0  0  0  0  0  0  0  0
   58.7400   30.3660   46.2140 C   0  0  0  0  0  0  0  0  0  0  0  0
   58.7280   29.3890   45.0090 C   0  0  0  0  0  0  0  0  0  0  0  0
   56.3110   29.6690   45.1610 O   0  0  0  0  0  0  0  0  0  0  0  0
   56.0620   27.1000   45.9370 N   0  0  0  0  0  0  0  0  0  0  0  0
   56.3000   25.5100   46.3530 S   0  0  0  0  0  0  0  0  0  0  0  0
   59.0151   26.5440   44.3885 H   0  0  0  0  0  0  0  0  0  0  0  0
   58.0447   28.7651   42.5706 H   0  0  0  0  0  0  0  0  0  0  0  0
   56.4458   28.0703   42.7439 H   0  0  0  0  0  0  0  0  0  0  0  0
   57.2112   30.9037   42.3413 H   0  0  0  0  0  0  0  0  0  0  0  0
   55.5888   30.2396   42.2765 H   0  0  0  0  0  0  0  0  0  0  0  0
   55.2947   31.2962   44.3402 H   0  0  0  0  0  0  0  0  0  0  0  0
   58.1593   31.8306   44.0410 H   0  0  0  0  0  0  0  0  0  0  0  0
   56.8250   32.8252   44.7690 H   0  0  0  0  0  0  0  0  0  0  0  0
   57.0240   31.4020   46.7510 H   0  0  0  0  0  0  0  0  0  0  0  0
   57.8156   33.4211   47.1377 H   0  0  0  0  0  0  0  0  0  0  0  0
   59.3051   32.4087   47.3756 H   0  0  0  0  0  0  0  0  0  0  0  0
   59.8322   32.6881   45.1486 H   0  0  0  0  0  0  0  0  0  0  0  0
   58.5242   34.9369   43.9071 H   0  0  0  0  0  0  0  0  0  0  0  0
   57.4064   34.9854   44.9883 H   0  0  0  0  0  0  0  0  0  0  0  0
   60.5774   35.4263   45.4569 H   0  0  0  0  0  0  0  0  0  0  0  0
   59.8165   35.5599   46.8073 H   0  0  0  0  0  0  0  0  0  0  0  0
   59.7715   30.7267   46.3397 H   0  0  0  0  0  0  0  0  0  0  0  0
   58.3490   29.7831   47.0610 H   0  0  0  0  0  0  0  0  0  0  0  0
   59.1361   29.9176   44.1349 H   0  0  0  0  0  0  0  0  0  0  0  0
   59.3307   28.5187   45.3079 H   0  0  0  0  0  0  0  0  0  0  0  0
  1  2  1  0
  2  3  2  0
  3  4  1  0
  5  4  1  1
  5  6  1  0
  6  7  1  0
  7  8  1  0
  8  9  1  0
  9 10  1  0
 10 11  1  0
 11 12  1  0
 12 13  1  0
 13 14  1  0
 10 15  1  0
 15 16  1  0
  8 17  1  0
  4 18  2  0
 18 19  1  0
 19  2  1  0
 16  5  1  0
 17  5  1  0
 14 12  1  0
  3 20  1  0
  6 21  1  0
  6 22  1  0
  7 23  1  0
  7 24  1  0
  8 25  1  6
  9 26  1  0
  9 27  1  0
 10 28  1  1
 11 29  1  0
 11 30  1  0
 12 31  1  0
 13 32  1  0
 13 33  1  0
 14 34  1  0
 14 35  1  0
 15 36  1  0
 15 37  1  0
 16 38  1  0
 16 39  1  0
M  CHG  1  10   1
M  END
>  <UniqueID>  (28) 
26

>  <SMILES>  (28) 
Clc1cc([C@]23CC[C@H](C[NH+](CC4CC4)CC2)O3)ns1

>  <Energy>  (28) 
361.04228631848997

>  <Genealogy>  (28) 
Clc1cc(C23CCC(C[NH+](CC4CC4)CC2)O3)ns1 (protonated)
Clc1cc([C@]23CC[C@H](C[NH+](CC4CC4)CC2)O3)ns1 (chirality)
Clc1cc([C@]23CC[C@H](C[NH+](CC4CC4)CC2)O3)ns1 (3D coordinates assigned)
Clc1cc([C@]23CC[C@H](C[NH+](CC4CC4)CC2)O3)ns1 (nonaromatic ring conformer: 361.04228631848997 kcal/mol)

>  <smiles>  (28) 
Clc1cc(C23CCC(CN(CC4CC4)CC2)O3)ns1

>  <score_type>  (28) 
oracle

>  <origin>  (28) 
adg

>  <m_score__min__energy>  (28) 
-5

>  <m_primary>  (28) 
energy

$$$$
28:0
     RDKit          3D

 55 58  0  0  0  0  0  0  0  0999 V2000
   57.7650   32.7210   43.9140 C   0  0  0  0  0  0  0  0  0  0  0  0
   57.4320   33.8740   44.8530 C   0  0  0  0  0  0  0  0  0  0  0  0
   58.2210   33.7640   46.1180 C   0  0  0  0  0  0  0  0  0  0  0  0
   58.1540   32.7020   46.9480 N   0  0  0  0  0  0  0  0  0  0  0  0
   58.9130   32.8830   48.0640 C   0  0  0  0  0  0  0  0  0  0  0  0
   58.9730   31.8560   49.1540 C   0  0  0  0  0  0  0  0  0  0  0  0
   59.7440   30.6780   48.7070 N   0  0  0  0  0  0  0  0  0  0  0  0
   58.8860   29.4710   48.5580 C   0  0  0  0  0  0  0  0  0  0  0  0
   58.5040   29.1910   47.0960 C   0  0  0  0  0  0  0  0  0  0  0  0
   59.7630   28.9390   46.2050 C   0  0  0  0  0  0  0  0  0  0  0  0
   59.4870   29.3780   44.7410 C   0  0  0  0  0  0  0  0  0  0  0  0
   58.3320   28.6040   44.0940 C   0  0  0  0  0  0  0  0  0  0  0  0
   58.4420   27.1270   44.3360 C   0  0  0  0  0  0  0  0  0  0  0  0
   57.8780   26.3340   43.5340 O   0  0  0  0  0  0  0  0  0  0  0  0
   59.0870   26.6260   45.5240 N   0  0  0  0  0  0  0  0  0  0  0  0
   58.8060   25.2700   46.0150 C   0  0  0  0  0  0  0  0  0  0  0  0
   57.7230   25.2790   47.1000 C   0  0  0  0  0  0  0  0  0  0  0  0
   56.3480   25.2620   46.5070 C   0  0  0  0  0  0  0  0  0  0  0  0
   55.6560   26.3490   46.0280 C   0  0  0  0  0  0  0  0  0  0  0  0
   54.4410   25.9460   45.6210 N   0  0  0  0  0  0  0  0  0  0  0  0
   54.4330   24.6190   45.8740 C   0  0  0  0  0  0  0  0  0  0  0  0
   55.5790   24.1630   46.4220 N   0  0  0  0  0  0  0  0  0  0  0  0
   60.1230   27.4320   46.1860 C   0  0  0  0  0  0  0  0  0  0  0  0
   60.9860   29.7380   46.7600 C   0  0  0  0  0  0  0  0  0  0  0  0
   60.5400   31.0040   47.4990 C   0  0  0  0  0  0  0  0  0  0  0  0
   59.5740   34.1070   48.1390 C   0  0  0  0  0  0  0  0  0  0  0  0
   59.1940   34.9800   46.7530 S   0  0  0  0  0  0  0  0  0  0  0  0
   58.0225   31.8296   44.5048 H   0  0  0  0  0  0  0  0  0  0  0  0
   56.8936   32.5013   43.2797 H   0  0  0  0  0  0  0  0  0  0  0  0
   58.6193   32.9998   43.2797 H   0  0  0  0  0  0  0  0  0  0  0  0
   57.6736   34.8258   44.3573 H   0  0  0  0  0  0  0  0  0  0  0  0
   56.3603   33.8351   45.0978 H   0  0  0  0  0  0  0  0  0  0  0  0
   59.4592   32.2936   50.0384 H   0  0  0  0  0  0  0  0  0  0  0  0
   57.9496   31.5397   49.4042 H   0  0  0  0  0  0  0  0  0  0  0  0
   59.4315   28.6008   48.9519 H   0  0  0  0  0  0  0  0  0  0  0  0
   57.9554   29.6544   49.1150 H   0  0  0  0  0  0  0  0  0  0  0  0
   57.8590   28.3007   47.0608 H   0  0  0  0  0  0  0  0  0  0  0  0
   57.9795   30.0751   46.7044 H   0  0  0  0  0  0  0  0  0  0  0  0
   59.2375   30.4493   44.7369 H   0  0  0  0  0  0  0  0  0  0  0  0
   60.3945   29.1670   44.1563 H   0  0  0  0  0  0  0  0  0  0  0  0
   57.3823   28.9637   44.5167 H   0  0  0  0  0  0  0  0  0  0  0  0
   58.3735   28.7752   43.0082 H   0  0  0  0  0  0  0  0  0  0  0  0
   58.4643   24.6489   45.1739 H   0  0  0  0  0  0  0  0  0  0  0  0
   59.7295   24.8628   46.4523 H   0  0  0  0  0  0  0  0  0  0  0  0
   57.8482   24.3907   47.7366 H   0  0  0  0  0  0  0  0  0  0  0  0
   57.8327   26.2023   47.6877 H   0  0  0  0  0  0  0  0  0  0  0  0
   56.0354   27.3806   45.9850 H   0  0  0  0  0  0  0  0  0  0  0  0
   53.5723   23.9703   45.6538 H   0  0  0  0  0  0  0  0  0  0  0  0
   60.2375   27.0812   47.2223 H   0  0  0  0  0  0  0  0  0  0  0  0
   61.0587   27.3136   45.6199 H   0  0  0  0  0  0  0  0  0  0  0  0
   61.5463   29.0963   47.4559 H   0  0  0  0  0  0  0  0  0  0  0  0
   61.6170   30.0381   45.9104 H   0  0  0  0  0  0  0  0  0  0  0  0
   61.4311   31.5736   47.8015 H   0  0  0  0  0  0  0  0  0  0  0  0
   59.9084   31.5951   46.8195 H   0  0  0  0  0  0  0  0  0  0  0  0
   60.2273   34.4423   48.9580 H   0  0  0  0  0  0  0  0  0  0  0  0
  1  2  1  0
  2  3  1  0
  3  4  2  0
  4  5  1  0
  5  6  1  0
  6  7  1  0
  7  8  1  0
  8  9  1  0
  9 10  1  0
 10 11  1  0
 11 12  1  0
 12 13  1  0
 13 14  2  0
 13 15  1  0
 15 16  1  0
 16 17  1  0
 17 18  1  0
 18 19  2  0
 19 20  1  0
 20 21  2  0
 21 22  1  0
 15 23  1  0
 10 24  1  0
 24 25  1  0
  5 26  2  0
 26 27  1  0
 27  3  1  0
 25  7  1  0
 23 10  1  0
 22 18  1  0
  1 28  1  0
  1 29  1  0
  1 30  1  0
  2 31  1  0
  2 32  1  0
  6 33  1  0
  6 34  1  0
  8 35  1  0
  8 36  1  0
  9 37  1  0
  9 38  1  0
 11 39  1  0
 11 40  1  0
 12 41  1  0
 12 42  1  0
 16 43  1  0
 16 44  1  0
 17 45  1  0
 17 46  1  0
 19 47  1  0
 21 48  1  0
 23 49  1  0
 23 50  1  0
 24 51  1  0
 24 52  1  0
 25 53  1  0
 25 54  1  0
 26 55  1  0
M  CHG  1  22  -1
M  END
>  <UniqueID>  (29) 
27

>  <SMILES>  (29) 
CCc1nc(CN2CCC3(CCC(=O)N(CCc4cnc[n-]4)C3)CC2)cs1

>  <Energy>  (29) 
113.78604309013156

>  <Genealogy>  (29) 
CCc1nc(CN2CCC3(CCC(=O)N(CCc4cnc[n-]4)C3)CC2)cs1 (protonated)
CCc1nc(CN2CCC3(CCC(=O)N(CCc4cnc[n-]4)C3)CC2)cs1 (3D coordinates assigned)
CCc1nc(CN2CCC3(CCC(=O)N(CCc4cnc[n-]4)C3)CC2)cs1 (nonaromatic ring conformer: 113.78604309013156 kcal/mol)

>  <smiles>  (29) 
CCc1nc(CN2CCC3(CCC(=O)N(CCc4cnc[nH]4)C3)CC2)cs1

>  <score_type>  (29) 
oracle

>  <origin>  (29) 
adg

>  <m_score__min__energy>  (29) 
-10.23

>  <m_primary>  (29) 
energy

$$$$
29:0
     RDKit          3D

 38 40  0  0  0  0  0  0  0  0999 V2000
   63.7760   32.9490   47.1260 C   0  0  0  0  0  0  0  0  0  0  0  0
   62.3650   33.3920   47.3190 C   0  0  0  0  0  0  0  0  0  0  0  0
   61.5860   34.0300   46.3810 C   0  0  0  0  0  0  0  0  0  0  0  0
   60.3520   34.1750   46.8940 N   0  0  0  0  0  0  0  0  0  0  0  0
   59.1760   34.6100   46.1360 C   0  0  0  0  0  0  0  0  0  0  0  0
   58.3810   33.4210   45.6950 C   0  0  0  0  0  0  0  0  0  0  0  0
   57.0650   33.4280   45.2910 C   0  0  0  0  0  0  0  0  0  0  0  0
   56.7270   32.1870   45.0490 O   0  0  0  0  0  0  0  0  0  0  0  0
   57.7790   31.4370   45.2980 C   0  0  0  0  0  0  0  0  0  0  0  0
   57.7910   29.9680   45.1470 C   0  0  0  0  0  0  0  0  0  0  0  0
   57.8240   29.1320   46.2760 C   0  0  0  0  0  0  0  0  0  0  0  0
   57.8350   27.7420   46.1280 C   0  0  0  0  0  0  0  0  0  0  0  0
   57.8310   27.1620   44.8480 C   0  0  0  0  0  0  0  0  0  0  0  0
   57.7920   25.6630   44.6890 C   0  0  0  0  0  0  0  0  0  0  0  0
   56.6670   25.1360   45.2990 F   0  0  0  0  0  0  0  0  0  0  0  0
   58.9090   25.0800   45.2630 F   0  0  0  0  0  0  0  0  0  0  0  0
   57.7630   25.3490   43.3420 F   0  0  0  0  0  0  0  0  0  0  0  0
   57.7700   27.9990   43.7210 C   0  0  0  0  0  0  0  0  0  0  0  0
   57.7600   29.3890   43.8700 C   0  0  0  0  0  0  0  0  0  0  0  0
   58.8440   32.1580   45.7140 N   0  0  0  0  0  0  0  0  0  0  0  0
   60.4060   33.5980   48.1220 C   0  0  0  0  0  0  0  0  0  0  0  0
   59.2650   33.4390   49.0380 C   0  0  0  0  0  0  0  0  0  0  0  0
   58.1200   32.6720   48.6690 N   0  0  0  0  0  0  0  0  0  0  0  0
   59.2780   34.0370   50.1470 O   0  0  0  0  0  0  0  0  0  0  0  0
   61.6260   33.0930   48.4060 N   0  0  0  0  0  0  0  0  0  0  0  0
   64.2509   32.7999   48.1069 H   0  0  0  0  0  0  0  0  0  0  0  0
   63.7898   32.0033   46.5644 H   0  0  0  0  0  0  0  0  0  0  0  0
   64.3279   33.7171   46.5644 H   0  0  0  0  0  0  0  0  0  0  0  0
   61.9154   34.3630   45.3857 H   0  0  0  0  0  0  0  0  0  0  0  0
   58.5490   35.2512   46.7730 H   0  0  0  0  0  0  0  0  0  0  0  0
   59.5059   35.1719   45.2498 H   0  0  0  0  0  0  0  0  0  0  0  0
   56.4181   34.3119   45.1903 H   0  0  0  0  0  0  0  0  0  0  0  0
   57.8413   29.5743   47.2830 H   0  0  0  0  0  0  0  0  0  0  0  0
   57.8469   27.0978   47.0196 H   0  0  0  0  0  0  0  0  0  0  0  0
   57.7298   27.5574   42.7143 H   0  0  0  0  0  0  0  0  0  0  0  0
   57.7276   30.0333   42.9791 H   0  0  0  0  0  0  0  0  0  0  0  0
   57.3540   32.5070   49.3600 H   0  0  0  0  0  0  0  0  0  0  0  0
   57.9710   32.3750   47.6800 H   0  0  0  0  0  0  0  0  0  0  0  0
  1  2  1  0
  2  3  2  0
  3  4  1  0
  4  5  1  0
  5  6  1  0
  6  7  2  0
  7  8  1  0
  8  9  1  0
  9 10  1  0
 10 11  2  0
 11 12  1  0
 12 13  2  0
 13 14  1  0
 14 15  1  0
 14 16  1  0
 14 17  1  0
 13 18  1  0
 18 19  2  0
  9 20  2  0
  4 21  1  0
 21 22  1  0
 22 23  1  0
 22 24  2  0
 21 25  2  0
 25  2  1  0
 20  6  1  0
 19 10  1  0
  1 26  1  0
  1 27  1  0
  1 28  1  0
  3 29  1  0
  5 30  1  0
  5 31  1  0
  7 32  1  0
 11 33  1  0
 12 34  1  0
 18 35  1  0
 19 36  1  0
 23 37  1  0
 23 38  1  0
M  END
>  <UniqueID>  (30) 
28

>  <SMILES>  (30) 
Cc1cn(Cc2coc(-c3ccc(C(F)(F)F)cc3)n2)c(C(N)=O)n1

>  <Energy>  (30) 
99.3592540240075

>  <Genealogy>  (30) 
Cc1cn(Cc2coc(-c3ccc(C(F)(F)F)cc3)n2)c(C(N)=O)n1 (3D coordinates assigned)
Cc1cn(Cc2coc(-c3ccc(C(F)(F)F)cc3)n2)c(C(N)=O)n1 (optimized conformer: 99.3592540240075 kcal/mol)

>  <smiles>  (30) 
Cc1cn(Cc2coc(-c3ccc(C(F)(F)F)cc3)n2)c(C(N)=O)n1

>  <score_type>  (30) 
oracle

>  <origin>  (30) 
adg

>  <m_score__min__energy>  (30) 
-7.7199999999999998

>  <m_primary>  (30) 
energy

$$$$
30:0
     RDKit          3D

 39 41  0  0  0  0  0  0  0  0999 V2000
   59.8580   32.3860   49.8520 C   0  0  0  0  0  0  0  0  0  0  0  0
   61.0000   33.3920   49.7600 C   0  0  0  0  0  0  0  0  0  0  0  0
   61.6940   33.2910   48.4250 C   0  0  0  0  0  0  0  0  0  0  0  0
   61.1870   33.6560   47.1840 C   0  0  0  0  0  0  0  0  0  0  0  0
   59.8330   34.1410   46.8430 C   0  0  0  0  0  0  0  0  0  0  0  0
   59.5120   35.3320   47.0970 O   0  0  0  0  0  0  0  0  0  0  0  0
   58.8920   33.2790   46.1820 N   0  0  0  0  0  0  0  0  0  0  0  0
   58.5790   31.9650   46.7510 C   0  0  0  0  0  0  0  0  0  0  0  0
   58.0840   31.0310   45.6420 C   0  0  0  0  0  0  0  0  0  0  0  0
   57.0160   31.6240   44.9290 O   0  0  0  0  0  0  0  0  0  0  0  0
   57.4750   32.7770   44.2470 C   0  0  0  0  0  0  0  0  0  0  0  0
   57.9280   33.8530   45.2400 C   0  0  0  0  0  0  0  0  0  0  0  0
   62.2080   33.5940   46.3070 N   0  0  0  0  0  0  0  0  0  0  0  0
   63.2970   33.2270   46.9620 N   0  0  0  0  0  0  0  0  0  0  0  0
   63.0090   33.0270   48.2380 N   0  0  0  0  0  0  0  0  0  0  0  0
   63.9970   32.6850   49.2160 C   0  0  0  0  0  0  0  0  0  0  0  0
   63.8110   31.5910   50.0760 C   0  0  0  0  0  0  0  0  0  0  0  0
   64.8070   31.2680   50.9990 C   0  0  0  0  0  0  0  0  0  0  0  0
   65.9820   32.0210   51.0460 C   0  0  0  0  0  0  0  0  0  0  0  0
   67.3560   31.5890   52.2990 Br  0  0  0  0  0  0  0  0  0  0  0  0
   66.1460   33.0860   50.1570 C   0  0  0  0  0  0  0  0  0  0  0  0
   65.1620   33.3870   49.2670 N   0  0  0  0  0  0  0  0  0  0  0  0
   59.6303   32.1854   50.9093 H   0  0  0  0  0  0  0  0  0  0  0  0
   58.9662   32.7973   49.3565 H   0  0  0  0  0  0  0  0  0  0  0  0
   60.1536   31.4494   49.3565 H   0  0  0  0  0  0  0  0  0  0  0  0
   60.5965   34.4081   49.8811 H   0  0  0  0  0  0  0  0  0  0  0  0
   61.7286   33.1731   50.5545 H   0  0  0  0  0  0  0  0  0  0  0  0
   59.4833   31.5402   47.2112 H   0  0  0  0  0  0  0  0  0  0  0  0
   57.7947   32.0743   47.5145 H   0  0  0  0  0  0  0  0  0  0  0  0
   58.9116   30.8248   44.9473 H   0  0  0  0  0  0  0  0  0  0  0  0
   57.7280   30.0961   46.0995 H   0  0  0  0  0  0  0  0  0  0  0  0
   58.3228   32.5012   43.6026 H   0  0  0  0  0  0  0  0  0  0  0  0
   56.6496   33.1807   43.6422 H   0  0  0  0  0  0  0  0  0  0  0  0
   58.4008   34.6812   44.6917 H   0  0  0  0  0  0  0  0  0  0  0  0
   57.0553   34.2286   45.7944 H   0  0  0  0  0  0  0  0  0  0  0  0
   62.1860   33.8400   45.2920 H   0  0  0  0  0  0  0  0  0  0  0  0
   62.8887   30.9938   50.0229 H   0  0  0  0  0  0  0  0  0  0  0  0
   64.6666   30.4220   51.6879 H   0  0  0  0  0  0  0  0  0  0  0  0
   67.0708   33.6813   50.1766 H   0  0  0  0  0  0  0  0  0  0  0  0
  1  2  1  0
  2  3  1  0
  3  4  2  0
  4  5  1  0
  5  6  2  0
  5  7  1  0
  7  8  1  0
  8  9  1  0
  9 10  1  0
 10 11  1  0
 11 12  1  0
  4 13  1  0
 13 14  2  0
 14 15  1  0
 15 16  1  0
 16 17  2  0
 17 18  1  0
 18 19  2  0
 19 20  1  0
 19 21  1  0
 21 22  2  0
 15  3  1  0
 22 16  1  0
 12  7  1  0
  1 23  1  0
  1 24  1  0
  1 25  1  0
  2 26  1  0
  2 27  1  0
  8 28  1  0
  8 29  1  0
  9 30  1  0
  9 31  1  0
 11 32  1  0
 11 33  1  0
 12 34  1  0
 12 35  1  0
 13 36  1  0
 17 37  1  0
 18 38  1  0
 21 39  1  0
M  CHG  1  13   1
M  END
>  <UniqueID>  (31) 
29

>  <SMILES>  (31) 
CCc1c(C(=O)N2CCOCC2)[nH+]nn1-c1ccc(Br)cn1

>  <Energy>  (31) 
84.13681439662336

>  <Genealogy>  (31) 
CCc1c(C(=O)N2CCOCC2)[nH+]nn1-c1ccc(Br)cn1 (protonated)
CCc1c(C(=O)N2CCOCC2)[nH+]nn1-c1ccc(Br)cn1 (3D coordinates assigned)
CCc1c(C(=O)N2CCOCC2)[nH+]nn1-c1ccc(Br)cn1 (nonaromatic ring conformer: 84.13681439662336 kcal/mol)

>  <smiles>  (31) 
CCc1c(C(=O)N2CCOCC2)nnn1-c1ccc(Br)cn1

>  <score_type>  (31) 
oracle

>  <origin>  (31) 
adg

>  <m_score__min__energy>  (31) 
-5.9900000000000002

>  <m_primary>  (31) 
energy

$$$$
31:0
     RDKit          3D

 50 52  0  0  0  0  0  0  0  0999 V2000
   57.7680   25.9370   44.5130 C   0  0  0  0  0  0  0  0  0  0  0  0
   57.4130   27.3760   44.6700 C   0  0  0  0  0  0  0  0  0  0  0  0
   57.9150   28.3650   43.8980 N   0  0  0  0  0  0  0  0  0  0  0  0
   57.2790   29.4430   44.4010 C   0  0  0  0  0  0  0  0  0  0  0  0
   57.5150   30.8460   43.9290 C   0  0  0  0  0  0  0  0  0  0  0  0
   57.3860   31.8070   45.0450 N   0  0  0  0  0  0  0  0  0  0  0  0
   57.4040   33.2100   44.5590 C   0  0  0  0  0  0  0  0  0  0  0  0
   57.8660   34.1790   45.6540 C   0  0  0  0  0  0  0  0  0  0  0  0
   59.2620   33.9010   46.0580 N   0  0  0  0  0  0  0  0  0  0  0  0
   59.5460   34.4860   47.3840 C   0  0  0  0  0  0  0  0  0  0  0  0
   60.8150   33.9090   47.9540 C   0  0  0  0  0  0  0  0  0  0  0  0
   60.8490   33.4120   49.2650 C   0  0  0  0  0  0  0  0  0  0  0  0
   62.0280   32.8680   49.7840 C   0  0  0  0  0  0  0  0  0  0  0  0
   63.1950   32.8130   48.9980 C   0  0  0  0  0  0  0  0  0  0  0  0
   64.4810   32.2240   49.5460 C   0  0  0  0  0  0  0  0  0  0  0  0
   65.4030   33.3210   50.0920 C   0  0  0  0  0  0  0  0  0  0  0  0
   64.1910   31.1650   50.6160 C   0  0  0  0  0  0  0  0  0  0  0  0
   63.1550   33.3130   47.6850 C   0  0  0  0  0  0  0  0  0  0  0  0
   61.9740   33.8550   47.1690 C   0  0  0  0  0  0  0  0  0  0  0  0
   59.6190   32.4590   45.9920 C   0  0  0  0  0  0  0  0  0  0  0  0
   58.3900   31.5430   46.1080 C   0  0  0  0  0  0  0  0  0  0  0  0
   56.4570   29.1150   45.4120 N   0  0  0  0  0  0  0  0  0  0  0  0
   56.5550   27.8310   45.5520 O   0  0  0  0  0  0  0  0  0  0  0  0
   57.8815   25.4769   45.5057 H   0  0  0  0  0  0  0  0  0  0  0  0
   56.9703   25.4209   43.9587 H   0  0  0  0  0  0  0  0  0  0  0  0
   58.7143   25.8511   43.9587 H   0  0  0  0  0  0  0  0  0  0  0  0
   58.5282   30.9183   43.5068 H   0  0  0  0  0  0  0  0  0  0  0  0
   56.7621   31.0912   43.1654 H   0  0  0  0  0  0  0  0  0  0  0  0
   58.0919   33.2831   43.7038 H   0  0  0  0  0  0  0  0  0  0  0  0
   56.3809   33.4858   44.2638 H   0  0  0  0  0  0  0  0  0  0  0  0
   57.8007   35.2089   45.2731 H   0  0  0  0  0  0  0  0  0  0  0  0
   57.2161   34.0491   46.5319 H   0  0  0  0  0  0  0  0  0  0  0  0
   59.6573   35.5757   47.2827 H   0  0  0  0  0  0  0  0  0  0  0  0
   58.7124   34.2515   48.0623 H   0  0  0  0  0  0  0  0  0  0  0  0
   59.9434   33.4503   49.8883 H   0  0  0  0  0  0  0  0  0  0  0  0
   62.0439   32.4804   50.8133 H   0  0  0  0  0  0  0  0  0  0  0  0
   65.0039   31.7285   48.7147 H   0  0  0  0  0  0  0  0  0  0  0  0
   65.3859   33.3006   51.1917 H   0  0  0  0  0  0  0  0  0  0  0  0
   66.4298   33.1468   49.7380 H   0  0  0  0  0  0  0  0  0  0  0  0
   65.0547   34.3025   49.7380 H   0  0  0  0  0  0  0  0  0  0  0  0
   64.3128   31.6098   51.6146 H   0  0  0  0  0  0  0  0  0  0  0  0
   63.1598   30.7999   50.5005 H   0  0  0  0  0  0  0  0  0  0  0  0
   64.8923   30.3255   50.5005 H   0  0  0  0  0  0  0  0  0  0  0  0
   64.0589   33.2776   47.0592 H   0  0  0  0  0  0  0  0  0  0  0  0
   61.9548   34.2417   46.1394 H   0  0  0  0  0  0  0  0  0  0  0  0
   60.1163   32.2622   45.0308 H   0  0  0  0  0  0  0  0  0  0  0  0
   60.2815   32.2392   46.8422 H   0  0  0  0  0  0  0  0  0  0  0  0
   58.7204   30.4967   46.0302 H   0  0  0  0  0  0  0  0  0  0  0  0
   57.9123   31.7431   47.0784 H   0  0  0  0  0  0  0  0  0  0  0  0
   55.8570   29.7480   45.9870 H   0  0  0  0  0  0  0  0  0  0  0  0
  1  2  1  0
  2  3  2  0
  3  4  1  0
  4  5  1  0
  5  6  1  0
  6  7  1  0
  7  8  1  0
  8  9  1  0
  9 10  1  0
 10 11  1  0
 11 12  2  0
 12 13  1  0
 13 14  2  0
 14 15  1  0
 15 16  1  0
 15 17  1  0
 14 18  1  0
 18 19  2  0
  9 20  1  0
 20 21  1  0
  4 22  2  0
 22 23  1  0
 23  2  1  0
 21  6  1  0
 19 11  1  0
  1 24  1  0
  1 25  1  0
  1 26  1  0
  5 27  1  0
  5 28  1  0
  7 29  1  0
  7 30  1  0
  8 31  1  0
  8 32  1  0
 10 33  1  0
 10 34  1  0
 12 35  1  0
 13 36  1  0
 15 37  1  0
 16 38  1  0
 16 39  1  0
 16 40  1  0
 17 41  1  0
 17 42  1  0
 17 43  1  0
 18 44  1  0
 19 45  1  0
 20 46  1  0
 20 47  1  0
 21 48  1  0
 21 49  1  0
 22 50  1  0
M  CHG  1  22   1
M  END
>  <UniqueID>  (32) 
30

>  <SMILES>  (32) 
Cc1nc(CN2CCN(Cc3ccc(C(C)C)cc3)CC2)[nH+]o1

>  <Energy>  (32) 
91.62289692696828

>  <Genealogy>  (32) 
Cc1nc(CN2CCN(Cc3ccc(C(C)C)cc3)CC2)[nH+]o1 (protonated)
Cc1nc(CN2CCN(Cc3ccc(C(C)C)cc3)CC2)[nH+]o1 (3D coordinates assigned)
Cc1nc(CN2CCN(Cc3ccc(C(C)C)cc3)CC2)[nH+]o1 (nonaromatic ring conformer: 91.62289692696828 kcal/mol)

>  <smiles>  (32) 
Cc1nc(CN2CCN(Cc3ccc(C(C)C)cc3)CC2)no1

>  <score_type>  (32) 
oracle

>  <origin>  (32) 
adg

>  <m_score__min__energy>  (32) 
-6.7300000000000004

>  <m_primary>  (32) 
energy

$$$$
32:0
     RDKit          3D

 57 60  0  0  0  0  0  0  0  0999 V2000
   62.4900   30.7900   49.9690 C   0  0  0  0  0  0  0  0  0  0  0  0
   61.1540   31.1240   49.6100 O   0  0  0  0  0  0  0  0  0  0  0  0
   60.4770   30.5930   48.5010 C   0  0  0  0  0  0  0  0  0  0  0  0
   59.1850   30.0440   48.5950 C   0  0  0  0  0  0  0  0  0  0  0  0
   58.5530   29.5270   47.4590 C   0  0  0  0  0  0  0  0  0  0  0  0
   59.1960   29.5610   46.2110 C   0  0  0  0  0  0  0  0  0  0  0  0
   58.5500   29.0040   45.0020 C   0  0  0  0  0  0  0  0  0  0  0  0
   58.9170   27.8420   44.4280 N   0  0  0  0  0  0  0  0  0  0  0  0
   58.0980   27.7200   43.3690 C   0  0  0  0  0  0  0  0  0  0  0  0
   58.1270   26.7410   42.5780 O   0  0  0  0  0  0  0  0  0  0  0  0
   57.2670   28.7270   43.2460 O   0  0  0  0  0  0  0  0  0  0  0  0
   57.5220   29.5520   44.2380 C   0  0  0  0  0  0  0  0  0  0  0  0
   56.8080   30.8580   44.4290 C   0  0  0  0  0  0  0  0  0  0  0  0
   57.7710   32.0360   44.2350 C   0  0  0  0  0  0  0  0  0  0  0  0
   57.4870   33.1040   45.2190 N   0  0  0  0  0  0  0  0  0  0  0  0
   58.1810   34.3660   44.8740 C   0  0  0  0  0  0  0  0  0  0  0  0
   59.6640   34.3200   45.2640 C   0  0  0  0  0  0  0  0  0  0  0  0
   59.8200   33.8940   46.6570 N   0  0  0  0  0  0  0  0  0  0  0  0
   61.1250   33.8920   47.2620 C   0  0  0  0  0  0  0  0  0  0  0  0
   62.2520   33.5930   46.4790 C   0  0  0  0  0  0  0  0  0  0  0  0
   63.5260   33.5720   47.0510 C   0  0  0  0  0  0  0  0  0  0  0  0
   63.6870   33.8540   48.4080 C   0  0  0  0  0  0  0  0  0  0  0  0
   62.5770   34.1610   49.1970 C   0  0  0  0  0  0  0  0  0  0  0  0
   61.2860   34.1880   48.6320 C   0  0  0  0  0  0  0  0  0  0  0  0
   60.1530   34.5200   49.3920 O   0  0  0  0  0  0  0  0  0  0  0  0
   59.7280   33.8200   50.5580 C   0  0  0  0  0  0  0  0  0  0  0  0
   58.6300   33.5590   47.4460 C   0  0  0  0  0  0  0  0  0  0  0  0
   57.7020   32.6500   46.6240 C   0  0  0  0  0  0  0  0  0  0  0  0
   60.4900   30.0940   46.1240 C   0  0  0  0  0  0  0  0  0  0  0  0
   61.1220   30.6100   47.2590 C   0  0  0  0  0  0  0  0  0  0  0  0
   62.5804   30.7674   51.0650 H   0  0  0  0  0  0  0  0  0  0  0  0
   62.7433   29.8009   49.5597 H   0  0  0  0  0  0  0  0  0  0  0  0
   63.1790   31.5436   49.5597 H   0  0  0  0  0  0  0  0  0  0  0  0
   58.6693   30.0212   49.5664 H   0  0  0  0  0  0  0  0  0  0  0  0
   57.5465   29.0913   47.5438 H   0  0  0  0  0  0  0  0  0  0  0  0
   59.6580   27.1760   44.7400 H   0  0  0  0  0  0  0  0  0  0  0  0
   55.9920   30.9341   43.6952 H   0  0  0  0  0  0  0  0  0  0  0  0
   56.4059   30.8948   45.4522 H   0  0  0  0  0  0  0  0  0  0  0  0
   58.8046   31.6848   44.3700 H   0  0  0  0  0  0  0  0  0  0  0  0
   57.6380   32.4414   43.2211 H   0  0  0  0  0  0  0  0  0  0  0  0
   58.1021   34.5318   43.7894 H   0  0  0  0  0  0  0  0  0  0  0  0
   57.7037   35.1848   45.4324 H   0  0  0  0  0  0  0  0  0  0  0  0
   60.1880   33.6092   44.6082 H   0  0  0  0  0  0  0  0  0  0  0  0
   60.0905   35.3278   45.1524 H   0  0  0  0  0  0  0  0  0  0  0  0
   62.1304   33.3739   45.4079 H   0  0  0  0  0  0  0  0  0  0  0  0
   64.4029   33.3330   46.4314 H   0  0  0  0  0  0  0  0  0  0  0  0
   64.6909   33.8344   48.8572 H   0  0  0  0  0  0  0  0  0  0  0  0
   62.7107   34.3832   50.2660 H   0  0  0  0  0  0  0  0  0  0  0  0
   60.0591   34.3653   51.4541 H   0  0  0  0  0  0  0  0  0  0  0  0
   58.6307   33.7433   50.5600 H   0  0  0  0  0  0  0  0  0  0  0  0
   60.1661   32.8110   50.5600 H   0  0  0  0  0  0  0  0  0  0  0  0
   58.9354   33.0354   48.3639 H   0  0  0  0  0  0  0  0  0  0  0  0
   58.0950   34.4836   47.7086 H   0  0  0  0  0  0  0  0  0  0  0  0
   58.1419   31.6421   46.5972 H   0  0  0  0  0  0  0  0  0  0  0  0
   56.7191   32.6736   47.1173 H   0  0  0  0  0  0  0  0  0  0  0  0
   61.0116   30.1062   45.1556 H   0  0  0  0  0  0  0  0  0  0  0  0
   62.1341   31.0327   47.1754 H   0  0  0  0  0  0  0  0  0  0  0  0
  1  2  1  0
  2  3  1  0
  3  4  2  0
  4  5  1  0
  5  6  2  0
  6  7  1  0
  7  8  1  0
  8  9  1  0
  9 10  2  0
  9 11  1  0
 11 12  1  0
 12 13  1  0
 13 14  1  0
 14 15  1  0
 15 16  1  0
 16 17  1  0
 17 18  1  0
 18 19  1  0
 19 20  2  0
 20 21  1  0
 21 22  2  0
 22 23  1  0
 23 24  2  0
 24 25  1  0
 25 26  1  0
 18 27  1  0
 27 28  1  0
  6 29  1  0
 29 30  2  0
 30  3  1  0
 12  7  2  0
 28 15  1  0
 24 19  1  0
  1 31  1  0
  1 32  1  0
  1 33  1  0
  4 34  1  0
  5 35  1  0
  8 36  1  0
 13 37  1  0
 13 38  1  0
 14 39  1  0
 14 40  1  0
 16 41  1  0
 16 42  1  0
 17 43  1  0
 17 44  1  0
 20 45  1  0
 21 46  1  0
 22 47  1  0
 23 48  1  0
 26 49  1  0
 26 50  1  0
 26 51  1  0
 27 52  1  0
 27 53  1  0
 28 54  1  0
 28 55  1  0
 29 56  1  0
 30 57  1  0
M  END
>  <UniqueID>  (33) 
31

>  <SMILES>  (33) 
COc1ccc(-c2[nH]c(=O)oc2CCN2CCN(c3ccccc3OC)CC2)cc1

>  <Energy>  (33) 
106.06133072007543

>  <Genealogy>  (33) 
COc1ccc(-c2[nH]c(=O)oc2CCN2CCN(c3ccccc3OC)CC2)cc1 (3D coordinates assigned)
COc1ccc(-c2[nH]c(=O)oc2CCN2CCN(c3ccccc3OC)CC2)cc1 (nonaromatic ring conformer: 106.06133072007543 kcal/mol)

>  <smiles>  (33) 
COc1ccc(-c2[nH]c(=O)oc2CCN2CCN(c3ccccc3OC)CC2)cc1

>  <score_type>  (33) 
oracle

>  <origin>  (33) 
adg

>  <m_score__min__energy>  (33) 
-8.8000000000000007

>  <m_primary>  (33) 
energy

$$$$
33:0
     RDKit          3D

 50 55  0  0  0  0  0  0  0  0999 V2000
   55.3756   28.4967   44.9099 H   0  0  0  0  0  0  0  0  0  0  0  0
   56.4100   28.7060   45.2200 C   0  0  0  0  0  0  0  0  0  0  0  0
   57.0260   27.7940   45.9890 C   0  0  0  0  0  0  0  0  0  0  0  0
   56.6970   26.3770   46.2270 C   0  0  0  0  0  0  0  0  0  0  0  0
   55.7690   25.7290   45.6770 O   0  0  0  0  0  0  0  0  0  0  0  0
   57.6560   25.7720   47.0900 N   0  0  0  0  0  0  0  0  0  0  0  0
   57.6960   24.7740   47.3950 H   0  0  0  0  0  0  0  0  0  0  0  0
   58.6020   26.7990   47.3580 C   0  0  0  0  0  0  0  0  0  0  0  0
   59.7460   26.6810   48.1420 C   0  0  0  0  0  0  0  0  0  0  0  0
   59.9966   25.7291   48.6331 H   0  0  0  0  0  0  0  0  0  0  0  0
   60.5730   27.8070   48.2910 C   0  0  0  0  0  0  0  0  0  0  0  0
   61.4825   27.7366   48.9057 H   0  0  0  0  0  0  0  0  0  0  0  0
   60.2480   29.0320   47.6580 C   0  0  0  0  0  0  0  0  0  0  0  0
   61.1200   30.2130   47.8190 C   0  0  0  0  0  0  0  0  0  0  0  0
   61.6190   30.9260   46.7730 N   0  0  0  0  0  0  0  0  0  0  0  0
   62.3340   31.8780   47.3980 C   0  0  0  0  0  0  0  0  0  0  0  0
   63.0770   32.9060   46.8230 C   0  0  0  0  0  0  0  0  0  0  0  0
   63.1385   33.0235   45.7310 H   0  0  0  0  0  0  0  0  0  0  0  0
   63.7470   33.7900   47.6920 C   0  0  0  0  0  0  0  0  0  0  0  0
   64.3424   34.6169   47.2777 H   0  0  0  0  0  0  0  0  0  0  0  0
   63.6590   33.6210   49.0940 C   0  0  0  0  0  0  0  0  0  0  0  0
   64.1879   34.3159   49.7629 H   0  0  0  0  0  0  0  0  0  0  0  0
   62.8980   32.5680   49.6380 C   0  0  0  0  0  0  0  0  0  0  0  0
   62.8190   32.4231   50.7255 H   0  0  0  0  0  0  0  0  0  0  0  0
   62.2500   31.7180   48.7470 C   0  0  0  0  0  0  0  0  0  0  0  0
   61.4960   30.6830   48.9990 O   0  0  0  0  0  0  0  0  0  0  0  0
   59.0810   29.1210   46.8670 C   0  0  0  0  0  0  0  0  0  0  0  0
   58.8114   30.0634   46.3678 H   0  0  0  0  0  0  0  0  0  0  0  0
   58.2760   27.9860   46.7320 C   0  0  0  0  0  0  0  0  0  0  0  0
   57.0180   29.9650   44.7620 C   0  0  0  0  0  0  0  0  0  0  0  0
   57.4750   30.8800   45.5840 O   0  0  0  0  0  0  0  0  0  0  0  0
   57.9030   31.9040   44.8790 C   0  0  0  0  0  0  0  0  0  0  0  0
   58.5220   33.1040   45.4850 C   0  0  0  0  0  0  0  0  0  0  0  0
   58.8870   34.1540   44.6240 C   0  0  0  0  0  0  0  0  0  0  0  0
   58.7305   34.0485   43.5403 H   0  0  0  0  0  0  0  0  0  0  0  0
   59.4460   35.3290   45.1300 C   0  0  0  0  0  0  0  0  0  0  0  0
   59.7227   36.1446   44.4458 H   0  0  0  0  0  0  0  0  0  0  0  0
   59.6540   35.4700   46.5010 C   0  0  0  0  0  0  0  0  0  0  0  0
   60.0798   36.4029   46.8988 H   0  0  0  0  0  0  0  0  0  0  0  0
   59.3230   34.4300   47.3690 C   0  0  0  0  0  0  0  0  0  0  0  0
   59.4898   34.5492   48.4497 H   0  0  0  0  0  0  0  0  0  0  0  0
   58.7780   33.2300   46.8770 C   0  0  0  0  0  0  0  0  0  0  0  0
   58.4960   32.1200   47.8550 C   0  0  0  0  0  0  0  0  0  0  0  0
   58.5932   32.5025   48.8818 H   0  0  0  0  0  0  0  0  0  0  0  0
   57.4739   31.7445   47.6988 H   0  0  0  0  0  0  0  0  0  0  0  0
   59.2149   31.3022   47.6988 H   0  0  0  0  0  0  0  0  0  0  0  0
   57.7200   31.6510   43.5300 C   0  0  0  0  0  0  0  0  0  0  0  0
   57.9856   32.3096   42.6900 H   0  0  0  0  0  0  0  0  0  0  0  0
   57.1370   30.4050   43.4560 C   0  0  0  0  0  0  0  0  0  0  0  0
   56.8293   29.8700   42.5455 H   0  0  0  0  0  0  0  0  0  0  0  0
  1  2  1  0
  2  3  2  0
  3  4  1  0
  4  5  2  0
  4  6  1  0
  6  7  1  0
  6  8  1  0
  8  9  2  0
  9 10  1  0
  9 11  1  0
 11 12  1  0
 11 13  2  0
 13 14  1  0
 14 15  2  0
 15 16  1  0
 16 17  2  0
 17 18  1  0
 17 19  1  0
 19 20  1  0
 19 21  2  0
 21 22  1  0
 21 23  1  0
 23 24  1  0
 23 25  2  0
 25 26  1  0
 13 27  1  0
 27 28  1  0
 27 29  2  0
  2 30  1  0
 30 31  1  0
 31 32  1  0
 32 33  1  0
 33 34  2  0
 34 35  1  0
 34 36  1  0
 36 37  1  0
 36 38  2  0
 38 39  1  0
 38 40  1  0
 40 41  1  0
 40 42  2  0
 42 43  1  0
 43 44  1  0
 43 45  1  0
 43 46  1  0
 32 47  2  0
 47 48  1  0
 47 49  1  0
 49 50  1  0
 29  3  1  0
 49 30  2  0
 29  8  1  0
 42 33  1  0
 26 14  1  0
 25 16  1  0
M  END
>  <UniqueID>  (34) 
32

>  <SMILES>  (34) 
Cc1ccccc1-c1ccc(/C=C2\C(=O)Nc3ccc(-c4nc5ccccc5o4)cc32)o1

>  <Energy>  (34) 
163.74546303241794

>  <Genealogy>  (34) 
Cc1ccccc1-c1ccc(/C=C2\C(=O)Nc3ccc(-c4nc5ccccc5o4)cc32)o1 (cis-trans isomerization)
Cc1ccccc1-c1ccc(/C=C2\C(=O)Nc3ccc(-c4nc5ccccc5o4)cc32)o1 (3D coordinates assigned)
Cc1ccccc1-c1ccc(/C=C2\C(=O)Nc3ccc(-c4nc5ccccc5o4)cc32)o1 (nonaromatic ring conformer: 163.74546303241794 kcal/mol)

>  <smiles>  (34) 
Cc1ccccc1-c1ccc(C=C2C(=O)Nc3ccc(-c4nc5ccccc5o4)cc32)o1

>  <score_type>  (34) 
oracle

>  <origin>  (34) 
adg

>  <m_score__min__energy>  (34) 
-10.4

>  <m_primary>  (34) 
energy

$$$$
34:0
     RDKit          3D

 44 47  0  0  0  0  0  0  0  0999 V2000
   65.9950   33.4660   50.4870 F   0  0  0  0  0  0  0  0  0  0  0  0
   64.7280   33.4580   50.0050 C   0  0  0  0  0  0  0  0  0  0  0  0
   63.6560   33.8050   50.8450 C   0  0  0  0  0  0  0  0  0  0  0  0
   62.3440   33.8160   50.3470 C   0  0  0  0  0  0  0  0  0  0  0  0
   62.1140   33.4210   49.0180 C   0  0  0  0  0  0  0  0  0  0  0  0
   63.1770   33.1520   48.1930 C   0  0  0  0  0  0  0  0  0  0  0  0
   64.4930   33.1480   48.6580 C   0  0  0  0  0  0  0  0  0  0  0  0
   62.7190   33.0480   46.8020 C   0  0  0  0  0  0  0  0  0  0  0  0
   61.2720   33.5620   46.9110 C   0  0  0  0  0  0  0  0  0  0  0  0
   60.8460   33.4610   48.3380 N   0  0  1  0  0  0  0  0  0  0  0  0
   60.0150   32.2330   48.5580 C   0  0  0  0  0  0  0  0  0  0  0  0
   58.4840   32.4950   48.5050 C   0  0  0  0  0  0  0  0  0  0  0  0
   57.9930   32.7070   47.0680 C   0  0  0  0  0  0  0  0  0  0  0  0
   58.4310   31.6100   46.1980 N   0  0  0  0  0  0  0  0  0  0  0  0
   58.0690   31.6230   44.8100 C   0  0  0  0  0  0  0  0  0  0  0  0
   58.4760   32.6920   43.9980 C   0  0  0  0  0  0  0  0  0  0  0  0
   58.1410   32.7180   42.6430 C   0  0  0  0  0  0  0  0  0  0  0  0
   57.3950   31.6760   42.0870 C   0  0  0  0  0  0  0  0  0  0  0  0
   56.9790   30.6070   42.8860 C   0  0  0  0  0  0  0  0  0  0  0  0
   56.2470   29.6070   42.3350 F   0  0  0  0  0  0  0  0  0  0  0  0
   57.3120   30.5750   44.2480 C   0  0  0  0  0  0  0  0  0  0  0  0
   56.7360   29.2400   45.2410 Cl  0  0  0  0  0  0  0  0  0  0  0  0
   59.2540   30.5220   46.7380 C   0  0  0  0  0  0  0  0  0  0  0  0
   60.4220   31.1060   47.5440 C   0  0  0  0  0  0  0  0  0  0  0  0
   63.8459   34.0687   51.8959 H   0  0  0  0  0  0  0  0  0  0  0  0
   61.5070   34.1295   50.9882 H   0  0  0  0  0  0  0  0  0  0  0  0
   65.3272   32.9070   47.9827 H   0  0  0  0  0  0  0  0  0  0  0  0
   63.3203   33.6815   46.1334 H   0  0  0  0  0  0  0  0  0  0  0  0
   62.8029   32.0362   46.3786 H   0  0  0  0  0  0  0  0  0  0  0  0
   61.2237   34.6104   46.5815 H   0  0  0  0  0  0  0  0  0  0  0  0
   60.6070   32.9613   46.2731 H   0  0  0  0  0  0  0  0  0  0  0  0
   60.3210   34.3230   48.6200 H   0  0  0  0  0  0  0  0  0  0  0  0
   60.2277   31.8982   49.5840 H   0  0  0  0  0  0  0  0  0  0  0  0
   57.9594   31.6299   48.9367 H   0  0  0  0  0  0  0  0  0  0  0  0
   58.2733   33.4105   49.0773 H   0  0  0  0  0  0  0  0  0  0  0  0
   56.8939   32.7515   47.0658 H   0  0  0  0  0  0  0  0  0  0  0  0
   58.4164   33.6481   46.6872 H   0  0  0  0  0  0  0  0  0  0  0  0
   59.0629   33.5151   44.4317 H   0  0  0  0  0  0  0  0  0  0  0  0
   58.4647   33.5595   42.0128 H   0  0  0  0  0  0  0  0  0  0  0  0
   57.1344   31.6967   41.0185 H   0  0  0  0  0  0  0  0  0  0  0  0
   58.6381   29.8888   47.3936 H   0  0  0  0  0  0  0  0  0  0  0  0
   59.6506   29.9194   45.9076 H   0  0  0  0  0  0  0  0  0  0  0  0
   60.8916   30.2880   48.1100 H   0  0  0  0  0  0  0  0  0  0  0  0
   61.1023   31.5716   46.8157 H   0  0  0  0  0  0  0  0  0  0  0  0
  1  2  1  0
  2  3  2  0
  3  4  1  0
  4  5  2  0
  5  6  1  0
  6  7  2  0
  6  8  1  0
  8  9  1  0
  9 10  1  0
 10 11  1  0
 11 12  1  0
 12 13  1  0
 13 14  1  0
 14 15  1  0
 15 16  2  0
 16 17  1  0
 17 18  2  0
 18 19  1  0
 19 20  1  0
 19 21  2  0
 21 22  1  0
 14 23  1  0
 23 24  1  0
  7  2  1  0
 24 11  1  0
 10  5  1  0
 21 15  1  0
  3 25  1  0
  4 26  1  0
  7 27  1  0
  8 28  1  0
  8 29  1  0
  9 30  1  0
  9 31  1  0
 10 32  1  1
 11 33  1  0
 12 34  1  0
 12 35  1  0
 13 36  1  0
 13 37  1  0
 16 38  1  0
 17 39  1  0
 18 40  1  0
 23 41  1  0
 23 42  1  0
 24 43  1  0
 24 44  1  0
M  CHG  1  10   1
M  END
>  <UniqueID>  (35) 
33

>  <SMILES>  (35) 
Fc1ccc2c(c1)CC[N@H+]2C1CCN(c2cccc(F)c2Cl)CC1

>  <Energy>  (35) 
74.97449621736084

>  <Genealogy>  (35) 
Fc1ccc2c(c1)CC[NH+]2C1CCN(c2cccc(F)c2Cl)CC1 (protonated)
Fc1ccc2c(c1)CC[N@H+]2C1CCN(c2cccc(F)c2Cl)CC1 (chirality)
Fc1ccc2c(c1)CC[N@H+]2C1CCN(c2cccc(F)c2Cl)CC1 (3D coordinates assigned)
Fc1ccc2c(c1)CC[N@H+]2C1CCN(c2cccc(F)c2Cl)CC1 (nonaromatic ring conformer: 74.97449621736084 kcal/mol)

>  <smiles>  (35) 
Fc1ccc2c(c1)CCN2C1CCN(c2cccc(F)c2Cl)CC1

>  <score_type>  (35) 
oracle

>  <origin>  (35) 
adg

>  <m_score__min__energy>  (35) 
-6.9199999999999999

>  <m_primary>  (35) 
energy

$$$$
35:0
     RDKit          3D

 52 55  0  0  0  0  0  0  0  0999 V2000
   59.0980   26.9360   45.6940 C   0  0  0  0  0  0  0  0  0  0  0  0
   58.9250   28.3490   46.0190 N   0  0  0  0  0  0  0  0  0  0  0  0
   59.4830   29.0050   47.0610 C   0  0  0  0  0  0  0  0  0  0  0  0
   59.1400   30.3510   47.0270 C   0  0  0  0  0  0  0  0  0  0  0  0
   58.3390   30.5040   45.9090 C   0  0  0  0  0  0  0  0  0  0  0  0
   57.7210   31.6410   45.3640 C   0  0  0  0  0  0  0  0  0  0  0  0
   57.8250   33.0050   46.0080 C   0  0  0  0  0  0  0  0  0  0  0  0
   59.1580   33.6330   45.8420 N   0  0  1  0  0  0  0  0  0  0  0  0
   59.2670   34.2520   44.5110 C   0  0  0  0  0  0  0  0  0  0  0  0
   59.5000   34.6170   46.8610 C   0  0  0  0  0  0  0  0  0  0  0  0
   59.2990   35.7980   46.6200 O   0  0  0  0  0  0  0  0  0  0  0  0
   59.8740   34.2070   48.2760 C   0  0  0  0  0  0  0  0  0  0  0  0
   61.0250   33.1790   48.4550 C   0  0  2  0  0  0  0  0  0  0  0  0
   62.1820   33.6190   49.3980 C   0  0  0  0  0  0  0  0  0  0  0  0
   63.5160   33.1320   48.8000 C   0  0  0  0  0  0  0  0  0  0  0  0
   63.7140   33.8520   47.4560 C   0  0  0  0  0  0  0  0  0  0  0  0
   62.5350   33.5020   46.5160 C   0  0  0  0  0  0  0  0  0  0  0  0
   61.5500   32.6030   47.1800 N   0  0  0  0  0  0  0  0  0  0  0  0
   62.2670   31.3430   47.5130 C   0  0  0  0  0  0  0  0  0  0  0  0
   63.4160   31.6140   48.5250 C   0  0  0  0  0  0  0  0  0  0  0  0
   57.0200   31.4720   44.1490 C   0  0  0  0  0  0  0  0  0  0  0  0
   56.9300   30.2060   43.5350 C   0  0  0  0  0  0  0  0  0  0  0  0
   57.5400   29.0860   44.1210 C   0  0  0  0  0  0  0  0  0  0  0  0
   58.2410   29.2700   45.3140 C   0  0  0  0  0  0  0  0  0  0  0  0
   59.1695   26.3521   46.6235 H   0  0  0  0  0  0  0  0  0  0  0  0
   58.2359   26.5866   45.1069 H   0  0  0  0  0  0  0  0  0  0  0  0
   60.0189   26.8049   45.1069 H   0  0  0  0  0  0  0  0  0  0  0  0
   60.1191   28.5388   47.8279 H   0  0  0  0  0  0  0  0  0  0  0  0
   59.4422   31.1321   47.7401 H   0  0  0  0  0  0  0  0  0  0  0  0
   57.0700   33.6637   45.5541 H   0  0  0  0  0  0  0  0  0  0  0  0
   57.6618   32.8685   47.0872 H   0  0  0  0  0  0  0  0  0  0  0  0
   59.8760   32.8720   45.8740 H   0  0  0  0  0  0  0  0  0  0  0  0
   59.4568   35.3298   44.6223 H   0  0  0  0  0  0  0  0  0  0  0  0
   60.0974   33.7887   43.9580 H   0  0  0  0  0  0  0  0  0  0  0  0
   58.3283   34.1002   43.9580 H   0  0  0  0  0  0  0  0  0  0  0  0
   60.1638   35.1205   48.8159 H   0  0  0  0  0  0  0  0  0  0  0  0
   58.9812   33.6907   48.6586 H   0  0  0  0  0  0  0  0  0  0  0  0
   60.5089   32.3639   48.9835 H   0  0  0  0  0  0  0  0  0  0  0  0
   62.1930   34.7156   49.4843 H   0  0  0  0  0  0  0  0  0  0  0  0
   62.0376   33.1842   50.3981 H   0  0  0  0  0  0  0  0  0  0  0  0
   64.3483   33.3371   49.4893 H   0  0  0  0  0  0  0  0  0  0  0  0
   63.7433   34.9391   47.6212 H   0  0  0  0  0  0  0  0  0  0  0  0
   64.6611   33.5298   46.9987 H   0  0  0  0  0  0  0  0  0  0  0  0
   62.0266   34.4316   46.2203 H   0  0  0  0  0  0  0  0  0  0  0  0
   62.9402   32.9781   45.6377 H   0  0  0  0  0  0  0  0  0  0  0  0
   61.5565   30.6298   47.9563 H   0  0  0  0  0  0  0  0  0  0  0  0
   62.6994   30.9284   46.5905 H   0  0  0  0  0  0  0  0  0  0  0  0
   63.2077   31.0842   49.4662 H   0  0  0  0  0  0  0  0  0  0  0  0
   64.3667   31.2552   48.1037 H   0  0  0  0  0  0  0  0  0  0  0  0
   56.5379   32.3400   43.6756 H   0  0  0  0  0  0  0  0  0  0  0  0
   56.3778   30.0953   42.5901 H   0  0  0  0  0  0  0  0  0  0  0  0
   57.4678   28.0927   43.6540 H   0  0  0  0  0  0  0  0  0  0  0  0
  1  2  1  0
  2  3  1  0
  3  4  2  0
  4  5  1  0
  5  6  2  0
  6  7  1  0
  7  8  1  0
  8  9  1  0
  8 10  1  0
 10 11  2  0
 10 12  1  0
 12 13  1  0
 13 14  1  0
 14 15  1  0
 15 16  1  0
 16 17  1  0
 17 18  1  0
 18 19  1  0
 19 20  1  0
  6 21  1  0
 21 22  2  0
 22 23  1  0
 23 24  2  0
 24  2  1  0
 24  5  1  0
 18 13  1  0
 20 15  1  0
  1 25  1  0
  1 26  1  0
  1 27  1  0
  3 28  1  0
  4 29  1  0
  7 30  1  0
  7 31  1  0
  8 32  1  6
  9 33  1  0
  9 34  1  0
  9 35  1  0
 12 36  1  0
 12 37  1  0
 13 38  1  1
 14 39  1  0
 14 40  1  0
 15 41  1  0
 16 42  1  0
 16 43  1  0
 17 44  1  0
 17 45  1  0
 19 46  1  0
 19 47  1  0
 20 48  1  0
 20 49  1  0
 21 50  1  0
 22 51  1  0
 23 52  1  0
M  CHG  1   8   1
M  END
>  <UniqueID>  (36) 
34

>  <SMILES>  (36) 
Cn1ccc2c(C[N@@H+](C)C(=O)C[C@@H]3CC4CCN3CC4)cccc21

>  <Energy>  (36) 
108.3981020970652

>  <Genealogy>  (36) 
Cn1ccc2c(C[NH+](C)C(=O)CC3CC4CCN3CC4)cccc21 (protonated)
Cn1ccc2c(C[N@@H+](C)C(=O)C[C@@H]3CC4CCN3CC4)cccc21 (chirality)
Cn1ccc2c(C[N@@H+](C)C(=O)C[C@@H]3CC4CCN3CC4)cccc21 (3D coordinates assigned)
Cn1ccc2c(C[N@@H+](C)C(=O)C[C@@H]3CC4CCN3CC4)cccc21 (nonaromatic ring conformer: 108.3981020970652 kcal/mol)

>  <smiles>  (36) 
CN(Cc1cccc2c1ccn2C)C(=O)CC1CC2CCN1CC2

>  <score_type>  (36) 
oracle

>  <origin>  (36) 
adg

>  <m_score__min__energy>  (36) 
-6.29

>  <m_primary>  (36) 
energy

$$$$
36:0
     RDKit          3D

 43 45  0  0  0  0  0  0  0  0999 V2000
   57.5990   27.9210   45.3490 C   0  0  0  0  0  0  0  0  0  0  0  0
   57.4960   29.4100   45.3340 C   0  0  0  0  0  0  0  0  0  0  0  0
   56.4780   30.0740   44.8350 O   0  0  0  0  0  0  0  0  0  0  0  0
   56.6580   31.3600   44.9330 N   0  0  0  0  0  0  0  0  0  0  0  0
   57.8480   31.5480   45.5370 C   0  0  0  0  0  0  0  0  0  0  0  0
   58.4400   32.8770   45.7770 C   0  0  0  0  0  0  0  0  0  0  0  0
   58.7390   33.7030   44.6790 C   0  0  0  0  0  0  0  0  0  0  0  0
   58.4440   33.3050   43.4160 F   0  0  0  0  0  0  0  0  0  0  0  0
   59.3450   34.9460   44.8770 C   0  0  0  0  0  0  0  0  0  0  0  0
   59.6360   35.3860   46.1690 C   0  0  0  0  0  0  0  0  0  0  0  0
   59.3020   34.5930   47.2690 C   0  0  0  0  0  0  0  0  0  0  0  0
   58.6960   33.3450   47.0830 C   0  0  0  0  0  0  0  0  0  0  0  0
   58.1780   32.4490   48.5090 Cl  0  0  0  0  0  0  0  0  0  0  0  0
   58.4280   30.3170   45.8000 C   0  0  0  0  0  0  0  0  0  0  0  0
   59.7950   30.0340   46.3610 C   0  0  0  0  0  0  0  0  0  0  0  0
   59.7650   30.0420   47.8390 N   0  0  0  0  0  0  0  0  0  0  0  0
   58.9960   28.8880   48.3350 C   0  0  0  0  0  0  0  0  0  0  0  0
   61.1260   30.0610   48.4270 C   0  0  0  0  0  0  0  0  0  0  0  0
   61.7340   31.4120   48.2370 C   0  0  0  0  0  0  0  0  0  0  0  0
   61.6980   32.4710   49.1260 C   0  0  0  0  0  0  0  0  0  0  0  0
   62.3270   33.5190   48.5620 N   0  0  0  0  0  0  0  0  0  0  0  0
   62.7580   33.1610   47.3620 N   0  0  0  0  0  0  0  0  0  0  0  0
   63.3920   34.0640   46.4110 C   0  0  0  0  0  0  0  0  0  0  0  0
   62.4030   31.8840   47.1230 C   0  0  0  0  0  0  0  0  0  0  0  0
   57.6236   27.5656   46.3897 H   0  0  0  0  0  0  0  0  0  0  0  0
   56.7287   27.4880   44.8342 H   0  0  0  0  0  0  0  0  0  0  0  0
   58.5207   27.6120   44.8342 H   0  0  0  0  0  0  0  0  0  0  0  0
   59.5934   35.5794   44.0126 H   0  0  0  0  0  0  0  0  0  0  0  0
   60.1286   36.3577   46.3210 H   0  0  0  0  0  0  0  0  0  0  0  0
   59.5162   34.9510   48.2868 H   0  0  0  0  0  0  0  0  0  0  0  0
   60.1313   29.0465   46.0120 H   0  0  0  0  0  0  0  0  0  0  0  0
   60.4875   30.8164   46.0170 H   0  0  0  0  0  0  0  0  0  0  0  0
   58.9982   28.8913   49.4350 H   0  0  0  0  0  0  0  0  0  0  0  0
   57.9603   28.9534   47.9702 H   0  0  0  0  0  0  0  0  0  0  0  0
   59.4551   27.9573   47.9702 H   0  0  0  0  0  0  0  0  0  0  0  0
   61.0638   29.8352   49.5018 H   0  0  0  0  0  0  0  0  0  0  0  0
   61.7506   29.3054   47.9280 H   0  0  0  0  0  0  0  0  0  0  0  0
   61.2345   32.4589   50.1235 H   0  0  0  0  0  0  0  0  0  0  0  0
   62.4370   34.4690   48.9790 H   0  0  0  0  0  0  0  0  0  0  0  0
   63.9407   34.8455   46.9572 H   0  0  0  0  0  0  0  0  0  0  0  0
   64.0921   33.4981   45.7788 H   0  0  0  0  0  0  0  0  0  0  0  0
   62.6220   34.5303   45.7788 H   0  0  0  0  0  0  0  0  0  0  0  0
   62.6090   31.3165   46.2035 H   0  0  0  0  0  0  0  0  0  0  0  0
  1  2  1  0
  2  3  1  0
  3  4  1  0
  4  5  2  0
  5  6  1  0
  6  7  2  0
  7  8  1  0
  7  9  1  0
  9 10  2  0
 10 11  1  0
 11 12  2  0
 12 13  1  0
  5 14  1  0
 14 15  1  0
 15 16  1  0
 16 17  1  0
 16 18  1  0
 18 19  1  0
 19 20  1  0
 20 21  2  0
 21 22  1  0
 22 23  1  0
 22 24  1  0
 14  2  2  0
 24 19  2  0
 12  6  1  0
  1 25  1  0
  1 26  1  0
  1 27  1  0
  9 28  1  0
 10 29  1  0
 11 30  1  0
 15 31  1  0
 15 32  1  0
 17 33  1  0
 17 34  1  0
 17 35  1  0
 18 36  1  0
 18 37  1  0
 20 38  1  0
 21 39  1  0
 23 40  1  0
 23 41  1  0
 23 42  1  0
 24 43  1  0
M  CHG  1  21   1
M  END
>  <UniqueID>  (37) 
35

>  <SMILES>  (37) 
Cc1onc(-c2c(F)cccc2Cl)c1CN(C)Cc1c[nH+]n(C)c1

>  <Energy>  (37) 
109.11982607189637

>  <Genealogy>  (37) 
Cc1onc(-c2c(F)cccc2Cl)c1CN(C)Cc1c[nH+]n(C)c1 (protonated)
Cc1onc(-c2c(F)cccc2Cl)c1CN(C)Cc1c[nH+]n(C)c1 (3D coordinates assigned)
Cc1onc(-c2c(F)cccc2Cl)c1CN(C)Cc1c[nH+]n(C)c1 (optimized conformer: 109.11982607189637 kcal/mol)

>  <smiles>  (37) 
Cc1onc(-c2c(F)cccc2Cl)c1CN(C)Cc1cnn(C)c1

>  <score_type>  (37) 
oracle

>  <origin>  (37) 
adg

>  <m_score__min__energy>  (37) 
-7.4699999999999998

>  <m_primary>  (37) 
energy

$$$$
37:0
     RDKit          3D

 33 35  0  0  0  0  0  0  0  0999 V2000
   56.9918   29.1827   42.3769 H   0  0  0  0  0  0  0  0  0  0  0  0
   57.0590   29.0360   43.4650 C   0  0  0  0  0  0  0  0  0  0  0  0
   56.0280   29.6820   44.3000 C   0  0  0  0  0  0  0  0  0  0  0  0
   55.1650   28.9690   44.8740 O   0  0  0  0  0  0  0  0  0  0  0  0
   56.0290   31.0530   44.5210 O   0  0  0  0  0  0  0  0  0  0  0  0
   58.0710   28.2850   43.9230 C   0  0  0  0  0  0  0  0  0  0  0  0
   58.8631   28.0114   43.2104 H   0  0  0  0  0  0  0  0  0  0  0  0
   58.2040   27.7970   45.3100 C   0  0  0  0  0  0  0  0  0  0  0  0
   58.6770   28.4510   46.4420 C   0  0  0  0  0  0  0  0  0  0  0  0
   59.2260   29.8210   46.5450 C   0  0  0  0  0  0  0  0  0  0  0  0
   60.4760   30.0590   47.1420 C   0  0  0  0  0  0  0  0  0  0  0  0
   61.0603   29.2159   47.5391 H   0  0  0  0  0  0  0  0  0  0  0  0
   60.9820   31.3570   47.2350 C   0  0  0  0  0  0  0  0  0  0  0  0
   61.9661   31.5290   47.6955 H   0  0  0  0  0  0  0  0  0  0  0  0
   60.2430   32.4410   46.7450 C   0  0  0  0  0  0  0  0  0  0  0  0
   60.7430   33.7490   46.8360 C   0  0  0  0  0  0  0  0  0  0  0  0
   61.7279   33.9294   47.2914 H   0  0  0  0  0  0  0  0  0  0  0  0
   59.9920   34.8240   46.3490 C   0  0  0  0  0  0  0  0  0  0  0  0
   60.3876   35.8478   46.4222 H   0  0  0  0  0  0  0  0  0  0  0  0
   58.7410   34.6000   45.7700 C   0  0  0  0  0  0  0  0  0  0  0  0
   58.1544   35.4485   45.3879 H   0  0  0  0  0  0  0  0  0  0  0  0
   58.2310   33.3010   45.6740 C   0  0  0  0  0  0  0  0  0  0  0  0
   57.2452   33.1310   45.2165 H   0  0  0  0  0  0  0  0  0  0  0  0
   58.9740   32.2140   46.1600 C   0  0  0  0  0  0  0  0  0  0  0  0
   58.4730   30.9070   46.0710 C   0  0  0  0  0  0  0  0  0  0  0  0
   57.4823   30.7314   45.6263 H   0  0  0  0  0  0  0  0  0  0  0  0
   58.6100   27.6060   47.4920 N   0  0  0  0  0  0  0  0  0  0  0  0
   58.1440   26.4730   47.0500 O   0  0  0  0  0  0  0  0  0  0  0  0
   57.8980   26.5310   45.7620 C   0  0  0  0  0  0  0  0  0  0  0  0
   57.3710   25.3930   44.9510 C   0  0  0  0  0  0  0  0  0  0  0  0
   57.0050   24.6026   45.6228 H   0  0  0  0  0  0  0  0  0  0  0  0
   56.5449   25.7465   44.3165 H   0  0  0  0  0  0  0  0  0  0  0  0
   58.1749   24.9917   44.3165 H   0  0  0  0  0  0  0  0  0  0  0  0
  1  2  1  0
  2  3  1  0
  3  4  2  0
  3  5  1  0
  2  6  2  0
  6  7  1  0
  6  8  1  0
  8  9  1  0
  9 10  1  0
 10 11  2  0
 11 12  1  0
 11 13  1  0
 13 14  1  0
 13 15  2  0
 15 16  1  0
 16 17  1  0
 16 18  2  0
 18 19  1  0
 18 20  1  0
 20 21  1  0
 20 22  2  0
 22 23  1  0
 22 24  1  0
 24 25  2  0
 25 26  1  0
  9 27  2  0
 27 28  1  0
 28 29  1  0
 29 30  1  0
 30 31  1  0
 30 32  1  0
 30 33  1  0
 29  8  2  0
 25 10  1  0
 24 15  1  0
M  CHG  1   5  -1
M  END
>  <UniqueID>  (38) 
36

>  <SMILES>  (38) 
Cc1onc(-c2ccc3ccccc3c2)c1/C=C\C(=O)[O-]

>  <Energy>  (38) 
78.53151940166046

>  <Genealogy>  (38) 
Cc1onc(-c2ccc3ccccc3c2)c1C=CC(=O)[O-] (protonated)
Cc1onc(-c2ccc3ccccc3c2)c1/C=C\C(=O)[O-] (cis-trans isomerization)
Cc1onc(-c2ccc3ccccc3c2)c1/C=C\C(=O)[O-] (3D coordinates assigned)
Cc1onc(-c2ccc3ccccc3c2)c1/C=C\C(=O)[O-] (optimized conformer: 78.53151940166046 kcal/mol)

>  <smiles>  (38) 
Cc1onc(-c2ccc3ccccc3c2)c1C=CC(=O)O

>  <score_type>  (38) 
oracle

>  <origin>  (38) 
adg

>  <m_score__min__energy>  (38) 
-10.470000000000001

>  <m_primary>  (38) 
energy

$$$$
38:0
     RDKit          3D

 42 43  0  0  0  0  0  0  0  0999 V2000
   56.5990   30.4750   43.4760 C   0  0  0  0  0  0  0  0  0  0  0  0
   55.7680   29.7010   44.4980 C   0  0  0  0  0  0  0  0  0  0  0  0
   56.6270   29.0380   45.4760 N   0  0  0  0  0  0  0  0  0  0  0  0
   56.6370   27.6220   45.6960 C   0  0  0  0  0  0  0  0  0  0  0  0
   55.5610   26.9660   45.6650 O   0  0  0  0  0  0  0  0  0  0  0  0
   57.9450   26.9250   45.9750 C   0  0  1  0  0  0  0  0  0  0  0  0
   58.9880   27.2080   44.8640 C   0  0  0  0  0  0  0  0  0  0  0  0
   59.0840   28.6580   44.3620 C   0  0  0  0  0  0  0  0  0  0  0  0
   59.4680   29.7330   45.3990 C   0  0  0  0  0  0  0  0  0  0  0  0
   58.8380   29.6060   46.7400 N   0  0  2  0  0  0  0  0  0  0  0  0
   58.9200   30.8610   47.4690 C   0  0  0  0  0  0  0  0  0  0  0  0
   58.9020   30.8540   48.7310 O   0  0  0  0  0  0  0  0  0  0  0  0
   59.0040   32.1710   46.7710 C   0  0  0  0  0  0  0  0  0  0  0  0
   60.2300   32.8610   46.7400 C   0  0  0  0  0  0  0  0  0  0  0  0
   60.3330   34.0980   46.0960 C   0  0  0  0  0  0  0  0  0  0  0  0
   59.2200   34.6520   45.4620 C   0  0  0  0  0  0  0  0  0  0  0  0
   59.3260   35.8550   44.8420 F   0  0  0  0  0  0  0  0  0  0  0  0
   58.0000   33.9730   45.4720 C   0  0  0  0  0  0  0  0  0  0  0  0
   56.9180   34.5090   44.8530 F   0  0  0  0  0  0  0  0  0  0  0  0
   57.8890   32.7370   46.1230 C   0  0  0  0  0  0  0  0  0  0  0  0
   59.2760   28.4590   47.5890 C   0  0  0  0  0  0  0  0  0  0  0  0
   58.4230   27.1840   47.4310 C   0  0  0  0  0  0  0  0  0  0  0  0
   57.3061   31.1336   44.0016 H   0  0  0  0  0  0  0  0  0  0  0  0
   57.1568   29.7671   42.8453 H   0  0  0  0  0  0  0  0  0  0  0  0
   55.9325   31.0816   42.8453 H   0  0  0  0  0  0  0  0  0  0  0  0
   55.0994   30.4001   45.0217 H   0  0  0  0  0  0  0  0  0  0  0  0
   55.1843   28.9345   43.9672 H   0  0  0  0  0  0  0  0  0  0  0  0
   57.7931   25.8365   45.9280 H   0  0  0  0  0  0  0  0  0  0  0  0
   59.9764   26.9240   45.2543 H   0  0  0  0  0  0  0  0  0  0  0  0
   58.6522   26.6224   43.9955 H   0  0  0  0  0  0  0  0  0  0  0  0
   59.8391   28.6832   43.5625 H   0  0  0  0  0  0  0  0  0  0  0  0
   58.0638   28.9188   44.0440 H   0  0  0  0  0  0  0  0  0  0  0  0
   60.5588   29.6932   45.5355 H   0  0  0  0  0  0  0  0  0  0  0  0
   59.0975   30.6839   44.9884 H   0  0  0  0  0  0  0  0  0  0  0  0
   57.8270   29.4170   46.5470 H   0  0  0  0  0  0  0  0  0  0  0  0
   61.1145   32.4238   47.2263 H   0  0  0  0  0  0  0  0  0  0  0  0
   61.2929   34.6352   46.0891 H   0  0  0  0  0  0  0  0  0  0  0  0
   56.9257   32.2059   46.1279 H   0  0  0  0  0  0  0  0  0  0  0  0
   60.3148   28.2124   47.3240 H   0  0  0  0  0  0  0  0  0  0  0  0
   59.1640   28.7828   48.6343 H   0  0  0  0  0  0  0  0  0  0  0  0
   59.0238   26.3222   47.7571 H   0  0  0  0  0  0  0  0  0  0  0  0
   57.5205   27.3245   48.0440 H   0  0  0  0  0  0  0  0  0  0  0  0
  1  2  1  0
  2  3  1  0
  3  4  1  0
  4  5  2  0
  4  6  1  0
  6  7  1  0
  7  8  1  0
  8  9  1  0
  9 10  1  0
 10 11  1  0
 11 12  2  0
 11 13  1  0
 13 14  2  0
 14 15  1  0
 15 16  2  0
 16 17  1  0
 16 18  1  0
 18 19  1  0
 18 20  2  0
 10 21  1  0
 21 22  1  0
 22  6  1  0
 20 13  1  0
  1 23  1  0
  1 24  1  0
  1 25  1  0
  2 26  1  0
  2 27  1  0
  6 28  1  1
  7 29  1  0
  7 30  1  0
  8 31  1  0
  8 32  1  0
  9 33  1  0
  9 34  1  0
 10 35  1  6
 14 36  1  0
 15 37  1  0
 20 38  1  0
 21 39  1  0
 21 40  1  0
 22 41  1  0
 22 42  1  0
M  CHG  2   3  -1  10   1
M  END
>  <UniqueID>  (39) 
37

>  <SMILES>  (39) 
CC[N-]C(=O)[C@H]1CCC[N@H+](C(=O)c2ccc(F)c(F)c2)CC1

>  <Energy>  (39) 
58.91494787511771

>  <Genealogy>  (39) 
CC[N-]C(=O)C1CCC[NH+](C(=O)c2ccc(F)c(F)c2)CC1 (protonated)
CC[N-]C(=O)[C@H]1CCC[N@H+](C(=O)c2ccc(F)c(F)c2)CC1 (chirality)
CC[N-]C(=O)[C@H]1CCC[N@H+](C(=O)c2ccc(F)c(F)c2)CC1 (3D coordinates assigned)
CC[N-]C(=O)[C@H]1CCC[N@H+](C(=O)c2ccc(F)c(F)c2)CC1 (nonaromatic ring conformer: 58.91494787511771 kcal/mol)

>  <smiles>  (39) 
CCNC(=O)C1CCCN(C(=O)c2ccc(F)c(F)c2)CC1

>  <score_type>  (39) 
oracle

>  <origin>  (39) 
adg

>  <m_score__min__energy>  (39) 
-6.8399999999999999

>  <m_primary>  (39) 
energy

$$$$
39:0
     RDKit          3D

 31 33  0  0  0  0  0  0  0  0999 V2000
   59.0880   27.2810   46.9890 C   0  0  0  0  0  0  0  0  0  0  0  0
   57.6180   27.5980   46.7430 C   0  0  0  0  0  0  0  0  0  0  0  0
   57.4790   28.7120   45.7540 C   0  0  0  0  0  0  0  0  0  0  0  0
   57.8890   29.9820   46.0080 N   0  0  0  0  0  0  0  0  0  0  0  0
   57.6320   30.6210   44.8490 C   0  0  0  0  0  0  0  0  0  0  0  0
   57.8810   31.9640   44.5290 C   0  0  0  0  0  0  0  0  0  0  0  0
   58.4550   32.9150   45.5110 C   0  0  0  0  0  0  0  0  0  0  0  0
   58.3430   32.6760   46.8920 C   0  0  0  0  0  0  0  0  0  0  0  0
   58.8830   33.5790   47.8130 C   0  0  0  0  0  0  0  0  0  0  0  0
   59.5370   34.7290   47.3660 C   0  0  0  0  0  0  0  0  0  0  0  0
   59.6490   34.9810   45.9960 C   0  0  0  0  0  0  0  0  0  0  0  0
   59.1100   34.0810   45.0720 C   0  0  0  0  0  0  0  0  0  0  0  0
   57.5650   32.3760   43.2110 C   0  0  0  0  0  0  0  0  0  0  0  0
   57.0210   31.4640   42.2790 C   0  0  0  0  0  0  0  0  0  0  0  0
   56.7880   30.1260   42.6410 C   0  0  0  0  0  0  0  0  0  0  0  0
   57.1080   29.7470   43.9410 C   0  0  0  0  0  0  0  0  0  0  0  0
   57.0060   28.5340   44.4970 N   0  0  0  0  0  0  0  0  0  0  0  0
   59.2781   27.2400   48.0717 H   0  0  0  0  0  0  0  0  0  0  0  0
   59.3342   26.3091   46.5364 H   0  0  0  0  0  0  0  0  0  0  0  0
   59.7129   28.0650   46.5364 H   0  0  0  0  0  0  0  0  0  0  0  0
   57.1153   26.7015   46.3510 H   0  0  0  0  0  0  0  0  0  0  0  0
   57.1576   27.9070   47.6930 H   0  0  0  0  0  0  0  0  0  0  0  0
   57.8273   31.7728   47.2502 H   0  0  0  0  0  0  0  0  0  0  0  0
   58.7925   33.3831   48.8916 H   0  0  0  0  0  0  0  0  0  0  0  0
   59.9639   35.4364   48.0921 H   0  0  0  0  0  0  0  0  0  0  0  0
   60.1618   35.8884   45.6443 H   0  0  0  0  0  0  0  0  0  0  0  0
   59.1983   34.2854   43.9948 H   0  0  0  0  0  0  0  0  0  0  0  0
   57.7453   33.4184   42.9095 H   0  0  0  0  0  0  0  0  0  0  0  0
   56.7778   31.8040   41.2615 H   0  0  0  0  0  0  0  0  0  0  0  0
   56.3684   29.4055   41.9235 H   0  0  0  0  0  0  0  0  0  0  0  0
   56.6610   27.6510   44.0550 H   0  0  0  0  0  0  0  0  0  0  0  0
  1  2  1  0
  2  3  1  0
  3  4  2  0
  4  5  1  0
  5  6  2  0
  6  7  1  0
  7  8  2  0
  8  9  1  0
  9 10  2  0
 10 11  1  0
 11 12  2  0
  6 13  1  0
 13 14  2  0
 14 15  1  0
 15 16  2  0
 16 17  1  0
 17  3  1  0
 16  5  1  0
 12  7  1  0
  1 18  1  0
  1 19  1  0
  1 20  1  0
  2 21  1  0
  2 22  1  0
  8 23  1  0
  9 24  1  0
 10 25  1  0
 11 26  1  0
 12 27  1  0
 13 28  1  0
 14 29  1  0
 15 30  1  0
 17 31  1  0
M  END
>  <UniqueID>  (40) 
38

>  <SMILES>  (40) 
CCc1nc2c(-c3ccccc3)cccc2[nH]1

>  <Energy>  (40) 
70.7851047779434

>  <Genealogy>  (40) 
CCc1nc2c(-c3ccccc3)cccc2[nH]1 (3D coordinates assigned)
CCc1nc2c(-c3ccccc3)cccc2[nH]1 (optimized conformer: 70.7851047779434 kcal/mol)

>  <smiles>  (40) 
CCc1nc2c(-c3ccccc3)cccc2[nH]1

>  <score_type>  (40) 
oracle

>  <origin>  (40) 
adg

>  <m_score__min__energy>  (40) 
-7.0700000000000003

>  <m_primary>  (40) 
energy

$$$$
40:0
     RDKit          3D

 31 33  0  0  0  0  0  0  0  0999 V2000
   56.2810   29.7130   43.5370 C   0  0  0  0  0  0  0  0  0  0  0  0
   56.5520   30.1260   44.8730 O   0  0  0  0  0  0  0  0  0  0  0  0
   57.3990   31.1890   45.2170 C   0  0  0  0  0  0  0  0  0  0  0  0
   57.0980   32.4640   44.7240 C   0  0  0  0  0  0  0  0  0  0  0  0
   57.9060   33.5610   45.0360 C   0  0  0  0  0  0  0  0  0  0  0  0
   59.0370   33.3920   45.8530 C   0  0  0  0  0  0  0  0  0  0  0  0
   59.8770   34.4610   46.2010 C   0  0  0  0  0  0  0  0  0  0  0  0
   59.6430   35.6320   45.7930 O   0  0  0  0  0  0  0  0  0  0  0  0
   60.9850   34.2240   47.0160 C   0  0  0  0  0  0  0  0  0  0  0  0
   61.2400   32.9180   47.4670 C   0  0  0  0  0  0  0  0  0  0  0  0
   62.3960   32.6120   48.3400 C   0  0  0  0  0  0  0  0  0  0  0  0
   62.2800   31.5810   49.2900 C   0  0  0  0  0  0  0  0  0  0  0  0
   63.3530   31.2650   50.1280 C   0  0  0  0  0  0  0  0  0  0  0  0
   64.5560   31.9650   50.0200 C   0  0  0  0  0  0  0  0  0  0  0  0
   64.6920   32.9770   49.0680 C   0  0  0  0  0  0  0  0  0  0  0  0
   63.6240   33.3010   48.2250 C   0  0  0  0  0  0  0  0  0  0  0  0
   63.8090   34.2470   47.2700 F   0  0  0  0  0  0  0  0  0  0  0  0
   60.4130   31.9300   47.1270 O   0  0  0  0  0  0  0  0  0  0  0  0
   59.3470   32.1100   46.3530 C   0  0  0  0  0  0  0  0  0  0  0  0
   58.5310   31.0170   46.0370 C   0  0  0  0  0  0  0  0  0  0  0  0
   55.6776   28.7934   43.5527 H   0  0  0  0  0  0  0  0  0  0  0  0
   55.7271   30.5061   43.0133 H   0  0  0  0  0  0  0  0  0  0  0  0
   57.2290   29.5206   43.0133 H   0  0  0  0  0  0  0  0  0  0  0  0
   56.2149   32.6043   44.0833 H   0  0  0  0  0  0  0  0  0  0  0  0
   57.6565   34.5572   44.6419 H   0  0  0  0  0  0  0  0  0  0  0  0
   61.6515   35.0509   47.3022 H   0  0  0  0  0  0  0  0  0  0  0  0
   61.3379   31.0194   49.3739 H   0  0  0  0  0  0  0  0  0  0  0  0
   63.2494   30.4633   50.8740 H   0  0  0  0  0  0  0  0  0  0  0  0
   65.3969   31.7191   50.6851 H   0  0  0  0  0  0  0  0  0  0  0  0
   65.6434   33.5221   48.9805 H   0  0  0  0  0  0  0  0  0  0  0  0
   58.7752   30.0194   46.4310 H   0  0  0  0  0  0  0  0  0  0  0  0
  1  2  1  0
  2  3  1  0
  3  4  2  0
  4  5  1  0
  5  6  2  0
  6  7  1  0
  7  8  2  0
  7  9  1  0
  9 10  2  0
 10 11  1  0
 11 12  2  0
 12 13  1  0
 13 14  2  0
 14 15  1  0
 15 16  2  0
 16 17  1  0
 10 18  1  0
 18 19  1  0
 19 20  2  0
 20  3  1  0
 19  6  1  0
 16 11  1  0
  1 21  1  0
  1 22  1  0
  1 23  1  0
  4 24  1  0
  5 25  1  0
  9 26  1  0
 12 27  1  0
 13 28  1  0
 14 29  1  0
 15 30  1  0
 20 31  1  0
M  END
>  <UniqueID>  (41) 
39

>  <SMILES>  (41) 
COc1ccc2c(=O)cc(-c3ccccc3F)oc2c1

>  <Energy>  (41) 
43.39148829503587

>  <Genealogy>  (41) 
COc1ccc2c(=O)cc(-c3ccccc3F)oc2c1 (3D coordinates assigned)
COc1ccc2c(=O)cc(-c3ccccc3F)oc2c1 (optimized conformer: 43.39148829503587 kcal/mol)

>  <smiles>  (41) 
COc1ccc2c(=O)cc(-c3ccccc3F)oc2c1

>  <score_type>  (41) 
oracle

>  <origin>  (41) 
adg

>  <m_score__min__energy>  (41) 
-6.6399999999999997

>  <m_primary>  (41) 
energy

$$$$
41:0
     RDKit          3D

 45 46  0  0  0  0  0  0  0  0999 V2000
   60.0810   28.7750   45.1970 C   0  0  0  0  0  0  0  0  0  0  0  0
   59.0840   28.2920   44.1340 C   0  0  0  0  0  0  0  0  0  0  0  0
   57.6940   28.1550   44.6220 N   0  0  0  0  0  0  0  0  0  0  0  0
   57.6170   27.8910   46.0740 C   0  0  0  0  0  0  0  0  0  0  0  0
   56.9820   26.5290   46.3360 C   0  0  0  0  0  0  0  0  0  0  0  0
   56.6790   29.5050   44.1440 S   0  0  0  0  0  0  0  0  0  0  0  0
   55.3130   29.3510   44.7490 O   0  0  0  0  0  0  0  0  0  0  0  0
   56.5270   29.5090   42.6490 O   0  0  0  0  0  0  0  0  0  0  0  0
   57.4560   31.0350   44.5960 C   0  0  0  0  0  0  0  0  0  0  0  0
   57.7680   31.2090   45.9530 C   0  0  0  0  0  0  0  0  0  0  0  0
   58.3710   32.3820   46.4060 C   0  0  0  0  0  0  0  0  0  0  0  0
   58.6980   33.4050   45.5060 C   0  0  0  0  0  0  0  0  0  0  0  0
   59.3320   34.6910   46.0020 C   0  0  0  0  0  0  0  0  0  0  0  0
   60.5520   34.5170   46.8290 N   0  0  0  0  0  0  0  0  0  0  0  0
   60.3070   34.2290   48.2460 C   0  0  0  0  0  0  0  0  0  0  0  0
   61.5990   33.6260   48.7870 C   0  0  0  0  0  0  0  0  0  0  0  0
   62.3620   33.1360   47.5620 C   0  0  0  0  0  0  0  0  0  0  0  0
   61.4720   33.4690   46.3710 C   0  0  0  0  0  0  0  0  0  0  0  0
   58.3700   33.2480   44.1510 C   0  0  0  0  0  0  0  0  0  0  0  0
   57.7650   32.0740   43.6840 C   0  0  0  0  0  0  0  0  0  0  0  0
   57.4140   31.9950   41.8000 Br  0  0  0  0  0  0  0  0  0  0  0  0
   59.6729   28.5773   46.1992 H   0  0  0  0  0  0  0  0  0  0  0  0
   61.0338   28.2386   45.0767 H   0  0  0  0  0  0  0  0  0  0  0  0
   60.2506   29.8552   45.0767 H   0  0  0  0  0  0  0  0  0  0  0  0
   59.0884   29.0139   43.3040 H   0  0  0  0  0  0  0  0  0  0  0  0
   59.4113   27.2874   43.8278 H   0  0  0  0  0  0  0  0  0  0  0  0
   58.6315   27.9052   46.4989 H   0  0  0  0  0  0  0  0  0  0  0  0
   56.9979   28.6688   46.5449 H   0  0  0  0  0  0  0  0  0  0  0  0
   56.9046   26.3631   47.4207 H   0  0  0  0  0  0  0  0  0  0  0  0
   55.9777   26.5004   45.8881 H   0  0  0  0  0  0  0  0  0  0  0  0
   57.6057   25.7414   45.8881 H   0  0  0  0  0  0  0  0  0  0  0  0
   57.5335   30.4084   46.6700 H   0  0  0  0  0  0  0  0  0  0  0  0
   58.5913   32.5050   47.4767 H   0  0  0  0  0  0  0  0  0  0  0  0
   59.5994   35.2987   45.1250 H   0  0  0  0  0  0  0  0  0  0  0  0
   58.5859   35.1664   46.6556 H   0  0  0  0  0  0  0  0  0  0  0  0
   61.0740   35.4260   46.7850 H   0  0  0  0  0  0  0  0  0  0  0  0
   60.0628   35.1553   48.7867 H   0  0  0  0  0  0  0  0  0  0  0  0
   59.4587   33.5405   48.3743 H   0  0  0  0  0  0  0  0  0  0  0  0
   62.1831   34.3872   49.3250 H   0  0  0  0  0  0  0  0  0  0  0  0
   61.4028   32.8111   49.4993 H   0  0  0  0  0  0  0  0  0  0  0  0
   63.3282   33.6549   47.4774 H   0  0  0  0  0  0  0  0  0  0  0  0
   62.5815   32.0597   47.6203 H   0  0  0  0  0  0  0  0  0  0  0  0
   62.0802   33.8357   45.5310 H   0  0  0  0  0  0  0  0  0  0  0  0
   60.9259   32.5819   46.0177 H   0  0  0  0  0  0  0  0  0  0  0  0
   58.5916   34.0605   43.4434 H   0  0  0  0  0  0  0  0  0  0  0  0
  1  2  1  0
  2  3  1  0
  3  4  1  0
  4  5  1  0
  3  6  1  0
  6  7  2  0
  6  8  2  0
  6  9  1  0
  9 10  2  0
 10 11  1  0
 11 12  2  0
 12 13  1  0
 13 14  1  0
 14 15  1  0
 15 16  1  0
 16 17  1  0
 17 18  1  0
 12 19  1  0
 19 20  2  0
 20 21  1  0
 20  9  1  0
 18 14  1  0
  1 22  1  0
  1 23  1  0
  1 24  1  0
  2 25  1  0
  2 26  1  0
  4 27  1  0
  4 28  1  0
  5 29  1  0
  5 30  1  0
  5 31  1  0
 10 32  1  0
 11 33  1  0
 13 34  1  0
 13 35  1  0
 14 36  1  0
 15 37  1  0
 15 38  1  0
 16 39  1  0
 16 40  1  0
 17 41  1  0
 17 42  1  0
 18 43  1  0
 18 44  1  0
 19 45  1  0
M  CHG  1  14   1
M  END
>  <UniqueID>  (42) 
40

>  <SMILES>  (42) 
CCN(CC)S(=O)(=O)c1ccc(C[NH+]2CCCC2)cc1Br

>  <Energy>  (42) 
54.377151344556694

>  <Genealogy>  (42) 
CCN(CC)S(=O)(=O)c1ccc(C[NH+]2CCCC2)cc1Br (protonated)
CCN(CC)S(=O)(=O)c1ccc(C[NH+]2CCCC2)cc1Br (3D coordinates assigned)
CCN(CC)S(=O)(=O)c1ccc(C[NH+]2CCCC2)cc1Br (nonaromatic ring conformer: 54.377151344556694 kcal/mol)

>  <smiles>  (42) 
CCN(CC)S(=O)(=O)c1ccc(CN2CCCC2)cc1Br

>  <score_type>  (42) 
oracle

>  <origin>  (42) 
adg

>  <m_score__min__energy>  (42) 
-6.5899999999999999

>  <m_primary>  (42) 
energy

$$$$
42:0
     RDKit          3D

 53 56  0  0  0  0  0  0  0  0999 V2000
   61.7170   33.4690   46.7670 C   0  0  0  0  0  0  0  0  0  0  0  0
   62.1510   32.3690   47.5560 O   0  0  0  0  0  0  0  0  0  0  0  0
   61.2910   31.3400   47.9510 C   0  0  0  0  0  0  0  0  0  0  0  0
   60.8680   31.2730   49.1370 O   0  0  0  0  0  0  0  0  0  0  0  0
   60.9100   30.2820   46.9650 C   0  0  0  0  0  0  0  0  0  0  0  0
   59.4280   29.8790   47.1380 C   0  0  1  0  0  0  0  0  0  0  0  0
   58.6860   31.0330   47.5410 O   0  0  0  0  0  0  0  0  0  0  0  0
   58.4120   32.0500   46.6260 C   0  0  0  0  0  0  0  0  0  0  0  0
   58.2140   33.3580   47.0700 C   0  0  0  0  0  0  0  0  0  0  0  0
   58.0730   34.3910   46.1450 C   0  0  0  0  0  0  0  0  0  0  0  0
   58.1560   34.1220   44.7780 C   0  0  0  0  0  0  0  0  0  0  0  0
   58.3350   32.8020   44.3130 C   0  0  0  0  0  0  0  0  0  0  0  0
   58.5030   32.5260   42.9470 O   0  0  0  0  0  0  0  0  0  0  0  0
   57.4380   32.3400   42.0190 C   0  0  0  0  0  0  0  0  0  0  0  0
   58.3870   31.7440   45.2550 C   0  0  0  0  0  0  0  0  0  0  0  0
   58.3780   30.2900   44.8940 C   0  0  0  0  0  0  0  0  0  0  0  0
   57.7010   29.8480   43.7470 C   0  0  0  0  0  0  0  0  0  0  0  0
   57.4750   28.4980   43.5310 C   0  0  0  0  0  0  0  0  0  0  0  0
   57.9050   27.5500   44.4570 C   0  0  0  0  0  0  0  0  0  0  0  0
   58.6670   27.9300   45.5850 C   0  0  0  0  0  0  0  0  0  0  0  0
   58.8550   29.3310   45.8370 C   0  0  0  0  0  0  0  0  0  0  0  0
   59.1490   26.8020   46.4670 C   0  0  0  0  0  0  0  0  0  0  0  0
   60.4360   26.8590   47.2530 C   0  0  0  0  0  0  0  0  0  0  0  0
   58.5140   25.6130   46.4380 C   0  0  0  0  0  0  0  0  0  0  0  0
   57.3600   25.3350   45.5040 C   0  0  0  0  0  0  0  0  0  0  0  0
   56.0360   25.6300   46.2250 C   0  0  0  0  0  0  0  0  0  0  0  0
   57.3980   23.8600   45.0680 C   0  0  0  0  0  0  0  0  0  0  0  0
   57.4720   26.1910   44.3190 N   0  0  0  0  0  0  0  0  0  0  0  0
   61.3938   34.2882   47.4262 H   0  0  0  0  0  0  0  0  0  0  0  0
   62.5462   33.8146   46.1321 H   0  0  0  0  0  0  0  0  0  0  0  0
   60.8752   33.1554   46.1321 H   0  0  0  0  0  0  0  0  0  0  0  0
   61.0625   30.6670   45.9459 H   0  0  0  0  0  0  0  0  0  0  0  0
   61.5388   29.3961   47.1376 H   0  0  0  0  0  0  0  0  0  0  0  0
   59.3568   29.0895   47.9006 H   0  0  0  0  0  0  0  0  0  0  0  0
   58.1693   33.5734   48.1478 H   0  0  0  0  0  0  0  0  0  0  0  0
   57.8961   35.4195   46.4928 H   0  0  0  0  0  0  0  0  0  0  0  0
   58.0811   34.9480   44.0554 H   0  0  0  0  0  0  0  0  0  0  0  0
   56.4985   32.1759   42.5671 H   0  0  0  0  0  0  0  0  0  0  0  0
   57.3421   33.2350   41.3867 H   0  0  0  0  0  0  0  0  0  0  0  0
   57.6511   31.4655   41.3867 H   0  0  0  0  0  0  0  0  0  0  0  0
   57.3451   30.5827   43.0098 H   0  0  0  0  0  0  0  0  0  0  0  0
   56.9514   28.1719   42.6202 H   0  0  0  0  0  0  0  0  0  0  0  0
   60.2091   26.8489   48.3293 H   0  0  0  0  0  0  0  0  0  0  0  0
   61.0583   25.9875   47.0013 H   0  0  0  0  0  0  0  0  0  0  0  0
   60.9788   27.7821   47.0013 H   0  0  0  0  0  0  0  0  0  0  0  0
   58.8484   24.8166   47.1191 H   0  0  0  0  0  0  0  0  0  0  0  0
   56.1951   25.5946   47.3129 H   0  0  0  0  0  0  0  0  0  0  0  0
   55.6777   26.6300   45.9392 H   0  0  0  0  0  0  0  0  0  0  0  0
   55.2871   24.8767   45.9392 H   0  0  0  0  0  0  0  0  0  0  0  0
   57.4146   23.2147   45.9587 H   0  0  0  0  0  0  0  0  0  0  0  0
   56.5054   23.6322   44.4668 H   0  0  0  0  0  0  0  0  0  0  0  0
   58.3011   23.6785   44.4668 H   0  0  0  0  0  0  0  0  0  0  0  0
   56.9820   25.9030   43.4410 H   0  0  0  0  0  0  0  0  0  0  0  0
  1  2  1  0
  2  3  1  0
  3  4  2  0
  3  5  1  0
  5  6  1  0
  6  7  1  0
  7  8  1  0
  8  9  2  0
  9 10  1  0
 10 11  2  0
 11 12  1  0
 12 13  1  0
 13 14  1  0
 12 15  2  0
 15 16  1  0
 16 17  2  0
 17 18  1  0
 18 19  2  0
 19 20  1  0
 20 21  2  0
 20 22  1  0
 22 23  1  0
 22 24  2  0
 24 25  1  0
 25 26  1  0
 25 27  1  0
 25 28  1  0
 21  6  1  0
 15  8  1  0
 21 16  1  0
 28 19  1  0
  1 29  1  0
  1 30  1  0
  1 31  1  0
  5 32  1  0
  5 33  1  0
  6 34  1  1
  9 35  1  0
 10 36  1  0
 11 37  1  0
 14 38  1  0
 14 39  1  0
 14 40  1  0
 17 41  1  0
 18 42  1  0
 23 43  1  0
 23 44  1  0
 23 45  1  0
 24 46  1  0
 26 47  1  0
 26 48  1  0
 26 49  1  0
 27 50  1  0
 27 51  1  0
 27 52  1  0
 28 53  1  0
M  END
>  <UniqueID>  (43) 
41

>  <SMILES>  (43) 
COC(=O)C[C@H]1Oc2cccc(OC)c2-c2ccc3c(c21)C(C)=CC(C)(C)N3

>  <Energy>  (43) 
74.50718103113975

>  <Genealogy>  (43) 
COC(=O)C[C@H]1Oc2cccc(OC)c2-c2ccc3c(c21)C(C)=CC(C)(C)N3 (chirality)
COC(=O)C[C@H]1Oc2cccc(OC)c2-c2ccc3c(c21)C(C)=CC(C)(C)N3 (3D coordinates assigned)
COC(=O)C[C@H]1Oc2cccc(OC)c2-c2ccc3c(c21)C(C)=CC(C)(C)N3 (nonaromatic ring conformer: 74.50718103113975 kcal/mol)

>  <smiles>  (43) 
COC(=O)CC1Oc2cccc(OC)c2-c2ccc3c(c21)C(C)=CC(C)(C)N3

>  <score_type>  (43) 
oracle

>  <origin>  (43) 
adg

>  <m_score__min__energy>  (43) 
-7.8300000000000001

>  <m_primary>  (43) 
energy

$$$$
43:0
     RDKit          3D

 45 46  0  0  0  0  0  0  0  0999 V2000
   57.7700   28.6700   44.0100 C   0  0  0  0  0  0  0  0  0  0  0  0
   58.5000   29.9130   44.5040 C   0  0  0  0  0  0  0  0  0  0  0  0
   57.4030   31.3280   44.5510 S   0  0  0  0  0  0  0  0  0  0  0  0
   57.7560   32.2380   43.4070 O   0  0  0  0  0  0  0  0  0  0  0  0
   55.9900   30.8530   44.3700 O   0  0  0  0  0  0  0  0  0  0  0  0
   57.5790   32.2190   46.0540 N   0  0  2  0  0  0  0  0  0  0  0  0
   56.7870   33.4650   46.0570 C   0  0  0  0  0  0  0  0  0  0  0  0
   57.3790   34.5730   45.1770 C   0  0  0  0  0  0  0  0  0  0  0  0
   58.9120   34.5720   45.1140 C   0  0  0  0  0  0  0  0  0  0  0  0
   59.6040   33.8350   46.2910 C   0  0  1  0  0  0  0  0  0  0  0  0
   61.1220   33.6980   45.9670 C   0  0  0  0  0  0  0  0  0  0  0  0
   61.9440   34.3230   46.9330 O   0  0  0  0  0  0  0  0  0  0  0  0
   62.2610   33.4410   47.9910 C   0  0  0  0  0  0  0  0  0  0  0  0
   61.3270   33.6860   49.1780 C   0  0  0  0  0  0  0  0  0  0  0  0
   59.9000   33.8030   48.8150 N   0  0  0  0  0  0  0  0  0  0  0  0
   58.9220   33.0640   49.5900 C   0  0  0  0  0  0  0  0  0  0  0  0
   58.9550   33.0470   51.0900 C   0  0  0  0  0  0  0  0  0  0  0  0
   58.0040   32.4210   49.0100 O   0  0  0  0  0  0  0  0  0  0  0  0
   59.4600   34.5980   47.6500 C   0  0  0  0  0  0  0  0  0  0  0  0
   59.0120   32.3860   46.4360 C   0  0  0  0  0  0  0  0  0  0  0  0
   57.4241   28.0810   44.8722 H   0  0  0  0  0  0  0  0  0  0  0  0
   56.9050   28.9707   43.4006 H   0  0  0  0  0  0  0  0  0  0  0  0
   58.4539   28.0610   43.4006 H   0  0  0  0  0  0  0  0  0  0  0  0
   58.8866   29.7242   45.5164 H   0  0  0  0  0  0  0  0  0  0  0  0
   59.3249   30.1329   43.8103 H   0  0  0  0  0  0  0  0  0  0  0  0
   57.1410   31.6000   46.7760 H   0  0  0  0  0  0  0  0  0  0  0  0
   55.7753   33.2345   45.6918 H   0  0  0  0  0  0  0  0  0  0  0  0
   56.7839   33.8419   47.0904 H   0  0  0  0  0  0  0  0  0  0  0  0
   56.9913   34.4467   44.1553 H   0  0  0  0  0  0  0  0  0  0  0  0
   57.0811   35.5303   45.6296 H   0  0  0  0  0  0  0  0  0  0  0  0
   59.2170   34.0842   44.1764 H   0  0  0  0  0  0  0  0  0  0  0  0
   59.2282   35.6238   45.1744 H   0  0  0  0  0  0  0  0  0  0  0  0
   61.3780   32.6290   45.9254 H   0  0  0  0  0  0  0  0  0  0  0  0
   61.3028   34.1970   45.0035 H   0  0  0  0  0  0  0  0  0  0  0  0
   62.1461   32.4029   47.6459 H   0  0  0  0  0  0  0  0  0  0  0  0
   63.2995   33.6175   48.3078 H   0  0  0  0  0  0  0  0  0  0  0  0
   61.4359   32.8469   49.8809 H   0  0  0  0  0  0  0  0  0  0  0  0
   61.6207   34.6515   49.6157 H   0  0  0  0  0  0  0  0  0  0  0  0
   58.0414   33.5176   51.4822 H   0  0  0  0  0  0  0  0  0  0  0  0
   59.0126   32.0070   51.4437 H   0  0  0  0  0  0  0  0  0  0  0  0
   59.8352   33.6039   51.4437 H   0  0  0  0  0  0  0  0  0  0  0  0
   58.4024   34.8664   47.7896 H   0  0  0  0  0  0  0  0  0  0  0  0
   60.1086   35.4848   47.5965 H   0  0  0  0  0  0  0  0  0  0  0  0
   59.6090   31.7144   45.8016 H   0  0  0  0  0  0  0  0  0  0  0  0
   59.0594   32.1545   47.5103 H   0  0  0  0  0  0  0  0  0  0  0  0
  1  2  1  0
  2  3  1  0
  3  4  2  0
  3  5  2  0
  3  6  1  0
  6  7  1  0
  7  8  1  0
  8  9  1  0
 10  9  1  6
 10 11  1  0
 11 12  1  0
 12 13  1  0
 13 14  1  0
 14 15  1  0
 15 16  1  0
 16 17  1  0
 16 18  2  0
 15 19  1  0
 10 20  1  0
 20  6  1  0
 19 10  1  0
  1 21  1  0
  1 22  1  0
  1 23  1  0
  2 24  1  0
  2 25  1  0
  6 26  1  1
  7 27  1  0
  7 28  1  0
  8 29  1  0
  8 30  1  0
  9 31  1  0
  9 32  1  0
 11 33  1  0
 11 34  1  0
 13 35  1  0
 13 36  1  0
 14 37  1  0
 14 38  1  0
 17 39  1  0
 17 40  1  0
 17 41  1  0
 19 42  1  0
 19 43  1  0
 20 44  1  0
 20 45  1  0
M  CHG  1   6   1
M  END
>  <UniqueID>  (44) 
42

>  <SMILES>  (44) 
CCS(=O)(=O)[N@@H+]1CCC[C@]2(COCCN(C(C)=O)C2)C1

>  <Energy>  (44) 
57.113299309865816

>  <Genealogy>  (44) 
CCS(=O)(=O)[NH+]1CCCC2(COCCN(C(C)=O)C2)C1 (protonated)
CCS(=O)(=O)[N@@H+]1CCC[C@]2(COCCN(C(C)=O)C2)C1 (chirality)
CCS(=O)(=O)[N@@H+]1CCC[C@]2(COCCN(C(C)=O)C2)C1 (3D coordinates assigned)
CCS(=O)(=O)[N@@H+]1CCC[C@]2(COCCN(C(C)=O)C2)C1 (nonaromatic ring conformer: 57.113299309865816 kcal/mol)

>  <smiles>  (44) 
CCS(=O)(=O)N1CCCC2(COCCN(C(C)=O)C2)C1

>  <score_type>  (44) 
oracle

>  <origin>  (44) 
adg

>  <m_score__min__energy>  (44) 
-3.96

>  <m_primary>  (44) 
energy

$$$$
44:0
     RDKit          3D

 44 45  0  0  0  0  0  0  0  0999 V2000
   60.7540   26.3460   46.4190 C   0  0  0  0  0  0  0  0  0  0  0  0
   60.1650   27.4070   47.3450 C   0  0  0  0  0  0  0  0  0  0  0  0
   59.4340   28.4250   46.5570 N   0  0  0  0  0  0  0  0  0  0  0  0
   59.5430   29.7810   47.1480 C   0  0  0  0  0  0  0  0  0  0  0  0
   60.8210   30.5390   46.7550 C   0  0  0  0  0  0  0  0  0  0  0  0
   58.0430   28.0050   46.2610 C   0  0  0  0  0  0  0  0  0  0  0  0
   57.8490   27.7030   44.7670 C   0  0  0  0  0  0  0  0  0  0  0  0
   57.6140   28.8920   44.0160 O   0  0  0  0  0  0  0  0  0  0  0  0
   56.5300   29.7500   44.2440 C   0  0  0  0  0  0  0  0  0  0  0  0
   55.5090   29.3420   44.8630 O   0  0  0  0  0  0  0  0  0  0  0  0
   56.5720   31.1560   43.7240 C   0  0  2  0  0  0  0  0  0  0  0  0
   57.1530   31.1870   42.3090 C   0  0  0  0  0  0  0  0  0  0  0  0
   57.3830   32.0150   44.6510 C   0  0  0  0  0  0  0  0  0  0  0  0
   58.1630   33.1020   44.2640 C   0  0  0  0  0  0  0  0  0  0  0  0
   58.6700   33.5910   45.4460 C   0  0  0  0  0  0  0  0  0  0  0  0
   59.5000   34.6800   45.7010 C   0  0  0  0  0  0  0  0  0  0  0  0
   59.8340   34.9480   47.0420 C   0  0  0  0  0  0  0  0  0  0  0  0
   59.3340   34.1300   48.0810 C   0  0  0  0  0  0  0  0  0  0  0  0
   58.4950   33.0380   47.7870 C   0  0  0  0  0  0  0  0  0  0  0  0
   58.1840   32.7990   46.4520 C   0  0  0  0  0  0  0  0  0  0  0  0
   57.4150   31.8590   45.9640 O   0  0  0  0  0  0  0  0  0  0  0  0
   61.2008   25.5411   47.0210 H   0  0  0  0  0  0  0  0  0  0  0  0
   59.9575   25.9302   45.7843 H   0  0  0  0  0  0  0  0  0  0  0  0
   61.5281   26.8021   45.7843 H   0  0  0  0  0  0  0  0  0  0  0  0
   59.4716   26.9278   48.0518 H   0  0  0  0  0  0  0  0  0  0  0  0
   60.9822   27.8973   47.8944 H   0  0  0  0  0  0  0  0  0  0  0  0
   58.6761   30.3720   46.8176 H   0  0  0  0  0  0  0  0  0  0  0  0
   59.5774   29.6482   48.2394 H   0  0  0  0  0  0  0  0  0  0  0  0
   61.3540   30.8551   47.6639 H   0  0  0  0  0  0  0  0  0  0  0  0
   61.4700   29.8797   46.1599 H   0  0  0  0  0  0  0  0  0  0  0  0
   60.5537   31.4247   46.1599 H   0  0  0  0  0  0  0  0  0  0  0  0
   57.8125   27.0993   46.8411 H   0  0  0  0  0  0  0  0  0  0  0  0
   57.3688   28.8297   46.5356 H   0  0  0  0  0  0  0  0  0  0  0  0
   58.7544   27.2110   44.3820 H   0  0  0  0  0  0  0  0  0  0  0  0
   56.9704   27.0499   44.6599 H   0  0  0  0  0  0  0  0  0  0  0  0
   55.5470   31.5528   43.6789 H   0  0  0  0  0  0  0  0  0  0  0  0
   58.2500   31.2455   42.3643 H   0  0  0  0  0  0  0  0  0  0  0  0
   56.8612   30.2720   41.7727 H   0  0  0  0  0  0  0  0  0  0  0  0
   56.7655   32.0657   41.7727 H   0  0  0  0  0  0  0  0  0  0  0  0
   58.3345   33.4825   43.2463 H   0  0  0  0  0  0  0  0  0  0  0  0
   59.8813   35.3088   44.8829 H   0  0  0  0  0  0  0  0  0  0  0  0
   60.4880   35.7990   47.2829 H   0  0  0  0  0  0  0  0  0  0  0  0
   59.6020   34.3479   49.1254 H   0  0  0  0  0  0  0  0  0  0  0  0
   58.0984   32.3950   48.5865 H   0  0  0  0  0  0  0  0  0  0  0  0
  1  2  1  0
  2  3  1  0
  3  4  1  0
  4  5  1  0
  3  6  1  0
  6  7  1  0
  7  8  1  0
  8  9  1  0
  9 10  2  0
  9 11  1  0
 11 12  1  0
 11 13  1  0
 13 14  2  0
 14 15  1  0
 15 16  2  0
 16 17  1  0
 17 18  2  0
 18 19  1  0
 19 20  2  0
 20 21  1  0
 21 13  1  0
 20 15  1  0
  1 22  1  0
  1 23  1  0
  1 24  1  0
  2 25  1  0
  2 26  1  0
  4 27  1  0
  4 28  1  0
  5 29  1  0
  5 30  1  0
  5 31  1  0
  6 32  1  0
  6 33  1  0
  7 34  1  0
  7 35  1  0
 11 36  1  6
 12 37  1  0
 12 38  1  0
 12 39  1  0
 14 40  1  0
 16 41  1  0
 17 42  1  0
 18 43  1  0
 19 44  1  0
M  END
>  <UniqueID>  (45) 
43

>  <SMILES>  (45) 
CCN(CC)CCOC(=O)[C@H](C)c1cc2ccccc2o1

>  <Energy>  (45) 
69.00047156357154

>  <Genealogy>  (45) 
CCN(CC)CCOC(=O)[C@H](C)c1cc2ccccc2o1 (chirality)
CCN(CC)CCOC(=O)[C@H](C)c1cc2ccccc2o1 (3D coordinates assigned)
CCN(CC)CCOC(=O)[C@H](C)c1cc2ccccc2o1 (optimized conformer: 69.00047156357154 kcal/mol)

>  <smiles>  (45) 
CCN(CC)CCOC(=O)C(C)c1cc2ccccc2o1

>  <score_type>  (45) 
oracle

>  <origin>  (45) 
adg

>  <m_score__min__energy>  (45) 
-6.5300000000000002

>  <m_primary>  (45) 
energy

$$$$
45:0
     RDKit          3D

 40 41  0  0  0  0  0  0  0  0999 V2000
   57.5700   33.6750   46.4500 C   0  0  0  0  0  0  0  0  0  0  0  0
   58.9660   33.2270   46.3700 N   0  0  0  0  0  0  0  0  0  0  0  0
   59.2660   31.8330   46.0080 C   0  0  0  0  0  0  0  0  0  0  0  0
   58.3360   31.3340   44.9250 C   0  0  0  0  0  0  0  0  0  0  0  0
   58.1870   32.0490   43.7190 C   0  0  0  0  0  0  0  0  0  0  0  0
   58.8600   33.2110   43.5130 F   0  0  0  0  0  0  0  0  0  0  0  0
   57.3420   31.5710   42.7140 C   0  0  0  0  0  0  0  0  0  0  0  0
   56.6340   30.3810   42.8980 C   0  0  0  0  0  0  0  0  0  0  0  0
   56.7690   29.6670   44.0900 C   0  0  0  0  0  0  0  0  0  0  0  0
   57.6130   30.1360   45.1010 C   0  0  0  0  0  0  0  0  0  0  0  0
   57.7110   29.4290   46.2530 F   0  0  0  0  0  0  0  0  0  0  0  0
   60.0370   34.1730   46.5800 C   0  0  0  0  0  0  0  0  0  0  0  0
   60.0310   35.2720   45.9620 O   0  0  0  0  0  0  0  0  0  0  0  0
   61.1490   33.8930   47.5110 C   0  0  0  0  0  0  0  0  0  0  0  0
   61.0030   34.1380   48.8800 C   0  0  0  0  0  0  0  0  0  0  0  0
   62.0630   33.8940   49.7520 C   0  0  0  0  0  0  0  0  0  0  0  0
   63.2890   33.4140   49.2520 C   0  0  0  0  0  0  0  0  0  0  0  0
   64.4050   33.1550   50.1430 N   0  0  0  0  0  0  0  0  0  0  0  0
   65.2620   31.9790   49.9500 C   0  0  0  0  0  0  0  0  0  0  0  0
   64.6920   34.0690   51.2550 C   0  0  0  0  0  0  0  0  0  0  0  0
   63.4110   33.2040   47.9040 N   0  0  0  0  0  0  0  0  0  0  0  0
   62.3850   33.4370   47.0400 C   0  0  0  0  0  0  0  0  0  0  0  0
   57.2752   33.7696   47.5055 H   0  0  0  0  0  0  0  0  0  0  0  0
   57.4689   34.6507   45.9522 H   0  0  0  0  0  0  0  0  0  0  0  0
   56.9200   32.9403   45.9522 H   0  0  0  0  0  0  0  0  0  0  0  0
   60.3029   31.7721   45.6459 H   0  0  0  0  0  0  0  0  0  0  0  0
   59.1278   31.2052   46.9006 H   0  0  0  0  0  0  0  0  0  0  0  0
   57.2340   32.1336   41.7750 H   0  0  0  0  0  0  0  0  0  0  0  0
   55.9706   30.0068   42.1043 H   0  0  0  0  0  0  0  0  0  0  0  0
   56.2089   28.7314   44.2344 H   0  0  0  0  0  0  0  0  0  0  0  0
   60.0496   34.5241   49.2697 H   0  0  0  0  0  0  0  0  0  0  0  0
   61.9419   34.0763   50.8300 H   0  0  0  0  0  0  0  0  0  0  0  0
   65.5564   31.5750   50.9299 H   0  0  0  0  0  0  0  0  0  0  0  0
   64.7101   31.2114   49.3877 H   0  0  0  0  0  0  0  0  0  0  0  0
   66.1618   32.2693   49.3877 H   0  0  0  0  0  0  0  0  0  0  0  0
   64.5283   33.5477   52.2097 H   0  0  0  0  0  0  0  0  0  0  0  0
   65.7383   34.4031   51.1943 H   0  0  0  0  0  0  0  0  0  0  0  0
   64.0245   34.9412   51.1943 H   0  0  0  0  0  0  0  0  0  0  0  0
   64.3040   32.8480   47.4970 H   0  0  0  0  0  0  0  0  0  0  0  0
   62.5289   33.2654   45.9630 H   0  0  0  0  0  0  0  0  0  0  0  0
  1  2  1  0
  2  3  1  0
  3  4  1  0
  4  5  2  0
  5  6  1  0
  5  7  1  0
  7  8  2  0
  8  9  1  0
  9 10  2  0
 10 11  1  0
  2 12  1  0
 12 13  2  0
 12 14  1  0
 14 15  2  0
 15 16  1  0
 16 17  2  0
 17 18  1  0
 18 19  1  0
 18 20  1  0
 17 21  1  0
 21 22  2  0
 10  4  1  0
 22 14  1  0
  1 23  1  0
  1 24  1  0
  1 25  1  0
  3 26  1  0
  3 27  1  0
  7 28  1  0
  8 29  1  0
  9 30  1  0
 15 31  1  0
 16 32  1  0
 19 33  1  0
 19 34  1  0
 19 35  1  0
 20 36  1  0
 20 37  1  0
 20 38  1  0
 21 39  1  0
 22 40  1  0
M  CHG  1  21   1
M  END
>  <UniqueID>  (46) 
44

>  <SMILES>  (46) 
CN(Cc1c(F)cccc1F)C(=O)c1ccc(N(C)C)[nH+]c1

>  <Energy>  (46) 
46.87371551801847

>  <Genealogy>  (46) 
CN(Cc1c(F)cccc1F)C(=O)c1ccc(N(C)C)[nH+]c1 (protonated)
CN(Cc1c(F)cccc1F)C(=O)c1ccc(N(C)C)[nH+]c1 (3D coordinates assigned)
CN(Cc1c(F)cccc1F)C(=O)c1ccc(N(C)C)[nH+]c1 (optimized conformer: 46.87371551801847 kcal/mol)

>  <smiles>  (46) 
CN(Cc1c(F)cccc1F)C(=O)c1ccc(N(C)C)nc1

>  <score_type>  (46) 
oracle

>  <origin>  (46) 
adg

>  <m_score__min__energy>  (46) 
-5.1200000000000001

>  <m_primary>  (46) 
energy

$$$$
46:0
     RDKit          3D

 57 60  0  0  0  0  0  0  0  0999 V2000
   55.9880   22.2270   42.6100 N   0  0  0  0  0  0  0  0  0  0  0  0
   56.9210   22.0660   43.4960 C   0  0  0  0  0  0  0  0  0  0  0  0
   57.3810   20.7440   43.8050 N   0  0  0  0  0  0  0  0  0  0  0  0
   57.5070   23.2550   44.1660 C   0  0  0  0  0  0  0  0  0  0  0  0
   58.3580   23.1130   45.2770 C   0  0  0  0  0  0  0  0  0  0  0  0
   58.9020   24.2370   45.9060 C   0  0  0  0  0  0  0  0  0  0  0  0
   58.6030   25.5300   45.4430 C   0  0  0  0  0  0  0  0  0  0  0  0
   59.1790   26.7230   46.1140 C   0  0  0  0  0  0  0  0  0  0  0  0
   59.6870   27.7930   45.3570 C   0  0  0  0  0  0  0  0  0  0  0  0
   60.2330   28.9140   45.9880 C   0  0  0  0  0  0  0  0  0  0  0  0
   60.2810   28.9890   47.3880 C   0  0  0  0  0  0  0  0  0  0  0  0
   60.8600   30.1690   48.0610 C   0  0  0  0  0  0  0  0  0  0  0  0
   60.4110   30.6610   49.2370 N   0  0  0  0  0  0  0  0  0  0  0  0
   61.2110   31.7200   49.4660 C   0  0  0  0  0  0  0  0  0  0  0  0
   61.0810   32.5840   50.6500 C   0  0  0  0  0  0  0  0  0  0  0  0
   61.6120   33.7270   50.6640 O   0  0  0  0  0  0  0  0  0  0  0  0
   60.3890   32.0870   51.8020 N   0  0  0  0  0  0  0  0  0  0  0  0
   59.0530   31.5630   51.8440 C   0  0  0  0  0  0  0  0  0  0  0  0
   57.9840   32.4610   51.9250 C   0  0  0  0  0  0  0  0  0  0  0  0
   56.6690   31.9940   51.9930 C   0  0  0  0  0  0  0  0  0  0  0  0
   56.4010   30.6140   51.9970 C   0  0  0  0  0  0  0  0  0  0  0  0
   55.0070   30.1120   52.0730 C   0  0  0  0  0  0  0  0  0  0  0  0
   53.9190   30.9660   51.7000 N   0  0  0  0  0  0  0  0  0  0  0  0
   54.7600   28.9030   52.4820 N   0  0  0  0  0  0  0  0  0  0  0  0
   57.4770   29.7140   51.9470 C   0  0  0  0  0  0  0  0  0  0  0  0
   58.7930   30.1820   51.8740 C   0  0  0  0  0  0  0  0  0  0  0  0
   62.1160   31.8300   48.4250 C   0  0  0  0  0  0  0  0  0  0  0  0
   63.1920   32.8690   48.2480 C   0  0  0  0  0  0  0  0  0  0  0  0
   62.6750   34.2220   48.4430 N   0  0  0  0  0  0  0  0  0  0  0  0
   61.8690   30.8610   47.5780 O   0  0  0  0  0  0  0  0  0  0  0  0
   59.7730   27.9240   48.1480 C   0  0  0  0  0  0  0  0  0  0  0  0
   59.2280   26.8020   47.5170 C   0  0  0  0  0  0  0  0  0  0  0  0
   57.7460   25.6740   44.3400 C   0  0  0  0  0  0  0  0  0  0  0  0
   57.2030   24.5500   43.7090 C   0  0  0  0  0  0  0  0  0  0  0  0
   56.1800   22.6680   41.6820 H   0  0  0  0  0  0  0  0  0  0  0  0
   58.2380   20.5840   44.3780 H   0  0  0  0  0  0  0  0  0  0  0  0
   56.9090   19.9090   43.3910 H   0  0  0  0  0  0  0  0  0  0  0  0
   58.5978   22.1080   45.6546 H   0  0  0  0  0  0  0  0  0  0  0  0
   59.5697   24.1083   46.7706 H   0  0  0  0  0  0  0  0  0  0  0  0
   59.6545   27.7475   44.2584 H   0  0  0  0  0  0  0  0  0  0  0  0
   60.6279   29.7433   45.3827 H   0  0  0  0  0  0  0  0  0  0  0  0
   58.1800   33.5433   51.9352 H   0  0  0  0  0  0  0  0  0  0  0  0
   55.8369   32.7117   52.0438 H   0  0  0  0  0  0  0  0  0  0  0  0
   52.9310   30.6400   51.7820 H   0  0  0  0  0  0  0  0  0  0  0  0
   54.0920   31.9090   51.2870 H   0  0  0  0  0  0  0  0  0  0  0  0
   55.1080   28.5710   53.4100 H   0  0  0  0  0  0  0  0  0  0  0  0
   54.2330   28.2200   51.8920 H   0  0  0  0  0  0  0  0  0  0  0  0
   57.2836   28.6313   51.9654 H   0  0  0  0  0  0  0  0  0  0  0  0
   59.6278   29.4665   51.8399 H   0  0  0  0  0  0  0  0  0  0  0  0
   63.9906   32.6835   48.9814 H   0  0  0  0  0  0  0  0  0  0  0  0
   63.5754   32.7936   47.2197 H   0  0  0  0  0  0  0  0  0  0  0  0
   61.6350   34.1760   48.5480 H   0  0  0  0  0  0  0  0  0  0  0  0
   63.0720   34.6130   49.3300 H   0  0  0  0  0  0  0  0  0  0  0  0
   59.8039   27.9725   49.2465 H   0  0  0  0  0  0  0  0  0  0  0  0
   58.8339   25.9733   48.1236 H   0  0  0  0  0  0  0  0  0  0  0  0
   57.4995   26.6797   43.9689 H   0  0  0  0  0  0  0  0  0  0  0  0
   56.5319   24.6801   42.8472 H   0  0  0  0  0  0  0  0  0  0  0  0
  1  2  2  3
  2  3  1  0
  2  4  1  0
  4  5  2  0
  5  6  1  0
  6  7  2  0
  7  8  1  0
  8  9  2  0
  9 10  1  0
 10 11  2  0
 11 12  1  0
 12 13  2  0
 13 14  1  0
 14 15  1  0
 15 16  2  0
 15 17  1  0
 17 18  1  0
 18 19  2  0
 19 20  1  0
 20 21  2  0
 21 22  1  0
 22 23  1  0
 22 24  2  0
 21 25  1  0
 25 26  2  0
 14 27  2  0
 27 28  1  0
 28 29  1  0
 27 30  1  0
 11 31  1  0
 31 32  2  0
  7 33  1  0
 33 34  2  0
 34  4  1  0
 32  8  1  0
 30 12  1  0
 26 18  1  0
  1 35  1  0
  3 36  1  0
  3 37  1  0
  5 38  1  0
  6 39  1  0
  9 40  1  0
 10 41  1  0
 19 42  1  0
 20 43  1  0
 23 44  1  0
 23 45  1  0
 24 46  1  0
 24 47  1  0
 25 48  1  0
 26 49  1  0
 28 50  1  0
 28 51  1  0
 29 52  1  0
 29 53  1  0
 31 54  1  0
 32 55  1  0
 33 56  1  0
 34 57  1  0
M  CHG  2  17  -1  24   1
M  END
>  <UniqueID>  (47) 
45

>  <SMILES>  (47) 
N=C(N)c1ccc(-c2ccc(-c3nc(C(=O)[N-]c4ccc(C(N)=[NH2+])cc4)c(CN)o3)cc2)cc1

>  <Energy>  (47) 
102.589719412444

>  <Genealogy>  (47) 
N=C(N)c1ccc(-c2ccc(-c3nc(C(=O)[N-]c4ccc(C(N)=[NH2+])cc4)c(CN)o3)cc2)cc1 (protonated)
N=C(N)c1ccc(-c2ccc(-c3nc(C(=O)[N-]c4ccc(C(N)=[NH2+])cc4)c(CN)o3)cc2)cc1 (3D coordinates assigned)
N=C(N)c1ccc(-c2ccc(-c3nc(C(=O)[N-]c4ccc(C(N)=[NH2+])cc4)c(CN)o3)cc2)cc1 (optimized conformer: 102.589719412444 kcal/mol)

>  <smiles>  (47) 
N=C(N)c1ccc(NC(=O)c2nc(-c3ccc(-c4ccc(C(=N)N)cc4)cc3)oc2CN)cc1

>  <score_type>  (47) 
oracle

>  <origin>  (47) 
adg

>  <m_score__min__energy>  (47) 
-8.3100000000000005

>  <m_primary>  (47) 
energy

$$$$
47:0
     RDKit          3D

 35 36  0  0  0  0  0  0  0  0999 V2000
   60.8899   31.5524   47.6387 H   0  0  0  0  0  0  0  0  0  0  0  0
   60.3480   30.6020   47.5240 C   0  0  0  0  0  0  0  0  0  0  0  0
   60.7960   29.6490   46.6060 C   0  0  0  0  0  0  0  0  0  0  0  0
   61.6945   29.8473   46.0032 H   0  0  0  0  0  0  0  0  0  0  0  0
   60.1040   28.4430   46.4520 C   0  0  0  0  0  0  0  0  0  0  0  0
   60.4663   27.6892   45.7375 H   0  0  0  0  0  0  0  0  0  0  0  0
   58.9450   28.1930   47.2100 C   0  0  0  0  0  0  0  0  0  0  0  0
   58.1960   26.9770   47.0660 N   0  0  0  0  0  0  0  0  0  0  0  0
   56.9870   26.8110   46.3110 C   0  0  0  0  0  0  0  0  0  0  0  0
   56.0820   26.0660   46.7680 O   0  0  0  0  0  0  0  0  0  0  0  0
   56.7820   27.4540   45.0440 N   0  0  0  0  0  0  0  0  0  0  0  0
   56.7630   28.7370   44.8310 C   0  0  0  0  0  0  0  0  0  0  0  0
   55.6230   29.4580   44.8850 N   0  0  0  0  0  0  0  0  0  0  0  0
   55.8120   30.7550   44.6410 N   0  0  0  0  0  0  0  0  0  0  0  0
   57.1030   31.0760   44.3970 C   0  0  0  0  0  0  0  0  0  0  0  0
   57.5460   32.4160   44.0910 N   0  0  0  0  0  0  0  0  0  0  0  0
   57.3410   33.5080   45.0560 C   0  0  0  0  0  0  0  0  0  0  0  0
   56.8933   33.0992   45.9739 H   0  0  0  0  0  0  0  0  0  0  0  0
   56.6727   34.2567   44.6056 H   0  0  0  0  0  0  0  0  0  0  0  0
   58.6680   34.1800   45.4020 C   0  0  0  0  0  0  0  0  0  0  0  0
   58.7770   34.2352   46.4952 H   0  0  0  0  0  0  0  0  0  0  0  0
   59.4972   33.5932   44.9800 H   0  0  0  0  0  0  0  0  0  0  0  0
   58.6857   35.1957   44.9800 H   0  0  0  0  0  0  0  0  0  0  0  0
   58.1570   32.6980   42.7840 C   0  0  0  0  0  0  0  0  0  0  0  0
   58.1297   33.7820   42.5990 H   0  0  0  0  0  0  0  0  0  0  0  0
   59.1966   32.3386   42.7947 H   0  0  0  0  0  0  0  0  0  0  0  0
   57.4020   31.9810   41.6700 C   0  0  0  0  0  0  0  0  0  0  0  0
   56.6711   31.2868   42.1103 H   0  0  0  0  0  0  0  0  0  0  0  0
   56.8767   32.7207   41.0480 H   0  0  0  0  0  0  0  0  0  0  0  0
   58.1136   31.4182   41.0480 H   0  0  0  0  0  0  0  0  0  0  0  0
   58.0990   29.7170   44.5010 S   0  0  0  0  0  0  0  0  0  0  0  0
   58.5180   29.1430   48.1470 C   0  0  0  0  0  0  0  0  0  0  0  0
   57.6330   28.9398   48.7679 H   0  0  0  0  0  0  0  0  0  0  0  0
   59.2110   30.3480   48.2970 C   0  0  0  0  0  0  0  0  0  0  0  0
   58.8616   31.0965   49.0234 H   0  0  0  0  0  0  0  0  0  0  0  0
  1  2  1  0
  2  3  2  0
  3  4  1  0
  3  5  1  0
  5  6  1  0
  5  7  2  0
  7  8  1  0
  8  9  1  0
  9 10  2  0
  9 11  1  0
 11 12  2  0
 12 13  1  0
 13 14  1  0
 14 15  2  0
 15 16  1  0
 16 17  1  0
 17 18  1  0
 17 19  1  0
 17 20  1  0
 20 21  1  0
 20 22  1  0
 20 23  1  0
 16 24  1  0
 24 25  1  0
 24 26  1  0
 24 27  1  0
 27 28  1  0
 27 29  1  0
 27 30  1  0
 15 31  1  0
  7 32  1  0
 32 33  1  0
 32 34  2  0
 34 35  1  0
 34  2  1  0
 31 12  1  0
M  CHG  2   8  -1  13  -1
M  END
>  <UniqueID>  (48) 
46

>  <SMILES>  (48) 
CCN(CC)c1n[n-]/c(=N/C(=O)[N-]c2ccccc2)s1

>  <Energy>  (48) 
71.14276151947124

>  <Genealogy>  (48) 
CCN(CC)c1n[n-]c(=NC(=O)[N-]c2ccccc2)s1 (protonated)
CCN(CC)c1n[n-]/c(=N/C(=O)[N-]c2ccccc2)s1 (cis-trans isomerization)
CCN(CC)c1n[n-]/c(=N/C(=O)[N-]c2ccccc2)s1 (3D coordinates assigned)
CCN(CC)c1n[n-]/c(=N/C(=O)[N-]c2ccccc2)s1 (optimized conformer: 71.14276151947124 kcal/mol)

>  <smiles>  (48) 
CCN(CC)c1n[nH]c(=NC(=O)Nc2ccccc2)s1

>  <score_type>  (48) 
oracle

>  <origin>  (48) 
adg

>  <m_score__min__energy>  (48) 
-9.9499999999999993

>  <m_primary>  (48) 
energy

$$$$
48:0
     RDKit          3D

 43 45  0  0  0  0  0  0  0  0999 V2000
   59.3760   29.3000   48.7210 C   0  0  0  0  0  0  0  0  0  0  0  0
   59.8510   27.9130   48.2950 C   0  0  0  0  0  0  0  0  0  0  0  0
   58.9000   27.3080   47.2980 C   0  0  0  0  0  0  0  0  0  0  0  0
   58.9720   25.9400   46.9910 C   0  0  0  0  0  0  0  0  0  0  0  0
   58.0560   25.3700   46.1050 C   0  0  0  0  0  0  0  0  0  0  0  0
   57.0620   26.1570   45.5160 C   0  0  0  0  0  0  0  0  0  0  0  0
   56.9860   27.5310   45.8040 C   0  0  0  0  0  0  0  0  0  0  0  0
   55.9660   28.3740   45.2470 N   0  0  0  0  0  0  0  0  0  0  0  0
   56.1470   29.6630   44.6480 C   0  0  0  0  0  0  0  0  0  0  0  0
   55.1690   30.4380   44.4720 O   0  0  0  0  0  0  0  0  0  0  0  0
   57.4970   30.0510   44.1350 C   0  0  0  0  0  0  0  0  0  0  0  0
   58.0410   31.1650   44.9270 N   0  0  0  0  0  0  0  0  0  0  0  0
   57.3850   32.3750   44.9170 C   0  0  0  0  0  0  0  0  0  0  0  0
   57.8680   33.4370   45.6240 N   0  0  0  0  0  0  0  0  0  0  0  0
   59.0120   33.2910   46.3300 C   0  0  0  0  0  0  0  0  0  0  0  0
   59.7970   34.4550   47.2500 S   0  0  0  0  0  0  0  0  0  0  0  0
   61.0590   33.4200   47.7080 C   0  0  0  0  0  0  0  0  0  0  0  0
   62.2370   33.8250   48.5380 C   0  0  0  0  0  0  0  0  0  0  0  0
   63.5400   33.4330   47.8510 C   0  0  0  0  0  0  0  0  0  0  0  0
   60.8780   32.1640   47.1240 C   0  0  0  0  0  0  0  0  0  0  0  0
   59.7110   32.1060   46.3530 C   0  0  0  0  0  0  0  0  0  0  0  0
   59.2160   31.0200   45.6300 C   0  0  0  0  0  0  0  0  0  0  0  0
   59.8470   29.9260   45.6230 O   0  0  0  0  0  0  0  0  0  0  0  0
   57.8930   28.0930   46.7130 C   0  0  0  0  0  0  0  0  0  0  0  0
   59.3557   29.3593   49.8192 H   0  0  0  0  0  0  0  0  0  0  0  0
   60.0647   30.0610   48.3254 H   0  0  0  0  0  0  0  0  0  0  0  0
   58.3653   29.4790   48.3254 H   0  0  0  0  0  0  0  0  0  0  0  0
   60.8479   27.9974   47.8378 H   0  0  0  0  0  0  0  0  0  0  0  0
   59.8919   27.2650   49.1829 H   0  0  0  0  0  0  0  0  0  0  0  0
   59.7525   25.3154   47.4499 H   0  0  0  0  0  0  0  0  0  0  0  0
   58.1166   24.2972   45.8694 H   0  0  0  0  0  0  0  0  0  0  0  0
   56.3377   25.7002   44.8256 H   0  0  0  0  0  0  0  0  0  0  0  0
   58.1752   29.1881   44.2082 H   0  0  0  0  0  0  0  0  0  0  0  0
   57.4045   30.3683   43.0858 H   0  0  0  0  0  0  0  0  0  0  0  0
   56.4602   32.4870   44.3319 H   0  0  0  0  0  0  0  0  0  0  0  0
   57.3620   34.3510   45.6130 H   0  0  0  0  0  0  0  0  0  0  0  0
   62.2189   34.9153   48.6830 H   0  0  0  0  0  0  0  0  0  0  0  0
   62.1799   33.3101   49.5084 H   0  0  0  0  0  0  0  0  0  0  0  0
   64.3010   33.2040   48.6115 H   0  0  0  0  0  0  0  0  0  0  0  0
   63.3709   32.5460   47.2229 H   0  0  0  0  0  0  0  0  0  0  0  0
   63.8884   34.2661   47.2229 H   0  0  0  0  0  0  0  0  0  0  0  0
   61.5710   31.3198   47.2546 H   0  0  0  0  0  0  0  0  0  0  0  0
   57.8153   29.1596   46.9707 H   0  0  0  0  0  0  0  0  0  0  0  0
  1  2  1  0
  2  3  1  0
  3  4  2  0
  4  5  1  0
  5  6  2  0
  6  7  1  0
  7  8  1  0
  8  9  1  0
  9 10  2  0
  9 11  1  0
 11 12  1  0
 12 13  1  0
 13 14  2  0
 14 15  1  0
 15 16  1  0
 16 17  1  0
 17 18  1  0
 18 19  1  0
 17 20  2  0
 20 21  1  0
 21 22  1  0
 22 23  2  0
  7 24  2  0
 24  3  1  0
 22 12  1  0
 21 15  2  0
  1 25  1  0
  1 26  1  0
  1 27  1  0
  2 28  1  0
  2 29  1  0
  4 30  1  0
  5 31  1  0
  6 32  1  0
 11 33  1  0
 11 34  1  0
 13 35  1  0
 14 36  1  0
 18 37  1  0
 18 38  1  0
 19 39  1  0
 19 40  1  0
 19 41  1  0
 20 42  1  0
 24 43  1  0
M  CHG  2   8  -1  14   1
M  END
>  <UniqueID>  (49) 
47

>  <SMILES>  (49) 
CCc1cccc([N-]C(=O)Cn2c[nH+]c3sc(CC)cc3c2=O)c1

>  <Energy>  (49) 
73.8801244184873

>  <Genealogy>  (49) 
CCc1cccc([N-]C(=O)Cn2c[nH+]c3sc(CC)cc3c2=O)c1 (protonated)
CCc1cccc([N-]C(=O)Cn2c[nH+]c3sc(CC)cc3c2=O)c1 (3D coordinates assigned)
CCc1cccc([N-]C(=O)Cn2c[nH+]c3sc(CC)cc3c2=O)c1 (optimized conformer: 73.8801244184873 kcal/mol)

>  <smiles>  (49) 
CCc1cccc(NC(=O)Cn2cnc3sc(CC)cc3c2=O)c1

>  <score_type>  (49) 
oracle

>  <origin>  (49) 
adg

>  <m_score__min__energy>  (49) 
-8.0899999999999999

>  <m_primary>  (49) 
energy

$$$$
