0:0
     RDKit          3D

 63 66  0  0  0  0  0  0  0  0999 V2000
   59.8900   33.7940   49.5000 C   0  0  0  0  0  0  0  0  0  0  0  0
   60.7640   34.1880   48.3350 C   0  0  0  0  0  0  0  0  0  0  0  0
   62.2030   34.0250   48.7370 C   0  0  0  0  0  0  0  0  0  0  0  0
   60.4020   33.4050   47.1920 N   0  0  0  0  0  0  0  0  0  0  0  0
   59.9890   34.2040   46.0630 C   0  0  0  0  0  0  0  0  0  0  0  0
   58.5590   34.6650   46.2460 C   0  0  0  0  0  0  0  0  0  0  0  0
   57.7400   33.3620   46.1800 C   0  0  0  0  0  0  0  0  0  0  0  0
   57.8510   32.7610   44.9330 O   0  0  0  0  0  0  0  0  0  0  0  0
   57.7520   31.4260   44.6320 C   0  0  0  0  0  0  0  0  0  0  0  0
   56.6430   30.7870   44.1470 C   0  0  0  0  0  0  0  0  0  0  0  0
   56.6170   29.4230   43.8590 C   0  0  0  0  0  0  0  0  0  0  0  0
   57.7470   28.6600   44.0610 C   0  0  0  0  0  0  0  0  0  0  0  0
   57.8350   27.2430   43.7620 C   0  0  0  0  0  0  0  0  0  0  0  0
   58.3870   26.9570   42.6400 O   0  0  0  0  0  0  0  0  0  0  0  0
   57.3780   26.1960   44.5800 N   0  0  0  0  0  0  0  0  0  0  0  0
   56.7310   26.3480   45.8640 C   0  0  0  0  0  0  0  0  0  0  0  0
   56.1000   25.0270   46.2690 C   0  0  0  0  0  0  0  0  0  0  0  0
   57.0190   23.9340   46.2850 N   0  0  0  0  0  0  0  0  0  0  0  0
   56.3100   22.6990   46.0270 C   0  0  0  0  0  0  0  0  0  0  0  0
   56.5190   22.2440   44.6320 C   0  0  0  0  0  0  0  0  0  0  0  0
   57.4970   21.3090   44.3010 C   0  0  0  0  0  0  0  0  0  0  0  0
   57.4190   21.1190   42.9260 C   0  0  0  0  0  0  0  0  0  0  0  0
   56.4310   21.9210   42.4950 N   0  0  0  0  0  0  0  0  0  0  0  0
   55.8910   22.5920   43.5000 N   0  0  0  0  0  0  0  0  0  0  0  0
   58.1220   24.0880   45.3520 C   0  0  0  0  0  0  0  0  0  0  0  0
   57.5640   24.8080   44.1250 C   0  0  0  0  0  0  0  0  0  0  0  0
   58.8820   29.2920   44.5530 C   0  0  0  0  0  0  0  0  0  0  0  0
   58.8970   30.6530   44.8380 C   0  0  0  0  0  0  0  0  0  0  0  0
   58.1320   32.4420   47.2960 C   0  0  0  0  0  0  0  0  0  0  0  0
   59.6190   32.2580   47.4260 C   0  0  0  0  0  0  0  0  0  0  0  0
   60.4076   34.0274   50.4421 H   0  0  0  0  0  0  0  0  0  0  0  0
   58.9435   34.3525   49.4536 H   0  0  0  0  0  0  0  0  0  0  0  0
   59.6817   32.7149   49.4536 H   0  0  0  0  0  0  0  0  0  0  0  0
   60.6197   35.2425   48.0572 H   0  0  0  0  0  0  0  0  0  0  0  0
   62.2784   34.0165   49.8344 H   0  0  0  0  0  0  0  0  0  0  0  0
   62.5908   33.0772   48.3354 H   0  0  0  0  0  0  0  0  0  0  0  0
   62.7930   34.8621   48.3354 H   0  0  0  0  0  0  0  0  0  0  0  0
   60.6462   35.0821   45.9791 H   0  0  0  0  0  0  0  0  0  0  0  0
   60.0567   33.5964   45.1485 H   0  0  0  0  0  0  0  0  0  0  0  0
   58.4288   35.1605   47.2194 H   0  0  0  0  0  0  0  0  0  0  0  0
   58.2494   35.4002   45.4886 H   0  0  0  0  0  0  0  0  0  0  0  0
   56.6760   33.6067   46.3145 H   0  0  0  0  0  0  0  0  0  0  0  0
   55.7302   31.3767   43.9766 H   0  0  0  0  0  0  0  0  0  0  0  0
   55.6984   28.9577   43.4721 H   0  0  0  0  0  0  0  0  0  0  0  0
   57.4752   26.6457   46.6173 H   0  0  0  0  0  0  0  0  0  0  0  0
   55.9523   27.1218   45.7944 H   0  0  0  0  0  0  0  0  0  0  0  0
   55.6760   25.1393   47.2778 H   0  0  0  0  0  0  0  0  0  0  0  0
   55.3334   24.7921   45.5159 H   0  0  0  0  0  0  0  0  0  0  0  0
   56.6764   21.9239   46.7162 H   0  0  0  0  0  0  0  0  0  0  0  0
   55.2350   22.8755   46.1791 H   0  0  0  0  0  0  0  0  0  0  0  0
   58.1956   20.8164   44.9933 H   0  0  0  0  0  0  0  0  0  0  0  0
   58.0403   20.4480   42.3147 H   0  0  0  0  0  0  0  0  0  0  0  0
   56.1560   21.9770   41.4830 H   0  0  0  0  0  0  0  0  0  0  0  0
   58.9245   24.6853   45.8094 H   0  0  0  0  0  0  0  0  0  0  0  0
   58.5467   23.1111   45.0776 H   0  0  0  0  0  0  0  0  0  0  0  0
   58.2762   24.7631   43.2879 H   0  0  0  0  0  0  0  0  0  0  0  0
   56.6320   24.3551   43.7560 H   0  0  0  0  0  0  0  0  0  0  0  0
   59.7935   28.6999   44.7217 H   0  0  0  0  0  0  0  0  0  0  0  0
   59.8129   31.1220   45.2267 H   0  0  0  0  0  0  0  0  0  0  0  0
   57.7484   32.8562   48.2400 H   0  0  0  0  0  0  0  0  0  0  0  0
   57.7020   31.4553   47.0688 H   0  0  0  0  0  0  0  0  0  0  0  0
   59.8277   31.9099   48.4484 H   0  0  0  0  0  0  0  0  0  0  0  0
   59.9004   31.5395   46.6420 H   0  0  0  0  0  0  0  0  0  0  0  0
  1  2  1  0
  2  3  1  0
  2  4  1  0
  4  5  1  0
  5  6  1  0
  6  7  1  0
  7  8  1  0
  8  9  1  0
  9 10  2  0
 10 11  1  0
 11 12  2  0
 12 13  1  0
 13 14  2  0
 13 15  1  0
 15 16  1  0
 16 17  1  0
 17 18  1  0
 18 19  1  0
 19 20  1  0
 20 21  1  0
 21 22  2  0
 22 23  1  0
 23 24  1  0
 18 25  1  0
 25 26  1  0
 12 27  1  0
 27 28  2  0
  7 29  1  0
 29 30  1  0
 30  4  1  0
 28  9  1  0
 26 15  1  0
 24 20  2  0
  1 31  1  0
  1 32  1  0
  1 33  1  0
  2 34  1  0
  3 35  1  0
  3 36  1  0
  3 37  1  0
  5 38  1  0
  5 39  1  0
  6 40  1  0
  6 41  1  0
  7 42  1  0
 10 43  1  0
 11 44  1  0
 16 45  1  0
 16 46  1  0
 17 47  1  0
 17 48  1  0
 19 49  1  0
 19 50  1  0
 21 51  1  0
 22 52  1  0
 23 53  1  0
 25 54  1  0
 25 55  1  0
 26 56  1  0
 26 57  1  0
 27 58  1  0
 28 59  1  0
 29 60  1  0
 29 61  1  0
 30 62  1  0
 30 63  1  0
M  END
>  <smiles>  (1) 
CC(C)N1CCC(Oc2ccc(C(=O)N3CCN(Cc4cc[nH]n4)CC3)cc2)CC1

>  <score_type>  (1) 
oracle

>  <origin>  (1) 
adg

>  <m_score__min__energy>  (1) 
-8.9299999999999997

>  <m_primary>  (1) 
energy

$$$$
1:0
     RDKit          3D

 72 75  0  0  0  0  0  0  0  0999 V2000
   54.1593   30.0798   44.4706 H   0  0  0  0  0  0  0  0  0  0  0  0
   55.2370   29.8620   44.5040 C   0  0  0  0  0  0  0  0  0  0  0  0
   55.6700   28.6510   44.9270 N   0  0  0  0  0  0  0  0  0  0  0  0
   56.9900   28.3550   45.0340 C   0  0  0  0  0  0  0  0  0  0  0  0
   57.3620   27.0970   45.5220 C   0  0  0  0  0  0  0  0  0  0  0  0
   56.5906   26.3424   45.7353 H   0  0  0  0  0  0  0  0  0  0  0  0
   58.7060   26.7960   45.7390 C   0  0  0  0  0  0  0  0  0  0  0  0
   59.1660   25.2240   46.3680 Cl  0  0  0  0  0  0  0  0  0  0  0  0
   59.6790   27.7640   45.5060 C   0  0  0  0  0  0  0  0  0  0  0  0
   60.7349   27.5397   45.7177 H   0  0  0  0  0  0  0  0  0  0  0  0
   59.3220   29.0210   45.0040 C   0  0  0  0  0  0  0  0  0  0  0  0
   60.0986   29.7853   44.8531 H   0  0  0  0  0  0  0  0  0  0  0  0
   57.9760   29.3220   44.6880 C   0  0  0  0  0  0  0  0  0  0  0  0
   57.5280   30.5570   44.1130 C   0  0  0  0  0  0  0  0  0  0  0  0
   58.2770   31.4200   43.4740 N   0  0  0  0  0  0  0  0  0  0  0  0
   58.1290   32.8570   43.2730 C   0  0  0  0  0  0  0  0  0  0  0  0
   57.5145   33.0373   42.3787 H   0  0  0  0  0  0  0  0  0  0  0  0
   59.1249   33.3052   43.1413 H   0  0  0  0  0  0  0  0  0  0  0  0
   57.4520   33.4940   44.4880 C   0  0  0  0  0  0  0  0  0  0  0  0
   56.3987   33.1773   44.5026 H   0  0  0  0  0  0  0  0  0  0  0  0
   57.5655   34.5829   44.3810 H   0  0  0  0  0  0  0  0  0  0  0  0
   58.0930   33.1090   45.8370 C   0  0  0  0  0  0  0  0  0  0  0  0
   57.5992   32.1973   46.2045 H   0  0  0  0  0  0  0  0  0  0  0  0
   57.9562   33.9712   46.5063 H   0  0  0  0  0  0  0  0  0  0  0  0
   59.5570   32.8510   45.7720 N   0  0  0  0  0  0  0  0  0  0  0  0
   60.2860   34.1170   46.0420 C   0  0  0  0  0  0  0  0  0  0  0  0
   60.5926   34.5738   45.0895 H   0  0  0  0  0  0  0  0  0  0  0  0
   61.1773   33.9041   46.6504 H   0  0  0  0  0  0  0  0  0  0  0  0
   59.3740   35.0780   46.7960 C   0  0  0  0  0  0  0  0  0  0  0  0
   59.5078   34.9371   47.8787 H   0  0  0  0  0  0  0  0  0  0  0  0
   59.6296   36.1135   46.5267 H   0  0  0  0  0  0  0  0  0  0  0  0
   58.3266   34.8769   46.5267 H   0  0  0  0  0  0  0  0  0  0  0  0
   59.9370   31.7540   46.6960 C   0  0  0  0  0  0  0  0  0  0  0  0
   60.2515   30.8880   46.0950 H   0  0  0  0  0  0  0  0  0  0  0  0
   60.7450   32.1397   47.3350 H   0  0  0  0  0  0  0  0  0  0  0  0
   58.8000   31.3070   47.6330 C   0  0  0  0  0  0  0  0  0  0  0  0
   58.8156   31.9519   48.5240 H   0  0  0  0  0  0  0  0  0  0  0  0
   57.8674   31.3927   47.0560 H   0  0  0  0  0  0  0  0  0  0  0  0
   58.8940   29.8390   48.0990 C   0  0  0  0  0  0  0  0  0  0  0  0
   58.1635   29.6972   48.9091 H   0  0  0  0  0  0  0  0  0  0  0  0
   58.7002   29.2335   47.2013 H   0  0  0  0  0  0  0  0  0  0  0  0
   60.2860   29.3680   48.6260 C   0  0  0  0  0  0  0  0  0  0  0  0
   60.5659   28.4748   48.0482 H   0  0  0  0  0  0  0  0  0  0  0  0
   60.9316   30.2499   48.5017 H   0  0  0  0  0  0  0  0  0  0  0  0
   60.4240   29.0160   50.0790 N   0  0  1  0  0  0  0  0  0  0  0  0
   59.4380   29.0200   50.4310 H   0  0  0  0  0  0  0  0  0  0  0  0
   60.9090   27.6350   50.3060 C   0  0  0  0  0  0  0  0  0  0  0  0
   60.9764   27.4431   51.3870 H   0  0  0  0  0  0  0  0  0  0  0  0
   60.2080   26.9205   49.8498 H   0  0  0  0  0  0  0  0  0  0  0  0
   61.9028   27.5158   49.8498 H   0  0  0  0  0  0  0  0  0  0  0  0
   61.1820   30.0150   50.8790 C   0  0  0  0  0  0  0  0  0  0  0  0
   60.8551   29.9385   51.9265 H   0  0  0  0  0  0  0  0  0  0  0  0
   62.2491   29.7819   50.7488 H   0  0  0  0  0  0  0  0  0  0  0  0
   60.9870   31.4620   50.4190 C   0  0  0  0  0  0  0  0  0  0  0  0
   59.8740   32.1720   50.9140 C   0  0  0  0  0  0  0  0  0  0  0  0
   59.1439   31.6530   51.5524 H   0  0  0  0  0  0  0  0  0  0  0  0
   59.6810   33.5160   50.6110 C   0  0  0  0  0  0  0  0  0  0  0  0
   58.8193   34.0535   51.0336 H   0  0  0  0  0  0  0  0  0  0  0  0
   60.5700   34.1830   49.7780 C   0  0  0  0  0  0  0  0  0  0  0  0
   60.4284   35.2543   49.5723 H   0  0  0  0  0  0  0  0  0  0  0  0
   61.6450   33.4990   49.1990 C   0  0  0  0  0  0  0  0  0  0  0  0
   62.5000   34.1820   48.3180 C   0  0  0  0  0  0  0  0  0  0  0  0
   62.3432   35.2533   48.1240 H   0  0  0  0  0  0  0  0  0  0  0  0
   63.5450   33.5100   47.6890 C   0  0  0  0  0  0  0  0  0  0  0  0
   64.2152   34.0533   47.0066 H   0  0  0  0  0  0  0  0  0  0  0  0
   63.7430   32.1530   47.9220 C   0  0  0  0  0  0  0  0  0  0  0  0
   64.5603   31.6237   47.4102 H   0  0  0  0  0  0  0  0  0  0  0  0
   62.9100   31.4590   48.8020 C   0  0  0  0  0  0  0  0  0  0  0  0
   63.0735   30.3840   48.9682 H   0  0  0  0  0  0  0  0  0  0  0  0
   61.8560   32.1190   49.4850 C   0  0  0  0  0  0  0  0  0  0  0  0
   56.1540   30.8300   44.1120 C   0  0  0  0  0  0  0  0  0  0  0  0
   55.7968   31.8217   43.7974 H   0  0  0  0  0  0  0  0  0  0  0  0
  1  2  1  0
  2  3  1  0
  3  4  1  0
  4  5  2  0
  5  6  1  0
  5  7  1  0
  7  8  1  0
  7  9  2  0
  9 10  1  0
  9 11  1  0
 11 12  1  0
 11 13  2  0
 13 14  1  0
 14 15  2  0
 15 16  1  0
 16 17  1  0
 16 18  1  0
 16 19  1  0
 19 20  1  0
 19 21  1  0
 19 22  1  0
 22 23  1  0
 22 24  1  0
 22 25  1  0
 25 26  1  0
 26 27  1  0
 26 28  1  0
 26 29  1  0
 29 30  1  0
 29 31  1  0
 29 32  1  0
 25 33  1  0
 33 34  1  0
 33 35  1  0
 33 36  1  0
 36 37  1  0
 36 38  1  0
 36 39  1  0
 39 40  1  0
 39 41  1  0
 39 42  1  0
 42 43  1  0
 42 44  1  0
 42 45  1  0
 45 46  1  1
 45 47  1  0
 47 48  1  0
 47 49  1  0
 47 50  1  0
 45 51  1  0
 51 52  1  0
 51 53  1  0
 51 54  1  0
 54 55  2  0
 55 56  1  0
 55 57  1  0
 57 58  1  0
 57 59  2  0
 59 60  1  0
 59 61  1  0
 61 62  2  0
 62 63  1  0
 62 64  1  0
 64 65  1  0
 64 66  2  0
 66 67  1  0
 66 68  1  0
 68 69  1  0
 68 70  2  0
 14 71  1  0
 71 72  1  0
 71  2  2  0
 13  4  1  0
 70 54  1  0
 70 61  1  0
M  CHG  2   3  -1  45   1
M  END
>  <UniqueID>  (2) 
1

>  <SMILES>  (2) 
CCN(CCCC[N@@H+](C)Cc1cccc2ccccc12)CCC/N=c1/cc[n-]c2cc(Cl)ccc12

>  <Energy>  (2) 
114.3412699748632

>  <Genealogy>  (2) 
CCN(CCCC[NH+](C)Cc1cccc2ccccc12)CCCN=c1cc[n-]c2cc(Cl)ccc12 (protonated)
CCN(CCCC[N@@H+](C)Cc1cccc2ccccc12)CCCN=c1cc[n-]c2cc(Cl)ccc12 (chirality)
CCN(CCCC[N@@H+](C)Cc1cccc2ccccc12)CCC/N=c1/cc[n-]c2cc(Cl)ccc12 (cis-trans isomerization)
CCN(CCCC[N@@H+](C)Cc1cccc2ccccc12)CCC/N=c1/cc[n-]c2cc(Cl)ccc12 (3D coordinates assigned)
CCN(CCCC[N@@H+](C)Cc1cccc2ccccc12)CCC/N=c1/cc[n-]c2cc(Cl)ccc12 (optimized conformer: 114.3412699748632 kcal/mol)

>  <smiles>  (2) 
CCN(CCCCN(C)Cc1cccc2ccccc12)CCCN=c1cc[nH]c2cc(Cl)ccc12

>  <score_type>  (2) 
oracle

>  <origin>  (2) 
adg

>  <m_score__min__energy>  (2) 
-9.1400000000000006

>  <m_primary>  (2) 
energy

$$$$
2:0
     RDKit          3D

 35 37  0  0  0  0  0  0  0  0999 V2000
   55.4890   26.7300   46.0040 O   0  0  0  0  0  0  0  0  0  0  0  0
   56.6870   27.0440   45.7640 C   0  0  0  0  0  0  0  0  0  0  0  0
   57.7370   26.1000   46.0320 N   0  0  0  0  0  0  0  0  0  0  0  0
   57.5320   24.6790   46.1200 C   0  0  0  0  0  0  0  0  0  0  0  0
   57.6810   23.8400   45.0040 C   0  0  0  0  0  0  0  0  0  0  0  0
   57.4980   22.4620   45.1350 C   0  0  0  0  0  0  0  0  0  0  0  0
   57.1770   21.9310   46.3860 C   0  0  0  0  0  0  0  0  0  0  0  0
   57.0560   22.7520   47.4630 N   0  0  0  0  0  0  0  0  0  0  0  0
   57.2300   24.0960   47.3600 C   0  0  0  0  0  0  0  0  0  0  0  0
   56.9970   28.4030   45.2570 C   0  0  0  0  0  0  0  0  0  0  0  0
   55.9830   29.2340   44.7470 C   0  0  0  0  0  0  0  0  0  0  0  0
   56.2850   30.5160   44.2780 C   0  0  0  0  0  0  0  0  0  0  0  0
   57.6030   30.9960   44.3240 C   0  0  0  0  0  0  0  0  0  0  0  0
   57.9330   32.3570   43.7780 C   0  0  0  0  0  0  0  0  0  0  0  0
   58.2510   33.2690   44.8730 N   0  0  0  0  0  0  0  0  0  0  0  0
   59.2300   34.1870   44.9000 C   0  0  0  0  0  0  0  0  0  0  0  0
   59.2290   34.7650   46.1500 C   0  0  0  0  0  0  0  0  0  0  0  0
   58.2650   34.2020   46.9090 N   0  0  0  0  0  0  0  0  0  0  0  0
   57.6920   33.2890   46.0970 C   0  0  0  0  0  0  0  0  0  0  0  0
   58.6170   30.1700   44.8260 C   0  0  0  0  0  0  0  0  0  0  0  0
   58.3170   28.8880   45.2970 C   0  0  0  0  0  0  0  0  0  0  0  0
   58.6800   26.4730   46.2870 H   0  0  0  0  0  0  0  0  0  0  0  0
   57.9422   24.2689   44.0253 H   0  0  0  0  0  0  0  0  0  0  0  0
   57.6056   21.8016   44.2619 H   0  0  0  0  0  0  0  0  0  0  0  0
   57.0220   20.8480   46.5002 H   0  0  0  0  0  0  0  0  0  0  0  0
   57.1335   24.7301   48.2536 H   0  0  0  0  0  0  0  0  0  0  0  0
   54.9446   28.8724   44.7170 H   0  0  0  0  0  0  0  0  0  0  0  0
   55.4852   31.1519   43.8707 H   0  0  0  0  0  0  0  0  0  0  0  0
   58.7995   32.2795   43.1048 H   0  0  0  0  0  0  0  0  0  0  0  0
   57.0651   32.7449   43.2246 H   0  0  0  0  0  0  0  0  0  0  0  0
   59.9110   34.4334   44.0721 H   0  0  0  0  0  0  0  0  0  0  0  0
   59.9098   35.5636   46.4797 H   0  0  0  0  0  0  0  0  0  0  0  0
   56.8616   32.6349   46.4013 H   0  0  0  0  0  0  0  0  0  0  0  0
   59.6554   30.5321   44.8498 H   0  0  0  0  0  0  0  0  0  0  0  0
   59.1194   28.2538   45.7019 H   0  0  0  0  0  0  0  0  0  0  0  0
  1  2  2  0
  2  3  1  0
  3  4  1  0
  4  5  2  0
  5  6  1  0
  6  7  2  0
  7  8  1  0
  8  9  2  0
  2 10  1  0
 10 11  2  0
 11 12  1  0
 12 13  2  0
 13 14  1  0
 14 15  1  0
 15 16  1  0
 16 17  2  0
 17 18  1  0
 18 19  2  0
 13 20  1  0
 20 21  2  0
  9  4  1  0
 21 10  1  0
 19 15  1  0
  3 22  1  0
  5 23  1  0
  6 24  1  0
  7 25  1  0
  9 26  1  0
 11 27  1  0
 12 28  1  0
 14 29  1  0
 14 30  1  0
 16 31  1  0
 17 32  1  0
 19 33  1  0
 20 34  1  0
 21 35  1  0
M  END
>  <UniqueID>  (3) 
2

>  <SMILES>  (3) 
O=C(Nc1cccnc1)c1ccc(Cn2ccnc2)cc1

>  <Energy>  (3) 
71.27775482949224

>  <Genealogy>  (3) 
O=C(Nc1cccnc1)c1ccc(Cn2ccnc2)cc1 (3D coordinates assigned)
O=C(Nc1cccnc1)c1ccc(Cn2ccnc2)cc1 (optimized conformer: 71.27775482949224 kcal/mol)

>  <smiles>  (3) 
O=C(Nc1cccnc1)c1ccc(Cn2ccnc2)cc1

>  <score_type>  (3) 
oracle

>  <origin>  (3) 
adg

>  <m_score__min__energy>  (3) 
-6.7800000000000002

>  <m_primary>  (3) 
energy

$$$$
3:0
     RDKit          3D

 76 78  0  0  0  0  0  0  0  0999 V2000
   61.5420   31.9320   47.0980 C   0  0  0  0  0  0  0  0  0  0  0  0
   63.0530   32.1540   47.1810 C   0  0  0  0  0  0  0  0  0  0  0  0
   63.4190   33.5950   47.5700 C   0  0  0  0  0  0  0  0  0  0  0  0
   63.4870   33.7960   49.0930 C   0  0  0  0  0  0  0  0  0  0  0  0
   62.1640   34.3140   49.6830 C   0  0  0  0  0  0  0  0  0  0  0  0
   61.9240   33.8700   51.1330 C   0  0  0  0  0  0  0  0  0  0  0  0
   60.7340   33.0880   51.2500 O   0  0  0  0  0  0  0  0  0  0  0  0
   60.4370   31.9330   50.5090 C   0  0  0  0  0  0  0  0  0  0  0  0
   61.4410   30.9710   50.3550 C   0  0  0  0  0  0  0  0  0  0  0  0
   61.2060   29.8030   49.6260 C   0  0  0  0  0  0  0  0  0  0  0  0
   59.9520   29.5770   49.0290 C   0  0  0  0  0  0  0  0  0  0  0  0
   59.6750   28.3520   48.2430 C   0  0  0  0  0  0  0  0  0  0  0  0
   58.6110   28.1710   47.4290 N   0  0  0  0  0  0  0  0  0  0  0  0
   58.7790   26.9350   46.9280 C   0  0  0  0  0  0  0  0  0  0  0  0
   57.8120   26.2510   46.0160 C   0  0  0  0  0  0  0  0  0  0  0  0
   56.8650   27.2400   45.4790 N   0  0  0  0  0  0  0  0  0  0  0  0
   57.5010   28.3390   44.7210 C   0  0  1  0  0  0  0  0  0  0  0  0
   58.1780   27.7950   43.4450 C   0  0  0  0  0  0  0  0  0  0  0  0
   57.7660   26.4790   43.1990 O   0  0  0  0  0  0  0  0  0  0  0  0
   56.5080   29.4980   44.4380 C   0  0  0  0  0  0  0  0  0  0  0  0
   57.0090   30.4660   43.3510 C   0  0  0  0  0  0  0  0  0  0  0  0
   58.1110   31.4060   43.8640 C   0  0  0  0  0  0  0  0  0  0  0  0
   57.9760   31.7130   45.3730 C   0  0  0  0  0  0  0  0  0  0  0  0
   58.0880   33.1510   45.7040 N   0  0  0  0  0  0  0  0  0  0  0  0
   59.2380   33.8180   45.0600 C   0  0  0  0  0  0  0  0  0  0  0  0
   59.3480   35.2630   45.5580 C   0  0  0  0  0  0  0  0  0  0  0  0
   59.5540   35.3440   47.0180 N   0  0  0  0  0  0  0  0  0  0  0  0
   59.1540   34.1310   47.7560 C   0  0  0  0  0  0  0  0  0  0  0  0
   57.9120   33.4640   47.1430 C   0  0  0  0  0  0  0  0  0  0  0  0
   59.9260   26.3920   47.4620 C   0  0  0  0  0  0  0  0  0  0  0  0
   60.4570   27.2910   48.2590 O   0  0  0  0  0  0  0  0  0  0  0  0
   58.9460   30.5450   49.1790 C   0  0  0  0  0  0  0  0  0  0  0  0
   59.1820   31.7120   49.9110 C   0  0  0  0  0  0  0  0  0  0  0  0
   61.1241   31.8706   48.1137 H   0  0  0  0  0  0  0  0  0  0  0  0
   61.0770   32.7715   46.5603 H   0  0  0  0  0  0  0  0  0  0  0  0
   61.3382   30.9943   46.5603 H   0  0  0  0  0  0  0  0  0  0  0  0
   63.4686   31.4693   47.9350 H   0  0  0  0  0  0  0  0  0  0  0  0
   63.4729   31.9620   46.1826 H   0  0  0  0  0  0  0  0  0  0  0  0
   64.4010   33.8381   47.1381 H   0  0  0  0  0  0  0  0  0  0  0  0
   62.6305   34.2561   47.1811 H   0  0  0  0  0  0  0  0  0  0  0  0
   63.7293   32.8323   49.5647 H   0  0  0  0  0  0  0  0  0  0  0  0
   64.2595   34.5529   49.2941 H   0  0  0  0  0  0  0  0  0  0  0  0
   62.1765   35.4135   49.6532 H   0  0  0  0  0  0  0  0  0  0  0  0
   61.3510   33.8891   49.0760 H   0  0  0  0  0  0  0  0  0  0  0  0
   62.7815   33.2688   51.4695 H   0  0  0  0  0  0  0  0  0  0  0  0
   61.8089   34.7697   51.7553 H   0  0  0  0  0  0  0  0  0  0  0  0
   62.4271   31.1364   50.8134 H   0  0  0  0  0  0  0  0  0  0  0  0
   62.0058   29.0556   49.5180 H   0  0  0  0  0  0  0  0  0  0  0  0
   57.8250   28.8250   47.2220 H   0  0  0  0  0  0  0  0  0  0  0  0
   58.3599   25.7794   45.1869 H   0  0  0  0  0  0  0  0  0  0  0  0
   57.2613   25.4803   46.5751 H   0  0  0  0  0  0  0  0  0  0  0  0
   56.1950   26.7430   44.8440 H   0  0  0  0  0  0  0  0  0  0  0  0
   58.2940   28.7774   45.3447 H   0  0  0  0  0  0  0  0  0  0  0  0
   57.9007   28.4280   42.5892 H   0  0  0  0  0  0  0  0  0  0  0  0
   59.2689   27.8079   43.5857 H   0  0  0  0  0  0  0  0  0  0  0  0
   56.8120   26.4310   43.4720 H   0  0  0  0  0  0  0  0  0  0  0  0
   55.5505   29.0672   44.1098 H   0  0  0  0  0  0  0  0  0  0  0  0
   56.4007   30.0746   45.3686 H   0  0  0  0  0  0  0  0  0  0  0  0
   57.4091   29.8779   42.5119 H   0  0  0  0  0  0  0  0  0  0  0  0
   56.1573   31.0880   43.0385 H   0  0  0  0  0  0  0  0  0  0  0  0
   59.0882   30.9329   43.6868 H   0  0  0  0  0  0  0  0  0  0  0  0
   58.0164   32.3578   43.3207 H   0  0  0  0  0  0  0  0  0  0  0  0
   56.9931   31.3548   45.7129 H   0  0  0  0  0  0  0  0  0  0  0  0
   58.8090   31.2028   45.8787 H   0  0  0  0  0  0  0  0  0  0  0  0
   60.1614   33.2748   45.3095 H   0  0  0  0  0  0  0  0  0  0  0  0
   59.0915   33.8206   43.9698 H   0  0  0  0  0  0  0  0  0  0  0  0
   60.1985   35.7459   45.0545 H   0  0  0  0  0  0  0  0  0  0  0  0
   58.3996   35.7696   45.3257 H   0  0  0  0  0  0  0  0  0  0  0  0
   58.9960   36.1520   47.3840 H   0  0  0  0  0  0  0  0  0  0  0  0
   59.9875   33.4135   47.7373 H   0  0  0  0  0  0  0  0  0  0  0  0
   58.9056   34.4276   48.7857 H   0  0  0  0  0  0  0  0  0  0  0  0
   57.7099   32.5286   47.6854 H   0  0  0  0  0  0  0  0  0  0  0  0
   57.0744   34.1715   47.2314 H   0  0  0  0  0  0  0  0  0  0  0  0
   60.3253   25.3875   47.2582 H   0  0  0  0  0  0  0  0  0  0  0  0
   57.9617   30.3831   48.7155 H   0  0  0  0  0  0  0  0  0  0  0  0
   58.3837   32.4609   50.0203 H   0  0  0  0  0  0  0  0  0  0  0  0
  1  2  1  0
  2  3  1  0
  3  4  1  0
  4  5  1  0
  5  6  1  0
  6  7  1  0
  7  8  1  0
  8  9  2  0
  9 10  1  0
 10 11  2  0
 11 12  1  0
 12 13  2  0
 13 14  1  0
 14 15  1  0
 15 16  1  0
 16 17  1  0
 17 18  1  0
 18 19  1  0
 17 20  1  0
 20 21  1  0
 21 22  1  0
 22 23  1  0
 23 24  1  0
 24 25  1  0
 25 26  1  0
 26 27  1  0
 27 28  1  0
 28 29  1  0
 14 30  2  0
 30 31  1  0
 11 32  1  0
 32 33  2  0
 33  8  1  0
 31 12  1  0
 29 24  1  0
  1 34  1  0
  1 35  1  0
  1 36  1  0
  2 37  1  0
  2 38  1  0
  3 39  1  0
  3 40  1  0
  4 41  1  0
  4 42  1  0
  5 43  1  0
  5 44  1  0
  6 45  1  0
  6 46  1  0
  9 47  1  0
 10 48  1  0
 13 49  1  0
 15 50  1  0
 15 51  1  0
 16 52  1  0
 17 53  1  1
 18 54  1  0
 18 55  1  0
 19 56  1  0
 20 57  1  0
 20 58  1  0
 21 59  1  0
 21 60  1  0
 22 61  1  0
 22 62  1  0
 23 63  1  0
 23 64  1  0
 25 65  1  0
 25 66  1  0
 26 67  1  0
 26 68  1  0
 27 69  1  0
 28 70  1  0
 28 71  1  0
 29 72  1  0
 29 73  1  0
 30 74  1  0
 32 75  1  0
 33 76  1  0
M  CHG  1  13   1
M  END
>  <UniqueID>  (4) 
3

>  <SMILES>  (4) 
CCCCCCOc1ccc(-c2[nH+]c(CN[C@@H](CO)CCCCN3CCNCC3)co2)cc1

>  <Energy>  (4) 
107.46667133671932

>  <Genealogy>  (4) 
CCCCCCOc1ccc(-c2[nH+]c(CNC(CO)CCCCN3CCNCC3)co2)cc1 (protonated)
CCCCCCOc1ccc(-c2[nH+]c(CN[C@@H](CO)CCCCN3CCNCC3)co2)cc1 (chirality)
CCCCCCOc1ccc(-c2[nH+]c(CN[C@@H](CO)CCCCN3CCNCC3)co2)cc1 (3D coordinates assigned)
CCCCCCOc1ccc(-c2[nH+]c(CN[C@@H](CO)CCCCN3CCNCC3)co2)cc1 (nonaromatic ring conformer: 107.46667133671932 kcal/mol)

>  <smiles>  (4) 
CCCCCCOc1ccc(-c2nc(CNC(CO)CCCCN3CCNCC3)co2)cc1

>  <score_type>  (4) 
oracle

>  <origin>  (4) 
adg

>  <m_score__min__energy>  (4) 
-6.4800000000000004

>  <m_primary>  (4) 
energy

$$$$
4:0
     RDKit          3D

 46 49  0  0  0  0  0  0  0  0999 V2000
   58.5240   30.8030   50.1310 C   0  0  0  0  0  0  0  0  0  0  0  0
   59.4100   30.9260   48.9760 N   0  0  0  0  0  0  0  0  0  0  0  0
   60.2440   31.9560   48.6710 C   0  0  0  0  0  0  0  0  0  0  0  0
   60.4490   33.1340   49.3930 C   0  0  0  0  0  0  0  0  0  0  0  0
   61.3920   34.0590   48.8980 C   0  0  0  0  0  0  0  0  0  0  0  0
   62.1000   33.7970   47.7000 C   0  0  0  0  0  0  0  0  0  0  0  0
   61.8770   32.6070   46.9870 C   0  0  0  0  0  0  0  0  0  0  0  0
   60.9430   31.7100   47.5000 C   0  0  0  0  0  0  0  0  0  0  0  0
   60.5110   30.4770   47.0690 C   0  0  0  0  0  0  0  0  0  0  0  0
   60.8560   29.7260   45.9990 N   0  0  0  0  0  0  0  0  0  0  0  0
   60.2700   28.5300   45.8470 N   0  0  0  0  0  0  0  0  0  0  0  0
   59.3440   28.0660   46.7500 C   0  0  0  0  0  0  0  0  0  0  0  0
   58.5730   26.4690   46.5020 S   0  0  0  0  0  0  0  0  0  0  0  0
   56.9260   27.1580   46.1340 C   0  0  0  0  0  0  0  0  0  0  0  0
   57.0290   28.2200   45.0900 C   0  0  0  0  0  0  0  0  0  0  0  0
   57.7640   28.0380   44.0800 O   0  0  0  0  0  0  0  0  0  0  0  0
   56.2650   29.4250   45.2290 N   0  0  0  0  0  0  0  0  0  0  0  0
   56.2290   30.4800   44.2220 C   0  0  0  0  0  0  0  0  0  0  0  0
   57.6410   31.0060   43.9240 C   0  0  0  0  0  0  0  0  0  0  0  0
   57.9600   32.2310   44.7430 C   0  0  0  0  0  0  0  0  0  0  0  0
   58.5360   33.3640   44.1390 C   0  0  0  0  0  0  0  0  0  0  0  0
   58.8130   34.5040   44.9010 C   0  0  0  0  0  0  0  0  0  0  0  0
   58.5110   34.5250   46.2670 C   0  0  0  0  0  0  0  0  0  0  0  0
   57.9270   33.4070   46.8710 C   0  0  0  0  0  0  0  0  0  0  0  0
   57.6530   32.2630   46.1140 C   0  0  0  0  0  0  0  0  0  0  0  0
   59.0030   28.8230   47.8370 N   0  0  0  0  0  0  0  0  0  0  0  0
   59.5970   30.0300   47.9780 C   0  0  0  0  0  0  0  0  0  0  0  0
   59.1138   30.8849   51.0559 H   0  0  0  0  0  0  0  0  0  0  0  0
   57.7720   31.6054   50.1034 H   0  0  0  0  0  0  0  0  0  0  0  0
   58.0190   29.8261   50.1034 H   0  0  0  0  0  0  0  0  0  0  0  0
   59.8917   33.3344   50.3200 H   0  0  0  0  0  0  0  0  0  0  0  0
   61.5792   34.9930   49.4481 H   0  0  0  0  0  0  0  0  0  0  0  0
   62.8295   34.5300   47.3251 H   0  0  0  0  0  0  0  0  0  0  0  0
   62.4213   32.3912   46.0558 H   0  0  0  0  0  0  0  0  0  0  0  0
   61.5570   30.0620   45.3020 H   0  0  0  0  0  0  0  0  0  0  0  0
   56.2696   26.3539   45.7699 H   0  0  0  0  0  0  0  0  0  0  0  0
   56.5096   27.5985   47.0520 H   0  0  0  0  0  0  0  0  0  0  0  0
   55.7920   30.0783   43.2959 H   0  0  0  0  0  0  0  0  0  0  0  0
   55.6199   31.3110   44.6072 H   0  0  0  0  0  0  0  0  0  0  0  0
   58.3724   30.2188   44.1591 H   0  0  0  0  0  0  0  0  0  0  0  0
   57.6889   31.2809   42.8600 H   0  0  0  0  0  0  0  0  0  0  0  0
   58.7692   33.3532   43.0641 H   0  0  0  0  0  0  0  0  0  0  0  0
   59.2688   35.3850   44.4256 H   0  0  0  0  0  0  0  0  0  0  0  0
   58.7329   35.4207   46.8657 H   0  0  0  0  0  0  0  0  0  0  0  0
   57.6827   33.4272   47.9433 H   0  0  0  0  0  0  0  0  0  0  0  0
   57.1955   31.3852   46.5937 H   0  0  0  0  0  0  0  0  0  0  0  0
  1  2  1  0
  2  3  1  0
  3  4  2  0
  4  5  1  0
  5  6  2  0
  6  7  1  0
  7  8  2  0
  8  9  1  0
  9 10  2  0
 10 11  1  0
 11 12  2  0
 12 13  1  0
 13 14  1  0
 14 15  1  0
 15 16  2  0
 15 17  1  0
 17 18  1  0
 18 19  1  0
 19 20  1  0
 20 21  2  0
 21 22  1  0
 22 23  2  0
 23 24  1  0
 24 25  2  0
 12 26  1  0
 26 27  2  0
 27  2  1  0
  8  3  1  0
 27  9  1  0
 25 20  1  0
  1 28  1  0
  1 29  1  0
  1 30  1  0
  4 31  1  0
  5 32  1  0
  6 33  1  0
  7 34  1  0
 10 35  1  0
 14 36  1  0
 14 37  1  0
 18 38  1  0
 18 39  1  0
 19 40  1  0
 19 41  1  0
 21 42  1  0
 22 43  1  0
 23 44  1  0
 24 45  1  0
 25 46  1  0
M  CHG  2  10   1  17  -1
M  END
>  <UniqueID>  (5) 
4

>  <SMILES>  (5) 
Cn1c2ccccc2c2[nH+]nc(SCC(=O)[N-]CCc3ccccc3)nc21

>  <Energy>  (5) 
86.50650038817001

>  <Genealogy>  (5) 
Cn1c2ccccc2c2[nH+]nc(SCC(=O)[N-]CCc3ccccc3)nc21 (protonated)
Cn1c2ccccc2c2[nH+]nc(SCC(=O)[N-]CCc3ccccc3)nc21 (3D coordinates assigned)
Cn1c2ccccc2c2[nH+]nc(SCC(=O)[N-]CCc3ccccc3)nc21 (optimized conformer: 86.50650038817001 kcal/mol)

>  <smiles>  (5) 
Cn1c2ccccc2c2nnc(SCC(=O)NCCc3ccccc3)nc21

>  <score_type>  (5) 
oracle

>  <origin>  (5) 
adg

>  <m_score__min__energy>  (5) 
-9.4100000000000001

>  <m_primary>  (5) 
energy

$$$$
5:0
     RDKit          3D

 44 46  0  0  0  0  0  0  0  0999 V2000
   61.1180   25.9980   46.3730 C   0  0  0  0  0  0  0  0  0  0  0  0
   60.3270   26.8730   47.3530 C   0  0  0  0  0  0  0  0  0  0  0  0
   59.2960   27.6990   46.6750 N   0  0  0  0  0  0  0  0  0  0  0  0
   59.7690   28.1830   45.3630 C   0  0  0  0  0  0  0  0  0  0  0  0
   58.8040   29.2440   44.8270 C   0  0  0  0  0  0  0  0  0  0  0  0
   57.4020   28.8600   45.0530 N   0  0  0  0  0  0  0  0  0  0  0  0
   56.3350   29.7480   44.6450 C   0  0  0  0  0  0  0  0  0  0  0  0
   55.1670   29.2970   44.4890 O   0  0  0  0  0  0  0  0  0  0  0  0
   56.5750   31.2040   44.3700 C   0  0  0  0  0  0  0  0  0  0  0  0
   57.0200   31.8620   45.5900 N   0  0  0  0  0  0  0  0  0  0  0  0
   57.8240   33.0480   45.6630 C   0  0  0  0  0  0  0  0  0  0  0  0
   57.2980   34.1430   45.3330 O   0  0  0  0  0  0  0  0  0  0  0  0
   59.2320   33.0370   46.1170 C   0  0  0  0  0  0  0  0  0  0  0  0
   60.4200   34.1570   45.6630 S   0  0  0  0  0  0  0  0  0  0  0  0
   61.6260   33.5250   46.6400 C   0  0  0  0  0  0  0  0  0  0  0  0
   62.9400   33.9640   46.7770 C   0  0  0  0  0  0  0  0  0  0  0  0
   63.7800   33.2750   47.6650 C   0  0  0  0  0  0  0  0  0  0  0  0
   63.2930   32.1700   48.3910 C   0  0  0  0  0  0  0  0  0  0  0  0
   61.9620   31.7470   48.2350 C   0  0  0  0  0  0  0  0  0  0  0  0
   61.1300   32.4400   47.3460 C   0  0  0  0  0  0  0  0  0  0  0  0
   59.7820   32.1630   47.0680 C   0  0  0  0  0  0  0  0  0  0  0  0
   58.8970   30.8310   47.8070 Cl  0  0  0  0  0  0  0  0  0  0  0  0
   57.0800   27.4780   45.4440 C   0  0  0  0  0  0  0  0  0  0  0  0
   58.0490   26.9130   46.5130 C   0  0  0  0  0  0  0  0  0  0  0  0
   61.7516   25.2971   46.9364 H   0  0  0  0  0  0  0  0  0  0  0  0
   60.4186   25.4323   45.7398 H   0  0  0  0  0  0  0  0  0  0  0  0
   61.7512   26.6369   45.7398 H   0  0  0  0  0  0  0  0  0  0  0  0
   59.8300   26.2206   48.0860 H   0  0  0  0  0  0  0  0  0  0  0  0
   61.0382   27.5583   47.8373 H   0  0  0  0  0  0  0  0  0  0  0  0
   59.0760   28.5240   47.2860 H   0  0  0  0  0  0  0  0  0  0  0  0
   60.7710   28.6229   45.4749 H   0  0  0  0  0  0  0  0  0  0  0  0
   59.8128   27.3402   44.6575 H   0  0  0  0  0  0  0  0  0  0  0  0
   59.0006   30.1975   45.3391 H   0  0  0  0  0  0  0  0  0  0  0  0
   58.9651   29.3415   43.7432 H   0  0  0  0  0  0  0  0  0  0  0  0
   57.3482   31.3080   43.5945 H   0  0  0  0  0  0  0  0  0  0  0  0
   55.6413   31.6699   44.0221 H   0  0  0  0  0  0  0  0  0  0  0  0
   63.3097   34.8276   46.2046 H   0  0  0  0  0  0  0  0  0  0  0  0
   64.8232   33.5989   47.7949 H   0  0  0  0  0  0  0  0  0  0  0  0
   63.9588   31.6351   49.0842 H   0  0  0  0  0  0  0  0  0  0  0  0
   61.5795   30.8854   48.8019 H   0  0  0  0  0  0  0  0  0  0  0  0
   56.0581   27.4572   45.8505 H   0  0  0  0  0  0  0  0  0  0  0  0
   57.1760   26.8498   44.5461 H   0  0  0  0  0  0  0  0  0  0  0  0
   57.5243   26.8943   47.4796 H   0  0  0  0  0  0  0  0  0  0  0  0
   58.3476   25.9105   46.1726 H   0  0  0  0  0  0  0  0  0  0  0  0
  1  2  1  0
  2  3  1  0
  3  4  1  0
  4  5  1  0
  5  6  1  0
  6  7  1  0
  7  8  2  0
  7  9  1  0
  9 10  1  0
 10 11  1  0
 11 12  2  0
 11 13  1  0
 13 14  1  0
 14 15  1  0
 15 16  2  0
 16 17  1  0
 17 18  2  0
 18 19  1  0
 19 20  2  0
 20 21  1  0
 21 22  1  0
  6 23  1  0
 23 24  1  0
 24  3  1  0
 21 13  2  0
 20 15  1  0
  1 25  1  0
  1 26  1  0
  1 27  1  0
  2 28  1  0
  2 29  1  0
  3 30  1  0
  4 31  1  0
  4 32  1  0
  5 33  1  0
  5 34  1  0
  9 35  1  0
  9 36  1  0
 16 37  1  0
 17 38  1  0
 18 39  1  0
 19 40  1  0
 23 41  1  0
 23 42  1  0
 24 43  1  0
 24 44  1  0
M  CHG  2   3   1  10  -1
M  END
>  <UniqueID>  (6) 
5

>  <SMILES>  (6) 
CC[NH+]1CCN(C(=O)C[N-]C(=O)c2sc3ccccc3c2Cl)CC1

>  <Energy>  (6) 
84.61998034943853

>  <Genealogy>  (6) 
CC[NH+]1CCN(C(=O)C[N-]C(=O)c2sc3ccccc3c2Cl)CC1 (protonated)
CC[NH+]1CCN(C(=O)C[N-]C(=O)c2sc3ccccc3c2Cl)CC1 (3D coordinates assigned)
CC[NH+]1CCN(C(=O)C[N-]C(=O)c2sc3ccccc3c2Cl)CC1 (nonaromatic ring conformer: 84.61998034943853 kcal/mol)

>  <smiles>  (6) 
CCN1CCN(C(=O)CNC(=O)c2sc3ccccc3c2Cl)CC1

>  <score_type>  (6) 
oracle

>  <origin>  (6) 
adg

>  <m_score__min__energy>  (6) 
-8.2300000000000004

>  <m_primary>  (6) 
energy

$$$$
6:0
     RDKit          3D

 44 46  0  0  0  0  0  0  0  0999 V2000
   61.8150   27.6300   51.8180 C   0  0  0  0  0  0  0  0  0  0  0  0
   61.3590   27.0050   50.6220 O   0  0  0  0  0  0  0  0  0  0  0  0
   60.6570   27.6640   49.6020 C   0  0  0  0  0  0  0  0  0  0  0  0
   60.5470   27.1410   48.3010 C   0  0  0  0  0  0  0  0  0  0  0  0
   59.8350   27.8350   47.3200 C   0  0  0  0  0  0  0  0  0  0  0  0
   59.2060   29.0530   47.6250 C   0  0  0  0  0  0  0  0  0  0  0  0
   58.4610   29.8080   46.5950 C   0  0  0  0  0  0  0  0  0  0  0  0
   58.4250   31.1520   46.5620 N   0  0  0  0  0  0  0  0  0  0  0  0
   57.7350   31.4320   45.4380 C   0  0  0  0  0  0  0  0  0  0  0  0
   57.3950   33.1020   44.8960 S   0  0  0  0  0  0  0  0  0  0  0  0
   58.1150   33.8510   46.3890 C   0  0  0  0  0  0  0  0  0  0  0  0
   57.3250   30.3420   44.7570 N   0  0  0  0  0  0  0  0  0  0  0  0
   57.7790   29.3110   45.4920 C   0  0  0  0  0  0  0  0  0  0  0  0
   57.4820   27.9020   45.1570 C   0  0  0  0  0  0  0  0  0  0  0  0
   58.0580   27.2910   44.0330 C   0  0  0  0  0  0  0  0  0  0  0  0
   57.7810   25.9570   43.7340 C   0  0  0  0  0  0  0  0  0  0  0  0
   56.9330   25.2020   44.5650 C   0  0  0  0  0  0  0  0  0  0  0  0
   56.6300   23.8580   44.2960 O   0  0  0  0  0  0  0  0  0  0  0  0
   56.4970   23.3080   42.9890 C   0  0  0  0  0  0  0  0  0  0  0  0
   56.3710   25.7970   45.7050 C   0  0  0  0  0  0  0  0  0  0  0  0
   55.5350   25.0170   46.5210 O   0  0  0  0  0  0  0  0  0  0  0  0
   55.9690   23.9040   47.2930 C   0  0  0  0  0  0  0  0  0  0  0  0
   56.6550   27.1450   46.0000 C   0  0  0  0  0  0  0  0  0  0  0  0
   59.3370   29.5850   48.9160 C   0  0  0  0  0  0  0  0  0  0  0  0
   60.0510   28.8900   49.8970 C   0  0  0  0  0  0  0  0  0  0  0  0
   61.4191   27.0874   52.6892 H   0  0  0  0  0  0  0  0  0  0  0  0
   62.9146   27.6132   51.8442 H   0  0  0  0  0  0  0  0  0  0  0  0
   61.4634   28.6720   51.8442 H   0  0  0  0  0  0  0  0  0  0  0  0
   61.0240   26.1808   48.0549 H   0  0  0  0  0  0  0  0  0  0  0  0
   59.7665   27.4247   46.3017 H   0  0  0  0  0  0  0  0  0  0  0  0
   57.6702   33.3883   47.2823 H   0  0  0  0  0  0  0  0  0  0  0  0
   59.2026   33.6864   46.3938 H   0  0  0  0  0  0  0  0  0  0  0  0
   57.9076   34.9313   46.3938 H   0  0  0  0  0  0  0  0  0  0  0  0
   58.7326   27.8678   43.3832 H   0  0  0  0  0  0  0  0  0  0  0  0
   58.2283   25.4923   42.8429 H   0  0  0  0  0  0  0  0  0  0  0  0
   56.2391   22.2413   43.0646 H   0  0  0  0  0  0  0  0  0  0  0  0
   55.7016   23.8400   42.4465 H   0  0  0  0  0  0  0  0  0  0  0  0
   57.4476   23.4178   42.4465 H   0  0  0  0  0  0  0  0  0  0  0  0
   55.8764   24.1415   48.3630 H   0  0  0  0  0  0  0  0  0  0  0  0
   55.3464   23.0286   47.0565 H   0  0  0  0  0  0  0  0  0  0  0  0
   57.0199   23.6812   47.0565 H   0  0  0  0  0  0  0  0  0  0  0  0
   56.2242   27.6082   46.8999 H   0  0  0  0  0  0  0  0  0  0  0  0
   58.8758   30.5538   49.1581 H   0  0  0  0  0  0  0  0  0  0  0  0
   60.1370   29.3109   50.9096 H   0  0  0  0  0  0  0  0  0  0  0  0
  1  2  1  0
  2  3  1  0
  3  4  2  0
  4  5  1  0
  5  6  2  0
  6  7  1  0
  7  8  1  0
  8  9  2  0
  9 10  1  0
 10 11  1  0
  9 12  1  0
 12 13  1  0
 13 14  1  0
 14 15  2  0
 15 16  1  0
 16 17  2  0
 17 18  1  0
 18 19  1  0
 17 20  1  0
 20 21  1  0
 21 22  1  0
 20 23  2  0
  6 24  1  0
 24 25  2  0
 25  3  1  0
 13  7  2  0
 23 14  1  0
  1 26  1  0
  1 27  1  0
  1 28  1  0
  4 29  1  0
  5 30  1  0
 11 31  1  0
 11 32  1  0
 11 33  1  0
 15 34  1  0
 16 35  1  0
 19 36  1  0
 19 37  1  0
 19 38  1  0
 22 39  1  0
 22 40  1  0
 22 41  1  0
 23 42  1  0
 24 43  1  0
 25 44  1  0
M  CHG  1  12  -1
M  END
>  <UniqueID>  (7) 
6

>  <SMILES>  (7) 
COc1ccc(-c2nc(SC)[n-]c2-c2ccc(OC)c(OC)c2)cc1

>  <Energy>  (7) 
75.7550201942614

>  <Genealogy>  (7) 
COc1ccc(-c2nc(SC)[n-]c2-c2ccc(OC)c(OC)c2)cc1 (protonated)
COc1ccc(-c2nc(SC)[n-]c2-c2ccc(OC)c(OC)c2)cc1 (3D coordinates assigned)
COc1ccc(-c2nc(SC)[n-]c2-c2ccc(OC)c(OC)c2)cc1 (optimized conformer: 75.7550201942614 kcal/mol)

>  <smiles>  (7) 
COc1ccc(-c2nc(SC)[nH]c2-c2ccc(OC)c(OC)c2)cc1

>  <score_type>  (7) 
oracle

>  <origin>  (7) 
adg

>  <m_score__min__energy>  (7) 
-7.4100000000000001

>  <m_primary>  (7) 
energy

$$$$
7:0
     RDKit          3D

 46 48  0  0  1  0  0  0  0  0999 V2000
   56.2780   29.7270   42.6230 C   0  0  0  0  0  0  0  0  0  0  0  0
   56.0130   29.5560   44.1140 C   0  0  0  0  0  0  0  0  0  0  0  0
   57.3340   29.6320   44.7520 N   0  0  0  0  0  0  0  0  0  0  0  0
   58.0810   28.5250   44.9260 C   0  0  0  0  0  0  0  0  0  0  0  0
   57.6300   27.3760   44.5280 N   0  0  0  0  0  0  0  0  0  0  0  0
   59.2850   28.6080   45.5080 N   0  0  0  0  0  0  0  0  0  0  0  0
   59.8270   29.7490   45.9490 C   0  0  0  0  0  0  0  0  0  0  0  0
   60.9650   29.8710   46.5060 N   0  0  0  0  0  0  0  0  0  0  0  0
   61.0830   30.1710   47.9030 C   0  0  0  0  0  0  0  0  0  0  0  0
   61.9000   31.4290   48.0400 C   0  0  0  0  0  0  0  0  0  0  0  0
   62.8530   31.7910   47.1230 C   0  0  0  0  0  0  0  0  0  0  0  0
   63.5970   32.9550   47.2590 C   0  0  0  0  0  0  0  0  0  0  0  0
   63.3960   33.7890   48.3320 C   0  0  0  0  0  0  0  0  0  0  0  0
   62.4430   33.4500   49.2690 C   0  0  0  0  0  0  0  0  0  0  0  0
   61.7170   32.2910   49.1140 C   0  0  0  0  0  0  0  0  0  0  0  0
   59.0740   30.9010   45.7790 C   0  0  0  0  0  0  0  0  0  0  0  0
   59.5350   32.1280   46.1960 C   0  0  0  0  0  0  0  0  0  0  0  0
   58.7910   33.3050   46.0330 C   0  0  0  0  0  0  0  0  0  0  0  0
   59.3560   34.5470   46.4910 C   0  0  0  0  0  0  0  0  0  0  0  0
   59.6720   34.9580   47.8600 C   0  0  0  0  0  0  0  0  0  0  0  0
   59.6200   35.4150   45.5770 O   0  0  0  0  0  0  0  0  0  0  0  0
   57.5670   33.1420   45.4290 C   0  0  0  0  0  0  0  0  0  0  0  0
   56.6810   34.2850   45.1990 C   0  0  0  0  0  0  0  0  0  0  0  0
   57.1300   31.9130   45.0230 N   0  0  0  0  0  0  0  0  0  0  0  0
   57.8420   30.7940   45.1790 C   0  0  0  0  0  0  0  0  0  0  0  0
   57.1943   30.3183   42.4789 H   0  0  0  0  0  0  0  0  0  0  0  0
   56.4025   28.7384   42.1570 H   0  0  0  0  0  0  0  0  0  0  0  0
   55.4285   30.2477   42.1570 H   0  0  0  0  0  0  0  0  0  0  0  0
   55.3593   30.3595   44.4841 H   0  0  0  0  0  0  0  0  0  0  0  0
   55.5044   28.6059   44.3345 H   0  0  0  0  0  0  0  0  0  0  0  0
   57.0160   27.2950   43.6710 H   0  0  0  0  0  0  0  0  0  0  0  0
   59.8180   27.7240   45.6180 H   0  0  0  0  0  0  0  0  0  0  0  0
   60.0843   30.3250   48.3377 H   0  0  0  0  0  0  0  0  0  0  0  0
   61.5694   29.3391   48.4334 H   0  0  0  0  0  0  0  0  0  0  0  0
   63.0331   31.1403   46.2546 H   0  0  0  0  0  0  0  0  0  0  0  0
   64.3529   33.2114   46.5022 H   0  0  0  0  0  0  0  0  0  0  0  0
   63.9852   34.7114   48.4417 H   0  0  0  0  0  0  0  0  0  0  0  0
   62.2638   34.1026   50.1362 H   0  0  0  0  0  0  0  0  0  0  0  0
   60.9609   32.0369   49.8715 H   0  0  0  0  0  0  0  0  0  0  0  0
   60.5235   32.1879   46.6748 H   0  0  0  0  0  0  0  0  0  0  0  0
   59.1600   34.2921   48.5702 H   0  0  0  0  0  0  0  0  0  0  0  0
   60.7588   34.8979   48.0193 H   0  0  0  0  0  0  0  0  0  0  0  0
   59.3347   35.9928   48.0193 H   0  0  0  0  0  0  0  0  0  0  0  0
   56.3594   34.6999   46.1656 H   0  0  0  0  0  0  0  0  0  0  0  0
   57.2189   35.0571   44.6293 H   0  0  0  0  0  0  0  0  0  0  0  0
   55.7992   33.9566   44.6293 H   0  0  0  0  0  0  0  0  0  0  0  0
  1  2  1  0
  2  3  1  0
  3  4  1  0
  4  5  2  3
  4  6  1  0
  6  7  1  0
  7  8  2  0
  8  9  1  0
  9 10  1  0
 10 11  2  0
 11 12  1  0
 12 13  2  0
 13 14  1  0
 14 15  2  0
  7 16  1  0
 16 17  2  0
 17 18  1  0
 18 19  1  0
 19 20  1  0
 19 21  2  0
 18 22  2  0
 22 23  1  0
 22 24  1  0
 24 25  2  0
 25  3  1  0
 15 10  1  0
 25 16  1  0
  1 26  1  0
  1 27  1  0
  1 28  1  0
  2 29  1  0
  2 30  1  0
  5 31  1  0
  6 32  1  0
  9 33  1  0
  9 34  1  0
 11 35  1  0
 12 36  1  0
 13 37  1  0
 14 38  1  0
 15 39  1  0
 17 40  1  0
 20 41  1  0
 20 42  1  0
 20 43  1  0
 23 44  1  0
 23 45  1  0
 23 46  1  0
M  END
>  <smiles>  (8) 
CCn1c(=N)[nH]c(=NCc2ccccc2)c2cc(C(C)=O)c(C)nc21

>  <score_type>  (8) 
oracle

>  <origin>  (8) 
adg

>  <m_score__min__energy>  (8) 
-7.75

>  <m_primary>  (8) 
energy

$$$$
8:0
     RDKit          3D

 55 59  0  0  0  0  0  0  0  0999 V2000
   55.9070   29.8010   43.7860 C   0  0  0  0  0  0  0  0  0  0  0  0
   55.5210   28.8910   44.8070 O   0  0  0  0  0  0  0  0  0  0  0  0
   56.4170   28.1430   45.5860 C   0  0  0  0  0  0  0  0  0  0  0  0
   57.6810   28.6350   45.9630 C   0  0  0  0  0  0  0  0  0  0  0  0
   58.5560   27.8600   46.7390 C   0  0  0  0  0  0  0  0  0  0  0  0
   59.8880   28.4550   47.1700 C   0  0  2  0  0  0  0  0  0  0  0  0
   60.1760   28.2250   48.6380 C   0  0  0  0  0  0  0  0  0  0  0  0
   60.6290   26.9550   49.0630 C   0  0  0  0  0  0  0  0  0  0  0  0
   60.8980   26.7720   50.4130 C   0  0  0  0  0  0  0  0  0  0  0  0
   60.7310   27.7660   51.3180 C   0  0  0  0  0  0  0  0  0  0  0  0
   60.2720   29.0280   50.9540 C   0  0  0  0  0  0  0  0  0  0  0  0
   59.9780   29.2630   49.5930 C   0  0  0  0  0  0  0  0  0  0  0  0
   59.4870   30.6270   49.1920 C   0  0  0  0  0  0  0  0  0  0  0  0
   59.1520   30.7760   47.6930 C   0  0  0  0  0  0  0  0  0  0  0  0
   59.9370   29.8880   46.8110 N   0  0  0  0  0  0  0  0  0  0  0  0
   61.2580   30.4060   46.3810 C   0  0  0  0  0  0  0  0  0  0  0  0
   61.7940   31.5210   47.2520 C   0  0  0  0  0  0  0  0  0  0  0  0
   62.6350   31.2280   48.3400 C   0  0  0  0  0  0  0  0  0  0  0  0
   63.1740   32.2620   49.1110 C   0  0  0  0  0  0  0  0  0  0  0  0
   62.8610   33.5910   48.8170 C   0  0  0  0  0  0  0  0  0  0  0  0
   61.9930   33.8890   47.7630 C   0  0  0  0  0  0  0  0  0  0  0  0
   61.4480   32.8590   46.9930 C   0  0  0  0  0  0  0  0  0  0  0  0
   61.0800   27.3080   52.5740 O   0  0  0  0  0  0  0  0  0  0  0  0
   61.4930   25.9400   52.4480 C   0  0  0  0  0  0  0  0  0  0  0  0
   61.3590   25.6380   51.0520 O   0  0  0  0  0  0  0  0  0  0  0  0
   58.1380   26.5860   47.1630 C   0  0  0  0  0  0  0  0  0  0  0  0
   56.8800   26.0780   46.7920 C   0  0  0  0  0  0  0  0  0  0  0  0
   56.4410   24.8010   47.1910 O   0  0  0  0  0  0  0  0  0  0  0  0
   56.0330   23.7720   46.2930 C   0  0  0  0  0  0  0  0  0  0  0  0
   56.0290   26.8640   46.0020 C   0  0  0  0  0  0  0  0  0  0  0  0
   54.7830   26.3710   45.6280 O   0  0  0  0  0  0  0  0  0  0  0  0
   56.2976   30.7217   44.2439 H   0  0  0  0  0  0  0  0  0  0  0  0
   56.6880   29.3421   43.1619 H   0  0  0  0  0  0  0  0  0  0  0  0
   55.0343   30.0435   43.1619 H   0  0  0  0  0  0  0  0  0  0  0  0
   57.9873   29.6423   45.6443 H   0  0  0  0  0  0  0  0  0  0  0  0
   60.6881   27.9319   46.6257 H   0  0  0  0  0  0  0  0  0  0  0  0
   60.7647   26.1339   48.3437 H   0  0  0  0  0  0  0  0  0  0  0  0
   60.1418   29.8206   51.7055 H   0  0  0  0  0  0  0  0  0  0  0  0
   58.5775   30.8475   49.7701 H   0  0  0  0  0  0  0  0  0  0  0  0
   60.3104   31.3268   49.3977 H   0  0  0  0  0  0  0  0  0  0  0  0
   58.0851   30.5479   47.5526 H   0  0  0  0  0  0  0  0  0  0  0  0
   59.4048   31.8089   47.4114 H   0  0  0  0  0  0  0  0  0  0  0  0
   61.9785   29.5750   46.4002 H   0  0  0  0  0  0  0  0  0  0  0  0
   61.1230   30.8257   45.3732 H   0  0  0  0  0  0  0  0  0  0  0  0
   62.8696   30.1817   48.5853 H   0  0  0  0  0  0  0  0  0  0  0  0
   63.8456   32.0286   49.9504 H   0  0  0  0  0  0  0  0  0  0  0  0
   63.2980   34.4039   49.4156 H   0  0  0  0  0  0  0  0  0  0  0  0
   61.7388   34.9357   47.5396 H   0  0  0  0  0  0  0  0  0  0  0  0
   60.7452   33.0956   46.1806 H   0  0  0  0  0  0  0  0  0  0  0  0
   62.5378   25.8204   52.7707 H   0  0  0  0  0  0  0  0  0  0  0  0
   60.8901   25.2672   53.0757 H   0  0  0  0  0  0  0  0  0  0  0  0
   58.8040   25.9785   47.7934 H   0  0  0  0  0  0  0  0  0  0  0  0
   55.6872   22.8999   46.8674 H   0  0  0  0  0  0  0  0  0  0  0  0
   55.2135   24.1420   45.6593 H   0  0  0  0  0  0  0  0  0  0  0  0
   56.8834   23.4799   45.6593 H   0  0  0  0  0  0  0  0  0  0  0  0
  1  2  1  0
  2  3  1  0
  3  4  2  0
  4  5  1  0
  5  6  1  0
  6  7  1  0
  7  8  2  0
  8  9  1  0
  9 10  2  0
 10 11  1  0
 11 12  2  0
 12 13  1  0
 13 14  1  0
 14 15  1  0
 15 16  1  0
 16 17  1  0
 17 18  2  0
 18 19  1  0
 19 20  2  0
 20 21  1  0
 21 22  2  0
 10 23  1  0
 23 24  1  0
 24 25  1  0
  5 26  2  0
 26 27  1  0
 27 28  1  0
 28 29  1  0
 27 30  2  0
 30 31  1  0
 30  3  1  0
 15  6  1  0
 22 17  1  0
 12  7  1  0
 25  9  1  0
  1 32  1  0
  1 33  1  0
  1 34  1  0
  4 35  1  0
  6 36  1  6
  8 37  1  0
 11 38  1  0
 13 39  1  0
 13 40  1  0
 14 41  1  0
 14 42  1  0
 16 43  1  0
 16 44  1  0
 18 45  1  0
 19 46  1  0
 20 47  1  0
 21 48  1  0
 22 49  1  0
 24 50  1  0
 24 51  1  0
 26 52  1  0
 29 53  1  0
 29 54  1  0
 29 55  1  0
M  CHG  1  31  -1
M  END
>  <UniqueID>  (9) 
7

>  <SMILES>  (9) 
COc1cc([C@@H]2c3cc4c(cc3CCN2Cc2ccccc2)OCO4)cc(OC)c1[O-]

>  <Energy>  (9) 
97.99680781703131

>  <Genealogy>  (9) 
COc1cc(C2c3cc4c(cc3CCN2Cc2ccccc2)OCO4)cc(OC)c1[O-] (protonated)
COc1cc([C@@H]2c3cc4c(cc3CCN2Cc2ccccc2)OCO4)cc(OC)c1[O-] (chirality)
COc1cc([C@@H]2c3cc4c(cc3CCN2Cc2ccccc2)OCO4)cc(OC)c1[O-] (3D coordinates assigned)
COc1cc([C@@H]2c3cc4c(cc3CCN2Cc2ccccc2)OCO4)cc(OC)c1[O-] (nonaromatic ring conformer: 97.99680781703131 kcal/mol)

>  <smiles>  (9) 
COc1cc(C2c3cc4c(cc3CCN2Cc2ccccc2)OCO4)cc(OC)c1O

>  <score_type>  (9) 
oracle

>  <origin>  (9) 
adg

>  <m_score__min__energy>  (9) 
-11.24

>  <m_primary>  (9) 
energy

$$$$
9:0
     RDKit          3D

 47 49  0  0  0  0  0  0  0  0999 V2000
   56.5520   29.8590   43.0060 C   0  0  0  0  0  0  0  0  0  0  0  0
   57.2440   30.3900   44.1920 N   0  0  0  0  0  0  0  0  0  0  0  0
   57.6370   31.7090   44.2230 C   0  0  0  0  0  0  0  0  0  0  0  0
   57.4010   32.4860   43.2570 O   0  0  0  0  0  0  0  0  0  0  0  0
   58.3060   32.1700   45.3500 C   0  0  0  0  0  0  0  0  0  0  0  0
   58.5800   31.3300   46.3760 C   0  0  0  0  0  0  0  0  0  0  0  0
   59.2230   31.9760   47.3690 N   0  0  0  0  0  0  0  0  0  0  0  0
   59.3180   33.2420   46.8820 C   0  0  0  0  0  0  0  0  0  0  0  0
   59.9230   34.2900   47.5790 O   0  0  0  0  0  0  0  0  0  0  0  0
   60.1430   34.2480   48.9850 C   0  0  0  0  0  0  0  0  0  0  0  0
   61.6300   34.0080   49.2940 C   0  0  1  0  0  0  0  0  0  0  0  0
   61.8280   32.8000   50.2240 C   0  0  0  0  0  0  0  0  0  0  0  0
   63.3150   32.6020   50.5940 C   0  0  0  0  0  0  0  0  0  0  0  0
   64.2510   33.2270   49.6260 N   0  0  1  0  0  0  0  0  0  0  0  0
   65.5980   32.6490   49.7740 C   0  0  0  0  0  0  0  0  0  0  0  0
   63.7780   33.0720   48.2350 C   0  0  0  0  0  0  0  0  0  0  0  0
   62.4600   33.8420   48.0000 C   0  0  0  0  0  0  0  0  0  0  0  0
   58.7700   33.3950   45.6510 N   0  0  0  0  0  0  0  0  0  0  0  0
   58.6980   34.6150   44.8530 C   0  0  0  0  0  0  0  0  0  0  0  0
   58.2400   30.0120   46.3470 N   0  0  0  0  0  0  0  0  0  0  0  0
   58.5340   29.1330   47.4870 C   0  0  0  0  0  0  0  0  0  0  0  0
   57.5570   29.5440   45.2440 C   0  0  0  0  0  0  0  0  0  0  0  0
   57.2150   28.3290   45.1950 O   0  0  0  0  0  0  0  0  0  0  0  0
   55.7168   29.2181   43.3251 H   0  0  0  0  0  0  0  0  0  0  0  0
   56.1643   30.6936   42.4034 H   0  0  0  0  0  0  0  0  0  0  0  0
   57.2578   29.2685   42.4034 H   0  0  0  0  0  0  0  0  0  0  0  0
   59.8318   35.2054   49.4282 H   0  0  0  0  0  0  0  0  0  0  0  0
   59.5548   33.4219   49.4111 H   0  0  0  0  0  0  0  0  0  0  0  0
   61.9959   34.9025   49.8193 H   0  0  0  0  0  0  0  0  0  0  0  0
   61.4635   31.8951   49.7157 H   0  0  0  0  0  0  0  0  0  0  0  0
   61.2654   32.9848   51.1510 H   0  0  0  0  0  0  0  0  0  0  0  0
   63.5238   31.5227   50.6340 H   0  0  0  0  0  0  0  0  0  0  0  0
   63.4764   33.0926   51.5652 H   0  0  0  0  0  0  0  0  0  0  0  0
   64.3310   34.2510   49.8410 H   0  0  0  0  0  0  0  0  0  0  0  0
   65.8375   32.5462   50.8427 H   0  0  0  0  0  0  0  0  0  0  0  0
   65.6270   31.6592   49.2949 H   0  0  0  0  0  0  0  0  0  0  0  0
   66.3353   33.3100   49.2949 H   0  0  0  0  0  0  0  0  0  0  0  0
   63.6102   32.0042   48.0307 H   0  0  0  0  0  0  0  0  0  0  0  0
   64.5441   33.4822   47.5606 H   0  0  0  0  0  0  0  0  0  0  0  0
   61.8570   33.2917   47.2628 H   0  0  0  0  0  0  0  0  0  0  0  0
   62.7213   34.8481   47.6402 H   0  0  0  0  0  0  0  0  0  0  0  0
   58.6465   35.4875   45.5209 H   0  0  0  0  0  0  0  0  0  0  0  0
   59.5932   34.6914   44.2183 H   0  0  0  0  0  0  0  0  0  0  0  0
   57.8000   34.5856   44.2183 H   0  0  0  0  0  0  0  0  0  0  0  0
   58.3521   29.6768   48.4257 H   0  0  0  0  0  0  0  0  0  0  0  0
   57.8832   28.2472   47.4444 H   0  0  0  0  0  0  0  0  0  0  0  0
   59.5868   28.8170   47.4444 H   0  0  0  0  0  0  0  0  0  0  0  0
  1  2  1  0
  2  3  1  0
  3  4  2  0
  3  5  1  0
  5  6  2  0
  6  7  1  0
  7  8  2  0
  8  9  1  0
  9 10  1  0
 10 11  1  0
 11 12  1  0
 12 13  1  0
 13 14  1  0
 14 15  1  0
 14 16  1  0
 16 17  1  0
  8 18  1  0
 18 19  1  0
  6 20  1  0
 20 21  1  0
 20 22  1  0
 22 23  2  0
 22  2  1  0
 18  5  1  0
 17 11  1  0
  1 24  1  0
  1 25  1  0
  1 26  1  0
 10 27  1  0
 10 28  1  0
 11 29  1  1
 12 30  1  0
 12 31  1  0
 13 32  1  0
 13 33  1  0
 14 34  1  1
 15 35  1  0
 15 36  1  0
 15 37  1  0
 16 38  1  0
 16 39  1  0
 17 40  1  0
 17 41  1  0
 19 42  1  0
 19 43  1  0
 19 44  1  0
 21 45  1  0
 21 46  1  0
 21 47  1  0
M  CHG  1  14   1
M  END
>  <UniqueID>  (10) 
8

>  <SMILES>  (10) 
Cn1c(=O)c2c(nc(OCC3CC[NH+](C)CC3)n2C)n(C)c1=O

>  <Energy>  (10) 
94.57229104178398

>  <Genealogy>  (10) 
Cn1c(=O)c2c(nc(OCC3CC[NH+](C)CC3)n2C)n(C)c1=O (protonated)
Cn1c(=O)c2c(nc(OCC3CC[NH+](C)CC3)n2C)n(C)c1=O (3D coordinates assigned)
Cn1c(=O)c2c(nc(OCC3CC[NH+](C)CC3)n2C)n(C)c1=O (nonaromatic ring conformer: 94.57229104178398 kcal/mol)

>  <smiles>  (10) 
CN1CCC(COc2nc3c(c(=O)n(C)c(=O)n3C)n2C)CC1

>  <score_type>  (10) 
oracle

>  <origin>  (10) 
adg

>  <m_score__min__energy>  (10) 
-5.0199999999999996

>  <m_primary>  (10) 
energy

$$$$
10:0
     RDKit          3D

 30 31  0  0  0  0  0  0  0  0999 V2000
   57.3815   33.8351   43.0958 H   0  0  0  0  0  0  0  0  0  0  0  0
   57.7910   33.0530   43.7520 C   0  0  0  0  0  0  0  0  0  0  0  0
   57.7800   31.8240   43.3190 N   0  0  0  0  0  0  0  0  0  0  0  0
   57.1710   30.7370   43.9740 N   0  0  0  0  0  0  0  0  0  0  0  0
   57.6800   29.9650   44.9510 C   0  0  0  0  0  0  0  0  0  0  0  0
   58.7322   29.9707   45.2717 H   0  0  0  0  0  0  0  0  0  0  0  0
   56.7190   29.1840   45.4810 N   0  0  0  0  0  0  0  0  0  0  0  0
   55.5850   29.4820   44.8610 N   0  0  0  0  0  0  0  0  0  0  0  0
   55.8640   30.4430   43.9590 C   0  0  0  0  0  0  0  0  0  0  0  0
   55.1220   30.9199   43.3017 H   0  0  0  0  0  0  0  0  0  0  0  0
   58.3200   33.4610   45.0710 C   0  0  0  0  0  0  0  0  0  0  0  0
   59.4060   34.3460   45.1290 C   0  0  0  0  0  0  0  0  0  0  0  0
   59.8346   34.7474   44.1989 H   0  0  0  0  0  0  0  0  0  0  0  0
   59.9470   34.7210   46.3620 C   0  0  0  0  0  0  0  0  0  0  0  0
   60.7909   35.4257   46.3977 H   0  0  0  0  0  0  0  0  0  0  0  0
   59.4190   34.2030   47.5550 C   0  0  0  0  0  0  0  0  0  0  0  0
   60.0150   34.5870   48.8850 C   0  0  0  0  0  0  0  0  0  0  0  0
   59.2296   34.5378   49.6536 H   0  0  0  0  0  0  0  0  0  0  0  0
   60.4199   35.6058   48.7944 H   0  0  0  0  0  0  0  0  0  0  0  0
   61.1650   33.6540   49.2910 C   0  0  0  0  0  0  0  0  0  0  0  0
   60.8192   32.6127   49.2127 H   0  0  0  0  0  0  0  0  0  0  0  0
   61.4536   33.9071   50.3219 H   0  0  0  0  0  0  0  0  0  0  0  0
   62.3990   33.8290   48.4060 C   0  0  0  0  0  0  0  0  0  0  0  0
   63.2895   33.9553   49.0393 H   0  0  0  0  0  0  0  0  0  0  0  0
   62.5239   32.9396   47.7709 H   0  0  0  0  0  0  0  0  0  0  0  0
   62.2716   34.7181   47.7709 H   0  0  0  0  0  0  0  0  0  0  0  0
   58.3550   33.2890   47.4950 C   0  0  0  0  0  0  0  0  0  0  0  0
   57.9438   32.8661   48.4235 H   0  0  0  0  0  0  0  0  0  0  0  0
   57.8160   32.9140   46.2620 C   0  0  0  0  0  0  0  0  0  0  0  0
   56.9921   32.1861   46.2239 H   0  0  0  0  0  0  0  0  0  0  0  0
  1  2  1  0
  2  3  2  0
  3  4  1  0
  4  5  1  0
  5  6  1  0
  5  7  2  0
  7  8  1  0
  8  9  2  0
  9 10  1  0
  2 11  1  0
 11 12  2  0
 12 13  1  0
 12 14  1  0
 14 15  1  0
 14 16  2  0
 16 17  1  0
 17 18  1  0
 17 19  1  0
 17 20  1  0
 20 21  1  0
 20 22  1  0
 20 23  1  0
 23 24  1  0
 23 25  1  0
 23 26  1  0
 16 27  1  0
 27 28  1  0
 27 29  2  0
 29 30  1  0
  9  4  1  0
 29 11  1  0
M  END
>  <UniqueID>  (11) 
9

>  <SMILES>  (11) 
CCCc1ccc(/C=N\n2cnnc2)cc1

>  <Energy>  (11) 
70.66797468327182

>  <Genealogy>  (11) 
CCCc1ccc(/C=N\n2cnnc2)cc1 (cis-trans isomerization)
CCCc1ccc(/C=N\n2cnnc2)cc1 (3D coordinates assigned)
CCCc1ccc(/C=N\n2cnnc2)cc1 (optimized conformer: 70.66797468327182 kcal/mol)

>  <smiles>  (11) 
CCCc1ccc(C=Nn2cnnc2)cc1

>  <score_type>  (11) 
oracle

>  <origin>  (11) 
adg

>  <m_score__min__energy>  (11) 
-6.1500000000000004

>  <m_primary>  (11) 
energy

$$$$
11:0
     RDKit          3D

 30 32  0  0  0  0  0  0  0  0999 V2000
   55.5180   29.7340   43.6650 C   0  0  0  0  0  0  0  0  0  0  0  0
   55.5990   28.9720   44.8660 O   0  0  0  0  0  0  0  0  0  0  0  0
   56.7890   28.4490   45.3960 C   0  0  0  0  0  0  0  0  0  0  0  0
   57.0150   27.0620   45.5080 C   0  0  0  0  0  0  0  0  0  0  0  0
   58.2140   26.5810   46.0420 C   0  0  0  0  0  0  0  0  0  0  0  0
   59.2010   27.4690   46.4720 C   0  0  0  0  0  0  0  0  0  0  0  0
   58.9940   28.8510   46.3700 C   0  0  0  0  0  0  0  0  0  0  0  0
   59.9460   29.7360   46.7830 N   0  0  0  0  0  0  0  0  0  0  0  0
   59.7530   31.0850   46.6830 C   0  0  0  0  0  0  0  0  0  0  0  0
   60.7990   32.0330   47.1450 C   0  0  0  0  0  0  0  0  0  0  0  0
   62.1540   31.6610   47.1580 C   0  0  0  0  0  0  0  0  0  0  0  0
   63.1170   32.5710   47.6000 C   0  0  0  0  0  0  0  0  0  0  0  0
   62.7450   33.8100   48.0140 N   0  0  0  0  0  0  0  0  0  0  0  0
   61.4430   34.2010   48.0140 C   0  0  0  0  0  0  0  0  0  0  0  0
   60.4480   33.3220   47.5810 C   0  0  0  0  0  0  0  0  0  0  0  0
   58.5450   31.5600   46.1430 C   0  0  0  0  0  0  0  0  0  0  0  0
   57.5970   30.6800   45.7330 N   0  0  0  0  0  0  0  0  0  0  0  0
   57.7840   29.3390   45.8290 C   0  0  0  0  0  0  0  0  0  0  0  0
   55.4047   30.7995   43.9137 H   0  0  0  0  0  0  0  0  0  0  0  0
   56.4365   29.5904   43.0770 H   0  0  0  0  0  0  0  0  0  0  0  0
   54.6502   29.4005   43.0770 H   0  0  0  0  0  0  0  0  0  0  0  0
   56.2429   26.3537   45.1730 H   0  0  0  0  0  0  0  0  0  0  0  0
   58.3804   25.4967   46.1237 H   0  0  0  0  0  0  0  0  0  0  0  0
   60.1421   27.0837   46.8913 H   0  0  0  0  0  0  0  0  0  0  0  0
   60.8500   29.3700   47.1620 H   0  0  0  0  0  0  0  0  0  0  0  0
   62.4549   30.6578   46.8217 H   0  0  0  0  0  0  0  0  0  0  0  0
   64.1787   32.2837   47.6128 H   0  0  0  0  0  0  0  0  0  0  0  0
   61.1729   35.2111   48.3555 H   0  0  0  0  0  0  0  0  0  0  0  0
   59.3941   33.6372   47.5812 H   0  0  0  0  0  0  0  0  0  0  0  0
   58.3688   32.6421   46.0531 H   0  0  0  0  0  0  0  0  0  0  0  0
  1  2  1  0
  2  3  1  0
  3  4  2  0
  4  5  1  0
  5  6  2  0
  6  7  1  0
  7  8  2  0
  8  9  1  0
  9 10  1  0
 10 11  2  0
 11 12  1  0
 12 13  2  0
 13 14  1  0
 14 15  2  0
  9 16  2  0
 16 17  1  0
 17 18  2  0
 18  3  1  0
 18  7  1  0
 15 10  1  0
  1 19  1  0
  1 20  1  0
  1 21  1  0
  4 22  1  0
  5 23  1  0
  6 24  1  0
  8 25  1  0
 11 26  1  0
 12 27  1  0
 14 28  1  0
 15 29  1  0
 16 30  1  0
M  CHG  1   8   1
M  END
>  <UniqueID>  (12) 
10

>  <SMILES>  (12) 
COc1cccc2[nH+]c(-c3ccncc3)cnc12

>  <Energy>  (12) 
42.02923155726971

>  <Genealogy>  (12) 
COc1cccc2[nH+]c(-c3ccncc3)cnc12 (protonated)
COc1cccc2[nH+]c(-c3ccncc3)cnc12 (3D coordinates assigned)
COc1cccc2[nH+]c(-c3ccncc3)cnc12 (optimized conformer: 42.02923155726971 kcal/mol)

>  <smiles>  (12) 
COc1cccc2nc(-c3ccncc3)cnc12

>  <score_type>  (12) 
oracle

>  <origin>  (12) 
adg

>  <m_score__min__energy>  (12) 
-4.6200000000000001

>  <m_primary>  (12) 
energy

$$$$
12:0
     RDKit          3D

 35 36  0  0  0  0  0  0  0  0999 V2000
   60.0470   34.5980   48.0510 C   0  0  0  0  0  0  0  0  0  0  0  0
   58.9350   34.7470   47.1740 O   0  0  0  0  0  0  0  0  0  0  0  0
   58.4730   33.7650   46.2830 C   0  0  0  0  0  0  0  0  0  0  0  0
   58.1840   34.0830   44.9390 C   0  0  0  0  0  0  0  0  0  0  0  0
   57.7760   33.0920   44.0450 C   0  0  0  0  0  0  0  0  0  0  0  0
   57.6450   31.7660   44.4720 C   0  0  0  0  0  0  0  0  0  0  0  0
   57.1910   30.7000   43.5140 C   0  0  0  0  0  0  0  0  0  0  0  0
   56.5840   29.5530   44.2700 C   0  0  0  0  0  0  0  0  0  0  0  0
   55.5160   29.7210   44.8450 O   0  0  0  0  0  0  0  0  0  0  0  0
   57.2520   28.2670   44.3050 N   0  0  0  0  0  0  0  0  0  0  0  0
   58.7060   28.3550   44.1160 C   0  0  0  0  0  0  0  0  0  0  0  0
   58.9910   27.8280   45.5130 C   0  0  0  0  0  0  0  0  0  0  0  0
   57.4790   27.7520   45.6620 C   0  0  0  0  0  0  0  0  0  0  0  0
   57.8970   31.4490   45.8130 C   0  0  0  0  0  0  0  0  0  0  0  0
   58.3030   32.4290   46.7270 C   0  0  0  0  0  0  0  0  0  0  0  0
   58.5260   32.0070   48.0500 O   0  0  0  0  0  0  0  0  0  0  0  0
   59.4760   31.0350   48.4730 C   0  0  0  0  0  0  0  0  0  0  0  0
   59.7003   34.6445   49.0939 H   0  0  0  0  0  0  0  0  0  0  0  0
   60.5306   33.6270   47.8683 H   0  0  0  0  0  0  0  0  0  0  0  0
   60.7691   35.4074   47.8683 H   0  0  0  0  0  0  0  0  0  0  0  0
   58.2812   35.1224   44.5924 H   0  0  0  0  0  0  0  0  0  0  0  0
   57.5564   33.3546   42.9996 H   0  0  0  0  0  0  0  0  0  0  0  0
   56.4411   31.1218   42.8287 H   0  0  0  0  0  0  0  0  0  0  0  0
   58.0574   30.3366   42.9420 H   0  0  0  0  0  0  0  0  0  0  0  0
   56.8140   27.5440   43.6840 H   0  0  0  0  0  0  0  0  0  0  0  0
   59.0844   27.7023   43.3155 H   0  0  0  0  0  0  0  0  0  0  0  0
   59.1461   29.3152   43.8088 H   0  0  0  0  0  0  0  0  0  0  0  0
   59.5125   26.8602   45.5491 H   0  0  0  0  0  0  0  0  0  0  0  0
   59.6345   28.3585   46.2302 H   0  0  0  0  0  0  0  0  0  0  0  0
   57.1038   26.7288   45.8114 H   0  0  0  0  0  0  0  0  0  0  0  0
   57.0007   28.2603   46.5122 H   0  0  0  0  0  0  0  0  0  0  0  0
   57.7736   30.4106   46.1544 H   0  0  0  0  0  0  0  0  0  0  0  0
   59.5053   31.0050   49.5722 H   0  0  0  0  0  0  0  0  0  0  0  0
   59.1861   30.0466   48.0868 H   0  0  0  0  0  0  0  0  0  0  0  0
   60.4707   31.3022   48.0868 H   0  0  0  0  0  0  0  0  0  0  0  0
  1  2  1  0
  2  3  1  0
  3  4  2  0
  4  5  1  0
  5  6  2  0
  6  7  1  0
  7  8  1  0
  8  9  2  0
  8 10  1  0
 10 11  1  0
 11 12  1  0
 12 13  1  0
  6 14  1  0
 14 15  2  0
 15 16  1  0
 16 17  1  0
 15  3  1  0
 13 10  1  0
  1 18  1  0
  1 19  1  0
  1 20  1  0
  4 21  1  0
  5 22  1  0
  7 23  1  0
  7 24  1  0
 10 25  1  0
 11 26  1  0
 11 27  1  0
 12 28  1  0
 12 29  1  0
 13 30  1  0
 13 31  1  0
 14 32  1  0
 17 33  1  0
 17 34  1  0
 17 35  1  0
M  CHG  1  10   1
M  END
>  <UniqueID>  (13) 
11

>  <SMILES>  (13) 
COc1ccc(CC(=O)[NH+]2CCC2)cc1OC

>  <Energy>  (13) 
106.4498800200642

>  <Genealogy>  (13) 
COc1ccc(CC(=O)[NH+]2CCC2)cc1OC (protonated)
COc1ccc(CC(=O)[NH+]2CCC2)cc1OC (3D coordinates assigned)
COc1ccc(CC(=O)[NH+]2CCC2)cc1OC (nonaromatic ring conformer: 106.4498800200642 kcal/mol)

>  <smiles>  (13) 
COc1ccc(CC(=O)N2CCC2)cc1OC

>  <score_type>  (13) 
oracle

>  <origin>  (13) 
adg

>  <m_score__min__energy>  (13) 
-4.4100000000000001

>  <m_primary>  (13) 
energy

$$$$
13:0
     RDKit          3D

 53 56  0  0  0  0  0  0  0  0999 V2000
   62.8480   32.3050   47.4760 C   0  0  0  0  0  0  0  0  0  0  0  0
   61.8290   31.2340   47.8440 C   0  0  0  0  0  0  0  0  0  0  0  0
   61.3750   30.5710   46.6790 O   0  0  0  0  0  0  0  0  0  0  0  0
   59.9630   30.5510   46.6370 C   0  0  0  0  0  0  0  0  0  0  0  0
   59.4960   30.0560   45.2700 C   0  0  0  0  0  0  0  0  0  0  0  0
   58.0720   30.3280   45.0830 N   0  0  0  0  0  0  0  0  0  0  0  0
   57.1120   29.4530   45.3220 N   0  0  0  0  0  0  0  0  0  0  0  0
   55.9510   29.9840   44.9680 N   0  0  0  0  0  0  0  0  0  0  0  0
   56.1400   31.2050   44.4830 N   0  0  0  0  0  0  0  0  0  0  0  0
   57.4690   31.4120   44.5530 C   0  0  0  0  0  0  0  0  0  0  0  0
   58.1460   32.6860   44.1090 C   0  0  0  0  0  0  0  0  0  0  0  0
   58.2890   33.6800   45.1940 N   0  0  0  0  0  0  0  0  0  0  0  0
   57.3190   33.5070   46.3040 C   0  0  0  0  0  0  0  0  0  0  0  0
   58.0020   33.0830   47.6120 C   0  0  0  0  0  0  0  0  0  0  0  0
   59.0130   34.0760   48.0400 N   0  0  0  0  0  0  0  0  0  0  0  0
   59.9220   33.4860   49.0450 C   0  0  0  0  0  0  0  0  0  0  0  0
   59.1430   33.0050   50.2410 C   0  0  0  0  0  0  0  0  0  0  0  0
   58.9520   33.8500   51.3650 C   0  0  0  0  0  0  0  0  0  0  0  0
   58.2170   33.4010   52.4770 C   0  0  0  0  0  0  0  0  0  0  0  0
   57.6910   32.1150   52.4320 C   0  0  0  0  0  0  0  0  0  0  0  0
   57.8710   31.3020   51.3610 C   0  0  0  0  0  0  0  0  0  0  0  0
   58.5900   31.7060   50.2410 C   0  0  0  0  0  0  0  0  0  0  0  0
   57.2420   30.0930   51.5900 O   0  0  0  0  0  0  0  0  0  0  0  0
   56.6310   30.1500   52.8870 C   0  0  0  0  0  0  0  0  0  0  0  0
   56.9420   31.4570   53.3890 O   0  0  0  0  0  0  0  0  0  0  0  0
   59.7550   34.7000   46.9110 C   0  0  0  0  0  0  0  0  0  0  0  0
   59.6910   33.8580   45.6310 C   0  0  0  0  0  0  0  0  0  0  0  0
   63.2659   32.7443   48.3938 H   0  0  0  0  0  0  0  0  0  0  0  0
   63.6576   31.8529   46.8842 H   0  0  0  0  0  0  0  0  0  0  0  0
   62.3562   33.0911   46.8842 H   0  0  0  0  0  0  0  0  0  0  0  0
   62.2979   30.5028   48.5189 H   0  0  0  0  0  0  0  0  0  0  0  0
   60.9722   31.7100   48.3433 H   0  0  0  0  0  0  0  0  0  0  0  0
   59.5834   29.8772   47.4192 H   0  0  0  0  0  0  0  0  0  0  0  0
   59.5789   31.5676   46.8071 H   0  0  0  0  0  0  0  0  0  0  0  0
   60.0685   30.5706   44.4843 H   0  0  0  0  0  0  0  0  0  0  0  0
   59.6602   28.9699   45.2112 H   0  0  0  0  0  0  0  0  0  0  0  0
   59.1480   32.4355   43.7305 H   0  0  0  0  0  0  0  0  0  0  0  0
   57.5116   33.1392   43.3330 H   0  0  0  0  0  0  0  0  0  0  0  0
   56.7973   34.4611   46.4702 H   0  0  0  0  0  0  0  0  0  0  0  0
   56.6166   32.7106   46.0169 H   0  0  0  0  0  0  0  0  0  0  0  0
   57.2395   32.9866   48.3990 H   0  0  0  0  0  0  0  0  0  0  0  0
   58.5106   32.1227   47.4415 H   0  0  0  0  0  0  0  0  0  0  0  0
   60.4566   32.6363   48.5953 H   0  0  0  0  0  0  0  0  0  0  0  0
   60.6385   34.2540   49.3718 H   0  0  0  0  0  0  0  0  0  0  0  0
   59.3815   34.8627   51.3666 H   0  0  0  0  0  0  0  0  0  0  0  0
   58.0633   34.0468   53.3541 H   0  0  0  0  0  0  0  0  0  0  0  0
   58.7238   31.0335   49.3809 H   0  0  0  0  0  0  0  0  0  0  0  0
   55.5421   30.0159   52.8072 H   0  0  0  0  0  0  0  0  0  0  0  0
   56.9994   29.3546   53.5516 H   0  0  0  0  0  0  0  0  0  0  0  0
   59.3186   35.6886   46.7054 H   0  0  0  0  0  0  0  0  0  0  0  0
   60.8114   34.7786   47.2075 H   0  0  0  0  0  0  0  0  0  0  0  0
   60.2558   34.3661   44.8355 H   0  0  0  0  0  0  0  0  0  0  0  0
   60.1269   32.8689   45.8352 H   0  0  0  0  0  0  0  0  0  0  0  0
  1  2  1  0
  2  3  1  0
  3  4  1  0
  4  5  1  0
  5  6  1  0
  6  7  1  0
  7  8  2  0
  8  9  1  0
  9 10  2  0
 10 11  1  0
 11 12  1  0
 12 13  1  0
 13 14  1  0
 14 15  1  0
 15 16  1  0
 16 17  1  0
 17 18  2  0
 18 19  1  0
 19 20  2  0
 20 21  1  0
 21 22  2  0
 21 23  1  0
 23 24  1  0
 24 25  1  0
 15 26  1  0
 26 27  1  0
 10  6  1  0
 27 12  1  0
 22 17  1  0
 25 20  1  0
  1 28  1  0
  1 29  1  0
  1 30  1  0
  2 31  1  0
  2 32  1  0
  4 33  1  0
  4 34  1  0
  5 35  1  0
  5 36  1  0
 11 37  1  0
 11 38  1  0
 13 39  1  0
 13 40  1  0
 14 41  1  0
 14 42  1  0
 16 43  1  0
 16 44  1  0
 18 45  1  0
 19 46  1  0
 22 47  1  0
 24 48  1  0
 24 49  1  0
 26 50  1  0
 26 51  1  0
 27 52  1  0
 27 53  1  0
M  END
>  <UniqueID>  (14) 
12

>  <SMILES>  (14) 
CCOCCn1nnnc1CN1CCN(Cc2ccc3c(c2)OCO3)CC1

>  <Energy>  (14) 
133.08587398023792

>  <Genealogy>  (14) 
CCOCCn1nnnc1CN1CCN(Cc2ccc3c(c2)OCO3)CC1 (3D coordinates assigned)
CCOCCn1nnnc1CN1CCN(Cc2ccc3c(c2)OCO3)CC1 (nonaromatic ring conformer: 133.08587398023792 kcal/mol)

>  <smiles>  (14) 
CCOCCn1nnnc1CN1CCN(Cc2ccc3c(c2)OCO3)CC1

>  <score_type>  (14) 
oracle

>  <origin>  (14) 
adg

>  <m_score__min__energy>  (14) 
-8.2200000000000006

>  <m_primary>  (14) 
energy

$$$$
14:0
     RDKit          3D

 48 51  0  0  0  0  0  0  0  0999 V2000
   61.0460   30.1350   49.6240 C   0  0  0  0  0  0  0  0  0  0  0  0
   61.6230   31.4010   49.3240 O   0  0  0  0  0  0  0  0  0  0  0  0
   61.0790   32.3210   48.4160 C   0  0  0  0  0  0  0  0  0  0  0  0
   59.7580   32.7450   48.6060 C   0  0  0  0  0  0  0  0  0  0  0  0
   59.1570   33.6260   47.7020 C   0  0  0  0  0  0  0  0  0  0  0  0
   59.8710   34.0940   46.5890 C   0  0  0  0  0  0  0  0  0  0  0  0
   59.1900   34.9480   45.5490 C   0  0  0  0  0  0  0  0  0  0  0  0
   58.0580   34.2460   44.9410 N   0  0  0  0  0  0  0  0  0  0  0  0
   58.1430   33.0430   44.1630 C   0  0  0  0  0  0  0  0  0  0  0  0
   58.4470   33.1230   42.9440 O   0  0  0  0  0  0  0  0  0  0  0  0
   57.8150   31.7300   44.7360 C   0  0  0  0  0  0  0  0  0  0  0  0
   56.6030   31.0950   44.4280 C   0  0  0  0  0  0  0  0  0  0  0  0
   56.3620   29.8300   44.8670 N   0  0  0  0  0  0  0  0  0  0  0  0
   57.2740   29.1480   45.6090 C   0  0  0  0  0  0  0  0  0  0  0  0
   57.0190   27.8740   46.0000 N   0  0  0  0  0  0  0  0  0  0  0  0
   57.9260   27.1660   46.7300 C   0  0  0  0  0  0  0  0  0  0  0  0
   57.6980   25.9340   47.0800 N   0  0  0  0  0  0  0  0  0  0  0  0
   57.3100   24.8500   46.2190 C   0  0  0  0  0  0  0  0  0  0  0  0
   57.0140   23.5690   46.7180 C   0  0  0  0  0  0  0  0  0  0  0  0
   56.6720   22.5320   45.8450 C   0  0  0  0  0  0  0  0  0  0  0  0
   56.6380   22.7510   44.4580 C   0  0  0  0  0  0  0  0  0  0  0  0
   56.2750   21.6510   43.5370 C   0  0  0  0  0  0  0  0  0  0  0  0
   56.2210   21.8480   42.2930 O   0  0  0  0  0  0  0  0  0  0  0  0
   55.9850   20.3840   44.0300 O   0  0  0  0  0  0  0  0  0  0  0  0
   56.9660   24.0240   43.9600 C   0  0  0  0  0  0  0  0  0  0  0  0
   57.3080   25.0590   44.8350 C   0  0  0  0  0  0  0  0  0  0  0  0
   59.1160   27.7370   47.0600 N   0  0  0  0  0  0  0  0  0  0  0  0
   59.4160   29.0100   46.6940 C   0  0  0  0  0  0  0  0  0  0  0  0
   58.4940   29.7530   45.9550 C   0  0  0  0  0  0  0  0  0  0  0  0
   58.7570   31.0580   45.5270 C   0  0  0  0  0  0  0  0  0  0  0  0
   61.2110   33.7100   46.4220 C   0  0  0  0  0  0  0  0  0  0  0  0
   61.8090   32.8230   47.3230 C   0  0  0  0  0  0  0  0  0  0  0  0
   60.9880   30.0078   50.7151 H   0  0  0  0  0  0  0  0  0  0  0  0
   60.0348   30.0819   49.1944 H   0  0  0  0  0  0  0  0  0  0  0  0
   61.6693   29.3369   49.1944 H   0  0  0  0  0  0  0  0  0  0  0  0
   59.1883   32.3818   49.4740 H   0  0  0  0  0  0  0  0  0  0  0  0
   58.1195   33.9536   47.8643 H   0  0  0  0  0  0  0  0  0  0  0  0
   58.8256   35.8701   46.0254 H   0  0  0  0  0  0  0  0  0  0  0  0
   59.9193   35.1797   44.7588 H   0  0  0  0  0  0  0  0  0  0  0  0
   55.8449   31.6214   43.8296 H   0  0  0  0  0  0  0  0  0  0  0  0
   57.0518   23.3819   47.8013 H   0  0  0  0  0  0  0  0  0  0  0  0
   56.4278   21.5377   46.2471 H   0  0  0  0  0  0  0  0  0  0  0  0
   56.9534   24.2067   42.8754 H   0  0  0  0  0  0  0  0  0  0  0  0
   57.5779   26.0464   44.4324 H   0  0  0  0  0  0  0  0  0  0  0  0
   60.3815   29.4536   46.9787 H   0  0  0  0  0  0  0  0  0  0  0  0
   59.6973   31.5541   45.8093 H   0  0  0  0  0  0  0  0  0  0  0  0
   61.7935   34.1087   45.5784 H   0  0  0  0  0  0  0  0  0  0  0  0
   62.8552   32.5164   47.1764 H   0  0  0  0  0  0  0  0  0  0  0  0
  1  2  1  0
  2  3  1  0
  3  4  2  0
  4  5  1  0
  5  6  2  0
  6  7  1  0
  7  8  1  0
  8  9  1  0
  9 10  2  0
  9 11  1  0
 11 12  1  0
 12 13  2  0
 13 14  1  0
 14 15  2  0
 15 16  1  0
 16 17  2  3
 17 18  1  0
 18 19  2  0
 19 20  1  0
 20 21  2  0
 21 22  1  0
 22 23  2  0
 22 24  1  0
 21 25  1  0
 25 26  2  0
 16 27  1  0
 27 28  1  0
 28 29  2  0
 29 30  1  0
  6 31  1  0
 31 32  2  0
 32  3  1  0
 30 11  2  0
 29 14  1  0
 26 18  1  0
  1 33  1  0
  1 34  1  0
  1 35  1  0
  4 36  1  0
  5 37  1  0
  7 38  1  0
  7 39  1  0
 12 40  1  0
 19 41  1  0
 20 42  1  0
 25 43  1  0
 26 44  1  0
 28 45  1  0
 30 46  1  0
 31 47  1  0
 32 48  1  0
M  CHG  3   8  -1  24  -1  27  -1
M  END
>  <UniqueID>  (15) 
13

>  <SMILES>  (15) 
COc1ccc(C[N-]C(=O)c2cnc3nc(=Nc4ccc(C(=O)[O-])cc4)[n-]cc3c2)cc1

>  <Energy>  (15) 
64.76987432407915

>  <Genealogy>  (15) 
COc1ccc(C[N-]C(=O)c2cnc3nc(=Nc4ccc(C(=O)[O-])cc4)[n-]cc3c2)cc1 (protonated)
COc1ccc(C[N-]C(=O)c2cnc3nc(=Nc4ccc(C(=O)[O-])cc4)[n-]cc3c2)cc1 (3D coordinates assigned)
COc1ccc(C[N-]C(=O)c2cnc3nc(=Nc4ccc(C(=O)[O-])cc4)[n-]cc3c2)cc1 (optimized conformer: 64.76987432407915 kcal/mol)

>  <smiles>  (15) 
COc1ccc(CNC(=O)c2cnc3nc(=Nc4ccc(C(=O)O)cc4)[nH]cc3c2)cc1

>  <score_type>  (15) 
oracle

>  <origin>  (15) 
adg

>  <m_score__min__energy>  (15) 
-13.81

>  <m_primary>  (15) 
energy

$$$$
15:0
     RDKit          3D

 25 27  0  0  0  0  0  0  0  0999 V2000
   56.1501   30.3986   42.4151 H   0  0  0  0  0  0  0  0  0  0  0  0
   57.0010   31.0620   42.6290 C   0  0  0  0  0  0  0  0  0  0  0  0
   57.4160   31.9840   41.6060 C   0  0  0  0  0  0  0  0  0  0  0  0
   57.7590   32.7290   40.7900 N   0  0  0  0  0  0  0  0  0  0  0  0
   57.5930   30.9650   43.8300 C   0  0  0  0  0  0  0  0  0  0  0  0
   57.9490   29.7010   44.5000 C   0  0  0  0  0  0  0  0  0  0  0  0
   57.7710   28.3790   44.0790 C   0  0  0  0  0  0  0  0  0  0  0  0
   57.2995   28.1557   43.1106 H   0  0  0  0  0  0  0  0  0  0  0  0
   58.2080   27.3430   44.9210 C   0  0  0  0  0  0  0  0  0  0  0  0
   58.0800   26.2957   44.6100 H   0  0  0  0  0  0  0  0  0  0  0  0
   58.8090   27.6360   46.1610 C   0  0  0  0  0  0  0  0  0  0  0  0
   59.1464   26.8161   46.8121 H   0  0  0  0  0  0  0  0  0  0  0  0
   58.9800   28.9680   46.5710 C   0  0  0  0  0  0  0  0  0  0  0  0
   59.4481   29.2061   47.5375 H   0  0  0  0  0  0  0  0  0  0  0  0
   58.5400   29.9810   45.7190 C   0  0  0  0  0  0  0  0  0  0  0  0
   58.5890   31.4270   45.8860 C   0  0  0  0  0  0  0  0  0  0  0  0
   59.0940   32.1750   46.9500 C   0  0  0  0  0  0  0  0  0  0  0  0
   59.5351   31.6802   47.8279 H   0  0  0  0  0  0  0  0  0  0  0  0
   59.0250   33.5750   46.8720 C   0  0  0  0  0  0  0  0  0  0  0  0
   59.6480   34.5550   48.1860 Cl  0  0  0  0  0  0  0  0  0  0  0  0
   58.4580   34.1950   45.7420 C   0  0  0  0  0  0  0  0  0  0  0  0
   58.4083   35.2926   45.6900 H   0  0  0  0  0  0  0  0  0  0  0  0
   57.9550   33.4240   44.6800 C   0  0  0  0  0  0  0  0  0  0  0  0
   57.5125   33.9076   43.7967 H   0  0  0  0  0  0  0  0  0  0  0  0
   58.0280   32.0270   44.7680 C   0  0  0  0  0  0  0  0  0  0  0  0
  1  2  1  0
  2  3  1  0
  3  4  3  0
  2  5  2  0
  5  6  1  0
  6  7  2  0
  7  8  1  0
  7  9  1  0
  9 10  1  0
  9 11  2  0
 11 12  1  0
 11 13  1  0
 13 14  1  0
 13 15  2  0
 15 16  1  0
 16 17  2  0
 17 18  1  0
 17 19  1  0
 19 20  1  0
 19 21  2  0
 21 22  1  0
 21 23  1  0
 23 24  1  0
 23 25  2  0
 25  5  1  0
 15  6  1  0
 25 16  1  0
M  END
>  <UniqueID>  (16) 
14

>  <SMILES>  (16) 
N#C/C=C1/c2ccccc2-c2cc(Cl)ccc21

>  <Energy>  (16) 
61.439778059885015

>  <Genealogy>  (16) 
N#C/C=C1/c2ccccc2-c2cc(Cl)ccc21 (cis-trans isomerization)
N#C/C=C1/c2ccccc2-c2cc(Cl)ccc21 (3D coordinates assigned)
N#C/C=C1/c2ccccc2-c2cc(Cl)ccc21 (nonaromatic ring conformer: 61.439778059885015 kcal/mol)

>  <smiles>  (16) 
N#CC=C1c2ccccc2-c2cc(Cl)ccc21

>  <score_type>  (16) 
oracle

>  <origin>  (16) 
adg

>  <m_score__min__energy>  (16) 
-7.2000000000000002

>  <m_primary>  (16) 
energy

$$$$
16:0
     RDKit          3D

 80 82  0  0  0  0  0  0  0  0999 V2000
   56.1970   29.8980   43.3500 C   0  0  0  0  0  0  0  0  0  0  0  0
   56.3110   29.7710   44.8720 C   0  0  0  0  0  0  0  0  0  0  0  0
   57.5060   30.4570   45.4000 N   0  0  0  0  0  0  0  0  0  0  0  0
   58.7540   30.1090   44.7010 C   0  0  0  0  0  0  0  0  0  0  0  0
   59.9950   30.1110   45.6120 C   0  0  0  0  0  0  0  0  0  0  0  0
   59.7250   29.5040   47.0000 C   0  0  0  0  0  0  0  0  0  0  0  0
   59.1670   30.5210   47.9020 N   0  0  0  0  0  0  0  0  0  0  0  0
   58.7460   29.9340   49.1840 C   0  0  0  0  0  0  0  0  0  0  0  0
   59.7840   30.2030   50.2820 C   0  0  0  0  0  0  0  0  0  0  0  0
   60.4250   31.5140   50.1430 N   0  0  0  0  0  0  0  0  0  0  0  0
   61.8340   31.6930   49.9030 C   0  0  0  0  0  0  0  0  0  0  0  0
   62.7900   31.2170   50.8120 C   0  0  0  0  0  0  0  0  0  0  0  0
   64.1660   31.3340   50.5510 C   0  0  0  0  0  0  0  0  0  0  0  0
   65.1320   30.7860   51.4710 N   0  0  0  0  0  0  0  0  0  0  0  0
   64.7310   29.6860   52.3570 C   0  0  0  0  0  0  0  0  0  0  0  0
   65.8710   29.3000   53.3100 C   0  0  0  0  0  0  0  0  0  0  0  0
   67.1670   29.2360   52.6060 N   0  0  0  0  0  0  0  0  0  0  0  0
   67.2180   28.1140   51.6490 C   0  0  0  0  0  0  0  0  0  0  0  0
   67.5540   30.5210   51.9670 C   0  0  0  0  0  0  0  0  0  0  0  0
   66.3840   31.5020   51.7430 C   0  0  0  0  0  0  0  0  0  0  0  0
   64.5890   31.9620   49.3680 C   0  0  0  0  0  0  0  0  0  0  0  0
   63.6490   32.4460   48.4490 C   0  0  0  0  0  0  0  0  0  0  0  0
   64.0460   33.0590   47.2970 N   0  0  0  0  0  0  0  0  0  0  0  0
   63.1360   33.5280   46.4010 C   0  0  0  0  0  0  0  0  0  0  0  0
   61.7670   33.3800   46.6590 C   0  0  0  0  0  0  0  0  0  0  0  0
   60.7280   33.8970   45.7120 C   0  0  0  0  0  0  0  0  0  0  0  0
   59.4140   33.9240   46.3910 N   0  0  0  0  0  0  0  0  0  0  0  0
   59.3930   34.9340   47.4750 C   0  0  0  0  0  0  0  0  0  0  0  0
   59.2930   34.2500   48.8420 C   0  0  0  0  0  0  0  0  0  0  0  0
   58.7880   32.9520   48.6980 O   0  0  0  0  0  0  0  0  0  0  0  0
   58.3040   34.1190   45.4270 C   0  0  0  0  0  0  0  0  0  0  0  0
   57.0610   33.3720   45.9100 C   0  0  0  0  0  0  0  0  0  0  0  0
   57.4070   32.4250   46.8820 O   0  0  0  0  0  0  0  0  0  0  0  0
   61.3730   32.7760   47.8100 N   0  0  0  0  0  0  0  0  0  0  0  0
   62.2710   32.3020   48.7140 C   0  0  0  0  0  0  0  0  0  0  0  0
   55.4812   30.6954   43.1012 H   0  0  0  0  0  0  0  0  0  0  0  0
   57.1823   30.1449   42.9278 H   0  0  0  0  0  0  0  0  0  0  0  0
   55.8456   28.9450   42.9278 H   0  0  0  0  0  0  0  0  0  0  0  0
   55.4156   30.2139   45.3326 H   0  0  0  0  0  0  0  0  0  0  0  0
   56.3993   28.7021   45.1163 H   0  0  0  0  0  0  0  0  0  0  0  0
   57.6110   30.3420   46.4340 H   0  0  0  0  0  0  0  0  0  0  0  0
   58.6416   29.1034   44.2696 H   0  0  0  0  0  0  0  0  0  0  0  0
   58.9178   30.8794   43.9331 H   0  0  0  0  0  0  0  0  0  0  0  0
   60.7892   29.5277   45.1232 H   0  0  0  0  0  0  0  0  0  0  0  0
   60.2890   31.1600   45.7640 H   0  0  0  0  0  0  0  0  0  0  0  0
   59.0087   28.6751   46.9004 H   0  0  0  0  0  0  0  0  0  0  0  0
   60.6726   29.1351   47.4195 H   0  0  0  0  0  0  0  0  0  0  0  0
   58.3150   30.9260   47.4470 H   0  0  0  0  0  0  0  0  0  0  0  0
   57.7841   30.3760   49.4829 H   0  0  0  0  0  0  0  0  0  0  0  0
   58.6480   28.8460   49.0548 H   0  0  0  0  0  0  0  0  0  0  0  0
   59.2821   30.1582   51.2598 H   0  0  0  0  0  0  0  0  0  0  0  0
   60.5688   29.4374   50.1932 H   0  0  0  0  0  0  0  0  0  0  0  0
   59.8760   32.3370   50.4760 H   0  0  0  0  0  0  0  0  0  0  0  0
   62.4565   30.7431   51.7470 H   0  0  0  0  0  0  0  0  0  0  0  0
   63.8591   30.0012   52.9490 H   0  0  0  0  0  0  0  0  0  0  0  0
   64.4823   28.8116   51.7377 H   0  0  0  0  0  0  0  0  0  0  0  0
   65.9364   30.0506   54.1115 H   0  0  0  0  0  0  0  0  0  0  0  0
   65.6532   28.3039   53.7228 H   0  0  0  0  0  0  0  0  0  0  0  0
   67.2612   27.1633   52.2006 H   0  0  0  0  0  0  0  0  0  0  0  0
   66.3182   28.1304   51.0165 H   0  0  0  0  0  0  0  0  0  0  0  0
   68.1126   28.2119   51.0165 H   0  0  0  0  0  0  0  0  0  0  0  0
   68.2977   31.0143   52.6101 H   0  0  0  0  0  0  0  0  0  0  0  0
   67.9465   30.2693   50.9707 H   0  0  0  0  0  0  0  0  0  0  0  0
   66.2556   32.1183   52.6450 H   0  0  0  0  0  0  0  0  0  0  0  0
   66.6204   32.1310   50.8721 H   0  0  0  0  0  0  0  0  0  0  0  0
   65.6637   32.0743   49.1621 H   0  0  0  0  0  0  0  0  0  0  0  0
   65.0640   33.1790   47.0870 H   0  0  0  0  0  0  0  0  0  0  0  0
   63.4738   34.0214   45.4777 H   0  0  0  0  0  0  0  0  0  0  0  0
   60.9968   34.9146   45.3922 H   0  0  0  0  0  0  0  0  0  0  0  0
   60.6733   33.2394   44.8319 H   0  0  0  0  0  0  0  0  0  0  0  0
   60.3176   35.5284   47.4342 H   0  0  0  0  0  0  0  0  0  0  0  0
   58.5176   35.5857   47.3378 H   0  0  0  0  0  0  0  0  0  0  0  0
   60.2928   34.2023   49.2983 H   0  0  0  0  0  0  0  0  0  0  0  0
   58.6140   34.8299   49.4844 H   0  0  0  0  0  0  0  0  0  0  0  0
   59.2830   32.5350   47.9440 H   0  0  0  0  0  0  0  0  0  0  0  0
   58.0762   35.1920   45.3447 H   0  0  0  0  0  0  0  0  0  0  0  0
   58.6039   33.7271   44.4439 H   0  0  0  0  0  0  0  0  0  0  0  0
   56.3506   34.0921   46.3423 H   0  0  0  0  0  0  0  0  0  0  0  0
   56.6015   32.8542   45.0552 H   0  0  0  0  0  0  0  0  0  0  0  0
   58.3220   32.1140   46.6500 H   0  0  0  0  0  0  0  0  0  0  0  0
  1  2  1  0
  2  3  1  0
  3  4  1  0
  4  5  1  0
  5  6  1  0
  6  7  1  0
  7  8  1  0
  8  9  1  0
  9 10  1  0
 10 11  1  0
 11 12  2  0
 12 13  1  0
 13 14  1  0
 14 15  1  0
 15 16  1  0
 16 17  1  0
 17 18  1  0
 17 19  1  0
 19 20  1  0
 13 21  2  0
 21 22  1  0
 22 23  2  0
 23 24  1  0
 24 25  2  0
 25 26  1  0
 26 27  1  0
 27 28  1  0
 28 29  1  0
 29 30  1  0
 27 31  1  0
 31 32  1  0
 32 33  1  0
 25 34  1  0
 34 35  2  0
 35 11  1  0
 20 14  1  0
 35 22  1  0
  1 36  1  0
  1 37  1  0
  1 38  1  0
  2 39  1  0
  2 40  1  0
  3 41  1  0
  4 42  1  0
  4 43  1  0
  5 44  1  0
  5 45  1  0
  6 46  1  0
  6 47  1  0
  7 48  1  0
  8 49  1  0
  8 50  1  0
  9 51  1  0
  9 52  1  0
 10 53  1  0
 12 54  1  0
 15 55  1  0
 15 56  1  0
 16 57  1  0
 16 58  1  0
 18 59  1  0
 18 60  1  0
 18 61  1  0
 19 62  1  0
 19 63  1  0
 20 64  1  0
 20 65  1  0
 21 66  1  0
 23 67  1  0
 24 68  1  0
 26 69  1  0
 26 70  1  0
 28 71  1  0
 28 72  1  0
 29 73  1  0
 29 74  1  0
 30 75  1  0
 31 76  1  0
 31 77  1  0
 32 78  1  0
 32 79  1  0
 33 80  1  0
M  CHG  1  23   1
M  END
>  <UniqueID>  (17) 
15

>  <SMILES>  (17) 
CCNCCCNCCNc1cc(N2CCN(C)CC2)cc2[nH+]cc(CN(CCO)CCO)nc12

>  <Energy>  (17) 
90.33952458082123

>  <Genealogy>  (17) 
CCNCCCNCCNc1cc(N2CCN(C)CC2)cc2[nH+]cc(CN(CCO)CCO)nc12 (protonated)
CCNCCCNCCNc1cc(N2CCN(C)CC2)cc2[nH+]cc(CN(CCO)CCO)nc12 (3D coordinates assigned)
CCNCCCNCCNc1cc(N2CCN(C)CC2)cc2[nH+]cc(CN(CCO)CCO)nc12 (nonaromatic ring conformer: 90.33952458082123 kcal/mol)

>  <smiles>  (17) 
CCNCCCNCCNc1cc(N2CCN(C)CC2)cc2ncc(CN(CCO)CCO)nc12

>  <score_type>  (17) 
oracle

>  <origin>  (17) 
adg

>  <m_score__min__energy>  (17) 
-3.23

>  <m_primary>  (17) 
energy

$$$$
17:0
     RDKit          3D

 56 59  0  0  0  0  0  0  0  0999 V2000
   58.9090   33.1090   51.6140 C   0  0  0  0  0  0  0  0  0  0  0  0
   59.4040   31.9570   50.9650 O   0  0  0  0  0  0  0  0  0  0  0  0
   58.9230   31.8890   49.6330 C   0  0  0  0  0  0  0  0  0  0  0  0
   60.0750   31.6690   48.6070 C   0  0  1  0  0  0  0  0  0  0  0  0
   59.7150   30.5200   47.6470 C   0  0  0  0  0  0  0  0  0  0  0  0
   58.6030   30.9010   46.8520 O   0  0  0  0  0  0  0  0  0  0  0  0
   58.5330   32.1600   46.2540 C   0  0  0  0  0  0  0  0  0  0  0  0
   57.5680   32.3750   45.2580 C   0  0  0  0  0  0  0  0  0  0  0  0
   56.6710   31.3370   44.9620 O   0  0  0  0  0  0  0  0  0  0  0  0
   56.8210   30.4260   43.8790 C   0  0  0  0  0  0  0  0  0  0  0  0
   57.5380   33.6050   44.5800 C   0  0  0  0  0  0  0  0  0  0  0  0
   58.4780   34.5890   44.8740 C   0  0  0  0  0  0  0  0  0  0  0  0
   59.4250   34.3820   45.8760 C   0  0  0  0  0  0  0  0  0  0  0  0
   59.4280   33.1920   46.6370 C   0  0  0  0  0  0  0  0  0  0  0  0
   60.4640   32.9620   47.7630 C   0  0  0  0  0  0  0  0  0  0  0  0
   60.5350   34.2230   48.6930 C   0  0  0  0  0  0  0  0  0  0  0  0
   61.7480   34.1480   49.6250 C   0  0  0  0  0  0  0  0  0  0  0  0
   63.0220   34.1080   48.8710 N   0  0  0  0  0  0  0  0  0  0  0  0
   64.1430   33.4610   49.5870 C   0  0  0  0  0  0  0  0  0  0  0  0
   63.7110   32.3480   50.5180 C   0  0  0  0  0  0  0  0  0  0  0  0
   63.1260   31.1770   50.0040 C   0  0  0  0  0  0  0  0  0  0  0  0
   62.7110   30.1570   50.8650 C   0  0  0  0  0  0  0  0  0  0  0  0
   62.8940   30.2850   52.2430 C   0  0  0  0  0  0  0  0  0  0  0  0
   63.5070   31.4280   52.7620 C   0  0  0  0  0  0  0  0  0  0  0  0
   63.9230   32.4500   51.9050 C   0  0  0  0  0  0  0  0  0  0  0  0
   62.9250   33.8060   47.4240 C   0  0  0  0  0  0  0  0  0  0  0  0
   61.8740   32.7250   47.1030 C   0  0  0  0  0  0  0  0  0  0  0  0
   58.9687   32.9702   52.7036 H   0  0  0  0  0  0  0  0  0  0  0  0
   59.5115   33.9818   51.3220 H   0  0  0  0  0  0  0  0  0  0  0  0
   57.8612   33.2726   51.3220 H   0  0  0  0  0  0  0  0  0  0  0  0
   58.2127   31.0528   49.5542 H   0  0  0  0  0  0  0  0  0  0  0  0
   58.4370   32.8474   49.3979 H   0  0  0  0  0  0  0  0  0  0  0  0
   60.9608   31.4173   49.2087 H   0  0  0  0  0  0  0  0  0  0  0  0
   60.5745   30.3029   46.9958 H   0  0  0  0  0  0  0  0  0  0  0  0
   59.4604   29.6215   48.2284 H   0  0  0  0  0  0  0  0  0  0  0  0
   56.9879   29.4125   44.2728 H   0  0  0  0  0  0  0  0  0  0  0  0
   55.9093   30.4347   43.2636 H   0  0  0  0  0  0  0  0  0  0  0  0
   57.6817   30.7266   43.2636 H   0  0  0  0  0  0  0  0  0  0  0  0
   56.7699   33.7911   43.8149 H   0  0  0  0  0  0  0  0  0  0  0  0
   58.4735   35.5350   44.3126 H   0  0  0  0  0  0  0  0  0  0  0  0
   60.1803   35.1561   46.0767 H   0  0  0  0  0  0  0  0  0  0  0  0
   60.6151   35.1259   48.0698 H   0  0  0  0  0  0  0  0  0  0  0  0
   59.6226   34.2588   49.3064 H   0  0  0  0  0  0  0  0  0  0  0  0
   61.7493   35.0326   50.2789 H   0  0  0  0  0  0  0  0  0  0  0  0
   61.6701   33.2211   50.2121 H   0  0  0  0  0  0  0  0  0  0  0  0
   64.8346   33.0411   48.8417 H   0  0  0  0  0  0  0  0  0  0  0  0
   64.6152   34.2350   50.2098 H   0  0  0  0  0  0  0  0  0  0  0  0
   62.9942   31.0630   48.9179 H   0  0  0  0  0  0  0  0  0  0  0  0
   62.2392   29.2515   50.4558 H   0  0  0  0  0  0  0  0  0  0  0  0
   62.5558   29.4864   52.9197 H   0  0  0  0  0  0  0  0  0  0  0  0
   63.6624   31.5235   53.8468 H   0  0  0  0  0  0  0  0  0  0  0  0
   64.4197   33.3405   52.3176 H   0  0  0  0  0  0  0  0  0  0  0  0
   62.6526   34.7288   46.8909 H   0  0  0  0  0  0  0  0  0  0  0  0
   63.9033   33.4192   47.1025 H   0  0  0  0  0  0  0  0  0  0  0  0
   61.7401   32.6905   46.0117 H   0  0  0  0  0  0  0  0  0  0  0  0
   62.2588   31.7834   47.5216 H   0  0  0  0  0  0  0  0  0  0  0  0
  1  2  1  0
  2  3  1  0
  3  4  1  0
  4  5  1  0
  5  6  1  0
  6  7  1  0
  7  8  2  0
  8  9  1  0
  9 10  1  0
  8 11  1  0
 11 12  2  0
 12 13  1  0
 13 14  2  0
 14 15  1  0
 15 16  1  0
 16 17  1  0
 17 18  1  0
 18 19  1  0
 19 20  1  0
 20 21  2  0
 21 22  1  0
 22 23  2  0
 23 24  1  0
 24 25  2  0
 18 26  1  0
 26 27  1  0
 15  4  1  0
 25 20  1  0
 14  7  1  0
 27 15  1  0
  1 28  1  0
  1 29  1  0
  1 30  1  0
  3 31  1  0
  3 32  1  0
  4 33  1  1
  5 34  1  0
  5 35  1  0
 10 36  1  0
 10 37  1  0
 10 38  1  0
 11 39  1  0
 12 40  1  0
 13 41  1  0
 16 42  1  0
 16 43  1  0
 17 44  1  0
 17 45  1  0
 19 46  1  0
 19 47  1  0
 21 48  1  0
 22 49  1  0
 23 50  1  0
 24 51  1  0
 25 52  1  0
 26 53  1  0
 26 54  1  0
 27 55  1  0
 27 56  1  0
M  END
>  <UniqueID>  (18) 
16

>  <SMILES>  (18) 
COC[C@H]1COc2c(OC)cccc2C12CCN(Cc1ccccc1)CC2

>  <Energy>  (18) 
83.7629078339717

>  <Genealogy>  (18) 
COC[C@H]1COc2c(OC)cccc2C12CCN(Cc1ccccc1)CC2 (chirality)
COC[C@H]1COc2c(OC)cccc2C12CCN(Cc1ccccc1)CC2 (3D coordinates assigned)
COC[C@H]1COc2c(OC)cccc2C12CCN(Cc1ccccc1)CC2 (nonaromatic ring conformer: 83.7629078339717 kcal/mol)

>  <smiles>  (18) 
COCC1COc2c(OC)cccc2C12CCN(Cc1ccccc1)CC2

>  <score_type>  (18) 
oracle

>  <origin>  (18) 
adg

>  <m_score__min__energy>  (18) 
-7.9699999999999998

>  <m_primary>  (18) 
energy

$$$$
18:0
     RDKit          3D

 45 45  0  0  0  0  0  0  0  0999 V2000
   59.5950   34.5190   47.8620 C   0  0  0  0  0  0  0  0  0  0  0  0
   58.7320   33.2640   47.7640 C   0  0  0  0  0  0  0  0  0  0  0  0
   59.0120   32.5040   46.4640 C   0  0  0  0  0  0  0  0  0  0  0  0
   57.7420   32.0330   45.8610 N   0  0  0  0  0  0  0  0  0  0  0  0
   57.4120   32.8060   44.6430 C   0  0  0  0  0  0  0  0  0  0  0  0
   57.0760   34.2500   45.0060 C   0  0  0  0  0  0  0  0  0  0  0  0
   57.8110   30.5810   45.5710 C   0  0  0  0  0  0  0  0  0  0  0  0
   57.3840   30.3060   44.1170 C   0  0  0  0  0  0  0  0  0  0  0  0
   56.6380   28.9750   43.9780 C   0  0  0  0  0  0  0  0  0  0  0  0
   56.2650   28.4610   45.2930 N   0  0  0  0  0  0  0  0  0  0  0  0
   56.2700   27.0670   45.6240 C   0  0  0  0  0  0  0  0  0  0  0  0
   55.2240   26.5210   46.0670 O   0  0  0  0  0  0  0  0  0  0  0  0
   57.5300   26.2620   45.5350 C   0  0  0  0  0  0  0  0  0  0  0  0
   58.4190   26.1710   47.1320 S   0  0  0  0  0  0  0  0  0  0  0  0
   59.4350   27.6270   46.8510 C   0  0  0  0  0  0  0  0  0  0  0  0
   59.9790   27.8690   45.5820 C   0  0  0  0  0  0  0  0  0  0  0  0
   60.7590   29.0090   45.3600 C   0  0  0  0  0  0  0  0  0  0  0  0
   60.9850   29.9160   46.3990 C   0  0  0  0  0  0  0  0  0  0  0  0
   60.4330   29.6830   47.6630 C   0  0  0  0  0  0  0  0  0  0  0  0
   59.6580   28.5410   47.8880 C   0  0  0  0  0  0  0  0  0  0  0  0
   59.7646   34.7656   48.9205 H   0  0  0  0  0  0  0  0  0  0  0  0
   60.5613   34.3390   47.3681 H   0  0  0  0  0  0  0  0  0  0  0  0
   59.0811   35.3568   47.3681 H   0  0  0  0  0  0  0  0  0  0  0  0
   58.9532   32.6079   48.6188 H   0  0  0  0  0  0  0  0  0  0  0  0
   57.6741   33.5652   47.7723 H   0  0  0  0  0  0  0  0  0  0  0  0
   59.5243   33.1720   45.7560 H   0  0  0  0  0  0  0  0  0  0  0  0
   59.6471   31.6340   46.6872 H   0  0  0  0  0  0  0  0  0  0  0  0
   58.2752   32.7948   43.9613 H   0  0  0  0  0  0  0  0  0  0  0  0
   56.5395   32.3479   44.1543 H   0  0  0  0  0  0  0  0  0  0  0  0
   57.0512   34.3567   46.1005 H   0  0  0  0  0  0  0  0  0  0  0  0
   57.8421   34.9205   44.5895 H   0  0  0  0  0  0  0  0  0  0  0  0
   56.0926   34.5134   44.5895 H   0  0  0  0  0  0  0  0  0  0  0  0
   58.8430   30.2300   45.7188 H   0  0  0  0  0  0  0  0  0  0  0  0
   57.1307   30.0473   46.2510 H   0  0  0  0  0  0  0  0  0  0  0  0
   56.7240   31.1194   43.7811 H   0  0  0  0  0  0  0  0  0  0  0  0
   58.2938   30.2506   43.5012 H   0  0  0  0  0  0  0  0  0  0  0  0
   55.7290   29.1298   43.3781 H   0  0  0  0  0  0  0  0  0  0  0  0
   57.2973   28.2462   43.4838 H   0  0  0  0  0  0  0  0  0  0  0  0
   57.2743   25.2411   45.2151 H   0  0  0  0  0  0  0  0  0  0  0  0
   58.1932   26.7588   44.8116 H   0  0  0  0  0  0  0  0  0  0  0  0
   59.7925   27.1621   44.7601 H   0  0  0  0  0  0  0  0  0  0  0  0
   61.1948   29.1916   44.3667 H   0  0  0  0  0  0  0  0  0  0  0  0
   61.5969   30.8130   46.2228 H   0  0  0  0  0  0  0  0  0  0  0  0
   60.6086   30.3982   48.4801 H   0  0  0  0  0  0  0  0  0  0  0  0
   59.2226   28.3603   48.8819 H   0  0  0  0  0  0  0  0  0  0  0  0
  1  2  1  0
  2  3  1  0
  3  4  1  0
  4  5  1  0
  5  6  1  0
  4  7  1  0
  7  8  1  0
  8  9  1  0
  9 10  1  0
 10 11  1  0
 11 12  2  0
 11 13  1  0
 13 14  1  0
 14 15  1  0
 15 16  2  0
 16 17  1  0
 17 18  2  0
 18 19  1  0
 19 20  2  0
 20 15  1  0
  1 21  1  0
  1 22  1  0
  1 23  1  0
  2 24  1  0
  2 25  1  0
  3 26  1  0
  3 27  1  0
  5 28  1  0
  5 29  1  0
  6 30  1  0
  6 31  1  0
  6 32  1  0
  7 33  1  0
  7 34  1  0
  8 35  1  0
  8 36  1  0
  9 37  1  0
  9 38  1  0
 13 39  1  0
 13 40  1  0
 16 41  1  0
 17 42  1  0
 18 43  1  0
 19 44  1  0
 20 45  1  0
M  CHG  1  10  -1
M  END
>  <UniqueID>  (19) 
17

>  <SMILES>  (19) 
CCCN(CC)CCC[N-]C(=O)CSc1ccccc1

>  <Energy>  (19) 
27.673485048784652

>  <Genealogy>  (19) 
CCCN(CC)CCC[N-]C(=O)CSc1ccccc1 (protonated)
CCCN(CC)CCC[N-]C(=O)CSc1ccccc1 (3D coordinates assigned)
CCCN(CC)CCC[N-]C(=O)CSc1ccccc1 (optimized conformer: 27.673485048784652 kcal/mol)

>  <smiles>  (19) 
CCCN(CC)CCCNC(=O)CSc1ccccc1

>  <score_type>  (19) 
oracle

>  <origin>  (19) 
adg

>  <m_score__min__energy>  (19) 
-8.3399999999999999

>  <m_primary>  (19) 
energy

$$$$
19:0
     RDKit          3D

 36 38  0  0  0  0  0  0  0  0999 V2000
   56.2080   30.0770   45.2330 O   0  0  0  0  0  0  0  0  0  0  0  0
   57.2800   29.6400   44.7320 C   0  0  0  0  0  0  0  0  0  0  0  0
   57.9580   30.4100   43.7250 N   0  0  0  0  0  0  0  0  0  0  0  0
   57.3950   31.6400   43.1730 C   0  0  0  0  0  0  0  0  0  0  0  0
   58.2890   32.8360   43.5100 C   0  0  0  0  0  0  0  0  0  0  0  0
   58.0940   33.2540   44.9360 C   0  0  0  0  0  0  0  0  0  0  0  0
   56.8830   33.3690   45.6110 C   0  0  0  0  0  0  0  0  0  0  0  0
   57.0930   33.6990   46.9050 N   0  0  0  0  0  0  0  0  0  0  0  0
   58.4270   33.7800   47.0560 C   0  0  0  0  0  0  0  0  0  0  0  0
   59.1300   34.0720   48.2240 C   0  0  0  0  0  0  0  0  0  0  0  0
   60.5360   34.0830   48.1600 C   0  0  0  0  0  0  0  0  0  0  0  0
   61.2010   33.8000   46.9460 C   0  0  0  0  0  0  0  0  0  0  0  0
   63.1090   33.8130   46.8800 Br  0  0  0  0  0  0  0  0  0  0  0  0
   60.4640   33.5060   45.7830 C   0  0  0  0  0  0  0  0  0  0  0  0
   59.0720   33.5090   45.8760 C   0  0  0  0  0  0  0  0  0  0  0  0
   57.8250   28.3460   45.2060 C   0  0  0  0  0  0  0  0  0  0  0  0
   56.9490   27.3200   45.6070 C   0  0  0  0  0  0  0  0  0  0  0  0
   57.4500   26.0910   46.0520 C   0  0  0  0  0  0  0  0  0  0  0  0
   58.8270   25.8710   46.0920 C   0  0  0  0  0  0  0  0  0  0  0  0
   59.7080   26.8750   45.6840 C   0  0  0  0  0  0  0  0  0  0  0  0
   59.2130   28.1060   45.2400 C   0  0  0  0  0  0  0  0  0  0  0  0
   58.8940   30.1090   43.3760 H   0  0  0  0  0  0  0  0  0  0  0  0
   57.3159   31.5435   42.0801 H   0  0  0  0  0  0  0  0  0  0  0  0
   56.3998   31.8044   43.6117 H   0  0  0  0  0  0  0  0  0  0  0  0
   59.3415   32.5556   43.3560 H   0  0  0  0  0  0  0  0  0  0  0  0
   58.0197   33.6766   42.8536 H   0  0  0  0  0  0  0  0  0  0  0  0
   55.8938   33.2133   45.1558 H   0  0  0  0  0  0  0  0  0  0  0  0
   56.3650   33.8440   47.6410 H   0  0  0  0  0  0  0  0  0  0  0  0
   58.6028   34.2869   49.1652 H   0  0  0  0  0  0  0  0  0  0  0  0
   61.1216   34.3137   49.0621 H   0  0  0  0  0  0  0  0  0  0  0  0
   60.9692   33.2813   44.8321 H   0  0  0  0  0  0  0  0  0  0  0  0
   55.8621   27.4852   45.5704 H   0  0  0  0  0  0  0  0  0  0  0  0
   56.7573   25.2980   46.3704 H   0  0  0  0  0  0  0  0  0  0  0  0
   59.2193   24.9059   46.4452 H   0  0  0  0  0  0  0  0  0  0  0  0
   60.7932   26.6976   45.7118 H   0  0  0  0  0  0  0  0  0  0  0  0
   59.9117   28.8912   44.9155 H   0  0  0  0  0  0  0  0  0  0  0  0
  1  2  2  0
  2  3  1  0
  3  4  1  0
  4  5  1  0
  5  6  1  0
  6  7  2  0
  7  8  1  0
  8  9  1  0
  9 10  2  0
 10 11  1  0
 11 12  2  0
 12 13  1  0
 12 14  1  0
 14 15  2  0
  2 16  1  0
 16 17  2  0
 17 18  1  0
 18 19  2  0
 19 20  1  0
 20 21  2  0
 15  6  1  0
 21 16  1  0
 15  9  1  0
  3 22  1  0
  4 23  1  0
  4 24  1  0
  5 25  1  0
  5 26  1  0
  7 27  1  0
  8 28  1  0
 10 29  1  0
 11 30  1  0
 14 31  1  0
 17 32  1  0
 18 33  1  0
 19 34  1  0
 20 35  1  0
 21 36  1  0
M  END
>  <UniqueID>  (20) 
18

>  <SMILES>  (20) 
O=C(NCCc1c[nH]c2ccc(Br)cc12)c1ccccc1

>  <Energy>  (20) 
68.45603171805723

>  <Genealogy>  (20) 
O=C(NCCc1c[nH]c2ccc(Br)cc12)c1ccccc1 (3D coordinates assigned)
O=C(NCCc1c[nH]c2ccc(Br)cc12)c1ccccc1 (optimized conformer: 68.45603171805723 kcal/mol)

>  <smiles>  (20) 
O=C(NCCc1c[nH]c2ccc(Br)cc12)c1ccccc1

>  <score_type>  (20) 
oracle

>  <origin>  (20) 
adg

>  <m_score__min__energy>  (20) 
-8.5999999999999996

>  <m_primary>  (20) 
energy

$$$$
20:0
     RDKit          3D

 50 53  0  0  0  0  0  0  0  0999 V2000
   60.7410   26.7350   47.5500 C   0  0  0  0  0  0  0  0  0  0  0  0
   60.0360   27.9430   47.0110 C   0  0  0  0  0  0  0  0  0  0  0  0
   59.3220   27.8620   45.7900 C   0  0  0  0  0  0  0  0  0  0  0  0
   58.6240   28.9780   45.2920 C   0  0  0  0  0  0  0  0  0  0  0  0
   58.6500   30.1580   46.0440 C   0  0  0  0  0  0  0  0  0  0  0  0
   59.3220   30.2270   47.2290 C   0  0  0  0  0  0  0  0  0  0  0  0
   60.0240   29.1440   47.7510 C   0  0  0  0  0  0  0  0  0  0  0  0
   59.1900   31.4430   47.7760 N   0  0  0  0  0  0  0  0  0  0  0  0
   58.4010   32.1060   46.8900 C   0  0  0  0  0  0  0  0  0  0  0  0
   58.0240   33.5490   47.1140 C   0  0  0  0  0  0  0  0  0  0  0  0
   59.2420   34.4570   47.3840 C   0  0  0  0  0  0  0  0  0  0  0  0
   60.5000   33.6950   47.5670 N   0  0  0  0  0  0  0  0  0  0  0  0
   61.2770   34.2100   48.7020 C   0  0  0  0  0  0  0  0  0  0  0  0
   62.7300   33.8370   48.4500 C   0  0  0  0  0  0  0  0  0  0  0  0
   62.8250   33.5830   46.9550 C   0  0  0  0  0  0  0  0  0  0  0  0
   61.4140   33.7800   46.4170 C   0  0  0  0  0  0  0  0  0  0  0  0
   58.0680   31.3520   45.7940 N   0  0  0  0  0  0  0  0  0  0  0  0
   57.2710   31.7060   44.5990 C   0  0  0  0  0  0  0  0  0  0  0  0
   56.3610   30.5690   44.1180 C   0  0  0  0  0  0  0  0  0  0  0  0
   56.5800   30.4420   42.6130 C   0  0  0  0  0  0  0  0  0  0  0  0
   57.3870   31.6610   42.1830 C   0  0  0  0  0  0  0  0  0  0  0  0
   58.1420   32.1220   43.4180 C   0  0  0  0  0  0  0  0  0  0  0  0
   60.7255   26.7616   48.6496 H   0  0  0  0  0  0  0  0  0  0  0  0
   60.2317   25.8257   47.1980 H   0  0  0  0  0  0  0  0  0  0  0  0
   61.7831   26.7312   47.1980 H   0  0  0  0  0  0  0  0  0  0  0  0
   59.3131   26.9178   45.2258 H   0  0  0  0  0  0  0  0  0  0  0  0
   58.0746   28.9244   44.3405 H   0  0  0  0  0  0  0  0  0  0  0  0
   60.5536   29.2224   48.7119 H   0  0  0  0  0  0  0  0  0  0  0  0
   57.5037   33.9182   46.2179 H   0  0  0  0  0  0  0  0  0  0  0  0
   57.3825   33.5860   48.0068 H   0  0  0  0  0  0  0  0  0  0  0  0
   59.3664   35.1403   46.5310 H   0  0  0  0  0  0  0  0  0  0  0  0
   59.0468   35.0016   48.3196 H   0  0  0  0  0  0  0  0  0  0  0  0
   60.2810   32.6870   47.7570 H   0  0  0  0  0  0  0  0  0  0  0  0
   61.1730   35.3032   48.7664 H   0  0  0  0  0  0  0  0  0  0  0  0
   60.9197   33.7813   49.6499 H   0  0  0  0  0  0  0  0  0  0  0  0
   63.3961   34.6616   48.7438 H   0  0  0  0  0  0  0  0  0  0  0  0
   63.0352   32.9574   49.0357 H   0  0  0  0  0  0  0  0  0  0  0  0
   63.5179   34.2978   46.4871 H   0  0  0  0  0  0  0  0  0  0  0  0
   63.2075   32.5751   46.7364 H   0  0  0  0  0  0  0  0  0  0  0  0
   61.3268   34.7659   45.9371 H   0  0  0  0  0  0  0  0  0  0  0  0
   61.1704   33.0158   45.6643 H   0  0  0  0  0  0  0  0  0  0  0  0
   56.6535   32.5524   44.9340 H   0  0  0  0  0  0  0  0  0  0  0  0
   56.6302   29.6287   44.6214 H   0  0  0  0  0  0  0  0  0  0  0  0
   55.3065   30.7803   44.3489 H   0  0  0  0  0  0  0  0  0  0  0  0
   57.1364   29.5203   42.3874 H   0  0  0  0  0  0  0  0  0  0  0  0
   55.6209   30.3933   42.0765 H   0  0  0  0  0  0  0  0  0  0  0  0
   58.0920   31.3897   41.3834 H   0  0  0  0  0  0  0  0  0  0  0  0
   56.7364   32.4557   41.7892 H   0  0  0  0  0  0  0  0  0  0  0  0
   59.1258   31.6330   43.4734 H   0  0  0  0  0  0  0  0  0  0  0  0
   58.3265   33.2063   43.4056 H   0  0  0  0  0  0  0  0  0  0  0  0
  1  2  1  0
  2  3  2  0
  3  4  1  0
  4  5  2  0
  5  6  1  0
  6  7  2  0
  6  8  1  0
  8  9  2  0
  9 10  1  0
 10 11  1  0
 11 12  1  0
 12 13  1  0
 13 14  1  0
 14 15  1  0
 15 16  1  0
  9 17  1  0
 17 18  1  0
 18 19  1  0
 19 20  1  0
 20 21  1  0
 21 22  1  0
  7  2  1  0
 16 12  1  0
 22 18  1  0
 17  5  1  0
  1 23  1  0
  1 24  1  0
  1 25  1  0
  3 26  1  0
  4 27  1  0
  7 28  1  0
 10 29  1  0
 10 30  1  0
 11 31  1  0
 11 32  1  0
 12 33  1  0
 13 34  1  0
 13 35  1  0
 14 36  1  0
 14 37  1  0
 15 38  1  0
 15 39  1  0
 16 40  1  0
 16 41  1  0
 18 42  1  0
 19 43  1  0
 19 44  1  0
 20 45  1  0
 20 46  1  0
 21 47  1  0
 21 48  1  0
 22 49  1  0
 22 50  1  0
M  CHG  1  12   1
M  END
>  <UniqueID>  (21) 
19

>  <SMILES>  (21) 
Cc1ccc2c(c1)nc(CC[NH+]1CCCC1)n2C1CCCC1

>  <Energy>  (21) 
92.52006894173049

>  <Genealogy>  (21) 
Cc1ccc2c(c1)nc(CC[NH+]1CCCC1)n2C1CCCC1 (protonated)
Cc1ccc2c(c1)nc(CC[NH+]1CCCC1)n2C1CCCC1 (3D coordinates assigned)
Cc1ccc2c(c1)nc(CC[NH+]1CCCC1)n2C1CCCC1 (nonaromatic ring conformer: 92.52006894173049 kcal/mol)

>  <smiles>  (21) 
Cc1ccc2c(c1)nc(CCN1CCCC1)n2C1CCCC1

>  <score_type>  (21) 
oracle

>  <origin>  (21) 
adg

>  <m_score__min__energy>  (21) 
-6.04

>  <m_primary>  (21) 
energy

$$$$
21:0
     RDKit          3D

 42 44  0  0  0  0  0  0  0  0999 V2000
   57.4030   31.9900   41.7640 C   0  0  0  0  0  0  0  0  0  0  0  0
   57.7950   31.8530   43.2050 C   0  0  0  0  0  0  0  0  0  0  0  0
   58.0430   30.5950   43.7450 C   0  0  0  0  0  0  0  0  0  0  0  0
   58.3830   30.4870   45.0980 C   0  0  0  0  0  0  0  0  0  0  0  0
   58.7310   29.1430   45.6190 C   0  0  0  0  0  0  0  0  0  0  0  0
   60.0750   28.7450   45.7080 C   0  0  0  0  0  0  0  0  0  0  0  0
   60.4010   27.4720   46.1880 C   0  0  0  0  0  0  0  0  0  0  0  0
   59.3890   26.5880   46.5740 C   0  0  0  0  0  0  0  0  0  0  0  0
   58.0500   26.9740   46.4760 C   0  0  0  0  0  0  0  0  0  0  0  0
   57.7180   28.2450   45.9960 C   0  0  0  0  0  0  0  0  0  0  0  0
   58.4130   31.6130   45.8910 N   0  0  0  0  0  0  0  0  0  0  0  0
   58.6470   31.4950   47.3430 C   0  0  0  0  0  0  0  0  0  0  0  0
   58.2160   32.8490   45.3170 C   0  0  0  0  0  0  0  0  0  0  0  0
   58.3940   34.3820   46.2580 S   0  0  0  0  0  0  0  0  0  0  0  0
   60.2190   34.3020   46.3560 C   0  0  0  0  0  0  0  0  0  0  0  0
   60.6760   34.0180   47.7660 C   0  0  0  0  0  0  0  0  0  0  0  0
   59.7360   34.1220   48.8080 C   0  0  0  0  0  0  0  0  0  0  0  0
   60.1040   33.8440   50.1260 C   0  0  0  0  0  0  0  0  0  0  0  0
   61.4120   33.4610   50.4220 C   0  0  0  0  0  0  0  0  0  0  0  0
   62.3580   33.3600   49.4000 C   0  0  0  0  0  0  0  0  0  0  0  0
   62.0030   33.6340   48.0730 C   0  0  0  0  0  0  0  0  0  0  0  0
   63.3760   33.4660   46.7420 Br  0  0  0  0  0  0  0  0  0  0  0  0
   57.8820   32.9490   44.0010 N   0  0  0  0  0  0  0  0  0  0  0  0
   56.3664   32.3523   41.6988 H   0  0  0  0  0  0  0  0  0  0  0  0
   58.0738   32.7070   41.2681 H   0  0  0  0  0  0  0  0  0  0  0  0
   57.4812   31.0113   41.2681 H   0  0  0  0  0  0  0  0  0  0  0  0
   57.9726   29.6956   43.1155 H   0  0  0  0  0  0  0  0  0  0  0  0
   60.8733   29.4360   45.3995 H   0  0  0  0  0  0  0  0  0  0  0  0
   61.4551   27.1662   46.2618 H   0  0  0  0  0  0  0  0  0  0  0  0
   59.6470   25.5888   46.9548 H   0  0  0  0  0  0  0  0  0  0  0  0
   57.2546   26.2764   46.7772 H   0  0  0  0  0  0  0  0  0  0  0  0
   56.6621   28.5422   45.9134 H   0  0  0  0  0  0  0  0  0  0  0  0
   57.7939   31.9252   47.8880 H   0  0  0  0  0  0  0  0  0  0  0  0
   58.7564   30.4340   47.6117 H   0  0  0  0  0  0  0  0  0  0  0  0
   59.5652   32.0379   47.6117 H   0  0  0  0  0  0  0  0  0  0  0  0
   60.5795   33.5013   45.6935 H   0  0  0  0  0  0  0  0  0  0  0  0
   60.6283   35.2747   46.0456 H   0  0  0  0  0  0  0  0  0  0  0  0
   58.7028   34.4248   48.5824 H   0  0  0  0  0  0  0  0  0  0  0  0
   59.3607   33.9273   50.9326 H   0  0  0  0  0  0  0  0  0  0  0  0
   61.6983   33.2385   51.4605 H   0  0  0  0  0  0  0  0  0  0  0  0
   63.3899   33.0630   49.6388 H   0  0  0  0  0  0  0  0  0  0  0  0
   57.7060   33.8950   43.5930 H   0  0  0  0  0  0  0  0  0  0  0  0
  1  2  1  0
  2  3  2  0
  3  4  1  0
  4  5  1  0
  5  6  2  0
  6  7  1  0
  7  8  2  0
  8  9  1  0
  9 10  2  0
  4 11  2  0
 11 12  1  0
 11 13  1  0
 13 14  1  0
 14 15  1  0
 15 16  1  0
 16 17  2  0
 17 18  1  0
 18 19  2  0
 19 20  1  0
 20 21  2  0
 21 22  1  0
 13 23  2  0
 23  2  1  0
 10  5  1  0
 21 16  1  0
  1 24  1  0
  1 25  1  0
  1 26  1  0
  3 27  1  0
  6 28  1  0
  7 29  1  0
  8 30  1  0
  9 31  1  0
 10 32  1  0
 12 33  1  0
 12 34  1  0
 12 35  1  0
 15 36  1  0
 15 37  1  0
 17 38  1  0
 18 39  1  0
 19 40  1  0
 20 41  1  0
 23 42  1  0
M  CHG  2  11   1  23   1
M  END
>  <UniqueID>  (22) 
20

>  <SMILES>  (22) 
Cc1cc(-c2ccccc2)[n+](C)c(SCc2ccccc2Br)[nH+]1

>  <Energy>  (22) 
49.31333727155898

>  <Genealogy>  (22) 
Cc1cc(-c2ccccc2)[n+](C)c(SCc2ccccc2Br)[nH+]1 (protonated)
Cc1cc(-c2ccccc2)[n+](C)c(SCc2ccccc2Br)[nH+]1 (3D coordinates assigned)
Cc1cc(-c2ccccc2)[n+](C)c(SCc2ccccc2Br)[nH+]1 (optimized conformer: 49.31333727155898 kcal/mol)

>  <smiles>  (22) 
Cc1cc(-c2ccccc2)[n+](C)c(SCc2ccccc2Br)n1

>  <score_type>  (22) 
oracle

>  <origin>  (22) 
adg

>  <m_score__min__energy>  (22) 
-5.4800000000000004

>  <m_primary>  (22) 
energy

$$$$
22:0
     RDKit          3D

 51 54  0  0  0  0  0  0  0  0999 V2000
   56.5660   30.3820   43.8690 C   0  0  0  0  0  0  0  0  0  0  0  0
   57.1820   30.6630   45.1220 O   0  0  0  0  0  0  0  0  0  0  0  0
   57.7470   31.8980   45.4840 C   0  0  0  0  0  0  0  0  0  0  0  0
   57.0540   33.1010   45.2410 C   0  0  0  0  0  0  0  0  0  0  0  0
   57.6070   34.3290   45.5990 C   0  0  0  0  0  0  0  0  0  0  0  0
   58.8560   34.3850   46.2040 C   0  0  0  0  0  0  0  0  0  0  0  0
   59.5730   33.2090   46.4600 C   0  0  0  0  0  0  0  0  0  0  0  0
   60.8320   33.2910   47.0720 C   0  0  0  0  0  0  0  0  0  0  0  0
   61.5630   32.1350   47.3370 C   0  0  0  0  0  0  0  0  0  0  0  0
   61.0480   30.8890   46.9920 C   0  0  0  0  0  0  0  0  0  0  0  0
   59.7930   30.7750   46.3800 C   0  0  0  0  0  0  0  0  0  0  0  0
   59.3250   29.4600   46.0510 N   0  0  0  0  0  0  0  0  0  0  0  0
   59.4760   28.9730   44.6770 C   0  0  0  0  0  0  0  0  0  0  0  0
   59.2620   27.4570   44.6290 C   0  0  0  0  0  0  0  0  0  0  0  0
   57.9540   27.0580   45.2020 N   0  0  0  0  0  0  0  0  0  0  0  0
   57.8750   25.6160   45.5250 C   0  0  0  0  0  0  0  0  0  0  0  0
   56.5010   24.9810   45.2220 C   0  0  0  0  0  0  0  0  0  0  0  0
   56.6780   23.6960   44.4590 C   0  0  0  0  0  0  0  0  0  0  0  0
   57.8140   22.8980   44.6590 C   0  0  0  0  0  0  0  0  0  0  0  0
   57.9820   21.7240   43.9210 C   0  0  0  0  0  0  0  0  0  0  0  0
   57.0140   21.3640   42.9800 C   0  0  0  0  0  0  0  0  0  0  0  0
   55.9260   22.1560   42.7860 N   0  0  0  0  0  0  0  0  0  0  0  0
   55.7400   23.3020   43.4930 C   0  0  0  0  0  0  0  0  0  0  0  0
   57.3910   27.9540   46.2410 C   0  0  0  0  0  0  0  0  0  0  0  0
   58.4700   28.7360   46.9980 C   0  0  0  0  0  0  0  0  0  0  0  0
   59.0280   31.9430   46.1020 C   0  0  0  0  0  0  0  0  0  0  0  0
   55.5773   29.9310   44.0394 H   0  0  0  0  0  0  0  0  0  0  0  0
   56.4497   31.3161   43.2999 H   0  0  0  0  0  0  0  0  0  0  0  0
   57.1952   29.6819   43.2999 H   0  0  0  0  0  0  0  0  0  0  0  0
   56.0639   33.0702   44.7626 H   0  0  0  0  0  0  0  0  0  0  0  0
   57.0520   35.2580   45.4016 H   0  0  0  0  0  0  0  0  0  0  0  0
   59.2848   35.3586   46.4838 H   0  0  0  0  0  0  0  0  0  0  0  0
   61.2448   34.2736   47.3444 H   0  0  0  0  0  0  0  0  0  0  0  0
   62.5488   32.2072   47.8197 H   0  0  0  0  0  0  0  0  0  0  0  0
   61.6338   29.9821   47.2025 H   0  0  0  0  0  0  0  0  0  0  0  0
   58.7331   29.4658   44.0327 H   0  0  0  0  0  0  0  0  0  0  0  0
   60.4913   29.2045   44.3226 H   0  0  0  0  0  0  0  0  0  0  0  0
   59.3054   27.1260   43.5809 H   0  0  0  0  0  0  0  0  0  0  0  0
   60.0526   26.9850   45.2308 H   0  0  0  0  0  0  0  0  0  0  0  0
   58.6385   25.0869   44.9358 H   0  0  0  0  0  0  0  0  0  0  0  0
   58.0377   25.5224   46.6089 H   0  0  0  0  0  0  0  0  0  0  0  0
   55.9806   24.7726   46.1684 H   0  0  0  0  0  0  0  0  0  0  0  0
   55.9092   25.6806   44.6135 H   0  0  0  0  0  0  0  0  0  0  0  0
   58.5728   23.1968   45.3972 H   0  0  0  0  0  0  0  0  0  0  0  0
   58.8668   21.0898   44.0790 H   0  0  0  0  0  0  0  0  0  0  0  0
   57.1322   20.4394   42.3959 H   0  0  0  0  0  0  0  0  0  0  0  0
   54.8510   23.9226   43.3071 H   0  0  0  0  0  0  0  0  0  0  0  0
   56.7119   28.6710   45.7565 H   0  0  0  0  0  0  0  0  0  0  0  0
   56.8640   27.3235   46.9723 H   0  0  0  0  0  0  0  0  0  0  0  0
   57.9891   29.4552   47.6773 H   0  0  0  0  0  0  0  0  0  0  0  0
   59.0873   28.0317   47.5750 H   0  0  0  0  0  0  0  0  0  0  0  0
  1  2  1  0
  2  3  1  0
  3  4  2  0
  4  5  1  0
  5  6  2  0
  6  7  1  0
  7  8  2  0
  8  9  1  0
  9 10  2  0
 10 11  1  0
 11 12  1  0
 12 13  1  0
 13 14  1  0
 14 15  1  0
 15 16  1  0
 16 17  1  0
 17 18  1  0
 18 19  2  0
 19 20  1  0
 20 21  2  0
 21 22  1  0
 22 23  2  0
 15 24  1  0
 24 25  1  0
 11 26  2  0
 26  3  1  0
 26  7  1  0
 25 12  1  0
 23 18  1  0
  1 27  1  0
  1 28  1  0
  1 29  1  0
  4 30  1  0
  5 31  1  0
  6 32  1  0
  8 33  1  0
  9 34  1  0
 10 35  1  0
 13 36  1  0
 13 37  1  0
 14 38  1  0
 14 39  1  0
 16 40  1  0
 16 41  1  0
 17 42  1  0
 17 43  1  0
 19 44  1  0
 20 45  1  0
 21 46  1  0
 23 47  1  0
 24 48  1  0
 24 49  1  0
 25 50  1  0
 25 51  1  0
M  END
>  <UniqueID>  (23) 
21

>  <SMILES>  (23) 
COc1cccc2cccc(N3CCN(CCc4cccnc4)CC3)c12

>  <Energy>  (23) 
73.440294597997

>  <Genealogy>  (23) 
COc1cccc2cccc(N3CCN(CCc4cccnc4)CC3)c12 (3D coordinates assigned)
COc1cccc2cccc(N3CCN(CCc4cccnc4)CC3)c12 (nonaromatic ring conformer: 73.440294597997 kcal/mol)

>  <smiles>  (23) 
COc1cccc2cccc(N3CCN(CCc4cccnc4)CC3)c12

>  <score_type>  (23) 
oracle

>  <origin>  (23) 
adg

>  <m_score__min__energy>  (23) 
-8.4900000000000002

>  <m_primary>  (23) 
energy

$$$$
23:0
     RDKit          3D

 47 49  0  0  0  0  0  0  0  0999 V2000
   59.5980   35.3650   45.5890 C   0  0  0  0  0  0  0  0  0  0  0  0
   59.1100   33.9410   45.3410 C   0  0  0  0  0  0  0  0  0  0  0  0
   57.6220   33.7980   45.6810 C   0  0  0  0  0  0  0  0  0  0  0  0
   57.3910   33.2140   47.0800 C   0  0  0  0  0  0  0  0  0  0  0  0
   58.2690   32.0670   47.3500 N   0  0  0  0  0  0  0  0  0  0  0  0
   59.0460   31.8800   48.4520 C   0  0  0  0  0  0  0  0  0  0  0  0
   59.2640   33.1030   49.7530 S   0  0  0  0  0  0  0  0  0  0  0  0
   60.1200   34.3330   48.7050 C   0  0  0  0  0  0  0  0  0  0  0  0
   61.5310   33.9240   48.3870 C   0  0  0  0  0  0  0  0  0  0  0  0
   61.9490   33.7890   47.0520 C   0  0  0  0  0  0  0  0  0  0  0  0
   63.2500   33.3680   46.7620 C   0  0  0  0  0  0  0  0  0  0  0  0
   64.1400   33.0790   47.8000 C   0  0  0  0  0  0  0  0  0  0  0  0
   63.7380   33.2320   49.1300 C   0  0  0  0  0  0  0  0  0  0  0  0
   62.4390   33.6560   49.4240 C   0  0  0  0  0  0  0  0  0  0  0  0
   59.6200   30.6520   48.5110 N   0  0  0  0  0  0  0  0  0  0  0  0
   59.1930   30.0690   47.3760 C   0  0  0  0  0  0  0  0  0  0  0  0
   58.3790   30.8990   46.6810 C   0  0  0  0  0  0  0  0  0  0  0  0
   57.7850   30.4580   45.4990 C   0  0  0  0  0  0  0  0  0  0  0  0
   57.0260   31.2150   44.8360 O   0  0  0  0  0  0  0  0  0  0  0  0
   58.0460   29.1760   45.0730 N   0  0  0  0  0  0  0  0  0  0  0  0
   57.4580   28.6880   43.8130 C   0  0  0  0  0  0  0  0  0  0  0  0
   58.9100   28.3650   45.7880 C   0  0  0  0  0  0  0  0  0  0  0  0
   59.1640   27.1990   45.3730 O   0  0  0  0  0  0  0  0  0  0  0  0
   59.4970   28.8130   46.9500 N   0  0  0  0  0  0  0  0  0  0  0  0
   60.3700   27.9390   47.7460 C   0  0  0  0  0  0  0  0  0  0  0  0
   59.6606   35.5478   46.6719 H   0  0  0  0  0  0  0  0  0  0  0  0
   60.5923   35.4958   45.1370 H   0  0  0  0  0  0  0  0  0  0  0  0
   58.8930   36.0782   45.1370 H   0  0  0  0  0  0  0  0  0  0  0  0
   59.2617   33.6892   44.2810 H   0  0  0  0  0  0  0  0  0  0  0  0
   59.6822   33.2591   45.9873 H   0  0  0  0  0  0  0  0  0  0  0  0
   57.1522   34.7914   45.6318 H   0  0  0  0  0  0  0  0  0  0  0  0
   57.1787   33.1034   44.9523 H   0  0  0  0  0  0  0  0  0  0  0  0
   57.5882   33.9959   47.8282 H   0  0  0  0  0  0  0  0  0  0  0  0
   56.3494   32.8646   47.1344 H   0  0  0  0  0  0  0  0  0  0  0  0
   59.5628   34.4450   47.7632 H   0  0  0  0  0  0  0  0  0  0  0  0
   60.1604   35.2811   49.2614 H   0  0  0  0  0  0  0  0  0  0  0  0
   61.2504   34.0153   46.2330 H   0  0  0  0  0  0  0  0  0  0  0  0
   63.5736   33.2641   45.7158 H   0  0  0  0  0  0  0  0  0  0  0  0
   65.1578   32.7308   47.5702 H   0  0  0  0  0  0  0  0  0  0  0  0
   64.4444   33.0186   49.9458 H   0  0  0  0  0  0  0  0  0  0  0  0
   62.1269   33.7802   50.4715 H   0  0  0  0  0  0  0  0  0  0  0  0
   56.6293   28.0003   44.0373 H   0  0  0  0  0  0  0  0  0  0  0  0
   57.0793   29.5409   43.2306 H   0  0  0  0  0  0  0  0  0  0  0  0
   58.2265   28.1586   43.2306 H   0  0  0  0  0  0  0  0  0  0  0  0
   60.1908   28.1184   48.8164 H   0  0  0  0  0  0  0  0  0  0  0  0
   60.1509   26.8875   47.5087 H   0  0  0  0  0  0  0  0  0  0  0  0
   61.4218   28.1569   47.5087 H   0  0  0  0  0  0  0  0  0  0  0  0
  1  2  1  0
  2  3  1  0
  3  4  1  0
  4  5  1  0
  5  6  1  0
  6  7  1  0
  7  8  1  0
  8  9  1  0
  9 10  2  0
 10 11  1  0
 11 12  2  0
 12 13  1  0
 13 14  2  0
  6 15  2  0
 15 16  1  0
 16 17  2  0
 17 18  1  0
 18 19  2  0
 18 20  1  0
 20 21  1  0
 20 22  1  0
 22 23  2  0
 22 24  1  0
 24 25  1  0
 17  5  1  0
 14  9  1  0
 24 16  1  0
  1 26  1  0
  1 27  1  0
  1 28  1  0
  2 29  1  0
  2 30  1  0
  3 31  1  0
  3 32  1  0
  4 33  1  0
  4 34  1  0
  8 35  1  0
  8 36  1  0
 10 37  1  0
 11 38  1  0
 12 39  1  0
 13 40  1  0
 14 41  1  0
 21 42  1  0
 21 43  1  0
 21 44  1  0
 25 45  1  0
 25 46  1  0
 25 47  1  0
M  END
>  <UniqueID>  (24) 
22

>  <SMILES>  (24) 
CCCCn1c(SCc2ccccc2)nc2c1c(=O)n(C)c(=O)n2C

>  <Energy>  (24) 
83.15927418746834

>  <Genealogy>  (24) 
CCCCn1c(SCc2ccccc2)nc2c1c(=O)n(C)c(=O)n2C (3D coordinates assigned)
CCCCn1c(SCc2ccccc2)nc2c1c(=O)n(C)c(=O)n2C (optimized conformer: 83.15927418746834 kcal/mol)

>  <smiles>  (24) 
CCCCn1c(SCc2ccccc2)nc2c1c(=O)n(C)c(=O)n2C

>  <score_type>  (24) 
oracle

>  <origin>  (24) 
adg

>  <m_score__min__energy>  (24) 
-7.4000000000000004

>  <m_primary>  (24) 
energy

$$$$
24:0
     RDKit          3D

 32 33  0  0  0  0  0  0  0  0999 V2000
   55.1420   29.3320   44.5260 O   0  0  0  0  0  0  0  0  0  0  0  0
   56.2470   29.9290   44.4480 C   0  0  0  0  0  0  0  0  0  0  0  0
   56.6240   30.6080   43.1630 C   0  0  0  0  0  0  0  0  0  0  0  0
   58.1740   31.5410   43.4040 S   0  0  0  0  0  0  0  0  0  0  0  0
   57.3980   33.0120   44.1610 C   0  0  0  0  0  0  0  0  0  0  0  0
   58.1840   33.4630   45.3630 C   0  0  0  0  0  0  0  0  0  0  0  0
   59.1250   34.5000   45.2390 C   0  0  0  0  0  0  0  0  0  0  0  0
   59.8590   34.9210   46.3520 C   0  0  0  0  0  0  0  0  0  0  0  0
   59.6590   34.3130   47.5940 C   0  0  0  0  0  0  0  0  0  0  0  0
   60.3680   34.7280   48.6730 F   0  0  0  0  0  0  0  0  0  0  0  0
   58.7220   33.2840   47.7260 C   0  0  0  0  0  0  0  0  0  0  0  0
   57.9860   32.8600   46.6160 C   0  0  0  0  0  0  0  0  0  0  0  0
   57.0650   30.0310   45.6210 N   0  0  0  0  0  0  0  0  0  0  0  0
   58.1920   29.1980   45.9190 C   0  0  0  0  0  0  0  0  0  0  0  0
   58.2570   27.8700   45.4740 C   0  0  0  0  0  0  0  0  0  0  0  0
   59.3510   27.0750   45.8160 C   0  0  0  0  0  0  0  0  0  0  0  0
   60.3680   27.6140   46.6070 C   0  0  0  0  0  0  0  0  0  0  0  0
   60.2800   28.8980   47.0490 N   0  0  0  0  0  0  0  0  0  0  0  0
   59.2170   29.6880   46.7350 C   0  0  0  0  0  0  0  0  0  0  0  0
   56.7688   29.8522   42.3770 H   0  0  0  0  0  0  0  0  0  0  0  0
   55.8220   31.2983   42.8626 H   0  0  0  0  0  0  0  0  0  0  0  0
   57.3679   33.8261   43.4219 H   0  0  0  0  0  0  0  0  0  0  0  0
   56.3780   32.7516   44.4801 H   0  0  0  0  0  0  0  0  0  0  0  0
   59.2844   34.9818   44.2631 H   0  0  0  0  0  0  0  0  0  0  0  0
   60.5950   35.7321   46.2497 H   0  0  0  0  0  0  0  0  0  0  0  0
   58.5637   32.8074   48.7047 H   0  0  0  0  0  0  0  0  0  0  0  0
   57.2487   32.0508   46.7242 H   0  0  0  0  0  0  0  0  0  0  0  0
   57.4466   27.4557   44.8562 H   0  0  0  0  0  0  0  0  0  0  0  0
   59.4121   26.0339   45.4662 H   0  0  0  0  0  0  0  0  0  0  0  0
   61.2411   27.0000   46.8730 H   0  0  0  0  0  0  0  0  0  0  0  0
   61.0450   29.2850   47.6470 H   0  0  0  0  0  0  0  0  0  0  0  0
   59.1638   30.7154   47.1243 H   0  0  0  0  0  0  0  0  0  0  0  0
  1  2  2  0
  2  3  1  0
  3  4  1  0
  4  5  1  0
  5  6  1  0
  6  7  2  0
  7  8  1  0
  8  9  2  0
  9 10  1  0
  9 11  1  0
 11 12  2  0
  2 13  1  0
 13 14  1  0
 14 15  2  0
 15 16  1  0
 16 17  2  0
 17 18  1  0
 18 19  2  0
 12  6  1  0
 19 14  1  0
  3 20  1  0
  3 21  1  0
  5 22  1  0
  5 23  1  0
  7 24  1  0
  8 25  1  0
 11 26  1  0
 12 27  1  0
 15 28  1  0
 16 29  1  0
 17 30  1  0
 18 31  1  0
 19 32  1  0
M  CHG  2  13  -1  18   1
M  END
>  <UniqueID>  (25) 
23

>  <SMILES>  (25) 
O=C(CSCc1ccc(F)cc1)[N-]c1ccc[nH+]c1

>  <Energy>  (25) 
29.71596217525006

>  <Genealogy>  (25) 
O=C(CSCc1ccc(F)cc1)[N-]c1ccc[nH+]c1 (protonated)
O=C(CSCc1ccc(F)cc1)[N-]c1ccc[nH+]c1 (3D coordinates assigned)
O=C(CSCc1ccc(F)cc1)[N-]c1ccc[nH+]c1 (optimized conformer: 29.71596217525006 kcal/mol)

>  <smiles>  (25) 
O=C(CSCc1ccc(F)cc1)Nc1cccnc1

>  <score_type>  (25) 
oracle

>  <origin>  (25) 
adg

>  <m_score__min__energy>  (25) 
-7.2599999999999998

>  <m_primary>  (25) 
energy

$$$$
25:0
     RDKit          3D

 50 53  0  0  0  0  0  0  0  0999 V2000
   61.7500   30.5510   46.7030 O   0  0  0  0  0  0  0  0  0  0  0  0
   60.5100   30.7110   46.5360 C   0  0  0  0  0  0  0  0  0  0  0  0
   59.7300   29.6110   45.9230 C   0  0  0  0  0  0  0  0  0  0  0  0
   59.9910   28.3060   46.3490 C   0  0  0  0  0  0  0  0  0  0  0  0
   59.2450   27.2350   45.8680 C   0  0  0  0  0  0  0  0  0  0  0  0
   58.2160   27.4330   44.9370 C   0  0  0  0  0  0  0  0  0  0  0  0
   57.4100   26.3150   44.5170 N   0  0  0  0  0  0  0  0  0  0  0  0
   56.9820   25.2440   45.4190 C   0  0  0  0  0  0  0  0  0  0  0  0
   57.3010   23.8960   44.8270 C   0  0  0  0  0  0  0  0  0  0  0  0
   58.4020   23.1630   45.2960 C   0  0  0  0  0  0  0  0  0  0  0  0
   58.6830   21.9120   44.7410 C   0  0  0  0  0  0  0  0  0  0  0  0
   57.8910   21.4070   43.7560 N   0  0  0  0  0  0  0  0  0  0  0  0
   56.8130   22.0940   43.2900 C   0  0  0  0  0  0  0  0  0  0  0  0
   56.4970   23.3480   43.8190 C   0  0  0  0  0  0  0  0  0  0  0  0
   57.9620   28.7420   44.4520 C   0  0  0  0  0  0  0  0  0  0  0  0
   56.9860   28.9800   43.4610 C   0  0  0  0  0  0  0  0  0  0  0  0
   56.7610   30.2680   42.9760 C   0  0  0  0  0  0  0  0  0  0  0  0
   57.5140   31.3370   43.4500 C   0  0  0  0  0  0  0  0  0  0  0  0
   58.4980   31.1290   44.4150 C   0  0  0  0  0  0  0  0  0  0  0  0
   58.7300   29.8390   44.9440 C   0  0  0  0  0  0  0  0  0  0  0  0
   59.8850   31.9430   46.9510 N   0  0  0  0  0  0  0  0  0  0  0  0
   58.4870   31.9750   47.4070 C   0  0  0  0  0  0  0  0  0  0  0  0
   57.7210   33.1410   46.7590 C   0  0  0  0  0  0  0  0  0  0  0  0
   58.5910   34.3890   46.5030 C   0  0  0  0  0  0  0  0  0  0  0  0
   59.8610   34.3970   47.3600 C   0  0  0  0  0  0  0  0  0  0  0  0
   60.7110   33.1560   47.0560 C   0  0  0  0  0  0  0  0  0  0  0  0
   60.7973   28.1232   47.0745 H   0  0  0  0  0  0  0  0  0  0  0  0
   59.4658   26.2177   46.2235 H   0  0  0  0  0  0  0  0  0  0  0  0
   57.0540   26.2830   43.5350 H   0  0  0  0  0  0  0  0  0  0  0  0
   57.5054   25.3500   46.3807 H   0  0  0  0  0  0  0  0  0  0  0  0
   55.8948   25.3184   45.5685 H   0  0  0  0  0  0  0  0  0  0  0  0
   59.0391   23.5704   46.0948 H   0  0  0  0  0  0  0  0  0  0  0  0
   59.5466   21.3336   45.1011 H   0  0  0  0  0  0  0  0  0  0  0  0
   58.1150   20.4700   43.3510 H   0  0  0  0  0  0  0  0  0  0  0  0
   56.1886   21.6610   42.4946 H   0  0  0  0  0  0  0  0  0  0  0  0
   55.6225   23.9015   43.4464 H   0  0  0  0  0  0  0  0  0  0  0  0
   56.3958   28.1398   43.0665 H   0  0  0  0  0  0  0  0  0  0  0  0
   55.9849   30.4392   42.2155 H   0  0  0  0  0  0  0  0  0  0  0  0
   57.3323   32.3501   43.0620 H   0  0  0  0  0  0  0  0  0  0  0  0
   59.1008   31.9784   44.7689 H   0  0  0  0  0  0  0  0  0  0  0  0
   57.9982   31.0281   47.1343 H   0  0  0  0  0  0  0  0  0  0  0  0
   58.4780   32.1139   48.4982 H   0  0  0  0  0  0  0  0  0  0  0  0
   57.3151   32.7973   45.7961 H   0  0  0  0  0  0  0  0  0  0  0  0
   56.9319   33.4388   47.4651 H   0  0  0  0  0  0  0  0  0  0  0  0
   58.8800   34.4073   45.4418 H   0  0  0  0  0  0  0  0  0  0  0  0
   57.9971   35.2748   46.7725 H   0  0  0  0  0  0  0  0  0  0  0  0
   60.4452   35.3017   47.1360 H   0  0  0  0  0  0  0  0  0  0  0  0
   59.5778   34.3875   48.4229 H   0  0  0  0  0  0  0  0  0  0  0  0
   61.2399   33.3106   46.1040 H   0  0  0  0  0  0  0  0  0  0  0  0
   61.4219   33.0162   47.8837 H   0  0  0  0  0  0  0  0  0  0  0  0
  1  2  2  0
  2  3  1  0
  3  4  2  0
  4  5  1  0
  5  6  2  0
  6  7  1  0
  7  8  1  0
  8  9  1  0
  9 10  2  0
 10 11  1  0
 11 12  2  0
 12 13  1  0
 13 14  2  0
  6 15  1  0
 15 16  2  0
 16 17  1  0
 17 18  2  0
 18 19  1  0
 19 20  2  0
  2 21  1  0
 21 22  1  0
 22 23  1  0
 23 24  1  0
 24 25  1  0
 25 26  1  0
 20  3  1  0
 26 21  1  0
 14  9  1  0
 20 15  1  0
  4 27  1  0
  5 28  1  0
  7 29  1  0
  8 30  1  0
  8 31  1  0
 10 32  1  0
 11 33  1  0
 12 34  1  0
 13 35  1  0
 14 36  1  0
 16 37  1  0
 17 38  1  0
 18 39  1  0
 19 40  1  0
 22 41  1  0
 22 42  1  0
 23 43  1  0
 23 44  1  0
 24 45  1  0
 24 46  1  0
 25 47  1  0
 25 48  1  0
 26 49  1  0
 26 50  1  0
M  CHG  1  12   1
M  END
>  <UniqueID>  (26) 
24

>  <SMILES>  (26) 
O=C(c1ccc(NCc2cc[nH+]cc2)c2ccccc12)N1CCCCC1

>  <Energy>  (26) 
68.83957575533285

>  <Genealogy>  (26) 
O=C(c1ccc(NCc2cc[nH+]cc2)c2ccccc12)N1CCCCC1 (protonated)
O=C(c1ccc(NCc2cc[nH+]cc2)c2ccccc12)N1CCCCC1 (3D coordinates assigned)
O=C(c1ccc(NCc2cc[nH+]cc2)c2ccccc12)N1CCCCC1 (nonaromatic ring conformer: 68.83957575533285 kcal/mol)

>  <smiles>  (26) 
O=C(c1ccc(NCc2ccncc2)c2ccccc12)N1CCCCC1

>  <score_type>  (26) 
oracle

>  <origin>  (26) 
adg

>  <m_score__min__energy>  (26) 
-7.7999999999999998

>  <m_primary>  (26) 
energy

$$$$
26:0
     RDKit          3D

 44 46  0  0  0  0  0  0  0  0999 V2000
   66.3330   32.8360   51.7980 C   0  0  0  0  0  0  0  0  0  0  0  0
   64.9770   33.2680   51.8470 O   0  0  0  0  0  0  0  0  0  0  0  0
   64.1550   33.4200   50.7210 C   0  0  0  0  0  0  0  0  0  0  0  0
   62.7960   33.7500   50.9240 C   0  0  0  0  0  0  0  0  0  0  0  0
   61.9210   33.9170   49.8370 C   0  0  0  0  0  0  0  0  0  0  0  0
   62.4400   33.7660   48.5500 C   0  0  0  0  0  0  0  0  0  0  0  0
   61.8470   33.8430   47.2990 C   0  0  0  0  0  0  0  0  0  0  0  0
   60.4470   34.1640   46.9570 C   0  0  0  0  0  0  0  0  0  0  0  0
   60.0350   35.3400   47.1460 O   0  0  0  0  0  0  0  0  0  0  0  0
   59.5080   33.1450   46.4300 C   0  0  0  0  0  0  0  0  0  0  0  0
   58.8750   33.3270   45.1950 C   0  0  0  0  0  0  0  0  0  0  0  0
   57.9830   32.3640   44.6960 C   0  0  0  0  0  0  0  0  0  0  0  0
   57.3150   32.5370   43.4720 O   0  0  0  0  0  0  0  0  0  0  0  0
   57.9040   32.3270   42.1930 C   0  0  0  0  0  0  0  0  0  0  0  0
   57.7360   31.1880   45.4260 C   0  0  0  0  0  0  0  0  0  0  0  0
   56.8300   30.2720   44.8580 O   0  0  0  0  0  0  0  0  0  0  0  0
   57.0780   29.4060   43.7550 C   0  0  0  0  0  0  0  0  0  0  0  0
   58.3920   30.9820   46.6670 C   0  0  0  0  0  0  0  0  0  0  0  0
   58.1570   29.8060   47.3980 O   0  0  0  0  0  0  0  0  0  0  0  0
   59.1070   28.7660   47.6040 C   0  0  0  0  0  0  0  0  0  0  0  0
   59.2760   31.9660   47.1510 C   0  0  0  0  0  0  0  0  0  0  0  0
   62.8480   33.5140   46.3900 C   0  0  0  0  0  0  0  0  0  0  0  0
   64.0110   33.2700   47.0340 N   0  0  0  0  0  0  0  0  0  0  0  0
   63.7520   33.4250   48.3440 C   0  0  0  0  0  0  0  0  0  0  0  0
   64.6430   33.2480   49.4020 C   0  0  0  0  0  0  0  0  0  0  0  0
   66.7162   32.7139   52.8219 H   0  0  0  0  0  0  0  0  0  0  0  0
   66.3925   31.8744   51.2671 H   0  0  0  0  0  0  0  0  0  0  0  0
   66.9378   33.5859   51.2671 H   0  0  0  0  0  0  0  0  0  0  0  0
   62.4171   33.8782   51.9487 H   0  0  0  0  0  0  0  0  0  0  0  0
   60.8598   34.1593   49.9955 H   0  0  0  0  0  0  0  0  0  0  0  0
   59.0786   34.2350   44.6084 H   0  0  0  0  0  0  0  0  0  0  0  0
   58.9333   31.9600   42.3191 H   0  0  0  0  0  0  0  0  0  0  0  0
   57.3153   31.5834   41.6358 H   0  0  0  0  0  0  0  0  0  0  0  0
   57.9185   33.2753   41.6358 H   0  0  0  0  0  0  0  0  0  0  0  0
   57.3630   28.4108   44.1270 H   0  0  0  0  0  0  0  0  0  0  0  0
   56.1678   29.3219   43.1430 H   0  0  0  0  0  0  0  0  0  0  0  0
   57.8947   29.8164   43.1430 H   0  0  0  0  0  0  0  0  0  0  0  0
   59.2505   28.6089   48.6832 H   0  0  0  0  0  0  0  0  0  0  0  0
   58.7392   27.8370   47.1440 H   0  0  0  0  0  0  0  0  0  0  0  0
   60.0654   29.0485   47.1440 H   0  0  0  0  0  0  0  0  0  0  0  0
   59.7920   31.8066   48.1093 H   0  0  0  0  0  0  0  0  0  0  0  0
   62.7118   33.4601   45.2998 H   0  0  0  0  0  0  0  0  0  0  0  0
   64.9220   33.0040   46.5980 H   0  0  0  0  0  0  0  0  0  0  0  0
   65.6945   32.9825   49.2178 H   0  0  0  0  0  0  0  0  0  0  0  0
  1  2  1  0
  2  3  1  0
  3  4  2  0
  4  5  1  0
  5  6  2  0
  6  7  1  0
  7  8  1  0
  8  9  2  0
  8 10  1  0
 10 11  2  0
 11 12  1  0
 12 13  1  0
 13 14  1  0
 12 15  2  0
 15 16  1  0
 16 17  1  0
 15 18  1  0
 18 19  1  0
 19 20  1  0
 18 21  2  0
  7 22  2  0
 22 23  1  0
 23 24  1  0
 24 25  2  0
 25  3  1  0
 24  6  1  0
 21 10  1  0
  1 26  1  0
  1 27  1  0
  1 28  1  0
  4 29  1  0
  5 30  1  0
 11 31  1  0
 14 32  1  0
 14 33  1  0
 14 34  1  0
 17 35  1  0
 17 36  1  0
 17 37  1  0
 20 38  1  0
 20 39  1  0
 20 40  1  0
 21 41  1  0
 22 42  1  0
 23 43  1  0
 25 44  1  0
M  END
>  <UniqueID>  (27) 
25

>  <SMILES>  (27) 
COc1ccc2c(C(=O)c3cc(OC)c(OC)c(OC)c3)c[nH]c2c1

>  <Energy>  (27) 
85.09121226582145

>  <Genealogy>  (27) 
COc1ccc2c(C(=O)c3cc(OC)c(OC)c(OC)c3)c[nH]c2c1 (3D coordinates assigned)
COc1ccc2c(C(=O)c3cc(OC)c(OC)c(OC)c3)c[nH]c2c1 (optimized conformer: 85.09121226582145 kcal/mol)

>  <smiles>  (27) 
COc1ccc2c(C(=O)c3cc(OC)c(OC)c(OC)c3)c[nH]c2c1

>  <score_type>  (27) 
oracle

>  <origin>  (27) 
adg

>  <m_score__min__energy>  (27) 
-6.7800000000000002

>  <m_primary>  (27) 
energy

$$$$
27:0
     RDKit          3D

 46 48  0  0  0  0  0  0  0  0999 V2000
   53.7210   24.8390   45.6000 C   0  0  0  0  0  0  0  0  0  0  0  0
   54.5180   25.9610   45.9590 O   0  0  0  0  0  0  0  0  0  0  0  0
   55.9010   25.9220   46.1830 C   0  0  0  0  0  0  0  0  0  0  0  0
   56.5100   24.7900   46.7670 C   0  0  0  0  0  0  0  0  0  0  0  0
   57.8880   24.7560   46.9780 C   0  0  0  0  0  0  0  0  0  0  0  0
   58.6780   25.8410   46.6100 C   0  0  0  0  0  0  0  0  0  0  0  0
   58.0930   26.9650   46.0330 C   0  0  0  0  0  0  0  0  0  0  0  0
   56.7110   27.0300   45.8180 C   0  0  0  0  0  0  0  0  0  0  0  0
   56.2190   28.2180   45.2440 O   0  0  0  0  0  0  0  0  0  0  0  0
   56.8940   29.0490   44.3050 C   0  0  0  0  0  0  0  0  0  0  0  0
   56.8700   30.4630   44.8110 C   0  0  0  0  0  0  0  0  0  0  0  0
   55.8910   31.2010   44.5100 O   0  0  0  0  0  0  0  0  0  0  0  0
   57.9810   31.0250   45.5370 N   0  0  0  0  0  0  0  0  0  0  0  0
   58.8090   30.1810   46.4150 C   0  0  0  0  0  0  0  0  0  0  0  0
   59.3450   31.0040   47.5870 C   0  0  0  0  0  0  0  0  0  0  0  0
   59.9350   32.2460   47.0870 N   0  0  0  0  0  0  0  0  0  0  0  0
   61.3230   32.5640   47.3030 C   0  0  0  0  0  0  0  0  0  0  0  0
   61.9360   33.6000   46.5800 C   0  0  0  0  0  0  0  0  0  0  0  0
   63.2790   33.9030   46.8160 C   0  0  0  0  0  0  0  0  0  0  0  0
   63.9970   33.1780   47.7700 C   0  0  0  0  0  0  0  0  0  0  0  0
   63.3600   32.1550   48.4750 C   0  0  0  0  0  0  0  0  0  0  0  0
   62.0500   31.8690   48.2320 N   0  0  0  0  0  0  0  0  0  0  0  0
   59.0790   33.1140   46.2760 C   0  0  0  0  0  0  0  0  0  0  0  0
   58.5220   32.3190   45.0930 C   0  0  0  0  0  0  0  0  0  0  0  0
   53.3639   24.3363   46.5110 H   0  0  0  0  0  0  0  0  0  0  0  0
   52.8591   25.1766   45.0057 H   0  0  0  0  0  0  0  0  0  0  0  0
   54.3235   24.1363   45.0057 H   0  0  0  0  0  0  0  0  0  0  0  0
   55.8923   23.9276   47.0580 H   0  0  0  0  0  0  0  0  0  0  0  0
   58.3515   23.8699   47.4362 H   0  0  0  0  0  0  0  0  0  0  0  0
   59.7651   25.8106   46.7751 H   0  0  0  0  0  0  0  0  0  0  0  0
   58.7267   27.8155   45.7414 H   0  0  0  0  0  0  0  0  0  0  0  0
   57.9355   28.7128   44.1944 H   0  0  0  0  0  0  0  0  0  0  0  0
   56.3949   28.9919   43.3264 H   0  0  0  0  0  0  0  0  0  0  0  0
   58.1990   29.3517   46.8024 H   0  0  0  0  0  0  0  0  0  0  0  0
   59.6571   29.7855   45.8368 H   0  0  0  0  0  0  0  0  0  0  0  0
   58.5200   31.2418   48.2747 H   0  0  0  0  0  0  0  0  0  0  0  0
   60.1131   30.4236   48.1191 H   0  0  0  0  0  0  0  0  0  0  0  0
   61.3627   34.1688   45.8332 H   0  0  0  0  0  0  0  0  0  0  0  0
   63.7697   34.7101   46.2523 H   0  0  0  0  0  0  0  0  0  0  0  0
   65.0544   33.4109   47.9640 H   0  0  0  0  0  0  0  0  0  0  0  0
   63.9169   31.5785   49.2284 H   0  0  0  0  0  0  0  0  0  0  0  0
   61.6060   31.0870   48.7640 H   0  0  0  0  0  0  0  0  0  0  0  0
   58.2471   33.4872   46.8913 H   0  0  0  0  0  0  0  0  0  0  0  0
   59.6681   33.9642   45.9018 H   0  0  0  0  0  0  0  0  0  0  0  0
   57.7194   32.8998   44.6150 H   0  0  0  0  0  0  0  0  0  0  0  0
   59.3386   32.1321   44.3801 H   0  0  0  0  0  0  0  0  0  0  0  0
  1  2  1  0
  2  3  1  0
  3  4  2  0
  4  5  1  0
  5  6  2  0
  6  7  1  0
  7  8  2  0
  8  9  1  0
  9 10  1  0
 10 11  1  0
 11 12  2  0
 11 13  1  0
 13 14  1  0
 14 15  1  0
 15 16  1  0
 16 17  1  0
 17 18  2  0
 18 19  1  0
 19 20  2  0
 20 21  1  0
 21 22  2  0
 16 23  1  0
 23 24  1  0
  8  3  1  0
 24 13  1  0
 22 17  1  0
  1 25  1  0
  1 26  1  0
  1 27  1  0
  4 28  1  0
  5 29  1  0
  6 30  1  0
  7 31  1  0
 10 32  1  0
 10 33  1  0
 14 34  1  0
 14 35  1  0
 15 36  1  0
 15 37  1  0
 18 38  1  0
 19 39  1  0
 20 40  1  0
 21 41  1  0
 22 42  1  0
 23 43  1  0
 23 44  1  0
 24 45  1  0
 24 46  1  0
M  CHG  1  22   1
M  END
>  <UniqueID>  (28) 
26

>  <SMILES>  (28) 
COc1ccccc1OCC(=O)N1CCN(c2cccc[nH+]2)CC1

>  <Energy>  (28) 
54.416421182835144

>  <Genealogy>  (28) 
COc1ccccc1OCC(=O)N1CCN(c2cccc[nH+]2)CC1 (protonated)
COc1ccccc1OCC(=O)N1CCN(c2cccc[nH+]2)CC1 (3D coordinates assigned)
COc1ccccc1OCC(=O)N1CCN(c2cccc[nH+]2)CC1 (nonaromatic ring conformer: 54.416421182835144 kcal/mol)

>  <smiles>  (28) 
COc1ccccc1OCC(=O)N1CCN(c2ccccn2)CC1

>  <score_type>  (28) 
oracle

>  <origin>  (28) 
adg

>  <m_score__min__energy>  (28) 
-6.6200000000000001

>  <m_primary>  (28) 
energy

$$$$
28:0
     RDKit          3D

 37 39  0  0  0  0  0  0  0  0999 V2000
   56.9280   24.8190   44.5970 C   0  0  0  0  0  0  0  0  0  0  0  0
   56.1990   25.7840   45.9000 S   0  0  0  0  0  0  0  0  0  0  0  0
   54.7350   25.9790   45.6230 O   0  0  0  0  0  0  0  0  0  0  0  0
   56.3500   25.0590   47.2080 O   0  0  0  0  0  0  0  0  0  0  0  0
   57.0030   27.3480   45.9900 C   0  0  0  0  0  0  0  0  0  0  0  0
   58.0050   27.5730   46.9410 C   0  0  0  0  0  0  0  0  0  0  0  0
   58.6350   28.8180   47.0190 C   0  0  0  0  0  0  0  0  0  0  0  0
   58.2670   29.8640   46.1530 C   0  0  0  0  0  0  0  0  0  0  0  0
   58.9530   31.1800   46.2520 C   0  0  0  0  0  0  0  0  0  0  0  0
   58.5520   32.3340   45.5700 C   0  0  0  0  0  0  0  0  0  0  0  0
   59.6000   33.5800   45.9870 S   0  0  0  0  0  0  0  0  0  0  0  0
   60.5190   32.6150   47.0140 C   0  0  0  0  0  0  0  0  0  0  0  0
   61.6690   33.0510   47.7680 N   0  0  0  0  0  0  0  0  0  0  0  0
   63.0040   32.5280   47.4450 C   0  0  0  0  0  0  0  0  0  0  0  0
   64.0900   33.4790   47.9570 C   0  0  0  0  0  0  0  0  0  0  0  0
   63.8780   33.8010   49.3170 O   0  0  0  0  0  0  0  0  0  0  0  0
   62.6860   34.5490   49.4410 C   0  0  0  0  0  0  0  0  0  0  0  0
   61.4680   33.6970   49.0700 C   0  0  0  0  0  0  0  0  0  0  0  0
   60.0430   31.3520   47.0500 N   0  0  0  0  0  0  0  0  0  0  0  0
   57.2540   29.6290   45.2020 C   0  0  0  0  0  0  0  0  0  0  0  0
   56.6260   28.3820   45.1270 C   0  0  0  0  0  0  0  0  0  0  0  0
   57.5365   24.0135   45.0338 H   0  0  0  0  0  0  0  0  0  0  0  0
   56.1326   24.3818   43.9755 H   0  0  0  0  0  0  0  0  0  0  0  0
   57.5659   25.4646   43.9755 H   0  0  0  0  0  0  0  0  0  0  0  0
   58.2977   26.7667   47.6297 H   0  0  0  0  0  0  0  0  0  0  0  0
   59.4266   28.9818   47.7650 H   0  0  0  0  0  0  0  0  0  0  0  0
   57.6986   32.4122   44.8803 H   0  0  0  0  0  0  0  0  0  0  0  0
   63.1318   31.5436   47.9190 H   0  0  0  0  0  0  0  0  0  0  0  0
   63.0962   32.4372   46.3526 H   0  0  0  0  0  0  0  0  0  0  0  0
   65.0721   32.9951   47.8503 H   0  0  0  0  0  0  0  0  0  0  0  0
   64.0524   34.4061   47.3662 H   0  0  0  0  0  0  0  0  0  0  0  0
   62.5825   34.8927   50.4808 H   0  0  0  0  0  0  0  0  0  0  0  0
   62.7365   35.4088   48.7567 H   0  0  0  0  0  0  0  0  0  0  0  0
   61.3196   32.9240   49.8384 H   0  0  0  0  0  0  0  0  0  0  0  0
   60.5835   34.3483   49.0108 H   0  0  0  0  0  0  0  0  0  0  0  0
   56.9550   30.4329   44.5133 H   0  0  0  0  0  0  0  0  0  0  0  0
   55.8313   28.2133   44.3854 H   0  0  0  0  0  0  0  0  0  0  0  0
  1  2  1  0
  2  3  2  0
  2  4  2  0
  2  5  1  0
  5  6  2  0
  6  7  1  0
  7  8  2  0
  8  9  1  0
  9 10  2  0
 10 11  1  0
 11 12  1  0
 12 13  1  0
 13 14  1  0
 14 15  1  0
 15 16  1  0
 16 17  1  0
 17 18  1  0
 12 19  2  0
  8 20  1  0
 20 21  2  0
 21  5  1  0
 19  9  1  0
 18 13  1  0
  1 22  1  0
  1 23  1  0
  1 24  1  0
  6 25  1  0
  7 26  1  0
 10 27  1  0
 14 28  1  0
 14 29  1  0
 15 30  1  0
 15 31  1  0
 17 32  1  0
 17 33  1  0
 18 34  1  0
 18 35  1  0
 20 36  1  0
 21 37  1  0
M  END
>  <UniqueID>  (29) 
27

>  <SMILES>  (29) 
CS(=O)(=O)c1ccc(-c2csc(N3CCOCC3)n2)cc1

>  <Energy>  (29) 
69.10197616054799

>  <Genealogy>  (29) 
CS(=O)(=O)c1ccc(-c2csc(N3CCOCC3)n2)cc1 (3D coordinates assigned)
CS(=O)(=O)c1ccc(-c2csc(N3CCOCC3)n2)cc1 (nonaromatic ring conformer: 69.10197616054799 kcal/mol)

>  <smiles>  (29) 
CS(=O)(=O)c1ccc(-c2csc(N3CCOCC3)n2)cc1

>  <score_type>  (29) 
oracle

>  <origin>  (29) 
adg

>  <m_score__min__energy>  (29) 
-7.1500000000000004

>  <m_primary>  (29) 
energy

$$$$
29:0
     RDKit          3D

 49 51  0  0  0  0  0  0  0  0999 V2000
   56.7450   25.3110   47.1260 C   0  0  0  0  0  0  0  0  0  0  0  0
   56.1820   25.7620   45.7630 C   0  0  0  0  0  0  0  0  0  0  0  0
   56.3600   24.6300   44.7300 C   0  0  0  0  0  0  0  0  0  0  0  0
   54.8160   26.0710   45.9050 O   0  0  0  0  0  0  0  0  0  0  0  0
   56.9370   27.0310   45.3040 C   0  0  0  0  0  0  0  0  0  0  0  0
   56.0540   28.1960   45.2420 N   0  0  0  0  0  0  0  0  0  0  0  0
   56.4670   29.5570   45.0550 C   0  0  0  0  0  0  0  0  0  0  0  0
   55.7290   30.3250   44.3830 O   0  0  0  0  0  0  0  0  0  0  0  0
   57.7250   30.0860   45.6190 C   0  0  0  0  0  0  0  0  0  0  0  0
   58.1290   31.4040   45.3620 C   0  0  0  0  0  0  0  0  0  0  0  0
   59.3140   31.8990   45.9130 C   0  0  0  0  0  0  0  0  0  0  0  0
   60.0980   31.0970   46.7560 C   0  0  0  0  0  0  0  0  0  0  0  0
   61.3250   31.6220   47.2900 N   0  0  0  0  0  0  0  0  0  0  0  0
   61.3930   32.7310   48.2020 C   0  0  0  0  0  0  0  0  0  0  0  0
   60.3960   33.4890   48.3500 O   0  0  0  0  0  0  0  0  0  0  0  0
   62.6030   33.0090   48.9250 N   0  0  0  0  0  0  0  0  0  0  0  0
   62.6330   33.7640   50.1800 C   0  0  0  0  0  0  0  0  0  0  0  0
   64.0660   33.7210   50.5600 C   0  0  0  0  0  0  0  0  0  0  0  0
   64.6710   34.2850   51.6830 C   0  0  0  0  0  0  0  0  0  0  0  0
   66.0550   34.1220   51.8540 C   0  0  0  0  0  0  0  0  0  0  0  0
   66.8080   33.4000   50.9050 C   0  0  0  0  0  0  0  0  0  0  0  0
   68.2270   33.2360   51.0850 C   0  0  0  0  0  0  0  0  0  0  0  0
   69.3670   33.1050   51.2310 N   0  0  0  0  0  0  0  0  0  0  0  0
   66.1750   32.8400   49.7800 C   0  0  0  0  0  0  0  0  0  0  0  0
   64.7980   33.0170   49.6330 C   0  0  0  0  0  0  0  0  0  0  0  0
   63.9290   32.5220   48.5390 C   0  0  0  0  0  0  0  0  0  0  0  0
   59.6900   29.7760   47.0160 C   0  0  0  0  0  0  0  0  0  0  0  0
   58.5050   29.2810   46.4640 C   0  0  0  0  0  0  0  0  0  0  0  0
   56.1635   25.7768   47.9352 H   0  0  0  0  0  0  0  0  0  0  0  0
   56.6750   24.2163   47.2075 H   0  0  0  0  0  0  0  0  0  0  0  0
   57.7981   25.6182   47.2075 H   0  0  0  0  0  0  0  0  0  0  0  0
   56.5102   23.6750   45.2548 H   0  0  0  0  0  0  0  0  0  0  0  0
   55.4611   24.5644   44.0993 H   0  0  0  0  0  0  0  0  0  0  0  0
   57.2356   24.8435   44.0993 H   0  0  0  0  0  0  0  0  0  0  0  0
   54.7300   27.0580   45.9840 H   0  0  0  0  0  0  0  0  0  0  0  0
   57.7504   27.2381   46.0150 H   0  0  0  0  0  0  0  0  0  0  0  0
   57.3321   26.8473   44.2940 H   0  0  0  0  0  0  0  0  0  0  0  0
   57.5101   32.0515   44.7235 H   0  0  0  0  0  0  0  0  0  0  0  0
   59.6348   32.9259   45.6839 H   0  0  0  0  0  0  0  0  0  0  0  0
   62.2200   31.2290   46.9220 H   0  0  0  0  0  0  0  0  0  0  0  0
   62.2954   34.7996   50.0267 H   0  0  0  0  0  0  0  0  0  0  0  0
   61.9670   33.3500   50.9514 H   0  0  0  0  0  0  0  0  0  0  0  0
   64.0764   34.8457   52.4192 H   0  0  0  0  0  0  0  0  0  0  0  0
   66.5539   34.5591   52.7315 H   0  0  0  0  0  0  0  0  0  0  0  0
   66.7522   32.2754   49.0330 H   0  0  0  0  0  0  0  0  0  0  0  0
   64.2370   32.9405   47.5695 H   0  0  0  0  0  0  0  0  0  0  0  0
   63.9699   31.4299   48.4136 H   0  0  0  0  0  0  0  0  0  0  0  0
   60.3068   29.1291   47.6571 H   0  0  0  0  0  0  0  0  0  0  0  0
   58.1819   28.2548   46.6931 H   0  0  0  0  0  0  0  0  0  0  0  0
  1  2  1  0
  2  3  1  0
  2  4  1  0
  2  5  1  0
  5  6  1  0
  6  7  1  0
  7  8  2  0
  7  9  1  0
  9 10  2  0
 10 11  1  0
 11 12  2  0
 12 13  1  0
 13 14  1  0
 14 15  2  0
 14 16  1  0
 16 17  1  0
 17 18  1  0
 18 19  2  0
 19 20  1  0
 20 21  2  0
 21 22  1  0
 22 23  3  0
 21 24  1  0
 24 25  2  0
 25 26  1  0
 12 27  1  0
 27 28  2  0
 28  9  1  0
 26 16  1  0
 25 18  1  0
  1 29  1  0
  1 30  1  0
  1 31  1  0
  3 32  1  0
  3 33  1  0
  3 34  1  0
  4 35  1  0
  5 36  1  0
  5 37  1  0
 10 38  1  0
 11 39  1  0
 13 40  1  0
 17 41  1  0
 17 42  1  0
 19 43  1  0
 20 44  1  0
 24 45  1  0
 26 46  1  0
 26 47  1  0
 27 48  1  0
 28 49  1  0
M  CHG  1   6  -1
M  END
>  <UniqueID>  (30) 
28

>  <SMILES>  (30) 
CC(C)(O)C[N-]C(=O)c1ccc(NC(=O)N2Cc3ccc(C#N)cc3C2)cc1

>  <Energy>  (30) 
63.623239181936945

>  <Genealogy>  (30) 
CC(C)(O)C[N-]C(=O)c1ccc(NC(=O)N2Cc3ccc(C#N)cc3C2)cc1 (protonated)
CC(C)(O)C[N-]C(=O)c1ccc(NC(=O)N2Cc3ccc(C#N)cc3C2)cc1 (3D coordinates assigned)
CC(C)(O)C[N-]C(=O)c1ccc(NC(=O)N2Cc3ccc(C#N)cc3C2)cc1 (nonaromatic ring conformer: 63.623239181936945 kcal/mol)

>  <smiles>  (30) 
CC(C)(O)CNC(=O)c1ccc(NC(=O)N2Cc3ccc(C#N)cc3C2)cc1

>  <score_type>  (30) 
oracle

>  <origin>  (30) 
adg

>  <m_score__min__energy>  (30) 
-10.369999999999999

>  <m_primary>  (30) 
energy

$$$$
30:0
     RDKit          3D

 36 38  0  0  0  0  0  0  0  0999 V2000
   60.7831   35.6417   49.2935 H   0  0  0  0  0  0  0  0  0  0  0  0
   60.7450   34.5710   49.0440 C   0  0  0  0  0  0  0  0  0  0  0  0
   59.5660   34.0740   48.6330 C   0  0  0  0  0  0  0  0  0  0  0  0
   58.8263   33.8222   49.4073 H   0  0  0  0  0  0  0  0  0  0  0  0
   59.1820   33.8380   47.2240 C   0  0  0  0  0  0  0  0  0  0  0  0
   59.5850   34.7120   46.1970 C   0  0  0  0  0  0  0  0  0  0  0  0
   60.1828   35.6027   46.4406 H   0  0  0  0  0  0  0  0  0  0  0  0
   59.2300   34.4550   44.8680 C   0  0  0  0  0  0  0  0  0  0  0  0
   59.5353   35.1500   44.0719 H   0  0  0  0  0  0  0  0  0  0  0  0
   58.4870   33.3140   44.5540 C   0  0  0  0  0  0  0  0  0  0  0  0
   58.1350   33.0490   43.2690 N   0  0  0  0  0  0  0  0  0  0  0  0
   57.4190   31.9380   42.9410 C   0  0  0  0  0  0  0  0  0  0  0  0
   57.0600   31.7050   41.5040 C   0  0  0  0  0  0  0  0  0  0  0  0
   56.1385   31.1069   41.4486 H   0  0  0  0  0  0  0  0  0  0  0  0
   56.9001   32.6720   41.0046 H   0  0  0  0  0  0  0  0  0  0  0  0
   57.8780   31.1652   41.0046 H   0  0  0  0  0  0  0  0  0  0  0  0
   57.0360   31.0410   43.9630 C   0  0  0  0  0  0  0  0  0  0  0  0
   56.2470   29.7980   43.6720 C   0  0  0  0  0  0  0  0  0  0  0  0
   55.9465   29.3245   44.6183 H   0  0  0  0  0  0  0  0  0  0  0  0
   55.3498   30.0605   43.0922 H   0  0  0  0  0  0  0  0  0  0  0  0
   56.8664   29.0979   43.0922 H   0  0  0  0  0  0  0  0  0  0  0  0
   57.3930   31.3100   45.2480 N   0  0  0  0  0  0  0  0  0  0  0  0
   58.1060   32.4200   45.5710 C   0  0  0  0  0  0  0  0  0  0  0  0
   58.4620   32.6780   46.8990 C   0  0  0  0  0  0  0  0  0  0  0  0
   58.1768   31.9697   47.6908 H   0  0  0  0  0  0  0  0  0  0  0  0
   61.9960   33.7940   49.1880 C   0  0  0  0  0  0  0  0  0  0  0  0
   62.2800   33.1780   50.4180 C   0  0  0  0  0  0  0  0  0  0  0  0
   61.5652   33.2616   51.2500 H   0  0  0  0  0  0  0  0  0  0  0  0
   63.4670   32.4590   50.5900 C   0  0  0  0  0  0  0  0  0  0  0  0
   63.6761   31.9659   51.5508 H   0  0  0  0  0  0  0  0  0  0  0  0
   64.3880   32.3660   49.5430 C   0  0  0  0  0  0  0  0  0  0  0  0
   65.5390   31.6700   49.7120 F   0  0  0  0  0  0  0  0  0  0  0  0
   64.1270   32.9990   48.3250 C   0  0  0  0  0  0  0  0  0  0  0  0
   64.8550   32.9300   47.5032 H   0  0  0  0  0  0  0  0  0  0  0  0
   62.9420   33.7200   48.1490 C   0  0  0  0  0  0  0  0  0  0  0  0
   62.7485   34.2314   47.1945 H   0  0  0  0  0  0  0  0  0  0  0  0
  1  2  1  0
  2  3  2  0
  3  4  1  0
  3  5  1  0
  5  6  2  0
  6  7  1  0
  6  8  1  0
  8  9  1  0
  8 10  2  0
 10 11  1  0
 11 12  2  0
 12 13  1  0
 13 14  1  0
 13 15  1  0
 13 16  1  0
 12 17  1  0
 17 18  1  0
 18 19  1  0
 18 20  1  0
 18 21  1  0
 17 22  2  0
 22 23  1  0
 23 24  2  0
 24 25  1  0
  2 26  1  0
 26 27  2  0
 27 28  1  0
 27 29  1  0
 29 30  1  0
 29 31  2  0
 31 32  1  0
 31 33  1  0
 33 34  1  0
 33 35  2  0
 35 36  1  0
 24  5  1  0
 35 26  1  0
 23 10  1  0
M  END
>  <UniqueID>  (31) 
29

>  <SMILES>  (31) 
Cc1nc2ccc(/C=C\c3ccc(F)cc3)cc2nc1C

>  <Energy>  (31) 
50.37969456428976

>  <Genealogy>  (31) 
Cc1nc2ccc(/C=C\c3ccc(F)cc3)cc2nc1C (cis-trans isomerization)
Cc1nc2ccc(/C=C\c3ccc(F)cc3)cc2nc1C (3D coordinates assigned)
Cc1nc2ccc(/C=C\c3ccc(F)cc3)cc2nc1C (optimized conformer: 50.37969456428976 kcal/mol)

>  <smiles>  (31) 
Cc1nc2ccc(C=Cc3ccc(F)cc3)cc2nc1C

>  <score_type>  (31) 
oracle

>  <origin>  (31) 
adg

>  <m_score__min__energy>  (31) 
-8.0099999999999998

>  <m_primary>  (31) 
energy

$$$$
31:0
     RDKit          3D

 31 32  0  0  0  0  0  0  0  0999 V2000
   59.8671   34.1182   49.1147 H   0  0  0  0  0  0  0  0  0  0  0  0
   60.4420   33.9250   48.1970 C   0  0  0  0  0  0  0  0  0  0  0  0
   61.7710   33.7810   48.3100 C   0  0  0  0  0  0  0  0  0  0  0  0
   62.2648   34.2338   49.1824 H   0  0  0  0  0  0  0  0  0  0  0  0
   62.5950   33.0710   47.3620 N   0  0  0  0  0  0  0  0  0  0  0  0
   63.0060   31.6830   47.5980 C   0  0  0  0  0  0  0  0  0  0  0  0
   63.0614   31.4960   48.6806 H   0  0  0  0  0  0  0  0  0  0  0  0
   62.2713   31.0010   47.1452 H   0  0  0  0  0  0  0  0  0  0  0  0
   63.9936   31.5110   47.1452 H   0  0  0  0  0  0  0  0  0  0  0  0
   63.3440   33.8590   46.3840 C   0  0  0  0  0  0  0  0  0  0  0  0
   64.0097   34.5593   46.9098 H   0  0  0  0  0  0  0  0  0  0  0  0
   63.9439   33.1865   45.7533 H   0  0  0  0  0  0  0  0  0  0  0  0
   62.6419   34.4240   45.7533 H   0  0  0  0  0  0  0  0  0  0  0  0
   59.7020   33.8420   46.9290 C   0  0  0  0  0  0  0  0  0  0  0  0
   59.6460   34.9840   46.1010 C   0  0  0  0  0  0  0  0  0  0  0  0
   60.1823   35.8975   46.3976 H   0  0  0  0  0  0  0  0  0  0  0  0
   58.9110   34.9670   44.8990 C   0  0  0  0  0  0  0  0  0  0  0  0
   58.8689   35.8699   44.2721 H   0  0  0  0  0  0  0  0  0  0  0  0
   58.2330   33.8080   44.4960 C   0  0  0  0  0  0  0  0  0  0  0  0
   57.6480   33.7882   43.5647 H   0  0  0  0  0  0  0  0  0  0  0  0
   58.3230   32.6830   45.3110 C   0  0  0  0  0  0  0  0  0  0  0  0
   57.7860   31.4280   45.1320 C   0  0  0  0  0  0  0  0  0  0  0  0
   57.1507   31.0861   44.3016 H   0  0  0  0  0  0  0  0  0  0  0  0
   58.2170   30.6870   46.2220 C   0  0  0  0  0  0  0  0  0  0  0  0
   57.9663   29.6306   46.3983 H   0  0  0  0  0  0  0  0  0  0  0  0
   58.9890   31.4420   47.0400 N   0  0  0  0  0  0  0  0  0  0  0  0
   59.6300   30.9530   48.2590 C   0  0  0  0  0  0  0  0  0  0  0  0
   59.1031   31.3550   49.1369 H   0  0  0  0  0  0  0  0  0  0  0  0
   59.5899   29.8539   48.2788 H   0  0  0  0  0  0  0  0  0  0  0  0
   60.6794   31.2821   48.2788 H   0  0  0  0  0  0  0  0  0  0  0  0
   59.0390   32.6770   46.4860 C   0  0  0  0  0  0  0  0  0  0  0  0
  1  2  1  0
  2  3  2  0
  3  4  1  0
  3  5  1  0
  5  6  1  0
  6  7  1  0
  6  8  1  0
  6  9  1  0
  5 10  1  0
 10 11  1  0
 10 12  1  0
 10 13  1  0
  2 14  1  0
 14 15  2  0
 15 16  1  0
 15 17  1  0
 17 18  1  0
 17 19  2  0
 19 20  1  0
 19 21  1  0
 21 22  1  0
 22 23  1  0
 22 24  2  0
 24 25  1  0
 24 26  1  0
 26 27  1  0
 27 28  1  0
 27 29  1  0
 27 30  1  0
 26 31  1  0
 31 14  1  0
 31 21  2  0
M  END
>  <UniqueID>  (32) 
30

>  <SMILES>  (32) 
CN(C)/C=C\c1cccc2ccn(C)c12

>  <Energy>  (32) 
73.45010096466338

>  <Genealogy>  (32) 
CN(C)/C=C\c1cccc2ccn(C)c12 (cis-trans isomerization)
CN(C)/C=C\c1cccc2ccn(C)c12 (3D coordinates assigned)
CN(C)/C=C\c1cccc2ccn(C)c12 (optimized conformer: 73.45010096466338 kcal/mol)

>  <smiles>  (32) 
CN(C)C=Cc1cccc2ccn(C)c12

>  <score_type>  (32) 
oracle

>  <origin>  (32) 
adg

>  <m_score__min__energy>  (32) 
-5.2000000000000002

>  <m_primary>  (32) 
energy

$$$$
32:0
     RDKit          3D

 70 74  0  0  0  0  0  0  0  0999 V2000
   53.6190   24.2260   45.6040 C   0  0  0  0  0  0  0  0  0  0  0  0
   55.0240   24.2620   45.8330 O   0  0  0  0  0  0  0  0  0  0  0  0
   55.9510   23.3830   45.2530 C   0  0  0  0  0  0  0  0  0  0  0  0
   55.5900   22.0820   44.8460 C   0  0  0  0  0  0  0  0  0  0  0  0
   56.5330   21.2390   44.2530 C   0  0  0  0  0  0  0  0  0  0  0  0
   57.8410   21.6840   44.0510 C   0  0  0  0  0  0  0  0  0  0  0  0
   58.2100   22.9700   44.4480 C   0  0  0  0  0  0  0  0  0  0  0  0
   57.2770   23.8220   45.0570 C   0  0  0  0  0  0  0  0  0  0  0  0
   57.6850   25.1330   45.4790 N   0  0  0  0  0  0  0  0  0  0  0  0
   57.1340   25.7130   46.7090 C   0  0  0  0  0  0  0  0  0  0  0  0
   56.5400   27.0930   46.4070 C   0  0  0  0  0  0  0  0  0  0  0  0
   57.4650   27.9240   45.6150 N   0  0  0  0  0  0  0  0  0  0  0  0
   57.0430   29.2620   45.2650 C   0  0  0  0  0  0  0  0  0  0  0  0
   55.8150   29.4820   45.0820 O   0  0  0  0  0  0  0  0  0  0  0  0
   57.9940   30.4370   45.1290 C   0  0  0  0  0  0  0  0  0  0  0  0
   57.2890   31.7980   45.2470 C   0  0  0  0  0  0  0  0  0  0  0  0
   58.3030   32.9420   45.0900 C   0  0  0  0  0  0  0  0  0  0  0  0
   59.5420   32.7710   45.8930 N   0  0  0  0  0  0  0  0  0  0  0  0
   59.9410   34.2270   46.7810 S   0  0  0  0  0  0  0  0  0  0  0  0
   58.7340   34.7130   47.5330 O   0  0  0  0  0  0  0  0  0  0  0  0
   60.3290   35.2990   45.8000 O   0  0  0  0  0  0  0  0  0  0  0  0
   61.2850   33.9650   47.9080 C   0  0  0  0  0  0  0  0  0  0  0  0
   62.6240   33.7980   47.5980 C   0  0  0  0  0  0  0  0  0  0  0  0
   63.2670   33.9190   46.2550 C   0  0  0  0  0  0  0  0  0  0  0  0
   63.3130   33.5280   48.7240 N   0  0  0  0  0  0  0  0  0  0  0  0
   62.4590   33.5210   49.7050 O   0  0  0  0  0  0  0  0  0  0  0  0
   61.2410   33.7790   49.2820 C   0  0  0  0  0  0  0  0  0  0  0  0
   60.0670   33.8510   50.1670 C   0  0  0  0  0  0  0  0  0  0  0  0
   59.5940   32.7610   50.7740 C   0  0  0  0  0  0  0  0  0  0  0  0
   59.7190   31.4150   50.1930 C   0  0  0  0  0  0  0  0  0  0  0  0
   58.6470   30.5950   49.8640 C   0  0  0  0  0  0  0  0  0  0  0  0
   59.0370   29.3580   49.3360 C   0  0  0  0  0  0  0  0  0  0  0  0
   60.4120   29.2040   49.2270 C   0  0  0  0  0  0  0  0  0  0  0  0
   61.1440   30.6030   49.8060 S   0  0  0  0  0  0  0  0  0  0  0  0
   59.5280   31.6160   46.8080 C   0  0  0  0  0  0  0  0  0  0  0  0
   59.2280   30.3140   46.0540 C   0  0  0  0  0  0  0  0  0  0  0  0
   58.7480   27.3540   45.1690 C   0  0  0  0  0  0  0  0  0  0  0  0
   58.5340   25.9470   44.5960 C   0  0  0  0  0  0  0  0  0  0  0  0
   53.0905   24.2125   46.5686 H   0  0  0  0  0  0  0  0  0  0  0  0
   53.3176   25.1167   45.0332 H   0  0  0  0  0  0  0  0  0  0  0  0
   53.3636   23.3210   45.0332 H   0  0  0  0  0  0  0  0  0  0  0  0
   54.5592   21.7287   44.9964 H   0  0  0  0  0  0  0  0  0  0  0  0
   56.2447   20.2232   43.9448 H   0  0  0  0  0  0  0  0  0  0  0  0
   58.5807   21.0208   43.5788 H   0  0  0  0  0  0  0  0  0  0  0  0
   59.2402   23.3180   44.2821 H   0  0  0  0  0  0  0  0  0  0  0  0
   56.3464   25.0540   47.1033 H   0  0  0  0  0  0  0  0  0  0  0  0
   57.9361   25.8164   47.4547 H   0  0  0  0  0  0  0  0  0  0  0  0
   55.6052   26.9627   45.8420 H   0  0  0  0  0  0  0  0  0  0  0  0
   56.3548   27.6032   47.3638 H   0  0  0  0  0  0  0  0  0  0  0  0
   58.3811   30.3944   44.1002 H   0  0  0  0  0  0  0  0  0  0  0  0
   56.5253   31.8800   44.4596 H   0  0  0  0  0  0  0  0  0  0  0  0
   56.8189   31.8715   46.2388 H   0  0  0  0  0  0  0  0  0  0  0  0
   58.5858   33.0094   44.0291 H   0  0  0  0  0  0  0  0  0  0  0  0
   57.8106   33.8542   45.4580 H   0  0  0  0  0  0  0  0  0  0  0  0
   64.3411   34.1211   46.3796 H   0  0  0  0  0  0  0  0  0  0  0  0
   63.1328   32.9798   45.6983 H   0  0  0  0  0  0  0  0  0  0  0  0
   62.8006   34.7451   45.6983 H   0  0  0  0  0  0  0  0  0  0  0  0
   59.5715   34.8193   50.3306 H   0  0  0  0  0  0  0  0  0  0  0  0
   59.0913   32.8730   51.7460 H   0  0  0  0  0  0  0  0  0  0  0  0
   57.5961   30.8883   50.0043 H   0  0  0  0  0  0  0  0  0  0  0  0
   58.3197   28.5801   49.0354 H   0  0  0  0  0  0  0  0  0  0  0  0
   60.9328   28.3199   48.8305 H   0  0  0  0  0  0  0  0  0  0  0  0
   60.5114   31.5310   47.2935 H   0  0  0  0  0  0  0  0  0  0  0  0
   58.7380   31.7746   47.5568 H   0  0  0  0  0  0  0  0  0  0  0  0
   60.1032   30.0510   45.4417 H   0  0  0  0  0  0  0  0  0  0  0  0
   59.0098   29.5371   46.8015 H   0  0  0  0  0  0  0  0  0  0  0  0
   59.1818   28.0004   44.3918 H   0  0  0  0  0  0  0  0  0  0  0  0
   59.4302   27.2904   46.0296 H   0  0  0  0  0  0  0  0  0  0  0  0
   58.0503   26.0309   43.6116 H   0  0  0  0  0  0  0  0  0  0  0  0
   59.5142   25.4556   44.5078 H   0  0  0  0  0  0  0  0  0  0  0  0
  1  2  1  0
  2  3  1  0
  3  4  2  0
  4  5  1  0
  5  6  2  0
  6  7  1  0
  7  8  2  0
  8  9  1  0
  9 10  1  0
 10 11  1  0
 11 12  1  0
 12 13  1  0
 13 14  2  0
 13 15  1  0
 15 16  1  0
 16 17  1  0
 17 18  1  0
 18 19  1  0
 19 20  2  0
 19 21  2  0
 19 22  1  0
 22 23  1  0
 23 24  1  0
 23 25  2  0
 25 26  1  0
 26 27  1  0
 27 28  1  0
 28 29  2  3
 29 30  1  0
 30 31  2  0
 31 32  1  0
 32 33  2  0
 33 34  1  0
 18 35  1  0
 35 36  1  0
 12 37  1  0
 37 38  1  0
  8  3  1  0
 38  9  1  0
 36 15  1  0
 27 22  2  0
 34 30  1  0
  1 39  1  0
  1 40  1  0
  1 41  1  0
  4 42  1  0
  5 43  1  0
  6 44  1  0
  7 45  1  0
 10 46  1  0
 10 47  1  0
 11 48  1  0
 11 49  1  0
 15 50  1  0
 16 51  1  0
 16 52  1  0
 17 53  1  0
 17 54  1  0
 24 55  1  0
 24 56  1  0
 24 57  1  0
 28 58  1  0
 29 59  1  0
 31 60  1  0
 32 61  1  0
 33 62  1  0
 35 63  1  0
 35 64  1  0
 36 65  1  0
 36 66  1  0
 37 67  1  0
 37 68  1  0
 38 69  1  0
 38 70  1  0
M  END
>  <UniqueID>  (33) 
31

>  <SMILES>  (33) 
COc1ccccc1N1CCN(C(=O)C2CCN(S(=O)(=O)c3c(C)noc3C=Cc3cccs3)CC2)CC1

>  <Energy>  (33) 
144.21753764719506

>  <Genealogy>  (33) 
COc1ccccc1N1CCN(C(=O)C2CCN(S(=O)(=O)c3c(C)noc3C=Cc3cccs3)CC2)CC1 (3D coordinates assigned)
COc1ccccc1N1CCN(C(=O)C2CCN(S(=O)(=O)c3c(C)noc3C=Cc3cccs3)CC2)CC1 (nonaromatic ring conformer: 144.21753764719506 kcal/mol)

>  <smiles>  (33) 
COc1ccccc1N1CCN(C(=O)C2CCN(S(=O)(=O)c3c(C)noc3C=Cc3cccs3)CC2)CC1

>  <score_type>  (33) 
oracle

>  <origin>  (33) 
adg

>  <m_score__min__energy>  (33) 
-9.6099999999999994

>  <m_primary>  (33) 
energy

$$$$
33:0
     RDKit          3D

 36 38  0  0  0  0  0  0  0  0999 V2000
   56.2847   29.1790   42.0422 H   0  0  0  0  0  0  0  0  0  0  0  0
   56.7450   29.3840   43.0200 C   0  0  0  0  0  0  0  0  0  0  0  0
   56.5370   30.5810   43.6280 N   0  0  0  0  0  0  0  0  0  0  0  0
   57.0970   30.8630   44.8310 C   0  0  0  0  0  0  0  0  0  0  0  0
   56.8690   32.0160   45.3860 N   0  0  0  0  0  0  0  0  0  0  0  0
   57.8690   33.0150   45.6390 C   0  0  0  0  0  0  0  0  0  0  0  0
   58.0880   34.0080   44.6740 C   0  0  0  0  0  0  0  0  0  0  0  0
   57.4953   34.0111   43.7473 H   0  0  0  0  0  0  0  0  0  0  0  0
   59.0560   34.9940   44.8840 C   0  0  0  0  0  0  0  0  0  0  0  0
   59.2139   35.7786   44.1294 H   0  0  0  0  0  0  0  0  0  0  0  0
   59.8230   34.9840   46.0510 C   0  0  0  0  0  0  0  0  0  0  0  0
   60.5769   35.7671   46.2197 H   0  0  0  0  0  0  0  0  0  0  0  0
   59.6340   33.9810   47.0040 C   0  0  0  0  0  0  0  0  0  0  0  0
   60.2478   33.9704   47.9168 H   0  0  0  0  0  0  0  0  0  0  0  0
   58.6670   32.9890   46.8030 C   0  0  0  0  0  0  0  0  0  0  0  0
   58.5330   31.6940   47.9890 Cl  0  0  0  0  0  0  0  0  0  0  0  0
   57.8730   29.9300   45.4480 N   0  0  0  0  0  0  0  0  0  0  0  0
   58.1140   28.7210   44.8800 C   0  0  0  0  0  0  0  0  0  0  0  0
   58.9760   27.7700   45.5940 C   0  0  0  0  0  0  0  0  0  0  0  0
   60.3550   27.7280   45.6210 C   0  0  0  0  0  0  0  0  0  0  0  0
   61.2900   28.6180   44.8710 C   0  0  0  0  0  0  0  0  0  0  0  0
   61.8970   29.1958   45.5835 H   0  0  0  0  0  0  0  0  0  0  0  0
   61.9502   28.0064   44.2384 H   0  0  0  0  0  0  0  0  0  0  0  0
   60.7117   29.3075   44.2384 H   0  0  0  0  0  0  0  0  0  0  0  0
   60.7500   26.6960   46.3930 N   0  0  0  0  0  0  0  0  0  0  0  0
   59.6720   26.1250   46.8500 O   0  0  0  0  0  0  0  0  0  0  0  0
   58.5920   26.7270   46.4080 C   0  0  0  0  0  0  0  0  0  0  0  0
   57.1940   26.3220   46.7410 C   0  0  0  0  0  0  0  0  0  0  0  0
   57.0729   26.2869   47.8337 H   0  0  0  0  0  0  0  0  0  0  0  0
   56.4897   27.0530   46.3173 H   0  0  0  0  0  0  0  0  0  0  0  0
   56.9895   25.3277   46.3173 H   0  0  0  0  0  0  0  0  0  0  0  0
   57.5430   28.4100   43.6330 C   0  0  0  0  0  0  0  0  0  0  0  0
   57.7770   27.0840   42.9640 C   0  0  0  0  0  0  0  0  0  0  0  0
   57.9143   26.3062   43.7296 H   0  0  0  0  0  0  0  0  0  0  0  0
   56.9095   26.8318   42.3365 H   0  0  0  0  0  0  0  0  0  0  0  0
   58.6784   27.1439   42.3365 H   0  0  0  0  0  0  0  0  0  0  0  0
  1  2  1  0
  2  3  2  0
  3  4  1  0
  4  5  2  0
  5  6  1  0
  6  7  2  0
  7  8  1  0
  7  9  1  0
  9 10  1  0
  9 11  2  0
 11 12  1  0
 11 13  1  0
 13 14  1  0
 13 15  2  0
 15 16  1  0
  4 17  1  0
 17 18  1  0
 18 19  1  0
 19 20  1  0
 20 21  1  0
 21 22  1  0
 21 23  1  0
 21 24  1  0
 20 25  2  0
 25 26  1  0
 26 27  1  0
 27 28  1  0
 28 29  1  0
 28 30  1  0
 28 31  1  0
 18 32  2  0
 32 33  1  0
 33 34  1  0
 33 35  1  0
 33 36  1  0
 32  2  1  0
 15  6  1  0
 27 19  2  0
M  CHG  1  17  -1
M  END
>  <UniqueID>  (34) 
32

>  <SMILES>  (34) 
Cc1cn/c(=N/c2ccccc2Cl)[n-]c1-c1c(C)noc1C

>  <Energy>  (34) 
82.95320593840314

>  <Genealogy>  (34) 
Cc1cnc(=Nc2ccccc2Cl)[n-]c1-c1c(C)noc1C (protonated)
Cc1cn/c(=N/c2ccccc2Cl)[n-]c1-c1c(C)noc1C (cis-trans isomerization)
Cc1cn/c(=N/c2ccccc2Cl)[n-]c1-c1c(C)noc1C (3D coordinates assigned)
Cc1cn/c(=N/c2ccccc2Cl)[n-]c1-c1c(C)noc1C (optimized conformer: 82.95320593840314 kcal/mol)

>  <smiles>  (34) 
Cc1cnc(=Nc2ccccc2Cl)[nH]c1-c1c(C)noc1C

>  <score_type>  (34) 
oracle

>  <origin>  (34) 
adg

>  <m_score__min__energy>  (34) 
-8.9700000000000006

>  <m_primary>  (34) 
energy

$$$$
34:0
     RDKit          3D

 90 96  0  0  0  0  0  0  0  0999 V2000
   58.8693   36.0349   45.6648 H   0  0  0  0  0  0  0  0  0  0  0  0
   58.8990   34.9380   45.7420 C   0  0  0  0  0  0  0  0  0  0  0  0
   58.3110   34.1790   44.7840 N   0  0  0  0  0  0  0  0  0  0  0  0
   58.3500   32.8160   44.8380 C   0  0  0  0  0  0  0  0  0  0  0  0
   57.6660   32.0720   43.8760 C   0  0  0  0  0  0  0  0  0  0  0  0
   57.1763   32.5848   43.0351 H   0  0  0  0  0  0  0  0  0  0  0  0
   57.5990   30.6780   43.9740 C   0  0  0  0  0  0  0  0  0  0  0  0
   57.0334   30.1063   43.2235 H   0  0  0  0  0  0  0  0  0  0  0  0
   58.2460   30.0010   45.0200 C   0  0  0  0  0  0  0  0  0  0  0  0
   58.0680   28.5310   45.2090 C   0  0  0  0  0  0  0  0  0  0  0  0
   56.8400   27.9930   45.6390 C   0  0  0  0  0  0  0  0  0  0  0  0
   55.9684   28.6534   45.7580 H   0  0  0  0  0  0  0  0  0  0  0  0
   56.7170   26.6300   45.9160 C   0  0  0  0  0  0  0  0  0  0  0  0
   55.7627   26.2337   46.2932 H   0  0  0  0  0  0  0  0  0  0  0  0
   57.8010   25.7620   45.7170 C   0  0  0  0  0  0  0  0  0  0  0  0
   57.6800   24.0560   46.1720 S   0  0  0  0  0  0  0  0  0  0  0  0
   57.4750   23.9940   47.6580 O   0  0  0  0  0  0  0  0  0  0  0  0
   58.9840   23.3680   45.8620 O   0  0  0  0  0  0  0  0  0  0  0  0
   56.3570   23.1910   45.3910 N   0  0  0  0  0  0  0  0  0  0  0  0
   55.6440   24.0610   44.4480 C   0  0  0  0  0  0  0  0  0  0  0  0
   54.5597   23.8980   44.5364 H   0  0  0  0  0  0  0  0  0  0  0  0
   55.8572   25.1177   44.6669 H   0  0  0  0  0  0  0  0  0  0  0  0
   56.1100   23.7060   43.0300 C   0  0  0  0  0  0  0  0  0  0  0  0
   55.2468   23.4583   42.3948 H   0  0  0  0  0  0  0  0  0  0  0  0
   56.6332   24.5490   42.5550 H   0  0  0  0  0  0  0  0  0  0  0  0
   57.0190   22.5000   43.1780 C   0  0  0  0  0  0  0  0  0  0  0  0
   56.7731   21.7274   42.4346 H   0  0  0  0  0  0  0  0  0  0  0  0
   58.0807   22.7384   43.0171 H   0  0  0  0  0  0  0  0  0  0  0  0
   56.7260   22.0140   44.5840 C   0  0  1  0  0  0  0  0  0  0  0  0
   55.8742   21.3185   44.5600 H   0  0  0  0  0  0  0  0  0  0  0  0
   57.8070   21.0890   45.2010 C   0  0  0  0  0  0  0  0  0  0  0  0
   58.5136   20.7972   44.4101 H   0  0  0  0  0  0  0  0  0  0  0  0
   58.3053   21.6507   46.0049 H   0  0  0  0  0  0  0  0  0  0  0  0
   57.2290   19.8500   45.8070 N   0  0  0  0  0  0  0  0  0  0  0  0
   57.1940   19.1190   45.0640 H   0  0  0  0  0  0  0  0  0  0  0  0
   58.1130   19.3020   46.8860 C   0  0  0  0  0  0  0  0  0  0  0  0
   58.0819   18.2035   46.8373 H   0  0  0  0  0  0  0  0  0  0  0  0
   59.1236   19.6988   46.7092 H   0  0  0  0  0  0  0  0  0  0  0  0
   57.6950   19.7400   48.3050 C   0  0  0  0  0  0  0  0  0  0  0  0
   56.9814   19.0118   48.7180 H   0  0  0  0  0  0  0  0  0  0  0  0
   58.5846   19.7888   48.9502 H   0  0  0  0  0  0  0  0  0  0  0  0
   57.0610   21.0670   48.2430 N   0  0  0  0  0  0  0  0  0  0  0  0
   56.8400   21.5970   49.5900 C   0  0  0  0  0  0  0  0  0  0  0  0
   57.1518   20.8492   50.3340 H   0  0  0  0  0  0  0  0  0  0  0  0
   57.4300   22.5156   49.7239 H   0  0  0  0  0  0  0  0  0  0  0  0
   55.7721   21.8243   49.7239 H   0  0  0  0  0  0  0  0  0  0  0  0
   55.7720   20.9990   47.5120 C   0  0  0  0  0  0  0  0  0  0  0  0
   54.9889   20.6539   48.2031 H   0  0  0  0  0  0  0  0  0  0  0  0
   55.5452   22.0038   47.1261 H   0  0  0  0  0  0  0  0  0  0  0  0
   55.8420   20.0270   46.3090 C   0  0  0  0  0  0  0  0  0  0  0  0
   55.4516   19.0475   46.6224 H   0  0  0  0  0  0  0  0  0  0  0  0
   55.2414   20.4568   45.4938 H   0  0  0  0  0  0  0  0  0  0  0  0
   59.0140   26.2830   45.2550 C   0  0  0  0  0  0  0  0  0  0  0  0
   59.8633   25.6090   45.0696 H   0  0  0  0  0  0  0  0  0  0  0  0
   59.1530   27.6520   45.0280 C   0  0  0  0  0  0  0  0  0  0  0  0
   60.1250   28.0511   44.7026 H   0  0  0  0  0  0  0  0  0  0  0  0
   59.0160   30.7510   45.9370 C   0  0  0  0  0  0  0  0  0  0  0  0
   59.6055   30.2289   46.7050 H   0  0  0  0  0  0  0  0  0  0  0  0
   59.0390   32.1580   45.8810 C   0  0  0  0  0  0  0  0  0  0  0  0
   59.6210   32.9320   46.9060 C   0  0  0  0  0  0  0  0  0  0  0  0
   60.1900   32.3220   47.9120 N   0  0  0  0  0  0  0  0  0  0  0  0
   59.5550   31.7910   49.0710 C   0  0  0  0  0  0  0  0  0  0  0  0
   58.8410   32.6580   49.9170 C   0  0  0  0  0  0  0  0  0  0  0  0
   58.9690   33.7465   49.8236 H   0  0  0  0  0  0  0  0  0  0  0  0
   57.9710   32.1380   50.8740 C   0  0  0  0  0  0  0  0  0  0  0  0
   57.4224   32.8245   51.5356 H   0  0  0  0  0  0  0  0  0  0  0  0
   57.7830   30.7540   51.0080 C   0  0  0  0  0  0  0  0  0  0  0  0
   56.8710   30.2290   51.9980 N   0  0  0  0  0  0  0  0  0  0  0  0
   57.2780   29.3250   53.0930 C   0  0  0  0  0  0  0  0  0  0  0  0
   57.6266   28.3619   52.6918 H   0  0  0  0  0  0  0  0  0  0  0  0
   58.1098   29.7354   53.6844 H   0  0  0  0  0  0  0  0  0  0  0  0
   56.0150   29.1350   53.9270 C   0  0  0  0  0  0  0  0  0  0  0  0
   55.5127   28.1911   53.6685 H   0  0  0  0  0  0  0  0  0  0  0  0
   56.2213   29.0808   55.0061 H   0  0  0  0  0  0  0  0  0  0  0  0
   55.1470   30.3350   53.5500 C   0  0  0  0  0  0  0  0  0  0  0  0
   54.0800   30.1040   53.6845 H   0  0  0  0  0  0  0  0  0  0  0  0
   55.3471   31.2171   54.1760 H   0  0  0  0  0  0  0  0  0  0  0  0
   55.4680   30.5710   52.0860 C   0  0  0  0  0  0  0  0  0  0  0  0
   54.8616   29.9201   51.4390 H   0  0  0  0  0  0  0  0  0  0  0  0
   55.2519   31.5979   51.7562 H   0  0  0  0  0  0  0  0  0  0  0  0
   58.5300   29.8890   50.1760 C   0  0  0  0  0  0  0  0  0  0  0  0
   58.4118   28.8000   50.2770 H   0  0  0  0  0  0  0  0  0  0  0  0
   59.4250   30.4080   49.2180 C   0  0  0  0  0  0  0  0  0  0  0  0
   60.2120   29.5750   48.3940 O   0  0  0  0  0  0  0  0  0  0  0  0
   60.1160   28.1550   48.3590 C   0  0  0  0  0  0  0  0  0  0  0  0
   60.0896   27.7638   49.3868 H   0  0  0  0  0  0  0  0  0  0  0  0
   59.1960   27.8626   47.8316 H   0  0  0  0  0  0  0  0  0  0  0  0
   60.9882   27.7414   47.8316 H   0  0  0  0  0  0  0  0  0  0  0  0
   59.5450   34.3330   46.8310 C   0  0  0  0  0  0  0  0  0  0  0  0
   59.9902   34.9532   47.6229 H   0  0  0  0  0  0  0  0  0  0  0  0
  1  2  1  0
  2  3  1  0
  3  4  1  0
  4  5  2  0
  5  6  1  0
  5  7  1  0
  7  8  1  0
  7  9  2  0
  9 10  1  0
 10 11  2  0
 11 12  1  0
 11 13  1  0
 13 14  1  0
 13 15  2  0
 15 16  1  0
 16 17  2  0
 16 18  2  0
 16 19  1  0
 19 20  1  0
 20 21  1  0
 20 22  1  0
 20 23  1  0
 23 24  1  0
 23 25  1  0
 23 26  1  0
 26 27  1  0
 26 28  1  0
 26 29  1  0
 29 30  1  6
 29 31  1  0
 31 32  1  0
 31 33  1  0
 31 34  1  0
 34 35  1  0
 34 36  1  0
 36 37  1  0
 36 38  1  0
 36 39  1  0
 39 40  1  0
 39 41  1  0
 39 42  1  0
 42 43  1  0
 43 44  1  0
 43 45  1  0
 43 46  1  0
 42 47  1  0
 47 48  1  0
 47 49  1  0
 47 50  1  0
 50 51  1  0
 50 52  1  0
 15 53  1  0
 53 54  1  0
 53 55  2  0
 55 56  1  0
  9 57  1  0
 57 58  1  0
 57 59  2  0
 59 60  1  0
 60 61  2  0
 61 62  1  0
 62 63  2  0
 63 64  1  0
 63 65  1  0
 65 66  1  0
 65 67  2  0
 67 68  1  0
 68 69  1  0
 69 70  1  0
 69 71  1  0
 69 72  1  0
 72 73  1  0
 72 74  1  0
 72 75  1  0
 75 76  1  0
 75 77  1  0
 75 78  1  0
 78 79  1  0
 78 80  1  0
 67 81  1  0
 81 82  1  0
 81 83  2  0
 83 84  1  0
 84 85  1  0
 85 86  1  0
 85 87  1  0
 85 88  1  0
 60 89  1  0
 89 90  1  0
 89  2  2  0
 59  4  1  0
 83 62  1  0
 55 10  1  0
 78 68  1  0
 29 19  1  0
 50 34  1  0
M  CHG  2   3  -1  34   1
M  END
>  <UniqueID>  (35) 
33

>  <SMILES>  (35) 
COc1cc(N2CCCC2)ccc1/N=c1\cc[n-]c2ccc(-c3ccc(S(=O)(=O)N4CCC[C@H]4C[NH+]4CCN(C)CC4)cc3)cc12

>  <Energy>  (35) 
151.52544002432722

>  <Genealogy>  (35) 
COc1cc(N2CCCC2)ccc1N=c1cc[n-]c2ccc(-c3ccc(S(=O)(=O)N4CCCC4C[NH+]4CCN(C)CC4)cc3)cc12 (protonated)
COc1cc(N2CCCC2)ccc1N=c1cc[n-]c2ccc(-c3ccc(S(=O)(=O)N4CCC[C@H]4C[NH+]4CCN(C)CC4)cc3)cc12 (chirality)
COc1cc(N2CCCC2)ccc1/N=c1\cc[n-]c2ccc(-c3ccc(S(=O)(=O)N4CCC[C@H]4C[NH+]4CCN(C)CC4)cc3)cc12 (cis-trans isomerization)
COc1cc(N2CCCC2)ccc1/N=c1\cc[n-]c2ccc(-c3ccc(S(=O)(=O)N4CCC[C@H]4C[NH+]4CCN(C)CC4)cc3)cc12 (3D coordinates assigned)
COc1cc(N2CCCC2)ccc1/N=c1\cc[n-]c2ccc(-c3ccc(S(=O)(=O)N4CCC[C@H]4C[NH+]4CCN(C)CC4)cc3)cc12 (nonaromatic ring conformer: 151.52544002432722 kcal/mol)

>  <smiles>  (35) 
COc1cc(N2CCCC2)ccc1N=c1cc[nH]c2ccc(-c3ccc(S(=O)(=O)N4CCCC4CN4CCN(C)CC4)cc3)cc12

>  <score_type>  (35) 
oracle

>  <origin>  (35) 
adg

>  <m_score__min__energy>  (35) 
-10.09

>  <m_primary>  (35) 
energy

$$$$
35:0
     RDKit          3D

 49 52  0  0  0  0  0  0  0  0999 V2000
   58.4720   28.5040   47.1030 C   0  0  0  0  0  0  0  0  0  0  0  0
   58.2650   28.2380   45.6810 N   0  0  0  0  0  0  0  0  0  0  0  0
   58.5060   27.0550   45.0810 C   0  0  0  0  0  0  0  0  0  0  0  0
   58.1510   27.1180   43.7500 C   0  0  0  0  0  0  0  0  0  0  0  0
   57.6760   28.3950   43.5280 C   0  0  0  0  0  0  0  0  0  0  0  0
   57.7750   29.0700   44.7310 C   0  0  0  0  0  0  0  0  0  0  0  0
   57.3650   30.4790   44.9200 C   0  0  0  0  0  0  0  0  0  0  0  0
   56.1340   30.7530   44.8600 O   0  0  0  0  0  0  0  0  0  0  0  0
   58.3380   31.5450   45.0670 N   0  0  1  0  0  0  0  0  0  0  0  0
   57.7320   32.8460   44.6760 C   0  0  0  0  0  0  0  0  0  0  0  0
   58.2930   34.0200   45.4960 C   0  0  1  0  0  0  0  0  0  0  0  0
   57.8770   33.8320   46.9690 C   0  0  0  0  0  0  0  0  0  0  0  0
   58.1170   32.3830   47.4520 C   0  0  0  0  0  0  0  0  0  0  0  0
   58.9400   31.5400   46.4390 C   0  0  2  0  0  0  0  0  0  0  0  0
   60.4240   32.0110   46.4040 C   0  0  0  0  0  0  0  0  0  0  0  0
   60.5720   33.4820   46.4260 N   0  0  0  0  0  0  0  0  0  0  0  0
   62.0020   33.8530   46.3950 C   0  0  0  0  0  0  0  0  0  0  0  0
   62.6120   33.6850   47.7560 C   0  0  0  0  0  0  0  0  0  0  0  0
   61.9530   34.1420   48.9070 C   0  0  0  0  0  0  0  0  0  0  0  0
   62.5450   33.9530   50.1570 C   0  0  0  0  0  0  0  0  0  0  0  0
   63.7820   33.3110   50.2500 C   0  0  0  0  0  0  0  0  0  0  0  0
   64.4090   32.8680   49.0850 C   0  0  0  0  0  0  0  0  0  0  0  0
   63.8180   33.0600   47.8770 N   0  0  0  0  0  0  0  0  0  0  0  0
   59.8310   34.1440   45.3250 C   0  0  0  0  0  0  0  0  0  0  0  0
   57.9042   27.7743   47.6990 H   0  0  0  0  0  0  0  0  0  0  0  0
   59.5426   28.4173   47.3402 H   0  0  0  0  0  0  0  0  0  0  0  0
   58.1250   29.5205   47.3402 H   0  0  0  0  0  0  0  0  0  0  0  0
   58.9247   26.1688   45.5803 H   0  0  0  0  0  0  0  0  0  0  0  0
   58.2308   26.3085   43.0095 H   0  0  0  0  0  0  0  0  0  0  0  0
   57.2931   28.7975   42.5786 H   0  0  0  0  0  0  0  0  0  0  0  0
   59.0940   31.3660   44.3700 H   0  0  0  0  0  0  0  0  0  0  0  0
   57.9393   33.0272   43.6110 H   0  0  0  0  0  0  0  0  0  0  0  0
   56.6509   32.7859   44.8698 H   0  0  0  0  0  0  0  0  0  0  0  0
   57.8736   34.9683   45.1288 H   0  0  0  0  0  0  0  0  0  0  0  0
   58.4653   34.5184   47.5957 H   0  0  0  0  0  0  0  0  0  0  0  0
   56.8012   34.0464   47.0509 H   0  0  0  0  0  0  0  0  0  0  0  0
   58.6625   32.4164   48.4066 H   0  0  0  0  0  0  0  0  0  0  0  0
   57.1334   31.9027   47.5611 H   0  0  0  0  0  0  0  0  0  0  0  0
   58.9137   30.4980   46.7906 H   0  0  0  0  0  0  0  0  0  0  0  0
   60.9430   31.5949   47.2800 H   0  0  0  0  0  0  0  0  0  0  0  0
   60.8565   31.6544   45.4575 H   0  0  0  0  0  0  0  0  0  0  0  0
   62.5295   33.2063   45.6783 H   0  0  0  0  0  0  0  0  0  0  0  0
   62.0926   34.9057   46.0891 H   0  0  0  0  0  0  0  0  0  0  0  0
   60.9781   34.6450   48.8252 H   0  0  0  0  0  0  0  0  0  0  0  0
   62.0386   34.3087   51.0664 H   0  0  0  0  0  0  0  0  0  0  0  0
   64.2563   33.1565   51.2304 H   0  0  0  0  0  0  0  0  0  0  0  0
   65.3840   32.3622   49.1448 H   0  0  0  0  0  0  0  0  0  0  0  0
   60.1007   35.2103   45.3074 H   0  0  0  0  0  0  0  0  0  0  0  0
   60.1076   33.6456   44.3842 H   0  0  0  0  0  0  0  0  0  0  0  0
  1  2  1  0
  2  3  1  0
  3  4  2  0
  4  5  1  0
  5  6  2  0
  6  7  1  0
  7  8  2  0
  7  9  1  0
  9 10  1  0
 10 11  1  0
 11 12  1  0
 12 13  1  0
 13 14  1  0
 14 15  1  0
 15 16  1  0
 16 17  1  0
 17 18  1  0
 18 19  2  0
 19 20  1  0
 20 21  2  0
 21 22  1  0
 22 23  2  0
 16 24  1  0
  6  2  1  0
 14  9  1  0
 23 18  1  0
 24 11  1  0
  1 25  1  0
  1 26  1  0
  1 27  1  0
  3 28  1  0
  4 29  1  0
  5 30  1  0
  9 31  1  6
 10 32  1  0
 10 33  1  0
 11 34  1  6
 12 35  1  0
 12 36  1  0
 13 37  1  0
 13 38  1  0
 14 39  1  1
 15 40  1  0
 15 41  1  0
 17 42  1  0
 17 43  1  0
 19 44  1  0
 20 45  1  0
 21 46  1  0
 22 47  1  0
 24 48  1  0
 24 49  1  0
M  CHG  1   9   1
M  END
>  <UniqueID>  (36) 
34

>  <SMILES>  (36) 
Cn1cccc1C(=O)[N@H+]1C[C@H]2CCC1CN(Cc1ccccn1)C2

>  <Energy>  (36) 
102.7736059758598

>  <Genealogy>  (36) 
Cn1cccc1C(=O)[NH+]1CC2CCC1CN(Cc1ccccn1)C2 (protonated)
Cn1cccc1C(=O)[N@H+]1C[C@H]2CCC1CN(Cc1ccccn1)C2 (chirality)
Cn1cccc1C(=O)[N@H+]1C[C@H]2CCC1CN(Cc1ccccn1)C2 (3D coordinates assigned)
Cn1cccc1C(=O)[N@H+]1C[C@H]2CCC1CN(Cc1ccccn1)C2 (nonaromatic ring conformer: 102.7736059758598 kcal/mol)

>  <smiles>  (36) 
Cn1cccc1C(=O)N1CC2CCC1CN(Cc1ccccn1)C2

>  <score_type>  (36) 
oracle

>  <origin>  (36) 
adg

>  <m_score__min__energy>  (36) 
-5.4699999999999998

>  <m_primary>  (36) 
energy

$$$$
36:0
     RDKit          3D

 39 41  0  0  0  0  0  0  0  0999 V2000
   62.4020   31.6210   47.3210 C   0  0  0  0  0  0  0  0  0  0  0  0
   61.0550   31.3250   47.9760 C   0  0  0  0  0  0  0  0  0  0  0  0
   59.9890   31.1990   46.9530 N   0  0  0  0  0  0  0  0  0  0  0  0
   59.5990   29.9360   46.5770 C   0  0  0  0  0  0  0  0  0  0  0  0
   60.1830   28.9220   47.0590 O   0  0  0  0  0  0  0  0  0  0  0  0
   58.5680   29.7370   45.6440 C   0  0  0  0  0  0  0  0  0  0  0  0
   58.1980   28.3530   45.2540 C   0  0  0  0  0  0  0  0  0  0  0  0
   58.5020   27.8690   43.9720 C   0  0  0  0  0  0  0  0  0  0  0  0
   58.1330   26.5670   43.6240 C   0  0  0  0  0  0  0  0  0  0  0  0
   57.4900   25.7760   44.5240 N   0  0  0  0  0  0  0  0  0  0  0  0
   57.1890   26.2180   45.7740 C   0  0  0  0  0  0  0  0  0  0  0  0
   57.5390   27.5130   46.1630 C   0  0  0  0  0  0  0  0  0  0  0  0
   57.9280   30.8510   45.0670 C   0  0  0  0  0  0  0  0  0  0  0  0
   56.8350   30.6320   44.0880 C   0  0  0  0  0  0  0  0  0  0  0  0
   55.6570   30.4340   44.4930 O   0  0  0  0  0  0  0  0  0  0  0  0
   57.1130   30.6960   42.7190 O   0  0  0  0  0  0  0  0  0  0  0  0
   57.4270   31.9140   42.0570 C   0  0  0  0  0  0  0  0  0  0  0  0
   58.3420   32.1530   45.4330 C   0  0  0  0  0  0  0  0  0  0  0  0
   57.7030   33.3010   44.9130 C   0  0  0  0  0  0  0  0  0  0  0  0
   58.1410   34.5780   45.2490 C   0  0  0  0  0  0  0  0  0  0  0  0
   59.2180   34.7410   46.1090 C   0  0  0  0  0  0  0  0  0  0  0  0
   59.8460   33.6280   46.6650 C   0  0  0  0  0  0  0  0  0  0  0  0
   59.4090   32.3110   46.3660 C   0  0  0  0  0  0  0  0  0  0  0  0
   63.1600   31.7876   48.1005 H   0  0  0  0  0  0  0  0  0  0  0  0
   62.7010   30.7671   46.6953 H   0  0  0  0  0  0  0  0  0  0  0  0
   62.3155   32.5216   46.6953 H   0  0  0  0  0  0  0  0  0  0  0  0
   61.1272   30.3832   48.5397 H   0  0  0  0  0  0  0  0  0  0  0  0
   60.8004   32.1559   48.6503 H   0  0  0  0  0  0  0  0  0  0  0  0
   59.0263   28.5093   43.2474 H   0  0  0  0  0  0  0  0  0  0  0  0
   58.3631   26.1811   42.6199 H   0  0  0  0  0  0  0  0  0  0  0  0
   56.6688   25.5544   46.4804 H   0  0  0  0  0  0  0  0  0  0  0  0
   57.2994   27.8713   47.1750 H   0  0  0  0  0  0  0  0  0  0  0  0
   57.6286   32.6959   42.8040 H   0  0  0  0  0  0  0  0  0  0  0  0
   58.3174   31.7701   41.4274 H   0  0  0  0  0  0  0  0  0  0  0  0
   56.5780   32.2185   41.4274 H   0  0  0  0  0  0  0  0  0  0  0  0
   56.8467   33.1833   44.2326 H   0  0  0  0  0  0  0  0  0  0  0  0
   57.6328   35.4601   44.8323 H   0  0  0  0  0  0  0  0  0  0  0  0
   59.5771   35.7518   46.3526 H   0  0  0  0  0  0  0  0  0  0  0  0
   60.6959   33.7728   47.3481 H   0  0  0  0  0  0  0  0  0  0  0  0
  1  2  1  0
  2  3  1  0
  3  4  1  0
  4  5  2  0
  4  6  1  0
  6  7  1  0
  7  8  2  0
  8  9  1  0
  9 10  2  0
 10 11  1  0
 11 12  2  0
  6 13  2  0
 13 14  1  0
 14 15  2  0
 14 16  1  0
 16 17  1  0
 13 18  1  0
 18 19  2  0
 19 20  1  0
 20 21  2  0
 21 22  1  0
 22 23  2  0
 23  3  1  0
 12  7  1  0
 23 18  1  0
  1 24  1  0
  1 25  1  0
  1 26  1  0
  2 27  1  0
  2 28  1  0
  8 29  1  0
  9 30  1  0
 11 31  1  0
 12 32  1  0
 17 33  1  0
 17 34  1  0
 17 35  1  0
 19 36  1  0
 20 37  1  0
 21 38  1  0
 22 39  1  0
M  END
>  <UniqueID>  (37) 
35

>  <SMILES>  (37) 
CCn1c(=O)c(-c2ccncc2)c(C(=O)OC)c2ccccc21

>  <Energy>  (37) 
65.8004372794218

>  <Genealogy>  (37) 
CCn1c(=O)c(-c2ccncc2)c(C(=O)OC)c2ccccc21 (3D coordinates assigned)
CCn1c(=O)c(-c2ccncc2)c(C(=O)OC)c2ccccc21 (optimized conformer: 65.8004372794218 kcal/mol)

>  <smiles>  (37) 
CCn1c(=O)c(-c2ccncc2)c(C(=O)OC)c2ccccc21

>  <score_type>  (37) 
oracle

>  <origin>  (37) 
adg

>  <m_score__min__energy>  (37) 
-7.3399999999999999

>  <m_primary>  (37) 
energy

$$$$
37:0
     RDKit          3D

 56 59  0  0  0  0  0  0  0  0999 V2000
   64.6990   32.2640   49.6410 C   0  0  0  0  0  0  0  0  0  0  0  0
   63.2470   32.3940   49.4360 N   0  0  0  0  0  0  0  0  0  0  0  0
   62.5640   32.5780   50.7270 C   0  0  0  0  0  0  0  0  0  0  0  0
   61.0420   32.4300   50.5560 C   0  0  0  0  0  0  0  0  0  0  0  0
   60.5440   32.7480   49.1220 C   0  0  2  0  0  0  0  0  0  0  0  0
   60.3060   31.4560   48.3340 C   0  0  0  0  0  0  0  0  0  0  0  0
   59.3380   30.5520   48.8130 C   0  0  0  0  0  0  0  0  0  0  0  0
   59.1000   29.3420   48.1580 C   0  0  0  0  0  0  0  0  0  0  0  0
   59.8270   29.0100   47.0150 C   0  0  0  0  0  0  0  0  0  0  0  0
   60.7950   29.8880   46.5280 C   0  0  0  0  0  0  0  0  0  0  0  0
   61.0430   31.0980   47.1850 C   0  0  0  0  0  0  0  0  0  0  0  0
   61.4360   33.8390   48.4470 C   0  0  2  0  0  0  0  0  0  0  0  0
   61.0060   34.2280   47.0370 C   0  0  0  0  0  0  0  0  0  0  0  0
   61.6610   33.8520   46.0740 O   0  0  0  0  0  0  0  0  0  0  0  0
   59.8090   35.0300   46.8340 N   0  0  1  0  0  0  0  0  0  0  0  0
   59.5860   35.3390   45.4050 C   0  0  0  0  0  0  0  0  0  0  0  0
   59.0120   34.1800   44.6350 C   0  0  0  0  0  0  0  0  0  0  0  0
   58.2960   33.2060   45.2190 C   0  0  0  0  0  0  0  0  0  0  0  0
   57.7610   32.0920   44.4000 C   0  0  0  0  0  0  0  0  0  0  0  0
   57.4330   30.8600   44.9960 C   0  0  0  0  0  0  0  0  0  0  0  0
   56.9140   29.8150   44.2260 C   0  0  0  0  0  0  0  0  0  0  0  0
   56.7170   29.9870   42.8540 C   0  0  0  0  0  0  0  0  0  0  0  0
   56.2140   28.9740   42.1090 F   0  0  0  0  0  0  0  0  0  0  0  0
   57.0380   31.2060   42.2510 C   0  0  0  0  0  0  0  0  0  0  0  0
   57.5560   32.2550   43.0180 C   0  0  0  0  0  0  0  0  0  0  0  0
   58.1590   33.1330   46.7250 C   0  0  0  0  0  0  0  0  0  0  0  0
   58.6120   34.4160   47.4430 C   0  0  0  0  0  0  0  0  0  0  0  0
   62.9580   33.5320   48.5380 C   0  0  0  0  0  0  0  0  0  0  0  0
   64.9168   32.2445   50.7190 H   0  0  0  0  0  0  0  0  0  0  0  0
   65.0525   31.3306   49.1786 H   0  0  0  0  0  0  0  0  0  0  0  0
   65.2127   33.1197   49.1786 H   0  0  0  0  0  0  0  0  0  0  0  0
   62.9239   31.8202   51.4384 H   0  0  0  0  0  0  0  0  0  0  0  0
   62.7835   33.5872   51.1055 H   0  0  0  0  0  0  0  0  0  0  0  0
   60.7640   31.3938   50.7988 H   0  0  0  0  0  0  0  0  0  0  0  0
   60.5694   33.1592   51.2305 H   0  0  0  0  0  0  0  0  0  0  0  0
   59.5509   33.2201   49.1514 H   0  0  0  0  0  0  0  0  0  0  0  0
   58.7615   30.8027   49.7156 H   0  0  0  0  0  0  0  0  0  0  0  0
   58.3377   28.6494   48.5442 H   0  0  0  0  0  0  0  0  0  0  0  0
   59.6373   28.0575   46.4986 H   0  0  0  0  0  0  0  0  0  0  0  0
   61.3655   29.6282   45.6241 H   0  0  0  0  0  0  0  0  0  0  0  0
   61.8196   31.7766   46.8024 H   0  0  0  0  0  0  0  0  0  0  0  0
   61.2597   34.7376   49.0564 H   0  0  0  0  0  0  0  0  0  0  0  0
   59.9450   35.9480   47.3190 H   0  0  0  0  0  0  0  0  0  0  0  0
   58.8884   36.1866   45.3344 H   0  0  0  0  0  0  0  0  0  0  0  0
   60.5652   35.5750   44.9628 H   0  0  0  0  0  0  0  0  0  0  0  0
   59.1862   34.1290   43.5501 H   0  0  0  0  0  0  0  0  0  0  0  0
   57.5862   30.7182   46.0760 H   0  0  0  0  0  0  0  0  0  0  0  0
   56.6604   28.8560   44.7013 H   0  0  0  0  0  0  0  0  0  0  0  0
   56.8830   31.3411   41.1704 H   0  0  0  0  0  0  0  0  0  0  0  0
   57.8044   33.2128   42.5376 H   0  0  0  0  0  0  0  0  0  0  0  0
   57.1024   32.9507   46.9705 H   0  0  0  0  0  0  0  0  0  0  0  0
   58.8130   32.3191   47.0713 H   0  0  0  0  0  0  0  0  0  0  0  0
   57.7891   35.1451   47.4090 H   0  0  0  0  0  0  0  0  0  0  0  0
   58.8750   34.1387   48.4745 H   0  0  0  0  0  0  0  0  0  0  0  0
   63.3315   33.2924   47.5315 H   0  0  0  0  0  0  0  0  0  0  0  0
   63.4571   34.4215   48.9499 H   0  0  0  0  0  0  0  0  0  0  0  0
  1  2  1  0
  2  3  1  0
  3  4  1  0
  4  5  1  0
  5  6  1  0
  6  7  2  0
  7  8  1  0
  8  9  2  0
  9 10  1  0
 10 11  2  0
  5 12  1  0
 12 13  1  0
 13 14  2  0
 13 15  1  0
 15 16  1  0
 16 17  1  0
 17 18  2  0
 18 19  1  0
 19 20  2  0
 20 21  1  0
 21 22  2  0
 22 23  1  0
 22 24  1  0
 24 25  2  0
 18 26  1  0
 26 27  1  0
 12 28  1  0
 28  2  1  0
 11  6  1  0
 27 15  1  0
 25 19  1  0
  1 29  1  0
  1 30  1  0
  1 31  1  0
  3 32  1  0
  3 33  1  0
  4 34  1  0
  4 35  1  0
  5 36  1  1
  7 37  1  0
  8 38  1  0
  9 39  1  0
 10 40  1  0
 11 41  1  0
 12 42  1  1
 15 43  1  1
 16 44  1  0
 16 45  1  0
 17 46  1  0
 20 47  1  0
 21 48  1  0
 24 49  1  0
 25 50  1  0
 26 51  1  0
 26 52  1  0
 27 53  1  0
 27 54  1  0
 28 55  1  0
 28 56  1  0
M  CHG  1  15   1
M  END
>  <UniqueID>  (38) 
36

>  <SMILES>  (38) 
CN1CC[C@H](c2ccccc2)[C@H](C(=O)[NH+]2CC=C(c3ccc(F)cc3)CC2)C1

>  <Energy>  (38) 
83.6793447408766

>  <Genealogy>  (38) 
CN1CCC(c2ccccc2)C(C(=O)[NH+]2CC=C(c3ccc(F)cc3)CC2)C1 (protonated)
CN1CC[C@H](c2ccccc2)[C@H](C(=O)[NH+]2CC=C(c3ccc(F)cc3)CC2)C1 (chirality)
CN1CC[C@H](c2ccccc2)[C@H](C(=O)[NH+]2CC=C(c3ccc(F)cc3)CC2)C1 (3D coordinates assigned)
CN1CC[C@H](c2ccccc2)[C@H](C(=O)[NH+]2CC=C(c3ccc(F)cc3)CC2)C1 (nonaromatic ring conformer: 83.6793447408766 kcal/mol)

>  <smiles>  (38) 
CN1CCC(c2ccccc2)C(C(=O)N2CC=C(c3ccc(F)cc3)CC2)C1

>  <score_type>  (38) 
oracle

>  <origin>  (38) 
adg

>  <m_score__min__energy>  (38) 
-7.2000000000000002

>  <m_primary>  (38) 
energy

$$$$
38:0
     RDKit          3D

 18 19  0  0  0  0  0  0  0  0999 V2000
   55.5220   26.6780   46.1680 O   0  0  0  0  0  0  0  0  0  0  0  0
   56.2740   27.5290   45.6210 C   0  0  0  0  0  0  0  0  0  0  0  0
   55.6600   28.6060   44.9180 N   0  0  0  0  0  0  0  0  0  0  0  0
   56.5920   29.8180   44.1390 S   0  0  0  0  0  0  0  0  0  0  0  0
   56.2750   31.1600   44.7380 O   0  0  0  0  0  0  0  0  0  0  0  0
   56.2920   29.8180   42.6670 O   0  0  0  0  0  0  0  0  0  0  0  0
   58.2510   29.4490   44.3930 N   0  0  0  0  0  0  0  0  0  0  0  0
   58.6750   28.3000   45.1410 C   0  0  0  0  0  0  0  0  0  0  0  0
   60.0560   28.0850   45.2910 C   0  0  0  0  0  0  0  0  0  0  0  0
   60.5370   26.9900   46.0060 C   0  0  0  0  0  0  0  0  0  0  0  0
   59.6450   26.0890   46.5830 C   0  0  0  0  0  0  0  0  0  0  0  0
   58.2700   26.2810   46.4460 C   0  0  0  0  0  0  0  0  0  0  0  0
   57.7560   27.3820   45.7290 C   0  0  0  0  0  0  0  0  0  0  0  0
   58.9600   30.0950   43.9780 H   0  0  0  0  0  0  0  0  0  0  0  0
   60.7671   28.7912   44.8375 H   0  0  0  0  0  0  0  0  0  0  0  0
   61.6209   26.8371   46.1148 H   0  0  0  0  0  0  0  0  0  0  0  0
   60.0253   25.2249   47.1475 H   0  0  0  0  0  0  0  0  0  0  0  0
   57.5751   25.5621   46.9046 H   0  0  0  0  0  0  0  0  0  0  0  0
  1  2  2  0
  2  3  1  0
  3  4  1  0
  4  5  2  0
  4  6  2  0
  4  7  1  0
  7  8  1  0
  8  9  2  0
  9 10  1  0
 10 11  2  0
 11 12  1  0
 12 13  2  0
 13  2  1  0
 13  8  1  0
  7 14  1  0
  9 15  1  0
 10 16  1  0
 11 17  1  0
 12 18  1  0
M  CHG  1   3  -1
M  END
>  <UniqueID>  (39) 
37

>  <SMILES>  (39) 
O=C1[N-]S(=O)(=O)Nc2ccccc21

>  <Energy>  (39) 
25.02123304679207

>  <Genealogy>  (39) 
O=C1[N-]S(=O)(=O)Nc2ccccc21 (protonated)
O=C1[N-]S(=O)(=O)Nc2ccccc21 (3D coordinates assigned)
O=C1[N-]S(=O)(=O)Nc2ccccc21 (nonaromatic ring conformer: 25.02123304679207 kcal/mol)

>  <smiles>  (39) 
O=C1NS(=O)(=O)Nc2ccccc21

>  <score_type>  (39) 
oracle

>  <origin>  (39) 
adg

>  <m_score__min__energy>  (39) 
-8.1099999999999994

>  <m_primary>  (39) 
energy

$$$$
39:0
     RDKit          3D

 42 43  0  0  0  0  0  0  0  0999 V2000
   60.3610   34.9090   46.6130 C   0  0  0  0  0  0  0  0  0  0  0  0
   58.9840   34.7470   46.2850 O   0  0  0  0  0  0  0  0  0  0  0  0
   58.4330   33.5880   45.7140 C   0  0  0  0  0  0  0  0  0  0  0  0
   57.9920   33.5550   44.3760 C   0  0  0  0  0  0  0  0  0  0  0  0
   57.4420   32.3900   43.8410 C   0  0  0  0  0  0  0  0  0  0  0  0
   57.3240   31.2390   44.6270 C   0  0  0  0  0  0  0  0  0  0  0  0
   56.5790   29.7920   43.9530 S   0  0  0  0  0  0  0  0  0  0  0  0
   55.9980   30.0890   42.5980 O   0  0  0  0  0  0  0  0  0  0  0  0
   55.4670   29.3450   44.8580 O   0  0  0  0  0  0  0  0  0  0  0  0
   57.7520   28.5130   43.8200 N   0  0  0  0  0  0  0  0  0  0  0  0
   57.7100   27.6010   44.9730 C   0  0  0  0  0  0  0  0  0  0  0  0
   58.1270   26.1700   44.5600 C   0  0  0  0  0  0  0  0  0  0  0  0
   57.4980   24.9910   45.3320 C   0  0  0  0  0  0  0  0  0  0  0  0
   57.3740   25.1930   46.8510 C   0  0  0  0  0  0  0  0  0  0  0  0
   58.5230   25.9830   47.5290 C   0  0  0  0  0  0  0  0  0  0  0  0
   58.3780   27.5160   47.5270 C   0  0  0  0  0  0  0  0  0  0  0  0
   58.5170   28.1930   46.1480 C   0  0  0  0  0  0  0  0  0  0  0  0
   57.7550   31.2630   45.9590 C   0  0  0  0  0  0  0  0  0  0  0  0
   58.3140   32.4290   46.5060 C   0  0  0  0  0  0  0  0  0  0  0  0
   58.7610   32.4460   47.9410 C   0  0  0  0  0  0  0  0  0  0  0  0
   60.4783   34.9228   47.7066 H   0  0  0  0  0  0  0  0  0  0  0  0
   60.9389   34.0726   46.1928 H   0  0  0  0  0  0  0  0  0  0  0  0
   60.7290   35.8566   46.1928 H   0  0  0  0  0  0  0  0  0  0  0  0
   58.0821   34.4543   43.7490 H   0  0  0  0  0  0  0  0  0  0  0  0
   57.0994   32.3764   42.7958 H   0  0  0  0  0  0  0  0  0  0  0  0
   56.6769   27.5023   45.3376 H   0  0  0  0  0  0  0  0  0  0  0  0
   57.8663   26.0448   43.4987 H   0  0  0  0  0  0  0  0  0  0  0  0
   59.2008   26.1143   44.7920 H   0  0  0  0  0  0  0  0  0  0  0  0
   56.4892   24.8198   44.9283 H   0  0  0  0  0  0  0  0  0  0  0  0
   58.1785   24.1381   45.1927 H   0  0  0  0  0  0  0  0  0  0  0  0
   56.4354   25.7335   47.0429 H   0  0  0  0  0  0  0  0  0  0  0  0
   57.4107   24.1841   47.2877 H   0  0  0  0  0  0  0  0  0  0  0  0
   58.5875   25.6520   48.5760 H   0  0  0  0  0  0  0  0  0  0  0  0
   59.4231   25.7685   46.9341 H   0  0  0  0  0  0  0  0  0  0  0  0
   57.3837   27.7632   47.9275 H   0  0  0  0  0  0  0  0  0  0  0  0
   59.2089   27.8993   48.1374 H   0  0  0  0  0  0  0  0  0  0  0  0
   58.2065   29.2418   46.2642 H   0  0  0  0  0  0  0  0  0  0  0  0
   59.5695   28.0389   45.8677 H   0  0  0  0  0  0  0  0  0  0  0  0
   57.6549   30.3616   46.5815 H   0  0  0  0  0  0  0  0  0  0  0  0
   57.8807   32.4125   48.5997 H   0  0  0  0  0  0  0  0  0  0  0  0
   59.3989   31.5715   48.1367 H   0  0  0  0  0  0  0  0  0  0  0  0
   59.3306   33.3665   48.1367 H   0  0  0  0  0  0  0  0  0  0  0  0
  1  2  1  0
  2  3  1  0
  3  4  2  0
  4  5  1  0
  5  6  2  0
  6  7  1  0
  7  8  2  0
  7  9  2  0
  7 10  1  0
 10 11  1  0
 11 12  1  0
 12 13  1  0
 13 14  1  0
 14 15  1  0
 15 16  1  0
 16 17  1  0
  6 18  1  0
 18 19  2  0
 19 20  1  0
 19  3  1  0
 17 11  1  0
  1 21  1  0
  1 22  1  0
  1 23  1  0
  4 24  1  0
  5 25  1  0
 11 26  1  0
 12 27  1  0
 12 28  1  0
 13 29  1  0
 13 30  1  0
 14 31  1  0
 14 32  1  0
 15 33  1  0
 15 34  1  0
 16 35  1  0
 16 36  1  0
 17 37  1  0
 17 38  1  0
 18 39  1  0
 20 40  1  0
 20 41  1  0
 20 42  1  0
M  CHG  1  10  -1
M  END
>  <UniqueID>  (40) 
38

>  <SMILES>  (40) 
COc1ccc(S(=O)(=O)[N-]C2CCCCCC2)cc1C

>  <Energy>  (40) 
49.83248917329935

>  <Genealogy>  (40) 
COc1ccc(S(=O)(=O)[N-]C2CCCCCC2)cc1C (protonated)
COc1ccc(S(=O)(=O)[N-]C2CCCCCC2)cc1C (3D coordinates assigned)
COc1ccc(S(=O)(=O)[N-]C2CCCCCC2)cc1C (nonaromatic ring conformer: 49.83248917329935 kcal/mol)

>  <smiles>  (40) 
COc1ccc(S(=O)(=O)NC2CCCCCC2)cc1C

>  <score_type>  (40) 
oracle

>  <origin>  (40) 
adg

>  <m_score__min__energy>  (40) 
-6.3200000000000003

>  <m_primary>  (40) 
energy

$$$$
40:0
     RDKit          3D

 65 68  0  0  0  0  0  0  0  0999 V2000
   57.2990   33.8490   45.2840 C   0  0  0  0  0  0  0  0  0  0  0  0
   58.8110   33.6170   45.3820 C   0  0  0  0  0  0  0  0  0  0  0  0
   59.3010   33.3920   46.7600 N   0  0  0  0  0  0  0  0  0  0  0  0
   59.4850   34.5850   47.6150 C   0  0  0  0  0  0  0  0  0  0  0  0
   59.9820   34.2690   49.0330 C   0  0  0  0  0  0  0  0  0  0  0  0
   60.2920   32.3080   46.9310 C   0  0  0  0  0  0  0  0  0  0  0  0
   59.6470   31.1280   47.6490 C   0  0  0  0  0  0  0  0  0  0  0  0
   58.4680   30.7250   46.9530 O   0  0  0  0  0  0  0  0  0  0  0  0
   58.2050   29.4160   46.5280 C   0  0  0  0  0  0  0  0  0  0  0  0
   57.6120   29.1290   45.2850 C   0  0  0  0  0  0  0  0  0  0  0  0
   57.3740   27.8040   44.9060 C   0  0  0  0  0  0  0  0  0  0  0  0
   57.7200   26.7430   45.7610 C   0  0  0  0  0  0  0  0  0  0  0  0
   57.4690   25.3360   45.3600 C   0  0  0  0  0  0  0  0  0  0  0  0
   58.5340   24.4300   45.2270 C   0  0  0  0  0  0  0  0  0  0  0  0
   58.3000   23.1060   44.8430 C   0  0  0  0  0  0  0  0  0  0  0  0
   56.9910   22.6550   44.5800 C   0  0  0  0  0  0  0  0  0  0  0  0
   56.7100   21.2530   44.1530 C   0  0  0  0  0  0  0  0  0  0  0  0
   56.2700   21.0570   42.9840 O   0  0  0  0  0  0  0  0  0  0  0  0
   56.9500   20.1180   45.0300 N   0  0  2  0  0  0  0  0  0  0  0  0
   55.7700   19.2310   45.1190 C   0  0  0  0  0  0  0  0  0  0  0  0
   54.5690   19.9150   45.7870 C   0  0  0  0  0  0  0  0  0  0  0  0
   54.9600   20.6620   47.0330 C   0  0  0  0  0  0  0  0  0  0  0  0
   53.9570   21.0970   47.9140 C   0  0  0  0  0  0  0  0  0  0  0  0
   54.2860   21.8480   49.0440 C   0  0  0  0  0  0  0  0  0  0  0  0
   55.6180   22.1780   49.3010 C   0  0  0  0  0  0  0  0  0  0  0  0
   56.6230   21.7600   48.4240 C   0  0  0  0  0  0  0  0  0  0  0  0
   56.3040   21.0170   47.2770 C   0  0  0  0  0  0  0  0  0  0  0  0
   57.4170   20.5330   46.3740 C   0  0  0  0  0  0  0  0  0  0  0  0
   55.9280   23.5670   44.7130 C   0  0  0  0  0  0  0  0  0  0  0  0
   56.1630   24.8880   45.1020 C   0  0  0  0  0  0  0  0  0  0  0  0
   58.3110   27.0370   47.0030 C   0  0  0  0  0  0  0  0  0  0  0  0
   58.5500   28.3610   47.3790 C   0  0  0  0  0  0  0  0  0  0  0  0
   56.8718   33.9146   46.2955 H   0  0  0  0  0  0  0  0  0  0  0  0
   57.1063   34.7872   44.7431 H   0  0  0  0  0  0  0  0  0  0  0  0
   56.8339   33.0117   44.7431 H   0  0  0  0  0  0  0  0  0  0  0  0
   59.0647   32.7341   44.7770 H   0  0  0  0  0  0  0  0  0  0  0  0
   59.2963   34.5351   45.0194 H   0  0  0  0  0  0  0  0  0  0  0  0
   60.2184   35.2469   47.1313 H   0  0  0  0  0  0  0  0  0  0  0  0
   58.4958   35.0539   47.7226 H   0  0  0  0  0  0  0  0  0  0  0  0
   59.2924   34.7074   49.7694 H   0  0  0  0  0  0  0  0  0  0  0  0
   60.0229   33.1787   49.1727 H   0  0  0  0  0  0  0  0  0  0  0  0
   60.9867   34.6945   49.1727 H   0  0  0  0  0  0  0  0  0  0  0  0
   60.6515   31.9826   45.9436 H   0  0  0  0  0  0  0  0  0  0  0  0
   61.1373   32.6793   47.5290 H   0  0  0  0  0  0  0  0  0  0  0  0
   60.3567   30.2882   47.6820 H   0  0  0  0  0  0  0  0  0  0  0  0
   59.3799   31.4277   48.6731 H   0  0  0  0  0  0  0  0  0  0  0  0
   57.3343   29.9504   44.6081 H   0  0  0  0  0  0  0  0  0  0  0  0
   56.9122   27.5902   43.9308 H   0  0  0  0  0  0  0  0  0  0  0  0
   59.5624   24.7653   45.4269 H   0  0  0  0  0  0  0  0  0  0  0  0
   59.1459   22.4097   44.7452 H   0  0  0  0  0  0  0  0  0  0  0  0
   57.7370   19.5570   44.6270 H   0  0  0  0  0  0  0  0  0  0  0  0
   55.4813   18.9251   44.1026 H   0  0  0  0  0  0  0  0  0  0  0  0
   56.0485   18.3656   45.7382 H   0  0  0  0  0  0  0  0  0  0  0  0
   54.1238   20.6244   45.0739 H   0  0  0  0  0  0  0  0  0  0  0  0
   53.8517   19.1321   46.0742 H   0  0  0  0  0  0  0  0  0  0  0  0
   52.9055   20.8445   47.7126 H   0  0  0  0  0  0  0  0  0  0  0  0
   53.4950   22.1800   49.7325 H   0  0  0  0  0  0  0  0  0  0  0  0
   55.8765   22.7668   50.1934 H   0  0  0  0  0  0  0  0  0  0  0  0
   57.6720   22.0154   48.6345 H   0  0  0  0  0  0  0  0  0  0  0  0
   58.1462   21.3476   46.2530 H   0  0  0  0  0  0  0  0  0  0  0  0
   57.8581   19.6456   46.8514 H   0  0  0  0  0  0  0  0  0  0  0  0
   54.8992   23.2358   44.5082 H   0  0  0  0  0  0  0  0  0  0  0  0
   55.3175   25.5837   45.2072 H   0  0  0  0  0  0  0  0  0  0  0  0
   58.5871   26.2181   47.6835 H   0  0  0  0  0  0  0  0  0  0  0  0
   59.0137   28.5758   48.3531 H   0  0  0  0  0  0  0  0  0  0  0  0
  1  2  1  0
  2  3  1  0
  3  4  1  0
  4  5  1  0
  3  6  1  0
  6  7  1  0
  7  8  1  0
  8  9  1  0
  9 10  2  0
 10 11  1  0
 11 12  2  0
 12 13  1  0
 13 14  2  0
 14 15  1  0
 15 16  2  0
 16 17  1  0
 17 18  2  0
 17 19  1  0
 19 20  1  0
 20 21  1  0
 21 22  1  0
 22 23  2  0
 23 24  1  0
 24 25  2  0
 25 26  1  0
 26 27  2  0
 27 28  1  0
 16 29  1  0
 29 30  2  0
 12 31  1  0
 31 32  2  0
 32  9  1  0
 30 13  1  0
 28 19  1  0
 27 22  1  0
  1 33  1  0
  1 34  1  0
  1 35  1  0
  2 36  1  0
  2 37  1  0
  4 38  1  0
  4 39  1  0
  5 40  1  0
  5 41  1  0
  5 42  1  0
  6 43  1  0
  6 44  1  0
  7 45  1  0
  7 46  1  0
 10 47  1  0
 11 48  1  0
 14 49  1  0
 15 50  1  0
 19 51  1  6
 20 52  1  0
 20 53  1  0
 21 54  1  0
 21 55  1  0
 23 56  1  0
 24 57  1  0
 25 58  1  0
 26 59  1  0
 28 60  1  0
 28 61  1  0
 29 62  1  0
 30 63  1  0
 31 64  1  0
 32 65  1  0
M  CHG  1  19   1
M  END
>  <UniqueID>  (41) 
39

>  <SMILES>  (41) 
CCN(CC)CCOc1ccc(-c2ccc(C(=O)[N@@H+]3CCc4ccccc4C3)cc2)cc1

>  <Energy>  (41) 
89.79030249140405

>  <Genealogy>  (41) 
CCN(CC)CCOc1ccc(-c2ccc(C(=O)[NH+]3CCc4ccccc4C3)cc2)cc1 (protonated)
CCN(CC)CCOc1ccc(-c2ccc(C(=O)[N@@H+]3CCc4ccccc4C3)cc2)cc1 (chirality)
CCN(CC)CCOc1ccc(-c2ccc(C(=O)[N@@H+]3CCc4ccccc4C3)cc2)cc1 (3D coordinates assigned)
CCN(CC)CCOc1ccc(-c2ccc(C(=O)[N@@H+]3CCc4ccccc4C3)cc2)cc1 (nonaromatic ring conformer: 89.79030249140405 kcal/mol)

>  <smiles>  (41) 
CCN(CC)CCOc1ccc(-c2ccc(C(=O)N3CCc4ccccc4C3)cc2)cc1

>  <score_type>  (41) 
oracle

>  <origin>  (41) 
adg

>  <m_score__min__energy>  (41) 
-7.6299999999999999

>  <m_primary>  (41) 
energy

$$$$
41:0
     RDKit          3D

 43 44  0  0  0  0  0  0  0  0999 V2000
   60.3500   26.5060   46.6880 C   0  0  0  0  0  0  0  0  0  0  0  0
   59.0830   27.1610   47.2380 C   0  0  0  0  0  0  0  0  0  0  0  0
   57.7980   26.4500   46.7830 C   0  0  0  0  0  0  0  0  0  0  0  0
   57.0920   27.1900   45.6350 C   0  0  0  0  0  0  0  0  0  0  0  0
   58.0550   27.6060   44.5080 C   0  0  0  0  0  0  0  0  0  0  0  0
   57.4310   28.4690   43.3990 C   0  0  0  0  0  0  0  0  0  0  0  0
   56.7280   30.0030   43.9980 S   0  0  0  0  0  0  0  0  0  0  0  0
   55.5230   29.6970   44.8420 O   0  0  0  0  0  0  0  0  0  0  0  0
   56.2870   30.8420   42.8300 O   0  0  0  0  0  0  0  0  0  0  0  0
   57.8980   30.8850   44.9780 C   0  0  0  0  0  0  0  0  0  0  0  0
   58.7310   30.1830   45.8560 C   0  0  0  0  0  0  0  0  0  0  0  0
   59.6800   30.8650   46.6210 C   0  0  0  0  0  0  0  0  0  0  0  0
   59.8080   32.2600   46.5220 C   0  0  0  0  0  0  0  0  0  0  0  0
   60.8180   32.9510   47.3560 C   0  0  0  0  0  0  0  0  0  0  0  0
   62.1730   32.9290   46.9870 C   0  0  0  0  0  0  0  0  0  0  0  0
   63.1310   33.5670   47.7820 C   0  0  0  0  0  0  0  0  0  0  0  0
   62.7440   34.2220   48.9540 C   0  0  0  0  0  0  0  0  0  0  0  0
   61.4000   34.2370   49.3360 C   0  0  0  0  0  0  0  0  0  0  0  0
   60.4390   33.6010   48.5430 C   0  0  0  0  0  0  0  0  0  0  0  0
   58.9760   32.9670   45.6250 C   0  0  0  0  0  0  0  0  0  0  0  0
   59.1370   34.7020   45.3770 Cl  0  0  0  0  0  0  0  0  0  0  0  0
   58.0260   32.2740   44.8630 C   0  0  0  0  0  0  0  0  0  0  0  0
   60.9854   26.1775   47.5237 H   0  0  0  0  0  0  0  0  0  0  0  0
   60.0757   25.6367   46.0723 H   0  0  0  0  0  0  0  0  0  0  0  0
   60.9006   27.2324   46.0723 H   0  0  0  0  0  0  0  0  0  0  0  0
   59.1256   27.1404   48.3370 H   0  0  0  0  0  0  0  0  0  0  0  0
   59.0471   28.1896   46.8498 H   0  0  0  0  0  0  0  0  0  0  0  0
   58.0569   25.4363   46.4431 H   0  0  0  0  0  0  0  0  0  0  0  0
   57.1081   26.4249   47.6394 H   0  0  0  0  0  0  0  0  0  0  0  0
   56.3219   26.5282   45.2120 H   0  0  0  0  0  0  0  0  0  0  0  0
   56.6569   28.1096   46.0534 H   0  0  0  0  0  0  0  0  0  0  0  0
   58.8805   28.1762   44.9590 H   0  0  0  0  0  0  0  0  0  0  0  0
   58.3786   26.6731   44.0232 H   0  0  0  0  0  0  0  0  0  0  0  0
   58.2125   28.7082   42.6627 H   0  0  0  0  0  0  0  0  0  0  0  0
   56.6083   27.8859   42.9596 H   0  0  0  0  0  0  0  0  0  0  0  0
   58.6382   29.0905   45.9441 H   0  0  0  0  0  0  0  0  0  0  0  0
   60.3326   30.3047   47.3067 H   0  0  0  0  0  0  0  0  0  0  0  0
   62.4822   32.4079   46.0690 H   0  0  0  0  0  0  0  0  0  0  0  0
   64.1898   33.5530   47.4843 H   0  0  0  0  0  0  0  0  0  0  0  0
   63.4979   34.7262   49.5764 H   0  0  0  0  0  0  0  0  0  0  0  0
   61.0974   34.7494   50.2611 H   0  0  0  0  0  0  0  0  0  0  0  0
   59.3826   33.6097   48.8497 H   0  0  0  0  0  0  0  0  0  0  0  0
   57.3755   32.8261   44.1687 H   0  0  0  0  0  0  0  0  0  0  0  0
  1  2  1  0
  2  3  1  0
  3  4  1  0
  4  5  1  0
  5  6  1  0
  6  7  1  0
  7  8  2  0
  7  9  2  0
  7 10  1  0
 10 11  2  0
 11 12  1  0
 12 13  2  0
 13 14  1  0
 14 15  2  0
 15 16  1  0
 16 17  2  0
 17 18  1  0
 18 19  2  0
 13 20  1  0
 20 21  1  0
 20 22  2  0
 22 10  1  0
 19 14  1  0
  1 23  1  0
  1 24  1  0
  1 25  1  0
  2 26  1  0
  2 27  1  0
  3 28  1  0
  3 29  1  0
  4 30  1  0
  4 31  1  0
  5 32  1  0
  5 33  1  0
  6 34  1  0
  6 35  1  0
 11 36  1  0
 12 37  1  0
 15 38  1  0
 16 39  1  0
 17 40  1  0
 18 41  1  0
 19 42  1  0
 22 43  1  0
M  END
>  <UniqueID>  (42) 
40

>  <SMILES>  (42) 
CCCCCCS(=O)(=O)c1ccc(-c2ccccc2)c(Cl)c1

>  <Energy>  (42) 
39.51506912879338

>  <Genealogy>  (42) 
CCCCCCS(=O)(=O)c1ccc(-c2ccccc2)c(Cl)c1 (3D coordinates assigned)
CCCCCCS(=O)(=O)c1ccc(-c2ccccc2)c(Cl)c1 (optimized conformer: 39.51506912879338 kcal/mol)

>  <smiles>  (42) 
CCCCCCS(=O)(=O)c1ccc(-c2ccccc2)c(Cl)c1

>  <score_type>  (42) 
oracle

>  <origin>  (42) 
adg

>  <m_score__min__energy>  (42) 
-8.1400000000000006

>  <m_primary>  (42) 
energy

$$$$
42:0
     RDKit          3D

 44 44  0  0  0  0  0  0  0  0999 V2000
   58.9790   30.2000   47.0390 C   0  0  0  0  0  0  0  0  0  0  0  0
   59.5750   31.5590   46.8520 C   0  0  0  0  0  0  0  0  0  0  0  0
   60.8620   31.8600   47.1020 N   0  0  0  0  0  0  0  0  0  0  0  0
   61.0600   33.1450   46.8460 N   0  0  0  0  0  0  0  0  0  0  0  0
   62.3430   33.8340   46.9940 C   0  0  0  0  0  0  0  0  0  0  0  0
   63.3780   32.9820   46.6510 F   0  0  0  0  0  0  0  0  0  0  0  0
   62.5250   34.2540   48.3000 F   0  0  0  0  0  0  0  0  0  0  0  0
   59.8890   33.6980   46.4520 C   0  0  0  0  0  0  0  0  0  0  0  0
   59.7230   35.1170   45.9910 C   0  0  0  0  0  0  0  0  0  0  0  0
   58.9140   32.7060   46.4400 C   0  0  0  0  0  0  0  0  0  0  0  0
   57.4700   32.8370   46.0420 C   0  0  0  0  0  0  0  0  0  0  0  0
   57.1870   32.1990   44.6790 C   0  0  0  0  0  0  0  0  0  0  0  0
   56.1970   31.1330   44.8030 N   0  0  0  0  0  0  0  0  0  0  0  0
   56.4160   29.7400   44.5450 C   0  0  0  0  0  0  0  0  0  0  0  0
   55.5570   28.9150   44.9550 O   0  0  0  0  0  0  0  0  0  0  0  0
   57.6060   29.2640   43.7440 C   0  0  0  0  0  0  0  0  0  0  0  0
   58.4240   28.1530   44.4350 C   0  0  0  0  0  0  0  0  0  0  0  0
   57.5930   27.0130   44.8620 N   0  0  0  0  0  0  0  0  0  0  0  0
   57.5450   26.8580   46.3260 C   0  0  0  0  0  0  0  0  0  0  0  0
   56.2880   26.0920   46.7410 C   0  0  0  0  0  0  0  0  0  0  0  0
   55.1290   26.5390   45.9760 N   0  0  0  0  0  0  0  0  0  0  0  0
   58.8850   29.9856   48.1138 H   0  0  0  0  0  0  0  0  0  0  0  0
   57.9843   30.1682   46.5704 H   0  0  0  0  0  0  0  0  0  0  0  0
   59.6294   29.4467   46.5704 H   0  0  0  0  0  0  0  0  0  0  0  0
   61.5940   31.1950   47.4410 H   0  0  0  0  0  0  0  0  0  0  0  0
   62.3396   34.7099   46.3286 H   0  0  0  0  0  0  0  0  0  0  0  0
   59.6455   35.7799   46.8654 H   0  0  0  0  0  0  0  0  0  0  0  0
   60.5930   35.4098   45.3849 H   0  0  0  0  0  0  0  0  0  0  0  0
   58.8089   35.2011   45.3849 H   0  0  0  0  0  0  0  0  0  0  0  0
   56.8467   32.3422   46.8013 H   0  0  0  0  0  0  0  0  0  0  0  0
   57.2351   33.9091   45.9690 H   0  0  0  0  0  0  0  0  0  0  0  0
   56.8045   32.9688   43.9926 H   0  0  0  0  0  0  0  0  0  0  0  0
   58.1216   31.7696   44.2889 H   0  0  0  0  0  0  0  0  0  0  0  0
   57.2421   28.8773   42.7806 H   0  0  0  0  0  0  0  0  0  0  0  0
   58.2772   30.1277   43.6275 H   0  0  0  0  0  0  0  0  0  0  0  0
   59.1861   27.7880   43.7307 H   0  0  0  0  0  0  0  0  0  0  0  0
   58.8775   28.5885   45.3376 H   0  0  0  0  0  0  0  0  0  0  0  0
   56.6190   27.1230   44.4960 H   0  0  0  0  0  0  0  0  0  0  0  0
   58.4341   26.3037   46.6610 H   0  0  0  0  0  0  0  0  0  0  0  0
   57.5239   27.8553   46.7895 H   0  0  0  0  0  0  0  0  0  0  0  0
   56.4452   25.0181   46.5619 H   0  0  0  0  0  0  0  0  0  0  0  0
   56.0983   26.2801   47.8081 H   0  0  0  0  0  0  0  0  0  0  0  0
   55.4480   26.7330   45.0000 H   0  0  0  0  0  0  0  0  0  0  0  0
   54.8110   27.4540   46.3720 H   0  0  0  0  0  0  0  0  0  0  0  0
  1  2  1  0
  2  3  2  0
  3  4  1  0
  4  5  1  0
  5  6  1  0
  5  7  1  0
  4  8  1  0
  8  9  1  0
  8 10  2  0
 10 11  1  0
 11 12  1  0
 12 13  1  0
 13 14  1  0
 14 15  2  0
 14 16  1  0
 16 17  1  0
 17 18  1  0
 18 19  1  0
 19 20  1  0
 20 21  1  0
 10  2  1  0
  1 22  1  0
  1 23  1  0
  1 24  1  0
  3 25  1  0
  5 26  1  0
  9 27  1  0
  9 28  1  0
  9 29  1  0
 11 30  1  0
 11 31  1  0
 12 32  1  0
 12 33  1  0
 16 34  1  0
 16 35  1  0
 17 36  1  0
 17 37  1  0
 18 38  1  0
 19 39  1  0
 19 40  1  0
 20 41  1  0
 20 42  1  0
 21 43  1  0
 21 44  1  0
M  CHG  2   3   1  13  -1
M  END
>  <UniqueID>  (43) 
41

>  <SMILES>  (43) 
Cc1[nH+]n(C(F)F)c(C)c1CC[N-]C(=O)CCNCCN

>  <Energy>  (43) 
61.51011385455072

>  <Genealogy>  (43) 
Cc1[nH+]n(C(F)F)c(C)c1CC[N-]C(=O)CCNCCN (protonated)
Cc1[nH+]n(C(F)F)c(C)c1CC[N-]C(=O)CCNCCN (3D coordinates assigned)
Cc1[nH+]n(C(F)F)c(C)c1CC[N-]C(=O)CCNCCN (optimized conformer: 61.51011385455072 kcal/mol)

>  <smiles>  (43) 
Cc1nn(C(F)F)c(C)c1CCNC(=O)CCNCCN

>  <score_type>  (43) 
oracle

>  <origin>  (43) 
adg

>  <m_score__min__energy>  (43) 
-7.3399999999999999

>  <m_primary>  (43) 
energy

$$$$
43:0
     RDKit          3D

 47 49  0  0  0  0  0  0  0  0999 V2000
   62.1280   33.8370   47.6340 C   0  0  0  0  0  0  0  0  0  0  0  0
   60.7260   34.0410   48.2270 C   0  0  0  0  0  0  0  0  0  0  0  0
   59.6810   34.3400   47.2230 N   0  0  0  0  0  0  0  0  0  0  0  0
   60.1470   34.2070   45.8270 C   0  0  0  0  0  0  0  0  0  0  0  0
   58.9640   34.2940   44.8560 C   0  0  0  0  0  0  0  0  0  0  0  0
   57.9600   33.2210   45.0850 N   0  0  0  0  0  0  0  0  0  0  0  0
   58.0580   32.1610   44.0600 C   0  0  0  0  0  0  0  0  0  0  0  0
   57.2490   30.9540   44.4410 C   0  0  0  0  0  0  0  0  0  0  0  0
   55.9030   30.9300   44.4700 N   0  0  0  0  0  0  0  0  0  0  0  0
   55.5870   29.7080   44.8800 N   0  0  0  0  0  0  0  0  0  0  0  0
   56.6880   29.0040   45.1010 N   0  0  0  0  0  0  0  0  0  0  0  0
   57.7370   29.7620   44.8360 N   0  0  0  0  0  0  0  0  0  0  0  0
   59.1270   29.3240   44.9580 C   0  0  0  0  0  0  0  0  0  0  0  0
   59.6800   29.6760   46.3120 C   0  0  0  0  0  0  0  0  0  0  0  0
   60.9260   30.3140   46.4210 C   0  0  0  0  0  0  0  0  0  0  0  0
   61.4490   30.6300   47.6780 C   0  0  0  0  0  0  0  0  0  0  0  0
   60.7380   30.3190   48.8430 C   0  0  0  0  0  0  0  0  0  0  0  0
   61.3080   30.6530   50.0810 O   0  0  0  0  0  0  0  0  0  0  0  0
   62.5910   31.2510   50.2410 C   0  0  0  0  0  0  0  0  0  0  0  0
   59.4850   29.6880   48.7350 C   0  0  0  0  0  0  0  0  0  0  0  0
   58.9600   29.3730   47.4790 C   0  0  0  0  0  0  0  0  0  0  0  0
   58.0020   32.6500   46.4550 C   0  0  0  0  0  0  0  0  0  0  0  0
   58.3650   33.7150   47.5000 C   0  0  0  0  0  0  0  0  0  0  0  0
   62.8590   33.7306   48.4491 H   0  0  0  0  0  0  0  0  0  0  0  0
   62.1353   32.9283   47.0141 H   0  0  0  0  0  0  0  0  0  0  0  0
   62.3939   34.7059   47.0141 H   0  0  0  0  0  0  0  0  0  0  0  0
   60.4397   33.1223   48.7599 H   0  0  0  0  0  0  0  0  0  0  0  0
   60.7873   34.9165   48.8901 H   0  0  0  0  0  0  0  0  0  0  0  0
   60.8585   35.0158   45.6042 H   0  0  0  0  0  0  0  0  0  0  0  0
   60.6353   33.2287   45.7064 H   0  0  0  0  0  0  0  0  0  0  0  0
   58.4730   35.2699   44.9845 H   0  0  0  0  0  0  0  0  0  0  0  0
   59.3583   34.1711   43.8365 H   0  0  0  0  0  0  0  0  0  0  0  0
   57.6857   32.5537   43.1023 H   0  0  0  0  0  0  0  0  0  0  0  0
   59.1121   31.8584   43.9744 H   0  0  0  0  0  0  0  0  0  0  0  0
   59.1751   28.2336   44.8209 H   0  0  0  0  0  0  0  0  0  0  0  0
   59.7263   29.8329   44.1887 H   0  0  0  0  0  0  0  0  0  0  0  0
   61.4932   30.5663   45.5129 H   0  0  0  0  0  0  0  0  0  0  0  0
   62.4274   31.1272   47.7524 H   0  0  0  0  0  0  0  0  0  0  0  0
   62.8157   31.3557   51.3127 H   0  0  0  0  0  0  0  0  0  0  0  0
   63.3535   30.6155   49.7669 H   0  0  0  0  0  0  0  0  0  0  0  0
   62.5946   32.2436   49.7669 H   0  0  0  0  0  0  0  0  0  0  0  0
   58.9161   29.4415   49.6436 H   0  0  0  0  0  0  0  0  0  0  0  0
   57.9771   28.8849   47.4039 H   0  0  0  0  0  0  0  0  0  0  0  0
   57.0136   32.2331   46.6985 H   0  0  0  0  0  0  0  0  0  0  0  0
   58.7748   31.8675   46.4782 H   0  0  0  0  0  0  0  0  0  0  0  0
   57.5918   34.4974   47.4929 H   0  0  0  0  0  0  0  0  0  0  0  0
   58.4233   33.2217   48.4815 H   0  0  0  0  0  0  0  0  0  0  0  0
  1  2  1  0
  2  3  1  0
  3  4  1  0
  4  5  1  0
  5  6  1  0
  6  7  1  0
  7  8  1  0
  8  9  2  0
  9 10  1  0
 10 11  2  0
 11 12  1  0
 12 13  1  0
 13 14  1  0
 14 15  2  0
 15 16  1  0
 16 17  2  0
 17 18  1  0
 18 19  1  0
 17 20  1  0
 20 21  2  0
  6 22  1  0
 22 23  1  0
 23  3  1  0
 12  8  1  0
 21 14  1  0
  1 24  1  0
  1 25  1  0
  1 26  1  0
  2 27  1  0
  2 28  1  0
  4 29  1  0
  4 30  1  0
  5 31  1  0
  5 32  1  0
  7 33  1  0
  7 34  1  0
 13 35  1  0
 13 36  1  0
 15 37  1  0
 16 38  1  0
 19 39  1  0
 19 40  1  0
 19 41  1  0
 20 42  1  0
 21 43  1  0
 22 44  1  0
 22 45  1  0
 23 46  1  0
 23 47  1  0
M  END
>  <UniqueID>  (44) 
42

>  <SMILES>  (44) 
CCN1CCN(Cc2nnnn2Cc2ccc(OC)cc2)CC1

>  <Energy>  (44) 
97.82088781233783

>  <Genealogy>  (44) 
CCN1CCN(Cc2nnnn2Cc2ccc(OC)cc2)CC1 (3D coordinates assigned)
CCN1CCN(Cc2nnnn2Cc2ccc(OC)cc2)CC1 (nonaromatic ring conformer: 97.82088781233783 kcal/mol)

>  <smiles>  (44) 
CCN1CCN(Cc2nnnn2Cc2ccc(OC)cc2)CC1

>  <score_type>  (44) 
oracle

>  <origin>  (44) 
adg

>  <m_score__min__energy>  (44) 
-7.4000000000000004

>  <m_primary>  (44) 
energy

$$$$
44:0
     RDKit          3D

 52 54  0  0  0  0  0  0  0  0999 V2000
   55.6530   29.9420   44.1830 C   0  0  0  0  0  0  0  0  0  0  0  0
   56.5370   29.9550   42.9380 C   0  0  0  0  0  0  0  0  0  0  0  0
   57.3800   31.2350   42.8230 C   0  0  0  0  0  0  0  0  0  0  0  0
   57.8150   31.8140   44.1870 C   0  0  0  0  0  0  0  0  0  0  0  0
   58.1530   33.3190   44.1500 C   0  0  0  0  0  0  0  0  0  0  0  0
   57.2650   34.1630   45.0780 C   0  0  0  0  0  0  0  0  0  0  0  0
   57.0330   33.4610   46.3440 N   0  0  0  0  0  0  0  0  0  0  0  0
   58.1510   33.6620   47.2730 C   0  0  0  0  0  0  0  0  0  0  0  0
   58.6250   32.3170   47.8360 C   0  0  0  0  0  0  0  0  0  0  0  0
   60.0490   32.0240   47.4320 C   0  0  0  0  0  0  0  0  0  0  0  0
   60.5330   30.8860   46.7750 C   0  0  0  0  0  0  0  0  0  0  0  0
   59.7220   29.7860   46.2160 C   0  0  0  0  0  0  0  0  0  0  0  0
   58.6500   29.2640   46.9560 C   0  0  0  0  0  0  0  0  0  0  0  0
   57.8740   28.2250   46.4360 C   0  0  0  0  0  0  0  0  0  0  0  0
   58.1700   27.6920   45.1770 C   0  0  0  0  0  0  0  0  0  0  0  0
   59.2470   28.1950   44.4420 C   0  0  0  0  0  0  0  0  0  0  0  0
   60.0250   29.2350   44.9600 C   0  0  0  0  0  0  0  0  0  0  0  0
   61.8860   30.8530   46.8110 N   0  0  0  0  0  0  0  0  0  0  0  0
   62.2670   31.9500   47.4850 C   0  0  0  0  0  0  0  0  0  0  0  0
   63.5660   32.3080   47.8400 C   0  0  0  0  0  0  0  0  0  0  0  0
   63.7400   33.4580   48.6300 C   0  0  0  0  0  0  0  0  0  0  0  0
   62.6230   34.2100   49.0520 C   0  0  0  0  0  0  0  0  0  0  0  0
   61.3220   33.8220   48.6850 C   0  0  0  0  0  0  0  0  0  0  0  0
   61.1790   32.6850   47.8860 C   0  0  0  0  0  0  0  0  0  0  0  0
   56.2862   29.9513   45.0824 H   0  0  0  0  0  0  0  0  0  0  0  0
   55.0048   30.8307   44.1817 H   0  0  0  0  0  0  0  0  0  0  0  0
   55.0312   29.0346   44.1817 H   0  0  0  0  0  0  0  0  0  0  0  0
   57.2148   29.0896   42.9785 H   0  0  0  0  0  0  0  0  0  0  0  0
   55.8755   29.9126   42.0601 H   0  0  0  0  0  0  0  0  0  0  0  0
   58.2833   31.0051   42.2389 H   0  0  0  0  0  0  0  0  0  0  0  0
   56.7492   31.9939   42.3371 H   0  0  0  0  0  0  0  0  0  0  0  0
   56.9959   31.6609   44.9050 H   0  0  0  0  0  0  0  0  0  0  0  0
   58.7362   31.2876   44.4774 H   0  0  0  0  0  0  0  0  0  0  0  0
   59.2015   33.4493   44.4561 H   0  0  0  0  0  0  0  0  0  0  0  0
   57.9757   33.6682   43.1221 H   0  0  0  0  0  0  0  0  0  0  0  0
   57.7632   35.1223   45.2819 H   0  0  0  0  0  0  0  0  0  0  0  0
   56.2973   34.3359   44.5843 H   0  0  0  0  0  0  0  0  0  0  0  0
   56.1680   33.8580   46.7810 H   0  0  0  0  0  0  0  0  0  0  0  0
   58.9830   34.1455   46.7400 H   0  0  0  0  0  0  0  0  0  0  0  0
   57.8146   34.2988   48.1045 H   0  0  0  0  0  0  0  0  0  0  0  0
   58.5630   32.3464   48.9339 H   0  0  0  0  0  0  0  0  0  0  0  0
   57.9792   31.5242   47.4304 H   0  0  0  0  0  0  0  0  0  0  0  0
   58.4196   29.6747   47.9501 H   0  0  0  0  0  0  0  0  0  0  0  0
   57.0296   27.8258   47.0171 H   0  0  0  0  0  0  0  0  0  0  0  0
   57.5555   26.8776   44.7658 H   0  0  0  0  0  0  0  0  0  0  0  0
   59.4831   27.7721   43.4544 H   0  0  0  0  0  0  0  0  0  0  0  0
   60.8769   29.6228   44.3821 H   0  0  0  0  0  0  0  0  0  0  0  0
   62.5090   30.1050   46.4300 H   0  0  0  0  0  0  0  0  0  0  0  0
   64.4287   31.7094   47.5123 H   0  0  0  0  0  0  0  0  0  0  0  0
   64.7529   33.7734   48.9208 H   0  0  0  0  0  0  0  0  0  0  0  0
   62.7709   35.1062   49.6725 H   0  0  0  0  0  0  0  0  0  0  0  0
   60.4442   34.3960   49.0168 H   0  0  0  0  0  0  0  0  0  0  0  0
  1  2  1  0
  2  3  1  0
  3  4  1  0
  4  5  1  0
  5  6  1  0
  6  7  1  0
  7  8  1  0
  8  9  1  0
  9 10  1  0
 10 11  2  0
 11 12  1  0
 12 13  2  0
 13 14  1  0
 14 15  2  0
 15 16  1  0
 16 17  2  0
 11 18  1  0
 18 19  1  0
 19 20  2  0
 20 21  1  0
 21 22  2  0
 22 23  1  0
 23 24  2  0
 24 10  1  0
 17 12  1  0
 24 19  1  0
  1 25  1  0
  1 26  1  0
  1 27  1  0
  2 28  1  0
  2 29  1  0
  3 30  1  0
  3 31  1  0
  4 32  1  0
  4 33  1  0
  5 34  1  0
  5 35  1  0
  6 36  1  0
  6 37  1  0
  7 38  1  0
  8 39  1  0
  8 40  1  0
  9 41  1  0
  9 42  1  0
 13 43  1  0
 14 44  1  0
 15 45  1  0
 16 46  1  0
 17 47  1  0
 18 48  1  0
 20 49  1  0
 21 50  1  0
 22 51  1  0
 23 52  1  0
M  END
>  <UniqueID>  (45) 
43

>  <SMILES>  (45) 
CCCCCCNCCc1c(-c2ccccc2)[nH]c2ccccc12

>  <Energy>  (45) 
77.42000500705437

>  <Genealogy>  (45) 
CCCCCCNCCc1c(-c2ccccc2)[nH]c2ccccc12 (3D coordinates assigned)
CCCCCCNCCc1c(-c2ccccc2)[nH]c2ccccc12 (optimized conformer: 77.42000500705437 kcal/mol)

>  <smiles>  (45) 
CCCCCCNCCc1c(-c2ccccc2)[nH]c2ccccc12

>  <score_type>  (45) 
oracle

>  <origin>  (45) 
adg

>  <m_score__min__energy>  (45) 
-7.4800000000000004

>  <m_primary>  (45) 
energy

$$$$
45:0
     RDKit          3D

 17 17  0  0  0  0  0  0  0  0999 V2000
   55.1810   29.4920   44.8520 N   0  0  0  0  0  0  0  0  0  0  0  0
   56.0490   29.8090   43.7180 C   0  0  0  0  0  0  0  0  0  0  0  0
   57.5150   29.9910   44.1400 C   0  0  0  0  0  0  0  0  0  0  0  0
   57.7890   31.3850   44.6150 C   0  0  0  0  0  0  0  0  0  0  0  0
   57.9560   31.7800   45.9360 C   0  0  0  0  0  0  0  0  0  0  0  0
   58.1490   33.1580   46.0780 C   0  0  0  0  0  0  0  0  0  0  0  0
   58.1260   33.8530   44.8750 C   0  0  0  0  0  0  0  0  0  0  0  0
   57.8620   32.7490   43.6340 S   0  0  0  0  0  0  0  0  0  0  0  0
   54.8430   30.3820   45.2840 H   0  0  0  0  0  0  0  0  0  0  0  0
   54.3480   28.9620   44.5090 H   0  0  0  0  0  0  0  0  0  0  0  0
   55.9903   28.9889   42.9873 H   0  0  0  0  0  0  0  0  0  0  0  0
   55.7030   30.7587   43.2840 H   0  0  0  0  0  0  0  0  0  0  0  0
   57.7411   29.2867   44.9541 H   0  0  0  0  0  0  0  0  0  0  0  0
   58.1495   29.7983   43.2624 H   0  0  0  0  0  0  0  0  0  0  0  0
   57.9383   31.0801   46.7845 H   0  0  0  0  0  0  0  0  0  0  0  0
   58.3045   33.6461   47.0514 H   0  0  0  0  0  0  0  0  0  0  0  0
   58.2578   34.9385   44.7550 H   0  0  0  0  0  0  0  0  0  0  0  0
  1  2  1  0
  2  3  1  0
  3  4  1  0
  4  5  2  0
  5  6  1  0
  6  7  2  0
  7  8  1  0
  8  4  1  0
  1  9  1  0
  1 10  1  0
  2 11  1  0
  2 12  1  0
  3 13  1  0
  3 14  1  0
  5 15  1  0
  6 16  1  0
  7 17  1  0
M  END
>  <UniqueID>  (46) 
44

>  <SMILES>  (46) 
NCCc1cccs1

>  <Energy>  (46) 
37.12659927203531

>  <Genealogy>  (46) 
NCCc1cccs1 (3D coordinates assigned)
NCCc1cccs1 (optimized conformer: 37.12659927203531 kcal/mol)

>  <smiles>  (46) 
NCCc1cccs1

>  <score_type>  (46) 
oracle

>  <origin>  (46) 
adg

>  <m_score__min__energy>  (46) 
-4.9299999999999997

>  <m_primary>  (46) 
energy

$$$$
46:0
     RDKit          3D

 40 41  0  0  0  0  0  0  0  0999 V2000
   57.4000   25.2140   43.8780 C   0  0  0  0  0  0  0  0  0  0  0  0
   56.2040   24.5050   44.4990 C   0  0  0  0  0  0  0  0  0  0  0  0
   55.5260   25.4580   45.8470 S   0  0  0  0  0  0  0  0  0  0  0  0
   55.7490   24.7060   47.1290 O   0  0  0  0  0  0  0  0  0  0  0  0
   54.0550   25.6670   45.6250 O   0  0  0  0  0  0  0  0  0  0  0  0
   56.3350   26.9880   45.9160 N   0  0  0  0  0  0  0  0  0  0  0  0
   57.6860   27.2060   46.3500 C   0  0  0  0  0  0  0  0  0  0  0  0
   58.2120   26.5290   47.4650 C   0  0  0  0  0  0  0  0  0  0  0  0
   59.5320   26.7440   47.8680 C   0  0  0  0  0  0  0  0  0  0  0  0
   60.3420   27.6350   47.1640 C   0  0  0  0  0  0  0  0  0  0  0  0
   59.8350   28.3170   46.0570 C   0  0  0  0  0  0  0  0  0  0  0  0
   58.5070   28.1160   45.6420 C   0  0  0  0  0  0  0  0  0  0  0  0
   58.0040   28.8700   44.4320 C   0  0  0  0  0  0  0  0  0  0  0  0
   57.0660   29.9380   44.8430 N   0  0  0  0  0  0  0  0  0  0  0  0
   57.7540   31.1670   45.3220 C   0  0  0  0  0  0  0  0  0  0  0  0
   57.6880   32.3550   44.3380 C   0  0  0  0  0  0  0  0  0  0  0  0
   57.7740   31.8770   42.8890 C   0  0  0  0  0  0  0  0  0  0  0  0
   56.6530   30.8780   42.5540 C   0  0  0  0  0  0  0  0  0  0  0  0
   56.0490   30.2110   43.8060 C   0  0  0  0  0  0  0  0  0  0  0  0
   58.0518   25.6004   44.6754 H   0  0  0  0  0  0  0  0  0  0  0  0
   57.9641   24.5043   43.2550 H   0  0  0  0  0  0  0  0  0  0  0  0
   57.0481   26.0495   43.2550 H   0  0  0  0  0  0  0  0  0  0  0  0
   55.4290   24.3664   43.7307 H   0  0  0  0  0  0  0  0  0  0  0  0
   56.5369   23.5321   44.8898 H   0  0  0  0  0  0  0  0  0  0  0  0
   57.5787   25.8245   48.0242 H   0  0  0  0  0  0  0  0  0  0  0  0
   59.9333   26.2099   48.7419 H   0  0  0  0  0  0  0  0  0  0  0  0
   61.3820   27.8004   47.4819 H   0  0  0  0  0  0  0  0  0  0  0  0
   60.4794   29.0171   45.5050 H   0  0  0  0  0  0  0  0  0  0  0  0
   58.8579   29.3206   43.9050 H   0  0  0  0  0  0  0  0  0  0  0  0
   57.4774   28.1687   43.7680 H   0  0  0  0  0  0  0  0  0  0  0  0
   57.2869   31.4769   46.2684 H   0  0  0  0  0  0  0  0  0  0  0  0
   58.8175   30.9096   45.4351 H   0  0  0  0  0  0  0  0  0  0  0  0
   56.7377   32.8895   44.4838 H   0  0  0  0  0  0  0  0  0  0  0  0
   58.5412   33.0202   44.5369 H   0  0  0  0  0  0  0  0  0  0  0  0
   57.6885   32.7465   42.2207 H   0  0  0  0  0  0  0  0  0  0  0  0
   58.7398   31.3688   42.7514 H   0  0  0  0  0  0  0  0  0  0  0  0
   55.8533   31.4136   42.0215 H   0  0  0  0  0  0  0  0  0  0  0  0
   57.0944   30.0818   41.9366 H   0  0  0  0  0  0  0  0  0  0  0  0
   55.2840   30.8791   44.2283 H   0  0  0  0  0  0  0  0  0  0  0  0
   55.6161   29.2478   43.4980 H   0  0  0  0  0  0  0  0  0  0  0  0
  1  2  1  0
  2  3  1  0
  3  4  2  0
  3  5  2  0
  3  6  1  0
  6  7  1  0
  7  8  2  0
  8  9  1  0
  9 10  2  0
 10 11  1  0
 11 12  2  0
 12 13  1  0
 13 14  1  0
 14 15  1  0
 15 16  1  0
 16 17  1  0
 17 18  1  0
 18 19  1  0
 12  7  1  0
 19 14  1  0
  1 20  1  0
  1 21  1  0
  1 22  1  0
  2 23  1  0
  2 24  1  0
  8 25  1  0
  9 26  1  0
 10 27  1  0
 11 28  1  0
 13 29  1  0
 13 30  1  0
 15 31  1  0
 15 32  1  0
 16 33  1  0
 16 34  1  0
 17 35  1  0
 17 36  1  0
 18 37  1  0
 18 38  1  0
 19 39  1  0
 19 40  1  0
M  CHG  1   6  -1
M  END
>  <UniqueID>  (47) 
45

>  <SMILES>  (47) 
CCS(=O)(=O)[N-]c1ccccc1CN1CCCCC1

>  <Energy>  (47) 
43.19082523833897

>  <Genealogy>  (47) 
CCS(=O)(=O)[N-]c1ccccc1CN1CCCCC1 (protonated)
CCS(=O)(=O)[N-]c1ccccc1CN1CCCCC1 (3D coordinates assigned)
CCS(=O)(=O)[N-]c1ccccc1CN1CCCCC1 (nonaromatic ring conformer: 43.19082523833897 kcal/mol)

>  <smiles>  (47) 
CCS(=O)(=O)Nc1ccccc1CN1CCCCC1

>  <score_type>  (47) 
oracle

>  <origin>  (47) 
adg

>  <m_score__min__energy>  (47) 
-9.1400000000000006

>  <m_primary>  (47) 
energy

$$$$
47:0
     RDKit          3D

 30 31  0  0  0  0  0  0  0  0999 V2000
   59.0088   35.0117   44.1550 H   0  0  0  0  0  0  0  0  0  0  0  0
   58.7430   34.2320   44.8840 C   0  0  0  0  0  0  0  0  0  0  0  0
   58.9600   34.5000   46.1820 C   0  0  0  0  0  0  0  0  0  0  0  0
   58.1719   35.0439   46.7233 H   0  0  0  0  0  0  0  0  0  0  0  0
   60.1690   34.1250   46.9430 C   0  0  0  0  0  0  0  0  0  0  0  0
   60.3620   34.1820   48.3160 C   0  0  0  0  0  0  0  0  0  0  0  0
   59.6123   34.4428   49.0776 H   0  0  0  0  0  0  0  0  0  0  0  0
   61.6830   33.8460   48.5350 C   0  0  0  0  0  0  0  0  0  0  0  0
   62.1673   33.7927   49.5212 H   0  0  0  0  0  0  0  0  0  0  0  0
   62.2900   33.5930   47.3580 N   0  0  0  0  0  0  0  0  0  0  0  0
   63.7070   33.3090   47.1690 C   0  0  0  0  0  0  0  0  0  0  0  0
   64.1953   33.2111   48.1498 H   0  0  0  0  0  0  0  0  0  0  0  0
   63.8211   32.3701   46.6073 H   0  0  0  0  0  0  0  0  0  0  0  0
   64.1741   34.1314   46.6073 H   0  0  0  0  0  0  0  0  0  0  0  0
   61.3840   33.7880   46.3820 C   0  0  0  0  0  0  0  0  0  0  0  0
   61.5814   33.6934   45.3040 H   0  0  0  0  0  0  0  0  0  0  0  0
   58.1760   32.9740   44.3570 C   0  0  0  0  0  0  0  0  0  0  0  0
   58.1220   32.7190   42.9750 C   0  0  0  0  0  0  0  0  0  0  0  0
   58.5333   33.4529   42.2663 H   0  0  0  0  0  0  0  0  0  0  0  0
   57.5480   31.5370   42.4980 C   0  0  0  0  0  0  0  0  0  0  0  0
   57.5168   31.3414   41.4160 H   0  0  0  0  0  0  0  0  0  0  0  0
   57.0120   30.6000   43.3920 C   0  0  0  0  0  0  0  0  0  0  0  0
   56.3600   29.3510   42.8770 C   0  0  0  0  0  0  0  0  0  0  0  0
   56.0359   28.7301   43.7252 H   0  0  0  0  0  0  0  0  0  0  0  0
   55.4868   29.6191   42.2641 H   0  0  0  0  0  0  0  0  0  0  0  0
   57.0792   28.7879   42.2641 H   0  0  0  0  0  0  0  0  0  0  0  0
   57.0200   30.8770   44.7680 C   0  0  0  0  0  0  0  0  0  0  0  0
   56.5722   30.1615   45.4734 H   0  0  0  0  0  0  0  0  0  0  0  0
   57.5950   32.0590   45.2460 C   0  0  0  0  0  0  0  0  0  0  0  0
   57.5913   32.2717   46.3252 H   0  0  0  0  0  0  0  0  0  0  0  0
  1  2  1  0
  2  3  2  0
  3  4  1  0
  3  5  1  0
  5  6  1  0
  6  7  1  0
  6  8  2  0
  8  9  1  0
  8 10  1  0
 10 11  1  0
 11 12  1  0
 11 13  1  0
 11 14  1  0
 10 15  1  0
 15 16  1  0
  2 17  1  0
 17 18  2  0
 18 19  1  0
 18 20  1  0
 20 21  1  0
 20 22  2  0
 22 23  1  0
 23 24  1  0
 23 25  1  0
 23 26  1  0
 22 27  1  0
 27 28  1  0
 27 29  2  0
 29 30  1  0
 15  5  2  0
 29 17  1  0
M  END
>  <UniqueID>  (48) 
46

>  <SMILES>  (48) 
Cc1ccc(/C=C\c2ccn(C)c2)cc1

>  <Energy>  (48) 
62.03191725126133

>  <Genealogy>  (48) 
Cc1ccc(/C=C\c2ccn(C)c2)cc1 (cis-trans isomerization)
Cc1ccc(/C=C\c2ccn(C)c2)cc1 (3D coordinates assigned)
Cc1ccc(/C=C\c2ccn(C)c2)cc1 (optimized conformer: 62.03191725126133 kcal/mol)

>  <smiles>  (48) 
Cc1ccc(C=Cc2ccn(C)c2)cc1

>  <score_type>  (48) 
oracle

>  <origin>  (48) 
adg

>  <m_score__min__energy>  (48) 
-6.1299999999999999

>  <m_primary>  (48) 
energy

$$$$
