0:0
     RDKit          3D

 30 31  0  0  0  0  0  0  0  0999 V2000
   60.2930   26.7570   46.6370 C   0  0  0  0  0  0  0  0  0  0  0  0
   60.4930   27.8100   45.7000 O   0  0  0  0  0  0  0  0  0  0  0  0
   59.6510   28.9230   45.5410 C   0  0  0  0  0  0  0  0  0  0  0  0
   60.0370   30.1890   46.0150 C   0  0  0  0  0  0  0  0  0  0  0  0
   59.2110   31.3040   45.8500 C   0  0  0  0  0  0  0  0  0  0  0  0
   59.6280   32.5620   46.3200 C   0  0  0  0  0  0  0  0  0  0  0  0
   58.8230   33.6990   46.1400 C   0  0  0  0  0  0  0  0  0  0  0  0
   59.2520   34.9870   46.6210 N   0  0  0  0  0  0  0  0  0  0  0  0
   59.2720   35.2360   47.8440 O   0  0  0  0  0  0  0  0  0  0  0  0
   59.6470   35.9660   45.7390 O   0  0  0  0  0  0  0  0  0  0  0  0
   57.5970   33.5640   45.4750 C   0  0  0  0  0  0  0  0  0  0  0  0
   57.1720   32.3190   45.0070 C   0  0  0  0  0  0  0  0  0  0  0  0
   57.9630   31.1690   45.2010 C   0  0  0  0  0  0  0  0  0  0  0  0
   57.5530   29.8960   44.7400 C   0  0  0  0  0  0  0  0  0  0  0  0
   56.2710   29.7190   44.1170 N   0  0  0  0  0  0  0  0  0  0  0  0
   56.1030   30.0520   42.9260 O   0  0  0  0  0  0  0  0  0  0  0  0
   55.1800   29.3530   44.8710 O   0  0  0  0  0  0  0  0  0  0  0  0
   58.3940   28.7740   44.9010 C   0  0  0  0  0  0  0  0  0  0  0  0
   57.9120   27.5400   44.4210 O   0  0  0  0  0  0  0  0  0  0  0  0
   58.1370   26.9760   43.1330 C   0  0  0  0  0  0  0  0  0  0  0  0
   60.3689   27.1564   47.6591 H   0  0  0  0  0  0  0  0  0  0  0  0
   59.2954   26.3181   46.4879 H   0  0  0  0  0  0  0  0  0  0  0  0
   61.0602   25.9829   46.4879 H   0  0  0  0  0  0  0  0  0  0  0  0
   61.0053   30.3038   46.5242 H   0  0  0  0  0  0  0  0  0  0  0  0
   60.5956   32.6568   46.8345 H   0  0  0  0  0  0  0  0  0  0  0  0
   56.9622   34.4489   45.3199 H   0  0  0  0  0  0  0  0  0  0  0  0
   56.2094   32.2350   44.4813 H   0  0  0  0  0  0  0  0  0  0  0  0
   58.5425   25.9595   43.2436 H   0  0  0  0  0  0  0  0  0  0  0  0
   57.1869   26.9336   42.5802 H   0  0  0  0  0  0  0  0  0  0  0  0
   58.8554   27.5992   42.5802 H   0  0  0  0  0  0  0  0  0  0  0  0
  1  2  1  0
  2  3  1  0
  3  4  2  0
  4  5  1  0
  5  6  2  0
  6  7  1  0
  7  8  1  0
  8  9  2  0
  8 10  1  0
  7 11  2  0
 11 12  1  0
 12 13  2  0
 13 14  1  0
 14 15  1  0
 15 16  2  0
 15 17  1  0
 14 18  2  0
 18 19  1  0
 19 20  1  0
 18  3  1  0
 13  5  1  0
  1 21  1  0
  1 22  1  0
  1 23  1  0
  4 24  1  0
  6 25  1  0
 11 26  1  0
 12 27  1  0
 20 28  1  0
 20 29  1  0
 20 30  1  0
M  CHG  4   8   1  10  -1  15   1  17  -1
M  END
>  <UniqueID>  (1) 
1

>  <SMILES>  (1) 
COc1cc2cc([N+](=O)[O-])ccc2c([N+](=O)[O-])c1OC

>  <Energy>  (1) 
45.1902150873799

>  <Genealogy>  (1) 
COc1cc2cc([N+](=O)[O-])ccc2c([N+](=O)[O-])c1OC (3D coordinates assigned)
COc1cc2cc([N+](=O)[O-])ccc2c([N+](=O)[O-])c1OC (optimized conformer: 45.1902150873799 kcal/mol)

>  <smiles>  (1) 
COc1cc2cc([N+](=O)[O-])ccc2c([N+](=O)[O-])c1OC

>  <score_type>  (1) 
oracle

>  <origin>  (1) 
adg

>  <m_score__min__energy>  (1) 
-6.6100000000000003

>  <m_primary>  (1) 
energy

$$$$
1:0
     RDKit          3D

 56 59  0  0  0  0  0  0  0  0999 V2000
   52.5680   23.3750   45.6350 C   0  0  0  0  0  0  0  0  0  0  0  0
   53.9300   23.9270   45.3600 C   0  0  0  0  0  0  0  0  0  0  0  0
   54.8030   23.2580   44.4980 C   0  0  0  0  0  0  0  0  0  0  0  0
   56.0870   23.7740   44.2580 C   0  0  0  0  0  0  0  0  0  0  0  0
   57.0120   23.0140   43.3440 C   0  0  0  0  0  0  0  0  0  0  0  0
   56.4780   24.9810   44.8940 C   0  0  0  0  0  0  0  0  0  0  0  0
   57.8410   25.6100   44.6730 C   0  0  0  0  0  0  0  0  0  0  0  0
   57.8720   26.9700   45.2060 N   0  0  0  0  0  0  0  0  0  0  0  0
   57.7260   28.1330   44.3730 C   0  0  0  0  0  0  0  0  0  0  0  0
   57.6880   28.0000   43.1190 O   0  0  0  0  0  0  0  0  0  0  0  0
   57.6280   29.5210   44.9960 C   0  0  1  0  0  0  0  0  0  0  0  0
   57.3890   29.4370   46.4460 N   0  0  0  0  0  0  0  0  0  0  0  0
   58.9020   30.3400   44.7380 C   0  0  0  0  0  0  0  0  0  0  0  0
   58.4610   31.5230   43.8910 C   0  0  0  0  0  0  0  0  0  0  0  0
   57.0130   31.6970   44.0760 N   0  0  0  0  0  0  0  0  0  0  0  0
   56.7120   32.6110   45.2010 C   0  0  0  0  0  0  0  0  0  0  0  0
   57.9500   33.3780   45.6050 C   0  0  0  0  0  0  0  0  0  0  0  0
   58.3270   34.5260   44.8870 C   0  0  0  0  0  0  0  0  0  0  0  0
   59.4630   35.2520   45.2540 C   0  0  0  0  0  0  0  0  0  0  0  0
   60.2380   34.8480   46.3420 C   0  0  0  0  0  0  0  0  0  0  0  0
   59.8800   33.7070   47.0730 C   0  0  0  0  0  0  0  0  0  0  0  0
   60.6420   33.2820   48.1690 C   0  0  0  0  0  0  0  0  0  0  0  0
   60.2620   32.1420   48.8790 C   0  0  0  0  0  0  0  0  0  0  0  0
   59.1230   31.4360   48.4870 C   0  0  0  0  0  0  0  0  0  0  0  0
   58.3910   31.8570   47.4220 N   0  0  0  0  0  0  0  0  0  0  0  0
   58.7320   32.9660   46.7050 C   0  0  0  0  0  0  0  0  0  0  0  0
   56.5010   30.3440   44.3390 C   0  0  0  0  0  0  0  0  0  0  0  0
   55.5660   25.6010   45.7750 C   0  0  0  0  0  0  0  0  0  0  0  0
   55.8790   26.6570   46.3860 O   0  0  0  0  0  0  0  0  0  0  0  0
   54.3350   25.0650   45.9780 N   0  0  0  0  0  0  0  0  0  0  0  0
   52.4108   23.3113   46.7218 H   0  0  0  0  0  0  0  0  0  0  0  0
   51.8082   24.0362   45.1927 H   0  0  0  0  0  0  0  0  0  0  0  0
   52.4829   22.3714   45.1927 H   0  0  0  0  0  0  0  0  0  0  0  0
   54.4843   22.3266   44.0071 H   0  0  0  0  0  0  0  0  0  0  0  0
   57.7234   22.4295   43.9458 H   0  0  0  0  0  0  0  0  0  0  0  0
   56.4239   22.3348   42.7093 H   0  0  0  0  0  0  0  0  0  0  0  0
   57.5642   23.7227   42.7093 H   0  0  0  0  0  0  0  0  0  0  0  0
   58.6054   25.0046   45.1821 H   0  0  0  0  0  0  0  0  0  0  0  0
   58.0432   25.6478   43.5924 H   0  0  0  0  0  0  0  0  0  0  0  0
   57.9870   27.0910   46.2380 H   0  0  0  0  0  0  0  0  0  0  0  0
   58.2590   29.7150   46.9580 H   0  0  0  0  0  0  0  0  0  0  0  0
   57.1760   28.4470   46.7120 H   0  0  0  0  0  0  0  0  0  0  0  0
   59.3344   30.6875   45.6879 H   0  0  0  0  0  0  0  0  0  0  0  0
   59.6753   29.7427   44.2329 H   0  0  0  0  0  0  0  0  0  0  0  0
   58.9907   32.4315   44.2134 H   0  0  0  0  0  0  0  0  0  0  0  0
   58.6927   31.3425   42.8309 H   0  0  0  0  0  0  0  0  0  0  0  0
   55.9310   33.3211   44.8916 H   0  0  0  0  0  0  0  0  0  0  0  0
   56.3654   32.0168   46.0594 H   0  0  0  0  0  0  0  0  0  0  0  0
   57.7227   34.8556   44.0290 H   0  0  0  0  0  0  0  0  0  0  0  0
   59.7482   36.1473   44.6820 H   0  0  0  0  0  0  0  0  0  0  0  0
   61.1302   35.4253   46.6260 H   0  0  0  0  0  0  0  0  0  0  0  0
   61.5377   33.8454   48.4693 H   0  0  0  0  0  0  0  0  0  0  0  0
   60.8553   31.8024   49.7408 H   0  0  0  0  0  0  0  0  0  0  0  0
   58.8172   30.5366   49.0416 H   0  0  0  0  0  0  0  0  0  0  0  0
   55.6362   30.3984   45.0166 H   0  0  0  0  0  0  0  0  0  0  0  0
   56.1823   29.8692   43.3993 H   0  0  0  0  0  0  0  0  0  0  0  0
  1  2  1  0
  2  3  2  0
  3  4  1  0
  4  5  1  0
  4  6  2  0
  6  7  1  0
  7  8  1  0
  8  9  1  0
  9 10  2  0
  9 11  1  0
 11 12  1  1
 11 13  1  0
 13 14  1  0
 14 15  1  0
 15 16  1  0
 16 17  1  0
 17 18  2  0
 18 19  1  0
 19 20  2  0
 20 21  1  0
 21 22  2  0
 22 23  1  0
 23 24  2  0
 24 25  1  0
 25 26  2  0
 15 27  1  0
  6 28  1  0
 28 29  2  0
 28 30  1  0
 30  2  1  0
 27 11  1  0
 26 17  1  0
 26 21  1  0
  1 31  1  0
  1 32  1  0
  1 33  1  0
  3 34  1  0
  5 35  1  0
  5 36  1  0
  5 37  1  0
  7 38  1  0
  7 39  1  0
  8 40  1  0
 12 41  1  0
 12 42  1  0
 13 43  1  0
 13 44  1  0
 14 45  1  0
 14 46  1  0
 16 47  1  0
 16 48  1  0
 18 49  1  0
 19 50  1  0
 20 51  1  0
 22 52  1  0
 23 53  1  0
 24 54  1  0
 27 55  1  0
 27 56  1  0
M  CHG  1  30  -1
M  END
>  <UniqueID>  (2) 
2

>  <SMILES>  (2) 
Cc1cc(C)c(CNC(=O)[C@@]2(N)CCN(Cc3cccc4cccnc34)C2)c(=O)[n-]1

>  <Energy>  (2) 
69.0160917532662

>  <Genealogy>  (2) 
Cc1cc(C)c(CNC(=O)C2(N)CCN(Cc3cccc4cccnc34)C2)c(=O)[n-]1 (protonated)
Cc1cc(C)c(CNC(=O)[C@@]2(N)CCN(Cc3cccc4cccnc34)C2)c(=O)[n-]1 (chirality)
Cc1cc(C)c(CNC(=O)[C@@]2(N)CCN(Cc3cccc4cccnc34)C2)c(=O)[n-]1 (3D coordinates assigned)
Cc1cc(C)c(CNC(=O)[C@@]2(N)CCN(Cc3cccc4cccnc34)C2)c(=O)[n-]1 (nonaromatic ring conformer: 69.0160917532662 kcal/mol)

>  <smiles>  (2) 
Cc1cc(C)c(CNC(=O)C2(N)CCN(Cc3cccc4cccnc34)C2)c(=O)[nH]1

>  <score_type>  (2) 
oracle

>  <origin>  (2) 
adg

>  <m_score__min__energy>  (2) 
-11.109999999999999

>  <m_primary>  (2) 
energy

$$$$
2:0
     RDKit          3D

 77 77  0  0  0  0  0  0  0  0999 V2000
   58.6140   34.2400   46.2310 C   0  0  0  0  0  0  0  0  0  0  0  0
   57.9520   33.0700   45.6640 N   0  0  0  0  0  0  0  0  0  0  0  0
   58.0440   32.7590   44.2650 C   0  0  0  0  0  0  0  0  0  0  0  0
   58.7770   33.4550   43.5080 O   0  0  0  0  0  0  0  0  0  0  0  0
   57.3270   31.5750   43.6970 C   0  0  0  0  0  0  0  0  0  0  0  0
   56.5930   30.8800   44.7490 N   0  0  0  0  0  0  0  0  0  0  0  0
   56.6550   29.4720   45.0230 C   0  0  0  0  0  0  0  0  0  0  0  0
   55.5920   28.8060   44.9250 O   0  0  0  0  0  0  0  0  0  0  0  0
   57.9320   28.7840   45.4640 C   0  0  1  0  0  0  0  0  0  0  0  0
   58.1280   27.4440   44.7080 C   0  0  0  0  0  0  0  0  0  0  0  0
   58.1500   26.2010   45.6360 C   0  0  0  0  0  0  0  0  0  0  0  0
   57.7410   26.5570   47.0760 C   0  0  0  0  0  0  0  0  0  0  0  0
   57.2130   25.1190   45.0880 C   0  0  0  0  0  0  0  0  0  0  0  0
   59.0750   29.7360   45.4220 N   0  0  0  0  0  0  0  0  0  0  0  0
   59.6270   30.2500   46.6900 C   0  0  0  0  0  0  0  0  0  0  0  0
   59.3000   29.3460   47.8820 C   0  0  0  0  0  0  0  0  0  0  0  0
   59.8060   29.9330   49.1170 N   0  0  0  0  0  0  0  0  0  0  0  0
   59.2030   29.7340   50.4000 C   0  0  0  0  0  0  0  0  0  0  0  0
   59.3940   28.6510   51.0230 O   0  0  0  0  0  0  0  0  0  0  0  0
   58.3140   30.8110   50.9760 C   0  0  1  0  0  0  0  0  0  0  0  0
   58.2120   32.0390   50.0500 C   0  0  0  0  0  0  0  0  0  0  0  0
   59.3710   33.0170   50.2770 C   0  0  0  0  0  0  0  0  0  0  0  0
   60.6750   32.7540   49.0870 S   0  0  0  0  0  0  0  0  0  0  0  0
   61.5860   34.2430   48.7490 C   0  0  0  0  0  0  0  0  0  0  0  0
   61.7140   31.5350   49.6020 O   0  0  0  0  0  0  0  0  0  0  0  0
   56.9740   30.2720   51.2110 N   0  0  0  0  0  0  0  0  0  0  0  0
   56.2240   30.4720   52.4150 C   0  0  0  0  0  0  0  0  0  0  0  0
   55.7910   31.6200   52.7100 O   0  0  0  0  0  0  0  0  0  0  0  0
   55.8900   29.3050   53.3040 C   0  0  2  0  0  0  0  0  0  0  0  0
   56.9520   28.2940   53.2380 N   0  0  0  0  0  0  0  0  0  0  0  0
   54.5420   28.7030   52.8640 C   0  0  0  0  0  0  0  0  0  0  0  0
   53.5260   29.7670   52.5340 C   0  0  0  0  0  0  0  0  0  0  0  0
   52.7540   30.3470   53.5550 C   0  0  0  0  0  0  0  0  0  0  0  0
   51.8030   31.3250   53.2490 C   0  0  0  0  0  0  0  0  0  0  0  0
   51.6160   31.7320   51.9250 C   0  0  0  0  0  0  0  0  0  0  0  0
   50.6740   32.7080   51.6230 O   0  0  0  0  0  0  0  0  0  0  0  0
   52.3770   31.1570   50.9020 C   0  0  0  0  0  0  0  0  0  0  0  0
   53.3260   30.1750   51.2040 C   0  0  0  0  0  0  0  0  0  0  0  0
   58.5819   34.1833   47.3291 H   0  0  0  0  0  0  0  0  0  0  0  0
   59.6613   34.2671   45.8957 H   0  0  0  0  0  0  0  0  0  0  0  0
   58.0979   35.1517   45.8957 H   0  0  0  0  0  0  0  0  0  0  0  0
   57.3820   32.4630   46.2950 H   0  0  0  0  0  0  0  0  0  0  0  0
   56.6214   31.9136   42.9241 H   0  0  0  0  0  0  0  0  0  0  0  0
   58.0630   30.8861   43.2567 H   0  0  0  0  0  0  0  0  0  0  0  0
   57.8637   28.4835   46.5199 H   0  0  0  0  0  0  0  0  0  0  0  0
   57.3030   27.3266   43.9900 H   0  0  0  0  0  0  0  0  0  0  0  0
   59.1100   27.4941   44.2150 H   0  0  0  0  0  0  0  0  0  0  0  0
   59.1826   25.8226   45.6590 H   0  0  0  0  0  0  0  0  0  0  0  0
   58.3756   26.0046   47.7846 H   0  0  0  0  0  0  0  0  0  0  0  0
   57.8672   27.6379   47.2364 H   0  0  0  0  0  0  0  0  0  0  0  0
   56.6878   26.2830   47.2364 H   0  0  0  0  0  0  0  0  0  0  0  0
   56.7461   24.5798   45.9254 H   0  0  0  0  0  0  0  0  0  0  0  0
   56.4313   25.5883   44.4726 H   0  0  0  0  0  0  0  0  0  0  0  0
   57.7892   24.4123   44.4726 H   0  0  0  0  0  0  0  0  0  0  0  0
   58.7840   30.5670   44.8530 H   0  0  0  0  0  0  0  0  0  0  0  0
   60.7202   30.3252   46.5939 H   0  0  0  0  0  0  0  0  0  0  0  0
   59.1688   31.2318   46.8800 H   0  0  0  0  0  0  0  0  0  0  0  0
   58.2092   29.2260   47.9577 H   0  0  0  0  0  0  0  0  0  0  0  0
   59.7776   28.3668   47.7297 H   0  0  0  0  0  0  0  0  0  0  0  0
   58.7675   31.1391   51.9230 H   0  0  0  0  0  0  0  0  0  0  0  0
   58.2315   31.6995   49.0039 H   0  0  0  0  0  0  0  0  0  0  0  0
   57.2715   32.5626   50.2765 H   0  0  0  0  0  0  0  0  0  0  0  0
   58.9969   34.0467   50.1785 H   0  0  0  0  0  0  0  0  0  0  0  0
   59.7782   32.8487   51.2849 H   0  0  0  0  0  0  0  0  0  0  0  0
   61.8768   34.7182   49.6975 H   0  0  0  0  0  0  0  0  0  0  0  0
   62.4886   33.9972   48.1702 H   0  0  0  0  0  0  0  0  0  0  0  0
   60.9563   34.9347   48.1702 H   0  0  0  0  0  0  0  0  0  0  0  0
   61.1770   30.7060   49.5340 H   0  0  0  0  0  0  0  0  0  0  0  0
   55.8103   29.6487   54.3459 H   0  0  0  0  0  0  0  0  0  0  0  0
   57.5420   28.3820   54.0980 H   0  0  0  0  0  0  0  0  0  0  0  0
   57.5860   28.5360   52.4410 H   0  0  0  0  0  0  0  0  0  0  0  0
   54.7059   28.0804   51.9721 H   0  0  0  0  0  0  0  0  0  0  0  0
   54.1484   28.1067   53.7004 H   0  0  0  0  0  0  0  0  0  0  0  0
   52.8985   30.0304   54.5985 H   0  0  0  0  0  0  0  0  0  0  0  0
   51.2007   31.7751   54.0519 H   0  0  0  0  0  0  0  0  0  0  0  0
   52.2291   31.4771   49.8600 H   0  0  0  0  0  0  0  0  0  0  0  0
   53.9186   29.7198   50.3968 H   0  0  0  0  0  0  0  0  0  0  0  0
  1  2  1  0
  2  3  1  0
  3  4  2  0
  3  5  1  0
  5  6  1  0
  6  7  1  0
  7  8  2  0
  7  9  1  0
  9 10  1  0
 10 11  1  0
 11 12  1  0
 11 13  1  0
  9 14  1  0
 14 15  1  0
 15 16  1  0
 16 17  1  0
 17 18  1  0
 18 19  2  0
 18 20  1  0
 20 21  1  0
 21 22  1  0
 22 23  1  0
 23 24  1  0
 23 25  1  1
 20 26  1  0
 26 27  1  0
 27 28  2  0
 27 29  1  0
 29 30  1  0
 29 31  1  0
 31 32  1  0
 32 33  2  0
 33 34  1  0
 34 35  2  0
 35 36  1  0
 35 37  1  0
 37 38  2  0
 38 32  1  0
  1 39  1  0
  1 40  1  0
  1 41  1  0
  2 42  1  0
  5 43  1  0
  5 44  1  0
  9 45  1  1
 10 46  1  0
 10 47  1  0
 11 48  1  0
 12 49  1  0
 12 50  1  0
 12 51  1  0
 13 52  1  0
 13 53  1  0
 13 54  1  0
 14 55  1  0
 15 56  1  0
 15 57  1  0
 16 58  1  0
 16 59  1  0
 20 60  1  1
 21 61  1  0
 21 62  1  0
 22 63  1  0
 22 64  1  0
 24 65  1  0
 24 66  1  0
 24 67  1  0
 25 68  1  0
 29 69  1  1
 30 70  1  0
 30 71  1  0
 31 72  1  0
 31 73  1  0
 33 74  1  0
 34 75  1  0
 37 76  1  0
 38 77  1  0
M  CHG  5   6  -1  17  -1  23   1  26  -1  36  -1
M  END
>  <UniqueID>  (3) 
3

>  <SMILES>  (3) 
CNC(=O)C[N-]C(=O)[C@@H](CC(C)C)NCC[N-]C(=O)[C@@H](CC[S+](C)O)[N-]C(=O)C(N)Cc1ccc([O-])cc1

>  <Energy>  (3) 
55.237613276726414

>  <Genealogy>  (3) 
CNC(=O)C[N-]C(=O)C(CC(C)C)NCC[N-]C(=O)C(CC[S+](C)O)[N-]C(=O)C(N)Cc1ccc([O-])cc1 (protonated)
CNC(=O)C[N-]C(=O)[C@@H](CC(C)C)NCC[N-]C(=O)[C@@H](CC[S+](C)O)[N-]C(=O)C(N)Cc1ccc([O-])cc1 (chirality)
CNC(=O)C[N-]C(=O)[C@@H](CC(C)C)NCC[N-]C(=O)[C@@H](CC[S+](C)O)[N-]C(=O)C(N)Cc1ccc([O-])cc1 (3D coordinates assigned)
CNC(=O)C[N-]C(=O)[C@@H](CC(C)C)NCC[N-]C(=O)[C@@H](CC[S+](C)O)[N-]C(=O)C(N)Cc1ccc([O-])cc1 (optimized conformer: 55.237613276726414 kcal/mol)

>  <smiles>  (3) 
CNC(=O)CNC(=O)C(CC(C)C)NCCNC(=O)C(CC[S+](C)[O-])NC(=O)C(N)Cc1ccc(O)cc1

>  <score_type>  (3) 
oracle

>  <origin>  (3) 
adg

>  <m_score__min__energy>  (3) 
-13.550000000000001

>  <m_primary>  (3) 
energy

$$$$
3:0
     RDKit          3D

 50 53  0  0  0  0  0  0  0  0999 V2000
   58.5950   27.8080   47.3830 C   0  0  0  0  0  0  0  0  0  0  0  0
   58.3840   27.4700   45.8880 C   0  0  0  0  0  0  0  0  0  0  0  0
   58.3240   25.9350   45.7490 C   0  0  0  0  0  0  0  0  0  0  0  0
   59.5870   27.9960   45.0530 C   0  0  0  0  0  0  0  0  0  0  0  0
   59.6860   29.5300   45.0850 C   0  0  0  0  0  0  0  0  0  0  0  0
   58.3580   30.1550   45.0420 N   0  0  0  0  0  0  0  0  0  0  0  0
   58.2200   31.5440   45.3980 C   0  0  0  0  0  0  0  0  0  0  0  0
   59.3160   32.2840   45.8630 C   0  0  0  0  0  0  0  0  0  0  0  0
   59.1300   33.6350   46.1910 C   0  0  0  0  0  0  0  0  0  0  0  0
   60.1830   34.4350   46.6580 O   0  0  0  0  0  0  0  0  0  0  0  0
   61.2900   33.9760   47.3870 C   0  0  0  0  0  0  0  0  0  0  0  0
   61.2230   33.9750   48.7830 C   0  0  0  0  0  0  0  0  0  0  0  0
   62.3010   33.5180   49.5450 C   0  0  0  0  0  0  0  0  0  0  0  0
   63.4670   33.0380   48.9210 C   0  0  0  0  0  0  0  0  0  0  0  0
   64.5810   32.5680   49.7070 N   0  0  0  0  0  0  0  0  0  0  0  0
   65.8310   33.0780   49.7420 C   0  0  0  0  0  0  0  0  0  0  0  0
   66.5820   32.3320   50.6240 C   0  0  0  0  0  0  0  0  0  0  0  0
   65.8030   31.3620   51.1370 N   0  0  0  0  0  0  0  0  0  0  0  0
   64.5950   31.5250   50.5670 C   0  0  0  0  0  0  0  0  0  0  0  0
   63.5220   33.0190   47.5150 C   0  0  0  0  0  0  0  0  0  0  0  0
   62.4430   33.4780   46.7560 C   0  0  0  0  0  0  0  0  0  0  0  0
   57.9090   34.2020   46.0080 N   0  0  0  0  0  0  0  0  0  0  0  0
   56.8610   33.4790   45.5350 C   0  0  0  0  0  0  0  0  0  0  0  0
   57.0200   32.1650   45.2340 N   0  0  0  0  0  0  0  0  0  0  0  0
   57.2190   29.3710   44.5480 C   0  0  0  0  0  0  0  0  0  0  0  0
   57.0380   28.0940   45.3860 C   0  0  0  0  0  0  0  0  0  0  0  0
   58.1143   27.0380   48.0044 H   0  0  0  0  0  0  0  0  0  0  0  0
   59.6722   27.8375   47.6038 H   0  0  0  0  0  0  0  0  0  0  0  0
   58.1485   28.7888   47.6038 H   0  0  0  0  0  0  0  0  0  0  0  0
   58.3061   25.4767   46.7488 H   0  0  0  0  0  0  0  0  0  0  0  0
   57.4141   25.6519   45.1995 H   0  0  0  0  0  0  0  0  0  0  0  0
   59.2090   25.5817   45.1995 H   0  0  0  0  0  0  0  0  0  0  0  0
   60.5156   27.5719   45.4627 H   0  0  0  0  0  0  0  0  0  0  0  0
   59.4348   27.6879   44.0081 H   0  0  0  0  0  0  0  0  0  0  0  0
   60.1956   29.8363   46.0105 H   0  0  0  0  0  0  0  0  0  0  0  0
   60.2512   29.8583   44.2003 H   0  0  0  0  0  0  0  0  0  0  0  0
   60.3046   31.8134   45.9688 H   0  0  0  0  0  0  0  0  0  0  0  0
   60.3141   34.3370   49.2858 H   0  0  0  0  0  0  0  0  0  0  0  0
   62.2376   33.5336   50.6431 H   0  0  0  0  0  0  0  0  0  0  0  0
   66.1890   33.9428   49.1641 H   0  0  0  0  0  0  0  0  0  0  0  0
   67.6412   32.5011   50.8680 H   0  0  0  0  0  0  0  0  0  0  0  0
   66.0770   30.6370   51.8350 H   0  0  0  0  0  0  0  0  0  0  0  0
   63.7239   30.8865   50.7757 H   0  0  0  0  0  0  0  0  0  0  0  0
   64.4222   32.6395   47.0095 H   0  0  0  0  0  0  0  0  0  0  0  0
   62.4959   33.4496   45.6576 H   0  0  0  0  0  0  0  0  0  0  0  0
   55.8813   33.9593   45.3956 H   0  0  0  0  0  0  0  0  0  0  0  0
   56.3051   29.9796   44.6142 H   0  0  0  0  0  0  0  0  0  0  0  0
   57.4108   29.0858   43.5031 H   0  0  0  0  0  0  0  0  0  0  0  0
   56.4214   28.3396   46.2632 H   0  0  0  0  0  0  0  0  0  0  0  0
   56.5632   27.3472   44.7326 H   0  0  0  0  0  0  0  0  0  0  0  0
  1  2  1  0
  2  3  1  0
  2  4  1  0
  4  5  1  0
  5  6  1  0
  6  7  1  0
  7  8  2  0
  8  9  1  0
  9 10  1  0
 10 11  1  0
 11 12  2  0
 12 13  1  0
 13 14  2  0
 14 15  1  0
 15 16  1  0
 16 17  2  0
 17 18  1  0
 18 19  2  0
 14 20  1  0
 20 21  2  0
  9 22  2  0
 22 23  1  0
 23 24  2  0
  6 25  1  0
 25 26  1  0
 26  2  1  0
 24  7  1  0
 21 11  1  0
 19 15  1  0
  1 27  1  0
  1 28  1  0
  1 29  1  0
  3 30  1  0
  3 31  1  0
  3 32  1  0
  4 33  1  0
  4 34  1  0
  5 35  1  0
  5 36  1  0
  8 37  1  0
 12 38  1  0
 13 39  1  0
 16 40  1  0
 17 41  1  0
 18 42  1  0
 19 43  1  0
 20 44  1  0
 21 45  1  0
 23 46  1  0
 25 47  1  0
 25 48  1  0
 26 49  1  0
 26 50  1  0
M  CHG  1  18   1
M  END
>  <UniqueID>  (4) 
4

>  <SMILES>  (4) 
CC1(C)CCN(c2cc(Oc3ccc(-n4cc[nH+]c4)cc3)ncn2)CC1

>  <Energy>  (4) 
98.40492514814993

>  <Genealogy>  (4) 
CC1(C)CCN(c2cc(Oc3ccc(-n4cc[nH+]c4)cc3)ncn2)CC1 (protonated)
CC1(C)CCN(c2cc(Oc3ccc(-n4cc[nH+]c4)cc3)ncn2)CC1 (3D coordinates assigned)
CC1(C)CCN(c2cc(Oc3ccc(-n4cc[nH+]c4)cc3)ncn2)CC1 (nonaromatic ring conformer: 98.40492514814993 kcal/mol)

>  <smiles>  (4) 
CC1(C)CCN(c2cc(Oc3ccc(-n4ccnc4)cc3)ncn2)CC1

>  <score_type>  (4) 
oracle

>  <origin>  (4) 
adg

>  <m_score__min__energy>  (4) 
-6.5700000000000003

>  <m_primary>  (4) 
energy

$$$$
4:0
     RDKit          3D

 39 41  0  0  0  0  0  0  0  0999 V2000
   58.7050   32.8020   48.7290 C   0  0  0  0  0  0  0  0  0  0  0  0
   58.1610   32.6600   47.3420 C   0  0  0  0  0  0  0  0  0  0  0  0
   57.0990   33.3410   46.8760 N   0  0  0  0  0  0  0  0  0  0  0  0
   56.9380   33.0340   45.5990 N   0  0  0  0  0  0  0  0  0  0  0  0
   57.9160   32.1560   45.3000 C   0  0  0  0  0  0  0  0  0  0  0  0
   58.1390   31.4480   43.6640 S   0  0  0  0  0  0  0  0  0  0  0  0
   56.4250   30.8350   43.5280 C   0  0  0  0  0  0  0  0  0  0  0  0
   56.2440   29.5680   44.3010 C   0  0  0  0  0  0  0  0  0  0  0  0
   55.1530   29.3490   44.8900 O   0  0  0  0  0  0  0  0  0  0  0  0
   57.3000   28.5980   44.3190 N   0  0  0  0  0  0  0  0  0  0  0  0
   58.1450   28.2630   45.4310 C   0  0  0  0  0  0  0  0  0  0  0  0
   59.2820   27.4430   45.2920 C   0  0  0  0  0  0  0  0  0  0  0  0
   60.0550   27.1160   46.4100 C   0  0  0  0  0  0  0  0  0  0  0  0
   59.6980   27.5940   47.6740 C   0  0  0  0  0  0  0  0  0  0  0  0
   60.7540   27.1440   49.2000 Br  0  0  0  0  0  0  0  0  0  0  0  0
   58.5600   28.3920   47.8220 C   0  0  0  0  0  0  0  0  0  0  0  0
   57.7830   28.7180   46.7060 C   0  0  0  0  0  0  0  0  0  0  0  0
   58.7020   31.8980   46.3690 N   0  0  0  0  0  0  0  0  0  0  0  0
   59.9430   31.1210   46.4130 C   0  0  0  0  0  0  0  0  0  0  0  0
   61.0890   32.0030   46.7880 C   0  0  0  0  0  0  0  0  0  0  0  0
   62.2280   31.6070   47.4600 C   0  0  0  0  0  0  0  0  0  0  0  0
   63.0100   32.7370   47.5590 C   0  0  0  0  0  0  0  0  0  0  0  0
   62.3050   33.7490   46.9390 C   0  0  0  0  0  0  0  0  0  0  0  0
   61.1630   33.2800   46.4880 O   0  0  0  0  0  0  0  0  0  0  0  0
   57.9083   32.5940   49.4584 H   0  0  0  0  0  0  0  0  0  0  0  0
   59.5301   32.0891   48.8740 H   0  0  0  0  0  0  0  0  0  0  0  0
   59.0764   33.8272   48.8740 H   0  0  0  0  0  0  0  0  0  0  0  0
   56.5010   34.0150   47.4030 H   0  0  0  0  0  0  0  0  0  0  0  0
   55.7381   31.5981   43.9228 H   0  0  0  0  0  0  0  0  0  0  0  0
   56.2094   30.6320   42.4686 H   0  0  0  0  0  0  0  0  0  0  0  0
   59.5626   27.0586   44.3003 H   0  0  0  0  0  0  0  0  0  0  0  0
   60.9460   26.4813   46.2947 H   0  0  0  0  0  0  0  0  0  0  0  0
   58.2754   28.7639   48.8173 H   0  0  0  0  0  0  0  0  0  0  0  0
   56.8814   29.3359   46.8298 H   0  0  0  0  0  0  0  0  0  0  0  0
   59.8431   30.3180   47.1582 H   0  0  0  0  0  0  0  0  0  0  0  0
   60.1321   30.6887   45.4193 H   0  0  0  0  0  0  0  0  0  0  0  0
   62.4621   30.6006   47.8372 H   0  0  0  0  0  0  0  0  0  0  0  0
   63.9978   32.8168   48.0363 H   0  0  0  0  0  0  0  0  0  0  0  0
   62.6469   34.7896   46.8378 H   0  0  0  0  0  0  0  0  0  0  0  0
  1  2  1  0
  2  3  2  0
  3  4  1  0
  4  5  2  0
  5  6  1  0
  6  7  1  0
  7  8  1  0
  8  9  2  0
  8 10  1  0
 10 11  1  0
 11 12  2  0
 12 13  1  0
 13 14  2  0
 14 15  1  0
 14 16  1  0
 16 17  2  0
  5 18  1  0
 18 19  1  0
 19 20  1  0
 20 21  2  0
 21 22  1  0
 22 23  2  0
 23 24  1  0
 18  2  1  0
 24 20  1  0
 17 11  1  0
  1 25  1  0
  1 26  1  0
  1 27  1  0
  3 28  1  0
  7 29  1  0
  7 30  1  0
 12 31  1  0
 13 32  1  0
 16 33  1  0
 17 34  1  0
 19 35  1  0
 19 36  1  0
 21 37  1  0
 22 38  1  0
 23 39  1  0
M  CHG  2   3   1  10  -1
M  END
>  <UniqueID>  (5) 
5

>  <SMILES>  (5) 
Cc1[nH+]nc(SCC(=O)[N-]c2ccc(Br)cc2)n1Cc1ccco1

>  <Energy>  (5) 
95.63773708263562

>  <Genealogy>  (5) 
Cc1[nH+]nc(SCC(=O)[N-]c2ccc(Br)cc2)n1Cc1ccco1 (protonated)
Cc1[nH+]nc(SCC(=O)[N-]c2ccc(Br)cc2)n1Cc1ccco1 (3D coordinates assigned)
Cc1[nH+]nc(SCC(=O)[N-]c2ccc(Br)cc2)n1Cc1ccco1 (optimized conformer: 95.63773708263562 kcal/mol)

>  <smiles>  (5) 
Cc1nnc(SCC(=O)Nc2ccc(Br)cc2)n1Cc1ccco1

>  <score_type>  (5) 
oracle

>  <origin>  (5) 
adg

>  <m_score__min__energy>  (5) 
-8.2400000000000002

>  <m_primary>  (5) 
energy

$$$$
5:0
     RDKit          3D

 47 49  0  0  0  0  0  0  0  0999 V2000
   65.9530   33.1810   51.1750 C   0  0  0  0  0  0  0  0  0  0  0  0
   64.6550   33.1810   50.4210 C   0  0  0  0  0  0  0  0  0  0  0  0
   63.4410   33.2860   51.1100 C   0  0  0  0  0  0  0  0  0  0  0  0
   62.2220   33.3060   50.4160 C   0  0  0  0  0  0  0  0  0  0  0  0
   60.9410   33.4230   51.1990 C   0  0  0  0  0  0  0  0  0  0  0  0
   62.2240   33.2750   49.0030 C   0  0  0  0  0  0  0  0  0  0  0  0
   60.9850   33.3170   48.2750 N   0  0  0  0  0  0  0  0  0  0  0  0
   60.2800   34.5960   48.1250 C   0  0  0  0  0  0  0  0  0  0  0  0
   58.9100   34.4070   47.4660 C   0  0  0  0  0  0  0  0  0  0  0  0
   59.0180   33.5410   46.2800 N   0  0  0  0  0  0  0  0  0  0  0  0
   58.1600   33.7810   45.1430 C   0  0  0  0  0  0  0  0  0  0  0  0
   57.1520   34.5300   45.2710 O   0  0  0  0  0  0  0  0  0  0  0  0
   58.3990   33.0940   43.8210 C   0  0  0  0  0  0  0  0  0  0  0  0
   57.6210   31.8180   43.7130 C   0  0  0  0  0  0  0  0  0  0  0  0
   57.3430   30.9450   44.7580 C   0  0  0  0  0  0  0  0  0  0  0  0
   56.6470   29.8020   44.3460 C   0  0  0  0  0  0  0  0  0  0  0  0
   56.3890   29.7660   42.9820 C   0  0  0  0  0  0  0  0  0  0  0  0
   57.0270   31.1580   42.2860 S   0  0  0  0  0  0  0  0  0  0  0  0
   59.8680   32.3390   46.3220 C   0  0  0  0  0  0  0  0  0  0  0  0
   60.4220   32.0810   47.7270 C   0  0  0  0  0  0  0  0  0  0  0  0
   63.4500   33.1960   48.3040 C   0  0  0  0  0  0  0  0  0  0  0  0
   63.4820   33.1180   46.8010 C   0  0  0  0  0  0  0  0  0  0  0  0
   64.6540   33.1420   49.0220 C   0  0  0  0  0  0  0  0  0  0  0  0
   66.2701   32.1439   51.3592 H   0  0  0  0  0  0  0  0  0  0  0  0
   66.7212   33.6995   50.5826 H   0  0  0  0  0  0  0  0  0  0  0  0
   65.8189   33.6995   52.1358 H   0  0  0  0  0  0  0  0  0  0  0  0
   63.4429   33.3536   52.2079 H   0  0  0  0  0  0  0  0  0  0  0  0
   61.1661   33.4024   52.2755 H   0  0  0  0  0  0  0  0  0  0  0  0
   60.4423   34.3704   50.9467 H   0  0  0  0  0  0  0  0  0  0  0  0
   60.2789   32.5816   50.9467 H   0  0  0  0  0  0  0  0  0  0  0  0
   60.1397   35.0457   49.1190 H   0  0  0  0  0  0  0  0  0  0  0  0
   60.8856   35.2509   47.4813 H   0  0  0  0  0  0  0  0  0  0  0  0
   58.2221   33.9447   48.1892 H   0  0  0  0  0  0  0  0  0  0  0  0
   58.5297   35.3904   47.1524 H   0  0  0  0  0  0  0  0  0  0  0  0
   58.0928   33.7685   43.0078 H   0  0  0  0  0  0  0  0  0  0  0  0
   59.4694   32.8511   43.7484 H   0  0  0  0  0  0  0  0  0  0  0  0
   57.6390   31.1325   45.8007 H   0  0  0  0  0  0  0  0  0  0  0  0
   56.3338   29.0067   45.0383 H   0  0  0  0  0  0  0  0  0  0  0  0
   55.8581   28.9642   42.4480 H   0  0  0  0  0  0  0  0  0  0  0  0
   59.2706   31.4697   46.0099 H   0  0  0  0  0  0  0  0  0  0  0  0
   60.7190   32.4989   45.6436 H   0  0  0  0  0  0  0  0  0  0  0  0
   59.6101   31.7289   48.3803 H   0  0  0  0  0  0  0  0  0  0  0  0
   61.2114   31.3170   47.6706 H   0  0  0  0  0  0  0  0  0  0  0  0
   63.8828   32.1410   46.4930 H   0  0  0  0  0  0  0  0  0  0  0  0
   62.4624   33.2371   46.4059 H   0  0  0  0  0  0  0  0  0  0  0  0
   64.1242   33.9189   46.4059 H   0  0  0  0  0  0  0  0  0  0  0  0
   65.6080   33.0682   48.4793 H   0  0  0  0  0  0  0  0  0  0  0  0
  1  2  1  0
  2  3  2  0
  3  4  1  0
  4  5  1  0
  4  6  2  0
  6  7  1  0
  7  8  1  0
  8  9  1  0
  9 10  1  0
 10 11  1  0
 11 12  2  0
 11 13  1  0
 13 14  1  0
 14 15  2  0
 15 16  1  0
 16 17  2  0
 17 18  1  0
 10 19  1  0
 19 20  1  0
  6 21  1  0
 21 22  1  0
 21 23  2  0
 23  2  1  0
 20  7  1  0
 18 14  1  0
  1 24  1  0
  1 25  1  0
  1 26  1  0
  3 27  1  0
  5 28  1  0
  5 29  1  0
  5 30  1  0
  8 31  1  0
  8 32  1  0
  9 33  1  0
  9 34  1  0
 13 35  1  0
 13 36  1  0
 15 37  1  0
 16 38  1  0
 17 39  1  0
 19 40  1  0
 19 41  1  0
 20 42  1  0
 20 43  1  0
 22 44  1  0
 22 45  1  0
 22 46  1  0
 23 47  1  0
M  END
>  <UniqueID>  (6) 
6

>  <SMILES>  (6) 
Cc1cc(C)c(N2CCN(C(=O)Cc3cccs3)CC2)c(C)c1

>  <Energy>  (6) 
77.2192377026681

>  <Genealogy>  (6) 
Cc1cc(C)c(N2CCN(C(=O)Cc3cccs3)CC2)c(C)c1 (3D coordinates assigned)
Cc1cc(C)c(N2CCN(C(=O)Cc3cccs3)CC2)c(C)c1 (nonaromatic ring conformer: 77.2192377026681 kcal/mol)

>  <smiles>  (6) 
Cc1cc(C)c(N2CCN(C(=O)Cc3cccs3)CC2)c(C)c1

>  <score_type>  (6) 
oracle

>  <origin>  (6) 
adg

>  <m_score__min__energy>  (6) 
-7.8200000000000003

>  <m_primary>  (6) 
energy

$$$$
6:0
     RDKit          3D

 32 34  0  0  0  0  0  0  0  0999 V2000
   57.7870   32.2920   43.6220 C   0  0  0  0  0  0  0  0  0  0  0  0
   58.0940   31.2090   44.6080 C   0  0  0  0  0  0  0  0  0  0  0  0
   58.6230   31.5250   45.8630 C   0  0  0  0  0  0  0  0  0  0  0  0
   58.9150   30.4970   46.7590 C   0  0  0  0  0  0  0  0  0  0  0  0
   58.6740   29.1700   46.4010 C   0  0  0  0  0  0  0  0  0  0  0  0
   58.1290   28.8800   45.1350 C   0  0  0  0  0  0  0  0  0  0  0  0
   57.8600   27.4950   44.6830 C   0  0  0  0  0  0  0  0  0  0  0  0
   58.0310   27.0900   43.3470 C   0  0  0  0  0  0  0  0  0  0  0  0
   57.7680   25.7680   42.9880 C   0  0  0  0  0  0  0  0  0  0  0  0
   57.3370   24.8440   43.9520 C   0  0  0  0  0  0  0  0  0  0  0  0
   57.0620   23.4330   43.6010 C   0  0  0  0  0  0  0  0  0  0  0  0
   56.2130   23.0380   42.6360 N   0  0  0  0  0  0  0  0  0  0  0  0
   56.2340   21.7380   42.6170 O   0  0  0  0  0  0  0  0  0  0  0  0
   57.0490   21.2260   43.4980 N   0  0  0  0  0  0  0  0  0  0  0  0
   57.6010   22.2760   44.1390 C   0  0  0  0  0  0  0  0  0  0  0  0
   58.6230   22.1410   45.2210 C   0  0  0  0  0  0  0  0  0  0  0  0
   57.2060   25.2790   45.2780 C   0  0  0  0  0  0  0  0  0  0  0  0
   57.4650   26.5730   45.6040 N   0  0  0  0  0  0  0  0  0  0  0  0
   57.8680   29.9080   44.2790 N   0  0  0  0  0  0  0  0  0  0  0  0
   57.5254   33.2148   44.1605 H   0  0  0  0  0  0  0  0  0  0  0  0
   58.6691   32.4736   42.9903 H   0  0  0  0  0  0  0  0  0  0  0  0
   56.9409   31.9837   42.9903 H   0  0  0  0  0  0  0  0  0  0  0  0
   58.8069   32.5734   46.1407 H   0  0  0  0  0  0  0  0  0  0  0  0
   59.3353   30.7322   47.7479 H   0  0  0  0  0  0  0  0  0  0  0  0
   58.9081   28.3559   47.1028 H   0  0  0  0  0  0  0  0  0  0  0  0
   58.3703   27.8118   42.5894 H   0  0  0  0  0  0  0  0  0  0  0  0
   57.8992   25.4482   41.9437 H   0  0  0  0  0  0  0  0  0  0  0  0
   55.6220   23.6380   42.0190 H   0  0  0  0  0  0  0  0  0  0  0  0
   58.1294   22.2062   46.2018 H   0  0  0  0  0  0  0  0  0  0  0  0
   59.1283   21.1683   45.1288 H   0  0  0  0  0  0  0  0  0  0  0  0
   59.3636   22.9491   45.1288 H   0  0  0  0  0  0  0  0  0  0  0  0
   56.8922   24.5701   46.0583 H   0  0  0  0  0  0  0  0  0  0  0  0
  1  2  1  0
  2  3  2  0
  3  4  1  0
  4  5  2  0
  5  6  1  0
  6  7  1  0
  7  8  2  0
  8  9  1  0
  9 10  2  0
 10 11  1  0
 11 12  2  0
 12 13  1  0
 13 14  1  0
 14 15  2  0
 15 16  1  0
 10 17  1  0
 17 18  2  0
  6 19  2  0
 19  2  1  0
 18  7  1  0
 15 11  1  0
  1 20  1  0
  1 21  1  0
  1 22  1  0
  3 23  1  0
  4 24  1  0
  5 25  1  0
  8 26  1  0
  9 27  1  0
 12 28  1  0
 16 29  1  0
 16 30  1  0
 16 31  1  0
 17 32  1  0
M  CHG  1  12   1
M  END
>  <UniqueID>  (7) 
7

>  <SMILES>  (7) 
Cc1cccc(-c2ccc(-c3[nH+]onc3C)cn2)n1

>  <Energy>  (7) 
75.80298649186469

>  <Genealogy>  (7) 
Cc1cccc(-c2ccc(-c3[nH+]onc3C)cn2)n1 (protonated)
Cc1cccc(-c2ccc(-c3[nH+]onc3C)cn2)n1 (3D coordinates assigned)
Cc1cccc(-c2ccc(-c3[nH+]onc3C)cn2)n1 (optimized conformer: 75.80298649186469 kcal/mol)

>  <smiles>  (7) 
Cc1cccc(-c2ccc(-c3nonc3C)cn2)n1

>  <score_type>  (7) 
oracle

>  <origin>  (7) 
adg

>  <m_score__min__energy>  (7) 
-5.9199999999999999

>  <m_primary>  (7) 
energy

$$$$
7:0
     RDKit          3D

 53 55  0  0  0  0  0  0  0  0999 V2000
   59.1582   33.2418   49.4846 H   0  0  0  0  0  0  0  0  0  0  0  0
   58.9370   32.6180   48.6060 C   0  0  0  0  0  0  0  0  0  0  0  0
   58.9050   31.2880   48.7700 C   0  0  0  0  0  0  0  0  0  0  0  0
   57.9841   30.8302   49.1604 H   0  0  0  0  0  0  0  0  0  0  0  0
   60.0740   30.3880   48.4440 C   0  0  0  0  0  0  0  0  0  0  0  0
   59.6963   29.3711   48.2614 H   0  0  0  0  0  0  0  0  0  0  0  0
   60.7655   30.4147   49.2991 H   0  0  0  0  0  0  0  0  0  0  0  0
   60.8220   30.8410   47.2440 N   0  0  2  0  0  0  0  0  0  0  0  0
   60.3110   31.6670   46.8500 H   0  0  0  0  0  0  0  0  0  0  0  0
   60.8300   29.7730   46.2080 C   0  0  0  0  0  0  0  0  0  0  0  0
   61.1071   30.2212   45.2424 H   0  0  0  0  0  0  0  0  0  0  0  0
   61.5549   29.0085   46.5241 H   0  0  0  0  0  0  0  0  0  0  0  0
   59.4760   29.0900   46.0580 C   0  0  0  0  0  0  0  0  0  0  0  0
   59.2980   27.8650   46.7250 C   0  0  0  0  0  0  0  0  0  0  0  0
   60.1210   27.4539   47.3280 H   0  0  0  0  0  0  0  0  0  0  0  0
   58.0990   27.1630   46.6360 C   0  0  0  0  0  0  0  0  0  0  0  0
   57.9813   26.2102   47.1730 H   0  0  0  0  0  0  0  0  0  0  0  0
   57.0490   27.6610   45.8710 C   0  0  0  0  0  0  0  0  0  0  0  0
   56.1035   27.1023   45.8089 H   0  0  0  0  0  0  0  0  0  0  0  0
   57.1910   28.8720   45.1790 C   0  0  0  0  0  0  0  0  0  0  0  0
   56.1310   29.3490   44.3930 C   0  0  0  0  0  0  0  0  0  0  0  0
   55.1922   28.7786   44.3366 H   0  0  0  0  0  0  0  0  0  0  0  0
   56.2610   30.5420   43.6830 C   0  0  0  0  0  0  0  0  0  0  0  0
   55.4259   30.9098   43.0687 H   0  0  0  0  0  0  0  0  0  0  0  0
   57.4470   31.2680   43.7510 C   0  0  0  0  0  0  0  0  0  0  0  0
   57.5469   32.2055   43.1843 H   0  0  0  0  0  0  0  0  0  0  0  0
   58.5110   30.8140   44.5340 C   0  0  0  0  0  0  0  0  0  0  0  0
   59.4391   31.4022   44.5843 H   0  0  0  0  0  0  0  0  0  0  0  0
   58.4080   29.6060   45.2630 C   0  0  0  0  0  0  0  0  0  0  0  0
   62.2250   31.2230   47.5950 C   0  0  0  0  0  0  0  0  0  0  0  0
   62.8022   31.3328   46.6651 H   0  0  0  0  0  0  0  0  0  0  0  0
   62.6328   30.4290   48.2379 H   0  0  0  0  0  0  0  0  0  0  0  0
   62.3060   32.5440   48.3830 C   0  0  0  0  0  0  0  0  0  0  0  0
   62.4701   32.3108   49.4454 H   0  0  0  0  0  0  0  0  0  0  0  0
   61.3600   33.0831   48.2269 H   0  0  0  0  0  0  0  0  0  0  0  0
   63.4440   33.4530   47.8980 C   0  0  0  0  0  0  0  0  0  0  0  0
   64.4044   32.9392   48.0514 H   0  0  0  0  0  0  0  0  0  0  0  0
   63.4110   34.3906   48.4722 H   0  0  0  0  0  0  0  0  0  0  0  0
   63.2880   33.7860   46.4170 C   0  0  0  0  0  0  0  0  0  0  0  0
   62.8235   34.7775   46.3111 H   0  0  0  0  0  0  0  0  0  0  0  0
   64.2773   33.7913   45.9362 H   0  0  0  0  0  0  0  0  0  0  0  0
   62.6507   33.0293   45.9362 H   0  0  0  0  0  0  0  0  0  0  0  0
   58.6930   33.2970   47.3160 C   0  0  0  0  0  0  0  0  0  0  0  0
   57.4280   33.2660   46.7030 C   0  0  0  0  0  0  0  0  0  0  0  0
   56.5988   32.7259   47.1834 H   0  0  0  0  0  0  0  0  0  0  0  0
   57.2210   33.9200   45.4840 C   0  0  0  0  0  0  0  0  0  0  0  0
   56.2247   33.9106   45.0178 H   0  0  0  0  0  0  0  0  0  0  0  0
   58.2780   34.5850   44.8580 C   0  0  0  0  0  0  0  0  0  0  0  0
   58.1123   35.1046   43.9027 H   0  0  0  0  0  0  0  0  0  0  0  0
   59.5470   34.5900   45.4460 C   0  0  0  0  0  0  0  0  0  0  0  0
   60.3812   35.1052   44.9474 H   0  0  0  0  0  0  0  0  0  0  0  0
   59.7570   33.9410   46.6670 C   0  0  0  0  0  0  0  0  0  0  0  0
   60.7595   33.9355   47.1198 H   0  0  0  0  0  0  0  0  0  0  0  0
  1  2  1  0
  2  3  2  0
  3  4  1  0
  3  5  1  0
  5  6  1  0
  5  7  1  0
  5  8  1  0
  8  9  1  6
  8 10  1  0
 10 11  1  0
 10 12  1  0
 10 13  1  0
 13 14  2  0
 14 15  1  0
 14 16  1  0
 16 17  1  0
 16 18  2  0
 18 19  1  0
 18 20  1  0
 20 21  2  0
 21 22  1  0
 21 23  1  0
 23 24  1  0
 23 25  2  0
 25 26  1  0
 25 27  1  0
 27 28  1  0
 27 29  2  0
  8 30  1  0
 30 31  1  0
 30 32  1  0
 30 33  1  0
 33 34  1  0
 33 35  1  0
 33 36  1  0
 36 37  1  0
 36 38  1  0
 36 39  1  0
 39 40  1  0
 39 41  1  0
 39 42  1  0
  2 43  1  0
 43 44  2  0
 44 45  1  0
 44 46  1  0
 46 47  1  0
 46 48  2  0
 48 49  1  0
 48 50  1  0
 50 51  1  0
 50 52  2  0
 52 53  1  0
 29 13  1  0
 52 43  1  0
 29 20  1  0
M  CHG  1   8   1
M  END
>  <UniqueID>  (8) 
8

>  <SMILES>  (8) 
CCCC[N@H+](C/C=C\c1ccccc1)Cc1cccc2ccccc12

>  <Energy>  (8) 
65.74836093319985

>  <Genealogy>  (8) 
CCCC[NH+](CC=Cc1ccccc1)Cc1cccc2ccccc12 (protonated)
CCCC[N@H+](CC=Cc1ccccc1)Cc1cccc2ccccc12 (chirality)
CCCC[N@H+](C/C=C\c1ccccc1)Cc1cccc2ccccc12 (cis-trans isomerization)
CCCC[N@H+](C/C=C\c1ccccc1)Cc1cccc2ccccc12 (3D coordinates assigned)
CCCC[N@H+](C/C=C\c1ccccc1)Cc1cccc2ccccc12 (optimized conformer: 65.74836093319985 kcal/mol)

>  <smiles>  (8) 
CCCCN(CC=Cc1ccccc1)Cc1cccc2ccccc12

>  <score_type>  (8) 
oracle

>  <origin>  (8) 
adg

>  <m_score__min__energy>  (8) 
-6.5800000000000001

>  <m_primary>  (8) 
energy

$$$$
8:0
     RDKit          3D

 22 23  0  0  0  0  0  0  0  0999 V2000
   59.7290   28.8220   47.4710 C   0  0  0  0  0  0  0  0  0  0  0  0
   58.5790   28.5350   46.6040 N   0  0  0  0  0  0  0  0  0  0  0  0
   58.0700   27.1540   46.5660 C   0  0  0  0  0  0  0  0  0  0  0  0
   56.6450   27.0850   46.1020 C   0  0  0  0  0  0  0  0  0  0  0  0
   55.9490   26.0730   46.3770 O   0  0  0  0  0  0  0  0  0  0  0  0
   56.0970   28.1220   45.2900 N   0  0  0  0  0  0  0  0  0  0  0  0
   56.8310   29.3260   45.0480 C   0  0  0  0  0  0  0  0  0  0  0  0
   56.3070   30.2980   44.1820 C   0  0  0  0  0  0  0  0  0  0  0  0
   57.0020   31.4880   43.9590 C   0  0  0  0  0  0  0  0  0  0  0  0
   58.2180   31.7170   44.6020 C   0  0  0  0  0  0  0  0  0  0  0  0
   58.8880   32.8760   44.3860 F   0  0  0  0  0  0  0  0  0  0  0  0
   58.7450   30.7570   45.4700 C   0  0  0  0  0  0  0  0  0  0  0  0
   58.0600   29.5440   45.7020 C   0  0  0  0  0  0  0  0  0  0  0  0
   59.4221   28.7454   48.5245 H   0  0  0  0  0  0  0  0  0  0  0  0
   60.5306   28.0964   47.2689 H   0  0  0  0  0  0  0  0  0  0  0  0
   60.0957   29.8392   47.2689 H   0  0  0  0  0  0  0  0  0  0  0  0
   58.6949   26.5655   45.8781 H   0  0  0  0  0  0  0  0  0  0  0  0
   58.1106   26.7521   47.5892 H   0  0  0  0  0  0  0  0  0  0  0  0
   55.1420   28.0000   44.8840 H   0  0  0  0  0  0  0  0  0  0  0  0
   55.3456   30.1217   43.6773 H   0  0  0  0  0  0  0  0  0  0  0  0
   56.5902   32.2454   43.2758 H   0  0  0  0  0  0  0  0  0  0  0  0
   59.7022   30.9479   45.9772 H   0  0  0  0  0  0  0  0  0  0  0  0
  1  2  1  0
  2  3  1  0
  3  4  1  0
  4  5  2  0
  4  6  1  0
  6  7  1  0
  7  8  2  0
  8  9  1  0
  9 10  2  0
 10 11  1  0
 10 12  1  0
 12 13  2  0
 13  2  1  0
 13  7  1  0
  1 14  1  0
  1 15  1  0
  1 16  1  0
  3 17  1  0
  3 18  1  0
  6 19  1  0
  8 20  1  0
  9 21  1  0
 12 22  1  0
M  END
>  <UniqueID>  (9) 
9

>  <SMILES>  (9) 
CN1CC(=O)Nc2ccc(F)cc21

>  <Energy>  (9) 
23.50504346327334

>  <Genealogy>  (9) 
CN1CC(=O)Nc2ccc(F)cc21 (3D coordinates assigned)
CN1CC(=O)Nc2ccc(F)cc21 (nonaromatic ring conformer: 23.50504346327334 kcal/mol)

>  <smiles>  (9) 
CN1CC(=O)Nc2ccc(F)cc21

>  <score_type>  (9) 
oracle

>  <origin>  (9) 
adg

>  <m_score__min__energy>  (9) 
-5.3899999999999997

>  <m_primary>  (9) 
energy

$$$$
9:0
     RDKit          3D

 53 56  0  0  0  0  0  0  0  0999 V2000
   62.8130   33.8330   46.7570 C   0  0  0  0  0  0  0  0  0  0  0  0
   61.5500   33.7010   47.4010 O   0  0  0  0  0  0  0  0  0  0  0  0
   60.3100   33.7950   46.7510 C   0  0  0  0  0  0  0  0  0  0  0  0
   59.9530   34.9220   45.9850 C   0  0  0  0  0  0  0  0  0  0  0  0
   58.7210   34.9690   45.3270 C   0  0  0  0  0  0  0  0  0  0  0  0
   57.8350   33.8950   45.4240 C   0  0  0  0  0  0  0  0  0  0  0  0
   58.1740   32.7740   46.1840 C   0  0  0  0  0  0  0  0  0  0  0  0
   59.4050   32.7190   46.8570 C   0  0  0  0  0  0  0  0  0  0  0  0
   59.7440   31.5610   47.6380 N   0  0  0  0  0  0  0  0  0  0  0  0
   61.0250   30.8800   47.4410 C   0  0  0  0  0  0  0  0  0  0  0  0
   60.8250   29.3520   47.3570 C   0  0  0  0  0  0  0  0  0  0  0  0
   59.5860   28.8780   48.0310 N   0  0  0  0  0  0  0  0  0  0  0  0
   59.6930   27.4570   48.4320 C   0  0  0  0  0  0  0  0  0  0  0  0
   60.3830   26.6220   47.3410 C   0  0  0  0  0  0  0  0  0  0  0  0
   59.3850   26.0470   46.3260 C   0  0  0  0  0  0  0  0  0  0  0  0
   58.6790   27.1080   45.6090 N   0  0  0  0  0  0  0  0  0  0  0  0
   59.2630   28.1960   44.8890 C   0  0  0  0  0  0  0  0  0  0  0  0
   60.4920   28.2990   44.6310 O   0  0  0  0  0  0  0  0  0  0  0  0
   58.2310   29.1570   44.5170 C   0  0  0  0  0  0  0  0  0  0  0  0
   58.3170   30.3610   43.8190 C   0  0  0  0  0  0  0  0  0  0  0  0
   57.1320   31.0930   43.6190 C   0  0  0  0  0  0  0  0  0  0  0  0
   55.9010   30.6140   44.1180 C   0  0  0  0  0  0  0  0  0  0  0  0
   55.8410   29.3980   44.8220 C   0  0  0  0  0  0  0  0  0  0  0  0
   57.0270   28.6890   45.0050 C   0  0  0  0  0  0  0  0  0  0  0  0
   57.2880   27.4280   45.6890 C   0  0  0  0  0  0  0  0  0  0  0  0
   56.4290   26.7230   46.2830 O   0  0  0  0  0  0  0  0  0  0  0  0
   59.2440   29.7170   49.1960 C   0  0  0  0  0  0  0  0  0  0  0  0
   58.8480   31.1150   48.7100 C   0  0  0  0  0  0  0  0  0  0  0  0
   63.6048   33.9158   47.5161 H   0  0  0  0  0  0  0  0  0  0  0  0
   62.9983   32.9493   46.1287 H   0  0  0  0  0  0  0  0  0  0  0  0
   62.8116   34.7359   46.1287 H   0  0  0  0  0  0  0  0  0  0  0  0
   60.6484   35.7705   45.9043 H   0  0  0  0  0  0  0  0  0  0  0  0
   58.4493   35.8534   44.7320 H   0  0  0  0  0  0  0  0  0  0  0  0
   56.8681   33.9318   44.9008 H   0  0  0  0  0  0  0  0  0  0  0  0
   57.4730   31.9294   46.2559 H   0  0  0  0  0  0  0  0  0  0  0  0
   61.4828   31.2359   46.5063 H   0  0  0  0  0  0  0  0  0  0  0  0
   61.6791   31.1039   48.2966 H   0  0  0  0  0  0  0  0  0  0  0  0
   60.7760   29.0650   46.2962 H   0  0  0  0  0  0  0  0  0  0  0  0
   61.6749   28.8852   47.8764 H   0  0  0  0  0  0  0  0  0  0  0  0
   60.2793   27.3893   49.3603 H   0  0  0  0  0  0  0  0  0  0  0  0
   58.6783   27.0607   48.5844 H   0  0  0  0  0  0  0  0  0  0  0  0
   61.1008   27.2621   46.8071 H   0  0  0  0  0  0  0  0  0  0  0  0
   60.8859   25.7765   47.8332 H   0  0  0  0  0  0  0  0  0  0  0  0
   59.9309   25.4268   45.5998 H   0  0  0  0  0  0  0  0  0  0  0  0
   58.6429   25.4472   46.8733 H   0  0  0  0  0  0  0  0  0  0  0  0
   59.2812   30.7272   43.4366 H   0  0  0  0  0  0  0  0  0  0  0  0
   57.1649   32.0455   43.0698 H   0  0  0  0  0  0  0  0  0  0  0  0
   54.9821   31.1963   43.9549 H   0  0  0  0  0  0  0  0  0  0  0  0
   54.8870   29.0180   45.2163 H   0  0  0  0  0  0  0  0  0  0  0  0
   58.4023   29.2647   49.7410 H   0  0  0  0  0  0  0  0  0  0  0  0
   60.1128   29.7908   49.8666 H   0  0  0  0  0  0  0  0  0  0  0  0
   57.8159   31.0871   48.3305 H   0  0  0  0  0  0  0  0  0  0  0  0
   58.9244   31.8185   49.5522 H   0  0  0  0  0  0  0  0  0  0  0  0
  1  2  1  0
  2  3  1  0
  3  4  2  0
  4  5  1  0
  5  6  2  0
  6  7  1  0
  7  8  2  0
  8  9  1  0
  9 10  1  0
 10 11  1  0
 11 12  1  0
 12 13  1  0
 13 14  1  0
 14 15  1  0
 15 16  1  0
 16 17  1  0
 17 18  2  0
 17 19  1  0
 19 20  2  0
 20 21  1  0
 21 22  2  0
 22 23  1  0
 23 24  2  0
 24 25  1  0
 25 26  2  0
 12 27  1  0
 27 28  1  0
  8  3  1  0
 28  9  1  0
 25 16  1  0
 24 19  1  0
  1 29  1  0
  1 30  1  0
  1 31  1  0
  4 32  1  0
  5 33  1  0
  6 34  1  0
  7 35  1  0
 10 36  1  0
 10 37  1  0
 11 38  1  0
 11 39  1  0
 13 40  1  0
 13 41  1  0
 14 42  1  0
 14 43  1  0
 15 44  1  0
 15 45  1  0
 20 46  1  0
 21 47  1  0
 22 48  1  0
 23 49  1  0
 27 50  1  0
 27 51  1  0
 28 52  1  0
 28 53  1  0
M  END
>  <UniqueID>  (10) 
10

>  <SMILES>  (10) 
COc1ccccc1N1CCN(CCCN2C(=O)c3ccccc3C2=O)CC1

>  <Energy>  (10) 
94.14099306415812

>  <Genealogy>  (10) 
COc1ccccc1N1CCN(CCCN2C(=O)c3ccccc3C2=O)CC1 (3D coordinates assigned)
COc1ccccc1N1CCN(CCCN2C(=O)c3ccccc3C2=O)CC1 (nonaromatic ring conformer: 94.14099306415812 kcal/mol)

>  <smiles>  (10) 
COc1ccccc1N1CCN(CCCN2C(=O)c3ccccc3C2=O)CC1

>  <score_type>  (10) 
oracle

>  <origin>  (10) 
adg

>  <m_score__min__energy>  (10) 
-8.3800000000000008

>  <m_primary>  (10) 
energy

$$$$
10:0
     RDKit          3D

 61 64  0  0  0  0  0  0  0  0999 V2000
   57.5780   28.9500   44.1200 C   0  0  0  0  0  0  0  0  0  0  0  0
   57.8410   30.3300   44.6700 C   0  0  0  0  0  0  0  0  0  0  0  0
   57.3770   31.4310   43.9260 C   0  0  0  0  0  0  0  0  0  0  0  0
   57.5750   32.7370   44.3800 C   0  0  0  0  0  0  0  0  0  0  0  0
   58.2110   32.9730   45.5970 C   0  0  0  0  0  0  0  0  0  0  0  0
   58.3070   34.3240   46.0690 N   0  0  0  0  0  0  0  0  0  0  0  0
   59.5010   34.9850   46.5090 C   0  0  0  0  0  0  0  0  0  0  0  0
   59.6450   36.2220   46.3150 O   0  0  0  0  0  0  0  0  0  0  0  0
   60.6000   34.2080   47.1310 C   0  0  0  0  0  0  0  0  0  0  0  0
   61.6900   33.7660   46.3610 C   0  0  0  0  0  0  0  0  0  0  0  0
   62.7430   33.0650   46.9580 C   0  0  0  0  0  0  0  0  0  0  0  0
   62.7200   32.7860   48.3310 C   0  0  0  0  0  0  0  0  0  0  0  0
   63.8560   32.0130   48.9640 C   0  0  0  0  0  0  0  0  0  0  0  0
   63.7860   32.0340   50.4470 N   0  0  0  0  0  0  0  0  0  0  0  0
   64.5120   30.8880   51.0510 C   0  0  0  0  0  0  0  0  0  0  0  0
   65.9910   31.2080   51.3610 C   0  0  0  0  0  0  0  0  0  0  0  0
   66.4630   32.2560   50.5460 O   0  0  0  0  0  0  0  0  0  0  0  0
   65.8080   33.4680   50.8790 C   0  0  0  0  0  0  0  0  0  0  0  0
   64.2740   33.3130   51.0150 C   0  0  0  0  0  0  0  0  0  0  0  0
   61.6180   33.2010   49.0970 C   0  0  0  0  0  0  0  0  0  0  0  0
   60.5650   33.9020   48.5020 C   0  0  0  0  0  0  0  0  0  0  0  0
   58.7270   31.8870   46.3240 C   0  0  0  0  0  0  0  0  0  0  0  0
   58.5590   30.5650   45.8780 C   0  0  0  0  0  0  0  0  0  0  0  0
   59.2430   29.2800   46.9020 S   0  0  0  0  0  0  0  0  0  0  0  0
   58.1080   28.3910   47.3290 O   0  0  0  0  0  0  0  0  0  0  0  0
   60.2260   28.4230   46.1510 O   0  0  0  0  0  0  0  0  0  0  0  0
   59.9860   29.9600   48.3300 N   0  0  0  0  0  0  0  0  0  0  0  0
   60.7990   28.9390   49.0150 C   0  0  0  0  0  0  0  0  0  0  0  0
   61.1150   29.3480   50.4680 C   0  0  0  0  0  0  0  0  0  0  0  0
   60.9670   30.7430   50.6450 O   0  0  0  0  0  0  0  0  0  0  0  0
   59.6030   31.0930   50.4970 C   0  0  0  0  0  0  0  0  0  0  0  0
   58.9490   30.4790   49.2340 C   0  0  0  0  0  0  0  0  0  0  0  0
   57.4433   28.2432   44.9520 H   0  0  0  0  0  0  0  0  0  0  0  0
   56.6672   28.9684   43.5035 H   0  0  0  0  0  0  0  0  0  0  0  0
   58.4317   28.6322   43.5035 H   0  0  0  0  0  0  0  0  0  0  0  0
   56.8516   31.2607   42.9747 H   0  0  0  0  0  0  0  0  0  0  0  0
   57.2264   33.5851   43.7725 H   0  0  0  0  0  0  0  0  0  0  0  0
   61.7150   33.9730   45.2809 H   0  0  0  0  0  0  0  0  0  0  0  0
   63.5939   32.7309   46.3462 H   0  0  0  0  0  0  0  0  0  0  0  0
   63.8092   30.9688   48.6212 H   0  0  0  0  0  0  0  0  0  0  0  0
   64.8004   32.4895   48.6621 H   0  0  0  0  0  0  0  0  0  0  0  0
   62.7780   31.9340   50.7210 H   0  0  0  0  0  0  0  0  0  0  0  0
   64.0094   30.6094   51.9889 H   0  0  0  0  0  0  0  0  0  0  0  0
   64.4988   30.0668   50.3192 H   0  0  0  0  0  0  0  0  0  0  0  0
   66.0812   31.5047   52.4164 H   0  0  0  0  0  0  0  0  0  0  0  0
   66.5932   30.3097   51.1601 H   0  0  0  0  0  0  0  0  0  0  0  0
   66.2093   33.8308   51.8368 H   0  0  0  0  0  0  0  0  0  0  0  0
   65.9941   34.1769   50.0588 H   0  0  0  0  0  0  0  0  0  0  0  0
   64.0077   33.3510   52.0816 H   0  0  0  0  0  0  0  0  0  0  0  0
   63.8016   34.1327   50.4539 H   0  0  0  0  0  0  0  0  0  0  0  0
   61.5834   32.9728   50.1725 H   0  0  0  0  0  0  0  0  0  0  0  0
   59.7041   34.2159   49.1105 H   0  0  0  0  0  0  0  0  0  0  0  0
   59.2729   32.0752   47.2602 H   0  0  0  0  0  0  0  0  0  0  0  0
   60.2455   27.9884   49.0238 H   0  0  0  0  0  0  0  0  0  0  0  0
   61.7498   28.8341   48.4719 H   0  0  0  0  0  0  0  0  0  0  0  0
   60.4263   28.8241   51.1471 H   0  0  0  0  0  0  0  0  0  0  0  0
   62.1571   29.0750   50.6903 H   0  0  0  0  0  0  0  0  0  0  0  0
   59.0534   30.7399   51.3820 H   0  0  0  0  0  0  0  0  0  0  0  0
   59.5559   32.1868   50.3906 H   0  0  0  0  0  0  0  0  0  0  0  0
   58.2820   29.6569   49.5327 H   0  0  0  0  0  0  0  0  0  0  0  0
   58.3729   31.2573   48.7121 H   0  0  0  0  0  0  0  0  0  0  0  0
  1  2  1  0
  2  3  2  0
  3  4  1  0
  4  5  2  0
  5  6  1  0
  6  7  1  0
  7  8  2  0
  7  9  1  0
  9 10  2  0
 10 11  1  0
 11 12  2  0
 12 13  1  0
 13 14  1  0
 14 15  1  0
 15 16  1  0
 16 17  1  0
 17 18  1  0
 18 19  1  0
 12 20  1  0
 20 21  2  0
  5 22  1  0
 22 23  2  0
 23 24  1  0
 24 25  2  0
 24 26  2  0
 24 27  1  0
 27 28  1  0
 28 29  1  0
 29 30  1  0
 30 31  1  0
 31 32  1  0
 23  2  1  0
 32 27  1  0
 21  9  1  0
 19 14  1  0
  1 33  1  0
  1 34  1  0
  1 35  1  0
  3 36  1  0
  4 37  1  0
 10 38  1  0
 11 39  1  0
 13 40  1  0
 13 41  1  0
 14 42  1  0
 15 43  1  0
 15 44  1  0
 16 45  1  0
 16 46  1  0
 18 47  1  0
 18 48  1  0
 19 49  1  0
 19 50  1  0
 20 51  1  0
 21 52  1  0
 22 53  1  0
 28 54  1  0
 28 55  1  0
 29 56  1  0
 29 57  1  0
 31 58  1  0
 31 59  1  0
 32 60  1  0
 32 61  1  0
M  CHG  2   6  -1  14   1
M  END
>  <UniqueID>  (11) 
11

>  <SMILES>  (11) 
Cc1ccc([N-]C(=O)c2ccc(C[NH+]3CCOCC3)cc2)cc1S(=O)(=O)N1CCOCC1

>  <Energy>  (11) 
92.55013491392737

>  <Genealogy>  (11) 
Cc1ccc([N-]C(=O)c2ccc(C[NH+]3CCOCC3)cc2)cc1S(=O)(=O)N1CCOCC1 (protonated)
Cc1ccc([N-]C(=O)c2ccc(C[NH+]3CCOCC3)cc2)cc1S(=O)(=O)N1CCOCC1 (3D coordinates assigned)
Cc1ccc([N-]C(=O)c2ccc(C[NH+]3CCOCC3)cc2)cc1S(=O)(=O)N1CCOCC1 (nonaromatic ring conformer: 92.55013491392737 kcal/mol)

>  <smiles>  (11) 
Cc1ccc(NC(=O)c2ccc(CN3CCOCC3)cc2)cc1S(=O)(=O)N1CCOCC1

>  <score_type>  (11) 
oracle

>  <origin>  (11) 
adg

>  <m_score__min__energy>  (11) 
-10.09

>  <m_primary>  (11) 
energy

$$$$
11:0
     RDKit          3D

 42 44  0  0  0  0  0  0  0  0999 V2000
   55.5350   29.7460   43.7440 C   0  0  0  0  0  0  0  0  0  0  0  0
   56.7850   30.0130   42.9000 C   0  0  0  0  0  0  0  0  0  0  0  0
   57.9540   30.3870   43.7290 N   0  0  2  0  0  0  0  0  0  0  0  0
   57.7610   29.9880   45.1360 C   0  0  0  0  0  0  0  0  0  0  0  0
   58.3610   31.0910   46.0030 C   0  0  0  0  0  0  0  0  0  0  0  0
   58.1550   32.3840   45.1960 C   0  0  1  0  0  0  0  0  0  0  0  0
   56.8240   33.0800   45.4870 C   0  0  0  0  0  0  0  0  0  0  0  0
   57.0520   34.5170   45.0560 C   0  0  0  0  0  0  0  0  0  0  0  0
   58.5650   34.6620   44.8770 C   0  0  0  0  0  0  0  0  0  0  0  0
   59.2150   33.4140   45.3410 N   0  0  0  0  0  0  0  0  0  0  0  0
   59.6830   33.5990   46.7420 C   0  0  0  0  0  0  0  0  0  0  0  0
   61.0930   33.0900   46.8990 C   0  0  0  0  0  0  0  0  0  0  0  0
   61.3370   31.7870   47.3670 C   0  0  0  0  0  0  0  0  0  0  0  0
   62.6500   31.3250   47.5090 C   0  0  0  0  0  0  0  0  0  0  0  0
   63.7250   32.1550   47.1820 C   0  0  0  0  0  0  0  0  0  0  0  0
   63.4900   33.4510   46.7110 C   0  0  0  0  0  0  0  0  0  0  0  0
   62.1800   33.9160   46.5680 C   0  0  0  0  0  0  0  0  0  0  0  0
   58.1410   31.8110   43.8060 C   0  0  0  0  0  0  0  0  0  0  0  0
   58.3240   32.4930   42.8070 O   0  0  0  0  0  0  0  0  0  0  0  0
   55.7946   29.8015   44.8115 H   0  0  0  0  0  0  0  0  0  0  0  0
   54.7687   30.5007   43.5133 H   0  0  0  0  0  0  0  0  0  0  0  0
   55.1440   28.7441   43.5133 H   0  0  0  0  0  0  0  0  0  0  0  0
   57.0301   29.1027   42.3332 H   0  0  0  0  0  0  0  0  0  0  0  0
   56.5643   30.8567   42.2296 H   0  0  0  0  0  0  0  0  0  0  0  0
   58.8320   29.9470   43.3630 H   0  0  0  0  0  0  0  0  0  0  0  0
   56.6882   29.8791   45.3533 H   0  0  0  0  0  0  0  0  0  0  0  0
   58.2480   29.0228   45.3389 H   0  0  0  0  0  0  0  0  0  0  0  0
   57.8392   31.1506   46.9695 H   0  0  0  0  0  0  0  0  0  0  0  0
   59.4218   30.9088   46.2299 H   0  0  0  0  0  0  0  0  0  0  0  0
   56.0097   32.6230   44.9055 H   0  0  0  0  0  0  0  0  0  0  0  0
   56.5290   32.9993   46.5436 H   0  0  0  0  0  0  0  0  0  0  0  0
   56.5327   34.7198   44.1077 H   0  0  0  0  0  0  0  0  0  0  0  0
   56.6613   35.2295   45.7974 H   0  0  0  0  0  0  0  0  0  0  0  0
   58.7987   34.8295   43.8152 H   0  0  0  0  0  0  0  0  0  0  0  0
   58.9333   35.5184   45.4609 H   0  0  0  0  0  0  0  0  0  0  0  0
   59.6542   34.6691   46.9950 H   0  0  0  0  0  0  0  0  0  0  0  0
   59.0231   33.0323   47.4153 H   0  0  0  0  0  0  0  0  0  0  0  0
   60.4933   31.1289   47.6222 H   0  0  0  0  0  0  0  0  0  0  0  0
   62.8362   30.3059   47.8789 H   0  0  0  0  0  0  0  0  0  0  0  0
   64.7563   31.7894   47.2949 H   0  0  0  0  0  0  0  0  0  0  0  0
   64.3366   34.1043   46.4531 H   0  0  0  0  0  0  0  0  0  0  0  0
   61.9990   34.9346   46.1941 H   0  0  0  0  0  0  0  0  0  0  0  0
  1  2  1  0
  2  3  1  0
  3  4  1  0
  4  5  1  0
  5  6  1  0
  6  7  1  0
  7  8  1  0
  8  9  1  0
  9 10  1  0
 10 11  1  0
 11 12  1  0
 12 13  2  0
 13 14  1  0
 14 15  2  0
 15 16  1  0
 16 17  2  0
  6 18  1  0
 18 19  2  0
 18  3  1  0
  6 10  1  6
 17 12  1  0
  1 20  1  0
  1 21  1  0
  1 22  1  0
  2 23  1  0
  2 24  1  0
  3 25  1  6
  4 26  1  0
  4 27  1  0
  5 28  1  0
  5 29  1  0
  7 30  1  0
  7 31  1  0
  8 32  1  0
  8 33  1  0
  9 34  1  0
  9 35  1  0
 11 36  1  0
 11 37  1  0
 13 38  1  0
 14 39  1  0
 15 40  1  0
 16 41  1  0
 17 42  1  0
M  CHG  1   3   1
M  END
>  <UniqueID>  (12) 
12

>  <SMILES>  (12) 
CC[N@@H+]1CC[C@]2(CCCN2Cc2ccccc2)C1=O

>  <Energy>  (12) 
56.82373582748415

>  <Genealogy>  (12) 
CC[NH+]1CCC2(CCCN2Cc2ccccc2)C1=O (protonated)
CC[N@@H+]1CC[C@]2(CCCN2Cc2ccccc2)C1=O (chirality)
CC[N@@H+]1CC[C@]2(CCCN2Cc2ccccc2)C1=O (3D coordinates assigned)
CC[N@@H+]1CC[C@]2(CCCN2Cc2ccccc2)C1=O (nonaromatic ring conformer: 56.82373582748415 kcal/mol)

>  <smiles>  (12) 
CCN1CCC2(CCCN2Cc2ccccc2)C1=O

>  <score_type>  (12) 
oracle

>  <origin>  (12) 
adg

>  <m_score__min__energy>  (12) 
-5.96

>  <m_primary>  (12) 
energy

$$$$
12:0
     RDKit          3D

 35 37  0  0  0  0  0  0  0  0999 V2000
   57.0140   24.6370   43.3860 C   0  0  0  0  0  0  0  0  0  0  0  0
   57.5190   25.8910   43.9730 N   0  0  0  0  0  0  0  0  0  0  0  0
   58.1430   26.7510   42.9530 C   0  0  0  0  0  0  0  0  0  0  0  0
   58.3770   25.6780   45.1670 C   0  0  0  0  0  0  0  0  0  0  0  0
   57.9430   26.3980   46.4740 C   0  0  0  0  0  0  0  0  0  0  0  0
   58.3400   27.8310   46.5240 N   0  0  0  0  0  0  0  0  0  0  0  0
   59.4440   28.2060   47.2840 C   0  0  0  0  0  0  0  0  0  0  0  0
   60.2670   27.1620   48.2520 S   0  0  0  0  0  0  0  0  0  0  0  0
   59.9610   29.8220   47.3060 S   0  0  0  0  0  0  0  0  0  0  0  0
   58.9290   30.7230   46.3640 C   0  0  0  0  0  0  0  0  0  0  0  0
   57.8570   30.1280   45.7590 C   0  0  0  0  0  0  0  0  0  0  0  0
   57.1590   31.0350   45.0960 O   0  0  0  0  0  0  0  0  0  0  0  0
   57.7630   32.1950   45.2660 C   0  0  0  0  0  0  0  0  0  0  0  0
   57.3860   33.4350   44.7560 C   0  0  0  0  0  0  0  0  0  0  0  0
   58.1850   34.5490   45.0760 C   0  0  0  0  0  0  0  0  0  0  0  0
   59.3320   34.4000   45.8920 C   0  0  0  0  0  0  0  0  0  0  0  0
   59.6910   33.1350   46.3950 C   0  0  0  0  0  0  0  0  0  0  0  0
   58.8790   32.0560   46.0560 C   0  0  0  0  0  0  0  0  0  0  0  0
   57.5520   28.7560   45.8380 C   0  0  0  0  0  0  0  0  0  0  0  0
   56.5090   28.3770   45.2360 O   0  0  0  0  0  0  0  0  0  0  0  0
   56.7341   23.9419   44.1912 H   0  0  0  0  0  0  0  0  0  0  0  0
   56.1324   24.8521   42.7643 H   0  0  0  0  0  0  0  0  0  0  0  0
   57.7986   24.1811   42.7643 H   0  0  0  0  0  0  0  0  0  0  0  0
   56.6760   26.4100   44.3200 H   0  0  0  0  0  0  0  0  0  0  0  0
   58.7201   27.5464   43.4472 H   0  0  0  0  0  0  0  0  0  0  0  0
   58.8144   26.1470   42.3250 H   0  0  0  0  0  0  0  0  0  0  0  0
   57.3605   27.2019   42.3250 H   0  0  0  0  0  0  0  0  0  0  0  0
   58.3997   24.5977   45.3730 H   0  0  0  0  0  0  0  0  0  0  0  0
   59.3517   26.1156   44.9051 H   0  0  0  0  0  0  0  0  0  0  0  0
   56.8478   26.3373   46.5574 H   0  0  0  0  0  0  0  0  0  0  0  0
   58.4543   25.8921   47.3063 H   0  0  0  0  0  0  0  0  0  0  0  0
   56.4924   33.5405   44.1233 H   0  0  0  0  0  0  0  0  0  0  0  0
   57.9159   35.5429   44.6890 H   0  0  0  0  0  0  0  0  0  0  0  0
   59.9473   35.2789   46.1349 H   0  0  0  0  0  0  0  0  0  0  0  0
   60.5787   33.0042   47.0313 H   0  0  0  0  0  0  0  0  0  0  0  0
  1  2  1  0
  2  3  1  0
  2  4  1  0
  4  5  1  0
  5  6  1  0
  6  7  1  0
  7  8  2  0
  7  9  1  0
  9 10  1  0
 10 11  2  0
 11 12  1  0
 12 13  1  0
 13 14  2  0
 14 15  1  0
 15 16  2  0
 16 17  1  0
 17 18  2  0
 11 19  1  0
 19 20  2  0
 19  6  1  0
 18 10  1  0
 18 13  1  0
  1 21  1  0
  1 22  1  0
  1 23  1  0
  2 24  1  0
  3 25  1  0
  3 26  1  0
  3 27  1  0
  4 28  1  0
  4 29  1  0
  5 30  1  0
  5 31  1  0
 14 32  1  0
 15 33  1  0
 16 34  1  0
 17 35  1  0
M  CHG  1   2   1
M  END
>  <UniqueID>  (13) 
13

>  <SMILES>  (13) 
C[NH+](C)CCn1c(=S)sc2c(oc3ccccc32)c1=O

>  <Energy>  (13) 
95.85569151707222

>  <Genealogy>  (13) 
C[NH+](C)CCn1c(=S)sc2c(oc3ccccc32)c1=O (protonated)
C[NH+](C)CCn1c(=S)sc2c(oc3ccccc32)c1=O (3D coordinates assigned)
C[NH+](C)CCn1c(=S)sc2c(oc3ccccc32)c1=O (optimized conformer: 95.85569151707222 kcal/mol)

>  <smiles>  (13) 
CN(C)CCn1c(=S)sc2c(oc3ccccc32)c1=O

>  <score_type>  (13) 
oracle

>  <origin>  (13) 
adg

>  <m_score__min__energy>  (13) 
-5.4100000000000001

>  <m_primary>  (13) 
energy

$$$$
13:0
     RDKit          3D

 34 36  0  0  0  0  0  0  0  0999 V2000
   58.6210   34.4870   45.4300 O   0  0  0  0  0  0  0  0  0  0  0  0
   59.1570   33.4960   45.9960 C   0  0  0  0  0  0  0  0  0  0  0  0
   60.3150   33.7270   46.8940 C   0  0  0  0  0  0  0  0  0  0  0  0
   60.1270   34.0240   48.2570 C   0  0  0  0  0  0  0  0  0  0  0  0
   61.2270   34.2210   49.0970 C   0  0  0  0  0  0  0  0  0  0  0  0
   62.5250   34.1140   48.5880 C   0  0  0  0  0  0  0  0  0  0  0  0
   62.7230   33.8040   47.2410 C   0  0  0  0  0  0  0  0  0  0  0  0
   61.6250   33.6050   46.3980 C   0  0  0  0  0  0  0  0  0  0  0  0
   58.6070   32.1430   45.7400 C   0  0  0  0  0  0  0  0  0  0  0  0
   59.3520   31.0010   46.0710 C   0  0  0  0  0  0  0  0  0  0  0  0
   58.8420   29.7280   45.8140 C   0  0  0  0  0  0  0  0  0  0  0  0
   57.5760   29.5970   45.2200 C   0  0  0  0  0  0  0  0  0  0  0  0
   57.0190   28.3100   44.9100 N   0  0  0  0  0  0  0  0  0  0  0  0
   57.1090   27.1650   45.7750 C   0  0  0  0  0  0  0  0  0  0  0  0
   57.3750   27.3140   46.9970 O   0  0  0  0  0  0  0  0  0  0  0  0
   56.8490   25.8100   45.2600 C   0  0  0  0  0  0  0  0  0  0  0  0
   57.6650   25.0700   44.4080 C   0  0  0  0  0  0  0  0  0  0  0  0
   57.1490   23.8030   44.1100 C   0  0  0  0  0  0  0  0  0  0  0  0
   55.9340   23.5330   44.7270 C   0  0  0  0  0  0  0  0  0  0  0  0
   55.5020   24.8750   45.6430 S   0  0  0  0  0  0  0  0  0  0  0  0
   56.8870   30.7170   44.8710 N   0  0  0  0  0  0  0  0  0  0  0  0
   57.3620   31.9670   45.1130 C   0  0  0  0  0  0  0  0  0  0  0  0
   59.1080   34.1016   48.6638 H   0  0  0  0  0  0  0  0  0  0  0  0
   61.0713   34.4604   50.1593 H   0  0  0  0  0  0  0  0  0  0  0  0
   63.3899   34.2740   49.2486 H   0  0  0  0  0  0  0  0  0  0  0  0
   63.7444   33.7162   46.8422 H   0  0  0  0  0  0  0  0  0  0  0  0
   61.7873   33.3514   45.3400 H   0  0  0  0  0  0  0  0  0  0  0  0
   60.3432   31.1099   46.5355 H   0  0  0  0  0  0  0  0  0  0  0  0
   59.4270   28.8337   46.0746 H   0  0  0  0  0  0  0  0  0  0  0  0
   56.4190   28.2430   44.0590 H   0  0  0  0  0  0  0  0  0  0  0  0
   58.6196   25.4436   44.0090 H   0  0  0  0  0  0  0  0  0  0  0  0
   57.6587   23.0873   43.4483 H   0  0  0  0  0  0  0  0  0  0  0  0
   55.3550   22.6025   44.6326 H   0  0  0  0  0  0  0  0  0  0  0  0
   56.7692   32.8449   44.8167 H   0  0  0  0  0  0  0  0  0  0  0  0
  1  2  2  0
  2  3  1  0
  3  4  2  0
  4  5  1  0
  5  6  2  0
  6  7  1  0
  7  8  2  0
  2  9  1  0
  9 10  2  0
 10 11  1  0
 11 12  2  0
 12 13  1  0
 13 14  1  0
 14 15  2  0
 14 16  1  0
 16 17  2  0
 17 18  1  0
 18 19  2  0
 19 20  1  0
 12 21  1  0
 21 22  2  0
  8  3  1  0
 22  9  1  0
 20 16  1  0
  4 23  1  0
  5 24  1  0
  6 25  1  0
  7 26  1  0
  8 27  1  0
 10 28  1  0
 11 29  1  0
 13 30  1  0
 17 31  1  0
 18 32  1  0
 19 33  1  0
 22 34  1  0
M  END
>  <UniqueID>  (14) 
14

>  <SMILES>  (14) 
O=C(c1ccccc1)c1ccc(NC(=O)c2cccs2)nc1

>  <Energy>  (14) 
72.89488957973015

>  <Genealogy>  (14) 
O=C(c1ccccc1)c1ccc(NC(=O)c2cccs2)nc1 (3D coordinates assigned)
O=C(c1ccccc1)c1ccc(NC(=O)c2cccs2)nc1 (optimized conformer: 72.89488957973015 kcal/mol)

>  <smiles>  (14) 
O=C(c1ccccc1)c1ccc(NC(=O)c2cccs2)nc1

>  <score_type>  (14) 
oracle

>  <origin>  (14) 
adg

>  <m_score__min__energy>  (14) 
-7.7000000000000002

>  <m_primary>  (14) 
energy

$$$$
14:0
     RDKit          3D

 38 41  0  0  0  0  0  0  0  0999 V2000
   60.1237   28.4129   44.7391 H   0  0  0  0  0  0  0  0  0  0  0  0
   59.5420   28.7250   45.6190 C   0  0  0  0  0  0  0  0  0  0  0  0
   59.0940   27.7650   46.4500 C   0  0  0  0  0  0  0  0  0  0  0  0
   59.3950   27.7950   47.8640 C   0  0  0  0  0  0  0  0  0  0  0  0
   59.6370   27.8160   48.9960 N   0  0  0  0  0  0  0  0  0  0  0  0
   58.2160   26.6840   45.9480 C   0  0  0  0  0  0  0  0  0  0  0  0
   58.6470   25.6980   45.1150 N   0  0  0  0  0  0  0  0  0  0  0  0
   57.5410   24.9620   44.9340 C   0  0  0  0  0  0  0  0  0  0  0  0
   57.4010   23.8140   44.1620 C   0  0  0  0  0  0  0  0  0  0  0  0
   58.2532   23.3989   43.6039 H   0  0  0  0  0  0  0  0  0  0  0  0
   56.1270   23.1950   44.1160 C   0  0  0  0  0  0  0  0  0  0  0  0
   55.8960   22.0320   43.3620 O   0  0  0  0  0  0  0  0  0  0  0  0
   56.9100   21.1110   42.9740 C   0  0  0  0  0  0  0  0  0  0  0  0
   57.3804   20.6838   43.8719 H   0  0  0  0  0  0  0  0  0  0  0  0
   56.4627   20.3040   42.3752 H   0  0  0  0  0  0  0  0  0  0  0  0
   57.6704   21.6337   42.3752 H   0  0  0  0  0  0  0  0  0  0  0  0
   55.0420   23.7490   44.8450 C   0  0  0  0  0  0  0  0  0  0  0  0
   53.7970   23.1080   44.7740 O   0  0  0  0  0  0  0  0  0  0  0  0
   52.5420   23.7730   44.8830 C   0  0  0  0  0  0  0  0  0  0  0  0
   52.2891   23.9070   45.9451 H   0  0  0  0  0  0  0  0  0  0  0  0
   52.6044   24.7564   44.3940 H   0  0  0  0  0  0  0  0  0  0  0  0
   51.7634   23.1691   44.3940 H   0  0  0  0  0  0  0  0  0  0  0  0
   55.2360   24.9230   45.6170 C   0  0  0  0  0  0  0  0  0  0  0  0
   54.4081   25.3697   46.1872 H   0  0  0  0  0  0  0  0  0  0  0  0
   56.5050   25.4920   45.6310 C   0  0  0  0  0  0  0  0  0  0  0  0
   56.9020   26.5910   46.2890 N   0  0  0  0  0  0  0  0  0  0  0  0
   59.3030   30.1720   45.8120 C   0  0  0  0  0  0  0  0  0  0  0  0
   60.2640   30.9700   46.4710 C   0  0  0  0  0  0  0  0  0  0  0  0
   61.2046   30.5155   46.8155 H   0  0  0  0  0  0  0  0  0  0  0  0
   60.0300   32.3480   46.6930 C   0  0  0  0  0  0  0  0  0  0  0  0
   60.7973   32.9593   47.1906 H   0  0  0  0  0  0  0  0  0  0  0  0
   58.8210   32.9420   46.2810 C   0  0  0  0  0  0  0  0  0  0  0  0
   58.6238   34.0116   46.4456 H   0  0  0  0  0  0  0  0  0  0  0  0
   57.8870   32.1220   45.6580 C   0  0  0  0  0  0  0  0  0  0  0  0
   56.6560   32.4270   45.2250 N   0  0  0  0  0  0  0  0  0  0  0  0
   56.1830   31.2930   44.7680 O   0  0  0  0  0  0  0  0  0  0  0  0
   57.0090   30.2810   44.8740 N   0  0  0  0  0  0  0  0  0  0  0  0
   58.1100   30.8030   45.4350 C   0  0  0  0  0  0  0  0  0  0  0  0
  1  2  1  0
  2  3  2  0
  3  4  1  0
  4  5  3  0
  3  6  1  0
  6  7  2  0
  7  8  1  0
  8  9  2  0
  9 10  1  0
  9 11  1  0
 11 12  1  0
 12 13  1  0
 13 14  1  0
 13 15  1  0
 13 16  1  0
 11 17  2  0
 17 18  1  0
 18 19  1  0
 19 20  1  0
 19 21  1  0
 19 22  1  0
 17 23  1  0
 23 24  1  0
 23 25  2  0
 25 26  1  0
  2 27  1  0
 27 28  2  0
 28 29  1  0
 28 30  1  0
 30 31  1  0
 30 32  2  0
 32 33  1  0
 32 34  1  0
 34 35  2  0
 35 36  1  0
 36 37  1  0
 37 38  2  0
 26  6  1  0
 38 27  1  0
 25  8  1  0
 38 34  1  0
M  CHG  1  26  -1
M  END
>  <UniqueID>  (15) 
15

>  <SMILES>  (15) 
COc1cc2nc(/C(C#N)=C/c3cccc4nonc34)[n-]c2cc1OC

>  <Energy>  (15) 
124.99804613102314

>  <Genealogy>  (15) 
COc1cc2nc(C(C#N)=Cc3cccc4nonc34)[n-]c2cc1OC (protonated)
COc1cc2nc(/C(C#N)=C/c3cccc4nonc34)[n-]c2cc1OC (cis-trans isomerization)
COc1cc2nc(/C(C#N)=C/c3cccc4nonc34)[n-]c2cc1OC (3D coordinates assigned)
COc1cc2nc(/C(C#N)=C/c3cccc4nonc34)[n-]c2cc1OC (optimized conformer: 124.99804613102314 kcal/mol)

>  <smiles>  (15) 
COc1cc2nc(C(C#N)=Cc3cccc4nonc34)[nH]c2cc1OC

>  <score_type>  (15) 
oracle

>  <origin>  (15) 
adg

>  <m_score__min__energy>  (15) 
-9.6400000000000006

>  <m_primary>  (15) 
energy

$$$$
15:0
     RDKit          3D

 47 49  0  0  0  0  0  0  0  0999 V2000
   59.2540   35.2520   44.9000 C   0  0  0  0  0  0  0  0  0  0  0  0
   59.7000   35.3230   46.3600 C   0  0  0  0  0  0  0  0  0  0  0  0
   60.5040   34.0820   46.7750 C   0  0  0  0  0  0  0  0  0  0  0  0
   60.3440   33.7810   48.2170 N   0  0  0  0  0  0  0  0  0  0  0  0
   59.1520   32.9390   48.5130 C   0  0  0  0  0  0  0  0  0  0  0  0
   58.7470   32.0070   47.3870 C   0  0  0  0  0  0  0  0  0  0  0  0
   59.2780   30.7290   47.2110 C   0  0  0  0  0  0  0  0  0  0  0  0
   58.6760   30.2360   46.0780 C   0  0  0  0  0  0  0  0  0  0  0  0
   58.8530   29.0170   45.4260 C   0  0  0  0  0  0  0  0  0  0  0  0
   58.1100   28.7830   44.2550 C   0  0  0  0  0  0  0  0  0  0  0  0
   58.2960   27.2310   43.3750 S   0  0  0  0  0  0  0  0  0  0  0  0
   57.7300   26.2270   44.7840 C   0  0  0  0  0  0  0  0  0  0  0  0
   57.2140   29.7630   43.7730 C   0  0  0  0  0  0  0  0  0  0  0  0
   57.0560   30.9840   44.4530 C   0  0  0  0  0  0  0  0  0  0  0  0
   57.8060   31.1900   45.6160 C   0  0  0  0  0  0  0  0  0  0  0  0
   57.8170   32.2730   46.4250 N   0  0  0  0  0  0  0  0  0  0  0  0
   57.0150   33.4880   46.2540 C   0  0  0  0  0  0  0  0  0  0  0  0
   61.6040   33.2780   48.8080 C   0  0  0  0  0  0  0  0  0  0  0  0
   62.7670   33.3400   47.8010 C   0  0  0  0  0  0  0  0  0  0  0  0
   64.1450   32.9880   48.3460 C   0  0  0  0  0  0  0  0  0  0  0  0
   63.3970   31.9960   47.4680 C   0  0  0  0  0  0  0  0  0  0  0  0
   58.1685   35.0792   44.8562 H   0  0  0  0  0  0  0  0  0  0  0  0
   59.4950   36.1998   44.3965 H   0  0  0  0  0  0  0  0  0  0  0  0
   59.7774   34.4259   44.3965 H   0  0  0  0  0  0  0  0  0  0  0  0
   60.3281   36.2156   46.4968 H   0  0  0  0  0  0  0  0  0  0  0  0
   58.7991   35.3713   46.9894 H   0  0  0  0  0  0  0  0  0  0  0  0
   60.1541   33.2187   46.1899 H   0  0  0  0  0  0  0  0  0  0  0  0
   61.5682   34.2836   46.5833 H   0  0  0  0  0  0  0  0  0  0  0  0
   59.3737   32.3292   49.4012 H   0  0  0  0  0  0  0  0  0  0  0  0
   58.3101   33.6302   48.6661 H   0  0  0  0  0  0  0  0  0  0  0  0
   60.0211   30.2230   47.8448 H   0  0  0  0  0  0  0  0  0  0  0  0
   59.5518   28.2617   45.8150 H   0  0  0  0  0  0  0  0  0  0  0  0
   58.0102   26.7240   45.7244 H   0  0  0  0  0  0  0  0  0  0  0  0
   56.6365   26.1162   44.7395 H   0  0  0  0  0  0  0  0  0  0  0  0
   58.2013   25.2341   44.7395 H   0  0  0  0  0  0  0  0  0  0  0  0
   56.6349   29.5695   42.8580 H   0  0  0  0  0  0  0  0  0  0  0  0
   56.3636   31.7538   44.0816 H   0  0  0  0  0  0  0  0  0  0  0  0
   56.7477   33.8929   47.2412 H   0  0  0  0  0  0  0  0  0  0  0  0
   57.5973   34.2362   45.6962 H   0  0  0  0  0  0  0  0  0  0  0  0
   56.0981   33.2467   45.6962 H   0  0  0  0  0  0  0  0  0  0  0  0
   61.8575   33.8926   49.6843 H   0  0  0  0  0  0  0  0  0  0  0  0
   61.4536   32.2269   49.0954 H   0  0  0  0  0  0  0  0  0  0  0  0
   62.3565   34.1813   47.2233 H   0  0  0  0  0  0  0  0  0  0  0  0
   65.0374   33.5015   47.9588 H   0  0  0  0  0  0  0  0  0  0  0  0
   64.6000   32.9523   49.3468 H   0  0  0  0  0  0  0  0  0  0  0  0
   63.7490   31.7919   46.4460 H   0  0  0  0  0  0  0  0  0  0  0  0
   63.0876   30.9455   47.5715 H   0  0  0  0  0  0  0  0  0  0  0  0
  1  2  1  0
  2  3  1  0
  3  4  1  0
  4  5  1  0
  5  6  1  0
  6  7  2  0
  7  8  1  0
  8  9  2  0
  9 10  1  0
 10 11  1  0
 11 12  1  0
 10 13  2  0
 13 14  1  0
 14 15  2  0
 15 16  1  0
 16 17  1  0
  4 18  1  0
 18 19  1  0
 19 20  1  0
 20 21  1  0
 16  6  1  0
 21 19  1  0
 15  8  1  0
  1 22  1  0
  1 23  1  0
  1 24  1  0
  2 25  1  0
  2 26  1  0
  3 27  1  0
  3 28  1  0
  5 29  1  0
  5 30  1  0
  7 31  1  0
  9 32  1  0
 12 33  1  0
 12 34  1  0
 12 35  1  0
 13 36  1  0
 14 37  1  0
 17 38  1  0
 17 39  1  0
 17 40  1  0
 18 41  1  0
 18 42  1  0
 19 43  1  0
 20 44  1  0
 20 45  1  0
 21 46  1  0
 21 47  1  0
M  END
>  <UniqueID>  (16) 
16

>  <SMILES>  (16) 
CCCN(Cc1cc2cc(SC)ccc2n1C)CC1CC1

>  <Energy>  (16) 
341.8002044918386

>  <Genealogy>  (16) 
CCCN(Cc1cc2cc(SC)ccc2n1C)CC1CC1 (3D coordinates assigned)
CCCN(Cc1cc2cc(SC)ccc2n1C)CC1CC1 (nonaromatic ring conformer: 341.8002044918386 kcal/mol)

>  <smiles>  (16) 
CCCN(Cc1cc2cc(SC)ccc2n1C)CC1CC1

>  <score_type>  (16) 
oracle

>  <origin>  (16) 
adg

>  <m_score__min__energy>  (16) 
-7

>  <m_primary>  (16) 
energy

$$$$
16:0
     RDKit          3D

 45 45  0  0  0  0  0  0  0  0999 V2000
   62.1030   32.9340   47.0930 C   0  0  0  0  0  0  0  0  0  0  0  0
   60.8060   33.2630   46.3440 C   0  0  0  0  0  0  0  0  0  0  0  0
   59.6240   32.5230   46.8590 N   0  0  0  0  0  0  0  0  0  0  0  0
   59.9380   31.6530   48.0280 C   0  0  0  0  0  0  0  0  0  0  0  0
   58.8830   30.5820   48.3390 C   0  0  0  0  0  0  0  0  0  0  0  0
   58.5180   33.4870   47.1140 C   0  0  0  0  0  0  0  0  0  0  0  0
   58.0090   34.2440   45.8650 C   0  0  0  0  0  0  0  0  0  0  0  0
   57.3610   33.3450   44.8060 C   0  0  0  0  0  0  0  0  0  0  0  0
   57.2560   31.9720   45.2980 N   0  0  0  0  0  0  0  0  0  0  0  0
   57.1600   30.9150   44.5480 C   0  0  0  0  0  0  0  0  0  0  0  0
   57.4740   29.5550   45.0370 C   0  0  0  0  0  0  0  0  0  0  0  0
   56.4630   28.6150   45.2270 C   0  0  0  0  0  0  0  0  0  0  0  0
   55.1510   28.9650   44.9140 O   0  0  0  0  0  0  0  0  0  0  0  0
   56.7590   27.3640   45.7000 N   0  0  0  0  0  0  0  0  0  0  0  0
   55.6680   26.3910   45.9130 C   0  0  0  0  0  0  0  0  0  0  0  0
   58.0710   27.0110   45.9480 C   0  0  0  0  0  0  0  0  0  0  0  0
   58.4270   25.4830   46.4910 S   0  0  0  0  0  0  0  0  0  0  0  0
   59.0880   27.9220   45.7400 N   0  0  0  0  0  0  0  0  0  0  0  0
   60.4920   27.5440   46.0050 C   0  0  0  0  0  0  0  0  0  0  0  0
   58.7950   29.1840   45.2890 C   0  0  0  0  0  0  0  0  0  0  0  0
   59.7140   30.0310   45.1020 O   0  0  0  0  0  0  0  0  0  0  0  0
   61.9221   32.9799   48.1771 H   0  0  0  0  0  0  0  0  0  0  0  0
   62.4378   31.9225   46.8196 H   0  0  0  0  0  0  0  0  0  0  0  0
   62.8795   33.6636   46.8196 H   0  0  0  0  0  0  0  0  0  0  0  0
   60.6115   34.3414   46.4402 H   0  0  0  0  0  0  0  0  0  0  0  0
   60.9492   32.9587   45.2967 H   0  0  0  0  0  0  0  0  0  0  0  0
   59.3140   31.8940   46.0810 H   0  0  0  0  0  0  0  0  0  0  0  0
   60.8927   31.1443   47.8286 H   0  0  0  0  0  0  0  0  0  0  0  0
   59.9724   32.3158   48.9052 H   0  0  0  0  0  0  0  0  0  0  0  0
   58.7785   30.4759   49.4289 H   0  0  0  0  0  0  0  0  0  0  0  0
   57.9175   30.8816   47.9055 H   0  0  0  0  0  0  0  0  0  0  0  0
   59.1971   29.6211   47.9055 H   0  0  0  0  0  0  0  0  0  0  0  0
   57.6723   32.9300   47.5435 H   0  0  0  0  0  0  0  0  0  0  0  0
   58.9268   34.2515   47.7911 H   0  0  0  0  0  0  0  0  0  0  0  0
   57.2644   34.9853   46.1906 H   0  0  0  0  0  0  0  0  0  0  0  0
   58.8900   34.7036   45.3932 H   0  0  0  0  0  0  0  0  0  0  0  0
   56.3550   33.7250   44.5744 H   0  0  0  0  0  0  0  0  0  0  0  0
   57.9857   33.3528   43.9006 H   0  0  0  0  0  0  0  0  0  0  0  0
   56.8313   31.0370   43.5054 H   0  0  0  0  0  0  0  0  0  0  0  0
   55.5088   26.2490   46.9921 H   0  0  0  0  0  0  0  0  0  0  0  0
   54.7436   26.7700   45.4527 H   0  0  0  0  0  0  0  0  0  0  0  0
   55.9392   25.4294   45.4527 H   0  0  0  0  0  0  0  0  0  0  0  0
   60.6608   27.4986   47.0910 H   0  0  0  0  0  0  0  0  0  0  0  0
   60.6966   26.5588   45.5606 H   0  0  0  0  0  0  0  0  0  0  0  0
   61.1636   28.2933   45.5606 H   0  0  0  0  0  0  0  0  0  0  0  0
  1  2  1  0
  2  3  1  0
  3  4  1  0
  4  5  1  0
  3  6  1  0
  6  7  1  0
  7  8  1  0
  8  9  1  0
  9 10  2  3
 10 11  1  0
 11 12  2  0
 12 13  1  0
 12 14  1  0
 14 15  1  0
 14 16  1  0
 16 17  2  0
 16 18  1  0
 18 19  1  0
 18 20  1  0
 20 21  2  0
 20 11  1  0
  1 22  1  0
  1 23  1  0
  1 24  1  0
  2 25  1  0
  2 26  1  0
  3 27  1  0
  4 28  1  0
  4 29  1  0
  5 30  1  0
  5 31  1  0
  5 32  1  0
  6 33  1  0
  6 34  1  0
  7 35  1  0
  7 36  1  0
  8 37  1  0
  8 38  1  0
 10 39  1  0
 15 40  1  0
 15 41  1  0
 15 42  1  0
 19 43  1  0
 19 44  1  0
 19 45  1  0
M  CHG  2   3   1  13  -1
M  END
>  <UniqueID>  (17) 
17

>  <SMILES>  (17) 
CC[NH+](CC)CCCN=Cc1c([O-])n(C)c(=S)n(C)c1=O

>  <Energy>  (17) 
63.851134900460735

>  <Genealogy>  (17) 
CC[NH+](CC)CCCN=Cc1c([O-])n(C)c(=S)n(C)c1=O (protonated)
CC[NH+](CC)CCCN=Cc1c([O-])n(C)c(=S)n(C)c1=O (3D coordinates assigned)
CC[NH+](CC)CCCN=Cc1c([O-])n(C)c(=S)n(C)c1=O (optimized conformer: 63.851134900460735 kcal/mol)

>  <smiles>  (17) 
CCN(CC)CCCN=Cc1c(O)n(C)c(=S)n(C)c1=O

>  <score_type>  (17) 
oracle

>  <origin>  (17) 
adg

>  <m_score__min__energy>  (17) 
-7.46

>  <m_primary>  (17) 
energy

$$$$
17:0
     RDKit          3D

 38 41  0  0  0  0  0  0  0  0999 V2000
   56.6390   26.9940   45.7000 C   0  0  0  0  0  0  0  0  0  0  0  0
   55.9300   28.1440   45.2500 O   0  0  0  0  0  0  0  0  0  0  0  0
   56.5400   29.3040   44.7440 C   0  0  0  0  0  0  0  0  0  0  0  0
   56.3280   29.7540   43.4290 C   0  0  0  0  0  0  0  0  0  0  0  0
   56.9590   30.9140   42.9750 C   0  0  0  0  0  0  0  0  0  0  0  0
   57.8040   31.6340   43.8220 C   0  0  0  0  0  0  0  0  0  0  0  0
   58.0290   31.1990   45.1410 C   0  0  0  0  0  0  0  0  0  0  0  0
   58.9240   31.9530   46.0490 C   0  0  0  0  0  0  0  0  0  0  0  0
   60.0470   31.4190   46.5960 N   0  0  0  0  0  0  0  0  0  0  0  0
   60.6880   32.3160   47.3900 C   0  0  0  0  0  0  0  0  0  0  0  0
   61.8680   32.0500   48.0830 C   0  0  0  0  0  0  0  0  0  0  0  0
   62.4400   33.0650   48.8840 C   0  0  0  0  0  0  0  0  0  0  0  0
   63.6970   32.8010   49.6260 C   0  0  0  0  0  0  0  0  0  0  0  0
   64.8490   32.6690   49.0610 N   0  0  0  0  0  0  0  0  0  0  0  0
   65.8850   32.4330   50.0570 C   0  0  0  0  0  0  0  0  0  0  0  0
   65.1400   32.4290   51.4010 C   0  0  0  0  0  0  0  0  0  0  0  0
   63.7590   32.6830   51.0360 N   0  0  0  0  0  0  0  0  0  0  0  0
   61.8060   34.3310   48.9600 C   0  0  0  0  0  0  0  0  0  0  0  0
   60.6180   34.5810   48.2540 C   0  0  0  0  0  0  0  0  0  0  0  0
   60.0860   33.5570   47.4810 C   0  0  0  0  0  0  0  0  0  0  0  0
   58.6980   33.5630   46.5420 S   0  0  0  0  0  0  0  0  0  0  0  0
   57.3890   30.0290   45.5890 C   0  0  0  0  0  0  0  0  0  0  0  0
   56.6496   26.9769   46.7998 H   0  0  0  0  0  0  0  0  0  0  0  0
   56.1430   26.0870   45.3239 H   0  0  0  0  0  0  0  0  0  0  0  0
   57.6721   27.0297   45.3239 H   0  0  0  0  0  0  0  0  0  0  0  0
   55.6638   29.1912   42.7566 H   0  0  0  0  0  0  0  0  0  0  0  0
   56.7896   31.2622   41.9454 H   0  0  0  0  0  0  0  0  0  0  0  0
   58.2967   32.5468   43.4558 H   0  0  0  0  0  0  0  0  0  0  0  0
   62.3479   31.0631   48.0076 H   0  0  0  0  0  0  0  0  0  0  0  0
   65.0360   32.7520   48.0370 H   0  0  0  0  0  0  0  0  0  0  0  0
   66.3769   31.4646   49.8832 H   0  0  0  0  0  0  0  0  0  0  0  0
   66.6771   33.1954   50.0224 H   0  0  0  0  0  0  0  0  0  0  0  0
   65.2397   31.4541   51.9007 H   0  0  0  0  0  0  0  0  0  0  0  0
   65.5357   33.1738   52.1072 H   0  0  0  0  0  0  0  0  0  0  0  0
   62.9520   32.6930   51.6990 H   0  0  0  0  0  0  0  0  0  0  0  0
   62.2492   35.1255   49.5783 H   0  0  0  0  0  0  0  0  0  0  0  0
   60.1222   35.5613   48.3117 H   0  0  0  0  0  0  0  0  0  0  0  0
   57.5580   29.6787   46.6180 H   0  0  0  0  0  0  0  0  0  0  0  0
  1  2  1  0
  2  3  1  0
  3  4  2  0
  4  5  1  0
  5  6  2  0
  6  7  1  0
  7  8  1  0
  8  9  2  0
  9 10  1  0
 10 11  2  0
 11 12  1  0
 12 13  1  0
 13 14  2  0
 14 15  1  0
 15 16  1  0
 16 17  1  0
 12 18  2  0
 18 19  1  0
 19 20  2  0
 20 21  1  0
  7 22  2  0
 22  3  1  0
 21  8  1  0
 20 10  1  0
 17 13  1  0
  1 23  1  0
  1 24  1  0
  1 25  1  0
  4 26  1  0
  5 27  1  0
  6 28  1  0
 11 29  1  0
 14 30  1  0
 15 31  1  0
 15 32  1  0
 16 33  1  0
 16 34  1  0
 17 35  1  0
 18 36  1  0
 19 37  1  0
 22 38  1  0
M  CHG  1  14   1
M  END
>  <UniqueID>  (18) 
18

>  <SMILES>  (18) 
COc1cccc(-c2nc3cc(C4=[NH+]CCN4)ccc3s2)c1

>  <Energy>  (18) 
89.85988313818845

>  <Genealogy>  (18) 
COc1cccc(-c2nc3cc(C4=[NH+]CCN4)ccc3s2)c1 (protonated)
COc1cccc(-c2nc3cc(C4=[NH+]CCN4)ccc3s2)c1 (3D coordinates assigned)
COc1cccc(-c2nc3cc(C4=[NH+]CCN4)ccc3s2)c1 (nonaromatic ring conformer: 89.85988313818845 kcal/mol)

>  <smiles>  (18) 
COc1cccc(-c2nc3cc(C4=NCCN4)ccc3s2)c1

>  <score_type>  (18) 
oracle

>  <origin>  (18) 
adg

>  <m_score__min__energy>  (18) 
-6.6100000000000003

>  <m_primary>  (18) 
energy

$$$$
18:0
     RDKit          3D

 57 60  0  0  0  0  0  0  0  0999 V2000
   56.6610   30.8020   42.2330 C   0  0  0  0  0  0  0  0  0  0  0  0
   56.7170   29.5870   43.1560 C   0  0  0  0  0  0  0  0  0  0  0  0
   57.4350   29.9120   44.4050 N   0  0  0  0  0  0  0  0  0  0  0  0
   57.7240   31.2320   44.6290 C   0  0  0  0  0  0  0  0  0  0  0  0
   58.4120   31.6480   45.7720 C   0  0  0  0  0  0  0  0  0  0  0  0
   58.7790   33.3610   46.0260 S   0  0  0  0  0  0  0  0  0  0  0  0
   59.2950   33.9520   44.7430 O   0  0  0  0  0  0  0  0  0  0  0  0
   57.5220   34.0850   46.4210 O   0  0  0  0  0  0  0  0  0  0  0  0
   59.9870   33.5910   47.2910 C   0  0  0  0  0  0  0  0  0  0  0  0
   61.3470   33.6550   46.9630 C   0  0  0  0  0  0  0  0  0  0  0  0
   62.3130   33.8040   47.9680 C   0  0  0  0  0  0  0  0  0  0  0  0
   63.7710   33.8220   47.6160 C   0  0  0  0  0  0  0  0  0  0  0  0
   61.9110   33.8580   49.3120 C   0  0  0  0  0  0  0  0  0  0  0  0
   60.5500   33.8040   49.6480 C   0  0  0  0  0  0  0  0  0  0  0  0
   60.1270   33.8230   51.0870 C   0  0  0  0  0  0  0  0  0  0  0  0
   59.5920   33.6560   48.6340 C   0  0  0  0  0  0  0  0  0  0  0  0
   58.8020   30.6940   46.7160 C   0  0  0  0  0  0  0  0  0  0  0  0
   59.4290   31.0570   47.7500 O   0  0  0  0  0  0  0  0  0  0  0  0
   58.4910   29.3400   46.5120 C   0  0  0  0  0  0  0  0  0  0  0  0
   58.8650   28.3670   47.4570 C   0  0  0  0  0  0  0  0  0  0  0  0
   58.5400   27.0260   47.2660 C   0  0  0  0  0  0  0  0  0  0  0  0
   58.9420   26.1080   48.1800 F   0  0  0  0  0  0  0  0  0  0  0  0
   57.8260   26.6290   46.1290 C   0  0  0  0  0  0  0  0  0  0  0  0
   57.4860   25.2450   45.9350 N   0  0  0  0  0  0  0  0  0  0  0  0
   56.1320   24.7620   46.2310 C   0  0  0  0  0  0  0  0  0  0  0  0
   56.1800   23.4450   47.0320 C   0  0  0  0  0  0  0  0  0  0  0  0
   57.4180   22.6640   46.8280 N   0  0  0  0  0  0  0  0  0  0  0  0
   58.0010   22.8720   45.4970 C   0  0  0  0  0  0  0  0  0  0  0  0
   58.4610   24.3270   45.3370 C   0  0  0  0  0  0  0  0  0  0  0  0
   57.4560   27.5870   45.1750 C   0  0  0  0  0  0  0  0  0  0  0  0
   57.7850   28.9540   45.3390 C   0  0  0  0  0  0  0  0  0  0  0  0
   56.6187   31.7200   42.8375 H   0  0  0  0  0  0  0  0  0  0  0  0
   57.5592   30.8220   41.5983 H   0  0  0  0  0  0  0  0  0  0  0  0
   55.7648   30.7393   41.5983 H   0  0  0  0  0  0  0  0  0  0  0  0
   55.6919   29.2719   43.4005 H   0  0  0  0  0  0  0  0  0  0  0  0
   57.2532   28.7764   42.6409 H   0  0  0  0  0  0  0  0  0  0  0  0
   57.4066   31.9833   43.8909 H   0  0  0  0  0  0  0  0  0  0  0  0
   61.6592   33.5879   45.9104 H   0  0  0  0  0  0  0  0  0  0  0  0
   64.3707   33.8294   48.5381 H   0  0  0  0  0  0  0  0  0  0  0  0
   64.0168   32.9268   47.0259 H   0  0  0  0  0  0  0  0  0  0  0  0
   63.9946   34.7230   47.0259 H   0  0  0  0  0  0  0  0  0  0  0  0
   62.6674   33.9431   50.1061 H   0  0  0  0  0  0  0  0  0  0  0  0
   61.0175   33.7830   51.7315 H   0  0  0  0  0  0  0  0  0  0  0  0
   59.5669   34.7472   51.2924 H   0  0  0  0  0  0  0  0  0  0  0  0
   59.4863   32.9527   51.2924 H   0  0  0  0  0  0  0  0  0  0  0  0
   58.5253   33.5906   48.8944 H   0  0  0  0  0  0  0  0  0  0  0  0
   59.4205   28.6688   48.3572 H   0  0  0  0  0  0  0  0  0  0  0  0
   55.5992   25.5227   46.8204 H   0  0  0  0  0  0  0  0  0  0  0  0
   55.6097   24.5765   45.2809 H   0  0  0  0  0  0  0  0  0  0  0  0
   56.0957   23.6871   48.1017 H   0  0  0  0  0  0  0  0  0  0  0  0
   55.3473   22.8225   46.6726 H   0  0  0  0  0  0  0  0  0  0  0  0
   58.1220   22.9520   47.5480 H   0  0  0  0  0  0  0  0  0  0  0  0
   58.8648   22.2027   45.3708 H   0  0  0  0  0  0  0  0  0  0  0  0
   57.2388   22.6525   44.7349 H   0  0  0  0  0  0  0  0  0  0  0  0
   59.4326   24.4560   45.8363 H   0  0  0  0  0  0  0  0  0  0  0  0
   58.5513   24.5547   44.2646 H   0  0  0  0  0  0  0  0  0  0  0  0
   56.8988   27.2702   44.2810 H   0  0  0  0  0  0  0  0  0  0  0  0
  1  2  1  0
  2  3  1  0
  3  4  1  0
  4  5  2  0
  5  6  1  0
  6  7  2  0
  6  8  2  0
  6  9  1  0
  9 10  2  0
 10 11  1  0
 11 12  1  0
 11 13  2  0
 13 14  1  0
 14 15  1  0
 14 16  2  0
  5 17  1  0
 17 18  2  0
 17 19  1  0
 19 20  2  0
 20 21  1  0
 21 22  1  0
 21 23  2  0
 23 24  1  0
 24 25  1  0
 25 26  1  0
 26 27  1  0
 27 28  1  0
 28 29  1  0
 23 30  1  0
 30 31  2  0
 31  3  1  0
 16  9  1  0
 31 19  1  0
 29 24  1  0
  1 32  1  0
  1 33  1  0
  1 34  1  0
  2 35  1  0
  2 36  1  0
  4 37  1  0
 10 38  1  0
 12 39  1  0
 12 40  1  0
 12 41  1  0
 13 42  1  0
 15 43  1  0
 15 44  1  0
 15 45  1  0
 16 46  1  0
 20 47  1  0
 25 48  1  0
 25 49  1  0
 26 50  1  0
 26 51  1  0
 27 52  1  0
 28 53  1  0
 28 54  1  0
 29 55  1  0
 29 56  1  0
 30 57  1  0
M  END
>  <UniqueID>  (19) 
19

>  <SMILES>  (19) 
CCn1cc(S(=O)(=O)c2cc(C)cc(C)c2)c(=O)c2cc(F)c(N3CCNCC3)cc21

>  <Energy>  (19) 
77.48465580719999

>  <Genealogy>  (19) 
CCn1cc(S(=O)(=O)c2cc(C)cc(C)c2)c(=O)c2cc(F)c(N3CCNCC3)cc21 (3D coordinates assigned)
CCn1cc(S(=O)(=O)c2cc(C)cc(C)c2)c(=O)c2cc(F)c(N3CCNCC3)cc21 (nonaromatic ring conformer: 77.48465580719999 kcal/mol)

>  <smiles>  (19) 
CCn1cc(S(=O)(=O)c2cc(C)cc(C)c2)c(=O)c2cc(F)c(N3CCNCC3)cc21

>  <score_type>  (19) 
oracle

>  <origin>  (19) 
adg

>  <m_score__min__energy>  (19) 
-9.1300000000000008

>  <m_primary>  (19) 
energy

$$$$
19:0
     RDKit          3D

 42 42  0  0  0  0  0  0  0  0999 V2000
   59.8230   34.5190   47.3490 C   0  0  0  0  0  0  0  0  0  0  0  0
   59.3110   34.6760   45.9200 C   0  0  0  0  0  0  0  0  0  0  0  0
   57.8820   34.1390   45.7830 C   0  0  0  0  0  0  0  0  0  0  0  0
   57.7740   32.7100   46.3330 C   0  0  0  0  0  0  0  0  0  0  0  0
   57.4970   31.7170   45.2640 N   0  0  0  0  0  0  0  0  0  0  0  0
   57.6570   32.3510   43.9420 C   0  0  0  0  0  0  0  0  0  0  0  0
   58.2400   30.4140   45.3290 C   0  0  1  0  0  0  0  0  0  0  0  0
   59.0850   30.2110   46.6140 C   0  0  0  0  0  0  0  0  0  0  0  0
   59.8440   28.8780   46.5630 C   0  0  0  0  0  0  0  0  0  0  0  0
   58.9390   27.6700   46.2270 C   0  0  0  0  0  0  0  0  0  0  0  0
   57.4660   28.0460   46.0130 C   0  0  0  0  0  0  0  0  0  0  0  0
   57.3180   29.1890   44.9940 C   0  0  1  0  0  0  0  0  0  0  0  0
   55.9480   29.5570   44.9340 O   0  0  0  0  0  0  0  0  0  0  0  0
   55.5030   29.7130   43.5990 C   0  0  0  0  0  0  0  0  0  0  0  0
   56.6330   29.3980   42.6250 C   0  0  0  0  0  0  0  0  0  0  0  0
   59.0176   34.7660   48.0563 H   0  0  0  0  0  0  0  0  0  0  0  0
   60.1470   33.4802   47.5104 H   0  0  0  0  0  0  0  0  0  0  0  0
   60.6736   35.1976   47.5104 H   0  0  0  0  0  0  0  0  0  0  0  0
   59.3214   35.7423   45.6499 H   0  0  0  0  0  0  0  0  0  0  0  0
   59.9660   34.1005   45.2493 H   0  0  0  0  0  0  0  0  0  0  0  0
   57.1973   34.7925   46.3435 H   0  0  0  0  0  0  0  0  0  0  0  0
   57.6150   34.1240   44.7160 H   0  0  0  0  0  0  0  0  0  0  0  0
   58.7225   32.4467   46.8239 H   0  0  0  0  0  0  0  0  0  0  0  0
   56.9348   32.6842   47.0437 H   0  0  0  0  0  0  0  0  0  0  0  0
   57.9242   33.4100   44.0731 H   0  0  0  0  0  0  0  0  0  0  0  0
   58.4539   31.8382   43.3834 H   0  0  0  0  0  0  0  0  0  0  0  0
   56.7122   32.2777   43.3834 H   0  0  0  0  0  0  0  0  0  0  0  0
   58.9925   30.4749   44.5290 H   0  0  0  0  0  0  0  0  0  0  0  0
   59.8086   31.0347   46.7035 H   0  0  0  0  0  0  0  0  0  0  0  0
   58.4092   30.1986   47.4818 H   0  0  0  0  0  0  0  0  0  0  0  0
   60.6273   28.9517   45.7942 H   0  0  0  0  0  0  0  0  0  0  0  0
   60.2615   28.7028   47.5655 H   0  0  0  0  0  0  0  0  0  0  0  0
   59.3149   27.1992   45.3066 H   0  0  0  0  0  0  0  0  0  0  0  0
   58.9759   26.9894   47.0904 H   0  0  0  0  0  0  0  0  0  0  0  0
   56.9223   27.1644   45.6427 H   0  0  0  0  0  0  0  0  0  0  0  0
   57.0533   28.3854   46.9745 H   0  0  0  0  0  0  0  0  0  0  0  0
   57.6512   28.8374   44.0064 H   0  0  0  0  0  0  0  0  0  0  0  0
   54.6627   29.0276   43.4140 H   0  0  0  0  0  0  0  0  0  0  0  0
   55.1802   30.7537   43.4484 H   0  0  0  0  0  0  0  0  0  0  0  0
   57.5429   29.1444   43.1887 H   0  0  0  0  0  0  0  0  0  0  0  0
   56.3445   28.5460   41.9918 H   0  0  0  0  0  0  0  0  0  0  0  0
   56.8268   30.2764   41.9918 H   0  0  0  0  0  0  0  0  0  0  0  0
  1  2  1  0
  2  3  1  0
  3  4  1  0
  4  5  1  0
  5  6  1  0
  5  7  1  0
  7  8  1  0
  8  9  1  0
  9 10  1  0
 10 11  1  0
 11 12  1  0
 12 13  1  0
 13 14  1  0
 14 15  1  0
 12  7  1  0
  1 16  1  0
  1 17  1  0
  1 18  1  0
  2 19  1  0
  2 20  1  0
  3 21  1  0
  3 22  1  0
  4 23  1  0
  4 24  1  0
  6 25  1  0
  6 26  1  0
  6 27  1  0
  7 28  1  6
  8 29  1  0
  8 30  1  0
  9 31  1  0
  9 32  1  0
 10 33  1  0
 10 34  1  0
 11 35  1  0
 11 36  1  0
 12 37  1  6
 14 38  1  0
 14 39  1  0
 15 40  1  0
 15 41  1  0
 15 42  1  0
M  END
>  <UniqueID>  (20) 
20

>  <SMILES>  (20) 
CCCCN(C)[C@H]1CCCC[C@H]1OCC

>  <Energy>  (20) 
46.9749326292533

>  <Genealogy>  (20) 
CCCCN(C)[C@H]1CCCC[C@H]1OCC (chirality)
CCCCN(C)[C@H]1CCCC[C@H]1OCC (3D coordinates assigned)
CCCCN(C)[C@H]1CCCC[C@H]1OCC (nonaromatic ring conformer: 46.9749326292533 kcal/mol)

>  <smiles>  (20) 
CCCCN(C)C1CCCCC1OCC

>  <score_type>  (20) 
oracle

>  <origin>  (20) 
adg

>  <m_score__min__energy>  (20) 
-6.1399999999999997

>  <m_primary>  (20) 
energy

$$$$
20:0
     RDKit          3D

 37 39  0  0  0  0  0  0  0  0999 V2000
   56.6040   23.1080   43.8040 C   0  0  0  0  0  0  0  0  0  0  0  0
   56.5250   23.4500   45.2870 C   0  0  0  0  0  0  0  0  0  0  0  0
   56.2940   24.9150   45.4780 C   0  0  0  0  0  0  0  0  0  0  0  0
   55.1420   25.4350   45.9430 N   0  0  0  0  0  0  0  0  0  0  0  0
   55.3600   26.7120   46.0140 O   0  0  0  0  0  0  0  0  0  0  0  0
   56.5830   26.9750   45.6240 C   0  0  0  0  0  0  0  0  0  0  0  0
   57.1600   28.3270   45.5850 C   0  0  0  0  0  0  0  0  0  0  0  0
   56.8550   29.2200   44.5540 C   0  0  0  0  0  0  0  0  0  0  0  0
   57.4270   30.4890   44.5620 C   0  0  0  0  0  0  0  0  0  0  0  0
   58.2910   30.8510   45.6040 C   0  0  0  0  0  0  0  0  0  0  0  0
   58.9140   32.1500   45.6270 N   0  0  0  0  0  0  0  0  0  0  0  0
   60.0660   32.4230   46.4970 C   0  0  0  0  0  0  0  0  0  0  0  0
   59.7660   33.6070   47.4300 C   0  0  0  0  0  0  0  0  0  0  0  0
   58.9040   34.7050   46.7690 C   0  0  0  0  0  0  0  0  0  0  0  0
   58.8940   34.6060   45.2380 C   0  0  0  0  0  0  0  0  0  0  0  0
   58.3680   33.2330   44.7940 C   0  0  0  0  0  0  0  0  0  0  0  0
   58.5630   29.9360   46.5800 N   0  0  0  0  0  0  0  0  0  0  0  0
   58.0110   28.7210   46.5680 N   0  0  0  0  0  0  0  0  0  0  0  0
   57.2420   25.8530   45.2720 N   0  0  0  0  0  0  0  0  0  0  0  0
   56.8501   22.0424   43.6861 H   0  0  0  0  0  0  0  0  0  0  0  0
   55.6343   23.3152   43.3278 H   0  0  0  0  0  0  0  0  0  0  0  0
   57.3845   23.7195   43.3278 H   0  0  0  0  0  0  0  0  0  0  0  0
   55.6949   22.8907   45.7432 H   0  0  0  0  0  0  0  0  0  0  0  0
   57.4769   23.1759   45.7652 H   0  0  0  0  0  0  0  0  0  0  0  0
   56.1707   28.9234   43.7454 H   0  0  0  0  0  0  0  0  0  0  0  0
   57.2023   31.2028   43.7558 H   0  0  0  0  0  0  0  0  0  0  0  0
   60.2821   31.5305   47.1025 H   0  0  0  0  0  0  0  0  0  0  0  0
   60.9341   32.6746   45.8701 H   0  0  0  0  0  0  0  0  0  0  0  0
   59.2310   33.2281   48.3133 H   0  0  0  0  0  0  0  0  0  0  0  0
   60.7305   34.0656   47.6934 H   0  0  0  0  0  0  0  0  0  0  0  0
   57.8710   34.6098   47.1349 H   0  0  0  0  0  0  0  0  0  0  0  0
   59.3414   35.6781   47.0369 H   0  0  0  0  0  0  0  0  0  0  0  0
   58.2440   35.3931   44.8281 H   0  0  0  0  0  0  0  0  0  0  0  0
   59.9213   34.7322   44.8654 H   0  0  0  0  0  0  0  0  0  0  0  0
   57.2710   33.2275   44.8749 H   0  0  0  0  0  0  0  0  0  0  0  0
   58.6854   33.0619   43.7548 H   0  0  0  0  0  0  0  0  0  0  0  0
   59.2010   30.1840   47.3680 H   0  0  0  0  0  0  0  0  0  0  0  0
  1  2  1  0
  2  3  1  0
  3  4  2  0
  4  5  1  0
  5  6  1  0
  6  7  1  0
  7  8  2  0
  8  9  1  0
  9 10  2  0
 10 11  1  0
 11 12  1  0
 12 13  1  0
 13 14  1  0
 14 15  1  0
 15 16  1  0
 10 17  1  0
 17 18  2  0
  6 19  2  0
 19  3  1  0
 18  7  1  0
 16 11  1  0
  1 20  1  0
  1 21  1  0
  1 22  1  0
  2 23  1  0
  2 24  1  0
  8 25  1  0
  9 26  1  0
 12 27  1  0
 12 28  1  0
 13 29  1  0
 13 30  1  0
 14 31  1  0
 14 32  1  0
 15 33  1  0
 15 34  1  0
 16 35  1  0
 16 36  1  0
 17 37  1  0
M  CHG  1  17   1
M  END
>  <UniqueID>  (21) 
21

>  <SMILES>  (21) 
CCc1noc(-c2ccc(N3CCCCC3)[nH+]n2)n1

>  <Energy>  (21) 
71.46117992767557

>  <Genealogy>  (21) 
CCc1noc(-c2ccc(N3CCCCC3)[nH+]n2)n1 (protonated)
CCc1noc(-c2ccc(N3CCCCC3)[nH+]n2)n1 (3D coordinates assigned)
CCc1noc(-c2ccc(N3CCCCC3)[nH+]n2)n1 (nonaromatic ring conformer: 71.46117992767557 kcal/mol)

>  <smiles>  (21) 
CCc1noc(-c2ccc(N3CCCCC3)nn2)n1

>  <score_type>  (21) 
oracle

>  <origin>  (21) 
adg

>  <m_score__min__energy>  (21) 
-5.9400000000000004

>  <m_primary>  (21) 
energy

$$$$
21:0
     RDKit          3D

 44 47  0  0  0  0  0  0  0  0999 V2000
   59.6940   32.8690   49.7270 O   0  0  0  0  0  0  0  0  0  0  0  0
   60.2630   32.8950   48.6010 C   0  0  0  0  0  0  0  0  0  0  0  0
   59.5270   32.4190   47.4100 C   0  0  0  0  0  0  0  0  0  0  0  0
   59.5930   31.0740   47.0180 C   0  0  0  0  0  0  0  0  0  0  0  0
   58.9100   30.6300   45.8820 C   0  0  0  0  0  0  0  0  0  0  0  0
   58.1510   31.5290   45.1070 C   0  0  0  0  0  0  0  0  0  0  0  0
   57.4400   31.0890   43.9320 N   0  0  0  0  0  0  0  0  0  0  0  0
   57.4650   31.6000   42.6830 C   0  0  0  0  0  0  0  0  0  0  0  0
   56.6490   30.8920   41.8790 N   0  0  0  0  0  0  0  0  0  0  0  0
   56.1390   29.9540   42.6640 N   0  0  0  0  0  0  0  0  0  0  0  0
   56.6060   30.0640   43.8960 N   0  0  0  0  0  0  0  0  0  0  0  0
   58.1010   32.8780   45.4960 C   0  0  0  0  0  0  0  0  0  0  0  0
   58.7850   33.3210   46.6300 C   0  0  0  0  0  0  0  0  0  0  0  0
   61.6160   33.3740   48.5040 N   0  0  0  0  0  0  0  0  0  0  0  0
   62.0480   34.5230   49.3110 C   0  0  0  0  0  0  0  0  0  0  0  0
   63.2240   34.1190   50.2090 C   0  0  0  0  0  0  0  0  0  0  0  0
   64.2060   33.3030   49.4760 N   0  0  0  0  0  0  0  0  0  0  0  0
   65.2810   32.6700   50.1950 C   0  0  0  0  0  0  0  0  0  0  0  0
   66.5340   33.3000   50.3030 C   0  0  0  0  0  0  0  0  0  0  0  0
   67.5740   32.6890   51.0120 C   0  0  0  0  0  0  0  0  0  0  0  0
   67.3710   31.4480   51.6210 C   0  0  0  0  0  0  0  0  0  0  0  0
   68.3800   30.8570   52.3090 F   0  0  0  0  0  0  0  0  0  0  0  0
   66.1280   30.8170   51.5260 C   0  0  0  0  0  0  0  0  0  0  0  0
   65.0870   31.4250   50.8180 C   0  0  0  0  0  0  0  0  0  0  0  0
   64.0350   33.0810   48.0330 C   0  0  0  0  0  0  0  0  0  0  0  0
   62.6120   32.5910   47.7510 C   0  0  0  0  0  0  0  0  0  0  0  0
   60.1874   30.3622   47.6097 H   0  0  0  0  0  0  0  0  0  0  0  0
   58.9656   29.5707   45.5910 H   0  0  0  0  0  0  0  0  0  0  0  0
   58.0639   32.4673   42.3681 H   0  0  0  0  0  0  0  0  0  0  0  0
   55.4600   29.2260   42.3520 H   0  0  0  0  0  0  0  0  0  0  0  0
   57.5160   33.5940   44.9001 H   0  0  0  0  0  0  0  0  0  0  0  0
   58.7424   34.3828   46.9141 H   0  0  0  0  0  0  0  0  0  0  0  0
   62.3623   35.3393   48.6441 H   0  0  0  0  0  0  0  0  0  0  0  0
   61.2106   34.8581   49.9406 H   0  0  0  0  0  0  0  0  0  0  0  0
   63.7199   35.0283   50.5794 H   0  0  0  0  0  0  0  0  0  0  0  0
   62.8314   33.5199   51.0438 H   0  0  0  0  0  0  0  0  0  0  0  0
   66.6971   34.2784   49.8274 H   0  0  0  0  0  0  0  0  0  0  0  0
   68.5522   33.1860   51.0900 H   0  0  0  0  0  0  0  0  0  0  0  0
   65.9684   29.8414   52.0085 H   0  0  0  0  0  0  0  0  0  0  0  0
   64.1094   30.9256   50.7480 H   0  0  0  0  0  0  0  0  0  0  0  0
   64.2103   34.0241   47.4947 H   0  0  0  0  0  0  0  0  0  0  0  0
   64.7554   32.3223   47.6934 H   0  0  0  0  0  0  0  0  0  0  0  0
   62.4059   32.6895   46.6750 H   0  0  0  0  0  0  0  0  0  0  0  0
   62.5380   31.5400   48.0672 H   0  0  0  0  0  0  0  0  0  0  0  0
  1  2  2  0
  2  3  1  0
  3  4  2  0
  4  5  1  0
  5  6  2  0
  6  7  1  0
  7  8  1  0
  8  9  2  0
  9 10  1  0
 10 11  2  0
  6 12  1  0
 12 13  2  0
  2 14  1  0
 14 15  1  0
 15 16  1  0
 16 17  1  0
 17 18  1  0
 18 19  2  0
 19 20  1  0
 20 21  2  0
 21 22  1  0
 21 23  1  0
 23 24  2  0
 17 25  1  0
 25 26  1  0
 13  3  1  0
 26 14  1  0
 11  7  1  0
 24 18  1  0
  4 27  1  0
  5 28  1  0
  8 29  1  0
 10 30  1  0
 12 31  1  0
 13 32  1  0
 15 33  1  0
 15 34  1  0
 16 35  1  0
 16 36  1  0
 19 37  1  0
 20 38  1  0
 23 39  1  0
 24 40  1  0
 25 41  1  0
 25 42  1  0
 26 43  1  0
 26 44  1  0
M  CHG  1  10   1
M  END
>  <UniqueID>  (22) 
22

>  <SMILES>  (22) 
O=C(c1ccc(-n2cn[nH+]n2)cc1)N1CCN(c2ccc(F)cc2)CC1

>  <Energy>  (22) 
100.0051043592693

>  <Genealogy>  (22) 
O=C(c1ccc(-n2cn[nH+]n2)cc1)N1CCN(c2ccc(F)cc2)CC1 (protonated)
O=C(c1ccc(-n2cn[nH+]n2)cc1)N1CCN(c2ccc(F)cc2)CC1 (3D coordinates assigned)
O=C(c1ccc(-n2cn[nH+]n2)cc1)N1CCN(c2ccc(F)cc2)CC1 (nonaromatic ring conformer: 100.0051043592693 kcal/mol)

>  <smiles>  (22) 
O=C(c1ccc(-n2cnnn2)cc1)N1CCN(c2ccc(F)cc2)CC1

>  <score_type>  (22) 
oracle

>  <origin>  (22) 
adg

>  <m_score__min__energy>  (22) 
-7.1799999999999997

>  <m_primary>  (22) 
energy

$$$$
22:0
     RDKit          3D

 24 25  0  0  0  0  0  0  0  0999 V2000
   57.4030   28.1900   43.1710 C   0  0  0  0  0  0  0  0  0  0  0  0
   56.5300   29.4030   42.8780 C   0  0  0  0  0  0  0  0  0  0  0  0
   57.0670   30.6130   43.4070 N   0  0  0  0  0  0  0  0  0  0  0  0
   57.4730   31.5630   42.5370 C   0  0  0  0  0  0  0  0  0  0  0  0
   57.9910   32.7430   42.9310 N   0  0  0  0  0  0  0  0  0  0  0  0
   58.1050   32.9790   44.2560 C   0  0  0  0  0  0  0  0  0  0  0  0
   58.6350   34.1860   44.6610 C   0  0  0  0  0  0  0  0  0  0  0  0
   58.7500   34.4220   46.0090 C   0  0  0  0  0  0  0  0  0  0  0  0
   58.3510   33.4880   46.9610 C   0  0  0  0  0  0  0  0  0  0  0  0
   57.8190   32.2760   46.5320 C   0  0  0  0  0  0  0  0  0  0  0  0
   57.6960   32.0210   45.1790 C   0  0  0  0  0  0  0  0  0  0  0  0
   57.1670   30.8170   44.7310 C   0  0  0  0  0  0  0  0  0  0  0  0
   56.8100   29.9710   45.6240 N   0  0  0  0  0  0  0  0  0  0  0  0
   57.4966   28.0599   44.2593 H   0  0  0  0  0  0  0  0  0  0  0  0
   56.9425   27.2923   42.7327 H   0  0  0  0  0  0  0  0  0  0  0  0
   58.4004   28.3416   42.7327 H   0  0  0  0  0  0  0  0  0  0  0  0
   56.4317   29.5097   41.7876 H   0  0  0  0  0  0  0  0  0  0  0  0
   55.5567   29.2342   43.3619 H   0  0  0  0  0  0  0  0  0  0  0  0
   57.3766   31.3648   41.4593 H   0  0  0  0  0  0  0  0  0  0  0  0
   58.9564   34.9381   43.9255 H   0  0  0  0  0  0  0  0  0  0  0  0
   59.1711   35.3802   46.3474 H   0  0  0  0  0  0  0  0  0  0  0  0
   58.4546   33.7045   48.0345 H   0  0  0  0  0  0  0  0  0  0  0  0
   57.4974   31.5234   47.2670 H   0  0  0  0  0  0  0  0  0  0  0  0
   55.8800   29.7740   45.9900 H   0  0  0  0  0  0  0  0  0  0  0  0
  1  2  1  0
  2  3  1  0
  3  4  1  0
  4  5  2  0
  5  6  1  0
  6  7  2  0
  7  8  1  0
  8  9  2  0
  9 10  1  0
 10 11  2  0
 11 12  1  0
 12 13  2  3
 12  3  1  0
 11  6  1  0
  1 14  1  0
  1 15  1  0
  1 16  1  0
  2 17  1  0
  2 18  1  0
  4 19  1  0
  7 20  1  0
  8 21  1  0
  9 22  1  0
 10 23  1  0
 13 24  1  0
M  END
>  <smiles>  (23) 
CCn1cnc2ccccc2c1=N

>  <score_type>  (23) 
oracle

>  <origin>  (23) 
adg

>  <m_score__min__energy>  (23) 
-5.3600000000000003

>  <m_primary>  (23) 
energy

$$$$
23:0
     RDKit          3D

 41 43  0  0  0  0  0  0  0  0999 V2000
   56.3680   27.5680   45.6080 C   0  0  0  0  0  0  0  0  0  0  0  0
   55.6200   28.6950   45.0710 N   0  0  0  0  0  0  0  0  0  0  0  0
   56.2460   29.7880   44.3900 C   0  0  0  0  0  0  0  0  0  0  0  0
   55.8080   30.1540   43.2650 O   0  0  0  0  0  0  0  0  0  0  0  0
   57.4030   30.4860   45.0000 C   0  0  0  0  0  0  0  0  0  0  0  0
   58.5450   29.7680   45.3880 C   0  0  0  0  0  0  0  0  0  0  0  0
   59.6380   30.4270   45.9520 C   0  0  0  0  0  0  0  0  0  0  0  0
   59.6220   31.8160   46.1370 C   0  0  0  0  0  0  0  0  0  0  0  0
   60.7840   32.4530   46.6900 N   0  0  0  0  0  0  0  0  0  0  0  0
   61.3560   32.2140   47.8850 C   0  0  0  0  0  0  0  0  0  0  0  0
   62.3870   33.1260   48.0140 C   0  0  0  0  0  0  0  0  0  0  0  0
   63.3240   33.2800   49.1560 C   0  0  0  0  0  0  0  0  0  0  0  0
   64.6110   32.7050   49.1090 C   0  0  0  0  0  0  0  0  0  0  0  0
   65.5050   32.8500   50.1870 C   0  0  0  0  0  0  0  0  0  0  0  0
   66.7930   32.2930   50.1770 O   0  0  0  0  0  0  0  0  0  0  0  0
   67.1690   31.1170   50.8860 C   0  0  0  0  0  0  0  0  0  0  0  0
   65.1060   33.5720   51.3150 C   0  0  0  0  0  0  0  0  0  0  0  0
   63.8370   34.1480   51.3730 C   0  0  0  0  0  0  0  0  0  0  0  0
   62.9480   34.0080   50.3050 C   0  0  0  0  0  0  0  0  0  0  0  0
   61.7200   34.5760   50.4030 F   0  0  0  0  0  0  0  0  0  0  0  0
   62.3950   33.8970   46.9060 N   0  0  0  0  0  0  0  0  0  0  0  0
   61.4110   33.4730   46.1270 N   0  0  0  0  0  0  0  0  0  0  0  0
   58.4600   32.5460   45.7920 C   0  0  0  0  0  0  0  0  0  0  0  0
   58.3490   34.0290   46.0340 C   0  0  0  0  0  0  0  0  0  0  0  0
   57.3720   31.8750   45.2050 C   0  0  0  0  0  0  0  0  0  0  0  0
   56.3448   27.6029   46.7072 H   0  0  0  0  0  0  0  0  0  0  0  0
   55.9139   26.6280   45.2613 H   0  0  0  0  0  0  0  0  0  0  0  0
   57.4106   27.6213   45.2613 H   0  0  0  0  0  0  0  0  0  0  0  0
   58.5786   28.6777   45.2464 H   0  0  0  0  0  0  0  0  0  0  0  0
   60.5234   29.8489   46.2552 H   0  0  0  0  0  0  0  0  0  0  0  0
   61.0614   31.4452   48.6145 H   0  0  0  0  0  0  0  0  0  0  0  0
   64.9200   32.1365   48.2195 H   0  0  0  0  0  0  0  0  0  0  0  0
   67.1085   31.3061   51.9679 H   0  0  0  0  0  0  0  0  0  0  0  0
   66.4890   30.2947   50.6189 H   0  0  0  0  0  0  0  0  0  0  0  0
   68.2000   30.8417   50.6189 H   0  0  0  0  0  0  0  0  0  0  0  0
   65.7974   33.6868   52.1628 H   0  0  0  0  0  0  0  0  0  0  0  0
   63.5346   34.7159   52.2652 H   0  0  0  0  0  0  0  0  0  0  0  0
   58.3344   34.2238   47.1165 H   0  0  0  0  0  0  0  0  0  0  0  0
   59.2114   34.5400   45.5811 H   0  0  0  0  0  0  0  0  0  0  0  0
   57.4201   34.4059   45.5811 H   0  0  0  0  0  0  0  0  0  0  0  0
   56.4829   32.4472   44.9017 H   0  0  0  0  0  0  0  0  0  0  0  0
  1  2  1  0
  2  3  1  0
  3  4  2  0
  3  5  1  0
  5  6  2  0
  6  7  1  0
  7  8  2  0
  8  9  1  0
  9 10  1  0
 10 11  2  0
 11 12  1  0
 12 13  2  0
 13 14  1  0
 14 15  1  0
 15 16  1  0
 14 17  2  0
 17 18  1  0
 18 19  2  0
 19 20  1  0
 11 21  1  0
 21 22  2  0
  8 23  1  0
 23 24  1  0
 23 25  2  0
 25  5  1  0
 22  9  1  0
 19 12  1  0
  1 26  1  0
  1 27  1  0
  1 28  1  0
  6 29  1  0
  7 30  1  0
 10 31  1  0
 13 32  1  0
 16 33  1  0
 16 34  1  0
 16 35  1  0
 17 36  1  0
 18 37  1  0
 24 38  1  0
 24 39  1  0
 24 40  1  0
 25 41  1  0
M  CHG  1   2  -1
M  END
>  <UniqueID>  (24) 
23

>  <SMILES>  (24) 
C[N-]C(=O)c1ccc(-n2cc(-c3cc(OC)ccc3F)nn2)c(C)c1

>  <Energy>  (24) 
84.18707654942806

>  <Genealogy>  (24) 
C[N-]C(=O)c1ccc(-n2cc(-c3cc(OC)ccc3F)nn2)c(C)c1 (protonated)
C[N-]C(=O)c1ccc(-n2cc(-c3cc(OC)ccc3F)nn2)c(C)c1 (3D coordinates assigned)
C[N-]C(=O)c1ccc(-n2cc(-c3cc(OC)ccc3F)nn2)c(C)c1 (optimized conformer: 84.18707654942806 kcal/mol)

>  <smiles>  (24) 
CNC(=O)c1ccc(-n2cc(-c3cc(OC)ccc3F)nn2)c(C)c1

>  <score_type>  (24) 
oracle

>  <origin>  (24) 
adg

>  <m_score__min__energy>  (24) 
-9.5600000000000005

>  <m_primary>  (24) 
energy

$$$$
24:0
     RDKit          3D

 46 49  0  0  1  0  0  0  0  0999 V2000
   58.1450   33.7970   52.7340 C   0  0  0  0  0  0  0  0  0  0  0  0
   58.1470   32.4870   52.0280 C   0  0  0  0  0  0  0  0  0  0  0  0
   57.3530   31.5270   52.5230 N   0  0  0  0  0  0  0  0  0  0  0  0
   57.3300   30.3280   51.9070 C   0  0  0  0  0  0  0  0  0  0  0  0
   56.6000   29.3470   52.3110 N   0  0  0  0  0  0  0  0  0  0  0  0
   58.0900   30.1160   50.8230 N   0  0  0  0  0  0  0  0  0  0  0  0
   58.9060   31.0710   50.2970 C   0  0  0  0  0  0  0  0  0  0  0  0
   59.7220   30.8170   49.1180 C   0  0  0  0  0  0  0  0  0  0  0  0
   59.1970   29.9770   48.1420 C   0  0  0  0  0  0  0  0  0  0  0  0
   59.8710   29.6610   46.9870 C   0  0  0  0  0  0  0  0  0  0  0  0
   59.3670   28.8740   46.0830 N   0  0  0  0  0  0  0  0  0  0  0  0
   58.2740   29.4360   45.3320 C   0  0  0  0  0  0  0  0  0  0  0  0
   56.9880   28.9900   45.5680 C   0  0  0  0  0  0  0  0  0  0  0  0
   55.9640   29.5130   44.8680 N   0  0  0  0  0  0  0  0  0  0  0  0
   56.1400   30.4660   43.9340 C   0  0  0  0  0  0  0  0  0  0  0  0
   57.4370   30.9070   43.7070 C   0  0  0  0  0  0  0  0  0  0  0  0
   58.4790   30.3940   44.3990 N   0  0  0  0  0  0  0  0  0  0  0  0
   61.1060   30.2170   46.8300 N   0  0  0  0  0  0  0  0  0  0  0  0
   61.6070   31.0290   47.7790 C   0  0  0  0  0  0  0  0  0  0  0  0
   63.2310   31.7200   47.5020 S   0  0  0  0  0  0  0  0  0  0  0  0
   63.0860   33.4920   47.0910 C   0  0  0  0  0  0  0  0  0  0  0  0
   61.6460   33.8490   47.1930 C   0  0  0  0  0  0  0  0  0  0  0  0
   60.8950   33.7880   46.0240 C   0  0  0  0  0  0  0  0  0  0  0  0
   59.5510   34.0950   45.9880 C   0  0  0  0  0  0  0  0  0  0  0  0
   58.9470   34.4740   47.1690 C   0  0  0  0  0  0  0  0  0  0  0  0
   59.6920   34.5360   48.3390 C   0  0  0  0  0  0  0  0  0  0  0  0
   61.0430   34.2280   48.3700 C   0  0  0  0  0  0  0  0  0  0  0  0
   60.9270   31.3220   48.9020 N   0  0  0  0  0  0  0  0  0  0  0  0
   58.9060   32.2520   50.9320 N   0  0  0  0  0  0  0  0  0  0  0  0
   58.1453   33.6278   53.8209 H   0  0  0  0  0  0  0  0  0  0  0  0
   59.0423   34.3672   52.4515 H   0  0  0  0  0  0  0  0  0  0  0  0
   57.2460   34.3644   52.4515 H   0  0  0  0  0  0  0  0  0  0  0  0
   56.8100   28.7700   53.1360 H   0  0  0  0  0  0  0  0  0  0  0  0
   58.1975   29.5463   48.3017 H   0  0  0  0  0  0  0  0  0  0  0  0
   56.8019   28.2123   46.3233 H   0  0  0  0  0  0  0  0  0  0  0  0
   55.2894   30.8795   43.3723 H   0  0  0  0  0  0  0  0  0  0  0  0
   57.6195   31.6861   42.9522 H   0  0  0  0  0  0  0  0  0  0  0  0
   63.6747   34.0930   47.7997 H   0  0  0  0  0  0  0  0  0  0  0  0
   63.4676   33.6913   46.0788 H   0  0  0  0  0  0  0  0  0  0  0  0
   61.3925   33.4829   45.0916 H   0  0  0  0  0  0  0  0  0  0  0  0
   58.9800   34.0396   45.0495 H   0  0  0  0  0  0  0  0  0  0  0  0
   57.8765   34.7268   47.1837 H   0  0  0  0  0  0  0  0  0  0  0  0
   59.1938   34.8394   49.2716 H   0  0  0  0  0  0  0  0  0  0  0  0
   61.6158   34.2849   49.3074 H   0  0  0  0  0  0  0  0  0  0  0  0
   61.3480   31.9550   49.6140 H   0  0  0  0  0  0  0  0  0  0  0  0
   59.4940   33.0420   50.6080 H   0  0  0  0  0  0  0  0  0  0  0  0
  1  2  1  0
  2  3  2  0
  3  4  1  0
  4  5  2  3
  4  6  1  0
  6  7  2  0
  7  8  1  0
  8  9  2  0
  9 10  1  0
 10 11  2  0
 11 12  1  0
 12 13  2  0
 13 14  1  0
 14 15  2  0
 15 16  1  0
 16 17  2  0
 10 18  1  0
 18 19  2  0
 19 20  1  0
 20 21  1  0
 21 22  1  0
 22 23  2  0
 23 24  1  0
 24 25  2  0
 25 26  1  0
 26 27  2  0
 19 28  1  0
  7 29  1  0
 29  2  1  0
 28  8  1  0
 17 12  1  0
 27 22  1  0
  1 30  1  0
  1 31  1  0
  1 32  1  0
  5 33  1  0
  9 34  1  0
 13 35  1  0
 15 36  1  0
 16 37  1  0
 21 38  1  0
 21 39  1  0
 23 40  1  0
 24 41  1  0
 25 42  1  0
 26 43  1  0
 27 44  1  0
 28 45  1  0
 29 46  1  0
M  END
>  <smiles>  (25) 
Cc1nc(=N)nc(-c2cc(=Nc3cnccn3)nc(SCc3ccccc3)[nH]2)[nH]1

>  <score_type>  (25) 
oracle

>  <origin>  (25) 
adg

>  <m_score__min__energy>  (25) 
-8.9000000000000004

>  <m_primary>  (25) 
energy

$$$$
25:0
     RDKit          3D

 40 42  0  0  0  0  0  0  0  0999 V2000
   57.6800   28.2610   43.4300 C   0  0  0  0  0  0  0  0  0  0  0  0
   56.6960   29.3570   43.0360 C   0  0  0  0  0  0  0  0  0  0  0  0
   56.0920   29.9850   44.2510 C   0  0  0  0  0  0  0  0  0  0  0  0
   55.1810   29.3770   44.8770 O   0  0  0  0  0  0  0  0  0  0  0  0
   56.6250   31.2190   44.7470 N   0  0  0  0  0  0  0  0  0  0  0  0
   57.8040   31.3810   45.5470 C   0  0  0  0  0  0  0  0  0  0  0  0
   58.4390   30.2390   46.0460 C   0  0  0  0  0  0  0  0  0  0  0  0
   59.6010   30.3470   46.8150 C   0  0  0  0  0  0  0  0  0  0  0  0
   60.1600   31.6100   47.0860 C   0  0  0  0  0  0  0  0  0  0  0  0
   61.3910   31.7560   47.8990 C   0  0  0  0  0  0  0  0  0  0  0  0
   62.3900   32.6440   47.6460 N   0  0  0  0  0  0  0  0  0  0  0  0
   63.2720   32.4100   48.6290 C   0  0  0  0  0  0  0  0  0  0  0  0
   64.4860   33.0450   48.8710 C   0  0  0  0  0  0  0  0  0  0  0  0
   65.2400   32.6200   49.9870 C   0  0  0  0  0  0  0  0  0  0  0  0
   66.5320   33.3020   50.3240 C   0  0  0  0  0  0  0  0  0  0  0  0
   64.7370   31.5940   50.8310 C   0  0  0  0  0  0  0  0  0  0  0  0
   63.5070   30.9610   50.5440 C   0  0  0  0  0  0  0  0  0  0  0  0
   62.9460   29.9030   51.4440 C   0  0  0  0  0  0  0  0  0  0  0  0
   62.8000   31.4160   49.4310 C   0  0  0  0  0  0  0  0  0  0  0  0
   61.6390   31.0190   48.9720 O   0  0  0  0  0  0  0  0  0  0  0  0
   59.5340   32.7540   46.5630 C   0  0  0  0  0  0  0  0  0  0  0  0
   58.3720   32.6430   45.7950 C   0  0  0  0  0  0  0  0  0  0  0  0
   57.7376   28.1968   44.5266 H   0  0  0  0  0  0  0  0  0  0  0  0
   57.3378   27.2977   43.0238 H   0  0  0  0  0  0  0  0  0  0  0  0
   58.6745   28.4977   43.0238 H   0  0  0  0  0  0  0  0  0  0  0  0
   57.2261   30.1273   42.4567 H   0  0  0  0  0  0  0  0  0  0  0  0
   55.8926   28.9110   42.4313 H   0  0  0  0  0  0  0  0  0  0  0  0
   58.0193   29.2452   45.8309 H   0  0  0  0  0  0  0  0  0  0  0  0
   60.0813   29.4400   47.2106 H   0  0  0  0  0  0  0  0  0  0  0  0
   62.4730   33.3480   46.8810 H   0  0  0  0  0  0  0  0  0  0  0  0
   64.8465   33.8511   48.2151 H   0  0  0  0  0  0  0  0  0  0  0  0
   66.6418   33.3600   51.4170 H   0  0  0  0  0  0  0  0  0  0  0  0
   67.3703   32.7289   49.9011 H   0  0  0  0  0  0  0  0  0  0  0  0
   66.5318   34.3175   49.9011 H   0  0  0  0  0  0  0  0  0  0  0  0
   65.3117   31.2890   51.7180 H   0  0  0  0  0  0  0  0  0  0  0  0
   63.1006   30.1945   52.4933 H   0  0  0  0  0  0  0  0  0  0  0  0
   61.8692   29.7895   51.2498 H   0  0  0  0  0  0  0  0  0  0  0  0
   63.4562   28.9480   51.2498 H   0  0  0  0  0  0  0  0  0  0  0  0
   59.9632   33.7474   46.7602 H   0  0  0  0  0  0  0  0  0  0  0  0
   57.8996   33.5468   45.3827 H   0  0  0  0  0  0  0  0  0  0  0  0
  1  2  1  0
  2  3  1  0
  3  4  2  0
  3  5  1  0
  5  6  1  0
  6  7  2  0
  7  8  1  0
  8  9  2  0
  9 10  1  0
 10 11  2  0
 11 12  1  0
 12 13  2  0
 13 14  1  0
 14 15  1  0
 14 16  2  0
 16 17  1  0
 17 18  1  0
 17 19  2  0
 19 20  1  0
  9 21  1  0
 21 22  2  0
 22  6  1  0
 20 10  1  0
 19 12  1  0
  1 23  1  0
  1 24  1  0
  1 25  1  0
  2 26  1  0
  2 27  1  0
  7 28  1  0
  8 29  1  0
 11 30  1  0
 13 31  1  0
 15 32  1  0
 15 33  1  0
 15 34  1  0
 16 35  1  0
 18 36  1  0
 18 37  1  0
 18 38  1  0
 21 39  1  0
 22 40  1  0
M  CHG  2   5  -1  11   1
M  END
>  <UniqueID>  (26) 
24

>  <SMILES>  (26) 
CCC(=O)[N-]c1ccc(-c2[nH+]c3cc(C)cc(C)c3o2)cc1

>  <Energy>  (26) 
79.29036394775225

>  <Genealogy>  (26) 
CCC(=O)[N-]c1ccc(-c2[nH+]c3cc(C)cc(C)c3o2)cc1 (protonated)
CCC(=O)[N-]c1ccc(-c2[nH+]c3cc(C)cc(C)c3o2)cc1 (3D coordinates assigned)
CCC(=O)[N-]c1ccc(-c2[nH+]c3cc(C)cc(C)c3o2)cc1 (optimized conformer: 79.29036394775225 kcal/mol)

>  <smiles>  (26) 
CCC(=O)Nc1ccc(-c2nc3cc(C)cc(C)c3o2)cc1

>  <score_type>  (26) 
oracle

>  <origin>  (26) 
adg

>  <m_score__min__energy>  (26) 
-7.6200000000000001

>  <m_primary>  (26) 
energy

$$$$
26:0
     RDKit          3D

 32 33  0  0  0  0  0  0  0  0999 V2000
   58.4365   33.3780   43.7146 H   0  0  0  0  0  0  0  0  0  0  0  0
   58.3620   33.6790   44.7700 C   0  0  0  0  0  0  0  0  0  0  0  0
   57.3160   33.0720   45.6100 C   0  0  0  0  0  0  0  0  0  0  0  0
   57.1270   33.4700   46.7930 O   0  0  0  0  0  0  0  0  0  0  0  0
   56.5330   32.0430   45.0740 O   0  0  0  0  0  0  0  0  0  0  0  0
   57.0750   30.9580   44.3230 C   0  0  0  0  0  0  0  0  0  0  0  0
   57.9722   30.5797   44.8348 H   0  0  0  0  0  0  0  0  0  0  0  0
   57.3284   31.3222   43.3165 H   0  0  0  0  0  0  0  0  0  0  0  0
   56.0770   29.8390   44.1890 C   0  0  0  0  0  0  0  0  0  0  0  0
   55.4400   29.6990   43.1120 O   0  0  0  0  0  0  0  0  0  0  0  0
   55.8800   28.8820   45.2370 N   0  0  0  0  0  0  0  0  0  0  0  0
   56.9170   27.9900   45.7370 C   0  0  0  0  0  0  0  0  0  0  0  0
   57.8141   28.0802   45.1069 H   0  0  0  0  0  0  0  0  0  0  0  0
   57.1691   28.2627   46.7724 H   0  0  0  0  0  0  0  0  0  0  0  0
   56.4200   26.5830   45.6980 C   0  0  0  0  0  0  0  0  0  0  0  0
   55.1920   26.2290   45.9960 O   0  0  0  0  0  0  0  0  0  0  0  0
   55.0960   24.9230   45.8870 C   0  0  0  0  0  0  0  0  0  0  0  0
   54.1836   24.3372   46.0721 H   0  0  0  0  0  0  0  0  0  0  0  0
   56.3140   24.3980   45.5050 C   0  0  0  0  0  0  0  0  0  0  0  0
   56.5512   23.3380   45.3312 H   0  0  0  0  0  0  0  0  0  0  0  0
   57.1740   25.4700   45.3850 C   0  0  0  0  0  0  0  0  0  0  0  0
   58.2361   25.4434   45.1001 H   0  0  0  0  0  0  0  0  0  0  0  0
   59.2250   34.5840   45.2460 C   0  0  0  0  0  0  0  0  0  0  0  0
   59.3399   35.5339   44.7033 H   0  0  0  0  0  0  0  0  0  0  0  0
   60.0300   34.3690   46.4640 C   0  0  0  0  0  0  0  0  0  0  0  0
   61.6200   33.8230   46.4500 S   0  0  0  0  0  0  0  0  0  0  0  0
   61.8430   33.8300   48.1160 C   0  0  0  0  0  0  0  0  0  0  0  0
   62.7627   33.5402   48.6453 H   0  0  0  0  0  0  0  0  0  0  0  0
   60.6650   34.2650   48.7080 C   0  0  0  0  0  0  0  0  0  0  0  0
   60.5405   34.3634   49.7965 H   0  0  0  0  0  0  0  0  0  0  0  0
   59.6500   34.5670   47.7920 C   0  0  0  0  0  0  0  0  0  0  0  0
   58.6531   34.9245   48.0894 H   0  0  0  0  0  0  0  0  0  0  0  0
  1  2  1  0
  2  3  1  0
  3  4  2  0
  3  5  1  0
  5  6  1  0
  6  7  1  0
  6  8  1  0
  6  9  1  0
  9 10  2  0
  9 11  1  0
 11 12  1  0
 12 13  1  0
 12 14  1  0
 12 15  1  0
 15 16  1  0
 16 17  1  0
 17 18  1  0
 17 19  2  0
 19 20  1  0
 19 21  1  0
 21 22  1  0
  2 23  2  0
 23 24  1  0
 23 25  1  0
 25 26  1  0
 26 27  1  0
 27 28  1  0
 27 29  2  0
 29 30  1  0
 29 31  1  0
 31 32  1  0
 21 15  2  0
 31 25  2  0
M  CHG  1  11  -1
M  END
>  <UniqueID>  (27) 
25

>  <SMILES>  (27) 
O=C(COC(=O)/C=C/c1cccs1)[N-]Cc1ccco1

>  <Energy>  (27) 
77.90101951649545

>  <Genealogy>  (27) 
O=C(COC(=O)C=Cc1cccs1)[N-]Cc1ccco1 (protonated)
O=C(COC(=O)/C=C/c1cccs1)[N-]Cc1ccco1 (cis-trans isomerization)
O=C(COC(=O)/C=C/c1cccs1)[N-]Cc1ccco1 (3D coordinates assigned)
O=C(COC(=O)/C=C/c1cccs1)[N-]Cc1ccco1 (optimized conformer: 77.90101951649545 kcal/mol)

>  <smiles>  (27) 
O=C(COC(=O)C=Cc1cccs1)NCc1ccco1

>  <score_type>  (27) 
oracle

>  <origin>  (27) 
adg

>  <m_score__min__energy>  (27) 
-9.4100000000000001

>  <m_primary>  (27) 
energy

$$$$
27:0
     RDKit          3D

 33 34  0  0  0  0  0  0  0  0999 V2000
   63.7960   31.9910   48.7210 C   0  0  0  0  0  0  0  0  0  0  0  0
   63.0690   33.0850   48.0610 N   0  0  0  0  0  0  0  0  0  0  0  0
   63.7380   33.5010   46.8170 C   0  0  0  0  0  0  0  0  0  0  0  0
   62.7690   34.2190   48.9660 C   0  0  0  0  0  0  0  0  0  0  0  0
   61.3430   34.2100   49.5700 C   0  0  0  0  0  0  0  0  0  0  0  0
   60.2500   34.1020   48.4880 C   0  0  0  0  0  0  0  0  0  0  0  0
   60.6200   33.1610   47.4170 N   0  0  0  0  0  0  0  0  0  0  0  0
   59.4670   32.7560   46.6470 C   0  0  0  0  0  0  0  0  0  0  0  0
   58.7600   33.7010   45.8570 C   0  0  0  0  0  0  0  0  0  0  0  0
   57.6530   33.3060   45.0840 C   0  0  0  0  0  0  0  0  0  0  0  0
   57.2920   31.9660   45.1340 C   0  0  0  0  0  0  0  0  0  0  0  0
   56.2860   31.3550   44.4880 N   0  0  0  0  0  0  0  0  0  0  0  0
   56.3760   30.0820   44.8730 N   0  0  0  0  0  0  0  0  0  0  0  0
   57.3910   29.9180   45.7170 N   0  0  0  0  0  0  0  0  0  0  0  0
   57.9640   31.0930   45.8810 N   0  0  0  0  0  0  0  0  0  0  0  0
   59.0360   31.4120   46.6450 C   0  0  0  0  0  0  0  0  0  0  0  0
   63.7196   32.1059   49.8123 H   0  0  0  0  0  0  0  0  0  0  0  0
   63.3582   31.0271   48.4223 H   0  0  0  0  0  0  0  0  0  0  0  0
   64.8542   32.0213   48.4223 H   0  0  0  0  0  0  0  0  0  0  0  0
   64.6486   34.0673   47.0621 H   0  0  0  0  0  0  0  0  0  0  0  0
   64.0068   32.6105   46.2298 H   0  0  0  0  0  0  0  0  0  0  0  0
   63.0583   34.1360   46.2298 H   0  0  0  0  0  0  0  0  0  0  0  0
   63.4916   34.1953   49.7950 H   0  0  0  0  0  0  0  0  0  0  0  0
   62.8395   35.1301   48.3537 H   0  0  0  0  0  0  0  0  0  0  0  0
   61.2527   33.3509   50.2510 H   0  0  0  0  0  0  0  0  0  0  0  0
   61.1969   35.1616   50.1022 H   0  0  0  0  0  0  0  0  0  0  0  0
   59.3184   33.7548   48.9587 H   0  0  0  0  0  0  0  0  0  0  0  0
   60.1227   35.0965   48.0354 H   0  0  0  0  0  0  0  0  0  0  0  0
   61.3480   33.5910   46.7980 H   0  0  0  0  0  0  0  0  0  0  0  0
   61.0470   32.3100   47.8510 H   0  0  0  0  0  0  0  0  0  0  0  0
   59.0814   34.7530   45.8495 H   0  0  0  0  0  0  0  0  0  0  0  0
   57.0974   34.0273   44.4667 H   0  0  0  0  0  0  0  0  0  0  0  0
   59.5537   30.6486   47.2443 H   0  0  0  0  0  0  0  0  0  0  0  0
  1  2  1  0
  2  3  1  0
  2  4  1  0
  4  5  1  0
  5  6  1  0
  6  7  1  0
  7  8  1  0
  8  9  1  0
  9 10  2  0
 10 11  1  0
 11 12  2  0
 12 13  1  0
 13 14  2  0
 14 15  1  0
 15 16  1  0
 16  8  2  0
 15 11  1  0
  1 17  1  0
  1 18  1  0
  1 19  1  0
  3 20  1  0
  3 21  1  0
  3 22  1  0
  4 23  1  0
  4 24  1  0
  5 25  1  0
  5 26  1  0
  6 27  1  0
  6 28  1  0
  7 29  1  0
  7 30  1  0
  9 31  1  0
 10 32  1  0
 16 33  1  0
M  CHG  1   7   1
M  END
>  <UniqueID>  (28) 
26

>  <SMILES>  (28) 
CN(C)CCC[NH2+]c1ccc2nnnn2c1

>  <Energy>  (28) 
82.49480861871376

>  <Genealogy>  (28) 
CN(C)CCC[NH2+]c1ccc2nnnn2c1 (protonated)
CN(C)CCC[NH2+]c1ccc2nnnn2c1 (3D coordinates assigned)
CN(C)CCC[NH2+]c1ccc2nnnn2c1 (optimized conformer: 82.49480861871376 kcal/mol)

>  <smiles>  (28) 
CN(C)CCCNc1ccc2nnnn2c1

>  <score_type>  (28) 
oracle

>  <origin>  (28) 
adg

>  <m_score__min__energy>  (28) 
-4.5199999999999996

>  <m_primary>  (28) 
energy

$$$$
28:0
     RDKit          3D

 47 51  0  0  0  0  0  0  0  0999 V2000
   56.6420   29.6660   42.8460 C   0  0  0  0  0  0  0  0  0  0  0  0
   57.3330   29.7410   44.1400 N   0  0  0  0  0  0  0  0  0  0  0  0
   57.3660   30.9150   44.8640 C   0  0  0  0  0  0  0  0  0  0  0  0
   56.8420   31.9580   44.3790 O   0  0  0  0  0  0  0  0  0  0  0  0
   57.9500   30.9610   46.1220 N   0  0  0  0  0  0  0  0  0  0  0  0
   57.9890   32.2350   46.8680 C   0  0  0  0  0  0  0  0  0  0  0  0
   59.4140   32.6520   47.1270 C   0  0  0  0  0  0  0  0  0  0  0  0
   60.0320   32.3330   48.3470 C   0  0  0  0  0  0  0  0  0  0  0  0
   61.3610   32.6990   48.5820 C   0  0  0  0  0  0  0  0  0  0  0  0
   62.0830   33.3840   47.6000 C   0  0  0  0  0  0  0  0  0  0  0  0
   63.7490   33.8440   47.8970 Cl  0  0  0  0  0  0  0  0  0  0  0  0
   61.4750   33.7010   46.3810 C   0  0  0  0  0  0  0  0  0  0  0  0
   60.1470   33.3340   46.1420 C   0  0  0  0  0  0  0  0  0  0  0  0
   58.5120   29.8250   46.6640 C   0  0  0  0  0  0  0  0  0  0  0  0
   59.0330   29.8270   47.8130 O   0  0  0  0  0  0  0  0  0  0  0  0
   58.4950   28.6650   45.9100 C   0  0  0  0  0  0  0  0  0  0  0  0
   57.8970   28.6330   44.6920 C   0  0  0  0  0  0  0  0  0  0  0  0
   57.7800   27.3590   44.2460 N   0  0  0  0  0  0  0  0  0  0  0  0
   58.4160   26.6700   45.2300 C   0  0  0  0  0  0  0  0  0  0  0  0
   58.8560   27.4180   46.2310 N   0  0  0  0  0  0  0  0  0  0  0  0
   58.8720   26.6770   47.4770 C   0  0  0  0  0  0  0  0  0  0  0  0
   58.4430   25.2450   47.0460 C   0  0  0  0  0  0  0  0  0  0  0  0
   58.1610   25.3280   45.6040 N   0  0  0  0  0  0  0  0  0  0  0  0
   57.7280   24.2500   44.7520 C   0  0  0  0  0  0  0  0  0  0  0  0
   58.3160   22.9730   44.8510 C   0  0  0  0  0  0  0  0  0  0  0  0
   57.8850   21.9290   44.0250 C   0  0  0  0  0  0  0  0  0  0  0  0
   56.8650   22.1440   43.0960 C   0  0  0  0  0  0  0  0  0  0  0  0
   56.2670   23.4010   42.9960 C   0  0  0  0  0  0  0  0  0  0  0  0
   56.6900   24.4480   43.8230 C   0  0  0  0  0  0  0  0  0  0  0  0
   55.5612   29.5487   43.0137 H   0  0  0  0  0  0  0  0  0  0  0  0
   56.8267   30.5895   42.2776 H   0  0  0  0  0  0  0  0  0  0  0  0
   57.0206   28.8037   42.2776 H   0  0  0  0  0  0  0  0  0  0  0  0
   57.4850   33.0151   46.2786 H   0  0  0  0  0  0  0  0  0  0  0  0
   57.4776   32.0983   47.8323 H   0  0  0  0  0  0  0  0  0  0  0  0
   59.4679   31.7926   49.1215 H   0  0  0  0  0  0  0  0  0  0  0  0
   61.8389   32.4477   49.5404 H   0  0  0  0  0  0  0  0  0  0  0  0
   62.0428   34.2403   45.6085 H   0  0  0  0  0  0  0  0  0  0  0  0
   59.6749   33.5802   45.1795 H   0  0  0  0  0  0  0  0  0  0  0  0
   59.8793   26.6705   47.9189 H   0  0  0  0  0  0  0  0  0  0  0  0
   58.2147   27.1109   48.2449 H   0  0  0  0  0  0  0  0  0  0  0  0
   59.2552   24.5281   47.2369 H   0  0  0  0  0  0  0  0  0  0  0  0
   57.5652   24.8980   47.6109 H   0  0  0  0  0  0  0  0  0  0  0  0
   59.1186   22.7959   45.5820 H   0  0  0  0  0  0  0  0  0  0  0  0
   58.3511   20.9361   44.1078 H   0  0  0  0  0  0  0  0  0  0  0  0
   56.5330   21.3231   42.4434 H   0  0  0  0  0  0  0  0  0  0  0  0
   55.4617   23.5693   42.2658 H   0  0  0  0  0  0  0  0  0  0  0  0
   56.2071   25.4334   43.7461 H   0  0  0  0  0  0  0  0  0  0  0  0
  1  2  1  0
  2  3  1  0
  3  4  2  0
  3  5  1  0
  5  6  1  0
  6  7  1  0
  7  8  2  0
  8  9  1  0
  9 10  2  0
 10 11  1  0
 10 12  1  0
 12 13  2  0
  5 14  1  0
 14 15  2  0
 14 16  1  0
 16 17  2  0
 17 18  1  0
 18 19  2  0
 19 20  1  0
 20 21  1  0
 21 22  1  0
 22 23  1  0
 23 24  1  0
 24 25  2  0
 25 26  1  0
 26 27  2  0
 27 28  1  0
 28 29  2  0
 17  2  1  0
 23 19  1  0
 29 24  1  0
 13  7  1  0
 20 16  1  0
  1 30  1  0
  1 31  1  0
  1 32  1  0
  6 33  1  0
  6 34  1  0
  8 35  1  0
  9 36  1  0
 12 37  1  0
 13 38  1  0
 21 39  1  0
 21 40  1  0
 22 41  1  0
 22 42  1  0
 25 43  1  0
 26 44  1  0
 27 45  1  0
 28 46  1  0
 29 47  1  0
M  END
>  <UniqueID>  (29) 
27

>  <SMILES>  (29) 
Cn1c(=O)n(Cc2ccc(Cl)cc2)c(=O)c2c1nc1n2CCN1c1ccccc1

>  <Energy>  (29) 
130.88297429681538

>  <Genealogy>  (29) 
Cn1c(=O)n(Cc2ccc(Cl)cc2)c(=O)c2c1nc1n2CCN1c1ccccc1 (3D coordinates assigned)
Cn1c(=O)n(Cc2ccc(Cl)cc2)c(=O)c2c1nc1n2CCN1c1ccccc1 (nonaromatic ring conformer: 130.88297429681538 kcal/mol)

>  <smiles>  (29) 
Cn1c(=O)n(Cc2ccc(Cl)cc2)c(=O)c2c1nc1n2CCN1c1ccccc1

>  <score_type>  (29) 
oracle

>  <origin>  (29) 
adg

>  <m_score__min__energy>  (29) 
-7.9900000000000002

>  <m_primary>  (29) 
energy

$$$$
29:0
     RDKit          3D

 34 36  0  0  0  0  0  0  0  0999 V2000
   59.6780   35.6910   45.9700 C   0  0  0  0  0  0  0  0  0  0  0  0
   59.5230   34.3080   46.2720 O   0  0  0  0  0  0  0  0  0  0  0  0
   58.8350   33.3830   45.4700 C   0  0  0  0  0  0  0  0  0  0  0  0
   58.5090   33.6760   44.1310 C   0  0  0  0  0  0  0  0  0  0  0  0
   57.8060   32.7580   43.3520 C   0  0  0  0  0  0  0  0  0  0  0  0
   57.4090   31.5360   43.8980 C   0  0  0  0  0  0  0  0  0  0  0  0
   56.6890   30.6060   43.1410 C   0  0  0  0  0  0  0  0  0  0  0  0
   56.3030   29.4010   43.7220 C   0  0  0  0  0  0  0  0  0  0  0  0
   56.6450   29.1530   45.0530 C   0  0  0  0  0  0  0  0  0  0  0  0
   56.3050   28.0710   45.5990 O   0  0  0  0  0  0  0  0  0  0  0  0
   57.3320   30.0540   45.7490 O   0  0  0  0  0  0  0  0  0  0  0  0
   57.7280   31.2210   45.2380 C   0  0  0  0  0  0  0  0  0  0  0  0
   58.4640   32.1360   46.0250 C   0  0  0  0  0  0  0  0  0  0  0  0
   58.8120   31.8030   47.4670 C   0  0  0  0  0  0  0  0  0  0  0  0
   60.2970   31.9560   47.7540 C   0  0  0  0  0  0  0  0  0  0  0  0
   61.2290   31.0500   47.1990 C   0  0  0  0  0  0  0  0  0  0  0  0
   60.7410   29.6830   46.2030 Cl  0  0  0  0  0  0  0  0  0  0  0  0
   62.5930   31.2160   47.4550 C   0  0  0  0  0  0  0  0  0  0  0  0
   63.0260   32.2340   48.2420 N   0  0  0  0  0  0  0  0  0  0  0  0
   62.1580   33.1090   48.8100 C   0  0  0  0  0  0  0  0  0  0  0  0
   60.7830   32.9920   48.5900 C   0  0  0  0  0  0  0  0  0  0  0  0
   59.7270   34.1530   49.3920 Cl  0  0  0  0  0  0  0  0  0  0  0  0
   59.7424   36.2657   46.9057 H   0  0  0  0  0  0  0  0  0  0  0  0
   60.5982   35.8378   45.3855 H   0  0  0  0  0  0  0  0  0  0  0  0
   58.8131   36.0379   45.3855 H   0  0  0  0  0  0  0  0  0  0  0  0
   58.8124   34.6395   43.6955 H   0  0  0  0  0  0  0  0  0  0  0  0
   57.5639   32.9968   42.3059 H   0  0  0  0  0  0  0  0  0  0  0  0
   56.4297   30.8249   42.0947 H   0  0  0  0  0  0  0  0  0  0  0  0
   55.7379   28.6565   43.1420 H   0  0  0  0  0  0  0  0  0  0  0  0
   58.2523   32.4785   48.1307 H   0  0  0  0  0  0  0  0  0  0  0  0
   58.5426   30.7511   47.6431 H   0  0  0  0  0  0  0  0  0  0  0  0
   63.3204   30.5173   47.0160 H   0  0  0  0  0  0  0  0  0  0  0  0
   64.0500   32.3400   48.4210 H   0  0  0  0  0  0  0  0  0  0  0  0
   62.5404   33.9180   49.4497 H   0  0  0  0  0  0  0  0  0  0  0  0
  1  2  1  0
  2  3  1  0
  3  4  2  0
  4  5  1  0
  5  6  2  0
  6  7  1  0
  7  8  2  0
  8  9  1  0
  9 10  2  0
  9 11  1  0
 11 12  1  0
 12 13  2  0
 13 14  1  0
 14 15  1  0
 15 16  2  0
 16 17  1  0
 16 18  1  0
 18 19  2  0
 19 20  1  0
 20 21  2  0
 21 22  1  0
 13  3  1  0
 21 15  1  0
 12  6  1  0
  1 23  1  0
  1 24  1  0
  1 25  1  0
  4 26  1  0
  5 27  1  0
  7 28  1  0
  8 29  1  0
 14 30  1  0
 14 31  1  0
 18 32  1  0
 19 33  1  0
 20 34  1  0
M  CHG  1  19   1
M  END
>  <UniqueID>  (30) 
28

>  <SMILES>  (30) 
COc1ccc2ccc(=O)oc2c1Cc1c(Cl)c[nH+]cc1Cl

>  <Energy>  (30) 
44.529830340965525

>  <Genealogy>  (30) 
COc1ccc2ccc(=O)oc2c1Cc1c(Cl)c[nH+]cc1Cl (protonated)
COc1ccc2ccc(=O)oc2c1Cc1c(Cl)c[nH+]cc1Cl (3D coordinates assigned)
COc1ccc2ccc(=O)oc2c1Cc1c(Cl)c[nH+]cc1Cl (optimized conformer: 44.529830340965525 kcal/mol)

>  <smiles>  (30) 
COc1ccc2ccc(=O)oc2c1Cc1c(Cl)cncc1Cl

>  <score_type>  (30) 
oracle

>  <origin>  (30) 
adg

>  <m_score__min__energy>  (30) 
-5.75

>  <m_primary>  (30) 
energy

$$$$
30:0
     RDKit          3D

 42 44  0  0  0  0  0  0  0  0999 V2000
   60.2109   35.9266   46.6149 H   0  0  0  0  0  0  0  0  0  0  0  0
   60.0470   34.9350   47.0620 C   0  0  0  0  0  0  0  0  0  0  0  0
   58.8310   34.4660   47.0870 N   0  0  0  0  0  0  0  0  0  0  0  0
   58.4060   33.3120   46.3990 N   0  0  0  0  0  0  0  0  0  0  0  0
   58.2330   32.1100   47.0480 C   0  0  0  0  0  0  0  0  0  0  0  0
   58.5420   31.9330   48.5210 C   0  0  0  0  0  0  0  0  0  0  0  0
   57.5972   31.7862   49.0649 H   0  0  0  0  0  0  0  0  0  0  0  0
   59.0686   32.8358   48.8639 H   0  0  0  0  0  0  0  0  0  0  0  0
   59.4560   30.7290   48.7870 C   0  0  0  0  0  0  0  0  0  0  0  0
   58.8902   29.8051   48.5966 H   0  0  0  0  0  0  0  0  0  0  0  0
   59.7915   30.7826   49.8332 H   0  0  0  0  0  0  0  0  0  0  0  0
   60.7020   30.7410   47.8890 C   0  0  0  0  0  0  0  0  0  0  0  0
   61.5846   30.4913   48.4962 H   0  0  0  0  0  0  0  0  0  0  0  0
   60.8055   31.7440   47.4494 H   0  0  0  0  0  0  0  0  0  0  0  0
   60.5740   29.7270   46.7560 C   0  0  0  0  0  0  0  0  0  0  0  0
   60.4468   28.7193   47.1784 H   0  0  0  0  0  0  0  0  0  0  0  0
   59.7004   29.9778   46.1364 H   0  0  0  0  0  0  0  0  0  0  0  0
   61.4825   29.7529   46.1364 H   0  0  0  0  0  0  0  0  0  0  0  0
   57.7660   31.0340   46.3600 N   0  0  0  0  0  0  0  0  0  0  0  0
   57.5140   31.0920   45.0310 C   0  0  0  0  0  0  0  0  0  0  0  0
   57.0380   29.9600   44.3600 C   0  0  0  0  0  0  0  0  0  0  0  0
   56.8551   29.0277   44.9145 H   0  0  0  0  0  0  0  0  0  0  0  0
   56.7950   30.0150   42.9840 C   0  0  0  0  0  0  0  0  0  0  0  0
   56.4195   29.1254   42.4571 H   0  0  0  0  0  0  0  0  0  0  0  0
   57.0280   31.1970   42.2770 C   0  0  0  0  0  0  0  0  0  0  0  0
   56.8374   31.2352   41.1943 H   0  0  0  0  0  0  0  0  0  0  0  0
   57.5030   32.3320   42.9420 C   0  0  0  0  0  0  0  0  0  0  0  0
   57.6852   33.2612   42.3821 H   0  0  0  0  0  0  0  0  0  0  0  0
   57.7480   32.2860   44.3270 C   0  0  0  0  0  0  0  0  0  0  0  0
   58.2110   33.3990   45.0470 C   0  0  0  0  0  0  0  0  0  0  0  0
   58.4300   34.4910   44.4510 O   0  0  0  0  0  0  0  0  0  0  0  0
   61.2190   34.2110   47.6000 C   0  0  0  0  0  0  0  0  0  0  0  0
   62.1940   33.7360   46.7090 C   0  0  0  0  0  0  0  0  0  0  0  0
   62.0766   33.9058   45.6285 H   0  0  0  0  0  0  0  0  0  0  0  0
   63.3140   33.0480   47.1870 C   0  0  0  0  0  0  0  0  0  0  0  0
   64.0663   32.6660   46.4812 H   0  0  0  0  0  0  0  0  0  0  0  0
   63.4790   32.8450   48.5600 C   0  0  0  0  0  0  0  0  0  0  0  0
   64.5650   32.1790   49.0220 F   0  0  0  0  0  0  0  0  0  0  0  0
   62.5270   33.3400   49.4570 C   0  0  0  0  0  0  0  0  0  0  0  0
   62.6602   33.1874   50.5382 H   0  0  0  0  0  0  0  0  0  0  0  0
   61.4070   34.0280   48.9830 C   0  0  0  0  0  0  0  0  0  0  0  0
   60.6690   34.4284   49.6937 H   0  0  0  0  0  0  0  0  0  0  0  0
  1  2  1  0
  2  3  2  0
  3  4  1  0
  4  5  1  0
  5  6  1  0
  6  7  1  0
  6  8  1  0
  6  9  1  0
  9 10  1  0
  9 11  1  0
  9 12  1  0
 12 13  1  0
 12 14  1  0
 12 15  1  0
 15 16  1  0
 15 17  1  0
 15 18  1  0
  5 19  2  0
 19 20  1  0
 20 21  2  0
 21 22  1  0
 21 23  1  0
 23 24  1  0
 23 25  2  0
 25 26  1  0
 25 27  1  0
 27 28  1  0
 27 29  2  0
 29 30  1  0
 30 31  2  0
  2 32  1  0
 32 33  2  0
 33 34  1  0
 33 35  1  0
 35 36  1  0
 35 37  2  0
 37 38  1  0
 37 39  1  0
 39 40  1  0
 39 41  2  0
 41 42  1  0
 30  4  1  0
 41 32  1  0
 29 20  1  0
M  END
>  <UniqueID>  (31) 
29

>  <SMILES>  (31) 
CCCCc1nc2ccccc2c(=O)n1/N=C\c1ccc(F)cc1

>  <Energy>  (31) 
56.209533709079594

>  <Genealogy>  (31) 
CCCCc1nc2ccccc2c(=O)n1/N=C\c1ccc(F)cc1 (cis-trans isomerization)
CCCCc1nc2ccccc2c(=O)n1/N=C\c1ccc(F)cc1 (3D coordinates assigned)
CCCCc1nc2ccccc2c(=O)n1/N=C\c1ccc(F)cc1 (optimized conformer: 56.209533709079594 kcal/mol)

>  <smiles>  (31) 
CCCCc1nc2ccccc2c(=O)n1N=Cc1ccc(F)cc1

>  <score_type>  (31) 
oracle

>  <origin>  (31) 
adg

>  <m_score__min__energy>  (31) 
-7.3399999999999999

>  <m_primary>  (31) 
energy

$$$$
31:0
     RDKit          3D

 61 63  0  0  0  0  0  0  0  0999 V2000
   55.6670   30.9960   52.0000 C   0  0  0  0  0  0  0  0  0  0  0  0
   57.0220   30.7990   51.4030 C   0  0  0  0  0  0  0  0  0  0  0  0
   57.6660   29.7420   51.6540 O   0  0  0  0  0  0  0  0  0  0  0  0
   57.5650   31.7920   50.5250 N   0  0  0  0  0  0  0  0  0  0  0  0
   58.8780   31.6590   49.8940 C   0  0  0  0  0  0  0  0  0  0  0  0
   59.0880   30.2470   49.3180 C   0  0  0  0  0  0  0  0  0  0  0  0
   58.5580   30.0820   47.8840 C   0  0  0  0  0  0  0  0  0  0  0  0
   59.3200   30.8470   46.8860 N   0  0  0  0  0  0  0  0  0  0  0  0
   60.7820   30.6620   46.7860 C   0  0  0  0  0  0  0  0  0  0  0  0
   61.5430   31.9380   47.0340 C   0  0  0  0  0  0  0  0  0  0  0  0
   61.2470   32.9600   46.3630 O   0  0  0  0  0  0  0  0  0  0  0  0
   62.5380   32.0530   48.1180 C   0  0  0  0  0  0  0  0  0  0  0  0
   63.6240   32.9400   48.0160 C   0  0  0  0  0  0  0  0  0  0  0  0
   64.5380   33.0520   49.0610 C   0  0  0  0  0  0  0  0  0  0  0  0
   64.3830   32.2790   50.2150 C   0  0  0  0  0  0  0  0  0  0  0  0
   65.2580   32.4120   51.2410 F   0  0  0  0  0  0  0  0  0  0  0  0
   63.3050   31.3930   50.3240 C   0  0  0  0  0  0  0  0  0  0  0  0
   62.3820   31.2810   49.2800 C   0  0  0  0  0  0  0  0  0  0  0  0
   58.6760   31.9900   46.2820 C   0  0  0  0  0  0  0  0  0  0  0  0
   58.4560   33.1280   47.0730 C   0  0  0  0  0  0  0  0  0  0  0  0
   57.7600   34.2230   46.5650 C   0  0  0  0  0  0  0  0  0  0  0  0
   57.2740   34.1960   45.2600 C   0  0  0  0  0  0  0  0  0  0  0  0
   57.4970   33.0800   44.4530 C   0  0  0  0  0  0  0  0  0  0  0  0
   58.2160   31.9730   44.9400 C   0  0  0  0  0  0  0  0  0  0  0  0
   58.4810   30.8190   44.0010 C   0  0  0  0  0  0  0  0  0  0  0  0
   57.2580   29.5300   44.1920 S   0  0  0  0  0  0  0  0  0  0  0  0
   56.8650   29.0230   42.8360 O   0  0  0  0  0  0  0  0  0  0  0  0
   56.0340   30.0790   44.8600 O   0  0  0  0  0  0  0  0  0  0  0  0
   57.8960   28.1990   45.1470 C   0  0  0  0  0  0  0  0  0  0  0  0
   59.2790   27.9920   45.2340 C   0  0  0  0  0  0  0  0  0  0  0  0
   59.7850   26.9430   46.0040 C   0  0  0  0  0  0  0  0  0  0  0  0
   58.9130   26.1010   46.6970 C   0  0  0  0  0  0  0  0  0  0  0  0
   57.5330   26.3080   46.6230 C   0  0  0  0  0  0  0  0  0  0  0  0
   57.0250   27.3550   45.8500 C   0  0  0  0  0  0  0  0  0  0  0  0
   55.7446   30.9847   53.0972 H   0  0  0  0  0  0  0  0  0  0  0  0
   55.2585   31.9630   51.6712 H   0  0  0  0  0  0  0  0  0  0  0  0
   55.0001   30.1854   51.6712 H   0  0  0  0  0  0  0  0  0  0  0  0
   57.0410   32.6870   50.3990 H   0  0  0  0  0  0  0  0  0  0  0  0
   58.9585   32.3930   49.0787 H   0  0  0  0  0  0  0  0  0  0  0  0
   59.6478   31.8370   50.6594 H   0  0  0  0  0  0  0  0  0  0  0  0
   60.1661   30.0284   49.3176 H   0  0  0  0  0  0  0  0  0  0  0  0
   58.5203   29.5516   49.9537 H   0  0  0  0  0  0  0  0  0  0  0  0
   58.6048   29.0162   47.6159 H   0  0  0  0  0  0  0  0  0  0  0  0
   57.5288   30.4700   47.8726 H   0  0  0  0  0  0  0  0  0  0  0  0
   61.0947   29.9145   47.5299 H   0  0  0  0  0  0  0  0  0  0  0  0
   61.0079   30.3318   45.7613 H   0  0  0  0  0  0  0  0  0  0  0  0
   63.7523   33.5475   47.1080 H   0  0  0  0  0  0  0  0  0  0  0  0
   65.3837   33.7504   48.9778 H   0  0  0  0  0  0  0  0  0  0  0  0
   63.1839   30.7841   51.2321 H   0  0  0  0  0  0  0  0  0  0  0  0
   61.5329   30.5874   49.3692 H   0  0  0  0  0  0  0  0  0  0  0  0
   58.8369   33.1559   48.1046 H   0  0  0  0  0  0  0  0  0  0  0  0
   57.5943   35.1093   47.1950 H   0  0  0  0  0  0  0  0  0  0  0  0
   56.7134   35.0560   44.8650 H   0  0  0  0  0  0  0  0  0  0  0  0
   57.1064   33.0654   43.4248 H   0  0  0  0  0  0  0  0  0  0  0  0
   58.4543   31.1872   42.9648 H   0  0  0  0  0  0  0  0  0  0  0  0
   59.4687   30.3977   44.2398 H   0  0  0  0  0  0  0  0  0  0  0  0
   59.9682   28.6579   44.6940 H   0  0  0  0  0  0  0  0  0  0  0  0
   60.8711   26.7798   46.0647 H   0  0  0  0  0  0  0  0  0  0  0  0
   59.3128   25.2738   47.3019 H   0  0  0  0  0  0  0  0  0  0  0  0
   56.8471   25.6470   47.1731 H   0  0  0  0  0  0  0  0  0  0  0  0
   55.9386   27.5175   45.7928 H   0  0  0  0  0  0  0  0  0  0  0  0
  1  2  1  0
  2  3  2  0
  2  4  1  0
  4  5  1  0
  5  6  1  0
  6  7  1  0
  7  8  1  0
  8  9  1  0
  9 10  1  0
 10 11  2  0
 10 12  1  0
 12 13  2  0
 13 14  1  0
 14 15  2  0
 15 16  1  0
 15 17  1  0
 17 18  2  0
  8 19  1  0
 19 20  2  0
 20 21  1  0
 21 22  2  0
 22 23  1  0
 23 24  2  0
 24 25  1  0
 25 26  1  0
 26 27  2  0
 26 28  2  0
 26 29  1  0
 29 30  2  0
 30 31  1  0
 31 32  2  0
 32 33  1  0
 33 34  2  0
 18 12  1  0
 24 19  1  0
 34 29  1  0
  1 35  1  0
  1 36  1  0
  1 37  1  0
  4 38  1  0
  5 39  1  0
  5 40  1  0
  6 41  1  0
  6 42  1  0
  7 43  1  0
  7 44  1  0
  9 45  1  0
  9 46  1  0
 13 47  1  0
 14 48  1  0
 17 49  1  0
 18 50  1  0
 20 51  1  0
 21 52  1  0
 22 53  1  0
 23 54  1  0
 25 55  1  0
 25 56  1  0
 30 57  1  0
 31 58  1  0
 32 59  1  0
 33 60  1  0
 34 61  1  0
M  END
>  <UniqueID>  (32) 
30

>  <SMILES>  (32) 
CC(=O)NCCCN(CC(=O)c1ccc(F)cc1)c1ccccc1CS(=O)(=O)c1ccccc1

>  <Energy>  (32) 
60.51805043384137

>  <Genealogy>  (32) 
CC(=O)NCCCN(CC(=O)c1ccc(F)cc1)c1ccccc1CS(=O)(=O)c1ccccc1 (3D coordinates assigned)
CC(=O)NCCCN(CC(=O)c1ccc(F)cc1)c1ccccc1CS(=O)(=O)c1ccccc1 (optimized conformer: 60.51805043384137 kcal/mol)

>  <smiles>  (32) 
CC(=O)NCCCN(CC(=O)c1ccc(F)cc1)c1ccccc1CS(=O)(=O)c1ccccc1

>  <score_type>  (32) 
oracle

>  <origin>  (32) 
adg

>  <m_score__min__energy>  (32) 
-9.2599999999999998

>  <m_primary>  (32) 
energy

$$$$
32:0
     RDKit          3D

 24 25  0  0  0  0  0  0  0  0999 V2000
   56.9680   28.1190   45.6230 C   0  0  0  0  0  0  0  0  0  0  0  0
   55.9050   28.9840   45.2440 O   0  0  0  0  0  0  0  0  0  0  0  0
   55.9160   29.7190   44.0540 C   0  0  0  0  0  0  0  0  0  0  0  0
   55.1580   29.3880   43.1010 O   0  0  0  0  0  0  0  0  0  0  0  0
   56.8170   30.8830   43.9120 C   0  0  0  0  0  0  0  0  0  0  0  0
   57.1870   31.3350   42.6390 C   0  0  0  0  0  0  0  0  0  0  0  0
   58.0370   32.4320   42.5380 C   0  0  0  0  0  0  0  0  0  0  0  0
   58.4900   33.0440   43.6610 N   0  0  0  0  0  0  0  0  0  0  0  0
   58.1310   32.6050   44.8970 C   0  0  0  0  0  0  0  0  0  0  0  0
   58.6510   33.3040   46.0910 C   0  0  0  0  0  0  0  0  0  0  0  0
   59.4120   34.4690   46.0820 C   0  0  0  0  0  0  0  0  0  0  0  0
   59.7680   34.9110   47.3620 C   0  0  0  0  0  0  0  0  0  0  0  0
   59.2940   34.1010   48.3850 C   0  0  0  0  0  0  0  0  0  0  0  0
   58.4310   32.8360   47.6940 S   0  0  0  0  0  0  0  0  0  0  0  0
   57.2980   31.5290   45.0170 N   0  0  0  0  0  0  0  0  0  0  0  0
   57.0277   28.0704   46.7203 H   0  0  0  0  0  0  0  0  0  0  0  0
   56.7824   27.1121   45.2209 H   0  0  0  0  0  0  0  0  0  0  0  0
   57.9162   28.5053   45.2209 H   0  0  0  0  0  0  0  0  0  0  0  0
   56.8124   30.8318   41.7354 H   0  0  0  0  0  0  0  0  0  0  0  0
   58.3415   32.8029   41.5482 H   0  0  0  0  0  0  0  0  0  0  0  0
   59.7052   34.9916   45.1595 H   0  0  0  0  0  0  0  0  0  0  0  0
   60.3675   35.8159   47.5404 H   0  0  0  0  0  0  0  0  0  0  0  0
   59.4555   34.2599   49.4614 H   0  0  0  0  0  0  0  0  0  0  0  0
   57.0230   31.1930   45.9670 H   0  0  0  0  0  0  0  0  0  0  0  0
  1  2  1  0
  2  3  1  0
  3  4  2  0
  3  5  1  0
  5  6  2  0
  6  7  1  0
  7  8  2  0
  8  9  1  0
  9 10  1  0
 10 11  2  0
 11 12  1  0
 12 13  2  0
 13 14  1  0
  9 15  2  0
 15  5  1  0
 14 10  1  0
  1 16  1  0
  1 17  1  0
  1 18  1  0
  6 19  1  0
  7 20  1  0
 11 21  1  0
 12 22  1  0
 13 23  1  0
 15 24  1  0
M  CHG  1  15   1
M  END
>  <UniqueID>  (33) 
31

>  <SMILES>  (33) 
COC(=O)c1ccnc(-c2cccs2)[nH+]1

>  <Energy>  (33) 
49.367460664379614

>  <Genealogy>  (33) 
COC(=O)c1ccnc(-c2cccs2)[nH+]1 (protonated)
COC(=O)c1ccnc(-c2cccs2)[nH+]1 (3D coordinates assigned)
COC(=O)c1ccnc(-c2cccs2)[nH+]1 (optimized conformer: 49.367460664379614 kcal/mol)

>  <smiles>  (33) 
COC(=O)c1ccnc(-c2cccs2)n1

>  <score_type>  (33) 
oracle

>  <origin>  (33) 
adg

>  <m_score__min__energy>  (33) 
-4.7599999999999998

>  <m_primary>  (33) 
energy

$$$$
33:0
     RDKit          3D

 47 50  0  0  0  0  0  0  0  0999 V2000
   58.5670   27.6390   47.3210 C   0  0  0  0  0  0  0  0  0  0  0  0
   57.4810   27.5630   46.4050 O   0  0  0  0  0  0  0  0  0  0  0  0
   57.6130   27.0410   45.1120 C   0  0  0  0  0  0  0  0  0  0  0  0
   57.5700   25.6950   44.9120 N   0  0  0  0  0  0  0  0  0  0  0  0
   57.6530   25.1620   43.6670 C   0  0  0  0  0  0  0  0  0  0  0  0
   57.7730   25.9740   42.5860 N   0  0  0  0  0  0  0  0  0  0  0  0
   57.8220   27.3250   42.7320 C   0  0  0  0  0  0  0  0  0  0  0  0
   57.7620   27.9020   44.0080 C   0  0  0  0  0  0  0  0  0  0  0  0
   57.8240   29.3750   44.1510 C   0  0  0  0  0  0  0  0  0  0  0  0
   57.0030   30.2210   43.3850 C   0  0  0  0  0  0  0  0  0  0  0  0
   57.0800   31.6040   43.5600 C   0  0  0  0  0  0  0  0  0  0  0  0
   57.9630   32.1400   44.5040 C   0  0  0  0  0  0  0  0  0  0  0  0
   58.0680   33.5230   44.7020 C   0  0  0  0  0  0  0  0  0  0  0  0
   58.9570   34.0280   45.6550 C   0  0  0  0  0  0  0  0  0  0  0  0
   59.7450   33.1590   46.4300 C   0  0  0  0  0  0  0  0  0  0  0  0
   60.6690   33.6870   47.4010 N   0  0  0  0  0  0  0  0  0  0  0  0
   60.2080   34.1660   48.7080 C   0  0  0  0  0  0  0  0  0  0  0  0
   60.9520   33.4330   49.8390 C   0  0  0  0  0  0  0  0  0  0  0  0
   62.3430   33.0380   49.4910 N   0  0  0  0  0  0  0  0  0  0  0  0
   62.4510   31.5940   49.2200 C   0  0  0  0  0  0  0  0  0  0  0  0
   62.9250   33.8490   48.4010 C   0  0  0  0  0  0  0  0  0  0  0  0
   62.1050   33.7380   47.1040 C   0  0  0  0  0  0  0  0  0  0  0  0
   59.6440   31.7720   46.2240 C   0  0  0  0  0  0  0  0  0  0  0  0
   58.7580   31.2620   45.2690 C   0  0  0  0  0  0  0  0  0  0  0  0
   58.6640   29.9190   45.0750 N   0  0  0  0  0  0  0  0  0  0  0  0
   58.1808   27.6120   48.3506 H   0  0  0  0  0  0  0  0  0  0  0  0
   59.2426   26.7859   47.1603 H   0  0  0  0  0  0  0  0  0  0  0  0
   59.1172   28.5778   47.1603 H   0  0  0  0  0  0  0  0  0  0  0  0
   57.6230   24.0705   43.5336 H   0  0  0  0  0  0  0  0  0  0  0  0
   57.8290   25.5560   41.6300 H   0  0  0  0  0  0  0  0  0  0  0  0
   57.9092   27.9685   41.8441 H   0  0  0  0  0  0  0  0  0  0  0  0
   56.3030   29.7952   42.6510 H   0  0  0  0  0  0  0  0  0  0  0  0
   56.4473   32.2715   42.9565 H   0  0  0  0  0  0  0  0  0  0  0  0
   57.4504   34.2119   44.1070 H   0  0  0  0  0  0  0  0  0  0  0  0
   59.0409   35.1152   45.8000 H   0  0  0  0  0  0  0  0  0  0  0  0
   60.4009   35.2460   48.7872 H   0  0  0  0  0  0  0  0  0  0  0  0
   59.1301   33.9676   48.8017 H   0  0  0  0  0  0  0  0  0  0  0  0
   60.9898   34.0969   50.7153 H   0  0  0  0  0  0  0  0  0  0  0  0
   60.3969   32.5039   50.0354 H   0  0  0  0  0  0  0  0  0  0  0  0
   62.4921   31.0443   50.1719 H   0  0  0  0  0  0  0  0  0  0  0  0
   61.5751   31.2627   48.6429 H   0  0  0  0  0  0  0  0  0  0  0  0
   63.3664   31.3967   48.6429 H   0  0  0  0  0  0  0  0  0  0  0  0
   62.9512   34.9025   48.7164 H   0  0  0  0  0  0  0  0  0  0  0  0
   63.9379   33.4711   48.1978 H   0  0  0  0  0  0  0  0  0  0  0  0
   62.3118   34.6129   46.4701 H   0  0  0  0  0  0  0  0  0  0  0  0
   62.3914   32.8127   46.5827 H   0  0  0  0  0  0  0  0  0  0  0  0
   60.2649   31.0842   46.8168 H   0  0  0  0  0  0  0  0  0  0  0  0
  1  2  1  0
  2  3  1  0
  3  4  2  0
  4  5  1  0
  5  6  2  0
  6  7  1  0
  7  8  2  0
  8  9  1  0
  9 10  2  0
 10 11  1  0
 11 12  2  0
 12 13  1  0
 13 14  2  0
 14 15  1  0
 15 16  1  0
 16 17  1  0
 17 18  1  0
 18 19  1  0
 19 20  1  0
 19 21  1  0
 21 22  1  0
 15 23  2  0
 23 24  1  0
 24 25  2  0
  8  3  1  0
 25  9  1  0
 24 12  1  0
 22 16  1  0
  1 26  1  0
  1 27  1  0
  1 28  1  0
  5 29  1  0
  6 30  1  0
  7 31  1  0
 10 32  1  0
 11 33  1  0
 13 34  1  0
 14 35  1  0
 17 36  1  0
 17 37  1  0
 18 38  1  0
 18 39  1  0
 20 40  1  0
 20 41  1  0
 20 42  1  0
 21 43  1  0
 21 44  1  0
 22 45  1  0
 22 46  1  0
 23 47  1  0
M  CHG  1   6   1
M  END
>  <UniqueID>  (34) 
32

>  <SMILES>  (34) 
COc1nc[nH+]cc1-c1ccc2ccc(N3CCN(C)CC3)cc2n1

>  <Energy>  (34) 
68.26895717991916

>  <Genealogy>  (34) 
COc1nc[nH+]cc1-c1ccc2ccc(N3CCN(C)CC3)cc2n1 (protonated)
COc1nc[nH+]cc1-c1ccc2ccc(N3CCN(C)CC3)cc2n1 (3D coordinates assigned)
COc1nc[nH+]cc1-c1ccc2ccc(N3CCN(C)CC3)cc2n1 (nonaromatic ring conformer: 68.26895717991916 kcal/mol)

>  <smiles>  (34) 
COc1ncncc1-c1ccc2ccc(N3CCN(C)CC3)cc2n1

>  <score_type>  (34) 
oracle

>  <origin>  (34) 
adg

>  <m_score__min__energy>  (34) 
-6.1399999999999997

>  <m_primary>  (34) 
energy

$$$$
34:0
     RDKit          3D

 48 49  0  0  0  0  0  0  0  0999 V2000
   57.0050   20.8690   42.6500 C   0  0  0  0  0  0  0  0  0  0  0  0
   55.9970   21.1970   43.6020 O   0  0  0  0  0  0  0  0  0  0  0  0
   55.8680   22.4500   44.2200 C   0  0  0  0  0  0  0  0  0  0  0  0
   57.0290   23.1690   44.5100 C   0  0  0  0  0  0  0  0  0  0  0  0
   56.9560   24.4230   45.1170 C   0  0  0  0  0  0  0  0  0  0  0  0
   55.7090   24.9910   45.4270 C   0  0  0  0  0  0  0  0  0  0  0  0
   55.6040   26.2760   46.0610 N   0  0  0  0  0  0  0  0  0  0  0  0
   56.6430   27.2530   46.1840 C   0  0  0  0  0  0  0  0  0  0  0  0
   56.5810   28.3460   45.5590 O   0  0  0  0  0  0  0  0  0  0  0  0
   57.8090   26.9850   47.0850 C   0  0  0  0  0  0  0  0  0  0  0  0
   59.0720   27.0500   46.3220 N   0  0  0  0  0  0  0  0  0  0  0  0
   59.6240   25.7080   46.0600 C   0  0  0  0  0  0  0  0  0  0  0  0
   60.0680   27.9490   46.9480 C   0  0  0  0  0  0  0  0  0  0  0  0
   59.7050   29.4090   46.8580 C   0  0  0  0  0  0  0  0  0  0  0  0
   60.2810   30.2410   47.6110 O   0  0  0  0  0  0  0  0  0  0  0  0
   58.6940   29.8420   45.9350 N   0  0  0  0  0  0  0  0  0  0  0  0
   58.5350   31.1980   45.4800 C   0  0  0  0  0  0  0  0  0  0  0  0
   57.8970   31.4390   44.2530 C   0  0  0  0  0  0  0  0  0  0  0  0
   57.7650   32.7430   43.7680 C   0  0  0  0  0  0  0  0  0  0  0  0
   58.2720   33.8200   44.5020 C   0  0  0  0  0  0  0  0  0  0  0  0
   58.9220   33.5890   45.7160 C   0  0  0  0  0  0  0  0  0  0  0  0
   59.6300   35.0560   46.7060 Br  0  0  0  0  0  0  0  0  0  0  0  0
   59.0660   32.2840   46.2000 C   0  0  0  0  0  0  0  0  0  0  0  0
   54.5340   24.2660   45.1690 C   0  0  0  0  0  0  0  0  0  0  0  0
   53.3020   24.8380   45.5260 O   0  0  0  0  0  0  0  0  0  0  0  0
   52.0440   24.4350   44.9990 C   0  0  0  0  0  0  0  0  0  0  0  0
   54.6190   22.9990   44.5600 C   0  0  0  0  0  0  0  0  0  0  0  0
   57.9234   20.5702   43.1766 H   0  0  0  0  0  0  0  0  0  0  0  0
   56.6570   20.0377   42.0192 H   0  0  0  0  0  0  0  0  0  0  0  0
   57.2128   21.7459   42.0192 H   0  0  0  0  0  0  0  0  0  0  0  0
   58.0110   22.7426   44.2574 H   0  0  0  0  0  0  0  0  0  0  0  0
   57.8802   24.9702   45.3543 H   0  0  0  0  0  0  0  0  0  0  0  0
   57.8296   27.7389   47.8858 H   0  0  0  0  0  0  0  0  0  0  0  0
   57.7034   25.9790   47.5172 H   0  0  0  0  0  0  0  0  0  0  0  0
   59.8314   25.2039   47.0154 H   0  0  0  0  0  0  0  0  0  0  0  0
   58.8956   25.1178   45.4846 H   0  0  0  0  0  0  0  0  0  0  0  0
   60.5568   25.8012   45.4846 H   0  0  0  0  0  0  0  0  0  0  0  0
   60.1610   27.6788   48.0102 H   0  0  0  0  0  0  0  0  0  0  0  0
   61.0115   27.8171   46.3981 H   0  0  0  0  0  0  0  0  0  0  0  0
   58.0190   29.1280   45.5820 H   0  0  0  0  0  0  0  0  0  0  0  0
   57.4984   30.5960   43.6695 H   0  0  0  0  0  0  0  0  0  0  0  0
   57.2612   32.9226   42.8068 H   0  0  0  0  0  0  0  0  0  0  0  0
   58.1590   34.8467   44.1238 H   0  0  0  0  0  0  0  0  0  0  0  0
   59.5965   32.1064   47.1472 H   0  0  0  0  0  0  0  0  0  0  0  0
   51.3537   24.2139   45.8264 H   0  0  0  0  0  0  0  0  0  0  0  0
   51.6286   25.2450   44.3815 H   0  0  0  0  0  0  0  0  0  0  0  0
   52.1767   23.5344   44.3815 H   0  0  0  0  0  0  0  0  0  0  0  0
   53.6995   22.4335   44.3483 H   0  0  0  0  0  0  0  0  0  0  0  0
  1  2  1  0
  2  3  1  0
  3  4  2  0
  4  5  1  0
  5  6  2  0
  6  7  1  0
  7  8  1  0
  8  9  2  0
  8 10  1  0
 10 11  1  0
 11 12  1  0
 11 13  1  0
 13 14  1  0
 14 15  2  0
 14 16  1  0
 16 17  1  0
 17 18  2  0
 18 19  1  0
 19 20  2  0
 20 21  1  0
 21 22  1  0
 21 23  2  0
  6 24  1  0
 24 25  1  0
 25 26  1  0
 24 27  2  0
 27  3  1  0
 23 17  1  0
  1 28  1  0
  1 29  1  0
  1 30  1  0
  4 31  1  0
  5 32  1  0
 10 33  1  0
 10 34  1  0
 12 35  1  0
 12 36  1  0
 12 37  1  0
 13 38  1  0
 13 39  1  0
 16 40  1  0
 18 41  1  0
 19 42  1  0
 20 43  1  0
 23 44  1  0
 26 45  1  0
 26 46  1  0
 26 47  1  0
 27 48  1  0
M  CHG  1   7  -1
M  END
>  <UniqueID>  (35) 
33

>  <SMILES>  (35) 
COc1ccc([N-]C(=O)CN(C)CC(=O)Nc2cccc(Br)c2)c(OC)c1

>  <Energy>  (35) 
55.42092807227242

>  <Genealogy>  (35) 
COc1ccc([N-]C(=O)CN(C)CC(=O)Nc2cccc(Br)c2)c(OC)c1 (protonated)
COc1ccc([N-]C(=O)CN(C)CC(=O)Nc2cccc(Br)c2)c(OC)c1 (3D coordinates assigned)
COc1ccc([N-]C(=O)CN(C)CC(=O)Nc2cccc(Br)c2)c(OC)c1 (optimized conformer: 55.42092807227242 kcal/mol)

>  <smiles>  (35) 
COc1ccc(NC(=O)CN(C)CC(=O)Nc2cccc(Br)c2)c(OC)c1

>  <score_type>  (35) 
oracle

>  <origin>  (35) 
adg

>  <m_score__min__energy>  (35) 
-9.6300000000000008

>  <m_primary>  (35) 
energy

$$$$
35:0
     RDKit          3D

 45 47  0  0  0  0  0  0  0  0999 V2000
   57.3650   29.0290   53.1130 C   0  0  0  0  0  0  0  0  0  0  0  0
   57.4740   30.2690   52.3540 N   0  0  0  0  0  0  0  0  0  0  0  0
   56.7320   31.3930   52.5050 C   0  0  0  0  0  0  0  0  0  0  0  0
   57.0360   32.3610   51.5990 N   0  0  0  0  0  0  0  0  0  0  0  0
   58.0060   31.7900   50.8590 C   0  0  0  0  0  0  0  0  0  0  0  0
   58.6770   32.3400   49.7710 C   0  0  0  0  0  0  0  0  0  0  0  0
   59.6480   31.5450   49.1280 C   0  0  0  0  0  0  0  0  0  0  0  0
   60.5330   32.1880   47.7090 S   0  0  0  0  0  0  0  0  0  0  0  0
   59.2810   31.6110   46.5520 C   0  0  0  0  0  0  0  0  0  0  0  0
   58.8610   30.2810   46.6530 C   0  0  0  0  0  0  0  0  0  0  0  0
   57.8300   29.7790   45.8400 C   0  0  0  0  0  0  0  0  0  0  0  0
   57.4620   28.3880   45.9120 N   0  0  0  0  0  0  0  0  0  0  0  0
   58.2020   27.3920   46.6850 C   0  0  0  0  0  0  0  0  0  0  0  0
   57.4290   26.0700   46.7200 C   0  0  0  0  0  0  0  0  0  0  0  0
   56.3480   26.0160   45.6370 C   0  0  0  0  0  0  0  0  0  0  0  0
   55.2030   26.7220   46.0340 O   0  0  0  0  0  0  0  0  0  0  0  0
   57.2070   30.6410   44.9080 C   0  0  0  0  0  0  0  0  0  0  0  0
   56.1050   30.2000   44.0960 N   0  0  0  0  0  0  0  0  0  0  0  0
   56.1080   30.3950   42.8630 O   0  0  0  0  0  0  0  0  0  0  0  0
   55.1310   29.3920   44.6350 O   0  0  0  0  0  0  0  0  0  0  0  0
   57.6520   31.9680   44.7910 C   0  0  0  0  0  0  0  0  0  0  0  0
   58.6880   32.4650   45.5970 C   0  0  0  0  0  0  0  0  0  0  0  0
   59.1140   33.8300   45.4400 N   0  0  0  0  0  0  0  0  0  0  0  0
   59.5970   34.2150   44.3550 O   0  0  0  0  0  0  0  0  0  0  0  0
   59.1510   34.6820   46.5180 O   0  0  0  0  0  0  0  0  0  0  0  0
   59.9220   30.2370   49.5960 C   0  0  0  0  0  0  0  0  0  0  0  0
   59.2230   29.7110   50.6980 C   0  0  0  0  0  0  0  0  0  0  0  0
   58.2690   30.5280   51.3040 C   0  0  0  0  0  0  0  0  0  0  0  0
   57.3849   29.2550   54.1894 H   0  0  0  0  0  0  0  0  0  0  0  0
   56.4193   28.5269   52.8612 H   0  0  0  0  0  0  0  0  0  0  0  0
   58.2086   28.3696   52.8612 H   0  0  0  0  0  0  0  0  0  0  0  0
   55.9619   31.5106   53.2816 H   0  0  0  0  0  0  0  0  0  0  0  0
   58.4573   33.3605   49.4243 H   0  0  0  0  0  0  0  0  0  0  0  0
   59.3463   29.6154   47.3820 H   0  0  0  0  0  0  0  0  0  0  0  0
   56.6540   28.0480   45.3430 H   0  0  0  0  0  0  0  0  0  0  0  0
   59.1844   27.2264   46.2187 H   0  0  0  0  0  0  0  0  0  0  0  0
   58.3322   27.7595   47.7136 H   0  0  0  0  0  0  0  0  0  0  0  0
   58.1341   25.2407   46.5613 H   0  0  0  0  0  0  0  0  0  0  0  0
   56.9363   25.9872   47.7000 H   0  0  0  0  0  0  0  0  0  0  0  0
   56.7428   26.4618   44.7121 H   0  0  0  0  0  0  0  0  0  0  0  0
   56.0711   24.9645   45.4704 H   0  0  0  0  0  0  0  0  0  0  0  0
   55.1460   27.5220   45.4490 H   0  0  0  0  0  0  0  0  0  0  0  0
   57.1787   32.6316   44.0523 H   0  0  0  0  0  0  0  0  0  0  0  0
   60.6875   29.6272   49.0940 H   0  0  0  0  0  0  0  0  0  0  0  0
   59.4214   28.6941   51.0675 H   0  0  0  0  0  0  0  0  0  0  0  0
  1  2  1  0
  2  3  1  0
  3  4  2  0
  4  5  1  0
  5  6  2  0
  6  7  1  0
  7  8  1  0
  8  9  1  0
  9 10  2  0
 10 11  1  0
 11 12  1  0
 12 13  1  0
 13 14  1  0
 14 15  1  0
 15 16  1  0
 11 17  2  0
 17 18  1  0
 18 19  2  0
 18 20  1  0
 17 21  1  0
 21 22  2  0
 22 23  1  0
 23 24  2  0
 23 25  1  0
  7 26  2  0
 26 27  1  0
 27 28  2  0
 28  2  1  0
 28  5  1  0
 22  9  1  0
  1 29  1  0
  1 30  1  0
  1 31  1  0
  3 32  1  0
  6 33  1  0
 10 34  1  0
 12 35  1  0
 13 36  1  0
 13 37  1  0
 14 38  1  0
 14 39  1  0
 15 40  1  0
 15 41  1  0
 16 42  1  0
 21 43  1  0
 26 44  1  0
 27 45  1  0
M  CHG  4  18   1  20  -1  23   1  25  -1
M  END
>  <UniqueID>  (36) 
34

>  <SMILES>  (36) 
Cn1cnc2cc(Sc3cc(NCCCO)c([N+](=O)[O-])cc3[N+](=O)[O-])ccc21

>  <Energy>  (36) 
85.73897368775057

>  <Genealogy>  (36) 
Cn1cnc2cc(Sc3cc(NCCCO)c([N+](=O)[O-])cc3[N+](=O)[O-])ccc21 (3D coordinates assigned)
Cn1cnc2cc(Sc3cc(NCCCO)c([N+](=O)[O-])cc3[N+](=O)[O-])ccc21 (optimized conformer: 85.73897368775057 kcal/mol)

>  <smiles>  (36) 
Cn1cnc2cc(Sc3cc(NCCCO)c([N+](=O)[O-])cc3[N+](=O)[O-])ccc21

>  <score_type>  (36) 
oracle

>  <origin>  (36) 
adg

>  <m_score__min__energy>  (36) 
-8.7799999999999994

>  <m_primary>  (36) 
energy

$$$$
36:0
     RDKit          3D

 50 52  0  0  1  0  0  0  0  0999 V2000
   61.0390   34.3350   48.8880 C   0  0  0  0  0  0  0  0  0  0  0  0
   60.3560   34.9690   47.8200 O   0  0  0  0  0  0  0  0  0  0  0  0
   59.5650   34.2120   46.9770 C   0  0  0  0  0  0  0  0  0  0  0  0
   58.6050   33.4130   47.5540 C   0  0  0  0  0  0  0  0  0  0  0  0
   57.7820   32.6340   46.7690 C   0  0  0  0  0  0  0  0  0  0  0  0
   57.8610   32.5980   45.3890 C   0  0  0  0  0  0  0  0  0  0  0  0
   57.0080   31.7330   44.6080 C   0  0  0  0  0  0  0  0  0  0  0  0
   56.6740   30.4340   44.8500 N   0  0  0  0  0  0  0  0  0  0  0  0
   57.1960   29.4520   45.3710 C   0  0  0  0  0  0  0  0  0  0  0  0
   58.0990   29.5780   46.3910 C   0  0  0  0  0  0  0  0  0  0  0  0
   58.6600   28.4850   46.9480 C   0  0  0  0  0  0  0  0  0  0  0  0
   59.6420   28.7100   48.0640 C   0  0  0  0  0  0  0  0  0  0  0  0
   58.3360   27.2650   46.5060 N   0  0  0  0  0  0  0  0  0  0  0  0
   57.4500   27.1370   45.5050 C   0  0  0  0  0  0  0  0  0  0  0  0
   57.0700   25.8250   44.9940 C   0  0  0  0  0  0  0  0  0  0  0  0
   57.6530   25.2370   43.8930 C   0  0  0  0  0  0  0  0  0  0  0  0
   57.2780   23.9900   43.4230 C   0  0  0  0  0  0  0  0  0  0  0  0
   56.2830   23.2760   44.0570 C   0  0  0  0  0  0  0  0  0  0  0  0
   55.8910   22.0230   43.6030 O   0  0  0  0  0  0  0  0  0  0  0  0
   56.8420   21.1310   43.0780 C   0  0  0  0  0  0  0  0  0  0  0  0
   55.6820   23.8400   45.1630 C   0  0  0  0  0  0  0  0  0  0  0  0
   54.6810   23.1100   45.7910 O   0  0  0  0  0  0  0  0  0  0  0  0
   54.6470   22.8930   47.1850 C   0  0  0  0  0  0  0  0  0  0  0  0
   56.0680   25.0840   45.6170 C   0  0  0  0  0  0  0  0  0  0  0  0
   56.8980   28.2070   44.9560 N   0  0  0  0  0  0  0  0  0  0  0  0
   58.8520   33.4240   44.8320 C   0  0  0  0  0  0  0  0  0  0  0  0
   59.6720   34.2020   45.6170 C   0  0  0  0  0  0  0  0  0  0  0  0
   60.6430   34.7026   49.8461 H   0  0  0  0  0  0  0  0  0  0  0  0
   60.8910   33.2469   48.8234 H   0  0  0  0  0  0  0  0  0  0  0  0
   62.1131   34.5634   48.8234 H   0  0  0  0  0  0  0  0  0  0  0  0
   58.4935   33.3957   48.6482 H   0  0  0  0  0  0  0  0  0  0  0  0
   57.0244   32.0097   47.2654 H   0  0  0  0  0  0  0  0  0  0  0  0
   56.0450   32.2625   44.5612 H   0  0  0  0  0  0  0  0  0  0  0  0
   57.6795   31.5718   43.7518 H   0  0  0  0  0  0  0  0  0  0  0  0
   58.3697   30.5784   46.7598 H   0  0  0  0  0  0  0  0  0  0  0  0
   59.1311   28.5929   49.0311 H   0  0  0  0  0  0  0  0  0  0  0  0
   60.4573   27.9754   47.9887 H   0  0  0  0  0  0  0  0  0  0  0  0
   60.0561   29.7263   47.9887 H   0  0  0  0  0  0  0  0  0  0  0  0
   58.7920   26.4570   46.9650 H   0  0  0  0  0  0  0  0  0  0  0  0
   58.4500   25.7812   43.3651 H   0  0  0  0  0  0  0  0  0  0  0  0
   57.7766   23.5663   42.5388 H   0  0  0  0  0  0  0  0  0  0  0  0
   57.3726   20.6333   43.9031 H   0  0  0  0  0  0  0  0  0  0  0  0
   56.3344   20.3757   42.4600 H   0  0  0  0  0  0  0  0  0  0  0  0
   57.5633   21.6859   42.4600 H   0  0  0  0  0  0  0  0  0  0  0  0
   54.7967   23.8487   47.7086 H   0  0  0  0  0  0  0  0  0  0  0  0
   53.6716   22.4696   47.4665 H   0  0  0  0  0  0  0  0  0  0  0  0
   55.4462   22.1915   47.4665 H   0  0  0  0  0  0  0  0  0  0  0  0
   55.5676   25.5055   46.5013 H   0  0  0  0  0  0  0  0  0  0  0  0
   58.9756   33.4494   43.7393 H   0  0  0  0  0  0  0  0  0  0  0  0
   60.4338   34.8324   45.1352 H   0  0  0  0  0  0  0  0  0  0  0  0
  1  2  1  0
  2  3  1  0
  3  4  2  0
  4  5  1  0
  5  6  2  0
  6  7  1  0
  7  8  1  0
  8  9  2  0
  9 10  1  0
 10 11  2  0
 11 12  1  0
 11 13  1  0
 13 14  1  0
 14 15  1  0
 15 16  2  0
 16 17  1  0
 17 18  2  0
 18 19  1  0
 19 20  1  0
 18 21  1  0
 21 22  1  0
 22 23  1  0
 21 24  2  0
 14 25  2  0
  6 26  1  0
 26 27  2  0
 27  3  1  0
 25  9  1  0
 24 15  1  0
  1 28  1  0
  1 29  1  0
  1 30  1  0
  4 31  1  0
  5 32  1  0
  7 33  1  0
  7 34  1  0
 10 35  1  0
 12 36  1  0
 12 37  1  0
 12 38  1  0
 13 39  1  0
 16 40  1  0
 17 41  1  0
 20 42  1  0
 20 43  1  0
 20 44  1  0
 23 45  1  0
 23 46  1  0
 23 47  1  0
 24 48  1  0
 26 49  1  0
 27 50  1  0
M  END
>  <smiles>  (37) 
COc1ccc(CN=c2cc(C)[nH]c(-c3ccc(OC)c(OC)c3)n2)cc1

>  <score_type>  (37) 
oracle

>  <origin>  (37) 
adg

>  <m_score__min__energy>  (37) 
-8.7400000000000002

>  <m_primary>  (37) 
energy

$$$$
37:0
     RDKit          3D

 62 64  0  0  0  0  0  0  0  0999 V2000
   57.3890   31.9340   41.9230 C   0  0  0  0  0  0  0  0  0  0  0  0
   56.8700   30.5400   42.2540 C   0  0  0  0  0  0  0  0  0  0  0  0
   55.9800   30.5890   43.3670 O   0  0  0  0  0  0  0  0  0  0  0  0
   56.1640   29.8490   44.5370 C   0  0  0  0  0  0  0  0  0  0  0  0
   55.1720   29.3400   45.1260 O   0  0  0  0  0  0  0  0  0  0  0  0
   57.5170   29.6810   45.1080 C   0  0  0  0  0  0  0  0  0  0  0  0
   58.4150   30.6770   45.5000 C   0  0  0  0  0  0  0  0  0  0  0  0
   58.1520   32.4370   45.4250 S   0  0  0  0  0  0  0  0  0  0  0  0
   56.6780   32.7240   45.3610 O   0  0  0  0  0  0  0  0  0  0  0  0
   58.7520   32.9960   44.1660 O   0  0  0  0  0  0  0  0  0  0  0  0
   58.8260   33.2640   46.8150 N   0  0  0  0  0  0  0  0  0  0  0  0
   59.1070   32.3050   47.9050 C   0  0  0  0  0  0  0  0  0  0  0  0
   60.0450   32.9000   48.9590 C   0  0  0  0  0  0  0  0  0  0  0  0
   61.3100   33.3110   48.3330 N   0  0  0  0  0  0  0  0  0  0  0  0
   62.5250   33.3800   49.1110 C   0  0  0  0  0  0  0  0  0  0  0  0
   63.6870   32.7090   48.6900 C   0  0  0  0  0  0  0  0  0  0  0  0
   64.8600   32.7750   49.4460 C   0  0  0  0  0  0  0  0  0  0  0  0
   64.8950   33.5170   50.6400 C   0  0  0  0  0  0  0  0  0  0  0  0
   66.0490   33.6150   51.4330 O   0  0  0  0  0  0  0  0  0  0  0  0
   67.3410   33.1750   51.0300 C   0  0  0  0  0  0  0  0  0  0  0  0
   63.7410   34.1840   51.0610 C   0  0  0  0  0  0  0  0  0  0  0  0
   62.5660   34.1180   50.3080 C   0  0  0  0  0  0  0  0  0  0  0  0
   61.3260   33.5900   46.8900 C   0  0  0  0  0  0  0  0  0  0  0  0
   59.9630   34.1420   46.4480 C   0  0  0  0  0  0  0  0  0  0  0  0
   59.5780   30.0120   45.8970 C   0  0  0  0  0  0  0  0  0  0  0  0
   60.8560   30.6460   46.3800 C   0  0  0  0  0  0  0  0  0  0  0  0
   59.3970   28.6710   45.8200 N   0  0  0  0  0  0  0  0  0  0  0  0
   60.3940   27.6400   46.1440 C   0  0  0  0  0  0  0  0  0  0  0  0
   60.1730   27.1070   47.5550 C   0  0  0  0  0  0  0  0  0  0  0  0
   58.1520   28.4640   45.3270 C   0  0  0  0  0  0  0  0  0  0  0  0
   57.5670   27.1170   44.9960 C   0  0  0  0  0  0  0  0  0  0  0  0
   57.5925   32.4805   42.8557 H   0  0  0  0  0  0  0  0  0  0  0  0
   58.3163   31.8505   41.3372 H   0  0  0  0  0  0  0  0  0  0  0  0
   56.6329   32.4772   41.3372 H   0  0  0  0  0  0  0  0  0  0  0  0
   56.3361   30.1360   41.3812 H   0  0  0  0  0  0  0  0  0  0  0  0
   57.7232   29.8944   42.5093 H   0  0  0  0  0  0  0  0  0  0  0  0
   58.1586   32.0277   48.3884 H   0  0  0  0  0  0  0  0  0  0  0  0
   59.6000   31.4247   47.4669 H   0  0  0  0  0  0  0  0  0  0  0  0
   59.5655   33.7760   49.4202 H   0  0  0  0  0  0  0  0  0  0  0  0
   60.2527   32.1403   49.7270 H   0  0  0  0  0  0  0  0  0  0  0  0
   63.6722   32.1268   47.7568 H   0  0  0  0  0  0  0  0  0  0  0  0
   65.7610   32.2437   49.1054 H   0  0  0  0  0  0  0  0  0  0  0  0
   67.9519   32.9670   51.9208 H   0  0  0  0  0  0  0  0  0  0  0  0
   67.2453   32.2588   50.4288 H   0  0  0  0  0  0  0  0  0  0  0  0
   67.8244   33.9592   50.4288 H   0  0  0  0  0  0  0  0  0  0  0  0
   63.7581   34.7664   51.9940 H   0  0  0  0  0  0  0  0  0  0  0  0
   61.6658   34.6473   50.6538 H   0  0  0  0  0  0  0  0  0  0  0  0
   62.1081   34.3318   46.6708 H   0  0  0  0  0  0  0  0  0  0  0  0
   61.5331   32.6579   46.3437 H   0  0  0  0  0  0  0  0  0  0  0  0
   59.8135   35.1231   46.9225 H   0  0  0  0  0  0  0  0  0  0  0  0
   59.9802   34.2099   45.3502 H   0  0  0  0  0  0  0  0  0  0  0  0
   60.8692   30.6525   47.4799 H   0  0  0  0  0  0  0  0  0  0  0  0
   61.7152   30.0697   46.0064 H   0  0  0  0  0  0  0  0  0  0  0  0
   60.9169   31.6788   46.0064 H   0  0  0  0  0  0  0  0  0  0  0  0
   60.3041   26.8115   45.4260 H   0  0  0  0  0  0  0  0  0  0  0  0
   61.3980   28.0857   46.0857 H   0  0  0  0  0  0  0  0  0  0  0  0
   60.4875   27.8655   48.2869 H   0  0  0  0  0  0  0  0  0  0  0  0
   59.1064   26.8794   47.6981 H   0  0  0  0  0  0  0  0  0  0  0  0
   60.7657   26.1914   47.6981 H   0  0  0  0  0  0  0  0  0  0  0  0
   57.3337   26.5798   45.9271 H   0  0  0  0  0  0  0  0  0  0  0  0
   56.6461   27.2513   44.4095 H   0  0  0  0  0  0  0  0  0  0  0  0
   58.2937   26.5357   44.4095 H   0  0  0  0  0  0  0  0  0  0  0  0
  1  2  1  0
  2  3  1  0
  3  4  1  0
  4  5  2  0
  4  6  1  0
  6  7  1  0
  7  8  1  0
  8  9  2  0
  8 10  2  0
  8 11  1  0
 11 12  1  0
 12 13  1  0
 13 14  1  0
 14 15  1  0
 15 16  2  0
 16 17  1  0
 17 18  2  0
 18 19  1  0
 19 20  1  0
 18 21  1  0
 21 22  2  0
 14 23  1  0
 23 24  1  0
  7 25  2  0
 25 26  1  0
 25 27  1  0
 27 28  1  0
 28 29  1  0
 27 30  1  0
 30 31  1  0
 30  6  2  0
 24 11  1  0
 22 15  1  0
  1 32  1  0
  1 33  1  0
  1 34  1  0
  2 35  1  0
  2 36  1  0
 12 37  1  0
 12 38  1  0
 13 39  1  0
 13 40  1  0
 16 41  1  0
 17 42  1  0
 20 43  1  0
 20 44  1  0
 20 45  1  0
 21 46  1  0
 22 47  1  0
 23 48  1  0
 23 49  1  0
 24 50  1  0
 24 51  1  0
 26 52  1  0
 26 53  1  0
 26 54  1  0
 28 55  1  0
 28 56  1  0
 29 57  1  0
 29 58  1  0
 29 59  1  0
 31 60  1  0
 31 61  1  0
 31 62  1  0
M  END
>  <UniqueID>  (38) 
35

>  <SMILES>  (38) 
CCOC(=O)c1c(S(=O)(=O)N2CCN(c3ccc(OC)cc3)CC2)c(C)n(CC)c1C

>  <Energy>  (38) 
94.39902176010908

>  <Genealogy>  (38) 
CCOC(=O)c1c(S(=O)(=O)N2CCN(c3ccc(OC)cc3)CC2)c(C)n(CC)c1C (3D coordinates assigned)
CCOC(=O)c1c(S(=O)(=O)N2CCN(c3ccc(OC)cc3)CC2)c(C)n(CC)c1C (nonaromatic ring conformer: 94.39902176010908 kcal/mol)

>  <smiles>  (38) 
CCOC(=O)c1c(S(=O)(=O)N2CCN(c3ccc(OC)cc3)CC2)c(C)n(CC)c1C

>  <score_type>  (38) 
oracle

>  <origin>  (38) 
adg

>  <m_score__min__energy>  (38) 
-8.2300000000000004

>  <m_primary>  (38) 
energy

$$$$
38:0
     RDKit          3D

 43 46  0  0  0  0  0  0  0  0999 V2000
   57.3469   24.5056   47.2712 H   0  0  0  0  0  0  0  0  0  0  0  0
   57.1430   24.0860   46.2750 C   0  0  0  0  0  0  0  0  0  0  0  0
   56.7880   22.7400   46.1500 C   0  0  0  0  0  0  0  0  0  0  0  0
   56.7005   22.1115   47.0485 H   0  0  0  0  0  0  0  0  0  0  0  0
   56.5430   22.1870   44.8860 C   0  0  0  0  0  0  0  0  0  0  0  0
   56.1270   20.7430   44.7560 C   0  0  0  0  0  0  0  0  0  0  0  0
   56.7575   20.1267   45.4138 H   0  0  0  0  0  0  0  0  0  0  0  0
   55.0688   20.6566   45.0436 H   0  0  0  0  0  0  0  0  0  0  0  0
   56.2740   20.2760   43.3790 N   0  0  0  0  0  0  0  0  0  0  0  0
   57.2120   20.5730   43.0220 H   0  0  0  0  0  0  0  0  0  0  0  0
   56.2480   19.2300   43.3730 H   0  0  0  0  0  0  0  0  0  0  0  0
   56.6390   23.0000   43.7480 C   0  0  0  0  0  0  0  0  0  0  0  0
   56.4349   22.5762   42.7536 H   0  0  0  0  0  0  0  0  0  0  0  0
   56.9930   24.3470   43.8710 C   0  0  0  0  0  0  0  0  0  0  0  0
   57.0777   24.9726   42.9702 H   0  0  0  0  0  0  0  0  0  0  0  0
   57.2420   24.9100   45.1370 C   0  0  0  0  0  0  0  0  0  0  0  0
   57.6290   26.3360   45.2860 C   0  0  0  0  0  0  0  0  0  0  0  0
   56.6640   27.2910   45.2800 N   0  0  0  0  0  0  0  0  0  0  0  0
   56.9150   28.6220   45.4040 C   0  0  0  0  0  0  0  0  0  0  0  0
   55.9270   29.4210   45.1010 N   0  0  0  0  0  0  0  0  0  0  0  0
   55.5740   30.0350   43.8250 C   0  0  0  0  0  0  0  0  0  0  0  0
   54.5067   30.2113   44.0244 H   0  0  0  0  0  0  0  0  0  0  0  0
   56.7390   30.8280   43.2560 C   0  0  0  0  0  0  0  0  0  0  0  0
   56.5524   31.7655   42.7118 H   0  0  0  0  0  0  0  0  0  0  0  0
   57.6663   31.2520   43.6687 H   0  0  0  0  0  0  0  0  0  0  0  0
   56.3510   29.5000   42.6340 C   0  0  0  0  0  0  0  0  0  0  0  0
   55.8832   29.4748   41.6387 H   0  0  0  0  0  0  0  0  0  0  0  0
   56.8808   28.5626   42.4090 H   0  0  0  0  0  0  0  0  0  0  0  0
   58.2560   29.0390   45.6920 C   0  0  0  0  0  0  0  0  0  0  0  0
   58.6400   30.2990   46.2170 C   0  0  0  0  0  0  0  0  0  0  0  0
   57.7800   31.0720   46.7180 O   0  0  0  0  0  0  0  0  0  0  0  0
   59.9650   30.6450   46.2840 N   0  0  0  0  0  0  0  0  0  0  0  0
   60.3650   31.9730   46.7630 C   0  0  0  0  0  0  0  0  0  0  0  0
   60.3673   31.9807   47.8630 H   0  0  0  0  0  0  0  0  0  0  0  0
   61.3738   32.2079   46.3926 H   0  0  0  0  0  0  0  0  0  0  0  0
   59.6538   32.7260   46.3926 H   0  0  0  0  0  0  0  0  0  0  0  0
   60.9270   29.7210   46.0090 C   0  0  0  0  0  0  0  0  0  0  0  0
   61.9875   30.0107   46.0454 H   0  0  0  0  0  0  0  0  0  0  0  0
   60.5890   28.4480   45.6910 N   0  0  0  0  0  0  0  0  0  0  0  0
   61.3550   27.7490   45.5590 H   0  0  0  0  0  0  0  0  0  0  0  0
   59.2870   28.0780   45.5630 C   0  0  0  0  0  0  0  0  0  0  0  0
   58.9690   26.7310   45.3530 C   0  0  0  0  0  0  0  0  0  0  0  0
   59.7703   25.9857   45.2411 H   0  0  0  0  0  0  0  0  0  0  0  0
  1  2  1  0
  2  3  2  0
  3  4  1  0
  3  5  1  0
  5  6  1  0
  6  7  1  0
  6  8  1  0
  6  9  1  0
  9 10  1  0
  9 11  1  0
  5 12  2  0
 12 13  1  0
 12 14  1  0
 14 15  1  0
 14 16  2  0
 16 17  1  0
 17 18  1  0
 18 19  1  0
 19 20  2  0
 20 21  1  0
 21 22  1  0
 21 23  1  0
 23 24  1  0
 23 25  1  0
 23 26  1  0
 26 27  1  0
 26 28  1  0
 19 29  1  0
 29 30  1  0
 30 31  2  0
 30 32  1  0
 32 33  1  0
 33 34  1  0
 33 35  1  0
 33 36  1  0
 32 37  1  0
 37 38  1  0
 37 39  2  0
 39 40  1  0
 39 41  1  0
 41 42  1  0
 42 43  1  0
 16  2  1  0
 42 17  2  0
 26 21  1  0
 41 29  2  0
M  CHG  2  18  -1  39   1
M  END
>  <UniqueID>  (39) 
36

>  <SMILES>  (39) 
Cn1c[nH+]c2cc(-c3ccc(CN)cc3)[n-]/c(=N/C3CC3)c2c1=O

>  <Energy>  (39) 
339.7106674771212

>  <Genealogy>  (39) 
Cn1c[nH+]c2cc(-c3ccc(CN)cc3)[n-]c(=NC3CC3)c2c1=O (protonated)
Cn1c[nH+]c2cc(-c3ccc(CN)cc3)[n-]/c(=N/C3CC3)c2c1=O (cis-trans isomerization)
Cn1c[nH+]c2cc(-c3ccc(CN)cc3)[n-]/c(=N/C3CC3)c2c1=O (3D coordinates assigned)
Cn1c[nH+]c2cc(-c3ccc(CN)cc3)[n-]/c(=N/C3CC3)c2c1=O (nonaromatic ring conformer: 339.7106674771212 kcal/mol)

>  <smiles>  (39) 
Cn1cnc2cc(-c3ccc(CN)cc3)[nH]c(=NC3CC3)c2c1=O

>  <score_type>  (39) 
oracle

>  <origin>  (39) 
adg

>  <m_score__min__energy>  (39) 
-7.9800000000000004

>  <m_primary>  (39) 
energy

$$$$
39:0
     RDKit          3D

 52 56  0  0  0  0  0  0  0  0999 V2000
   60.5220   28.9600   45.2710 O   0  0  0  0  0  0  0  0  0  0  0  0
   59.6310   29.6970   45.7720 C   0  0  0  0  0  0  0  0  0  0  0  0
   58.3290   29.8220   45.0860 C   0  0  0  0  0  0  0  0  0  0  0  0
   58.2060   30.5610   43.8990 C   0  0  0  0  0  0  0  0  0  0  0  0
   56.9630   30.6770   43.2730 C   0  0  0  0  0  0  0  0  0  0  0  0
   55.8550   30.0410   43.8330 C   0  0  0  0  0  0  0  0  0  0  0  0
   55.9900   29.3110   44.9710 N   0  0  0  0  0  0  0  0  0  0  0  0
   57.1900   29.1830   45.5990 C   0  0  0  0  0  0  0  0  0  0  0  0
   59.9200   30.4160   47.0310 C   0  0  0  0  0  0  0  0  0  0  0  0
   60.4060   29.8520   48.1930 C   0  0  0  0  0  0  0  0  0  0  0  0
   60.7690   28.5240   48.3790 O   0  0  0  0  0  0  0  0  0  0  0  0
   60.4590   30.8480   49.1400 C   0  0  0  0  0  0  0  0  0  0  0  0
   60.8810   30.6900   50.4580 O   0  0  0  0  0  0  0  0  0  0  0  0
   60.0260   32.0150   48.6180 N   0  0  0  0  0  0  0  0  0  0  0  0
   59.8960   33.2830   49.3470 C   0  0  0  0  0  0  0  0  0  0  0  0
   60.9890   34.2850   48.9470 C   0  0  0  0  0  0  0  0  0  0  0  0
   62.3290   33.6270   48.7920 C   0  0  0  0  0  0  0  0  0  0  0  0
   62.8840   33.1510   47.6090 C   0  0  0  0  0  0  0  0  0  0  0  0
   64.1500   32.7220   47.8190 N   0  0  0  0  0  0  0  0  0  0  0  0
   64.4020   32.9340   49.1240 C   0  0  0  0  0  0  0  0  0  0  0  0
   65.5940   32.6930   49.8030 C   0  0  0  0  0  0  0  0  0  0  0  0
   65.6550   33.0350   51.1670 C   0  0  0  0  0  0  0  0  0  0  0  0
   64.5360   33.6060   51.8120 C   0  0  0  0  0  0  0  0  0  0  0  0
   63.3460   33.8380   51.1010 C   0  0  0  0  0  0  0  0  0  0  0  0
   63.3140   33.4860   49.7510 C   0  0  0  0  0  0  0  0  0  0  0  0
   59.6870   31.7600   47.3280 C   0  0  0  0  0  0  0  0  0  0  0  0
   58.9770   32.7120   46.4500 C   0  0  0  0  0  0  0  0  0  0  0  0
   57.5750   32.7180   46.3970 C   0  0  0  0  0  0  0  0  0  0  0  0
   56.9050   33.6460   45.5940 C   0  0  0  0  0  0  0  0  0  0  0  0
   57.6300   34.5730   44.8410 C   0  0  0  0  0  0  0  0  0  0  0  0
   59.0270   34.5750   44.8910 C   0  0  0  0  0  0  0  0  0  0  0  0
   59.7020   33.6500   45.6940 C   0  0  0  0  0  0  0  0  0  0  0  0
   61.0580   33.6670   45.7340 F   0  0  0  0  0  0  0  0  0  0  0  0
   59.0894   31.0492   43.4615 H   0  0  0  0  0  0  0  0  0  0  0  0
   56.8588   31.2636   42.3483 H   0  0  0  0  0  0  0  0  0  0  0  0
   54.8697   30.1307   43.3522 H   0  0  0  0  0  0  0  0  0  0  0  0
   57.2677   28.5759   46.5130 H   0  0  0  0  0  0  0  0  0  0  0  0
   61.2220   29.7980   50.7930 H   0  0  0  0  0  0  0  0  0  0  0  0
   58.9120   33.7220   49.1253 H   0  0  0  0  0  0  0  0  0  0  0  0
   60.0017   33.0723   50.4214 H   0  0  0  0  0  0  0  0  0  0  0  0
   60.7100   34.7511   47.9905 H   0  0  0  0  0  0  0  0  0  0  0  0
   61.0705   35.0348   49.7477 H   0  0  0  0  0  0  0  0  0  0  0  0
   62.3664   33.1267   46.6387 H   0  0  0  0  0  0  0  0  0  0  0  0
   64.8050   32.3310   47.1070 H   0  0  0  0  0  0  0  0  0  0  0  0
   66.4600   32.2496   49.2897 H   0  0  0  0  0  0  0  0  0  0  0  0
   66.5804   32.8563   51.7343 H   0  0  0  0  0  0  0  0  0  0  0  0
   64.5961   33.8710   52.8779 H   0  0  0  0  0  0  0  0  0  0  0  0
   62.4683   34.2827   51.5928 H   0  0  0  0  0  0  0  0  0  0  0  0
   57.0010   31.9901   46.9892 H   0  0  0  0  0  0  0  0  0  0  0  0
   55.8057   33.6462   45.5551 H   0  0  0  0  0  0  0  0  0  0  0  0
   57.1014   35.3015   44.2086 H   0  0  0  0  0  0  0  0  0  0  0  0
   59.5965   35.3055   44.2976 H   0  0  0  0  0  0  0  0  0  0  0  0
  1  2  2  0
  2  3  1  0
  3  4  2  0
  4  5  1  0
  5  6  2  0
  6  7  1  0
  7  8  2  0
  2  9  1  0
  9 10  1  0
 10 11  1  0
 10 12  2  0
 12 13  1  0
 12 14  1  0
 14 15  1  0
 15 16  1  0
 16 17  1  0
 17 18  2  0
 18 19  1  0
 19 20  1  0
 20 21  2  0
 21 22  1  0
 22 23  2  0
 23 24  1  0
 24 25  2  0
 14 26  1  0
 26 27  1  0
 27 28  2  0
 28 29  1  0
 29 30  2  0
 30 31  1  0
 31 32  2  0
 32 33  1  0
  8  3  1  0
 26  9  2  0
 32 27  1  0
 25 17  1  0
 25 20  1  0
  4 34  1  0
  5 35  1  0
  6 36  1  0
  8 37  1  0
 13 38  1  0
 15 39  1  0
 15 40  1  0
 16 41  1  0
 16 42  1  0
 18 43  1  0
 19 44  1  0
 21 45  1  0
 22 46  1  0
 23 47  1  0
 24 48  1  0
 28 49  1  0
 29 50  1  0
 30 51  1  0
 31 52  1  0
M  CHG  1  11  -1
M  END
>  <UniqueID>  (40) 
37

>  <SMILES>  (40) 
O=C(c1cccnc1)c1c([O-])c(O)n(CCc2c[nH]c3ccccc23)c1-c1ccccc1F

>  <Energy>  (40) 
125.56338431812253

>  <Genealogy>  (40) 
O=C(c1cccnc1)c1c([O-])c(O)n(CCc2c[nH]c3ccccc23)c1-c1ccccc1F (protonated)
O=C(c1cccnc1)c1c([O-])c(O)n(CCc2c[nH]c3ccccc23)c1-c1ccccc1F (3D coordinates assigned)
O=C(c1cccnc1)c1c([O-])c(O)n(CCc2c[nH]c3ccccc23)c1-c1ccccc1F (optimized conformer: 125.56338431812253 kcal/mol)

>  <smiles>  (40) 
O=C(c1cccnc1)c1c(O)c(O)n(CCc2c[nH]c3ccccc23)c1-c1ccccc1F

>  <score_type>  (40) 
oracle

>  <origin>  (40) 
adg

>  <m_score__min__energy>  (40) 
-11.33

>  <m_primary>  (40) 
energy

$$$$
40:0
     RDKit          3D

 37 38  0  0  0  0  0  0  0  0999 V2000
   55.4520   29.3880   45.0660 N   0  0  0  0  0  0  0  0  0  0  0  0
   56.6010   29.3760   44.1660 C   0  0  0  0  0  0  0  0  0  0  0  0
   57.8220   29.9870   44.8630 C   0  0  0  0  0  0  0  0  0  0  0  0
   57.6030   31.4680   45.2420 C   0  0  2  0  0  0  0  0  0  0  0  0
   58.1640   32.4310   44.1650 C   0  0  0  0  0  0  0  0  0  0  0  0
   58.6110   33.7820   44.7470 C   0  0  0  0  0  0  0  0  0  0  0  0
   57.7850   34.1520   45.9860 C   0  0  0  0  0  0  0  0  0  0  0  0
   57.9010   33.1470   47.0770 N   0  0  0  0  0  0  0  0  0  0  0  0
   58.8360   33.5780   48.1350 C   0  0  0  0  0  0  0  0  0  0  0  0
   60.2470   33.2210   47.7600 C   0  0  0  0  0  0  0  0  0  0  0  0
   61.0450   34.1070   47.0200 C   0  0  0  0  0  0  0  0  0  0  0  0
   62.3540   33.7430   46.6980 C   0  0  0  0  0  0  0  0  0  0  0  0
   62.8530   32.5070   47.1120 C   0  0  0  0  0  0  0  0  0  0  0  0
   62.0310   31.6490   47.8460 C   0  0  0  0  0  0  0  0  0  0  0  0
   60.7590   32.0210   48.1510 N   0  0  0  0  0  0  0  0  0  0  0  0
   58.2400   31.7790   46.6100 C   0  0  0  0  0  0  0  0  0  0  0  0
   55.7730   29.7320   46.0010 H   0  0  0  0  0  0  0  0  0  0  0  0
   55.1460   28.3980   45.2040 H   0  0  0  0  0  0  0  0  0  0  0  0
   56.8273   28.3386   43.8786 H   0  0  0  0  0  0  0  0  0  0  0  0
   56.3633   29.9689   43.2705 H   0  0  0  0  0  0  0  0  0  0  0  0
   58.0290   29.4147   45.7793 H   0  0  0  0  0  0  0  0  0  0  0  0
   58.6671   29.9418   44.1603 H   0  0  0  0  0  0  0  0  0  0  0  0
   56.5166   31.6288   45.3041 H   0  0  0  0  0  0  0  0  0  0  0  0
   59.0292   31.9528   43.6826 H   0  0  0  0  0  0  0  0  0  0  0  0
   57.3551   32.6315   43.4470 H   0  0  0  0  0  0  0  0  0  0  0  0
   59.6723   33.7178   45.0291 H   0  0  0  0  0  0  0  0  0  0  0  0
   58.4596   34.5583   43.9825 H   0  0  0  0  0  0  0  0  0  0  0  0
   58.1350   35.1237   46.3645 H   0  0  0  0  0  0  0  0  0  0  0  0
   56.7288   34.1896   45.6810 H   0  0  0  0  0  0  0  0  0  0  0  0
   58.7596   34.6676   48.2652 H   0  0  0  0  0  0  0  0  0  0  0  0
   58.5747   33.0675   49.0737 H   0  0  0  0  0  0  0  0  0  0  0  0
   60.6432   35.0787   46.6968 H   0  0  0  0  0  0  0  0  0  0  0  0
   62.9904   34.4287   46.1194 H   0  0  0  0  0  0  0  0  0  0  0  0
   63.8829   32.2117   46.8628 H   0  0  0  0  0  0  0  0  0  0  0  0
   62.4126   30.6720   48.1775 H   0  0  0  0  0  0  0  0  0  0  0  0
   59.3331   31.6934   46.5216 H   0  0  0  0  0  0  0  0  0  0  0  0
   57.8455   31.0596   47.3427 H   0  0  0  0  0  0  0  0  0  0  0  0
  1  2  1  0
  2  3  1  0
  3  4  1  0
  4  5  1  0
  5  6  1  0
  6  7  1  0
  7  8  1  0
  8  9  1  0
  9 10  1  0
 10 11  2  0
 11 12  1  0
 12 13  2  0
 13 14  1  0
 14 15  2  0
  8 16  1  0
 16  4  1  0
 15 10  1  0
  1 17  1  0
  1 18  1  0
  2 19  1  0
  2 20  1  0
  3 21  1  0
  3 22  1  0
  4 23  1  1
  5 24  1  0
  5 25  1  0
  6 26  1  0
  6 27  1  0
  7 28  1  0
  7 29  1  0
  9 30  1  0
  9 31  1  0
 11 32  1  0
 12 33  1  0
 13 34  1  0
 14 35  1  0
 16 36  1  0
 16 37  1  0
M  END
>  <UniqueID>  (41) 
38

>  <SMILES>  (41) 
NCC[C@@H]1CCCN(Cc2ccccn2)C1

>  <Energy>  (41) 
39.65396655303895

>  <Genealogy>  (41) 
NCC[C@@H]1CCCN(Cc2ccccn2)C1 (chirality)
NCC[C@@H]1CCCN(Cc2ccccn2)C1 (3D coordinates assigned)
NCC[C@@H]1CCCN(Cc2ccccn2)C1 (nonaromatic ring conformer: 39.65396655303895 kcal/mol)

>  <smiles>  (41) 
NCCC1CCCN(Cc2ccccn2)C1

>  <score_type>  (41) 
oracle

>  <origin>  (41) 
adg

>  <m_score__min__energy>  (41) 
-6.9900000000000002

>  <m_primary>  (41) 
energy

$$$$
41:0
     RDKit          3D

 35 35  0  0  0  0  0  0  0  0999 V2000
   63.3910   33.8410   46.3760 C   0  0  0  0  0  0  0  0  0  0  0  0
   62.3610   33.0190   47.1440 C   0  0  0  0  0  0  0  0  0  0  0  0
   61.6450   33.8730   48.1970 C   0  0  0  0  0  0  0  0  0  0  0  0
   60.8020   33.0010   49.1340 C   0  0  0  0  0  0  0  0  0  0  0  0
   59.3400   33.4550   49.2180 C   0  0  0  0  0  0  0  0  0  0  0  0
   58.5230   32.7620   48.2700 O   0  0  0  0  0  0  0  0  0  0  0  0
   58.5020   32.9570   46.8790 C   0  0  0  0  0  0  0  0  0  0  0  0
   58.8240   34.2300   46.3940 C   0  0  0  0  0  0  0  0  0  0  0  0
   58.8250   34.4900   45.0230 C   0  0  0  0  0  0  0  0  0  0  0  0
   58.4970   33.4800   44.1180 C   0  0  0  0  0  0  0  0  0  0  0  0
   58.1570   32.1970   44.5800 C   0  0  0  0  0  0  0  0  0  0  0  0
   57.8370   31.1330   43.6680 N   0  0  0  0  0  0  0  0  0  0  0  0
   56.6260   30.3620   43.7210 C   0  0  0  0  0  0  0  0  0  0  0  0
   56.3050   29.4050   42.6200 C   0  0  0  0  0  0  0  0  0  0  0  0
   55.8700   30.4230   44.7280 O   0  0  0  0  0  0  0  0  0  0  0  0
   58.1840   31.9360   45.9590 C   0  0  0  0  0  0  0  0  0  0  0  0
   64.0468   34.3643   47.0874 H   0  0  0  0  0  0  0  0  0  0  0  0
   63.9948   33.1737   45.7434 H   0  0  0  0  0  0  0  0  0  0  0  0
   62.8743   34.5777   45.7434 H   0  0  0  0  0  0  0  0  0  0  0  0
   61.6174   32.6235   46.4364 H   0  0  0  0  0  0  0  0  0  0  0  0
   62.8826   32.1976   47.6571 H   0  0  0  0  0  0  0  0  0  0  0  0
   62.3955   34.4162   48.7900 H   0  0  0  0  0  0  0  0  0  0  0  0
   60.9770   34.5777   47.6801 H   0  0  0  0  0  0  0  0  0  0  0  0
   60.8270   31.9647   48.7660 H   0  0  0  0  0  0  0  0  0  0  0  0
   61.2329   33.0882   50.1423 H   0  0  0  0  0  0  0  0  0  0  0  0
   58.9608   33.2551   50.2310 H   0  0  0  0  0  0  0  0  0  0  0  0
   59.2978   34.5304   48.9906 H   0  0  0  0  0  0  0  0  0  0  0  0
   59.0788   35.0335   47.1007 H   0  0  0  0  0  0  0  0  0  0  0  0
   59.0850   35.4935   44.6549 H   0  0  0  0  0  0  0  0  0  0  0  0
   58.5046   33.6889   43.0380 H   0  0  0  0  0  0  0  0  0  0  0  0
   58.5660   30.8420   42.9770 H   0  0  0  0  0  0  0  0  0  0  0  0
   55.9831   28.4453   43.0506 H   0  0  0  0  0  0  0  0  0  0  0  0
   55.4962   29.8181   41.9993 H   0  0  0  0  0  0  0  0  0  0  0  0
   57.1993   29.2468   41.9993 H   0  0  0  0  0  0  0  0  0  0  0  0
   57.9548   30.9247   46.3261 H   0  0  0  0  0  0  0  0  0  0  0  0
  1  2  1  0
  2  3  1  0
  3  4  1  0
  4  5  1  0
  5  6  1  0
  6  7  1  0
  7  8  2  0
  8  9  1  0
  9 10  2  0
 10 11  1  0
 11 12  1  0
 12 13  1  0
 13 14  1  0
 13 15  2  0
 11 16  2  0
 16  7  1  0
  1 17  1  0
  1 18  1  0
  1 19  1  0
  2 20  1  0
  2 21  1  0
  3 22  1  0
  3 23  1  0
  4 24  1  0
  4 25  1  0
  5 26  1  0
  5 27  1  0
  8 28  1  0
  9 29  1  0
 10 30  1  0
 12 31  1  0
 14 32  1  0
 14 33  1  0
 14 34  1  0
 16 35  1  0
M  END
>  <UniqueID>  (42) 
39

>  <SMILES>  (42) 
CCCCCOc1cccc(NC(C)=O)c1

>  <Energy>  (42) 
27.232213610317736

>  <Genealogy>  (42) 
CCCCCOc1cccc(NC(C)=O)c1 (3D coordinates assigned)
CCCCCOc1cccc(NC(C)=O)c1 (optimized conformer: 27.232213610317736 kcal/mol)

>  <smiles>  (42) 
CCCCCOc1cccc(NC(C)=O)c1

>  <score_type>  (42) 
oracle

>  <origin>  (42) 
adg

>  <m_score__min__energy>  (42) 
-6.0099999999999998

>  <m_primary>  (42) 
energy

$$$$
42:0
     RDKit          3D

 48 49  0  0  0  0  0  0  0  0999 V2000
   59.2900   33.2780   51.3540 C   0  0  0  0  0  0  0  0  0  0  0  0
   58.2550   32.3360   51.1000 O   0  0  0  0  0  0  0  0  0  0  0  0
   58.5130   31.0310   50.6710 C   0  0  0  0  0  0  0  0  0  0  0  0
   57.7030   30.0990   50.9260 O   0  0  0  0  0  0  0  0  0  0  0  0
   59.7550   30.7430   49.8750 C   0  0  0  0  0  0  0  0  0  0  0  0
   59.8220   31.5180   48.6150 N   0  0  0  0  0  0  0  0  0  0  0  0
   58.4980   32.0520   48.2180 C   0  0  0  0  0  0  0  0  0  0  0  0
   58.6430   33.0720   47.1180 C   0  0  0  0  0  0  0  0  0  0  0  0
   59.8270   33.8160   46.9870 C   0  0  0  0  0  0  0  0  0  0  0  0
   59.9460   34.7780   45.9790 C   0  0  0  0  0  0  0  0  0  0  0  0
   58.8920   34.9920   45.0860 C   0  0  0  0  0  0  0  0  0  0  0  0
   57.7210   34.2370   45.1920 C   0  0  0  0  0  0  0  0  0  0  0  0
   57.5990   33.2730   46.1980 C   0  0  0  0  0  0  0  0  0  0  0  0
   60.4880   30.7500   47.5370 C   0  0  0  0  0  0  0  0  0  0  0  0
   59.8000   29.4230   47.2990 C   0  0  0  0  0  0  0  0  0  0  0  0
   60.1010   28.3440   48.1510 C   0  0  0  0  0  0  0  0  0  0  0  0
   59.4680   27.1100   47.9890 C   0  0  0  0  0  0  0  0  0  0  0  0
   58.5360   26.9320   46.9690 C   0  0  0  0  0  0  0  0  0  0  0  0
   58.2330   27.9840   46.1040 C   0  0  0  0  0  0  0  0  0  0  0  0
   58.8500   29.2400   46.2590 C   0  0  0  0  0  0  0  0  0  0  0  0
   58.5090   30.3370   45.2820 C   0  0  0  0  0  0  0  0  0  0  0  0
   57.0700   30.5680   45.2880 N   0  0  0  0  0  0  0  0  0  0  0  0
   56.1550   29.9190   44.4000 C   0  0  0  0  0  0  0  0  0  0  0  0
   56.3810   29.9050   42.9200 C   0  0  0  0  0  0  0  0  0  0  0  0
   55.1430   29.3420   44.8770 O   0  0  0  0  0  0  0  0  0  0  0  0
   59.4198   33.3962   52.4399 H   0  0  0  0  0  0  0  0  0  0  0  0
   60.2298   32.9189   50.9093 H   0  0  0  0  0  0  0  0  0  0  0  0
   59.0208   34.2474   50.9093 H   0  0  0  0  0  0  0  0  0  0  0  0
   60.6322   30.9944   50.4892 H   0  0  0  0  0  0  0  0  0  0  0  0
   59.7365   29.6763   49.6070 H   0  0  0  0  0  0  0  0  0  0  0  0
   57.8668   31.2244   47.8621 H   0  0  0  0  0  0  0  0  0  0  0  0
   58.0359   32.5364   49.0908 H   0  0  0  0  0  0  0  0  0  0  0  0
   60.6635   33.6414   47.6796 H   0  0  0  0  0  0  0  0  0  0  0  0
   60.8705   35.3672   45.8887 H   0  0  0  0  0  0  0  0  0  0  0  0
   58.9845   35.7553   44.2993 H   0  0  0  0  0  0  0  0  0  0  0  0
   56.8951   34.4008   44.4842 H   0  0  0  0  0  0  0  0  0  0  0  0
   56.6822   32.6694   46.2697 H   0  0  0  0  0  0  0  0  0  0  0  0
   60.4607   31.3390   46.6084 H   0  0  0  0  0  0  0  0  0  0  0  0
   61.5259   30.5521   47.8430 H   0  0  0  0  0  0  0  0  0  0  0  0
   60.8427   28.4742   48.9529 H   0  0  0  0  0  0  0  0  0  0  0  0
   59.7055   26.2775   48.6676 H   0  0  0  0  0  0  0  0  0  0  0  0
   58.0375   25.9593   46.8452 H   0  0  0  0  0  0  0  0  0  0  0  0
   57.5053   27.8307   45.2934 H   0  0  0  0  0  0  0  0  0  0  0  0
   59.0292   31.2613   45.5734 H   0  0  0  0  0  0  0  0  0  0  0  0
   58.8265   30.0381   44.2721 H   0  0  0  0  0  0  0  0  0  0  0  0
   57.4595   29.8382   42.7144 H   0  0  0  0  0  0  0  0  0  0  0  0
   55.8692   29.0368   42.4791 H   0  0  0  0  0  0  0  0  0  0  0  0
   55.9803   30.8297   42.4791 H   0  0  0  0  0  0  0  0  0  0  0  0
  1  2  1  0
  2  3  1  0
  3  4  2  0
  3  5  1  0
  5  6  1  0
  6  7  1  0
  7  8  1  0
  8  9  2  0
  9 10  1  0
 10 11  2  0
 11 12  1  0
 12 13  2  0
  6 14  1  0
 14 15  1  0
 15 16  2  0
 16 17  1  0
 17 18  2  0
 18 19  1  0
 19 20  2  0
 20 21  1  0
 21 22  1  0
 22 23  1  0
 23 24  1  0
 23 25  2  0
 13  8  1  0
 20 15  1  0
  1 26  1  0
  1 27  1  0
  1 28  1  0
  5 29  1  0
  5 30  1  0
  7 31  1  0
  7 32  1  0
  9 33  1  0
 10 34  1  0
 11 35  1  0
 12 36  1  0
 13 37  1  0
 14 38  1  0
 14 39  1  0
 16 40  1  0
 17 41  1  0
 18 42  1  0
 19 43  1  0
 21 44  1  0
 21 45  1  0
 24 46  1  0
 24 47  1  0
 24 48  1  0
M  CHG  1  22  -1
M  END
>  <UniqueID>  (43) 
40

>  <SMILES>  (43) 
COC(=O)CN(Cc1ccccc1)Cc1ccccc1C[N-]C(C)=O

>  <Energy>  (43) 
42.385562533429706

>  <Genealogy>  (43) 
COC(=O)CN(Cc1ccccc1)Cc1ccccc1C[N-]C(C)=O (protonated)
COC(=O)CN(Cc1ccccc1)Cc1ccccc1C[N-]C(C)=O (3D coordinates assigned)
COC(=O)CN(Cc1ccccc1)Cc1ccccc1C[N-]C(C)=O (optimized conformer: 42.385562533429706 kcal/mol)

>  <smiles>  (43) 
COC(=O)CN(Cc1ccccc1)Cc1ccccc1CNC(C)=O

>  <score_type>  (43) 
oracle

>  <origin>  (43) 
adg

>  <m_score__min__energy>  (43) 
-9.1899999999999995

>  <m_primary>  (43) 
energy

$$$$
43:0
     RDKit          3D

 30 31  0  0  0  0  0  0  0  0999 V2000
   62.9200   33.4260   47.0940 C   0  0  0  0  0  0  0  0  0  0  0  0
   61.4860   33.6010   47.4700 C   0  0  0  0  0  0  0  0  0  0  0  0
   60.9900   34.1800   48.6230 C   0  0  0  0  0  0  0  0  0  0  0  0
   59.6460   34.0800   48.6230 N   0  0  0  0  0  0  0  0  0  0  0  0
   59.2930   33.4380   47.5190 N   0  0  0  0  0  0  0  0  0  0  0  0
   57.9090   33.1830   47.1360 C   0  0  0  0  0  0  0  0  0  0  0  0
   57.8650   32.5460   45.7810 C   0  0  0  0  0  0  0  0  0  0  0  0
   57.8540   33.3320   44.6210 C   0  0  0  0  0  0  0  0  0  0  0  0
   57.7800   32.7100   43.3740 C   0  0  0  0  0  0  0  0  0  0  0  0
   57.7040   31.3190   43.2930 C   0  0  0  0  0  0  0  0  0  0  0  0
   57.6930   30.5610   44.4730 C   0  0  0  0  0  0  0  0  0  0  0  0
   57.6370   29.0640   44.4230 C   0  0  0  0  0  0  0  0  0  0  0  0
   56.3700   28.5760   45.0500 C   0  0  0  0  0  0  0  0  0  0  0  0
   55.1620   29.3110   44.8770 N   0  0  0  0  0  0  0  0  0  0  0  0
   56.3620   27.4960   45.6970 O   0  0  0  0  0  0  0  0  0  0  0  0
   57.7780   31.1910   45.6780 N   0  0  0  0  0  0  0  0  0  0  0  0
   60.3840   33.1310   46.7920 C   0  0  0  0  0  0  0  0  0  0  0  0
   63.5315   33.3514   48.0053 H   0  0  0  0  0  0  0  0  0  0  0  0
   63.0338   32.5073   46.4998 H   0  0  0  0  0  0  0  0  0  0  0  0
   63.2514   34.2904   46.4998 H   0  0  0  0  0  0  0  0  0  0  0  0
   61.5952   34.6474   49.4137 H   0  0  0  0  0  0  0  0  0  0  0  0
   57.4452   32.5090   47.8713 H   0  0  0  0  0  0  0  0  0  0  0  0
   57.3595   34.1355   47.1068 H   0  0  0  0  0  0  0  0  0  0  0  0
   57.9032   34.4286   44.6926 H   0  0  0  0  0  0  0  0  0  0  0  0
   57.7816   33.3156   42.4557 H   0  0  0  0  0  0  0  0  0  0  0  0
   57.6532   30.8218   42.3131 H   0  0  0  0  0  0  0  0  0  0  0  0
   57.6750   28.7333   43.3746 H   0  0  0  0  0  0  0  0  0  0  0  0
   58.4942   28.6529   44.9764 H   0  0  0  0  0  0  0  0  0  0  0  0
   54.4410   29.3420   45.6320 H   0  0  0  0  0  0  0  0  0  0  0  0
   60.3931   32.5998   45.8288 H   0  0  0  0  0  0  0  0  0  0  0  0
  1  2  1  0
  2  3  1  0
  3  4  2  0
  4  5  1  0
  5  6  1  0
  6  7  1  0
  7  8  2  0
  8  9  1  0
  9 10  2  0
 10 11  1  0
 11 12  1  0
 12 13  1  0
 13 14  1  0
 13 15  2  0
 11 16  2  0
  5 17  1  0
 17  2  2  0
 16  7  1  0
  1 18  1  0
  1 19  1  0
  1 20  1  0
  3 21  1  0
  6 22  1  0
  6 23  1  0
  8 24  1  0
  9 25  1  0
 10 26  1  0
 12 27  1  0
 12 28  1  0
 14 29  1  0
 17 30  1  0
M  CHG  1  14  -1
M  END
>  <UniqueID>  (44) 
41

>  <SMILES>  (44) 
Cc1cnn(Cc2cccc(CC([NH-])=O)n2)c1

>  <Energy>  (44) 
54.33234249360709

>  <Genealogy>  (44) 
Cc1cnn(Cc2cccc(CC([NH-])=O)n2)c1 (protonated)
Cc1cnn(Cc2cccc(CC([NH-])=O)n2)c1 (3D coordinates assigned)
Cc1cnn(Cc2cccc(CC([NH-])=O)n2)c1 (optimized conformer: 54.33234249360709 kcal/mol)

>  <smiles>  (44) 
Cc1cnn(Cc2cccc(CC(N)=O)n2)c1

>  <score_type>  (44) 
oracle

>  <origin>  (44) 
adg

>  <m_score__min__energy>  (44) 
-10.08

>  <m_primary>  (44) 
energy

$$$$
44:0
     RDKit          3D

 46 49  0  0  0  0  0  0  0  0999 V2000
   57.1010   31.9700   42.5550 O   0  0  0  0  0  0  0  0  0  0  0  0
   57.3190   31.5980   43.7400 C   0  0  0  0  0  0  0  0  0  0  0  0
   57.0550   30.1600   44.1090 C   0  0  2  0  0  0  0  0  0  0  0  0
   55.7870   30.0640   44.7040 O   0  0  0  0  0  0  0  0  0  0  0  0
   58.1560   29.6190   45.0090 C   0  0  0  0  0  0  0  0  0  0  0  0
   57.8960   29.1770   46.3220 C   0  0  0  0  0  0  0  0  0  0  0  0
   58.9320   28.6900   47.1240 C   0  0  0  0  0  0  0  0  0  0  0  0
   60.2360   28.6310   46.6260 C   0  0  0  0  0  0  0  0  0  0  0  0
   60.5040   29.0520   45.3230 C   0  0  0  0  0  0  0  0  0  0  0  0
   59.4710   29.5360   44.5160 C   0  0  0  0  0  0  0  0  0  0  0  0
   57.8480   32.5430   44.6910 N   0  0  0  0  0  0  0  0  0  0  0  0
   57.4140   32.5080   46.0980 C   0  0  0  0  0  0  0  0  0  0  0  0
   57.8140   33.7670   46.8910 C   0  0  0  0  0  0  0  0  0  0  0  0
   59.2220   34.3390   46.5730 C   0  0  0  0  0  0  0  0  0  0  0  0
   60.1320   34.2230   47.7210 N   0  0  0  0  0  0  0  0  0  0  0  0
   59.7440   34.4380   48.9760 N   0  0  0  0  0  0  0  0  0  0  0  0
   60.7480   34.2300   49.8210 N   0  0  0  0  0  0  0  0  0  0  0  0
   61.8080   33.8650   49.0840 C   0  0  0  0  0  0  0  0  0  0  0  0
   63.0920   33.5290   49.5030 C   0  0  0  0  0  0  0  0  0  0  0  0
   64.0220   33.1750   48.5070 C   0  0  0  0  0  0  0  0  0  0  0  0
   63.6450   33.1660   47.1440 C   0  0  0  0  0  0  0  0  0  0  0  0
   62.3350   33.5130   46.7600 C   0  0  0  0  0  0  0  0  0  0  0  0
   61.4360   33.8570   47.7720 C   0  0  0  0  0  0  0  0  0  0  0  0
   59.8610   33.7930   45.2860 C   0  0  0  0  0  0  0  0  0  0  0  0
   58.7930   33.5630   44.2240 C   0  0  0  0  0  0  0  0  0  0  0  0
   57.0602   29.5369   43.2025 H   0  0  0  0  0  0  0  0  0  0  0  0
   55.9250   30.0880   45.6870 H   0  0  0  0  0  0  0  0  0  0  0  0
   56.8706   29.2156   46.7182 H   0  0  0  0  0  0  0  0  0  0  0  0
   58.7202   28.3525   48.1493 H   0  0  0  0  0  0  0  0  0  0  0  0
   61.0509   28.2529   47.2608 H   0  0  0  0  0  0  0  0  0  0  0  0
   61.5303   29.0028   44.9303 H   0  0  0  0  0  0  0  0  0  0  0  0
   59.6880   29.8550   43.4859 H   0  0  0  0  0  0  0  0  0  0  0  0
   56.3184   32.4131   46.1231 H   0  0  0  0  0  0  0  0  0  0  0  0
   57.9154   31.6514   46.5722 H   0  0  0  0  0  0  0  0  0  0  0  0
   57.0734   34.5516   46.6770 H   0  0  0  0  0  0  0  0  0  0  0  0
   57.8441   33.4613   47.9472 H   0  0  0  0  0  0  0  0  0  0  0  0
   59.0514   35.4075   46.3750 H   0  0  0  0  0  0  0  0  0  0  0  0
   60.6950   34.3330   50.8580 H   0  0  0  0  0  0  0  0  0  0  0  0
   63.3686   33.5396   50.5676 H   0  0  0  0  0  0  0  0  0  0  0  0
   65.0494   32.9034   48.7911 H   0  0  0  0  0  0  0  0  0  0  0  0
   64.3816   32.8854   46.3767 H   0  0  0  0  0  0  0  0  0  0  0  0
   62.0314   33.5131   45.7027 H   0  0  0  0  0  0  0  0  0  0  0  0
   60.5970   34.5187   44.9097 H   0  0  0  0  0  0  0  0  0  0  0  0
   60.3564   32.8366   45.5094 H   0  0  0  0  0  0  0  0  0  0  0  0
   58.2540   34.5035   44.0369 H   0  0  0  0  0  0  0  0  0  0  0  0
   59.2699   33.2212   43.2936 H   0  0  0  0  0  0  0  0  0  0  0  0
  1  2  2  0
  2  3  1  0
  3  4  1  0
  3  5  1  0
  5  6  2  0
  6  7  1  0
  7  8  2  0
  8  9  1  0
  9 10  2  0
  2 11  1  0
 11 12  1  0
 12 13  1  0
 13 14  1  0
 14 15  1  0
 15 16  1  0
 16 17  2  0
 17 18  1  0
 18 19  2  0
 19 20  1  0
 20 21  2  0
 21 22  1  0
 22 23  2  0
 14 24  1  0
 24 25  1  0
 10  5  1  0
 25 11  1  0
 23 15  1  0
 23 18  1  0
  3 26  1  6
  4 27  1  0
  6 28  1  0
  7 29  1  0
  8 30  1  0
  9 31  1  0
 10 32  1  0
 12 33  1  0
 12 34  1  0
 13 35  1  0
 13 36  1  0
 14 37  1  0
 17 38  1  0
 19 39  1  0
 20 40  1  0
 21 41  1  0
 22 42  1  0
 24 43  1  0
 24 44  1  0
 25 45  1  0
 25 46  1  0
M  CHG  1  17   1
M  END
>  <UniqueID>  (45) 
42

>  <SMILES>  (45) 
O=C([C@H](O)c1ccccc1)N1CCC(n2n[nH+]c3ccccc32)CC1

>  <Energy>  (45) 
100.33730530188026

>  <Genealogy>  (45) 
O=C(C(O)c1ccccc1)N1CCC(n2n[nH+]c3ccccc32)CC1 (protonated)
O=C([C@H](O)c1ccccc1)N1CCC(n2n[nH+]c3ccccc32)CC1 (chirality)
O=C([C@H](O)c1ccccc1)N1CCC(n2n[nH+]c3ccccc32)CC1 (3D coordinates assigned)
O=C([C@H](O)c1ccccc1)N1CCC(n2n[nH+]c3ccccc32)CC1 (nonaromatic ring conformer: 100.33730530188026 kcal/mol)

>  <smiles>  (45) 
O=C(C(O)c1ccccc1)N1CCC(n2nnc3ccccc32)CC1

>  <score_type>  (45) 
oracle

>  <origin>  (45) 
adg

>  <m_score__min__energy>  (45) 
-8.0999999999999996

>  <m_primary>  (45) 
energy

$$$$
45:0
     RDKit          3D

 31 33  0  0  0  0  0  0  0  0999 V2000
   58.4870   22.0870   45.2430 C   0  0  0  0  0  0  0  0  0  0  0  0
   58.1300   23.0160   46.2600 O   0  0  0  0  0  0  0  0  0  0  0  0
   57.9100   24.3870   46.0460 C   0  0  0  0  0  0  0  0  0  0  0  0
   58.9630   25.3200   46.0380 C   0  0  0  0  0  0  0  0  0  0  0  0
   58.7070   26.6780   45.8220 C   0  0  0  0  0  0  0  0  0  0  0  0
   59.7150   27.5440   45.8210 O   0  0  0  0  0  0  0  0  0  0  0  0
   59.5440   28.8450   45.6200 C   0  0  0  0  0  0  0  0  0  0  0  0
   58.2650   29.3790   45.3940 C   0  0  0  0  0  0  0  0  0  0  0  0
   58.1000   30.8360   45.1650 C   0  0  0  0  0  0  0  0  0  0  0  0
   58.1500   31.7340   46.2460 C   0  0  0  0  0  0  0  0  0  0  0  0
   58.0040   33.1080   46.0320 C   0  0  0  0  0  0  0  0  0  0  0  0
   57.8120   33.5990   44.7370 C   0  0  0  0  0  0  0  0  0  0  0  0
   57.6710   34.9310   44.5310 F   0  0  0  0  0  0  0  0  0  0  0  0
   57.7680   32.7160   43.6550 C   0  0  0  0  0  0  0  0  0  0  0  0
   57.9140   31.3410   43.8650 C   0  0  0  0  0  0  0  0  0  0  0  0
   57.1670   28.4960   45.3980 C   0  0  0  0  0  0  0  0  0  0  0  0
   55.9950   28.9370   45.2340 O   0  0  0  0  0  0  0  0  0  0  0  0
   57.3860   27.1230   45.6090 C   0  0  0  0  0  0  0  0  0  0  0  0
   56.3340   26.1910   45.6190 C   0  0  0  0  0  0  0  0  0  0  0  0
   56.5960   24.8330   45.8360 C   0  0  0  0  0  0  0  0  0  0  0  0
   55.1360   23.5950   45.8400 Br  0  0  0  0  0  0  0  0  0  0  0  0
   58.8449   21.1557   45.7063 H   0  0  0  0  0  0  0  0  0  0  0  0
   57.6077   21.8714   44.6183 H   0  0  0  0  0  0  0  0  0  0  0  0
   59.2844   22.5157   44.6183 H   0  0  0  0  0  0  0  0  0  0  0  0
   59.9957   24.9788   46.2029 H   0  0  0  0  0  0  0  0  0  0  0  0
   60.4168   29.5144   45.6306 H   0  0  0  0  0  0  0  0  0  0  0  0
   58.3049   31.3531   47.2663 H   0  0  0  0  0  0  0  0  0  0  0  0
   58.0402   33.8035   46.8835 H   0  0  0  0  0  0  0  0  0  0  0  0
   57.6183   33.1030   42.6363 H   0  0  0  0  0  0  0  0  0  0  0  0
   57.8833   30.6506   43.0092 H   0  0  0  0  0  0  0  0  0  0  0  0
   55.3004   26.5301   45.4556 H   0  0  0  0  0  0  0  0  0  0  0  0
  1  2  1  0
  2  3  1  0
  3  4  2  0
  4  5  1  0
  5  6  1  0
  6  7  1  0
  7  8  2  0
  8  9  1  0
  9 10  2  0
 10 11  1  0
 11 12  2  0
 12 13  1  0
 12 14  1  0
 14 15  2  0
  8 16  1  0
 16 17  2  0
 16 18  1  0
 18 19  1  0
 19 20  2  0
 20 21  1  0
 20  3  1  0
 18  5  2  0
 15  9  1  0
  1 22  1  0
  1 23  1  0
  1 24  1  0
  4 25  1  0
  7 26  1  0
 10 27  1  0
 11 28  1  0
 14 29  1  0
 15 30  1  0
 19 31  1  0
M  END
>  <UniqueID>  (46) 
43

>  <SMILES>  (46) 
COc1cc2occ(-c3ccc(F)cc3)c(=O)c2cc1Br

>  <Energy>  (46) 
45.73703384745849

>  <Genealogy>  (46) 
COc1cc2occ(-c3ccc(F)cc3)c(=O)c2cc1Br (3D coordinates assigned)
COc1cc2occ(-c3ccc(F)cc3)c(=O)c2cc1Br (optimized conformer: 45.73703384745849 kcal/mol)

>  <smiles>  (46) 
COc1cc2occ(-c3ccc(F)cc3)c(=O)c2cc1Br

>  <score_type>  (46) 
oracle

>  <origin>  (46) 
adg

>  <m_score__min__energy>  (46) 
-6.6200000000000001

>  <m_primary>  (46) 
energy

$$$$
46:0
     RDKit          3D

 52 55  0  0  0  0  0  0  0  0999 V2000
   56.2670   29.5000   42.6020 C   0  0  0  0  0  0  0  0  0  0  0  0
   55.3440   29.7170   43.7960 C   0  0  0  0  0  0  0  0  0  0  0  0
   55.9270   29.1900   44.9880 O   0  0  0  0  0  0  0  0  0  0  0  0
   57.2190   29.4750   45.4610 C   0  0  0  0  0  0  0  0  0  0  0  0
   57.8730   30.6020   44.9490 C   0  0  0  0  0  0  0  0  0  0  0  0
   59.1620   30.9330   45.3780 C   0  0  0  0  0  0  0  0  0  0  0  0
   59.8160   30.1410   46.3330 C   0  0  0  0  0  0  0  0  0  0  0  0
   61.2200   30.4860   46.7740 C   0  0  0  0  0  0  0  0  0  0  0  0
   61.2300   31.3980   47.9440 N   0  0  0  0  0  0  0  0  0  0  0  0
   60.8150   30.6630   49.1690 C   0  0  0  0  0  0  0  0  0  0  0  0
   61.4390   31.2220   50.4670 C   0  0  0  0  0  0  0  0  0  0  0  0
   61.6630   32.6780   50.4030 N   0  0  0  0  0  0  0  0  0  0  0  0
   60.4000   33.4420   50.4830 C   0  0  0  0  0  0  0  0  0  0  0  0
   59.8140   33.6120   49.1170 C   0  0  0  0  0  0  0  0  0  0  0  0
   60.4050   34.3630   48.1510 N   0  0  0  0  0  0  0  0  0  0  0  0
   59.5410   34.2560   47.1320 C   0  0  0  0  0  0  0  0  0  0  0  0
   59.6360   34.8330   45.8690 C   0  0  0  0  0  0  0  0  0  0  0  0
   58.5950   34.5810   44.9550 C   0  0  0  0  0  0  0  0  0  0  0  0
   57.4990   33.7700   45.3270 C   0  0  0  0  0  0  0  0  0  0  0  0
   57.4360   33.2040   46.6150 C   0  0  0  0  0  0  0  0  0  0  0  0
   58.4850   33.4740   47.4910 C   0  0  0  0  0  0  0  0  0  0  0  0
   58.6300   33.0500   48.7530 N   0  0  0  0  0  0  0  0  0  0  0  0
   62.5170   33.0740   49.2530 C   0  0  0  0  0  0  0  0  0  0  0  0
   62.5550   32.0270   48.1220 C   0  0  0  0  0  0  0  0  0  0  0  0
   59.1610   29.0140   46.8540 C   0  0  0  0  0  0  0  0  0  0  0  0
   57.8730   28.6820   46.4240 C   0  0  0  0  0  0  0  0  0  0  0  0
   57.2796   29.2619   42.9598 H   0  0  0  0  0  0  0  0  0  0  0  0
   55.8881   28.6664   41.9924 H   0  0  0  0  0  0  0  0  0  0  0  0
   56.2992   30.4151   41.9924 H   0  0  0  0  0  0  0  0  0  0  0  0
   55.1693   30.7952   43.9259 H   0  0  0  0  0  0  0  0  0  0  0  0
   54.3938   29.1959   43.6073 H   0  0  0  0  0  0  0  0  0  0  0  0
   57.3682   31.2328   44.2025 H   0  0  0  0  0  0  0  0  0  0  0  0
   59.6657   31.8191   44.9643 H   0  0  0  0  0  0  0  0  0  0  0  0
   61.7451   29.5578   47.0435 H   0  0  0  0  0  0  0  0  0  0  0  0
   61.7200   31.0001   45.9399 H   0  0  0  0  0  0  0  0  0  0  0  0
   60.5290   32.1550   47.7660 H   0  0  0  0  0  0  0  0  0  0  0  0
   59.7200   30.7223   49.2560 H   0  0  0  0  0  0  0  0  0  0  0  0
   61.1706   29.6278   49.0600 H   0  0  0  0  0  0  0  0  0  0  0  0
   60.7614   31.0057   51.3060 H   0  0  0  0  0  0  0  0  0  0  0  0
   62.4176   30.7384   50.6032 H   0  0  0  0  0  0  0  0  0  0  0  0
   59.6862   32.8991   51.1200 H   0  0  0  0  0  0  0  0  0  0  0  0
   60.6059   34.4337   50.9122 H   0  0  0  0  0  0  0  0  0  0  0  0
   60.4943   35.4638   45.5944 H   0  0  0  0  0  0  0  0  0  0  0  0
   58.6350   35.0176   43.9462 H   0  0  0  0  0  0  0  0  0  0  0  0
   56.6902   33.5797   44.6061 H   0  0  0  0  0  0  0  0  0  0  0  0
   56.5888   32.5714   46.9185 H   0  0  0  0  0  0  0  0  0  0  0  0
   62.1293   34.0172   48.8406 H   0  0  0  0  0  0  0  0  0  0  0  0
   63.5441   33.1743   49.6339 H   0  0  0  0  0  0  0  0  0  0  0  0
   62.8489   32.5203   47.1838 H   0  0  0  0  0  0  0  0  0  0  0  0
   63.2827   31.2464   48.3887 H   0  0  0  0  0  0  0  0  0  0  0  0
   59.6645   28.3881   47.6055 H   0  0  0  0  0  0  0  0  0  0  0  0
   57.3680   27.7975   46.8395 H   0  0  0  0  0  0  0  0  0  0  0  0
  1  2  1  0
  2  3  1  0
  3  4  1  0
  4  5  2  0
  5  6  1  0
  6  7  2  0
  7  8  1  0
  8  9  1  0
  9 10  1  0
 10 11  1  0
 11 12  1  0
 12 13  1  0
 13 14  1  0
 14 15  2  0
 15 16  1  0
 16 17  2  0
 17 18  1  0
 18 19  2  0
 19 20  1  0
 20 21  2  0
 21 22  1  0
 12 23  1  0
 23 24  1  0
  7 25  1  0
 25 26  2  0
 26  4  1  0
 24  9  1  0
 22 14  1  0
 21 16  1  0
  1 27  1  0
  1 28  1  0
  1 29  1  0
  2 30  1  0
  2 31  1  0
  5 32  1  0
  6 33  1  0
  8 34  1  0
  8 35  1  0
  9 36  1  0
 10 37  1  0
 10 38  1  0
 11 39  1  0
 11 40  1  0
 13 41  1  0
 13 42  1  0
 17 43  1  0
 18 44  1  0
 19 45  1  0
 20 46  1  0
 23 47  1  0
 23 48  1  0
 24 49  1  0
 24 50  1  0
 25 51  1  0
 26 52  1  0
M  CHG  2   9   1  22  -1
M  END
>  <UniqueID>  (47) 
44

>  <SMILES>  (47) 
CCOc1ccc(C[NH+]2CCN(Cc3nc4ccccc4[n-]3)CC2)cc1

>  <Energy>  (47) 
100.42551216188336

>  <Genealogy>  (47) 
CCOc1ccc(C[NH+]2CCN(Cc3nc4ccccc4[n-]3)CC2)cc1 (protonated)
CCOc1ccc(C[NH+]2CCN(Cc3nc4ccccc4[n-]3)CC2)cc1 (3D coordinates assigned)
CCOc1ccc(C[NH+]2CCN(Cc3nc4ccccc4[n-]3)CC2)cc1 (nonaromatic ring conformer: 100.42551216188336 kcal/mol)

>  <smiles>  (47) 
CCOc1ccc(CN2CCN(Cc3nc4ccccc4[nH]3)CC2)cc1

>  <score_type>  (47) 
oracle

>  <origin>  (47) 
adg

>  <m_score__min__energy>  (47) 
-7.2699999999999996

>  <m_primary>  (47) 
energy

$$$$
