0:0
     RDKit          3D

 48 52  0  0  1  0  0  0  0  0999 V2000
   63.3380   31.5890   47.2390 C   0  0  0  0  0  0  0  0  0  0  0  0
   62.4480   32.3710   48.1420 C   0  0  0  0  0  0  0  0  0  0  0  0
   62.7940   33.6730   48.5240 C   0  0  0  0  0  0  0  0  0  0  0  0
   62.0040   34.4230   49.3640 C   0  0  0  0  0  0  0  0  0  0  0  0
   60.8320   33.8510   49.8330 C   0  0  0  0  0  0  0  0  0  0  0  0
   60.4880   32.5620   49.4550 C   0  0  0  0  0  0  0  0  0  0  0  0
   58.9960   31.8950   50.0780 Cl  0  0  0  0  0  0  0  0  0  0  0  0
   61.2660   31.8010   48.6190 C   0  0  0  0  0  0  0  0  0  0  0  0
   60.9400   30.4830   48.2030 N   0  0  0  0  0  0  0  0  0  0  0  0
   60.0460   30.1900   47.1450 C   0  0  0  0  0  0  0  0  0  0  0  0
   57.3410   28.0420   44.1930 C   0  0  0  0  0  0  0  0  0  0  0  0
   58.1140   27.6460   45.2890 C   0  0  0  0  0  0  0  0  0  0  0  0
   58.4340   32.0910   44.6030 N   0  0  0  0  0  0  0  0  0  0  0  0
   57.5740   33.0930   45.2100 C   0  0  0  0  0  0  0  0  0  0  0  0
   57.9920   34.5050   44.9170 C   0  0  0  0  0  0  0  0  0  0  0  0
   58.1450   33.9760   46.2810 C   0  0  0  0  0  0  0  0  0  0  0  0
   58.3270   29.8080   45.0300 N   0  0  0  0  0  0  0  0  0  0  0  0
   57.5250   29.3580   44.1050 N   0  0  0  0  0  0  0  0  0  0  0  0
   59.6370   31.2550   46.3510 C   0  0  0  0  0  0  0  0  0  0  0  0
   58.7690   31.0570   45.2850 C   0  0  0  0  0  0  0  0  0  0  0  0
   58.2000   26.3920   45.7050 C   0  0  0  0  0  0  0  0  0  0  0  0
   57.1990   25.3740   45.4060 C   0  0  0  0  0  0  0  0  0  0  0  0
   57.3630   24.1170   44.9480 N   0  0  0  0  0  0  0  0  0  0  0  0
   56.1660   23.5250   44.8090 C   0  0  0  0  0  0  0  0  0  0  0  0
   56.0070   22.3390   44.3970 O   0  0  0  0  0  0  0  0  0  0  0  0
   55.2000   24.3880   45.1750 N   0  0  0  0  0  0  0  0  0  0  0  0
   55.8130   25.5240   45.5430 C   0  0  0  0  0  0  0  0  0  0  0  0
   55.2120   26.7100   46.0020 O   0  0  0  0  0  0  0  0  0  0  0  0
   58.7260   28.7720   45.8020 C   0  0  0  0  0  0  0  0  0  0  0  0
   59.5780   28.9680   46.8510 N   0  0  0  0  0  0  0  0  0  0  0  0
   64.0293   30.9816   47.8416 H   0  0  0  0  0  0  0  0  0  0  0  0
   62.7281   30.9293   46.6043 H   0  0  0  0  0  0  0  0  0  0  0  0
   63.9138   32.2787   46.6043 H   0  0  0  0  0  0  0  0  0  0  0  0
   63.7275   34.1101   48.1400 H   0  0  0  0  0  0  0  0  0  0  0  0
   62.2932   35.4439   49.6541 H   0  0  0  0  0  0  0  0  0  0  0  0
   60.1739   34.4202   50.5059 H   0  0  0  0  0  0  0  0  0  0  0  0
   61.3940   29.7040   48.7250 H   0  0  0  0  0  0  0  0  0  0  0  0
   56.7183   27.4066   43.5462 H   0  0  0  0  0  0  0  0  0  0  0  0
   56.6627   32.4814   45.1366 H   0  0  0  0  0  0  0  0  0  0  0  0
   58.8824   34.6963   44.3001 H   0  0  0  0  0  0  0  0  0  0  0  0
   57.4964   35.3838   44.4787 H   0  0  0  0  0  0  0  0  0  0  0  0
   59.1495   33.7732   46.6808 H   0  0  0  0  0  0  0  0  0  0  0  0
   57.8104   34.2984   47.2780 H   0  0  0  0  0  0  0  0  0  0  0  0
   60.0056   32.2680   46.5698 H   0  0  0  0  0  0  0  0  0  0  0  0
   59.0730   26.1024   46.3083 H   0  0  0  0  0  0  0  0  0  0  0  0
   58.2710   23.6550   44.7310 H   0  0  0  0  0  0  0  0  0  0  0  0
   54.1680   24.2150   45.1750 H   0  0  0  0  0  0  0  0  0  0  0  0
   55.1500   27.4860   45.3240 H   0  0  0  0  0  0  0  0  0  0  0  0
  1  2  1  0
  2  3  2  0
  3  4  1  0
  4  5  2  0
  5  6  1  0
  6  7  1  0
  6  8  2  0
  8  9  1  0
  9 10  1  0
 10 11  2  0
 11 12  1  0
 12 13  2  0
 13 14  1  0
 14 15  1  0
 15 16  1  0
 12 17  1  0
 17 18  1  0
 18 19  2  0
 19 20  1  0
 20 21  2  0
 21 22  1  0
 22 23  1  0
 23 24  1  0
 24 25  2  0
 24 26  1  0
 26 27  1  0
 27 28  1  0
 20 29  1  0
 29 30  2  0
  8  2  1  0
 30 10  1  0
 16 14  1  0
 29 17  1  0
 27 22  2  0
  1 31  1  0
  1 32  1  0
  1 33  1  0
  3 34  1  0
  4 35  1  0
  5 36  1  0
  9 37  1  0
 11 38  1  0
 14 39  1  0
 15 40  1  0
 15 41  1  0
 16 42  1  0
 16 43  1  0
 19 44  1  0
 21 45  1  0
 23 46  1  0
 26 47  1  0
 28 48  1  0
M  END
>  <smiles>  (1) 
Cc1cccc(Cl)c1Nc1cc(=NC2CC2)n2ncc(=Cc3[nH]c(=O)[nH]c3O)c2n1

>  <score_type>  (1) 
oracle

>  <origin>  (1) 
adg

>  <m_score__min__energy>  (1) 
-9.6799999999999997

>  <m_primary>  (1) 
energy

$$$$
1:0
     RDKit          3D

 53 55  0  0  0  0  0  0  0  0999 V2000
   57.0680   21.0030   42.9950 C   0  0  0  0  0  0  0  0  0  0  0  0
   55.9640   21.8680   43.2420 O   0  0  0  0  0  0  0  0  0  0  0  0
   56.0530   23.0890   43.9280 C   0  0  0  0  0  0  0  0  0  0  0  0
   57.1360   23.9730   43.7560 C   0  0  0  0  0  0  0  0  0  0  0  0
   57.1790   25.1810   44.4590 C   0  0  0  0  0  0  0  0  0  0  0  0
   56.1350   25.5310   45.3270 C   0  0  0  0  0  0  0  0  0  0  0  0
   56.1770   26.7450   46.0870 N   0  0  0  0  0  0  0  0  0  0  0  0
   56.6280   28.0180   45.6080 C   0  0  0  0  0  0  0  0  0  0  0  0
   55.7970   28.7880   45.0550 O   0  0  0  0  0  0  0  0  0  0  0  0
   58.0860   28.3970   45.6080 C   0  0  0  0  0  0  0  0  0  0  0  0
   58.3130   29.6460   44.7370 C   0  0  0  0  0  0  0  0  0  0  0  0
   57.5550   30.8210   45.2350 N   0  0  0  0  0  0  0  0  0  0  0  0
   58.2870   31.4470   46.3650 C   0  0  0  0  0  0  0  0  0  0  0  0
   57.7580   32.8580   46.6580 C   0  0  0  0  0  0  0  0  0  0  0  0
   57.8910   33.7730   45.4930 N   0  0  0  0  0  0  0  0  0  0  0  0
   58.9480   34.7860   45.6950 C   0  0  0  0  0  0  0  0  0  0  0  0
   59.9560   34.3010   46.7050 C   0  0  0  0  0  0  0  0  0  0  0  0
   59.8040   34.6000   48.0690 C   0  0  0  0  0  0  0  0  0  0  0  0
   60.7510   34.1540   48.9960 C   0  0  0  0  0  0  0  0  0  0  0  0
   61.8540   33.4080   48.5690 C   0  0  0  0  0  0  0  0  0  0  0  0
   62.0110   33.1060   47.2130 C   0  0  0  0  0  0  0  0  0  0  0  0
   61.0660   33.5500   46.2820 C   0  0  0  0  0  0  0  0  0  0  0  0
   58.0960   33.0640   44.2110 C   0  0  0  0  0  0  0  0  0  0  0  0
   57.2430   31.7890   44.1410 C   0  0  0  0  0  0  0  0  0  0  0  0
   55.0740   24.6400   45.5220 C   0  0  0  0  0  0  0  0  0  0  0  0
   55.0280   23.4320   44.8180 C   0  0  0  0  0  0  0  0  0  0  0  0
   53.9820   22.5870   45.0080 F   0  0  0  0  0  0  0  0  0  0  0  0
   57.4938   20.6693   43.9528 H   0  0  0  0  0  0  0  0  0  0  0  0
   56.7275   20.1288   42.4207 H   0  0  0  0  0  0  0  0  0  0  0  0
   57.8354   21.5427   42.4207 H   0  0  0  0  0  0  0  0  0  0  0  0
   57.9516   23.7119   43.0656 H   0  0  0  0  0  0  0  0  0  0  0  0
   58.0353   25.8594   44.3305 H   0  0  0  0  0  0  0  0  0  0  0  0
   58.4055   28.6103   46.6387 H   0  0  0  0  0  0  0  0  0  0  0  0
   58.6728   27.5624   45.1968 H   0  0  0  0  0  0  0  0  0  0  0  0
   59.3857   29.8894   44.7391 H   0  0  0  0  0  0  0  0  0  0  0  0
   57.9564   29.4193   43.7214 H   0  0  0  0  0  0  0  0  0  0  0  0
   56.6450   30.4780   45.6270 H   0  0  0  0  0  0  0  0  0  0  0  0
   58.1616   30.8236   47.2626 H   0  0  0  0  0  0  0  0  0  0  0  0
   59.3494   31.5242   46.0906 H   0  0  0  0  0  0  0  0  0  0  0  0
   56.6945   32.7860   46.9296 H   0  0  0  0  0  0  0  0  0  0  0  0
   58.3596   33.2751   47.4791 H   0  0  0  0  0  0  0  0  0  0  0  0
   59.4563   34.9750   44.7379 H   0  0  0  0  0  0  0  0  0  0  0  0
   58.4870   35.7124   46.0682 H   0  0  0  0  0  0  0  0  0  0  0  0
   58.9377   35.1866   48.4088 H   0  0  0  0  0  0  0  0  0  0  0  0
   60.6281   34.3904   50.0632 H   0  0  0  0  0  0  0  0  0  0  0  0
   62.5981   33.0588   49.3000 H   0  0  0  0  0  0  0  0  0  0  0  0
   62.8785   32.5186   46.8778 H   0  0  0  0  0  0  0  0  0  0  0  0
   61.1921   33.3106   45.2158 H   0  0  0  0  0  0  0  0  0  0  0  0
   57.8139   33.7307   43.3828 H   0  0  0  0  0  0  0  0  0  0  0  0
   59.1559   32.7795   44.1350 H   0  0  0  0  0  0  0  0  0  0  0  0
   56.1824   32.0716   44.2141 H   0  0  0  0  0  0  0  0  0  0  0  0
   57.4690   31.2923   43.1859 H   0  0  0  0  0  0  0  0  0  0  0  0
   54.2722   24.8906   46.2322 H   0  0  0  0  0  0  0  0  0  0  0  0
  1  2  1  0
  2  3  1  0
  3  4  2  0
  4  5  1  0
  5  6  2  0
  6  7  1  0
  7  8  1  0
  8  9  2  0
  8 10  1  0
 10 11  1  0
 11 12  1  0
 12 13  1  0
 13 14  1  0
 14 15  1  0
 15 16  1  0
 16 17  1  0
 17 18  2  0
 18 19  1  0
 19 20  2  0
 20 21  1  0
 21 22  2  0
 15 23  1  0
 23 24  1  0
  6 25  1  0
 25 26  2  0
 26 27  1  0
 26  3  1  0
 24 12  1  0
 22 17  1  0
  1 28  1  0
  1 29  1  0
  1 30  1  0
  4 31  1  0
  5 32  1  0
 10 33  1  0
 10 34  1  0
 11 35  1  0
 11 36  1  0
 12 37  1  0
 13 38  1  0
 13 39  1  0
 14 40  1  0
 14 41  1  0
 16 42  1  0
 16 43  1  0
 18 44  1  0
 19 45  1  0
 20 46  1  0
 21 47  1  0
 22 48  1  0
 23 49  1  0
 23 50  1  0
 24 51  1  0
 24 52  1  0
 25 53  1  0
M  CHG  2   7  -1  12   1
M  END
>  <UniqueID>  (2) 
1

>  <SMILES>  (2) 
COc1ccc([N-]C(=O)CC[NH+]2CCN(Cc3ccccc3)CC2)cc1F

>  <Energy>  (2) 
71.06994540983608

>  <Genealogy>  (2) 
COc1ccc([N-]C(=O)CC[NH+]2CCN(Cc3ccccc3)CC2)cc1F (protonated)
COc1ccc([N-]C(=O)CC[NH+]2CCN(Cc3ccccc3)CC2)cc1F (3D coordinates assigned)
COc1ccc([N-]C(=O)CC[NH+]2CCN(Cc3ccccc3)CC2)cc1F (nonaromatic ring conformer: 71.06994540983608 kcal/mol)

>  <smiles>  (2) 
COc1ccc(NC(=O)CCN2CCN(Cc3ccccc3)CC2)cc1F

>  <score_type>  (2) 
oracle

>  <origin>  (2) 
adg

>  <m_score__min__energy>  (2) 
-8.9199999999999999

>  <m_primary>  (2) 
energy

$$$$
2:0
     RDKit          3D

 23 24  0  0  0  0  0  0  0  0999 V2000
   57.0050   21.4670   42.6730 C   0  0  0  0  0  0  0  0  0  0  0  0
   56.4870   22.6830   43.3630 C   0  0  0  0  0  0  0  0  0  0  0  0
   57.0460   23.9060   43.2590 N   0  0  0  0  0  0  0  0  0  0  0  0
   56.2840   24.7010   43.9900 N   0  0  0  0  0  0  0  0  0  0  0  0
   55.2950   23.9530   44.5050 C   0  0  0  0  0  0  0  0  0  0  0  0
   54.2250   24.4650   45.4160 C   0  0  0  0  0  0  0  0  0  0  0  0
   54.5290   25.8290   45.8450 N   0  0  0  0  0  0  0  0  0  0  0  0
   55.7150   26.2630   46.1520 C   0  0  0  0  0  0  0  0  0  0  0  0
   56.5170   25.5690   47.0070 N   0  0  0  0  0  0  0  0  0  0  0  0
   57.7580   26.0190   47.3270 C   0  0  0  0  0  0  0  0  0  0  0  0
   58.2270   27.2120   46.7760 C   0  0  0  0  0  0  0  0  0  0  0  0
   59.9670   27.8690   47.2070 Br  0  0  0  0  0  0  0  0  0  0  0  0
   57.3940   27.9130   45.9040 C   0  0  0  0  0  0  0  0  0  0  0  0
   56.1600   27.4270   45.6100 N   0  0  0  0  0  0  0  0  0  0  0  0
   55.4130   22.7040   44.1220 O   0  0  0  0  0  0  0  0  0  0  0  0
   57.3205   20.7264   43.4227 H   0  0  0  0  0  0  0  0  0  0  0  0
   56.2120   21.0367   42.0436 H   0  0  0  0  0  0  0  0  0  0  0  0
   57.8646   21.7407   42.0436 H   0  0  0  0  0  0  0  0  0  0  0  0
   56.4460   25.7240   44.1300 H   0  0  0  0  0  0  0  0  0  0  0  0
   53.2624   24.4588   44.8836 H   0  0  0  0  0  0  0  0  0  0  0  0
   54.1714   23.8162   46.3027 H   0  0  0  0  0  0  0  0  0  0  0  0
   58.3916   25.4444   48.0187 H   0  0  0  0  0  0  0  0  0  0  0  0
   57.7356   28.8574   45.4553 H   0  0  0  0  0  0  0  0  0  0  0  0
  1  2  1  0
  2  3  2  0
  3  4  1  0
  4  5  2  0
  5  6  1  0
  6  7  1  0
  7  8  2  3
  8  9  1  0
  9 10  2  0
 10 11  1  0
 11 12  1  0
 11 13  2  0
 13 14  1  0
  5 15  1  0
 15  2  1  0
 14  8  1  0
  1 16  1  0
  1 17  1  0
  1 18  1  0
  4 19  1  0
  6 20  1  0
  6 21  1  0
 10 22  1  0
 13 23  1  0
M  CHG  2   4   1  14  -1
M  END
>  <UniqueID>  (3) 
2

>  <SMILES>  (3) 
Cc1n[nH+]c(CN=c2ncc(Br)c[n-]2)o1

>  <Energy>  (3) 
56.38368555292878

>  <Genealogy>  (3) 
Cc1n[nH+]c(CN=c2ncc(Br)c[n-]2)o1 (protonated)
Cc1n[nH+]c(CN=c2ncc(Br)c[n-]2)o1 (3D coordinates assigned)
Cc1n[nH+]c(CN=c2ncc(Br)c[n-]2)o1 (optimized conformer: 56.38368555292878 kcal/mol)

>  <smiles>  (3) 
Cc1nnc(CN=c2ncc(Br)c[nH]2)o1

>  <score_type>  (3) 
oracle

>  <origin>  (3) 
adg

>  <m_score__min__energy>  (3) 
-6.0700000000000003

>  <m_primary>  (3) 
energy

$$$$
3:0
     RDKit          3D

 43 45  0  0  0  0  0  0  0  0999 V2000
   57.4540   31.9690   41.8950 C   0  0  0  0  0  0  0  0  0  0  0  0
   56.8020   30.9290   42.6120 O   0  0  0  0  0  0  0  0  0  0  0  0
   56.6190   30.9680   43.9990 C   0  0  0  0  0  0  0  0  0  0  0  0
   55.6800   30.3130   44.5300 O   0  0  0  0  0  0  0  0  0  0  0  0
   57.5280   31.7770   44.8410 C   0  0  0  0  0  0  0  0  0  0  0  0
   57.4090   33.1770   44.8860 C   0  0  0  0  0  0  0  0  0  0  0  0
   58.2710   33.9360   45.6840 C   0  0  0  0  0  0  0  0  0  0  0  0
   59.2560   33.3130   46.4570 C   0  0  0  0  0  0  0  0  0  0  0  0
   60.1100   34.1110   47.2310 O   0  0  0  0  0  0  0  0  0  0  0  0
   61.4690   33.8540   47.4760 C   0  0  0  0  0  0  0  0  0  0  0  0
   62.3840   33.7340   46.4180 C   0  0  0  0  0  0  0  0  0  0  0  0
   63.7240   33.4590   46.6880 C   0  0  0  0  0  0  0  0  0  0  0  0
   64.1480   33.2950   47.9690 N   0  0  0  0  0  0  0  0  0  0  0  0
   63.2860   33.3850   49.0230 C   0  0  0  0  0  0  0  0  0  0  0  0
   63.7510   33.2010   50.3330 C   0  0  0  0  0  0  0  0  0  0  0  0
   62.8680   33.2910   51.4260 C   0  0  0  0  0  0  0  0  0  0  0  0
   63.3010   33.1110   52.7490 O   0  0  0  0  0  0  0  0  0  0  0  0
   63.5410   34.1700   53.6720 C   0  0  0  0  0  0  0  0  0  0  0  0
   61.5110   33.5670   51.2030 C   0  0  0  0  0  0  0  0  0  0  0  0
   60.6590   33.6490   52.3170 O   0  0  0  0  0  0  0  0  0  0  0  0
   59.2410   33.5320   52.2610 C   0  0  0  0  0  0  0  0  0  0  0  0
   61.0410   33.7520   49.8890 C   0  0  0  0  0  0  0  0  0  0  0  0
   61.9190   33.6630   48.7960 C   0  0  0  0  0  0  0  0  0  0  0  0
   59.3920   31.9150   46.4000 C   0  0  0  0  0  0  0  0  0  0  0  0
   58.5310   31.1540   45.6030 C   0  0  0  0  0  0  0  0  0  0  0  0
   57.9000   32.6804   42.6056 H   0  0  0  0  0  0  0  0  0  0  0  0
   58.2442   31.5386   41.2623 H   0  0  0  0  0  0  0  0  0  0  0  0
   56.7223   32.4927   41.2623 H   0  0  0  0  0  0  0  0  0  0  0  0
   56.6328   33.6788   44.2896 H   0  0  0  0  0  0  0  0  0  0  0  0
   58.1735   35.0315   45.7038 H   0  0  0  0  0  0  0  0  0  0  0  0
   62.0447   33.8566   45.3788 H   0  0  0  0  0  0  0  0  0  0  0  0
   64.4424   33.3742   45.8593 H   0  0  0  0  0  0  0  0  0  0  0  0
   65.1600   33.0890   48.1330 H   0  0  0  0  0  0  0  0  0  0  0  0
   64.8151   32.9844   50.5083 H   0  0  0  0  0  0  0  0  0  0  0  0
   63.4543   33.7874   54.6997 H   0  0  0  0  0  0  0  0  0  0  0  0
   64.5529   34.5715   53.5144 H   0  0  0  0  0  0  0  0  0  0  0  0
   62.8010   34.9685   53.5144 H   0  0  0  0  0  0  0  0  0  0  0  0
   58.8352   33.4985   53.2829 H   0  0  0  0  0  0  0  0  0  0  0  0
   58.8223   34.3987   51.7284 H   0  0  0  0  0  0  0  0  0  0  0  0
   58.9700   32.6084   51.7284 H   0  0  0  0  0  0  0  0  0  0  0  0
   59.9764   33.9683   49.7165 H   0  0  0  0  0  0  0  0  0  0  0  0
   60.1794   31.4173   46.9851 H   0  0  0  0  0  0  0  0  0  0  0  0
   58.6396   30.0598   45.5723 H   0  0  0  0  0  0  0  0  0  0  0  0
  1  2  1  0
  2  3  1  0
  3  4  2  0
  3  5  1  0
  5  6  2  0
  6  7  1  0
  7  8  2  0
  8  9  1  0
  9 10  1  0
 10 11  2  0
 11 12  1  0
 12 13  2  0
 13 14  1  0
 14 15  2  0
 15 16  1  0
 16 17  1  0
 17 18  1  0
 16 19  2  0
 19 20  1  0
 20 21  1  0
 19 22  1  0
 22 23  2  0
  8 24  1  0
 24 25  2  0
 25  5  1  0
 23 10  1  0
 23 14  1  0
  1 26  1  0
  1 27  1  0
  1 28  1  0
  6 29  1  0
  7 30  1  0
 11 31  1  0
 12 32  1  0
 13 33  1  0
 15 34  1  0
 18 35  1  0
 18 36  1  0
 18 37  1  0
 21 38  1  0
 21 39  1  0
 21 40  1  0
 22 41  1  0
 24 42  1  0
 25 43  1  0
M  CHG  1  13   1
M  END
>  <UniqueID>  (4) 
3

>  <SMILES>  (4) 
COC(=O)c1ccc(Oc2cc[nH+]c3cc(OC)c(OC)cc23)cc1

>  <Energy>  (4) 
53.01739349730262

>  <Genealogy>  (4) 
COC(=O)c1ccc(Oc2cc[nH+]c3cc(OC)c(OC)cc23)cc1 (protonated)
COC(=O)c1ccc(Oc2cc[nH+]c3cc(OC)c(OC)cc23)cc1 (3D coordinates assigned)
COC(=O)c1ccc(Oc2cc[nH+]c3cc(OC)c(OC)cc23)cc1 (optimized conformer: 53.01739349730262 kcal/mol)

>  <smiles>  (4) 
COC(=O)c1ccc(Oc2ccnc3cc(OC)c(OC)cc23)cc1

>  <score_type>  (4) 
oracle

>  <origin>  (4) 
adg

>  <m_score__min__energy>  (4) 
-5.4100000000000001

>  <m_primary>  (4) 
energy

$$$$
4:0
     RDKit          3D

 31 32  0  0  1  0  0  0  0  0999 V2000
   58.1100   32.3480   41.1400 C   0  0  0  0  0  0  0  0  0  0  0  0
   57.6550   32.0450   42.5290 C   0  0  0  0  0  0  0  0  0  0  0  0
   56.9990   30.8550   42.8170 C   0  0  0  0  0  0  0  0  0  0  0  0
   56.5630   30.5400   44.0900 C   0  0  0  0  0  0  0  0  0  0  0  0
   55.9560   29.4220   44.3160 N   0  0  0  0  0  0  0  0  0  0  0  0
   56.5650   28.5430   45.2700 C   0  0  0  0  0  0  0  0  0  0  0  0
   58.0440   28.6730   45.3130 C   0  0  0  0  0  0  0  0  0  0  0  0
   58.5700   29.4360   46.3420 C   0  0  0  0  0  0  0  0  0  0  0  0
   59.9360   29.6030   46.4500 C   0  0  0  0  0  0  0  0  0  0  0  0
   60.5950   30.5810   47.7710 Cl  0  0  0  0  0  0  0  0  0  0  0  0
   60.7750   29.0050   45.5250 C   0  0  0  0  0  0  0  0  0  0  0  0
   60.2490   28.2460   44.5000 C   0  0  0  0  0  0  0  0  0  0  0  0
   58.8820   28.0780   44.3920 C   0  0  0  0  0  0  0  0  0  0  0  0
   58.1820   27.1140   43.0940 Cl  0  0  0  0  0  0  0  0  0  0  0  0
   56.7930   31.4400   45.0870 N   0  0  0  0  0  0  0  0  0  0  0  0
   57.4270   32.5930   44.8170 C   0  0  0  0  0  0  0  0  0  0  0  0
   57.7040   33.6170   45.8750 C   0  0  0  0  0  0  0  0  0  0  0  0
   57.8510   32.8910   43.5570 N   0  0  0  0  0  0  0  0  0  0  0  0
   59.0250   32.9573   41.1786 H   0  0  0  0  0  0  0  0  0  0  0  0
   58.3180   31.4074   40.6089 H   0  0  0  0  0  0  0  0  0  0  0  0
   57.3223   32.9025   40.6089 H   0  0  0  0  0  0  0  0  0  0  0  0
   56.8201   30.1376   42.0026 H   0  0  0  0  0  0  0  0  0  0  0  0
   56.1630   28.7746   46.2674 H   0  0  0  0  0  0  0  0  0  0  0  0
   56.3327   27.5121   44.9647 H   0  0  0  0  0  0  0  0  0  0  0  0
   57.8988   29.9093   47.0738 H   0  0  0  0  0  0  0  0  0  0  0  0
   61.8641   29.1355   45.6076 H   0  0  0  0  0  0  0  0  0  0  0  0
   60.9196   27.7735   43.7671 H   0  0  0  0  0  0  0  0  0  0  0  0
   57.5806   33.1607   46.8682 H   0  0  0  0  0  0  0  0  0  0  0  0
   58.7344   33.9866   45.7668 H   0  0  0  0  0  0  0  0  0  0  0  0
   57.0004   34.4556   45.7668 H   0  0  0  0  0  0  0  0  0  0  0  0
   58.3500   33.8100   43.3730 H   0  0  0  0  0  0  0  0  0  0  0  0
  1  2  1  0
  2  3  2  0
  3  4  1  0
  4  5  2  0
  5  6  1  0
  6  7  1  0
  7  8  2  0
  8  9  1  0
  9 10  1  0
  9 11  2  0
 11 12  1  0
 12 13  2  0
 13 14  1  0
  4 15  1  0
 15 16  2  0
 16 17  1  0
 16 18  1  0
 18  2  1  0
 13  7  1  0
  1 19  1  0
  1 20  1  0
  1 21  1  0
  3 22  1  0
  6 23  1  0
  6 24  1  0
  8 25  1  0
 11 26  1  0
 12 27  1  0
 17 28  1  0
 17 29  1  0
 17 30  1  0
 18 31  1  0
M  END
>  <smiles>  (5) 
Cc1cc(=NCc2cc(Cl)ccc2Cl)nc(C)[nH]1

>  <score_type>  (5) 
oracle

>  <origin>  (5) 
adg

>  <m_score__min__energy>  (5) 
-6.9900000000000002

>  <m_primary>  (5) 
energy

$$$$
5:0
     RDKit          3D

 53 55  0  0  0  0  0  0  0  0999 V2000
   57.3840   26.6540   46.1360 C   0  0  0  0  0  0  0  0  0  0  0  0
   58.6880   27.1540   46.7490 C   0  0  0  0  0  0  0  0  0  0  0  0
   58.5370   28.5320   47.4170 C   0  0  0  0  0  0  0  0  0  0  0  0
   59.3980   29.5540   46.7970 N   0  0  0  0  0  0  0  0  0  0  0  0
   59.1220   29.9920   45.4210 C   0  0  0  0  0  0  0  0  0  0  0  0
   57.6180   29.9820   45.1330 C   0  0  0  0  0  0  0  0  0  0  0  0
   57.3090   30.6350   43.7900 C   0  0  0  0  0  0  0  0  0  0  0  0
   60.4780   30.1810   47.5200 C   0  0  0  0  0  0  0  0  0  0  0  0
   61.5370   30.4920   46.9100 O   0  0  0  0  0  0  0  0  0  0  0  0
   60.3420   30.5750   48.9660 C   0  0  0  0  0  0  0  0  0  0  0  0
   59.4850   31.8390   49.0890 C   0  0  0  0  0  0  0  0  0  0  0  0
   59.8290   32.8350   48.0150 C   0  0  0  0  0  0  0  0  0  0  0  0
   61.0000   33.5930   47.8560 C   0  0  0  0  0  0  0  0  0  0  0  0
   62.2290   33.5450   48.6740 C   0  0  0  0  0  0  0  0  0  0  0  0
   62.3080   34.1810   49.9210 C   0  0  0  0  0  0  0  0  0  0  0  0
   63.4830   34.0910   50.6700 C   0  0  0  0  0  0  0  0  0  0  0  0
   64.5420   33.3770   50.2000 N   0  0  0  0  0  0  0  0  0  0  0  0
   64.4840   32.7310   49.0040 C   0  0  0  0  0  0  0  0  0  0  0  0
   63.3270   32.7970   48.2250 C   0  0  0  0  0  0  0  0  0  0  0  0
   60.8590   34.4330   46.8440 O   0  0  0  0  0  0  0  0  0  0  0  0
   59.6660   34.2550   46.3320 C   0  0  0  0  0  0  0  0  0  0  0  0
   59.0960   34.9320   45.2560 C   0  0  0  0  0  0  0  0  0  0  0  0
   57.7810   34.5920   44.8880 C   0  0  0  0  0  0  0  0  0  0  0  0
   57.0740   33.5980   45.6000 C   0  0  0  0  0  0  0  0  0  0  0  0
   57.6760   32.9330   46.6840 C   0  0  0  0  0  0  0  0  0  0  0  0
   58.9860   33.2830   47.0160 C   0  0  0  0  0  0  0  0  0  0  0  0
   56.6813   26.3846   46.9383 H   0  0  0  0  0  0  0  0  0  0  0  0
   56.9435   27.4470   45.5138 H   0  0  0  0  0  0  0  0  0  0  0  0
   57.5867   25.7698   45.5138 H   0  0  0  0  0  0  0  0  0  0  0  0
   59.0217   26.4297   47.5067 H   0  0  0  0  0  0  0  0  0  0  0  0
   59.4212   27.2564   45.9354 H   0  0  0  0  0  0  0  0  0  0  0  0
   57.4886   28.8535   47.3305 H   0  0  0  0  0  0  0  0  0  0  0  0
   58.8418   28.4300   48.4690 H   0  0  0  0  0  0  0  0  0  0  0  0
   59.5076   31.0131   45.2844 H   0  0  0  0  0  0  0  0  0  0  0  0
   59.6164   29.2971   44.7263 H   0  0  0  0  0  0  0  0  0  0  0  0
   57.2629   28.9410   45.1159 H   0  0  0  0  0  0  0  0  0  0  0  0
   57.1084   30.5529   45.9232 H   0  0  0  0  0  0  0  0  0  0  0  0
   56.8440   31.6176   43.9584 H   0  0  0  0  0  0  0  0  0  0  0  0
   58.2419   30.7634   43.2214 H   0  0  0  0  0  0  0  0  0  0  0  0
   56.6182   29.9951   43.2214 H   0  0  0  0  0  0  0  0  0  0  0  0
   59.8639   29.7557   49.5229 H   0  0  0  0  0  0  0  0  0  0  0  0
   61.3412   30.7758   49.3799 H   0  0  0  0  0  0  0  0  0  0  0  0
   58.4240   31.5637   48.9968 H   0  0  0  0  0  0  0  0  0  0  0  0
   59.6819   32.3000   50.0682 H   0  0  0  0  0  0  0  0  0  0  0  0
   61.4484   34.7482   50.3075 H   0  0  0  0  0  0  0  0  0  0  0  0
   63.5529   34.5989   51.6432 H   0  0  0  0  0  0  0  0  0  0  0  0
   65.4130   33.3170   50.7740 H   0  0  0  0  0  0  0  0  0  0  0  0
   65.3514   32.1548   48.6495 H   0  0  0  0  0  0  0  0  0  0  0  0
   63.2770   32.2648   47.2636 H   0  0  0  0  0  0  0  0  0  0  0  0
   59.6556   35.7070   44.7118 H   0  0  0  0  0  0  0  0  0  0  0  0
   57.3008   35.1034   44.0407 H   0  0  0  0  0  0  0  0  0  0  0  0
   56.0457   33.3420   45.3050 H   0  0  0  0  0  0  0  0  0  0  0  0
   57.1325   32.1629   47.2510 H   0  0  0  0  0  0  0  0  0  0  0  0
  1  2  1  0
  2  3  1  0
  3  4  1  0
  4  5  1  0
  5  6  1  0
  6  7  1  0
  4  8  1  0
  8  9  2  0
  8 10  1  0
 10 11  1  0
 11 12  1  0
 12 13  2  0
 13 14  1  0
 14 15  2  0
 15 16  1  0
 16 17  2  0
 17 18  1  0
 18 19  2  0
 13 20  1  0
 20 21  1  0
 21 22  2  0
 22 23  1  0
 23 24  2  0
 24 25  1  0
 25 26  2  0
 26 12  1  0
 19 14  1  0
 26 21  1  0
  1 27  1  0
  1 28  1  0
  1 29  1  0
  2 30  1  0
  2 31  1  0
  3 32  1  0
  3 33  1  0
  5 34  1  0
  5 35  1  0
  6 36  1  0
  6 37  1  0
  7 38  1  0
  7 39  1  0
  7 40  1  0
 10 41  1  0
 10 42  1  0
 11 43  1  0
 11 44  1  0
 15 45  1  0
 16 46  1  0
 17 47  1  0
 18 48  1  0
 19 49  1  0
 22 50  1  0
 23 51  1  0
 24 52  1  0
 25 53  1  0
M  CHG  1  17   1
M  END
>  <UniqueID>  (6) 
4

>  <SMILES>  (6) 
CCCN(CCC)C(=O)CCc1c(-c2cc[nH+]cc2)oc2ccccc12

>  <Energy>  (6) 
80.32402452606301

>  <Genealogy>  (6) 
CCCN(CCC)C(=O)CCc1c(-c2cc[nH+]cc2)oc2ccccc12 (protonated)
CCCN(CCC)C(=O)CCc1c(-c2cc[nH+]cc2)oc2ccccc12 (3D coordinates assigned)
CCCN(CCC)C(=O)CCc1c(-c2cc[nH+]cc2)oc2ccccc12 (optimized conformer: 80.32402452606301 kcal/mol)

>  <smiles>  (6) 
CCCN(CCC)C(=O)CCc1c(-c2ccncc2)oc2ccccc12

>  <score_type>  (6) 
oracle

>  <origin>  (6) 
adg

>  <m_score__min__energy>  (6) 
-6.0599999999999996

>  <m_primary>  (6) 
energy

$$$$
6:0
     RDKit          3D

 39 42  0  0  0  0  0  0  0  0999 V2000
   57.0220   28.9330   43.7830 C   0  0  0  0  0  0  0  0  0  0  0  0
   57.2980   30.2050   44.5120 C   0  0  0  0  0  0  0  0  0  0  0  0
   56.3900   31.2180   44.4910 N   0  0  0  0  0  0  0  0  0  0  0  0
   56.6360   32.3750   45.1080 N   0  0  0  0  0  0  0  0  0  0  0  0
   57.8040   32.5780   45.7680 C   0  0  0  0  0  0  0  0  0  0  0  0
   58.0650   33.7890   46.4120 C   0  0  0  0  0  0  0  0  0  0  0  0
   59.2810   33.9750   47.0790 C   0  0  0  0  0  0  0  0  0  0  0  0
   60.2480   32.9500   47.1070 C   0  0  0  0  0  0  0  0  0  0  0  0
   61.5360   33.1510   47.8170 C   0  0  0  0  0  0  0  0  0  0  0  0
   61.5550   33.5760   49.1580 C   0  0  0  0  0  0  0  0  0  0  0  0
   62.7680   33.7650   49.8260 C   0  0  0  0  0  0  0  0  0  0  0  0
   63.9850   33.5200   49.1700 C   0  0  0  0  0  0  0  0  0  0  0  0
   65.2220   33.7130   49.8020 O   0  0  0  0  0  0  0  0  0  0  0  0
   65.9530   32.7270   50.4790 C   0  0  0  0  0  0  0  0  0  0  0  0
   67.2640   32.9540   50.9390 C   0  0  0  0  0  0  0  0  0  0  0  0
   67.9530   31.9490   51.6260 C   0  0  0  0  0  0  0  0  0  0  0  0
   67.3370   30.7180   51.8680 C   0  0  0  0  0  0  0  0  0  0  0  0
   66.0290   30.4930   51.4310 C   0  0  0  0  0  0  0  0  0  0  0  0
   65.3380   31.4960   50.7450 C   0  0  0  0  0  0  0  0  0  0  0  0
   63.9710   33.1180   47.8300 C   0  0  0  0  0  0  0  0  0  0  0  0
   62.7590   32.9280   47.1590 C   0  0  0  0  0  0  0  0  0  0  0  0
   59.9740   31.7320   46.4540 C   0  0  0  0  0  0  0  0  0  0  0  0
   58.7580   31.5480   45.7880 C   0  0  0  0  0  0  0  0  0  0  0  0
   58.4860   30.3810   45.1510 N   0  0  0  0  0  0  0  0  0  0  0  0
   56.8467   28.1251   44.5087 H   0  0  0  0  0  0  0  0  0  0  0  0
   56.1302   29.0584   43.1514 H   0  0  0  0  0  0  0  0  0  0  0  0
   57.8856   28.6775   43.1514 H   0  0  0  0  0  0  0  0  0  0  0  0
   57.3165   34.5949   46.3951 H   0  0  0  0  0  0  0  0  0  0  0  0
   59.4840   34.9298   47.5861 H   0  0  0  0  0  0  0  0  0  0  0  0
   60.6074   33.7611   49.6851 H   0  0  0  0  0  0  0  0  0  0  0  0
   62.7693   34.1075   50.8713 H   0  0  0  0  0  0  0  0  0  0  0  0
   67.7482   33.9249   50.7576 H   0  0  0  0  0  0  0  0  0  0  0  0
   68.9804   32.1277   51.9760 H   0  0  0  0  0  0  0  0  0  0  0  0
   67.8820   29.9261   52.4026 H   0  0  0  0  0  0  0  0  0  0  0  0
   65.5427   29.5260   51.6269 H   0  0  0  0  0  0  0  0  0  0  0  0
   64.3049   31.3180   50.4118 H   0  0  0  0  0  0  0  0  0  0  0  0
   64.9204   32.9502   47.3004 H   0  0  0  0  0  0  0  0  0  0  0  0
   62.7620   32.6016   46.1085 H   0  0  0  0  0  0  0  0  0  0  0  0
   60.7191   30.9229   46.4680 H   0  0  0  0  0  0  0  0  0  0  0  0
  1  2  1  0
  2  3  2  0
  3  4  1  0
  4  5  2  0
  5  6  1  0
  6  7  2  0
  7  8  1  0
  8  9  1  0
  9 10  2  0
 10 11  1  0
 11 12  2  0
 12 13  1  0
 13 14  1  0
 14 15  2  0
 15 16  1  0
 16 17  2  0
 17 18  1  0
 18 19  2  0
 12 20  1  0
 20 21  2  0
  8 22  2  0
 22 23  1  0
 23 24  2  0
 24  2  1  0
 23  5  1  0
 21  9  1  0
 19 14  1  0
  1 25  1  0
  1 26  1  0
  1 27  1  0
  6 28  1  0
  7 29  1  0
 10 30  1  0
 11 31  1  0
 15 32  1  0
 16 33  1  0
 17 34  1  0
 18 35  1  0
 19 36  1  0
 20 37  1  0
 21 38  1  0
 22 39  1  0
M  END
>  <UniqueID>  (7) 
5

>  <SMILES>  (7) 
Cc1nnc2ccc(-c3ccc(Oc4ccccc4)cc3)cc2n1

>  <Energy>  (7) 
58.32827233303666

>  <Genealogy>  (7) 
Cc1nnc2ccc(-c3ccc(Oc4ccccc4)cc3)cc2n1 (3D coordinates assigned)
Cc1nnc2ccc(-c3ccc(Oc4ccccc4)cc3)cc2n1 (optimized conformer: 58.32827233303666 kcal/mol)

>  <smiles>  (7) 
Cc1nnc2ccc(-c3ccc(Oc4ccccc4)cc3)cc2n1

>  <score_type>  (7) 
oracle

>  <origin>  (7) 
adg

>  <m_score__min__energy>  (7) 
-8.0700000000000003

>  <m_primary>  (7) 
energy

$$$$
7:0
     RDKit          3D

 40 41  0  0  0  0  0  0  0  0999 V2000
   57.7650   27.8720   44.1980 C   0  0  0  0  0  0  0  0  0  0  0  0
   56.8080   28.0490   45.3720 C   0  0  0  0  0  0  0  0  0  0  0  0
   56.0190   29.2250   45.2000 O   0  0  0  0  0  0  0  0  0  0  0  0
   56.0850   30.0350   44.0620 C   0  0  0  0  0  0  0  0  0  0  0  0
   55.4320   29.7390   43.0240 O   0  0  0  0  0  0  0  0  0  0  0  0
   56.9790   31.2420   44.0660 C   0  0  0  0  0  0  0  0  0  0  0  0
   57.6650   31.4310   45.3640 N   0  0  1  0  0  0  0  0  0  0  0  0
   59.0030   30.7840   45.4450 C   0  0  0  0  0  0  0  0  0  0  0  0
   59.2500   29.9780   46.7060 C   0  0  0  0  0  0  0  0  0  0  0  0
   58.8810   30.4850   47.9650 C   0  0  0  0  0  0  0  0  0  0  0  0
   59.1270   29.7460   49.1260 C   0  0  0  0  0  0  0  0  0  0  0  0
   59.7620   28.5040   49.0460 C   0  0  0  0  0  0  0  0  0  0  0  0
   60.1650   28.0070   47.8050 C   0  0  0  0  0  0  0  0  0  0  0  0
   59.9220   28.7440   46.6420 C   0  0  0  0  0  0  0  0  0  0  0  0
   57.7150   33.1360   45.7610 S   0  0  0  0  0  0  0  0  0  0  0  0
   57.5920   33.9620   44.5100 O   0  0  0  0  0  0  0  0  0  0  0  0
   56.5680   33.4710   46.6720 O   0  0  0  0  0  0  0  0  0  0  0  0
   59.2040   33.5450   46.5980 C   0  0  0  0  0  0  0  0  0  0  0  0
   60.4410   33.7450   46.0050 C   0  0  0  0  0  0  0  0  0  0  0  0
   61.4370   34.0940   46.9250 C   0  0  0  0  0  0  0  0  0  0  0  0
   60.9800   34.1780   48.2350 C   0  0  0  0  0  0  0  0  0  0  0  0
   59.3360   33.8190   48.2490 S   0  0  0  0  0  0  0  0  0  0  0  0
   58.7802   27.6842   44.5776 H   0  0  0  0  0  0  0  0  0  0  0  0
   57.4392   27.0189   43.5848 H   0  0  0  0  0  0  0  0  0  0  0  0
   57.7659   28.7852   43.5848 H   0  0  0  0  0  0  0  0  0  0  0  0
   56.1446   27.1737   45.4335 H   0  0  0  0  0  0  0  0  0  0  0  0
   57.3943   28.1460   46.2977 H   0  0  0  0  0  0  0  0  0  0  0  0
   57.7383   31.1220   43.2792 H   0  0  0  0  0  0  0  0  0  0  0  0
   56.3498   32.1263   43.8870 H   0  0  0  0  0  0  0  0  0  0  0  0
   57.0700   30.9930   46.1060 H   0  0  0  0  0  0  0  0  0  0  0  0
   59.1086   30.1093   44.5826 H   0  0  0  0  0  0  0  0  0  0  0  0
   59.7395   31.6010   45.4531 H   0  0  0  0  0  0  0  0  0  0  0  0
   58.3956   31.4695   48.0366 H   0  0  0  0  0  0  0  0  0  0  0  0
   58.8199   30.1433   50.1047 H   0  0  0  0  0  0  0  0  0  0  0  0
   59.9442   27.9186   49.9593 H   0  0  0  0  0  0  0  0  0  0  0  0
   60.6745   27.0341   47.7422 H   0  0  0  0  0  0  0  0  0  0  0  0
   60.2589   28.3558   45.6695 H   0  0  0  0  0  0  0  0  0  0  0  0
   60.6211   33.6405   44.9249 H   0  0  0  0  0  0  0  0  0  0  0  0
   62.4819   34.2837   46.6383 H   0  0  0  0  0  0  0  0  0  0  0  0
   61.5896   34.4355   49.1136 H   0  0  0  0  0  0  0  0  0  0  0  0
  1  2  1  0
  2  3  1  0
  3  4  1  0
  4  5  2  0
  4  6  1  0
  6  7  1  0
  7  8  1  0
  8  9  1  0
  9 10  2  0
 10 11  1  0
 11 12  2  0
 12 13  1  0
 13 14  2  0
  7 15  1  0
 15 16  2  0
 15 17  2  0
 15 18  1  0
 18 19  2  0
 19 20  1  0
 20 21  2  0
 21 22  1  0
 14  9  1  0
 22 18  1  0
  1 23  1  0
  1 24  1  0
  1 25  1  0
  2 26  1  0
  2 27  1  0
  6 28  1  0
  6 29  1  0
  7 30  1  1
  8 31  1  0
  8 32  1  0
 10 33  1  0
 11 34  1  0
 12 35  1  0
 13 36  1  0
 14 37  1  0
 19 38  1  0
 20 39  1  0
 21 40  1  0
M  CHG  1   7   1
M  END
>  <UniqueID>  (8) 
6

>  <SMILES>  (8) 
CCOC(=O)C[N@@H+](Cc1ccccc1)S(=O)(=O)c1cccs1

>  <Energy>  (8) 
63.506806749241136

>  <Genealogy>  (8) 
CCOC(=O)C[NH+](Cc1ccccc1)S(=O)(=O)c1cccs1 (protonated)
CCOC(=O)C[N@@H+](Cc1ccccc1)S(=O)(=O)c1cccs1 (chirality)
CCOC(=O)C[N@@H+](Cc1ccccc1)S(=O)(=O)c1cccs1 (3D coordinates assigned)
CCOC(=O)C[N@@H+](Cc1ccccc1)S(=O)(=O)c1cccs1 (optimized conformer: 63.506806749241136 kcal/mol)

>  <smiles>  (8) 
CCOC(=O)CN(Cc1ccccc1)S(=O)(=O)c1cccs1

>  <score_type>  (8) 
oracle

>  <origin>  (8) 
adg

>  <m_score__min__energy>  (8) 
-5.4000000000000004

>  <m_primary>  (8) 
energy

$$$$
8:0
     RDKit          3D

 33 35  0  0  0  0  0  0  0  0999 V2000
   58.6765   32.7814   49.1678 H   0  0  0  0  0  0  0  0  0  0  0  0
   59.3770   32.6210   48.3350 C   0  0  0  0  0  0  0  0  0  0  0  0
   60.4930   31.9930   48.5480 N   0  0  0  0  0  0  0  0  0  0  0  0
   61.7450   32.4360   48.0850 N   0  0  0  0  0  0  0  0  0  0  0  0
   62.2810   33.6480   48.3120 C   0  0  0  0  0  0  0  0  0  0  0  0
   61.7810   34.4596   48.8609 H   0  0  0  0  0  0  0  0  0  0  0  0
   63.5150   33.7330   47.7750 N   0  0  0  0  0  0  0  0  0  0  0  0
   63.7580   32.5600   47.2080 N   0  0  0  0  0  0  0  0  0  0  0  0
   64.6400   32.3100   46.7110 H   0  0  0  0  0  0  0  0  0  0  0  0
   62.6890   31.7670   47.3980 C   0  0  0  0  0  0  0  0  0  0  0  0
   62.5997   30.7289   47.0454 H   0  0  0  0  0  0  0  0  0  0  0  0
   59.0360   33.1230   46.9880 C   0  0  0  0  0  0  0  0  0  0  0  0
   59.5260   34.3850   46.6140 C   0  0  0  0  0  0  0  0  0  0  0  0
   60.2042   34.9276   47.2890 H   0  0  0  0  0  0  0  0  0  0  0  0
   59.1610   34.9580   45.3940 C   0  0  0  0  0  0  0  0  0  0  0  0
   59.5528   35.9464   45.1119 H   0  0  0  0  0  0  0  0  0  0  0  0
   58.3000   34.2780   44.5330 C   0  0  0  0  0  0  0  0  0  0  0  0
   57.9949   34.7405   43.5827 H   0  0  0  0  0  0  0  0  0  0  0  0
   57.8250   33.0110   44.8760 C   0  0  0  0  0  0  0  0  0  0  0  0
   57.1392   32.4836   44.1966 H   0  0  0  0  0  0  0  0  0  0  0  0
   58.2140   32.4050   46.0780 C   0  0  0  0  0  0  0  0  0  0  0  0
   57.7650   31.0980   46.3210 O   0  0  0  0  0  0  0  0  0  0  0  0
   58.1120   29.9590   45.5760 C   0  0  0  0  0  0  0  0  0  0  0  0
   59.3020   29.3000   45.9150 C   0  0  0  0  0  0  0  0  0  0  0  0
   59.9011   29.6609   46.7641 H   0  0  0  0  0  0  0  0  0  0  0  0
   59.7350   28.1900   45.1860 C   0  0  0  0  0  0  0  0  0  0  0  0
   60.6808   27.6939   45.4494 H   0  0  0  0  0  0  0  0  0  0  0  0
   58.9690   27.7110   44.1250 C   0  0  0  0  0  0  0  0  0  0  0  0
   59.3173   26.8450   43.5429 H   0  0  0  0  0  0  0  0  0  0  0  0
   57.7600   28.3290   43.8000 C   0  0  0  0  0  0  0  0  0  0  0  0
   57.1513   27.9372   42.9717 H   0  0  0  0  0  0  0  0  0  0  0  0
   57.3170   29.4450   44.5220 C   0  0  0  0  0  0  0  0  0  0  0  0
   55.7280   30.0920   44.1280 Cl  0  0  0  0  0  0  0  0  0  0  0  0
  1  2  1  0
  2  3  2  0
  3  4  1  0
  4  5  1  0
  5  6  1  0
  5  7  2  0
  7  8  1  0
  8  9  1  0
  8 10  2  0
 10 11  1  0
  2 12  1  0
 12 13  2  0
 13 14  1  0
 13 15  1  0
 15 16  1  0
 15 17  2  0
 17 18  1  0
 17 19  1  0
 19 20  1  0
 19 21  2  0
 21 22  1  0
 22 23  1  0
 23 24  2  0
 24 25  1  0
 24 26  1  0
 26 27  1  0
 26 28  2  0
 28 29  1  0
 28 30  1  0
 30 31  1  0
 30 32  2  0
 32 33  1  0
 10  4  1  0
 21 12  1  0
 32 23  1  0
M  CHG  1   8   1
M  END
>  <UniqueID>  (9) 
7

>  <SMILES>  (9) 
Clc1ccccc1Oc1ccccc1/C=N/n1cn[nH+]c1

>  <Energy>  (9) 
86.01980083168755

>  <Genealogy>  (9) 
Clc1ccccc1Oc1ccccc1C=Nn1cn[nH+]c1 (protonated)
Clc1ccccc1Oc1ccccc1/C=N/n1cn[nH+]c1 (cis-trans isomerization)
Clc1ccccc1Oc1ccccc1/C=N/n1cn[nH+]c1 (3D coordinates assigned)
Clc1ccccc1Oc1ccccc1/C=N/n1cn[nH+]c1 (optimized conformer: 86.01980083168755 kcal/mol)

>  <smiles>  (9) 
Clc1ccccc1Oc1ccccc1C=Nn1cnnc1

>  <score_type>  (9) 
oracle

>  <origin>  (9) 
adg

>  <m_score__min__energy>  (9) 
-6.7699999999999996

>  <m_primary>  (9) 
energy

$$$$
9:0
     RDKit          3D

 57 60  0  0  0  0  0  0  0  0999 V2000
   59.6220   33.9020   47.1030 C   0  0  0  0  0  0  0  0  0  0  0  0
   59.3070   32.4960   46.8220 N   0  0  0  0  0  0  0  0  0  0  0  0
   59.9990   31.5260   47.4340 N   0  0  0  0  0  0  0  0  0  0  0  0
   59.7420   30.2100   47.2060 C   0  0  0  0  0  0  0  0  0  0  0  0
   58.7300   29.8360   46.3150 C   0  0  0  0  0  0  0  0  0  0  0  0
   58.4480   28.4420   46.0580 N   0  0  0  0  0  0  0  0  0  0  0  0
   58.1660   27.5380   47.1800 C   0  0  0  0  0  0  0  0  0  0  0  0
   58.2900   26.0720   46.7500 C   0  0  0  0  0  0  0  0  0  0  0  0
   57.3460   25.7320   45.5470 C   0  0  0  0  0  0  0  0  0  0  0  0
   55.9010   25.6790   46.0440 C   0  0  0  0  0  0  0  0  0  0  0  0
   55.1740   26.7100   46.0000 O   0  0  0  0  0  0  0  0  0  0  0  0
   55.3940   24.4910   46.6680 N   0  0  0  0  0  0  0  0  0  0  0  0
   54.3840   23.6260   46.0680 C   0  0  0  0  0  0  0  0  0  0  0  0
   53.6630   22.8440   47.1700 C   0  0  0  0  0  0  0  0  0  0  0  0
   52.5100   21.9960   46.5830 C   0  0  0  0  0  0  0  0  0  0  0  0
   52.1830   22.3390   45.2450 O   0  0  0  0  0  0  0  0  0  0  0  0
   52.0190   23.7390   45.1280 C   0  0  0  0  0  0  0  0  0  0  0  0
   53.3720   24.4620   45.2590 C   0  0  0  0  0  0  0  0  0  0  0  0
   57.6440   24.3380   44.9500 C   0  0  0  0  0  0  0  0  0  0  0  0
   58.6650   23.4900   45.4460 C   0  0  0  0  0  0  0  0  0  0  0  0
   58.8690   22.2180   44.9010 C   0  0  0  0  0  0  0  0  0  0  0  0
   58.0540   21.7540   43.8700 C   0  0  0  0  0  0  0  0  0  0  0  0
   57.0230   22.5580   43.3850 C   0  0  0  0  0  0  0  0  0  0  0  0
   56.8140   23.8300   43.9220 C   0  0  0  0  0  0  0  0  0  0  0  0
   57.5050   26.8450   44.4310 C   0  0  0  0  0  0  0  0  0  0  0  0
   58.6000   27.8860   44.7060 C   0  0  0  0  0  0  0  0  0  0  0  0
   58.0110   30.8490   45.6720 C   0  0  0  0  0  0  0  0  0  0  0  0
   58.3100   32.1850   45.9360 C   0  0  0  0  0  0  0  0  0  0  0  0
   57.6580   33.0920   45.3510 O   0  0  0  0  0  0  0  0  0  0  0  0
   59.6573   34.0595   48.1911 H   0  0  0  0  0  0  0  0  0  0  0  0
   60.5988   34.1537   46.6642 H   0  0  0  0  0  0  0  0  0  0  0  0
   58.8460   34.5464   46.6642 H   0  0  0  0  0  0  0  0  0  0  0  0
   60.7590   31.7640   48.1100 H   0  0  0  0  0  0  0  0  0  0  0  0
   60.3309   29.4381   47.7231 H   0  0  0  0  0  0  0  0  0  0  0  0
   58.8824   27.7367   47.9907 H   0  0  0  0  0  0  0  0  0  0  0  0
   57.1361   27.7163   47.5229 H   0  0  0  0  0  0  0  0  0  0  0  0
   59.3304   25.8762   46.4515 H   0  0  0  0  0  0  0  0  0  0  0  0
   57.9954   25.4417   47.6020 H   0  0  0  0  0  0  0  0  0  0  0  0
   54.8756   22.9198   45.3827 H   0  0  0  0  0  0  0  0  0  0  0  0
   54.3825   22.1775   47.6680 H   0  0  0  0  0  0  0  0  0  0  0  0
   53.2403   23.5606   47.8896 H   0  0  0  0  0  0  0  0  0  0  0  0
   52.8076   20.9373   46.6089 H   0  0  0  0  0  0  0  0  0  0  0  0
   51.6179   22.1921   47.1959 H   0  0  0  0  0  0  0  0  0  0  0  0
   51.5807   23.9697   44.1458 H   0  0  0  0  0  0  0  0  0  0  0  0
   51.3557   24.0844   45.9346 H   0  0  0  0  0  0  0  0  0  0  0  0
   53.7799   24.6418   44.2534 H   0  0  0  0  0  0  0  0  0  0  0  0
   53.2060   25.4110   45.7899 H   0  0  0  0  0  0  0  0  0  0  0  0
   59.3056   23.8365   46.2704 H   0  0  0  0  0  0  0  0  0  0  0  0
   59.6773   21.5803   45.2883 H   0  0  0  0  0  0  0  0  0  0  0  0
   58.2236   20.7559   43.4399 H   0  0  0  0  0  0  0  0  0  0  0  0
   56.3730   22.1895   42.5777 H   0  0  0  0  0  0  0  0  0  0  0  0
   55.9891   24.4487   43.5390 H   0  0  0  0  0  0  0  0  0  0  0  0
   57.7409   26.3442   43.4804 H   0  0  0  0  0  0  0  0  0  0  0  0
   56.5538   27.3970   44.4087 H   0  0  0  0  0  0  0  0  0  0  0  0
   59.5862   27.4066   44.6197 H   0  0  0  0  0  0  0  0  0  0  0  0
   58.5112   28.7007   43.9723 H   0  0  0  0  0  0  0  0  0  0  0  0
   57.2123   30.5925   44.9604 H   0  0  0  0  0  0  0  0  0  0  0  0
  1  2  1  0
  2  3  1  0
  3  4  2  0
  4  5  1  0
  5  6  1  0
  6  7  1  0
  7  8  1  0
  8  9  1  0
  9 10  1  0
 10 11  2  0
 10 12  1  0
 12 13  1  0
 13 14  1  0
 14 15  1  0
 15 16  1  0
 16 17  1  0
 17 18  1  0
  9 19  1  0
 19 20  2  0
 20 21  1  0
 21 22  2  0
 22 23  1  0
 23 24  2  0
  9 25  1  0
 25 26  1  0
  5 27  2  0
 27 28  1  0
 28 29  2  0
 28  2  1  0
 26  6  1  0
 18 13  1  0
 24 19  1  0
  1 30  1  0
  1 31  1  0
  1 32  1  0
  3 33  1  0
  4 34  1  0
  7 35  1  0
  7 36  1  0
  8 37  1  0
  8 38  1  0
 13 39  1  0
 14 40  1  0
 14 41  1  0
 15 42  1  0
 15 43  1  0
 17 44  1  0
 17 45  1  0
 18 46  1  0
 18 47  1  0
 20 48  1  0
 21 49  1  0
 22 50  1  0
 23 51  1  0
 24 52  1  0
 25 53  1  0
 25 54  1  0
 26 55  1  0
 26 56  1  0
 27 57  1  0
M  CHG  2   3   1  12  -1
M  END
>  <UniqueID>  (10) 
8

>  <SMILES>  (10) 
Cn1[nH+]cc(N2CCC(C(=O)[N-]C3CCOCC3)(c3ccccc3)CC2)cc1=O

>  <Energy>  (10) 
81.81816787009912

>  <Genealogy>  (10) 
Cn1[nH+]cc(N2CCC(C(=O)[N-]C3CCOCC3)(c3ccccc3)CC2)cc1=O (protonated)
Cn1[nH+]cc(N2CCC(C(=O)[N-]C3CCOCC3)(c3ccccc3)CC2)cc1=O (3D coordinates assigned)
Cn1[nH+]cc(N2CCC(C(=O)[N-]C3CCOCC3)(c3ccccc3)CC2)cc1=O (nonaromatic ring conformer: 81.81816787009912 kcal/mol)

>  <smiles>  (10) 
Cn1ncc(N2CCC(C(=O)NC3CCOCC3)(c3ccccc3)CC2)cc1=O

>  <score_type>  (10) 
oracle

>  <origin>  (10) 
adg

>  <m_score__min__energy>  (10) 
-9.4900000000000002

>  <m_primary>  (10) 
energy

$$$$
10:0
     RDKit          3D

 23 25  0  0  0  0  0  0  0  0999 V2000
   59.3860   34.2060   47.5180 C   0  0  0  0  0  0  0  0  0  0  0  0
   59.6450   35.2330   46.6090 C   0  0  0  0  0  0  0  0  0  0  0  0
   59.3070   35.0870   45.3000 N   0  0  0  0  0  0  0  0  0  0  0  0
   58.7000   33.9600   44.8400 C   0  0  0  0  0  0  0  0  0  0  0  0
   58.3980   32.9090   45.7220 C   0  0  0  0  0  0  0  0  0  0  0  0
   57.7630   31.6640   45.2450 C   0  0  0  0  0  0  0  0  0  0  0  0
   56.4690   31.5900   44.8600 N   0  0  0  0  0  0  0  0  0  0  0  0
   56.2250   30.3330   44.5020 N   0  0  0  0  0  0  0  0  0  0  0  0
   57.3800   29.6650   44.6710 C   0  0  0  0  0  0  0  0  0  0  0  0
   57.6100   28.3210   44.3930 C   0  0  0  0  0  0  0  0  0  0  0  0
   58.9120   27.8310   44.5920 C   0  0  0  0  0  0  0  0  0  0  0  0
   59.9330   28.6900   45.0450 C   0  0  0  0  0  0  0  0  0  0  0  0
   59.6400   30.0380   45.3040 C   0  0  0  0  0  0  0  0  0  0  0  0
   58.3600   30.4610   45.1260 N   0  0  0  0  0  0  0  0  0  0  0  0
   58.7680   33.0370   47.0680 C   0  0  0  0  0  0  0  0  0  0  0  0
   59.6653   34.3159   48.5763 H   0  0  0  0  0  0  0  0  0  0  0  0
   60.1234   36.1622   46.9521 H   0  0  0  0  0  0  0  0  0  0  0  0
   58.4447   33.8712   43.7737 H   0  0  0  0  0  0  0  0  0  0  0  0
   56.8031   27.6668   44.0311 H   0  0  0  0  0  0  0  0  0  0  0  0
   59.1350   26.7723   44.3933 H   0  0  0  0  0  0  0  0  0  0  0  0
   60.9531   28.3066   45.1947 H   0  0  0  0  0  0  0  0  0  0  0  0
   60.4235   30.7325   45.6414 H   0  0  0  0  0  0  0  0  0  0  0  0
   58.5712   32.2147   47.7716 H   0  0  0  0  0  0  0  0  0  0  0  0
  1  2  2  0
  2  3  1  0
  3  4  2  0
  4  5  1  0
  5  6  1  0
  6  7  2  0
  7  8  1  0
  8  9  2  0
  9 10  1  0
 10 11  2  0
 11 12  1  0
 12 13  2  0
 13 14  1  0
  5 15  2  0
 15  1  1  0
 14  6  1  0
 14  9  1  0
  1 16  1  0
  2 17  1  0
  4 18  1  0
 10 19  1  0
 11 20  1  0
 12 21  1  0
 13 22  1  0
 15 23  1  0
M  END
>  <UniqueID>  (11) 
9

>  <SMILES>  (11) 
c1cncc(-c2nnc3ccccn23)c1

>  <Energy>  (11) 
72.63434029465587

>  <Genealogy>  (11) 
c1cncc(-c2nnc3ccccn23)c1 (3D coordinates assigned)
c1cncc(-c2nnc3ccccn23)c1 (optimized conformer: 72.63434029465587 kcal/mol)

>  <smiles>  (11) 
c1cncc(-c2nnc3ccccn23)c1

>  <score_type>  (11) 
oracle

>  <origin>  (11) 
adg

>  <m_score__min__energy>  (11) 
-6.5599999999999996

>  <m_primary>  (11) 
energy

$$$$
11:0
     RDKit          3D

 42 44  0  0  0  0  0  0  0  0999 V2000
   54.9960   25.1930   45.6740 C   0  0  0  0  0  0  0  0  0  0  0  0
   55.3080   26.5470   45.9870 O   0  0  0  0  0  0  0  0  0  0  0  0
   56.5720   27.1300   45.8090 C   0  0  0  0  0  0  0  0  0  0  0  0
   57.7000   26.4060   46.2070 C   0  0  0  0  0  0  0  0  0  0  0  0
   58.9810   26.9430   46.0540 C   0  0  0  0  0  0  0  0  0  0  0  0
   59.1500   28.2220   45.5010 C   0  0  0  0  0  0  0  0  0  0  0  0
   60.5310   28.8200   45.3680 C   0  0  0  0  0  0  0  0  0  0  0  0
   60.7150   30.0090   46.2220 N   0  0  0  0  0  0  0  0  0  0  0  0
   60.5440   29.7550   47.6660 C   0  0  0  0  0  0  0  0  0  0  0  0
   59.4440   30.6280   48.2950 C   0  0  0  0  0  0  0  0  0  0  0  0
   59.6480   32.0680   47.9290 C   0  0  0  0  0  0  0  0  0  0  0  0
   60.5220   32.9640   48.5390 C   0  0  0  0  0  0  0  0  0  0  0  0
   60.4980   34.1550   47.8990 N   0  0  0  0  0  0  0  0  0  0  0  0
   59.6290   34.0160   46.8840 C   0  0  0  0  0  0  0  0  0  0  0  0
   59.2860   34.9710   45.9270 C   0  0  0  0  0  0  0  0  0  0  0  0
   58.3640   34.6010   44.9300 C   0  0  0  0  0  0  0  0  0  0  0  0
   57.8160   33.3000   44.9100 C   0  0  0  0  0  0  0  0  0  0  0  0
   58.1820   32.3560   45.8860 C   0  0  0  0  0  0  0  0  0  0  0  0
   59.0930   32.7530   46.8650 C   0  0  0  0  0  0  0  0  0  0  0  0
   58.0220   28.9500   45.0970 C   0  0  0  0  0  0  0  0  0  0  0  0
   56.7400   28.4110   45.2490 C   0  0  0  0  0  0  0  0  0  0  0  0
   54.8645   24.6223   46.6052 H   0  0  0  0  0  0  0  0  0  0  0  0
   54.0661   25.1571   45.0876 H   0  0  0  0  0  0  0  0  0  0  0  0
   55.8165   24.7538   45.0876 H   0  0  0  0  0  0  0  0  0  0  0  0
   57.5779   25.4042   46.6447 H   0  0  0  0  0  0  0  0  0  0  0  0
   59.8602   26.3613   46.3681 H   0  0  0  0  0  0  0  0  0  0  0  0
   61.2735   28.0609   45.6550 H   0  0  0  0  0  0  0  0  0  0  0  0
   60.6599   29.1357   44.3222 H   0  0  0  0  0  0  0  0  0  0  0  0
   61.6720   30.3990   46.0530 H   0  0  0  0  0  0  0  0  0  0  0  0
   60.0280   30.7450   45.9330 H   0  0  0  0  0  0  0  0  0  0  0  0
   60.2785   28.6971   47.8084 H   0  0  0  0  0  0  0  0  0  0  0  0
   61.4928   30.0060   48.1627 H   0  0  0  0  0  0  0  0  0  0  0  0
   58.4623   30.2957   47.9265 H   0  0  0  0  0  0  0  0  0  0  0  0
   59.4901   30.5274   49.3894 H   0  0  0  0  0  0  0  0  0  0  0  0
   61.1439   32.7354   49.4171 H   0  0  0  0  0  0  0  0  0  0  0  0
   61.0570   35.0050   48.1400 H   0  0  0  0  0  0  0  0  0  0  0  0
   59.7220   35.9806   45.9507 H   0  0  0  0  0  0  0  0  0  0  0  0
   58.0684   35.3303   44.1613 H   0  0  0  0  0  0  0  0  0  0  0  0
   57.0972   33.0226   44.1249 H   0  0  0  0  0  0  0  0  0  0  0  0
   57.7639   31.3386   45.8777 H   0  0  0  0  0  0  0  0  0  0  0  0
   58.1457   29.9509   44.6579 H   0  0  0  0  0  0  0  0  0  0  0  0
   55.8605   28.9897   44.9301 H   0  0  0  0  0  0  0  0  0  0  0  0
  1  2  1  0
  2  3  1  0
  3  4  2  0
  4  5  1  0
  5  6  2  0
  6  7  1  0
  7  8  1  0
  8  9  1  0
  9 10  1  0
 10 11  1  0
 11 12  2  0
 12 13  1  0
 13 14  1  0
 14 15  2  0
 15 16  1  0
 16 17  2  0
 17 18  1  0
 18 19  2  0
  6 20  1  0
 20 21  2  0
 21  3  1  0
 19 11  1  0
 19 14  1  0
  1 22  1  0
  1 23  1  0
  1 24  1  0
  4 25  1  0
  5 26  1  0
  7 27  1  0
  7 28  1  0
  8 29  1  0
  8 30  1  0
  9 31  1  0
  9 32  1  0
 10 33  1  0
 10 34  1  0
 12 35  1  0
 13 36  1  0
 15 37  1  0
 16 38  1  0
 17 39  1  0
 18 40  1  0
 20 41  1  0
 21 42  1  0
M  CHG  1   8   1
M  END
>  <UniqueID>  (12) 
10

>  <SMILES>  (12) 
COc1ccc(C[NH2+]CCc2c[nH]c3ccccc23)cc1

>  <Energy>  (12) 
73.44361868778554

>  <Genealogy>  (12) 
COc1ccc(C[NH2+]CCc2c[nH]c3ccccc23)cc1 (protonated)
COc1ccc(C[NH2+]CCc2c[nH]c3ccccc23)cc1 (3D coordinates assigned)
COc1ccc(C[NH2+]CCc2c[nH]c3ccccc23)cc1 (optimized conformer: 73.44361868778554 kcal/mol)

>  <smiles>  (12) 
COc1ccc(CNCCc2c[nH]c3ccccc23)cc1

>  <score_type>  (12) 
oracle

>  <origin>  (12) 
adg

>  <m_score__min__energy>  (12) 
-5.7199999999999998

>  <m_primary>  (12) 
energy

$$$$
12:0
     RDKit          3D

 48 52  0  0  0  0  0  0  0  0999 V2000
   63.3820   33.9030   47.0450 C   0  0  0  0  0  0  0  0  0  0  0  0
   62.6980   32.9400   47.9100 N   0  0  0  0  0  0  0  0  0  0  0  0
   61.4080   32.5100   47.8360 C   0  0  0  0  0  0  0  0  0  0  0  0
   60.3900   33.0270   46.8960 C   0  0  0  0  0  0  0  0  0  0  0  0
   60.2280   34.4110   46.7360 C   0  0  0  0  0  0  0  0  0  0  0  0
   59.2810   34.9100   45.8390 C   0  0  0  0  0  0  0  0  0  0  0  0
   58.4990   34.0330   45.0830 C   0  0  0  0  0  0  0  0  0  0  0  0
   58.6670   32.6440   45.2080 C   0  0  0  0  0  0  0  0  0  0  0  0
   57.8420   31.7150   44.3990 C   0  0  0  0  0  0  0  0  0  0  0  0
   57.0980   30.7030   45.0320 C   0  0  0  0  0  0  0  0  0  0  0  0
   56.3220   29.8170   44.2790 C   0  0  0  0  0  0  0  0  0  0  0  0
   55.6150   28.8400   44.9000 F   0  0  0  0  0  0  0  0  0  0  0  0
   56.2760   29.9340   42.8880 C   0  0  0  0  0  0  0  0  0  0  0  0
   57.0040   30.9390   42.2480 C   0  0  0  0  0  0  0  0  0  0  0  0
   57.7840   31.8290   42.9940 C   0  0  0  0  0  0  0  0  0  0  0  0
   58.4500   32.8200   42.3480 F   0  0  0  0  0  0  0  0  0  0  0  0
   59.6180   32.1480   46.1180 C   0  0  0  0  0  0  0  0  0  0  0  0
   61.1300   31.5530   48.7520 N   0  0  0  0  0  0  0  0  0  0  0  0
   62.2770   31.3980   49.4410 C   0  0  0  0  0  0  0  0  0  0  0  0
   62.5420   30.5520   50.5160 C   0  0  0  0  0  0  0  0  0  0  0  0
   61.5720   29.6790   51.0350 C   0  0  0  0  0  0  0  0  0  0  0  0
   61.8810   28.8480   52.1100 C   0  0  0  0  0  0  0  0  0  0  0  0
   63.1540   28.8780   52.6750 C   0  0  0  0  0  0  0  0  0  0  0  0
   64.1330   29.7390   52.1720 C   0  0  0  0  0  0  0  0  0  0  0  0
   63.8530   30.5970   51.0790 C   0  0  0  0  0  0  0  0  0  0  0  0
   64.8110   31.4670   50.5620 N   0  0  0  0  0  0  0  0  0  0  0  0
   66.1650   31.5150   51.1490 C   0  0  0  0  0  0  0  0  0  0  0  0
   64.5030   32.2940   49.4980 C   0  0  0  0  0  0  0  0  0  0  0  0
   65.3540   33.1030   49.0360 O   0  0  0  0  0  0  0  0  0  0  0  0
   63.2220   32.2380   48.9410 C   0  0  0  0  0  0  0  0  0  0  0  0
   63.9081   34.6437   47.6651 H   0  0  0  0  0  0  0  0  0  0  0  0
   64.1081   33.3743   46.4100 H   0  0  0  0  0  0  0  0  0  0  0  0
   62.6437   34.4145   46.4100 H   0  0  0  0  0  0  0  0  0  0  0  0
   60.8494   35.1063   47.3195 H   0  0  0  0  0  0  0  0  0  0  0  0
   59.1504   35.9965   45.7274 H   0  0  0  0  0  0  0  0  0  0  0  0
   57.7476   34.4325   44.3860 H   0  0  0  0  0  0  0  0  0  0  0  0
   57.1270   30.6080   46.1275 H   0  0  0  0  0  0  0  0  0  0  0  0
   55.6665   29.2347   42.2969 H   0  0  0  0  0  0  0  0  0  0  0  0
   56.9640   31.0313   41.1526 H   0  0  0  0  0  0  0  0  0  0  0  0
   59.7586   31.0619   46.2215 H   0  0  0  0  0  0  0  0  0  0  0  0
   60.2150   31.0730   48.9010 H   0  0  0  0  0  0  0  0  0  0  0  0
   60.5657   29.6512   50.5917 H   0  0  0  0  0  0  0  0  0  0  0  0
   61.1177   28.1665   52.5136 H   0  0  0  0  0  0  0  0  0  0  0  0
   63.3903   28.2190   53.5234 H   0  0  0  0  0  0  0  0  0  0  0  0
   65.1331   29.7511   52.6298 H   0  0  0  0  0  0  0  0  0  0  0  0
   66.0892   31.5123   52.2464 H   0  0  0  0  0  0  0  0  0  0  0  0
   66.7391   30.6366   50.8190 H   0  0  0  0  0  0  0  0  0  0  0  0
   66.6754   32.4318   50.8190 H   0  0  0  0  0  0  0  0  0  0  0  0
  1  2  1  0
  2  3  1  0
  3  4  1  0
  4  5  2  0
  5  6  1  0
  6  7  2  0
  7  8  1  0
  8  9  1  0
  9 10  2  0
 10 11  1  0
 11 12  1  0
 11 13  2  0
 13 14  1  0
 14 15  2  0
 15 16  1  0
  8 17  2  0
  3 18  2  0
 18 19  1  0
 19 20  1  0
 20 21  2  0
 21 22  1  0
 22 23  2  0
 23 24  1  0
 24 25  2  0
 25 26  1  0
 26 27  1  0
 26 28  1  0
 28 29  2  0
 28 30  1  0
 30  2  1  0
 17  4  1  0
 30 19  2  0
 15  9  1  0
 25 20  1  0
  1 31  1  0
  1 32  1  0
  1 33  1  0
  5 34  1  0
  6 35  1  0
  7 36  1  0
 10 37  1  0
 13 38  1  0
 14 39  1  0
 17 40  1  0
 18 41  1  0
 21 42  1  0
 22 43  1  0
 23 44  1  0
 24 45  1  0
 27 46  1  0
 27 47  1  0
 27 48  1  0
M  CHG  1  18   1
M  END
>  <UniqueID>  (13) 
11

>  <SMILES>  (13) 
Cn1c(-c2cccc(-c3cc(F)ccc3F)c2)[nH+]c2c3ccccc3n(C)c(=O)c21

>  <Energy>  (13) 
116.43440057903216

>  <Genealogy>  (13) 
Cn1c(-c2cccc(-c3cc(F)ccc3F)c2)[nH+]c2c3ccccc3n(C)c(=O)c21 (protonated)
Cn1c(-c2cccc(-c3cc(F)ccc3F)c2)[nH+]c2c3ccccc3n(C)c(=O)c21 (3D coordinates assigned)
Cn1c(-c2cccc(-c3cc(F)ccc3F)c2)[nH+]c2c3ccccc3n(C)c(=O)c21 (optimized conformer: 116.43440057903216 kcal/mol)

>  <smiles>  (13) 
Cn1c(-c2cccc(-c3cc(F)ccc3F)c2)nc2c3ccccc3n(C)c(=O)c21

>  <score_type>  (13) 
oracle

>  <origin>  (13) 
adg

>  <m_score__min__energy>  (13) 
-7.5700000000000003

>  <m_primary>  (13) 
energy

$$$$
13:0
     RDKit          3D

 45 48  0  0  0  0  0  0  0  0999 V2000
   60.2551   35.7916   45.5334 H   0  0  0  0  0  0  0  0  0  0  0  0
   59.6680   34.8650   45.6150 C   0  0  0  0  0  0  0  0  0  0  0  0
   58.1760   34.5750   44.8890 S   0  0  0  0  0  0  0  0  0  0  0  0
   58.0540   33.0230   45.5110 C   0  0  0  0  0  0  0  0  0  0  0  0
   57.0180   32.2610   45.3290 N   0  0  0  0  0  0  0  0  0  0  0  0
   57.0380   30.9230   44.8160 C   0  0  0  0  0  0  0  0  0  0  0  0
   55.9820   30.4520   44.3150 O   0  0  0  0  0  0  0  0  0  0  0  0
   58.3340   30.1650   44.6760 C   0  0  0  0  0  0  0  0  0  0  0  0
   58.5876   30.0894   43.6083 H   0  0  0  0  0  0  0  0  0  0  0  0
   59.1096   30.7127   45.2314 H   0  0  0  0  0  0  0  0  0  0  0  0
   58.2410   28.7750   45.2540 C   0  0  0  0  0  0  0  0  0  0  0  0
   59.4060   28.0950   45.6600 C   0  0  0  0  0  0  0  0  0  0  0  0
   60.3866   28.5834   45.5603 H   0  0  0  0  0  0  0  0  0  0  0  0
   59.3240   26.8030   46.1890 C   0  0  0  0  0  0  0  0  0  0  0  0
   60.2384   26.2757   46.4984 H   0  0  0  0  0  0  0  0  0  0  0  0
   58.0800   26.1830   46.3240 C   0  0  0  0  0  0  0  0  0  0  0  0
   56.9170   26.8450   45.9060 C   0  0  0  0  0  0  0  0  0  0  0  0
   56.9930   28.1410   45.3920 C   0  0  0  0  0  0  0  0  0  0  0  0
   56.0743   28.6677   45.0942 H   0  0  0  0  0  0  0  0  0  0  0  0
   55.6870   26.1880   46.0110 O   0  0  0  0  0  0  0  0  0  0  0  0
   55.6200   24.7820   46.2650 C   0  0  0  0  0  0  0  0  0  0  0  0
   54.6304   24.5340   46.6762 H   0  0  0  0  0  0  0  0  0  0  0  0
   55.7821   24.2392   45.3221 H   0  0  0  0  0  0  0  0  0  0  0  0
   56.7040   24.3720   47.2710 C   0  0  0  0  0  0  0  0  0  0  0  0
   56.4420   24.7609   48.2661 H   0  0  0  0  0  0  0  0  0  0  0  0
   56.7684   23.2743   47.3017 H   0  0  0  0  0  0  0  0  0  0  0  0
   57.9720   24.9030   46.8750 O   0  0  0  0  0  0  0  0  0  0  0  0
   59.1240   32.7080   46.2770 N   0  0  0  0  0  0  0  0  0  0  0  0
   59.2160   31.8220   46.8190 H   0  0  0  0  0  0  0  0  0  0  0  0
   60.0320   33.7260   46.3390 C   0  0  0  0  0  0  0  0  0  0  0  0
   61.2810   33.6300   47.1300 C   0  0  0  0  0  0  0  0  0  0  0  0
   61.2350   33.6260   48.5330 C   0  0  0  0  0  0  0  0  0  0  0  0
   60.2639   33.6856   49.0462 H   0  0  0  0  0  0  0  0  0  0  0  0
   62.4120   33.5470   49.2850 C   0  0  0  0  0  0  0  0  0  0  0  0
   62.3611   33.5466   50.3838 H   0  0  0  0  0  0  0  0  0  0  0  0
   63.6610   33.4680   48.6410 C   0  0  0  0  0  0  0  0  0  0  0  0
   64.8690   33.3910   49.3490 O   0  0  0  0  0  0  0  0  0  0  0  0
   65.1720   32.3890   50.3150 C   0  0  0  0  0  0  0  0  0  0  0  0
   65.0464   32.8043   51.3258 H   0  0  0  0  0  0  0  0  0  0  0  0
   64.4921   31.5345   50.1826 H   0  0  0  0  0  0  0  0  0  0  0  0
   66.2115   32.0544   50.1826 H   0  0  0  0  0  0  0  0  0  0  0  0
   63.7070   33.4650   47.2420 C   0  0  0  0  0  0  0  0  0  0  0  0
   64.6778   33.3999   46.7289 H   0  0  0  0  0  0  0  0  0  0  0  0
   62.5310   33.5440   46.4910 C   0  0  0  0  0  0  0  0  0  0  0  0
   62.5834   33.5389   45.3923 H   0  0  0  0  0  0  0  0  0  0  0  0
  1  2  1  0
  2  3  1  0
  3  4  1  0
  4  5  2  0
  5  6  1  0
  6  7  2  0
  6  8  1  0
  8  9  1  0
  8 10  1  0
  8 11  1  0
 11 12  2  0
 12 13  1  0
 12 14  1  0
 14 15  1  0
 14 16  2  0
 16 17  1  0
 17 18  2  0
 18 19  1  0
 17 20  1  0
 20 21  1  0
 21 22  1  0
 21 23  1  0
 21 24  1  0
 24 25  1  0
 24 26  1  0
 24 27  1  0
  4 28  1  0
 28 29  1  0
 28 30  1  0
 30 31  1  0
 31 32  2  0
 32 33  1  0
 32 34  1  0
 34 35  1  0
 34 36  2  0
 36 37  1  0
 37 38  1  0
 38 39  1  0
 38 40  1  0
 38 41  1  0
 36 42  1  0
 42 43  1  0
 42 44  2  0
 44 45  1  0
 30  2  2  0
 44 31  1  0
 18 11  1  0
 27 16  1  0
M  END
>  <UniqueID>  (14) 
12

>  <SMILES>  (14) 
COc1ccc(-c2cs/c(=N/C(=O)Cc3ccc4c(c3)OCCO4)[nH]2)cc1

>  <Energy>  (14) 
88.39833857546853

>  <Genealogy>  (14) 
COc1ccc(-c2cs/c(=N/C(=O)Cc3ccc4c(c3)OCCO4)[nH]2)cc1 (cis-trans isomerization)
COc1ccc(-c2cs/c(=N/C(=O)Cc3ccc4c(c3)OCCO4)[nH]2)cc1 (3D coordinates assigned)
COc1ccc(-c2cs/c(=N/C(=O)Cc3ccc4c(c3)OCCO4)[nH]2)cc1 (nonaromatic ring conformer: 88.39833857546853 kcal/mol)

>  <smiles>  (14) 
COc1ccc(-c2csc(=NC(=O)Cc3ccc4c(c3)OCCO4)[nH]2)cc1

>  <score_type>  (14) 
oracle

>  <origin>  (14) 
adg

>  <m_score__min__energy>  (14) 
-8.8499999999999996

>  <m_primary>  (14) 
energy

$$$$
14:0
     RDKit          3D

 55 59  0  0  0  0  0  0  0  0999 V2000
   59.8590   33.3290   50.6550 C   0  0  0  0  0  0  0  0  0  0  0  0
   60.7030   34.2170   49.9300 O   0  0  0  0  0  0  0  0  0  0  0  0
   61.7200   33.8110   49.0530 C   0  0  0  0  0  0  0  0  0  0  0  0
   63.0070   33.4630   49.5110 C   0  0  0  0  0  0  0  0  0  0  0  0
   64.0000   33.0830   48.6040 C   0  0  0  0  0  0  0  0  0  0  0  0
   63.7230   33.0480   47.2350 C   0  0  0  0  0  0  0  0  0  0  0  0
   62.4520   33.3890   46.7710 C   0  0  0  0  0  0  0  0  0  0  0  0
   61.4450   33.7630   47.6730 C   0  0  0  0  0  0  0  0  0  0  0  0
   60.1510   34.1340   47.1790 N   0  0  0  0  0  0  0  0  0  0  0  0
   59.0260   33.2150   47.3660 C   0  0  0  0  0  0  0  0  0  0  0  0
   57.7330   33.7750   46.7490 C   0  0  0  0  0  0  0  0  0  0  0  0
   57.9280   34.3330   45.3880 N   0  0  0  0  0  0  0  0  0  0  0  0
   57.5060   33.4430   44.2830 C   0  0  0  0  0  0  0  0  0  0  0  0
   57.6810   31.9790   44.6000 C   0  0  0  0  0  0  0  0  0  0  0  0
   56.6110   31.0750   44.4650 C   0  0  0  0  0  0  0  0  0  0  0  0
   56.8300   29.7160   44.7160 C   0  0  0  0  0  0  0  0  0  0  0  0
   55.8850   28.8990   44.5570 O   0  0  0  0  0  0  0  0  0  0  0  0
   58.0740   29.3020   45.1110 N   0  0  0  0  0  0  0  0  0  0  0  0
   58.5050   28.0260   45.3730 C   0  0  0  0  0  0  0  0  0  0  0  0
   57.6460   26.8280   45.3370 C   0  0  0  0  0  0  0  0  0  0  0  0
   56.7600   26.5580   46.3920 C   0  0  0  0  0  0  0  0  0  0  0  0
   55.9600   25.4110   46.3620 C   0  0  0  0  0  0  0  0  0  0  0  0
   56.0490   24.5250   45.2850 C   0  0  0  0  0  0  0  0  0  0  0  0
   56.9410   24.7800   44.2390 C   0  0  0  0  0  0  0  0  0  0  0  0
   57.7420   25.9260   44.2660 C   0  0  0  0  0  0  0  0  0  0  0  0
   59.8610   27.9360   45.6950 C   0  0  0  0  0  0  0  0  0  0  0  0
   60.5310   29.4850   45.6740 S   0  0  0  0  0  0  0  0  0  0  0  0
   59.0770   30.2010   45.2460 C   0  0  0  0  0  0  0  0  0  0  0  0
   58.8990   31.5210   45.0010 N   0  0  0  0  0  0  0  0  0  0  0  0
   59.2030   35.0470   45.1330 C   0  0  0  0  0  0  0  0  0  0  0  0
   59.9690   35.3680   46.4170 C   0  0  0  0  0  0  0  0  0  0  0  0
   60.0055   33.4831   51.7343 H   0  0  0  0  0  0  0  0  0  0  0  0
   58.8087   33.5276   50.3955 H   0  0  0  0  0  0  0  0  0  0  0  0
   60.1107   32.2901   50.3955 H   0  0  0  0  0  0  0  0  0  0  0  0
   63.2308   33.4907   50.5876 H   0  0  0  0  0  0  0  0  0  0  0  0
   65.0015   32.8110   48.9686 H   0  0  0  0  0  0  0  0  0  0  0  0
   64.5071   32.7515   46.5228 H   0  0  0  0  0  0  0  0  0  0  0  0
   62.2386   33.3644   45.6922 H   0  0  0  0  0  0  0  0  0  0  0  0
   59.2649   32.2549   46.8853 H   0  0  0  0  0  0  0  0  0  0  0  0
   58.8642   33.0823   48.4459 H   0  0  0  0  0  0  0  0  0  0  0  0
   56.9932   32.9630   46.6911 H   0  0  0  0  0  0  0  0  0  0  0  0
   57.3934   34.5987   47.3941 H   0  0  0  0  0  0  0  0  0  0  0  0
   56.4432   33.6300   44.0698 H   0  0  0  0  0  0  0  0  0  0  0  0
   58.1467   33.6692   43.4180 H   0  0  0  0  0  0  0  0  0  0  0  0
   55.6146   31.4324   44.1658 H   0  0  0  0  0  0  0  0  0  0  0  0
   56.6947   27.2502   47.2444 H   0  0  0  0  0  0  0  0  0  0  0  0
   55.2608   25.2064   47.1862 H   0  0  0  0  0  0  0  0  0  0  0  0
   55.4163   23.6255   45.2601 H   0  0  0  0  0  0  0  0  0  0  0  0
   57.0128   24.0789   43.3944 H   0  0  0  0  0  0  0  0  0  0  0  0
   58.4489   26.1209   43.4460 H   0  0  0  0  0  0  0  0  0  0  0  0
   60.4037   27.0072   45.9248 H   0  0  0  0  0  0  0  0  0  0  0  0
   59.8376   34.4158   44.4936 H   0  0  0  0  0  0  0  0  0  0  0  0
   58.9563   36.0023   44.6467 H   0  0  0  0  0  0  0  0  0  0  0  0
   60.9510   35.7947   46.1646 H   0  0  0  0  0  0  0  0  0  0  0  0
   59.4040   36.0971   47.0164 H   0  0  0  0  0  0  0  0  0  0  0  0
  1  2  1  0
  2  3  1  0
  3  4  2  0
  4  5  1  0
  5  6  2  0
  6  7  1  0
  7  8  2  0
  8  9  1  0
  9 10  1  0
 10 11  1  0
 11 12  1  0
 12 13  1  0
 13 14  1  0
 14 15  2  0
 15 16  1  0
 16 17  2  0
 16 18  1  0
 18 19  1  0
 19 20  1  0
 20 21  2  0
 21 22  1  0
 22 23  2  0
 23 24  1  0
 24 25  2  0
 19 26  2  0
 26 27  1  0
 27 28  1  0
 28 29  2  0
 12 30  1  0
 30 31  1  0
  8  3  1  0
 31  9  1  0
 29 14  1  0
 28 18  1  0
 25 20  1  0
  1 32  1  0
  1 33  1  0
  1 34  1  0
  4 35  1  0
  5 36  1  0
  6 37  1  0
  7 38  1  0
 10 39  1  0
 10 40  1  0
 11 41  1  0
 11 42  1  0
 13 43  1  0
 13 44  1  0
 15 45  1  0
 21 46  1  0
 22 47  1  0
 23 48  1  0
 24 49  1  0
 25 50  1  0
 26 51  1  0
 30 52  1  0
 30 53  1  0
 31 54  1  0
 31 55  1  0
M  END
>  <UniqueID>  (15) 
13

>  <SMILES>  (15) 
COc1ccccc1N1CCN(Cc2cc(=O)n3c(-c4ccccc4)csc3n2)CC1

>  <Energy>  (15) 
115.98288060932394

>  <Genealogy>  (15) 
COc1ccccc1N1CCN(Cc2cc(=O)n3c(-c4ccccc4)csc3n2)CC1 (3D coordinates assigned)
COc1ccccc1N1CCN(Cc2cc(=O)n3c(-c4ccccc4)csc3n2)CC1 (nonaromatic ring conformer: 115.98288060932394 kcal/mol)

>  <smiles>  (15) 
COc1ccccc1N1CCN(Cc2cc(=O)n3c(-c4ccccc4)csc3n2)CC1

>  <score_type>  (15) 
oracle

>  <origin>  (15) 
adg

>  <m_score__min__energy>  (15) 
-9.4199999999999999

>  <m_primary>  (15) 
energy

$$$$
15:0
     RDKit          3D

 39 42  0  0  0  0  0  0  0  0999 V2000
   56.1060   22.4890   47.8210 C   0  0  0  0  0  0  0  0  0  0  0  0
   57.3430   22.7980   47.1870 O   0  0  0  0  0  0  0  0  0  0  0  0
   57.5340   23.8710   46.3030 C   0  0  0  0  0  0  0  0  0  0  0  0
   58.1490   25.0780   46.7160 C   0  0  0  0  0  0  0  0  0  0  0  0
   58.3160   26.1010   45.7850 C   0  0  0  0  0  0  0  0  0  0  0  0
   57.8910   25.9430   44.4820 C   0  0  0  0  0  0  0  0  0  0  0  0
   57.2630   24.7820   44.0440 C   0  0  0  0  0  0  0  0  0  0  0  0
   57.0890   23.7240   44.9660 C   0  0  0  0  0  0  0  0  0  0  0  0
   56.4780   22.5160   44.5990 O   0  0  0  0  0  0  0  0  0  0  0  0
   57.1030   21.5000   43.8210 C   0  0  0  0  0  0  0  0  0  0  0  0
   58.1620   27.1770   43.7830 C   0  0  0  0  0  0  0  0  0  0  0  0
   57.3900   27.8130   42.8890 N   0  0  0  0  0  0  0  0  0  0  0  0
   57.4440   29.1130   43.1440 N   0  0  0  0  0  0  0  0  0  0  0  0
   58.2380   29.3010   44.2260 C   0  0  0  0  0  0  0  0  0  0  0  0
   58.3950   30.6020   44.9170 C   0  0  0  0  0  0  0  0  0  0  0  0
   59.2740   30.7190   46.0080 C   0  0  0  0  0  0  0  0  0  0  0  0
   59.4250   31.9430   46.6700 C   0  0  0  0  0  0  0  0  0  0  0  0
   58.6930   33.0610   46.2540 C   0  0  0  0  0  0  0  0  0  0  0  0
   58.8490   34.3190   46.9360 C   0  0  0  0  0  0  0  0  0  0  0  0
   58.9750   35.3300   47.4840 N   0  0  0  0  0  0  0  0  0  0  0  0
   57.8070   32.9510   45.1760 C   0  0  0  0  0  0  0  0  0  0  0  0
   57.6560   31.7290   44.5140 C   0  0  0  0  0  0  0  0  0  0  0  0
   58.7120   28.0660   44.6470 C   0  0  0  0  0  0  0  0  0  0  0  0
   58.8720   27.4830   46.0230 C   0  0  0  0  0  0  0  0  0  0  0  0
   56.2355   22.5213   48.9129 H   0  0  0  0  0  0  0  0  0  0  0  0
   55.3458   23.2248   47.5199 H   0  0  0  0  0  0  0  0  0  0  0  0
   55.7811   21.4821   47.5199 H   0  0  0  0  0  0  0  0  0  0  0  0
   58.4891   25.2057   47.7543 H   0  0  0  0  0  0  0  0  0  0  0  0
   56.9104   24.6890   43.0062 H   0  0  0  0  0  0  0  0  0  0  0  0
   57.5608   20.7559   44.4894 H   0  0  0  0  0  0  0  0  0  0  0  0
   56.3505   21.0091   43.1864 H   0  0  0  0  0  0  0  0  0  0  0  0
   57.8805   21.9503   43.1864 H   0  0  0  0  0  0  0  0  0  0  0  0
   56.7280   27.3730   42.2120 H   0  0  0  0  0  0  0  0  0  0  0  0
   59.8472   29.8423   46.3438 H   0  0  0  0  0  0  0  0  0  0  0  0
   60.1201   32.0263   47.5185 H   0  0  0  0  0  0  0  0  0  0  0  0
   57.2285   33.8276   44.8491 H   0  0  0  0  0  0  0  0  0  0  0  0
   56.9537   31.6481   43.6712 H   0  0  0  0  0  0  0  0  0  0  0  0
   59.9268   27.4513   46.3333 H   0  0  0  0  0  0  0  0  0  0  0  0
   58.3800   28.0494   46.8274 H   0  0  0  0  0  0  0  0  0  0  0  0
  1  2  1  0
  2  3  1  0
  3  4  2  0
  4  5  1  0
  5  6  2  0
  6  7  1  0
  7  8  2  0
  8  9  1  0
  9 10  1  0
  6 11  1  0
 11 12  1  0
 12 13  1  0
 13 14  2  0
 14 15  1  0
 15 16  2  0
 16 17  1  0
 17 18  2  0
 18 19  1  0
 19 20  3  0
 18 21  1  0
 21 22  2  0
 14 23  1  0
 23 24  1  0
  8  3  1  0
 23 11  2  0
 24  5  1  0
 22 15  1  0
  1 25  1  0
  1 26  1  0
  1 27  1  0
  4 28  1  0
  7 29  1  0
 10 30  1  0
 10 31  1  0
 10 32  1  0
 12 33  1  0
 16 34  1  0
 17 35  1  0
 21 36  1  0
 22 37  1  0
 24 38  1  0
 24 39  1  0
M  END
>  <UniqueID>  (16) 
14

>  <SMILES>  (16) 
COc1cc2c(cc1OC)-c1[nH]nc(-c3ccc(C#N)cc3)c1C2

>  <Energy>  (16) 
113.43940399362998

>  <Genealogy>  (16) 
COc1cc2c(cc1OC)-c1[nH]nc(-c3ccc(C#N)cc3)c1C2 (3D coordinates assigned)
COc1cc2c(cc1OC)-c1[nH]nc(-c3ccc(C#N)cc3)c1C2 (nonaromatic ring conformer: 113.43940399362998 kcal/mol)

>  <smiles>  (16) 
COc1cc2c(cc1OC)-c1[nH]nc(-c3ccc(C#N)cc3)c1C2

>  <score_type>  (16) 
oracle

>  <origin>  (16) 
adg

>  <m_score__min__energy>  (16) 
-7.0499999999999998

>  <m_primary>  (16) 
energy

$$$$
16:0
     RDKit          3D

 46 47  0  0  0  0  0  0  0  0999 V2000
   63.2480   33.8260   46.3410 C   0  0  0  0  0  0  0  0  0  0  0  0
   63.2770   33.5820   47.8230 C   0  0  0  0  0  0  0  0  0  0  0  0
   64.4470   33.1040   48.4370 C   0  0  0  0  0  0  0  0  0  0  0  0
   64.4800   32.8760   49.8150 C   0  0  0  0  0  0  0  0  0  0  0  0
   65.9460   32.2790   50.5700 Cl  0  0  0  0  0  0  0  0  0  0  0  0
   63.3460   33.1240   50.5900 C   0  0  0  0  0  0  0  0  0  0  0  0
   62.1770   33.6000   49.9920 C   0  0  0  0  0  0  0  0  0  0  0  0
   62.1300   33.8340   48.6040 C   0  0  0  0  0  0  0  0  0  0  0  0
   60.9720   34.3130   47.9700 O   0  0  0  0  0  0  0  0  0  0  0  0
   59.7050   34.4660   48.6060 C   0  0  0  0  0  0  0  0  0  0  0  0
   58.6480   33.6770   47.8210 C   0  0  0  0  0  0  0  0  0  0  0  0
   59.2330   32.9100   46.6920 N   0  0  2  0  0  0  0  0  0  0  0  0
   58.7300   33.4250   45.3890 C   0  0  0  0  0  0  0  0  0  0  0  0
   57.4600   32.7020   44.9120 C   0  0  0  0  0  0  0  0  0  0  0  0
   57.6600   31.1620   44.7490 C   0  0  1  0  0  0  0  0  0  0  0  0
   57.6840   30.7850   43.3020 N   0  0  0  0  0  0  0  0  0  0  0  0
   57.7770   31.9930   42.4530 C   0  0  0  0  0  0  0  0  0  0  0  0
   56.4830   30.0330   42.8800 C   0  0  0  0  0  0  0  0  0  0  0  0
   58.9250   30.7050   45.5260 C   0  0  0  0  0  0  0  0  0  0  0  0
   59.0250   31.4450   46.8660 C   0  0  0  0  0  0  0  0  0  0  0  0
   63.1202   34.9015   46.1489 H   0  0  0  0  0  0  0  0  0  0  0  0
   64.1932   33.4836   45.8945 H   0  0  0  0  0  0  0  0  0  0  0  0
   62.4094   33.2716   45.8945 H   0  0  0  0  0  0  0  0  0  0  0  0
   65.3425   32.9081   47.8290 H   0  0  0  0  0  0  0  0  0  0  0  0
   63.3730   32.9441   51.6748 H   0  0  0  0  0  0  0  0  0  0  0  0
   61.2872   33.7934   50.6092 H   0  0  0  0  0  0  0  0  0  0  0  0
   59.7613   34.0823   49.6354 H   0  0  0  0  0  0  0  0  0  0  0  0
   59.4295   35.5307   48.6298 H   0  0  0  0  0  0  0  0  0  0  0  0
   58.1522   32.9735   48.5060 H   0  0  0  0  0  0  0  0  0  0  0  0
   57.9354   34.4011   47.3993 H   0  0  0  0  0  0  0  0  0  0  0  0
   60.2680   33.0870   46.6990 H   0  0  0  0  0  0  0  0  0  0  0  0
   58.5045   34.4961   45.4980 H   0  0  0  0  0  0  0  0  0  0  0  0
   59.5138   33.2470   44.6381 H   0  0  0  0  0  0  0  0  0  0  0  0
   56.6605   32.8759   45.6472 H   0  0  0  0  0  0  0  0  0  0  0  0
   57.2026   33.1071   43.9223 H   0  0  0  0  0  0  0  0  0  0  0  0
   56.8061   30.6271   45.1903 H   0  0  0  0  0  0  0  0  0  0  0  0
   57.8457   32.8858   43.0919 H   0  0  0  0  0  0  0  0  0  0  0  0
   58.6727   31.9268   41.8179 H   0  0  0  0  0  0  0  0  0  0  0  0
   56.8817   32.0646   41.8179 H   0  0  0  0  0  0  0  0  0  0  0  0
   55.9343   29.6894   43.7693 H   0  0  0  0  0  0  0  0  0  0  0  0
   55.8340   30.6863   42.2784 H   0  0  0  0  0  0  0  0  0  0  0  0
   56.7872   29.1638   42.2784 H   0  0  0  0  0  0  0  0  0  0  0  0
   58.8643   29.6227   45.7131 H   0  0  0  0  0  0  0  0  0  0  0  0
   59.8164   30.9347   44.9238 H   0  0  0  0  0  0  0  0  0  0  0  0
   58.0932   31.2849   47.4283 H   0  0  0  0  0  0  0  0  0  0  0  0
   59.8957   31.0446   47.4059 H   0  0  0  0  0  0  0  0  0  0  0  0
  1  2  1  0
  2  3  2  0
  3  4  1  0
  4  5  1  0
  4  6  2  0
  6  7  1  0
  7  8  2  0
  8  9  1  0
  9 10  1  0
 10 11  1  0
 11 12  1  0
 12 13  1  0
 13 14  1  0
 14 15  1  0
 15 16  1  0
 16 17  1  0
 16 18  1  0
 15 19  1  0
 19 20  1  0
  8  2  1  0
 20 12  1  0
  1 21  1  0
  1 22  1  0
  1 23  1  0
  3 24  1  0
  6 25  1  0
  7 26  1  0
 10 27  1  0
 10 28  1  0
 11 29  1  0
 11 30  1  0
 12 31  1  6
 13 32  1  0
 13 33  1  0
 14 34  1  0
 14 35  1  0
 15 36  1  1
 17 37  1  0
 17 38  1  0
 17 39  1  0
 18 40  1  0
 18 41  1  0
 18 42  1  0
 19 43  1  0
 19 44  1  0
 20 45  1  0
 20 46  1  0
M  CHG  1  12   1
M  END
>  <UniqueID>  (17) 
15

>  <SMILES>  (17) 
Cc1cc(Cl)ccc1OCC[NH+]1CCC(N(C)C)CC1

>  <Energy>  (17) 
58.97467864339548

>  <Genealogy>  (17) 
Cc1cc(Cl)ccc1OCC[NH+]1CCC(N(C)C)CC1 (protonated)
Cc1cc(Cl)ccc1OCC[NH+]1CCC(N(C)C)CC1 (3D coordinates assigned)
Cc1cc(Cl)ccc1OCC[NH+]1CCC(N(C)C)CC1 (nonaromatic ring conformer: 58.97467864339548 kcal/mol)

>  <smiles>  (17) 
Cc1cc(Cl)ccc1OCCN1CCC(N(C)C)CC1

>  <score_type>  (17) 
oracle

>  <origin>  (17) 
adg

>  <m_score__min__energy>  (17) 
-5.1799999999999997

>  <m_primary>  (17) 
energy

$$$$
17:0
     RDKit          3D

 66 70  0  0  0  0  0  0  0  0999 V2000
   67.9220   33.6980   50.7880 C   0  0  0  0  0  0  0  0  0  0  0  0
   66.7230   33.0430   50.1030 C   0  0  0  0  0  0  0  0  0  0  0  0
   66.0050   32.0400   51.0140 C   0  0  0  0  0  0  0  0  0  0  0  0
   64.6710   31.6420   50.4600 C   0  0  0  0  0  0  0  0  0  0  0  0
   64.2110   32.0280   49.2610 N   0  0  0  0  0  0  0  0  0  0  0  0
   63.0290   31.4460   49.0950 N   0  0  0  0  0  0  0  0  0  0  0  0
   62.3160   31.6540   47.9640 C   0  0  0  0  0  0  0  0  0  0  0  0
   62.7220   32.5350   47.1540 O   0  0  0  0  0  0  0  0  0  0  0  0
   61.2060   30.9000   47.6050 C   0  0  0  0  0  0  0  0  0  0  0  0
   60.5820   31.0310   46.3740 C   0  0  0  0  0  0  0  0  0  0  0  0
   59.5590   30.1150   46.3590 C   0  0  0  0  0  0  0  0  0  0  0  0
   59.5640   29.3860   47.4890 N   0  0  0  0  0  0  0  0  0  0  0  0
   60.5410   29.8930   48.3020 C   0  0  0  0  0  0  0  0  0  0  0  0
   60.6820   29.5430   49.6640 C   0  0  0  0  0  0  0  0  0  0  0  0
   59.8690   28.6900   50.1180 O   0  0  0  0  0  0  0  0  0  0  0  0
   61.5970   30.0790   50.5410 N   0  0  0  0  0  0  0  0  0  0  0  0
   61.3850   29.7930   51.9780 C   0  0  0  0  0  0  0  0  0  0  0  0
   62.7700   30.7190   50.2130 C   0  0  0  0  0  0  0  0  0  0  0  0
   63.8080   30.8260   51.0810 N   0  0  0  0  0  0  0  0  0  0  0  0
   58.5810   28.3220   47.7470 C   0  0  0  0  0  0  0  0  0  0  0  0
   57.9340   27.8440   46.4410 C   0  0  0  0  0  0  0  0  0  0  0  0
   57.4360   29.0340   45.6130 C   0  0  0  0  0  0  0  0  0  0  0  0
   58.5150   30.0010   45.3690 N   0  0  0  0  0  0  0  0  0  0  0  0
   58.3100   31.0350   44.3400 C   0  0  0  0  0  0  0  0  0  0  0  0
   57.4770   32.2150   44.8730 C   0  0  0  0  0  0  0  0  0  0  0  0
   58.2260   33.0140   45.9070 C   0  0  0  0  0  0  0  0  0  0  0  0
   59.1590   33.9800   45.5060 C   0  0  0  0  0  0  0  0  0  0  0  0
   59.9510   34.6330   46.4530 C   0  0  0  0  0  0  0  0  0  0  0  0
   59.8250   34.3270   47.8210 C   0  0  0  0  0  0  0  0  0  0  0  0
   60.6290   34.9340   48.7980 O   0  0  0  0  0  0  0  0  0  0  0  0
   61.5200   34.2300   49.6570 C   0  0  0  0  0  0  0  0  0  0  0  0
   58.8810   33.3720   48.2340 C   0  0  0  0  0  0  0  0  0  0  0  0
   58.7900   33.0780   49.6030 O   0  0  0  0  0  0  0  0  0  0  0  0
   58.1930   31.9010   50.1380 C   0  0  0  0  0  0  0  0  0  0  0  0
   58.0760   32.7290   47.2740 C   0  0  0  0  0  0  0  0  0  0  0  0
   67.8017   33.6323   51.8794 H   0  0  0  0  0  0  0  0  0  0  0  0
   68.8442   33.1784   50.4888 H   0  0  0  0  0  0  0  0  0  0  0  0
   67.9830   34.7548   50.4888 H   0  0  0  0  0  0  0  0  0  0  0  0
   66.0102   33.8285   49.8115 H   0  0  0  0  0  0  0  0  0  0  0  0
   67.0968   32.4925   49.2271 H   0  0  0  0  0  0  0  0  0  0  0  0
   66.6305   31.1410   51.1168 H   0  0  0  0  0  0  0  0  0  0  0  0
   65.8407   32.5207   51.9897 H   0  0  0  0  0  0  0  0  0  0  0  0
   60.8526   31.7300   45.5689 H   0  0  0  0  0  0  0  0  0  0  0  0
   61.9320   30.5309   52.5833 H   0  0  0  0  0  0  0  0  0  0  0  0
   60.3112   29.8527   52.2092 H   0  0  0  0  0  0  0  0  0  0  0  0
   61.7543   28.7830   52.2092 H   0  0  0  0  0  0  0  0  0  0  0  0
   63.9410   30.3750   52.0130 H   0  0  0  0  0  0  0  0  0  0  0  0
   59.0878   27.4731   48.2293 H   0  0  0  0  0  0  0  0  0  0  0  0
   57.7937   28.7231   48.4022 H   0  0  0  0  0  0  0  0  0  0  0  0
   58.6766   27.2825   45.8551 H   0  0  0  0  0  0  0  0  0  0  0  0
   57.0755   27.2018   46.6872 H   0  0  0  0  0  0  0  0  0  0  0  0
   57.0588   28.6663   44.6474 H   0  0  0  0  0  0  0  0  0  0  0  0
   56.6366   29.5390   46.1752 H   0  0  0  0  0  0  0  0  0  0  0  0
   59.2906   31.4107   44.0124 H   0  0  0  0  0  0  0  0  0  0  0  0
   57.7611   30.5797   43.5025 H   0  0  0  0  0  0  0  0  0  0  0  0
   57.2190   32.8757   44.0323 H   0  0  0  0  0  0  0  0  0  0  0  0
   56.5741   31.8053   45.3493 H   0  0  0  0  0  0  0  0  0  0  0  0
   59.2681   34.2252   44.4392 H   0  0  0  0  0  0  0  0  0  0  0  0
   60.6781   35.3915   46.1276 H   0  0  0  0  0  0  0  0  0  0  0  0
   61.2585   34.4366   50.7053 H   0  0  0  0  0  0  0  0  0  0  0  0
   61.4381   33.1500   49.4647 H   0  0  0  0  0  0  0  0  0  0  0  0
   62.5517   34.5595   49.4647 H   0  0  0  0  0  0  0  0  0  0  0  0
   58.2155   31.9454   51.2369 H   0  0  0  0  0  0  0  0  0  0  0  0
   57.1502   31.8305   49.7952 H   0  0  0  0  0  0  0  0  0  0  0  0
   58.7522   31.0179   49.7952 H   0  0  0  0  0  0  0  0  0  0  0  0
   57.3223   31.9963   47.5980 H   0  0  0  0  0  0  0  0  0  0  0  0
  1  2  1  0
  2  3  1  0
  3  4  1  0
  4  5  2  0
  5  6  1  0
  6  7  1  0
  7  8  2  0
  7  9  1  0
  9 10  1  0
 10 11  2  0
 11 12  1  0
 12 13  1  0
 13 14  1  0
 14 15  2  0
 14 16  1  0
 16 17  1  0
 16 18  1  0
 18 19  2  0
 12 20  1  0
 20 21  1  0
 21 22  1  0
 22 23  1  0
 23 24  1  0
 24 25  1  0
 25 26  1  0
 26 27  2  0
 27 28  1  0
 28 29  2  0
 29 30  1  0
 30 31  1  0
 29 32  1  0
 32 33  1  0
 33 34  1  0
 32 35  2  0
 19  4  1  0
 35 26  1  0
 18  6  1  0
 13  9  2  0
 23 11  1  0
  1 36  1  0
  1 37  1  0
  1 38  1  0
  2 39  1  0
  2 40  1  0
  3 41  1  0
  3 42  1  0
 10 43  1  0
 17 44  1  0
 17 45  1  0
 17 46  1  0
 19 47  1  0
 20 48  1  0
 20 49  1  0
 21 50  1  0
 21 51  1  0
 22 52  1  0
 22 53  1  0
 24 54  1  0
 24 55  1  0
 25 56  1  0
 25 57  1  0
 27 58  1  0
 28 59  1  0
 31 60  1  0
 31 61  1  0
 31 62  1  0
 34 63  1  0
 34 64  1  0
 34 65  1  0
 35 66  1  0
M  CHG  1  19   1
M  END
>  <UniqueID>  (18) 
16

>  <SMILES>  (18) 
CCCc1nn2c(=O)c3cc4n(c3c(=O)n(C)c2[nH+]1)CCCN4CCc1ccc(OC)c(OC)c1

>  <Energy>  (18) 
151.88222749627695

>  <Genealogy>  (18) 
CCCc1nn2c(=O)c3cc4n(c3c(=O)n(C)c2[nH+]1)CCCN4CCc1ccc(OC)c(OC)c1 (protonated)
CCCc1nn2c(=O)c3cc4n(c3c(=O)n(C)c2[nH+]1)CCCN4CCc1ccc(OC)c(OC)c1 (3D coordinates assigned)
CCCc1nn2c(=O)c3cc4n(c3c(=O)n(C)c2[nH+]1)CCCN4CCc1ccc(OC)c(OC)c1 (nonaromatic ring conformer: 151.88222749627695 kcal/mol)

>  <smiles>  (18) 
CCCc1nc2n(C)c(=O)c3c(cc4n3CCCN4CCc3ccc(OC)c(OC)c3)c(=O)n2n1

>  <score_type>  (18) 
oracle

>  <origin>  (18) 
adg

>  <m_score__min__energy>  (18) 
-7.79

>  <m_primary>  (18) 
energy

$$$$
18:0
     RDKit          3D

 39 41  0  0  1  0  0  0  0  0999 V2000
   55.8930   30.1460   43.9530 C   0  0  0  0  0  0  0  0  0  0  0  0
   56.0240   29.3260   45.0770 O   0  0  0  0  0  0  0  0  0  0  0  0
   57.1150   28.4840   44.8710 C   0  0  0  0  0  0  0  0  0  0  0  0
   57.7380   28.2940   46.2610 C   0  0  0  0  0  0  0  0  0  0  0  0
   59.1150   28.7820   46.1110 N   0  0  0  0  0  0  0  0  0  0  0  0
   59.3540   30.0310   46.3470 C   0  0  0  0  0  0  0  0  0  0  0  0
   60.5560   30.4480   46.9350 C   0  0  0  0  0  0  0  0  0  0  0  0
   60.8190   31.7790   47.1910 C   0  0  0  0  0  0  0  0  0  0  0  0
   62.0830   32.1780   47.8040 C   0  0  0  0  0  0  0  0  0  0  0  0
   62.9100   33.1410   47.2610 C   0  0  0  0  0  0  0  0  0  0  0  0
   64.1160   33.5090   47.8620 C   0  0  0  0  0  0  0  0  0  0  0  0
   64.5290   32.9150   49.0340 C   0  0  0  0  0  0  0  0  0  0  0  0
   63.7240   31.9620   49.5830 C   0  0  0  0  0  0  0  0  0  0  0  0
   62.5210   31.5950   48.9840 C   0  0  0  0  0  0  0  0  0  0  0  0
   59.8610   32.6580   46.8460 N   0  0  0  0  0  0  0  0  0  0  0  0
   58.6910   32.2930   46.2770 C   0  0  0  0  0  0  0  0  0  0  0  0
   57.6790   33.3210   45.9230 C   0  0  0  0  0  0  0  0  0  0  0  0
   58.2550   34.5670   45.2890 C   0  0  0  0  0  0  0  0  0  0  0  0
   57.3920   33.6500   44.5080 C   0  0  0  0  0  0  0  0  0  0  0  0
   58.4590   30.9810   46.0380 N   0  0  0  0  0  0  0  0  0  0  0  0
   55.7270   31.1848   44.2743 H   0  0  0  0  0  0  0  0  0  0  0  0
   56.8113   30.0910   43.3500 H   0  0  0  0  0  0  0  0  0  0  0  0
   55.0375   29.8076   43.3500 H   0  0  0  0  0  0  0  0  0  0  0  0
   56.7859   27.5184   44.4595 H   0  0  0  0  0  0  0  0  0  0  0  0
   57.8319   28.9052   44.1509 H   0  0  0  0  0  0  0  0  0  0  0  0
   57.1956   28.8833   47.0150 H   0  0  0  0  0  0  0  0  0  0  0  0
   57.6972   27.2485   46.6006 H   0  0  0  0  0  0  0  0  0  0  0  0
   61.3112   29.6934   47.2000 H   0  0  0  0  0  0  0  0  0  0  0  0
   62.6095   33.6344   46.3249 H   0  0  0  0  0  0  0  0  0  0  0  0
   64.7431   34.2821   47.3939 H   0  0  0  0  0  0  0  0  0  0  0  0
   65.4779   33.2005   49.5115 H   0  0  0  0  0  0  0  0  0  0  0  0
   64.0307   31.4722   50.5190 H   0  0  0  0  0  0  0  0  0  0  0  0
   61.9010   30.8211   49.4602 H   0  0  0  0  0  0  0  0  0  0  0  0
   59.9840   33.6800   47.0050 H   0  0  0  0  0  0  0  0  0  0  0  0
   57.0307   33.0566   46.7714 H   0  0  0  0  0  0  0  0  0  0  0  0
   57.8821   35.5591   45.5835 H   0  0  0  0  0  0  0  0  0  0  0  0
   59.2644   34.9863   45.1650 H   0  0  0  0  0  0  0  0  0  0  0  0
   56.3805   33.9684   44.2156 H   0  0  0  0  0  0  0  0  0  0  0  0
   57.5043   33.1125   43.5548 H   0  0  0  0  0  0  0  0  0  0  0  0
  1  2  1  0
  2  3  1  0
  3  4  1  0
  4  5  1  0
  5  6  2  0
  6  7  1  0
  7  8  2  0
  8  9  1  0
  9 10  2  0
 10 11  1  0
 11 12  2  0
 12 13  1  0
 13 14  2  0
  8 15  1  0
 15 16  1  0
 16 17  1  0
 17 18  1  0
 18 19  1  0
 16 20  2  0
 20  6  1  0
 14  9  1  0
 19 17  1  0
  1 21  1  0
  1 22  1  0
  1 23  1  0
  3 24  1  0
  3 25  1  0
  4 26  1  0
  4 27  1  0
  7 28  1  0
 10 29  1  0
 11 30  1  0
 12 31  1  0
 13 32  1  0
 14 33  1  0
 15 34  1  0
 17 35  1  0
 18 36  1  0
 18 37  1  0
 19 38  1  0
 19 39  1  0
M  END
>  <smiles>  (19) 
COCCN=c1cc(-c2ccccc2)[nH]c(C2CC2)n1

>  <score_type>  (19) 
oracle

>  <origin>  (19) 
adg

>  <m_score__min__energy>  (19) 
-6.3899999999999997

>  <m_primary>  (19) 
energy

$$$$
19:0
     RDKit          3D

 38 40  0  0  1  0  0  0  0  0999 V2000
   54.9520   24.8940   45.6190 C   0  0  0  0  0  0  0  0  0  0  0  0
   55.5160   26.0690   46.0010 O   0  0  0  0  0  0  0  0  0  0  0  0
   56.5990   26.0380   46.8480 C   0  0  0  0  0  0  0  0  0  0  0  0
   57.8760   25.7000   46.1550 C   0  0  0  0  0  0  0  0  0  0  0  0
   58.5430   26.7510   45.4940 N   0  0  0  0  0  0  0  0  0  0  0  0
   58.1800   27.9370   45.4240 C   0  0  0  0  0  0  0  0  0  0  0  0
   56.9950   28.2400   44.8590 N   0  0  0  0  0  0  0  0  0  0  0  0
   56.5530   29.5100   44.7520 C   0  0  0  0  0  0  0  0  0  0  0  0
   55.2250   29.7320   44.1080 C   0  0  0  0  0  0  0  0  0  0  0  0
   57.2900   30.5430   45.2110 N   0  0  0  0  0  0  0  0  0  0  0  0
   58.4710   30.2380   45.7740 C   0  0  0  0  0  0  0  0  0  0  0  0
   58.9450   28.9480   45.8970 C   0  0  0  0  0  0  0  0  0  0  0  0
   60.1560   28.9870   46.5100 C   0  0  0  0  0  0  0  0  0  0  0  0
   60.3760   30.3220   46.7400 N   0  0  0  0  0  0  0  0  0  0  0  0
   59.3900   31.0590   46.3100 N   0  0  0  0  0  0  0  0  0  0  0  0
   59.3500   32.4820   46.4180 C   0  0  0  0  0  0  0  0  0  0  0  0
   59.6470   33.0670   47.6300 C   0  0  0  0  0  0  0  0  0  0  0  0
   59.6300   34.4450   47.8060 C   0  0  0  0  0  0  0  0  0  0  0  0
   59.3060   35.2680   46.7470 C   0  0  0  0  0  0  0  0  0  0  0  0
   59.0080   34.6750   45.5300 C   0  0  0  0  0  0  0  0  0  0  0  0
   59.0280   33.3000   45.3580 C   0  0  0  0  0  0  0  0  0  0  0  0
   54.6735   24.3138   46.5111 H   0  0  0  0  0  0  0  0  0  0  0  0
   54.0531   25.0969   45.0183 H   0  0  0  0  0  0  0  0  0  0  0  0
   55.6725   24.3196   45.0183 H   0  0  0  0  0  0  0  0  0  0  0  0
   56.7060   27.0280   47.3154 H   0  0  0  0  0  0  0  0  0  0  0  0
   56.4110   25.2491   47.5911 H   0  0  0  0  0  0  0  0  0  0  0  0
   58.5650   25.2922   46.9093 H   0  0  0  0  0  0  0  0  0  0  0  0
   57.5913   24.9968   45.3585 H   0  0  0  0  0  0  0  0  0  0  0  0
   56.3980   27.4680   44.4920 H   0  0  0  0  0  0  0  0  0  0  0  0
   54.4574   29.8603   44.8854 H   0  0  0  0  0  0  0  0  0  0  0  0
   55.2675   30.6355   43.4820 H   0  0  0  0  0  0  0  0  0  0  0  0
   54.9713   28.8638   43.4820 H   0  0  0  0  0  0  0  0  0  0  0  0
   60.8115   28.1411   46.7644 H   0  0  0  0  0  0  0  0  0  0  0  0
   59.9053   32.4234   48.4838 H   0  0  0  0  0  0  0  0  0  0  0  0
   59.8742   34.8787   48.7869 H   0  0  0  0  0  0  0  0  0  0  0  0
   59.2848   36.3615   46.8649 H   0  0  0  0  0  0  0  0  0  0  0  0
   58.7476   35.3155   44.6745 H   0  0  0  0  0  0  0  0  0  0  0  0
   58.7873   32.8632   44.3775 H   0  0  0  0  0  0  0  0  0  0  0  0
  1  2  1  0
  2  3  1  0
  3  4  1  0
  4  5  1  0
  5  6  2  0
  6  7  1  0
  7  8  1  0
  8  9  1  0
  8 10  2  0
 10 11  1  0
 11 12  2  0
 12 13  1  0
 13 14  2  0
 14 15  1  0
 15 16  1  0
 16 17  2  0
 17 18  1  0
 18 19  2  0
 19 20  1  0
 20 21  2  0
 12  6  1  0
 21 16  1  0
 15 11  1  0
  1 22  1  0
  1 23  1  0
  1 24  1  0
  3 25  1  0
  3 26  1  0
  4 27  1  0
  4 28  1  0
  7 29  1  0
  9 30  1  0
  9 31  1  0
  9 32  1  0
 13 33  1  0
 17 34  1  0
 18 35  1  0
 19 36  1  0
 20 37  1  0
 21 38  1  0
M  END
>  <smiles>  (20) 
COCCN=c1[nH]c(C)nc2c1cnn2-c1ccccc1

>  <score_type>  (20) 
oracle

>  <origin>  (20) 
adg

>  <m_score__min__energy>  (20) 
-7.1299999999999999

>  <m_primary>  (20) 
energy

$$$$
20:0
     RDKit          3D

 46 48  0  0  0  0  0  0  0  0999 V2000
   61.0527   30.1658   50.0234 H   0  0  0  0  0  0  0  0  0  0  0  0
   60.6090   29.4850   49.2820 C   0  0  0  0  0  0  0  0  0  0  0  0
   61.0650   28.2860   48.9870 O   0  0  0  0  0  0  0  0  0  0  0  0
   60.2970   27.7510   48.0660 C   0  0  0  0  0  0  0  0  0  0  0  0
   60.4254   26.7474   47.6343 H   0  0  0  0  0  0  0  0  0  0  0  0
   59.3010   28.6480   47.7240 C   0  0  0  0  0  0  0  0  0  0  0  0
   58.1650   28.3940   46.8100 C   0  0  0  0  0  0  0  0  0  0  0  0
   57.5180   27.1530   46.8930 C   0  0  0  0  0  0  0  0  0  0  0  0
   57.8967   26.3831   47.5813 H   0  0  0  0  0  0  0  0  0  0  0  0
   56.3910   26.8890   46.1030 C   0  0  0  0  0  0  0  0  0  0  0  0
   55.7660   25.7540   46.2310 N   0  0  0  0  0  0  0  0  0  0  0  0
   56.2620   24.4690   45.7350 C   0  0  0  0  0  0  0  0  0  0  0  0
   55.4394   23.7387   45.7307 H   0  0  0  0  0  0  0  0  0  0  0  0
   57.0712   24.1177   46.3921 H   0  0  0  0  0  0  0  0  0  0  0  0
   56.8050   24.6280   44.3130 C   0  0  0  0  0  0  0  0  0  0  0  0
   57.6234   25.3630   44.3175 H   0  0  0  0  0  0  0  0  0  0  0  0
   55.9920   24.9721   43.6567 H   0  0  0  0  0  0  0  0  0  0  0  0
   57.3160   23.3300   43.8070 N   0  0  0  0  0  0  0  0  0  0  0  0
   57.9500   22.5000   44.8580 C   0  0  0  0  0  0  0  0  0  0  0  0
   57.9790   21.4590   44.5037 H   0  0  0  0  0  0  0  0  0  0  0  0
   57.3434   22.6264   45.7669 H   0  0  0  0  0  0  0  0  0  0  0  0
   59.3820   22.9240   45.2230 C   0  0  0  0  0  0  0  0  0  0  0  0
   59.4874   22.9552   46.3175 H   0  0  0  0  0  0  0  0  0  0  0  0
   60.0966   22.1989   44.8063 H   0  0  0  0  0  0  0  0  0  0  0  0
   59.5866   23.9213   44.8063 H   0  0  0  0  0  0  0  0  0  0  0  0
   56.3230   22.5890   42.9980 C   0  0  0  0  0  0  0  0  0  0  0  0
   55.3207   22.7356   43.4269 H   0  0  0  0  0  0  0  0  0  0  0  0
   56.3442   22.9657   41.9647 H   0  0  0  0  0  0  0  0  0  0  0  0
   56.6600   21.1010   42.9970 C   0  0  0  0  0  0  0  0  0  0  0  0
   56.7411   20.7427   44.0339 H   0  0  0  0  0  0  0  0  0  0  0  0
   55.8650   20.5453   42.4782 H   0  0  0  0  0  0  0  0  0  0  0  0
   57.6169   20.9421   42.4782 H   0  0  0  0  0  0  0  0  0  0  0  0
   55.9360   27.8400   45.2450 N   0  0  0  0  0  0  0  0  0  0  0  0
   56.5380   29.0490   45.1150 C   0  0  0  0  0  0  0  0  0  0  0  0
   56.0180   29.9840   44.2150 C   0  0  0  0  0  0  0  0  0  0  0  0
   55.1187   29.7395   43.6306 H   0  0  0  0  0  0  0  0  0  0  0  0
   56.6350   31.2280   44.0540 C   0  0  0  0  0  0  0  0  0  0  0  0
   56.2198   31.9583   43.3439 H   0  0  0  0  0  0  0  0  0  0  0  0
   57.7800   31.5470   44.7940 C   0  0  0  0  0  0  0  0  0  0  0  0
   58.4030   32.8320   44.6270 C   0  0  0  0  0  0  0  0  0  0  0  0
   58.9070   33.8650   44.5010 N   0  0  0  0  0  0  0  0  0  0  0  0
   58.3070   30.6210   45.7050 C   0  0  0  0  0  0  0  0  0  0  0  0
   59.2131   30.8717   46.2760 H   0  0  0  0  0  0  0  0  0  0  0  0
   57.6820   29.3670   45.8950 C   0  0  0  0  0  0  0  0  0  0  0  0
   59.4900   29.7600   48.5210 C   0  0  0  0  0  0  0  0  0  0  0  0
   58.8775   30.6734   48.5446 H   0  0  0  0  0  0  0  0  0  0  0  0
  1  2  1  0
  2  3  1  0
  3  4  1  0
  4  5  1  0
  4  6  2  0
  6  7  1  0
  7  8  2  0
  8  9  1  0
  8 10  1  0
 10 11  2  0
 11 12  1  0
 12 13  1  0
 12 14  1  0
 12 15  1  0
 15 16  1  0
 15 17  1  0
 15 18  1  0
 18 19  1  0
 19 20  1  0
 19 21  1  0
 19 22  1  0
 22 23  1  0
 22 24  1  0
 22 25  1  0
 18 26  1  0
 26 27  1  0
 26 28  1  0
 26 29  1  0
 29 30  1  0
 29 31  1  0
 29 32  1  0
 10 33  1  0
 33 34  1  0
 34 35  2  0
 35 36  1  0
 35 37  1  0
 37 38  1  0
 37 39  2  0
 39 40  1  0
 40 41  3  0
 39 42  1  0
 42 43  1  0
 42 44  2  0
  6 45  1  0
 45 46  1  0
 45  2  2  0
 44  7  1  0
 44 34  1  0
M  CHG  1  33  -1
M  END
>  <UniqueID>  (21) 
17

>  <SMILES>  (21) 
CCN(CC)CC/N=c1/cc(-c2ccoc2)c2cc(C#N)ccc2[n-]1

>  <Energy>  (21) 
84.86237258971339

>  <Genealogy>  (21) 
CCN(CC)CCN=c1cc(-c2ccoc2)c2cc(C#N)ccc2[n-]1 (protonated)
CCN(CC)CC/N=c1/cc(-c2ccoc2)c2cc(C#N)ccc2[n-]1 (cis-trans isomerization)
CCN(CC)CC/N=c1/cc(-c2ccoc2)c2cc(C#N)ccc2[n-]1 (3D coordinates assigned)
CCN(CC)CC/N=c1/cc(-c2ccoc2)c2cc(C#N)ccc2[n-]1 (optimized conformer: 84.86237258971339 kcal/mol)

>  <smiles>  (21) 
CCN(CC)CCN=c1cc(-c2ccoc2)c2cc(C#N)ccc2[nH]1

>  <score_type>  (21) 
oracle

>  <origin>  (21) 
adg

>  <m_score__min__energy>  (21) 
-8.3699999999999992

>  <m_primary>  (21) 
energy

$$$$
21:0
     RDKit          3D

 76 78  0  0  0  0  0  0  0  0999 V2000
   54.9920   26.3370   46.7800 H   0  0  0  0  0  0  0  0  0  0  0  0
   55.3530   26.5050   45.8660 O   0  0  0  0  0  0  0  0  0  0  0  0
   56.6360   27.0650   46.0260 C   0  0  1  0  0  0  0  0  0  0  0  0
   56.8481   27.2050   47.0962 H   0  0  0  0  0  0  0  0  0  0  0  0
   57.6950   26.1290   45.4450 C   0  0  0  0  0  0  0  0  0  0  0  0
   57.5210   26.0034   44.3661 H   0  0  0  0  0  0  0  0  0  0  0  0
   57.6320   25.1504   45.9434 H   0  0  0  0  0  0  0  0  0  0  0  0
   59.0610   26.7170   45.6670 C   0  0  0  0  0  0  0  0  0  0  0  0
   60.0030   25.9680   45.9020 O   0  0  0  0  0  0  0  0  0  0  0  0
   59.2960   28.2050   45.5790 C   0  0  0  0  0  0  0  0  0  0  0  0
   60.1180   28.3876   44.8712 H   0  0  0  0  0  0  0  0  0  0  0  0
   59.5366   28.5578   46.5927 H   0  0  0  0  0  0  0  0  0  0  0  0
   59.2140   31.1800   45.2740 C   0  0  0  0  0  0  0  0  0  0  0  0
   58.2660   30.2330   44.6470 C   0  0  0  0  0  0  0  0  0  0  0  0
   57.6911   30.5633   43.7692 H   0  0  0  0  0  0  0  0  0  0  0  0
   58.0790   28.9760   45.1120 C   0  0  0  0  0  0  0  0  0  0  0  0
   60.2807   30.9114   45.2848 H   0  0  0  0  0  0  0  0  0  0  0  0
   58.8510   32.3520   45.8330 C   0  0  0  0  0  0  0  0  0  0  0  0
   58.6920   33.6160   45.0110 C   0  0  0  0  0  0  0  0  0  0  0  0
   59.0309   33.4191   43.9832 H   0  0  0  0  0  0  0  0  0  0  0  0
   57.6309   33.9055   45.0245 H   0  0  0  0  0  0  0  0  0  0  0  0
   59.5210   34.7820   45.5990 C   0  0  0  0  0  0  0  0  0  0  0  0
   59.9923   35.3342   44.7726 H   0  0  0  0  0  0  0  0  0  0  0  0
   58.8390   35.4270   46.1724 H   0  0  0  0  0  0  0  0  0  0  0  0
   60.6190   34.2870   46.5540 C   0  0  0  0  0  0  0  0  0  0  0  0
   61.2865   33.6061   46.0056 H   0  0  0  0  0  0  0  0  0  0  0  0
   61.1666   35.1650   46.9272 H   0  0  0  0  0  0  0  0  0  0  0  0
   60.0240   33.5280   47.7860 C   0  0  1  0  0  0  0  0  0  0  0  0
   59.4820   34.5970   48.7860 C   0  0  0  0  0  0  0  0  0  0  0  0
   59.6551   34.2555   49.8172 H   0  0  0  0  0  0  0  0  0  0  0  0
   60.0055   35.5506   48.6227 H   0  0  0  0  0  0  0  0  0  0  0  0
   58.4034   34.7383   48.6227 H   0  0  0  0  0  0  0  0  0  0  0  0
   58.8430   32.5930   47.3470 C   0  0  2  0  0  0  0  0  0  0  0  0
   57.8474   33.0368   47.4947 H   0  0  0  0  0  0  0  0  0  0  0  0
   58.9510   31.3590   48.2400 C   0  0  0  0  0  0  0  0  0  0  0  0
   58.5160   30.4819   47.7385 H   0  0  0  0  0  0  0  0  0  0  0  0
   58.4051   31.4899   49.1859 H   0  0  0  0  0  0  0  0  0  0  0  0
   60.4370   31.1560   48.4700 C   0  0  0  0  0  0  0  0  0  0  0  0
   60.8822   30.5939   47.6358 H   0  0  0  0  0  0  0  0  0  0  0  0
   60.6340   30.5788   49.3854 H   0  0  0  0  0  0  0  0  0  0  0  0
   61.0360   32.5710   48.5460 C   0  0  1  0  0  0  0  0  0  0  0  0
   61.1047   32.9360   49.5814 H   0  0  0  0  0  0  0  0  0  0  0  0
   62.5820   32.6700   48.2430 C   0  0  2  0  0  0  0  0  0  0  0  0
   62.6520   33.6851   47.8250 H   0  0  0  0  0  0  0  0  0  0  0  0
   63.1420   31.7700   47.1130 C   0  0  0  0  0  0  0  0  0  0  0  0
   63.6741   30.9148   47.5551 H   0  0  0  0  0  0  0  0  0  0  0  0
   62.3121   31.4036   46.4908 H   0  0  0  0  0  0  0  0  0  0  0  0
   63.8373   32.3526   46.4908 H   0  0  0  0  0  0  0  0  0  0  0  0
   63.4740   32.6030   49.5250 C   0  0  0  0  0  0  0  0  0  0  0  0
   63.1841   31.6950   50.0741 H   0  0  0  0  0  0  0  0  0  0  0  0
   64.5027   32.6298   49.1363 H   0  0  0  0  0  0  0  0  0  0  0  0
   63.4210   33.7810   50.5310 C   0  0  0  0  0  0  0  0  0  0  0  0
   64.4520   33.9896   50.8528 H   0  0  0  0  0  0  0  0  0  0  0  0
   62.9314   34.6014   49.9858 H   0  0  0  0  0  0  0  0  0  0  0  0
   62.5700   33.5780   51.7990 C   0  0  0  0  0  0  0  0  0  0  0  0
   62.8133   32.5962   52.2313 H   0  0  0  0  0  0  0  0  0  0  0  0
   62.8070   34.4004   52.4901 H   0  0  0  0  0  0  0  0  0  0  0  0
   61.0450   33.6310   51.5190 C   0  0  0  0  0  0  0  0  0  0  0  0
   60.6765   34.6217   51.8234 H   0  0  0  0  0  0  0  0  0  0  0  0
   60.9227   33.4306   50.4443 H   0  0  0  0  0  0  0  0  0  0  0  0
   60.2360   32.5970   52.2310 N   0  0  0  0  0  0  0  0  0  0  0  0
   60.7680   31.2320   52.0010 C   0  0  0  0  0  0  0  0  0  0  0  0
   60.9580   30.7446   52.9687 H   0  0  0  0  0  0  0  0  0  0  0  0
   60.0335   30.6433   51.4319 H   0  0  0  0  0  0  0  0  0  0  0  0
   61.7072   31.2956   51.4319 H   0  0  0  0  0  0  0  0  0  0  0  0
   60.1860   32.8650   53.6890 C   0  0  0  0  0  0  0  0  0  0  0  0
   60.3606   31.9291   54.2400 H   0  0  0  0  0  0  0  0  0  0  0  0
   60.9631   33.5970   53.9541 H   0  0  0  0  0  0  0  0  0  0  0  0
   59.1972   33.2676   53.9541 H   0  0  0  0  0  0  0  0  0  0  0  0
   58.8530   32.6600   51.7040 C   0  0  0  0  0  0  0  0  0  0  0  0
   58.1421   32.6924   52.5428 H   0  0  0  0  0  0  0  0  0  0  0  0
   58.7358   33.5644   51.0889 H   0  0  0  0  0  0  0  0  0  0  0  0
   58.6541   31.7700   51.0889 H   0  0  0  0  0  0  0  0  0  0  0  0
   56.6780   28.4240   45.3100 C   0  0  0  0  0  0  0  0  0  0  0  0
   56.2090   28.3087   44.3217 H   0  0  0  0  0  0  0  0  0  0  0  0
   56.1428   29.1385   45.9527 H   0  0  0  0  0  0  0  0  0  0  0  0
  1  2  1  0
  2  3  1  0
  3  4  1  1
  3  5  1  0
  5  6  1  0
  5  7  1  0
  5  8  1  0
  8  9  2  0
  8 10  1  0
 10 11  1  0
 10 12  1  0
 10 13  1  0
 13 14  2  0
 14 15  1  0
 14 16  1  0
 16 17  1  0
 16 18  2  0
 18 19  1  0
 19 20  1  0
 19 21  1  0
 19 22  1  0
 22 23  1  0
 22 24  1  0
 22 25  1  0
 25 26  1  0
 25 27  1  0
 25 28  1  0
 28 29  1  1
 29 30  1  0
 29 31  1  0
 29 32  1  0
 28 33  1  0
 33 34  1  1
 33 35  1  0
 35 36  1  0
 35 37  1  0
 35 38  1  0
 38 39  1  0
 38 40  1  0
 38 41  1  0
 41 42  1  1
 41 43  1  0
 43 44  1  6
 43 45  1  0
 45 46  1  0
 45 47  1  0
 45 48  1  0
 43 49  1  0
 49 50  1  0
 49 51  1  0
 49 52  1  0
 52 53  1  0
 52 54  1  0
 52 55  1  0
 55 56  1  0
 55 57  1  0
 55 58  1  0
 58 59  1  0
 58 60  1  0
 58 61  1  0
 61 62  1  0
 62 63  1  0
 62 64  1  0
 62 65  1  0
 61 66  1  0
 66 67  1  0
 66 68  1  0
 66 69  1  0
 61 70  1  0
 70 71  1  0
 70 72  1  0
 70 73  1  0
 13 74  1  0
 74 75  1  0
 74 76  1  0
 74  3  1  0
 33 18  1  0
 41 28  1  0
M  CHG  1  61   1
M  END
>  <UniqueID>  (22) 
18

>  <SMILES>  (22) 
C[C@H](CCCC[N+](C)(C)C)[C@@H]1CCC2/C(=C/C=C3/CC(=O)CC(O)C3)CCCC21C

>  <Energy>  (22) 
111.56574933883522

>  <Genealogy>  (22) 
C[C@H](CCCC[N+](C)(C)C)[C@@H]1CCC2C(=CC=C3CC(=O)CC(O)C3)CCCC21C (chirality)
C[C@H](CCCC[N+](C)(C)C)[C@@H]1CCC2/C(=C/C=C3/CC(=O)CC(O)C3)CCCC21C (cis-trans isomerization)
C[C@H](CCCC[N+](C)(C)C)[C@@H]1CCC2/C(=C/C=C3/CC(=O)CC(O)C3)CCCC21C (3D coordinates assigned)
C[C@H](CCCC[N+](C)(C)C)[C@@H]1CCC2/C(=C/C=C3/CC(=O)CC(O)C3)CCCC21C (nonaromatic ring conformer: 111.56574933883522 kcal/mol)

>  <smiles>  (22) 
CC(CCCC[N+](C)(C)C)C1CCC2C(=CC=C3CC(=O)CC(O)C3)CCCC21C

>  <score_type>  (22) 
oracle

>  <origin>  (22) 
adg

>  <m_score__min__energy>  (22) 
-9.6600000000000001

>  <m_primary>  (22) 
energy

$$$$
22:0
     RDKit          3D

 31 32  0  0  0  0  0  0  0  0999 V2000
   60.3730   34.5670   48.3390 C   0  0  0  0  0  0  0  0  0  0  0  0
   59.9640   34.8940   46.9070 C   0  0  0  0  0  0  0  0  0  0  0  0
   59.0990   33.8010   46.3360 C   0  0  0  0  0  0  0  0  0  0  0  0
   57.8160   34.1160   45.8200 C   0  0  0  0  0  0  0  0  0  0  0  0
   57.0030   33.1180   45.2570 C   0  0  0  0  0  0  0  0  0  0  0  0
   57.4980   31.8170   45.2110 C   0  0  0  0  0  0  0  0  0  0  0  0
   58.7490   31.5030   45.6980 C   0  0  0  0  0  0  0  0  0  0  0  0
   59.5760   32.4720   46.2650 C   0  0  0  0  0  0  0  0  0  0  0  0
   60.8080   32.1380   46.7280 F   0  0  0  0  0  0  0  0  0  0  0  0
   58.9520   30.0710   45.4980 C   0  0  0  0  0  0  0  0  0  0  0  0
   59.9680   29.4150   45.8510 O   0  0  0  0  0  0  0  0  0  0  0  0
   57.8100   29.4990   44.8580 N   0  0  0  0  0  0  0  0  0  0  0  0
   57.5160   28.0760   44.7200 C   0  0  0  0  0  0  0  0  0  0  0  0
   56.4760   27.6990   45.6190 O   0  0  0  0  0  0  0  0  0  0  0  0
   56.2370   26.3770   46.0050 C   0  0  0  0  0  0  0  0  0  0  0  0
   57.3710   25.5370   46.4870 C   0  0  0  0  0  0  0  0  0  0  0  0
   55.0720   25.8970   45.9860 O   0  0  0  0  0  0  0  0  0  0  0  0
   56.9000   30.5900   44.6990 C   0  0  0  0  0  0  0  0  0  0  0  0
   55.7500   30.4880   44.1950 O   0  0  0  0  0  0  0  0  0  0  0  0
   59.7106   35.0966   49.0395 H   0  0  0  0  0  0  0  0  0  0  0  0
   60.2909   33.4827   48.5053 H   0  0  0  0  0  0  0  0  0  0  0  0
   61.4126   34.8857   48.5053 H   0  0  0  0  0  0  0  0  0  0  0  0
   59.4024   35.8398   46.8992 H   0  0  0  0  0  0  0  0  0  0  0  0
   60.8718   34.9832   46.2922 H   0  0  0  0  0  0  0  0  0  0  0  0
   57.4533   35.1537   45.8611 H   0  0  0  0  0  0  0  0  0  0  0  0
   56.0040   33.3574   44.8637 H   0  0  0  0  0  0  0  0  0  0  0  0
   57.1968   27.8693   43.6878 H   0  0  0  0  0  0  0  0  0  0  0  0
   58.4216   27.4978   44.9558 H   0  0  0  0  0  0  0  0  0  0  0  0
   57.3805   25.5300   47.5869 H   0  0  0  0  0  0  0  0  0  0  0  0
   57.2499   24.5090   46.1148 H   0  0  0  0  0  0  0  0  0  0  0  0
   58.3191   25.9524   46.1148 H   0  0  0  0  0  0  0  0  0  0  0  0
  1  2  1  0
  2  3  1  0
  3  4  2  0
  4  5  1  0
  5  6  2  0
  6  7  1  0
  7  8  2  0
  8  9  1  0
  7 10  1  0
 10 11  2  0
 10 12  1  0
 12 13  1  0
 13 14  1  0
 14 15  1  0
 15 16  1  0
 15 17  2  0
 12 18  1  0
 18 19  2  0
  8  3  1  0
 18  6  1  0
  1 20  1  0
  1 21  1  0
  1 22  1  0
  2 23  1  0
  2 24  1  0
  4 25  1  0
  5 26  1  0
 13 27  1  0
 13 28  1  0
 16 29  1  0
 16 30  1  0
 16 31  1  0
M  END
>  <UniqueID>  (23) 
19

>  <SMILES>  (23) 
CCc1ccc2c(c1F)C(=O)N(COC(C)=O)C2=O

>  <Energy>  (23) 
56.23753756631131

>  <Genealogy>  (23) 
CCc1ccc2c(c1F)C(=O)N(COC(C)=O)C2=O (3D coordinates assigned)
CCc1ccc2c(c1F)C(=O)N(COC(C)=O)C2=O (nonaromatic ring conformer: 56.23753756631131 kcal/mol)

>  <smiles>  (23) 
CCc1ccc2c(c1F)C(=O)N(COC(C)=O)C2=O

>  <score_type>  (23) 
oracle

>  <origin>  (23) 
adg

>  <m_score__min__energy>  (23) 
-6.8799999999999999

>  <m_primary>  (23) 
energy

$$$$
23:0
     RDKit          3D

 39 40  0  0  0  0  0  0  0  0999 V2000
   57.3620   31.5880   42.3660 C   0  0  0  0  0  0  0  0  0  0  0  0
   58.1700   32.6550   43.0910 C   0  0  0  0  0  0  0  0  0  0  0  0
   57.4050   33.1720   44.2350 N   0  0  0  0  0  0  0  0  0  0  0  0
   58.1010   34.2940   44.8880 C   0  0  0  0  0  0  0  0  0  0  0  0
   58.2960   34.0100   46.3810 C   0  0  0  0  0  0  0  0  0  0  0  0
   59.6270   33.4650   46.6490 N   0  0  0  0  0  0  0  0  0  0  0  0
   60.7330   34.1800   46.5120 N   0  0  0  0  0  0  0  0  0  0  0  0
   61.7760   33.3750   46.7850 C   0  0  0  0  0  0  0  0  0  0  0  0
   63.1970   33.8260   46.7910 C   0  0  0  0  0  0  0  0  0  0  0  0
   61.3260   32.1150   47.1280 C   0  0  0  0  0  0  0  0  0  0  0  0
   59.9510   32.2040   47.0200 C   0  0  0  0  0  0  0  0  0  0  0  0
   58.9890   31.0820   47.3140 C   0  0  0  0  0  0  0  0  0  0  0  0
   59.0460   30.0340   46.2800 N   0  0  0  0  0  0  0  0  0  0  0  0
   60.1480   29.2220   46.2130 C   0  0  0  0  0  0  0  0  0  0  0  0
   60.2360   28.2160   45.2480 C   0  0  0  0  0  0  0  0  0  0  0  0
   59.1970   28.0480   44.3380 C   0  0  0  0  0  0  0  0  0  0  0  0
   58.0900   28.8900   44.3910 C   0  0  0  0  0  0  0  0  0  0  0  0
   58.0290   29.8930   45.3650 C   0  0  0  0  0  0  0  0  0  0  0  0
   57.0300   30.6620   45.3860 O   0  0  0  0  0  0  0  0  0  0  0  0
   56.8692   30.9372   43.1033 H   0  0  0  0  0  0  0  0  0  0  0  0
   56.6005   32.0701   41.7354 H   0  0  0  0  0  0  0  0  0  0  0  0
   58.0325   30.9857   41.7354 H   0  0  0  0  0  0  0  0  0  0  0  0
   59.1126   32.2168   43.4509 H   0  0  0  0  0  0  0  0  0  0  0  0
   58.3845   33.4806   42.3964 H   0  0  0  0  0  0  0  0  0  0  0  0
   57.3050   32.3940   44.9290 H   0  0  0  0  0  0  0  0  0  0  0  0
   59.0841   34.4344   44.4150 H   0  0  0  0  0  0  0  0  0  0  0  0
   57.4923   35.2033   44.7758 H   0  0  0  0  0  0  0  0  0  0  0  0
   58.1728   34.9474   46.9432 H   0  0  0  0  0  0  0  0  0  0  0  0
   57.5473   33.2673   46.6939 H   0  0  0  0  0  0  0  0  0  0  0  0
   63.5425   33.9357   47.8296 H   0  0  0  0  0  0  0  0  0  0  0  0
   63.8202   33.0815   46.2739 H   0  0  0  0  0  0  0  0  0  0  0  0
   63.2768   34.7936   46.2739 H   0  0  0  0  0  0  0  0  0  0  0  0
   61.9253   31.2402   47.4204 H   0  0  0  0  0  0  0  0  0  0  0  0
   59.2453   30.6377   48.2871 H   0  0  0  0  0  0  0  0  0  0  0  0
   57.9703   31.4968   47.3277 H   0  0  0  0  0  0  0  0  0  0  0  0
   60.9725   29.3641   46.9272 H   0  0  0  0  0  0  0  0  0  0  0  0
   61.1195   27.5619   45.2078 H   0  0  0  0  0  0  0  0  0  0  0  0
   59.2502   27.2529   43.5797 H   0  0  0  0  0  0  0  0  0  0  0  0
   57.2674   28.7677   43.6711 H   0  0  0  0  0  0  0  0  0  0  0  0
  1  2  1  0
  2  3  1  0
  3  4  1  0
  4  5  1  0
  5  6  1  0
  6  7  1  0
  7  8  2  0
  8  9  1  0
  8 10  1  0
 10 11  2  0
 11 12  1  0
 12 13  1  0
 13 14  1  0
 14 15  2  0
 15 16  1  0
 16 17  2  0
 17 18  1  0
 18 19  2  0
 11  6  1  0
 18 13  1  0
  1 20  1  0
  1 21  1  0
  1 22  1  0
  2 23  1  0
  2 24  1  0
  3 25  1  0
  4 26  1  0
  4 27  1  0
  5 28  1  0
  5 29  1  0
  9 30  1  0
  9 31  1  0
  9 32  1  0
 10 33  1  0
 12 34  1  0
 12 35  1  0
 14 36  1  0
 15 37  1  0
 16 38  1  0
 17 39  1  0
M  END
>  <UniqueID>  (24) 
20

>  <SMILES>  (24) 
CCNCCn1nc(C)cc1Cn1ccccc1=O

>  <Energy>  (24) 
61.53083367086999

>  <Genealogy>  (24) 
CCNCCn1nc(C)cc1Cn1ccccc1=O (3D coordinates assigned)
CCNCCn1nc(C)cc1Cn1ccccc1=O (optimized conformer: 61.53083367086999 kcal/mol)

>  <smiles>  (24) 
CCNCCn1nc(C)cc1Cn1ccccc1=O

>  <score_type>  (24) 
oracle

>  <origin>  (24) 
adg

>  <m_score__min__energy>  (24) 
-6.2699999999999996

>  <m_primary>  (24) 
energy

$$$$
24:0
     RDKit          3D

 70 70  0  0  0  0  0  0  0  0999 V2000
   57.8480   23.7200   44.6410 C   0  0  0  0  0  0  0  0  0  0  0  0
   56.9920   24.1940   43.4680 C   0  0  0  0  0  0  0  0  0  0  0  0
   55.5930   23.5630   43.5150 C   0  0  0  0  0  0  0  0  0  0  0  0
   55.0590   23.4190   44.9500 C   0  0  0  0  0  0  0  0  0  0  0  0
   53.9040   24.3880   45.2510 C   0  0  0  0  0  0  0  0  0  0  0  0
   54.4220   25.6980   45.6430 N   0  0  0  0  0  0  0  0  0  0  0  0
   55.6940   25.9310   46.2630 C   0  0  0  0  0  0  0  0  0  0  0  0
   56.1070   25.1130   47.1270 O   0  0  0  0  0  0  0  0  0  0  0  0
   56.5000   27.0640   45.9110 N   0  0  0  0  0  0  0  0  0  0  0  0
   57.6250   27.4830   46.7480 C   0  0  0  0  0  0  0  0  0  0  0  0
   58.9170   26.7490   46.3640 C   0  0  0  0  0  0  0  0  0  0  0  0
   60.0640   27.7290   46.0540 C   0  0  0  0  0  0  0  0  0  0  0  0
   59.5750   29.1530   45.7330 C   0  0  0  0  0  0  0  0  0  0  0  0
   59.1850   29.3900   44.2620 C   0  0  0  0  0  0  0  0  0  0  0  0
   57.9560   28.5740   43.8250 C   0  0  0  0  0  0  0  0  0  0  0  0
   56.9580   29.4130   43.0100 C   0  0  0  0  0  0  0  0  0  0  0  0
   55.8800   30.0580   43.8910 C   0  0  0  0  0  0  0  0  0  0  0  0
   56.4960   31.0370   44.7980 N   0  0  0  0  0  0  0  0  0  0  0  0
   57.3940   31.9500   44.0730 C   0  0  0  0  0  0  0  0  0  0  0  0
   57.5950   33.2450   44.8730 C   0  0  0  0  0  0  0  0  0  0  0  0
   57.7350   32.9810   46.3820 C   0  0  0  0  0  0  0  0  0  0  0  0
   58.5730   33.9970   47.0600 N   0  0  0  0  0  0  0  0  0  0  0  0
   59.5690   34.5860   46.1310 C   0  0  0  0  0  0  0  0  0  0  0  0
   60.9730   33.9890   46.3390 C   0  0  0  0  0  0  0  0  0  0  0  0
   61.4830   34.1780   47.6540 O   0  0  0  0  0  0  0  0  0  0  0  0
   60.4740   34.2420   48.6530 C   0  0  0  0  0  0  0  0  0  0  0  0
   59.1980   33.4630   48.2940 C   0  0  0  0  0  0  0  0  0  0  0  0
   57.3568   23.9920   45.5869 H   0  0  0  0  0  0  0  0  0  0  0  0
   57.9667   22.6276   44.5904 H   0  0  0  0  0  0  0  0  0  0  0  0
   58.8369   24.1990   44.5904 H   0  0  0  0  0  0  0  0  0  0  0  0
   56.8942   25.2887   43.5137 H   0  0  0  0  0  0  0  0  0  0  0  0
   57.4820   23.8887   42.5317 H   0  0  0  0  0  0  0  0  0  0  0  0
   54.9004   24.1980   42.9431 H   0  0  0  0  0  0  0  0  0  0  0  0
   55.6672   22.5539   43.0835 H   0  0  0  0  0  0  0  0  0  0  0  0
   54.7002   22.3887   45.0907 H   0  0  0  0  0  0  0  0  0  0  0  0
   55.8832   23.6591   45.6378 H   0  0  0  0  0  0  0  0  0  0  0  0
   53.2816   24.4996   44.3509 H   0  0  0  0  0  0  0  0  0  0  0  0
   53.3051   23.9806   46.0788 H   0  0  0  0  0  0  0  0  0  0  0  0
   56.2620   27.6130   45.0570 H   0  0  0  0  0  0  0  0  0  0  0  0
   57.7787   28.5652   46.6244 H   0  0  0  0  0  0  0  0  0  0  0  0
   57.3869   27.2377   47.7935 H   0  0  0  0  0  0  0  0  0  0  0  0
   59.2194   26.1006   47.1995 H   0  0  0  0  0  0  0  0  0  0  0  0
   58.7175   26.1598   45.4568 H   0  0  0  0  0  0  0  0  0  0  0  0
   60.7291   27.7767   46.9288 H   0  0  0  0  0  0  0  0  0  0  0  0
   60.5831   27.3524   45.1603 H   0  0  0  0  0  0  0  0  0  0  0  0
   58.6935   29.3602   46.3576 H   0  0  0  0  0  0  0  0  0  0  0  0
   60.4226   29.8233   45.9386 H   0  0  0  0  0  0  0  0  0  0  0  0
   58.9620   30.4586   44.1266 H   0  0  0  0  0  0  0  0  0  0  0  0
   60.0327   29.0646   43.6412 H   0  0  0  0  0  0  0  0  0  0  0  0
   58.2940   27.7284   43.2079 H   0  0  0  0  0  0  0  0  0  0  0  0
   57.4415   28.2280   44.7336 H   0  0  0  0  0  0  0  0  0  0  0  0
   57.5094   30.2083   42.4870 H   0  0  0  0  0  0  0  0  0  0  0  0
   56.4535   28.7395   42.3015 H   0  0  0  0  0  0  0  0  0  0  0  0
   55.1426   30.5660   43.2522 H   0  0  0  0  0  0  0  0  0  0  0  0
   55.3820   29.2772   44.4846 H   0  0  0  0  0  0  0  0  0  0  0  0
   55.7230   31.6110   45.2130 H   0  0  0  0  0  0  0  0  0  0  0  0
   58.3676   31.4599   43.9249 H   0  0  0  0  0  0  0  0  0  0  0  0
   56.9447   32.1964   43.0996 H   0  0  0  0  0  0  0  0  0  0  0  0
   58.5072   33.7445   44.5148 H   0  0  0  0  0  0  0  0  0  0  0  0
   56.7068   33.8761   44.7219 H   0  0  0  0  0  0  0  0  0  0  0  0
   56.7332   32.9899   46.8362 H   0  0  0  0  0  0  0  0  0  0  0  0
   58.2267   32.0049   46.5065 H   0  0  0  0  0  0  0  0  0  0  0  0
   59.2494   34.3907   45.0967 H   0  0  0  0  0  0  0  0  0  0  0  0
   59.6251   35.6660   46.3320 H   0  0  0  0  0  0  0  0  0  0  0  0
   60.9252   32.9089   46.1364 H   0  0  0  0  0  0  0  0  0  0  0  0
   61.6520   34.5139   45.6510 H   0  0  0  0  0  0  0  0  0  0  0  0
   60.8827   33.8276   49.5864 H   0  0  0  0  0  0  0  0  0  0  0  0
   60.1875   35.2993   48.7530 H   0  0  0  0  0  0  0  0  0  0  0  0
   59.4557   32.4052   48.1369 H   0  0  0  0  0  0  0  0  0  0  0  0
   58.4810   33.5688   49.1214 H   0  0  0  0  0  0  0  0  0  0  0  0
  1  2  1  0
  2  3  1  0
  3  4  1  0
  4  5  1  0
  5  6  1  0
  6  7  1  0
  7  8  2  0
  7  9  1  0
  9 10  1  0
 10 11  1  0
 11 12  1  0
 12 13  1  0
 13 14  1  0
 14 15  1  0
 15 16  1  0
 16 17  1  0
 17 18  1  0
 18 19  1  0
 19 20  1  0
 20 21  1  0
 21 22  1  0
 22 23  1  0
 23 24  1  0
 24 25  1  0
 25 26  1  0
 26 27  1  0
 27 22  1  0
  1 28  1  0
  1 29  1  0
  1 30  1  0
  2 31  1  0
  2 32  1  0
  3 33  1  0
  3 34  1  0
  4 35  1  0
  4 36  1  0
  5 37  1  0
  5 38  1  0
  9 39  1  0
 10 40  1  0
 10 41  1  0
 11 42  1  0
 11 43  1  0
 12 44  1  0
 12 45  1  0
 13 46  1  0
 13 47  1  0
 14 48  1  0
 14 49  1  0
 15 50  1  0
 15 51  1  0
 16 52  1  0
 16 53  1  0
 17 54  1  0
 17 55  1  0
 18 56  1  0
 19 57  1  0
 19 58  1  0
 20 59  1  0
 20 60  1  0
 21 61  1  0
 21 62  1  0
 23 63  1  0
 23 64  1  0
 24 65  1  0
 24 66  1  0
 26 67  1  0
 26 68  1  0
 27 69  1  0
 27 70  1  0
M  CHG  1   6  -1
M  END
>  <UniqueID>  (25) 
21

>  <SMILES>  (25) 
CCCCC[N-]C(=O)NCCCCCCCCNCCCN1CCOCC1

>  <Energy>  (25) 
52.80850972359889

>  <Genealogy>  (25) 
CCCCC[N-]C(=O)NCCCCCCCCNCCCN1CCOCC1 (protonated)
CCCCC[N-]C(=O)NCCCCCCCCNCCCN1CCOCC1 (3D coordinates assigned)
CCCCC[N-]C(=O)NCCCCCCCCNCCCN1CCOCC1 (nonaromatic ring conformer: 52.80850972359889 kcal/mol)

>  <smiles>  (25) 
CCCCCNC(=O)NCCCCCCCCNCCCN1CCOCC1

>  <score_type>  (25) 
oracle

>  <origin>  (25) 
adg

>  <m_score__min__energy>  (25) 
-9.2400000000000002

>  <m_primary>  (25) 
energy

$$$$
25:0
     RDKit          3D

 35 38  0  0  0  0  0  0  0  0999 V2000
   59.0930   27.4100   43.6020 F   0  0  0  0  0  0  0  0  0  0  0  0
   58.8730   28.4740   44.4140 C   0  0  0  0  0  0  0  0  0  0  0  0
   59.8470   28.8600   45.3380 C   0  0  0  0  0  0  0  0  0  0  0  0
   59.6220   29.9560   46.1770 C   0  0  0  0  0  0  0  0  0  0  0  0
   58.4180   30.6830   46.0940 C   0  0  0  0  0  0  0  0  0  0  0  0
   58.1480   31.8590   47.0100 C   0  0  1  0  0  0  0  0  0  0  0  0
   59.3010   32.0530   48.0370 C   0  0  0  0  0  0  0  0  0  0  0  0
   60.4220   32.9750   47.5510 C   0  0  0  0  0  0  0  0  0  0  0  0
   61.7770   32.9010   48.1590 C   0  0  0  0  0  0  0  0  0  0  0  0
   62.8850   33.5250   47.5500 C   0  0  0  0  0  0  0  0  0  0  0  0
   64.1530   33.4470   48.1350 C   0  0  0  0  0  0  0  0  0  0  0  0
   64.3350   32.7480   49.3310 C   0  0  0  0  0  0  0  0  0  0  0  0
   66.0680   32.6450   50.1270 Br  0  0  0  0  0  0  0  0  0  0  0  0
   63.2460   32.1200   49.9420 C   0  0  0  0  0  0  0  0  0  0  0  0
   61.9770   32.1940   49.3610 C   0  0  0  0  0  0  0  0  0  0  0  0
   60.1790   33.9060   46.6690 N   0  0  0  0  0  0  0  0  0  0  0  0
   58.8980   34.0050   46.0540 C   0  0  0  0  0  0  0  0  0  0  0  0
   58.5210   34.9640   45.1930 N   0  0  0  0  0  0  0  0  0  0  0  0
   57.2720   34.5450   44.8650 C   0  0  0  0  0  0  0  0  0  0  0  0
   56.9240   33.3900   45.4780 N   0  0  0  0  0  0  0  0  0  0  0  0
   57.9610   33.0780   46.2300 N   0  0  0  0  0  0  0  0  0  0  0  0
   57.4420   30.2780   45.1650 C   0  0  0  0  0  0  0  0  0  0  0  0
   57.6720   29.1810   44.3280 C   0  0  0  0  0  0  0  0  0  0  0  0
   60.7921   28.3012   45.4057 H   0  0  0  0  0  0  0  0  0  0  0  0
   60.3901   30.2524   46.9065 H   0  0  0  0  0  0  0  0  0  0  0  0
   57.2252   31.6446   47.5691 H   0  0  0  0  0  0  0  0  0  0  0  0
   58.8760   32.4811   48.9568 H   0  0  0  0  0  0  0  0  0  0  0  0
   59.7521   31.0628   48.1983 H   0  0  0  0  0  0  0  0  0  0  0  0
   62.7512   34.0771   46.6081 H   0  0  0  0  0  0  0  0  0  0  0  0
   65.0105   33.9380   47.6515 H   0  0  0  0  0  0  0  0  0  0  0  0
   63.3880   31.5665   50.8819 H   0  0  0  0  0  0  0  0  0  0  0  0
   61.1257   31.6951   49.8472 H   0  0  0  0  0  0  0  0  0  0  0  0
   56.6116   35.0880   44.1729 H   0  0  0  0  0  0  0  0  0  0  0  0
   56.4917   30.8277   45.0964 H   0  0  0  0  0  0  0  0  0  0  0  0
   56.9055   28.8749   43.6009 H   0  0  0  0  0  0  0  0  0  0  0  0
  1  2  1  0
  2  3  2  0
  3  4  1  0
  4  5  2  0
  5  6  1  0
  6  7  1  0
  7  8  1  0
  8  9  1  0
  9 10  2  0
 10 11  1  0
 11 12  2  0
 12 13  1  0
 12 14  1  0
 14 15  2  0
  8 16  2  0
 16 17  1  0
 17 18  2  0
 18 19  1  0
 19 20  2  0
 20 21  1  0
  5 22  1  0
 22 23  2  0
 23  2  1  0
 21  6  1  0
 15  9  1  0
 21 17  1  0
  3 24  1  0
  4 25  1  0
  6 26  1  1
  7 27  1  0
  7 28  1  0
 10 29  1  0
 11 30  1  0
 14 31  1  0
 15 32  1  0
 19 33  1  0
 22 34  1  0
 23 35  1  0
M  END
>  <UniqueID>  (26) 
22

>  <SMILES>  (26) 
Fc1ccc([C@H]2CC(c3ccc(Br)cc3)=Nc3ncnn32)cc1

>  <Energy>  (26) 
79.95420041750278

>  <Genealogy>  (26) 
Fc1ccc([C@H]2CC(c3ccc(Br)cc3)=Nc3ncnn32)cc1 (chirality)
Fc1ccc([C@H]2CC(c3ccc(Br)cc3)=Nc3ncnn32)cc1 (3D coordinates assigned)
Fc1ccc([C@H]2CC(c3ccc(Br)cc3)=Nc3ncnn32)cc1 (nonaromatic ring conformer: 79.95420041750278 kcal/mol)

>  <smiles>  (26) 
Fc1ccc(C2CC(c3ccc(Br)cc3)=Nc3ncnn32)cc1

>  <score_type>  (26) 
oracle

>  <origin>  (26) 
adg

>  <m_score__min__energy>  (26) 
-7.5099999999999998

>  <m_primary>  (26) 
energy

$$$$
26:0
     RDKit          3D

 35 37  0  0  0  0  0  0  0  0999 V2000
   57.2070   31.2660   53.7740 C   0  0  0  0  0  0  0  0  0  0  0  0
   57.0050   30.4790   52.1930 S   0  0  0  0  0  0  0  0  0  0  0  0
   55.6910   30.8920   51.5900 O   0  0  0  0  0  0  0  0  0  0  0  0
   57.0060   28.9870   52.3690 O   0  0  0  0  0  0  0  0  0  0  0  0
   58.3250   30.9560   51.1300 C   0  0  0  0  0  0  0  0  0  0  0  0
   58.7490   32.2900   51.0870 C   0  0  0  0  0  0  0  0  0  0  0  0
   59.7890   32.6710   50.2350 C   0  0  0  0  0  0  0  0  0  0  0  0
   60.4220   31.7210   49.4170 C   0  0  0  0  0  0  0  0  0  0  0  0
   61.5150   32.1360   48.5120 C   0  0  0  0  0  0  0  0  0  0  0  0
   63.1440   31.8600   48.7770 S   0  0  0  0  0  0  0  0  0  0  0  0
   63.7790   32.6640   47.4760 N   0  0  0  0  0  0  0  0  0  0  0  0
   62.7300   33.1750   46.7890 C   0  0  0  0  0  0  0  0  0  0  0  0
   61.4520   32.8950   47.3310 C   0  0  0  0  0  0  0  0  0  0  0  0
   60.2030   33.3070   46.6520 C   0  0  0  0  0  0  0  0  0  0  0  0
   60.1190   34.5640   46.0280 C   0  0  0  0  0  0  0  0  0  0  0  0
   58.9420   34.9530   45.3790 C   0  0  0  0  0  0  0  0  0  0  0  0
   57.8450   34.0890   45.3420 C   0  0  0  0  0  0  0  0  0  0  0  0
   56.7050   34.4680   44.7130 F   0  0  0  0  0  0  0  0  0  0  0  0
   57.9240   32.8320   45.9470 C   0  0  0  0  0  0  0  0  0  0  0  0
   59.0980   32.4390   46.5950 C   0  0  0  0  0  0  0  0  0  0  0  0
   59.9740   30.3890   49.4420 C   0  0  0  0  0  0  0  0  0  0  0  0
   58.9350   30.0100   50.2970 C   0  0  0  0  0  0  0  0  0  0  0  0
   57.0193   30.5349   54.5742 H   0  0  0  0  0  0  0  0  0  0  0  0
   58.2333   31.6518   53.8631 H   0  0  0  0  0  0  0  0  0  0  0  0
   56.4934   32.0984   53.8631 H   0  0  0  0  0  0  0  0  0  0  0  0
   58.2615   33.0407   51.7263 H   0  0  0  0  0  0  0  0  0  0  0  0
   60.1139   33.7215   50.2048 H   0  0  0  0  0  0  0  0  0  0  0  0
   64.7890   32.7560   47.2270 H   0  0  0  0  0  0  0  0  0  0  0  0
   62.8617   33.7677   45.8717 H   0  0  0  0  0  0  0  0  0  0  0  0
   60.9826   35.2449   46.0501 H   0  0  0  0  0  0  0  0  0  0  0  0
   58.8805   35.9401   44.8975 H   0  0  0  0  0  0  0  0  0  0  0  0
   57.0609   32.1509   45.9131 H   0  0  0  0  0  0  0  0  0  0  0  0
   59.1582   31.4454   47.0630 H   0  0  0  0  0  0  0  0  0  0  0  0
   60.4432   29.6413   48.7857 H   0  0  0  0  0  0  0  0  0  0  0  0
   58.5951   28.9640   50.3155 H   0  0  0  0  0  0  0  0  0  0  0  0
  1  2  1  0
  2  3  2  0
  2  4  2  0
  2  5  1  0
  5  6  2  0
  6  7  1  0
  7  8  2  0
  8  9  1  0
  9 10  1  0
 10 11  1  0
 11 12  2  0
 12 13  1  0
 13 14  1  0
 14 15  2  0
 15 16  1  0
 16 17  2  0
 17 18  1  0
 17 19  1  0
 19 20  2  0
  8 21  1  0
 21 22  2  0
 22  5  1  0
 13  9  2  0
 20 14  1  0
  1 23  1  0
  1 24  1  0
  1 25  1  0
  6 26  1  0
  7 27  1  0
 11 28  1  0
 12 29  1  0
 15 30  1  0
 16 31  1  0
 19 32  1  0
 20 33  1  0
 21 34  1  0
 22 35  1  0
M  CHG  1  11   1
M  END
>  <UniqueID>  (27) 
23

>  <SMILES>  (27) 
CS(=O)(=O)c1ccc(-c2s[nH+]cc2-c2ccc(F)cc2)cc1

>  <Energy>  (27) 
76.1702137088719

>  <Genealogy>  (27) 
CS(=O)(=O)c1ccc(-c2s[nH+]cc2-c2ccc(F)cc2)cc1 (protonated)
CS(=O)(=O)c1ccc(-c2s[nH+]cc2-c2ccc(F)cc2)cc1 (3D coordinates assigned)
CS(=O)(=O)c1ccc(-c2s[nH+]cc2-c2ccc(F)cc2)cc1 (optimized conformer: 76.1702137088719 kcal/mol)

>  <smiles>  (27) 
CS(=O)(=O)c1ccc(-c2sncc2-c2ccc(F)cc2)cc1

>  <score_type>  (27) 
oracle

>  <origin>  (27) 
adg

>  <m_score__min__energy>  (27) 
-6.5700000000000003

>  <m_primary>  (27) 
energy

$$$$
27:0
     RDKit          3D

 35 37  0  0  0  0  0  0  0  0999 V2000
   58.4653   24.6533   48.0294 H   0  0  0  0  0  0  0  0  0  0  0  0
   58.1020   25.1650   47.1260 C   0  0  0  0  0  0  0  0  0  0  0  0
   57.7850   24.4290   45.9870 C   0  0  0  0  0  0  0  0  0  0  0  0
   57.9052   23.3356   45.9827 H   0  0  0  0  0  0  0  0  0  0  0  0
   57.3120   25.0910   44.8470 C   0  0  0  0  0  0  0  0  0  0  0  0
   57.0040   24.3120   43.6020 C   0  0  0  0  0  0  0  0  0  0  0  0
   56.6124   23.3215   43.8767 H   0  0  0  0  0  0  0  0  0  0  0  0
   56.2517   24.8520   43.0083 H   0  0  0  0  0  0  0  0  0  0  0  0
   57.9222   24.1915   43.0083 H   0  0  0  0  0  0  0  0  0  0  0  0
   57.1940   26.4530   44.8520 N   0  0  0  0  0  0  0  0  0  0  0  0
   56.8620   26.9130   43.9770 H   0  0  0  0  0  0  0  0  0  0  0  0
   57.5000   27.1950   45.9630 C   0  0  0  0  0  0  0  0  0  0  0  0
   57.3810   28.4930   45.9830 N   0  0  0  0  0  0  0  0  0  0  0  0
   56.7320   29.4870   44.7160 S   0  0  0  0  0  0  0  0  0  0  0  0
   55.2400   29.6000   44.8620 O   0  0  0  0  0  0  0  0  0  0  0  0
   57.0570   28.8900   43.3750 O   0  0  0  0  0  0  0  0  0  0  0  0
   57.4510   31.0900   44.8350 C   0  0  0  0  0  0  0  0  0  0  0  0
   57.6190   31.8730   43.6850 C   0  0  0  0  0  0  0  0  0  0  0  0
   57.2904   31.4880   42.7084 H   0  0  0  0  0  0  0  0  0  0  0  0
   58.2020   33.1410   43.7720 C   0  0  0  0  0  0  0  0  0  0  0  0
   58.3258   33.7510   42.8650 H   0  0  0  0  0  0  0  0  0  0  0  0
   58.6290   33.6370   45.0110 C   0  0  0  0  0  0  0  0  0  0  0  0
   59.2160   34.9070   45.1110 C   0  0  0  0  0  0  0  0  0  0  0  0
   59.3424   35.5254   44.2101 H   0  0  0  0  0  0  0  0  0  0  0  0
   59.6410   35.3890   46.3530 C   0  0  0  0  0  0  0  0  0  0  0  0
   60.1002   36.3858   46.4265 H   0  0  0  0  0  0  0  0  0  0  0  0
   59.4840   34.6080   47.5010 C   0  0  0  0  0  0  0  0  0  0  0  0
   59.8203   34.9922   48.4753 H   0  0  0  0  0  0  0  0  0  0  0  0
   58.9010   33.3400   47.4160 C   0  0  0  0  0  0  0  0  0  0  0  0
   58.7805   32.7292   48.3228 H   0  0  0  0  0  0  0  0  0  0  0  0
   58.4690   32.8450   46.1750 C   0  0  0  0  0  0  0  0  0  0  0  0
   57.8830   31.5750   46.0770 C   0  0  0  0  0  0  0  0  0  0  0  0
   57.7618   30.9567   46.9787 H   0  0  0  0  0  0  0  0  0  0  0  0
   57.9580   26.5510   47.1190 C   0  0  0  0  0  0  0  0  0  0  0  0
   58.2030   27.1365   48.0174 H   0  0  0  0  0  0  0  0  0  0  0  0
  1  2  1  0
  2  3  1  0
  3  4  1  0
  3  5  2  0
  5  6  1  0
  6  7  1  0
  6  8  1  0
  6  9  1  0
  5 10  1  0
 10 11  1  0
 10 12  1  0
 12 13  2  0
 13 14  1  0
 14 15  2  0
 14 16  2  0
 14 17  1  0
 17 18  2  0
 18 19  1  0
 18 20  1  0
 20 21  1  0
 20 22  2  0
 22 23  1  0
 23 24  1  0
 23 25  2  0
 25 26  1  0
 25 27  1  0
 27 28  1  0
 27 29  2  0
 29 30  1  0
 29 31  1  0
 31 32  2  0
 32 33  1  0
 12 34  1  0
 34 35  1  0
 34  2  2  0
 32 17  1  0
 31 22  1  0
M  END
>  <UniqueID>  (28) 
24

>  <SMILES>  (28) 
Cc1ccc/c(=N/S(=O)(=O)c2ccc3ccccc3c2)[nH]1

>  <Energy>  (28) 
45.90244082786352

>  <Genealogy>  (28) 
Cc1ccc/c(=N/S(=O)(=O)c2ccc3ccccc3c2)[nH]1 (cis-trans isomerization)
Cc1ccc/c(=N/S(=O)(=O)c2ccc3ccccc3c2)[nH]1 (3D coordinates assigned)
Cc1ccc/c(=N/S(=O)(=O)c2ccc3ccccc3c2)[nH]1 (optimized conformer: 45.90244082786352 kcal/mol)

>  <smiles>  (28) 
Cc1cccc(=NS(=O)(=O)c2ccc3ccccc3c2)[nH]1

>  <score_type>  (28) 
oracle

>  <origin>  (28) 
adg

>  <m_score__min__energy>  (28) 
-8.9000000000000004

>  <m_primary>  (28) 
energy

$$$$
28:0
     RDKit          3D

 58 61  0  0  0  0  0  0  0  0999 V2000
   54.6480   24.3360   45.2270 C   0  0  0  0  0  0  0  0  0  0  0  0
   54.7870   25.6740   45.6950 O   0  0  0  0  0  0  0  0  0  0  0  0
   55.9980   26.2460   46.1110 C   0  0  0  0  0  0  0  0  0  0  0  0
   56.8680   25.6000   47.0100 C   0  0  0  0  0  0  0  0  0  0  0  0
   58.0550   26.2180   47.4030 C   0  0  0  0  0  0  0  0  0  0  0  0
   58.3830   27.4950   46.9310 C   0  0  0  0  0  0  0  0  0  0  0  0
   59.5860   28.1070   47.4200 N   0  0  0  0  0  0  0  0  0  0  0  0
   60.2670   27.8510   48.6550 C   0  0  0  0  0  0  0  0  0  0  0  0
   61.0540   26.8770   48.7810 O   0  0  0  0  0  0  0  0  0  0  0  0
   60.1300   28.8390   49.7680 C   0  0  0  0  0  0  0  0  0  0  0  0
   61.3590   30.2060   49.6660 S   0  0  0  0  0  0  0  0  0  0  0  0
   60.4140   31.3500   48.6220 C   0  0  0  0  0  0  0  0  0  0  0  0
   59.9470   30.8710   47.4350 N   0  0  0  0  0  0  0  0  0  0  0  0
   59.1530   31.6190   46.6290 C   0  0  0  0  0  0  0  0  0  0  0  0
   58.6090   31.0690   45.4560 C   0  0  0  0  0  0  0  0  0  0  0  0
   57.7570   31.8310   44.6510 C   0  0  0  0  0  0  0  0  0  0  0  0
   57.4490   33.1450   45.0080 C   0  0  0  0  0  0  0  0  0  0  0  0
   57.9950   33.7050   46.1680 C   0  0  0  0  0  0  0  0  0  0  0  0
   58.8490   32.9440   46.9880 C   0  0  0  0  0  0  0  0  0  0  0  0
   59.4150   33.4620   48.1630 C   0  0  0  0  0  0  0  0  0  0  0  0
   59.2010   34.6670   48.4700 O   0  0  0  0  0  0  0  0  0  0  0  0
   60.2010   32.6670   48.9700 N   0  0  0  0  0  0  0  0  0  0  0  0
   60.8330   33.2560   50.1720 C   0  0  0  0  0  0  0  0  0  0  0  0
   59.8590   33.3430   51.3560 C   0  0  0  0  0  0  0  0  0  0  0  0
   58.9460   32.1790   51.3710 N   0  0  0  0  0  0  0  0  0  0  0  0
   59.4190   31.1330   52.3000 C   0  0  0  0  0  0  0  0  0  0  0  0
   58.3610   30.0230   52.4540 C   0  0  0  0  0  0  0  0  0  0  0  0
   57.3560   30.1360   51.4650 O   0  0  0  0  0  0  0  0  0  0  0  0
   56.6400   31.3440   51.6460 C   0  0  0  0  0  0  0  0  0  0  0  0
   57.5700   32.5730   51.7220 C   0  0  0  0  0  0  0  0  0  0  0  0
   57.5340   28.1260   46.0070 C   0  0  0  0  0  0  0  0  0  0  0  0
   56.3490   27.5030   45.6060 C   0  0  0  0  0  0  0  0  0  0  0  0
   54.5770   23.6526   46.0860 H   0  0  0  0  0  0  0  0  0  0  0  0
   53.7365   24.2538   44.6168 H   0  0  0  0  0  0  0  0  0  0  0  0
   55.5232   24.0682   44.6168 H   0  0  0  0  0  0  0  0  0  0  0  0
   56.6109   24.6054   47.4034 H   0  0  0  0  0  0  0  0  0  0  0  0
   58.7393   25.6979   48.0895 H   0  0  0  0  0  0  0  0  0  0  0  0
   59.1194   29.2718   49.7310 H   0  0  0  0  0  0  0  0  0  0  0  0
   60.3104   28.3019   50.7109 H   0  0  0  0  0  0  0  0  0  0  0  0
   60.1750   29.8880   47.1610 H   0  0  0  0  0  0  0  0  0  0  0  0
   58.8543   30.0355   45.1702 H   0  0  0  0  0  0  0  0  0  0  0  0
   57.3292   31.3951   43.7361 H   0  0  0  0  0  0  0  0  0  0  0  0
   56.7752   33.7417   44.3755 H   0  0  0  0  0  0  0  0  0  0  0  0
   57.7560   34.7437   46.4401 H   0  0  0  0  0  0  0  0  0  0  0  0
   61.6902   32.6313   50.4636 H   0  0  0  0  0  0  0  0  0  0  0  0
   61.1502   34.2787   49.9199 H   0  0  0  0  0  0  0  0  0  0  0  0
   60.4327   33.3636   52.2943 H   0  0  0  0  0  0  0  0  0  0  0  0
   59.2601   34.2599   51.2536 H   0  0  0  0  0  0  0  0  0  0  0  0
   60.3481   30.6944   51.9072 H   0  0  0  0  0  0  0  0  0  0  0  0
   59.5991   31.5893   53.2846 H   0  0  0  0  0  0  0  0  0  0  0  0
   58.8516   29.0433   52.3572 H   0  0  0  0  0  0  0  0  0  0  0  0
   57.8904   30.1240   53.4431 H   0  0  0  0  0  0  0  0  0  0  0  0
   55.9492   31.4754   50.8001 H   0  0  0  0  0  0  0  0  0  0  0  0
   56.0987   31.2733   52.6010 H   0  0  0  0  0  0  0  0  0  0  0  0
   57.2188   33.3411   51.0172 H   0  0  0  0  0  0  0  0  0  0  0  0
   57.5570   32.9761   52.7454 H   0  0  0  0  0  0  0  0  0  0  0  0
   57.8021   29.1116   45.5986 H   0  0  0  0  0  0  0  0  0  0  0  0
   55.6858   28.0055   44.8865 H   0  0  0  0  0  0  0  0  0  0  0  0
  1  2  1  0
  2  3  1  0
  3  4  2  0
  4  5  1  0
  5  6  2  0
  6  7  1  0
  7  8  1  0
  8  9  2  0
  8 10  1  0
 10 11  1  0
 11 12  1  0
 12 13  2  0
 13 14  1  0
 14 15  2  0
 15 16  1  0
 16 17  2  0
 17 18  1  0
 18 19  2  0
 19 20  1  0
 20 21  2  0
 20 22  1  0
 22 23  1  0
 23 24  1  0
 24 25  1  0
 25 26  1  0
 26 27  1  0
 27 28  1  0
 28 29  1  0
 29 30  1  0
  6 31  1  0
 31 32  2  0
 32  3  1  0
 22 12  1  0
 30 25  1  0
 19 14  1  0
  1 33  1  0
  1 34  1  0
  1 35  1  0
  4 36  1  0
  5 37  1  0
 10 38  1  0
 10 39  1  0
 13 40  1  0
 15 41  1  0
 16 42  1  0
 17 43  1  0
 18 44  1  0
 23 45  1  0
 23 46  1  0
 24 47  1  0
 24 48  1  0
 26 49  1  0
 26 50  1  0
 27 51  1  0
 27 52  1  0
 29 53  1  0
 29 54  1  0
 30 55  1  0
 30 56  1  0
 31 57  1  0
 32 58  1  0
M  CHG  2   7  -1  13   1
M  END
>  <UniqueID>  (29) 
25

>  <SMILES>  (29) 
COc1ccc([N-]C(=O)CSc2[nH+]c3ccccc3c(=O)n2CCN2CCOCC2)cc1

>  <Energy>  (29) 
73.3505991047389

>  <Genealogy>  (29) 
COc1ccc([N-]C(=O)CSc2[nH+]c3ccccc3c(=O)n2CCN2CCOCC2)cc1 (protonated)
COc1ccc([N-]C(=O)CSc2[nH+]c3ccccc3c(=O)n2CCN2CCOCC2)cc1 (3D coordinates assigned)
COc1ccc([N-]C(=O)CSc2[nH+]c3ccccc3c(=O)n2CCN2CCOCC2)cc1 (nonaromatic ring conformer: 73.3505991047389 kcal/mol)

>  <smiles>  (29) 
COc1ccc(NC(=O)CSc2nc3ccccc3c(=O)n2CCN2CCOCC2)cc1

>  <score_type>  (29) 
oracle

>  <origin>  (29) 
adg

>  <m_score__min__energy>  (29) 
-8.6400000000000006

>  <m_primary>  (29) 
energy

$$$$
29:0
     RDKit          3D

 49 50  0  0  0  0  0  0  0  0999 V2000
   55.0090   30.4790   51.9910 C   0  0  0  0  0  0  0  0  0  0  0  0
   56.4690   30.3340   52.1130 N   0  0  0  0  0  0  0  0  0  0  0  0
   56.7780   29.0610   52.7860 C   0  0  0  0  0  0  0  0  0  0  0  0
   57.0300   31.4830   52.8600 C   0  0  0  0  0  0  0  0  0  0  0  0
   57.7720   32.4630   51.9240 C   0  0  0  0  0  0  0  0  0  0  0  0
   57.6480   32.0610   50.5060 N   0  0  0  0  0  0  0  0  0  0  0  0
   58.9320   31.9670   49.7670 C   0  0  1  0  0  0  0  0  0  0  0  0
   59.2940   30.5390   49.3730 C   0  0  0  0  0  0  0  0  0  0  0  0
   58.4900   29.6050   49.6420 O   0  0  0  0  0  0  0  0  0  0  0  0
   60.5220   30.2310   48.6690 N   0  0  0  0  0  0  0  0  0  0  0  0
   60.5010   29.6770   47.3090 C   0  0  0  0  0  0  0  0  0  0  0  0
   61.8160   30.5030   49.3150 C   0  0  0  0  0  0  0  0  0  0  0  0
   62.3920   31.7940   48.7990 C   0  0  0  0  0  0  0  0  0  0  0  0
   62.8700   31.8890   47.4800 C   0  0  0  0  0  0  0  0  0  0  0  0
   63.4290   33.0850   47.0180 C   0  0  0  0  0  0  0  0  0  0  0  0
   63.5170   34.1920   47.8670 C   0  0  0  0  0  0  0  0  0  0  0  0
   63.0470   34.1040   49.1810 C   0  0  0  0  0  0  0  0  0  0  0  0
   62.4890   32.9100   49.6470 C   0  0  0  0  0  0  0  0  0  0  0  0
   58.9860   32.9140   48.5840 C   0  0  0  0  0  0  0  0  0  0  0  0
   58.4290   32.5930   47.3360 C   0  0  0  0  0  0  0  0  0  0  0  0
   58.6210   33.5700   46.3700 C   0  0  0  0  0  0  0  0  0  0  0  0
   59.4950   34.8250   47.0630 S   0  0  0  0  0  0  0  0  0  0  0  0
   59.6380   34.1480   48.5940 C   0  0  0  0  0  0  0  0  0  0  0  0
   54.5599   30.5236   52.9941 H   0  0  0  0  0  0  0  0  0  0  0  0
   54.7769   31.4046   51.4439 H   0  0  0  0  0  0  0  0  0  0  0  0
   54.5994   29.6171   51.4439 H   0  0  0  0  0  0  0  0  0  0  0  0
   56.7431   29.2046   53.8760 H   0  0  0  0  0  0  0  0  0  0  0  0
   56.0380   28.3019   52.4923 H   0  0  0  0  0  0  0  0  0  0  0  0
   57.7836   28.7256   52.4923 H   0  0  0  0  0  0  0  0  0  0  0  0
   56.2094   32.0188   53.3596 H   0  0  0  0  0  0  0  0  0  0  0  0
   57.7516   31.0962   53.5946 H   0  0  0  0  0  0  0  0  0  0  0  0
   57.3442   33.4687   52.0486 H   0  0  0  0  0  0  0  0  0  0  0  0
   58.8388   32.4538   52.1922 H   0  0  0  0  0  0  0  0  0  0  0  0
   57.0100   32.7160   49.9990 H   0  0  0  0  0  0  0  0  0  0  0  0
   57.1920   31.1160   50.4820 H   0  0  0  0  0  0  0  0  0  0  0  0
   59.7077   32.2927   50.4756 H   0  0  0  0  0  0  0  0  0  0  0  0
   60.4594   28.5790   47.3610 H   0  0  0  0  0  0  0  0  0  0  0  0
   59.6164   30.0525   46.7737 H   0  0  0  0  0  0  0  0  0  0  0  0
   61.4114   29.9845   46.7737 H   0  0  0  0  0  0  0  0  0  0  0  0
   61.6705   30.5789   50.4027 H   0  0  0  0  0  0  0  0  0  0  0  0
   62.5116   29.6822   49.0860 H   0  0  0  0  0  0  0  0  0  0  0  0
   62.8041   31.0197   46.8092 H   0  0  0  0  0  0  0  0  0  0  0  0
   63.8000   33.1546   45.9848 H   0  0  0  0  0  0  0  0  0  0  0  0
   63.9559   35.1321   47.5015 H   0  0  0  0  0  0  0  0  0  0  0  0
   63.1164   34.9753   49.8488 H   0  0  0  0  0  0  0  0  0  0  0  0
   62.1241   32.8439   50.6826 H   0  0  0  0  0  0  0  0  0  0  0  0
   57.8902   31.6538   47.1420 H   0  0  0  0  0  0  0  0  0  0  0  0
   58.2629   33.5295   45.3307 H   0  0  0  0  0  0  0  0  0  0  0  0
   60.1551   34.5986   49.4540 H   0  0  0  0  0  0  0  0  0  0  0  0
  1  2  1  0
  2  3  1  0
  2  4  1  0
  4  5  1  0
  5  6  1  0
  6  7  1  0
  7  8  1  0
  8  9  2  0
  8 10  1  0
 10 11  1  0
 10 12  1  0
 12 13  1  0
 13 14  2  0
 14 15  1  0
 15 16  2  0
 16 17  1  0
 17 18  2  0
  7 19  1  0
 19 20  1  0
 20 21  2  0
 21 22  1  0
 22 23  1  0
 18 13  1  0
 23 19  2  0
  1 24  1  0
  1 25  1  0
  1 26  1  0
  3 27  1  0
  3 28  1  0
  3 29  1  0
  4 30  1  0
  4 31  1  0
  5 32  1  0
  5 33  1  0
  6 34  1  0
  6 35  1  0
  7 36  1  1
 11 37  1  0
 11 38  1  0
 11 39  1  0
 12 40  1  0
 12 41  1  0
 14 42  1  0
 15 43  1  0
 16 44  1  0
 17 45  1  0
 18 46  1  0
 20 47  1  0
 21 48  1  0
 23 49  1  0
M  CHG  1   6   1
M  END
>  <UniqueID>  (30) 
26

>  <SMILES>  (30) 
CN(C)CC[NH2+][C@@H](C(=O)N(C)Cc1ccccc1)c1ccsc1

>  <Energy>  (30) 
77.53041243002527

>  <Genealogy>  (30) 
CN(C)CC[NH2+]C(C(=O)N(C)Cc1ccccc1)c1ccsc1 (protonated)
CN(C)CC[NH2+][C@@H](C(=O)N(C)Cc1ccccc1)c1ccsc1 (chirality)
CN(C)CC[NH2+][C@@H](C(=O)N(C)Cc1ccccc1)c1ccsc1 (3D coordinates assigned)
CN(C)CC[NH2+][C@@H](C(=O)N(C)Cc1ccccc1)c1ccsc1 (optimized conformer: 77.53041243002527 kcal/mol)

>  <smiles>  (30) 
CN(C)CCNC(C(=O)N(C)Cc1ccccc1)c1ccsc1

>  <score_type>  (30) 
oracle

>  <origin>  (30) 
adg

>  <m_score__min__energy>  (30) 
-5.6200000000000001

>  <m_primary>  (30) 
energy

$$$$
30:0
     RDKit          3D

 43 46  0  0  0  0  0  0  0  0999 V2000
   59.9328   34.3851   43.6797 H   0  0  0  0  0  0  0  0  0  0  0  0
   59.2630   34.0420   44.4820 C   0  0  0  0  0  0  0  0  0  0  0  0
   59.4790   34.4610   45.7950 C   0  0  0  0  0  0  0  0  0  0  0  0
   60.3208   35.1291   46.0294 H   0  0  0  0  0  0  0  0  0  0  0  0
   58.6240   34.0300   46.8100 C   0  0  0  0  0  0  0  0  0  0  0  0
   58.8190   34.4550   48.0800 F   0  0  0  0  0  0  0  0  0  0  0  0
   57.5600   33.1630   46.5170 C   0  0  0  0  0  0  0  0  0  0  0  0
   56.8866   32.8304   47.3207 H   0  0  0  0  0  0  0  0  0  0  0  0
   57.3520   32.7180   45.1990 C   0  0  0  0  0  0  0  0  0  0  0  0
   56.3080   31.7930   44.8700 N   0  0  0  0  0  0  0  0  0  0  0  0
   56.5600   30.1300   44.4560 S   0  0  0  0  0  0  0  0  0  0  0  0
   56.6970   30.0090   42.9650 O   0  0  0  0  0  0  0  0  0  0  0  0
   55.3800   29.3120   44.9050 O   0  0  0  0  0  0  0  0  0  0  0  0
   58.0520   29.5430   45.1910 C   0  0  0  0  0  0  0  0  0  0  0  0
   58.9140   28.6870   44.4910 C   0  0  0  0  0  0  0  0  0  0  0  0
   58.6644   28.3749   43.4662 H   0  0  0  0  0  0  0  0  0  0  0  0
   60.0930   28.2280   45.0940 C   0  0  0  0  0  0  0  0  0  0  0  0
   60.7644   27.5524   44.5437 H   0  0  0  0  0  0  0  0  0  0  0  0
   60.4170   28.6280   46.3950 C   0  0  0  0  0  0  0  0  0  0  0  0
   61.3352   28.2542   46.8716 H   0  0  0  0  0  0  0  0  0  0  0  0
   59.5730   29.5050   47.0930 C   0  0  0  0  0  0  0  0  0  0  0  0
   59.8950   29.8690   48.4430 N   0  0  0  0  0  0  0  0  0  0  0  0
   60.2470   31.0310   48.9360 C   0  0  0  0  0  0  0  0  0  0  0  0
   59.4720   31.5080   49.9980 C   0  0  0  0  0  0  0  0  0  0  0  0
   58.7279   30.8503   50.4711 H   0  0  0  0  0  0  0  0  0  0  0  0
   59.6370   32.8070   50.4580 C   0  0  0  0  0  0  0  0  0  0  0  0
   59.0127   33.1776   51.2844 H   0  0  0  0  0  0  0  0  0  0  0  0
   60.5650   33.6240   49.8940 N   0  0  0  0  0  0  0  0  0  0  0  0
   60.6440   34.6030   50.2520 H   0  0  0  0  0  0  0  0  0  0  0  0
   61.4210   33.1810   48.9320 C   0  0  0  0  0  0  0  0  0  0  0  0
   62.4310   34.0330   48.4500 C   0  0  0  0  0  0  0  0  0  0  0  0
   62.4740   35.0774   48.7928 H   0  0  0  0  0  0  0  0  0  0  0  0
   63.3770   33.5640   47.5420 C   0  0  0  0  0  0  0  0  0  0  0  0
   64.1435   34.2447   47.1431 H   0  0  0  0  0  0  0  0  0  0  0  0
   63.3500   32.2330   47.1410 C   0  0  0  0  0  0  0  0  0  0  0  0
   64.1132   31.8560   46.4443 H   0  0  0  0  0  0  0  0  0  0  0  0
   62.3590   31.3720   47.6180 C   0  0  0  0  0  0  0  0  0  0  0  0
   62.3858   30.3084   47.3388 H   0  0  0  0  0  0  0  0  0  0  0  0
   61.3220   31.8460   48.4540 C   0  0  0  0  0  0  0  0  0  0  0  0
   58.3740   29.9340   46.4990 C   0  0  0  0  0  0  0  0  0  0  0  0
   57.6845   30.5797   47.0626 H   0  0  0  0  0  0  0  0  0  0  0  0
   58.1950   33.1850   44.1820 C   0  0  0  0  0  0  0  0  0  0  0  0
   58.0176   32.8771   43.1410 H   0  0  0  0  0  0  0  0  0  0  0  0
  1  2  1  0
  2  3  2  0
  3  4  1  0
  3  5  1  0
  5  6  1  0
  5  7  2  0
  7  8  1  0
  7  9  1  0
  9 10  1  0
 10 11  1  0
 11 12  2  0
 11 13  2  0
 11 14  1  0
 14 15  2  0
 15 16  1  0
 15 17  1  0
 17 18  1  0
 17 19  2  0
 19 20  1  0
 19 21  1  0
 21 22  1  0
 22 23  2  0
 23 24  1  0
 24 25  1  0
 24 26  2  0
 26 27  1  0
 26 28  1  0
 28 29  1  0
 28 30  1  0
 30 31  2  0
 31 32  1  0
 31 33  1  0
 33 34  1  0
 33 35  2  0
 35 36  1  0
 35 37  1  0
 37 38  1  0
 37 39  2  0
 21 40  2  0
 40 41  1  0
  9 42  2  0
 42 43  1  0
 42  2  1  0
 40 14  1  0
 39 23  1  0
 39 30  1  0
M  CHG  1  10  -1
M  END
>  <UniqueID>  (31) 
27

>  <SMILES>  (31) 
O=S(=O)([N-]c1cccc(F)c1)c1cccc(/N=c2/cc[nH]c3ccccc23)c1

>  <Energy>  (31) 
74.92643994315839

>  <Genealogy>  (31) 
O=S(=O)([N-]c1cccc(F)c1)c1cccc(N=c2cc[nH]c3ccccc23)c1 (protonated)
O=S(=O)([N-]c1cccc(F)c1)c1cccc(/N=c2/cc[nH]c3ccccc23)c1 (cis-trans isomerization)
O=S(=O)([N-]c1cccc(F)c1)c1cccc(/N=c2/cc[nH]c3ccccc23)c1 (3D coordinates assigned)
O=S(=O)([N-]c1cccc(F)c1)c1cccc(/N=c2/cc[nH]c3ccccc23)c1 (optimized conformer: 74.92643994315839 kcal/mol)

>  <smiles>  (31) 
O=S(=O)(Nc1cccc(F)c1)c1cccc(N=c2cc[nH]c3ccccc23)c1

>  <score_type>  (31) 
oracle

>  <origin>  (31) 
adg

>  <m_score__min__energy>  (31) 
-10.56

>  <m_primary>  (31) 
energy

$$$$
31:0
     RDKit          3D

 19 19  0  0  0  0  0  0  0  0999 V2000
   59.0217   29.8217   45.0118 H   0  0  0  0  0  0  0  0  0  0  0  0
   58.1450   30.4060   45.3280 C   0  0  0  0  0  0  0  0  0  0  0  0
   57.0030   29.8040   45.4540 N   0  0  0  0  0  0  0  0  0  0  0  0
   55.9010   30.1640   44.7100 O   0  0  0  0  0  0  0  0  0  0  0  0
   55.7660   29.7230   43.3690 C   0  0  0  0  0  0  0  0  0  0  0  0
   55.4440   28.6712   43.3596 H   0  0  0  0  0  0  0  0  0  0  0  0
   55.0158   30.3408   42.8536 H   0  0  0  0  0  0  0  0  0  0  0  0
   56.7334   29.8149   42.8536 H   0  0  0  0  0  0  0  0  0  0  0  0
   58.3080   31.8510   45.5950 C   0  0  0  0  0  0  0  0  0  0  0  0
   58.6730   32.2870   46.8860 C   0  0  0  0  0  0  0  0  0  0  0  0
   58.9120   31.1480   48.2080 Cl  0  0  0  0  0  0  0  0  0  0  0  0
   58.8320   33.6520   47.1450 C   0  0  0  0  0  0  0  0  0  0  0  0
   59.1078   33.9884   48.1553 H   0  0  0  0  0  0  0  0  0  0  0  0
   58.6430   34.5890   46.1300 C   0  0  0  0  0  0  0  0  0  0  0  0
   58.7596   35.6617   46.3437 H   0  0  0  0  0  0  0  0  0  0  0  0
   58.3060   34.1670   44.8430 C   0  0  0  0  0  0  0  0  0  0  0  0
   58.1677   34.9090   44.0428 H   0  0  0  0  0  0  0  0  0  0  0  0
   58.1430   32.8050   44.5650 C   0  0  0  0  0  0  0  0  0  0  0  0
   57.8060   32.3300   42.9020 Cl  0  0  0  0  0  0  0  0  0  0  0  0
  1  2  1  0
  2  3  2  0
  3  4  1  0
  4  5  1  0
  5  6  1  0
  5  7  1  0
  5  8  1  0
  2  9  1  0
  9 10  2  0
 10 11  1  0
 10 12  1  0
 12 13  1  0
 12 14  2  0
 14 15  1  0
 14 16  1  0
 16 17  1  0
 16 18  2  0
 18 19  1  0
 18  9  1  0
M  END
>  <UniqueID>  (32) 
28

>  <SMILES>  (32) 
CO/N=C\c1c(Cl)cccc1Cl

>  <Energy>  (32) 
22.165953309310716

>  <Genealogy>  (32) 
CO/N=C\c1c(Cl)cccc1Cl (cis-trans isomerization)
CO/N=C\c1c(Cl)cccc1Cl (3D coordinates assigned)
CO/N=C\c1c(Cl)cccc1Cl (optimized conformer: 22.165953309310716 kcal/mol)

>  <smiles>  (32) 
CON=Cc1c(Cl)cccc1Cl

>  <score_type>  (32) 
oracle

>  <origin>  (32) 
adg

>  <m_score__min__energy>  (32) 
-5.5999999999999996

>  <m_primary>  (32) 
energy

$$$$
32:0
     RDKit          3D

 46 48  0  0  0  0  0  0  0  0999 V2000
   56.8145   33.9554   47.1547 H   0  0  0  0  0  0  0  0  0  0  0  0
   57.5850   33.6560   46.4290 C   0  0  0  0  0  0  0  0  0  0  0  0
   57.3130   33.7700   45.1190 C   0  0  0  0  0  0  0  0  0  0  0  0
   56.9005   34.7221   44.7538 H   0  0  0  0  0  0  0  0  0  0  0  0
   57.5420   32.6670   44.1260 C   0  0  0  0  0  0  0  0  0  0  0  0
   56.7574   32.7048   43.3559 H   0  0  0  0  0  0  0  0  0  0  0  0
   58.5321   32.8026   43.6664 H   0  0  0  0  0  0  0  0  0  0  0  0
   57.5030   31.3550   44.7930 N   0  0  0  0  0  0  0  0  0  0  0  0
   58.7310   30.5880   44.5330 C   0  0  0  0  0  0  0  0  0  0  0  0
   58.7407   30.2481   43.4869 H   0  0  0  0  0  0  0  0  0  0  0  0
   59.6130   31.2207   44.7113 H   0  0  0  0  0  0  0  0  0  0  0  0
   58.7600   29.3800   45.4660 C   0  0  0  0  0  0  0  0  0  0  0  0
   59.5550   28.6931   45.1402 H   0  0  0  0  0  0  0  0  0  0  0  0
   58.9509   29.7333   46.4901 H   0  0  0  0  0  0  0  0  0  0  0  0
   57.4780   28.6710   45.4490 N   0  0  0  0  0  0  0  0  0  0  0  0
   57.2980   27.5390   46.3320 C   0  0  0  0  0  0  0  0  0  0  0  0
   57.7900   27.5720   47.4930 O   0  0  0  0  0  0  0  0  0  0  0  0
   56.5840   26.3210   45.9120 C   0  0  0  0  0  0  0  0  0  0  0  0
   55.2850   26.1720   46.0290 O   0  0  0  0  0  0  0  0  0  0  0  0
   54.9620   24.9730   45.6100 C   0  0  0  0  0  0  0  0  0  0  0  0
   53.9411   24.5641   45.5870 H   0  0  0  0  0  0  0  0  0  0  0  0
   56.0960   24.3010   45.2020 C   0  0  0  0  0  0  0  0  0  0  0  0
   56.1494   23.2784   44.8001 H   0  0  0  0  0  0  0  0  0  0  0  0
   57.1460   25.1670   45.3990 C   0  0  0  0  0  0  0  0  0  0  0  0
   58.2101   24.9805   45.1918 H   0  0  0  0  0  0  0  0  0  0  0  0
   56.4300   29.0750   44.5020 C   0  0  0  0  0  0  0  0  0  0  0  0
   56.6883   28.6940   43.5029 H   0  0  0  0  0  0  0  0  0  0  0  0
   55.4754   28.6565   44.8535 H   0  0  0  0  0  0  0  0  0  0  0  0
   56.2780   30.6090   44.4260 C   0  0  0  0  0  0  0  0  0  0  0  0
   56.0047   30.8787   43.3952 H   0  0  0  0  0  0  0  0  0  0  0  0
   55.5046   30.8885   45.1566 H   0  0  0  0  0  0  0  0  0  0  0  0
   58.8690   33.1480   46.9350 C   0  0  0  0  0  0  0  0  0  0  0  0
   58.8990   32.0480   47.8050 C   0  0  0  0  0  0  0  0  0  0  0  0
   57.9621   31.5495   48.0941 H   0  0  0  0  0  0  0  0  0  0  0  0
   60.1190   31.5860   48.3040 C   0  0  0  0  0  0  0  0  0  0  0  0
   60.1407   30.7302   48.9948 H   0  0  0  0  0  0  0  0  0  0  0  0
   61.3110   32.2080   47.9280 C   0  0  0  0  0  0  0  0  0  0  0  0
   62.2677   31.8400   48.3271 H   0  0  0  0  0  0  0  0  0  0  0  0
   61.2990   33.2990   47.0450 C   0  0  0  0  0  0  0  0  0  0  0  0
   62.5230   33.8860   46.6910 O   0  0  0  0  0  0  0  0  0  0  0  0
   63.7930   33.4590   47.1820 C   0  0  0  0  0  0  0  0  0  0  0  0
   63.7811   33.4630   48.2819 H   0  0  0  0  0  0  0  0  0  0  0  0
   64.0022   32.4411   46.8213 H   0  0  0  0  0  0  0  0  0  0  0  0
   64.5747   34.1437   46.8213 H   0  0  0  0  0  0  0  0  0  0  0  0
   60.0670   33.7680   46.5500 C   0  0  0  0  0  0  0  0  0  0  0  0
   60.0439   34.6236   45.8590 H   0  0  0  0  0  0  0  0  0  0  0  0
  1  2  1  0
  2  3  2  0
  3  4  1  0
  3  5  1  0
  5  6  1  0
  5  7  1  0
  5  8  1  0
  8  9  1  0
  9 10  1  0
  9 11  1  0
  9 12  1  0
 12 13  1  0
 12 14  1  0
 12 15  1  0
 15 16  1  0
 16 17  2  0
 16 18  1  0
 18 19  1  0
 19 20  1  0
 20 21  1  0
 20 22  2  0
 22 23  1  0
 22 24  1  0
 24 25  1  0
 15 26  1  0
 26 27  1  0
 26 28  1  0
 26 29  1  0
 29 30  1  0
 29 31  1  0
  2 32  1  0
 32 33  2  0
 33 34  1  0
 33 35  1  0
 35 36  1  0
 35 37  2  0
 37 38  1  0
 37 39  1  0
 39 40  1  0
 40 41  1  0
 41 42  1  0
 41 43  1  0
 41 44  1  0
 39 45  2  0
 45 46  1  0
 29  8  1  0
 45 32  1  0
 24 18  2  0
M  END
>  <UniqueID>  (33) 
29

>  <SMILES>  (33) 
COc1cccc(/C=C\CN2CCN(C(=O)c3ccco3)CC2)c1

>  <Energy>  (33) 
85.50592257315905

>  <Genealogy>  (33) 
COc1cccc(/C=C\CN2CCN(C(=O)c3ccco3)CC2)c1 (cis-trans isomerization)
COc1cccc(/C=C\CN2CCN(C(=O)c3ccco3)CC2)c1 (3D coordinates assigned)
COc1cccc(/C=C\CN2CCN(C(=O)c3ccco3)CC2)c1 (nonaromatic ring conformer: 85.50592257315905 kcal/mol)

>  <smiles>  (33) 
COc1cccc(C=CCN2CCN(C(=O)c3ccco3)CC2)c1

>  <score_type>  (33) 
oracle

>  <origin>  (33) 
adg

>  <m_score__min__energy>  (33) 
-8.0399999999999991

>  <m_primary>  (33) 
energy

$$$$
33:0
     RDKit          3D

 82 88  0  0  0  0  0  0  0  0999 V2000
   59.6820   33.8480   50.5640 C   0  0  0  0  0  0  0  0  0  0  0  0
   59.9490   32.8770   49.4120 C   0  0  0  0  0  0  0  0  0  0  0  0
   60.4190   33.5220   48.1580 N   0  0  0  0  0  0  0  0  0  0  0  0
   59.4900   34.5830   47.7000 C   0  0  0  0  0  0  0  0  0  0  0  0
   59.5170   34.7720   46.1810 C   0  0  0  0  0  0  0  0  0  0  0  0
   59.1560   33.5210   45.4690 N   0  0  0  0  0  0  0  0  0  0  0  0
   57.6900   33.2670   45.3150 C   0  0  1  0  0  0  0  0  0  0  0  0
   56.8890   34.5100   44.8700 C   0  0  0  0  0  0  0  0  0  0  0  0
   57.4520   32.1410   44.2810 C   0  0  0  0  0  0  0  0  0  0  0  0
   56.7050   31.0930   44.8780 O   0  0  0  0  0  0  0  0  0  0  0  0
   56.3860   30.1050   43.9230 C   0  0  0  0  0  0  0  0  0  0  0  0
   59.8630   32.3250   46.0210 C   0  0  0  0  0  0  0  0  0  0  0  0
   60.9580   32.6600   47.0670 C   0  0  2  0  0  0  0  0  0  0  0  0
   61.7010   31.4230   47.5590 C   0  0  0  0  0  0  0  0  0  0  0  0
   62.9640   31.4340   47.5770 O   0  0  0  0  0  0  0  0  0  0  0  0
   61.0240   30.2110   47.9530 N   0  0  0  0  0  0  0  0  0  0  0  0
   60.7900   29.9950   49.4020 C   0  0  0  0  0  0  0  0  0  0  0  0
   60.6680   28.4790   49.7550 C   0  0  1  0  0  0  0  0  0  0  0  0
   60.4480   28.2480   51.2360 C   0  0  0  0  0  0  0  0  0  0  0  0
   61.1800   27.3610   52.0390 C   0  0  0  0  0  0  0  0  0  0  0  0
   62.2710   26.4480   51.5810 C   0  0  0  0  0  0  0  0  0  0  0  0
   60.7880   27.4410   53.3360 N   0  0  0  0  0  0  0  0  0  0  0  0
   59.8290   28.3790   53.2780 C   0  0  0  0  0  0  0  0  0  0  0  0
   58.8890   29.0460   54.5050 S   0  0  0  0  0  0  0  0  0  0  0  0
   58.1250   30.0640   53.3750 C   0  0  0  0  0  0  0  0  0  0  0  0
   57.1330   31.0100   53.6240 C   0  0  0  0  0  0  0  0  0  0  0  0
   56.6360   31.7520   52.5450 C   0  0  0  0  0  0  0  0  0  0  0  0
   57.1340   31.5410   51.2450 C   0  0  0  0  0  0  0  0  0  0  0  0
   58.1360   30.5860   51.0100 C   0  0  0  0  0  0  0  0  0  0  0  0
   58.6320   29.8460   52.0880 C   0  0  0  0  0  0  0  0  0  0  0  0
   59.5960   28.8840   52.0700 N   0  0  0  0  0  0  0  0  0  0  0  0
   59.6950   27.6620   48.8520 C   0  0  0  0  0  0  0  0  0  0  0  0
   59.4320   28.4200   47.5470 C   0  0  2  0  0  0  0  0  0  0  0  0
   58.9680   27.6770   46.3550 C   0  0  0  0  0  0  0  0  0  0  0  0
   58.0000   26.6740   46.2730 C   0  0  0  0  0  0  0  0  0  0  0  0
   57.5890   26.2460   45.0010 C   0  0  0  0  0  0  0  0  0  0  0  0
   58.1200   26.8460   43.8430 C   0  0  0  0  0  0  0  0  0  0  0  0
   59.0590   27.8820   43.9510 C   0  0  0  0  0  0  0  0  0  0  0  0
   59.4670   28.2860   45.2230 C   0  0  0  0  0  0  0  0  0  0  0  0
   60.4120   29.3930   45.5640 C   0  0  0  0  0  0  0  0  0  0  0  0
   60.7170   29.0900   47.0450 C   0  0  1  0  0  0  0  0  0  0  0  0
   59.8250   33.3278   51.5226 H   0  0  0  0  0  0  0  0  0  0  0  0
   60.3805   34.6952   50.4988 H   0  0  0  0  0  0  0  0  0  0  0  0
   58.6485   34.2190   50.4988 H   0  0  0  0  0  0  0  0  0  0  0  0
   60.7168   32.1600   49.7381 H   0  0  0  0  0  0  0  0  0  0  0  0
   58.9865   32.3994   49.1762 H   0  0  0  0  0  0  0  0  0  0  0  0
   58.4680   34.3118   48.0034 H   0  0  0  0  0  0  0  0  0  0  0  0
   59.8114   35.5292   48.1598 H   0  0  0  0  0  0  0  0  0  0  0  0
   58.7993   35.5591   45.9063 H   0  0  0  0  0  0  0  0  0  0  0  0
   60.5391   35.0528   45.8871 H   0  0  0  0  0  0  0  0  0  0  0  0
   57.3302   32.9781   46.3135 H   0  0  0  0  0  0  0  0  0  0  0  0
   56.5369   35.0563   45.7574 H   0  0  0  0  0  0  0  0  0  0  0  0
   57.5347   35.1660   44.2678 H   0  0  0  0  0  0  0  0  0  0  0  0
   56.0248   34.1930   44.2678 H   0  0  0  0  0  0  0  0  0  0  0  0
   56.8944   32.5445   43.4230 H   0  0  0  0  0  0  0  0  0  0  0  0
   58.4215   31.7487   43.9403 H   0  0  0  0  0  0  0  0  0  0  0  0
   56.0874   29.1801   44.4381 H   0  0  0  0  0  0  0  0  0  0  0  0
   55.5562   30.4582   43.2931 H   0  0  0  0  0  0  0  0  0  0  0  0
   57.2656   29.9063   43.2931 H   0  0  0  0  0  0  0  0  0  0  0  0
   59.1168   31.6736   46.4994 H   0  0  0  0  0  0  0  0  0  0  0  0
   60.3721   31.8404   45.1748 H   0  0  0  0  0  0  0  0  0  0  0  0
   61.7303   33.2582   46.5613 H   0  0  0  0  0  0  0  0  0  0  0  0
   61.6315   30.4243   49.9655 H   0  0  0  0  0  0  0  0  0  0  0  0
   59.8415   30.4836   49.6696 H   0  0  0  0  0  0  0  0  0  0  0  0
   61.6545   28.0590   49.5093 H   0  0  0  0  0  0  0  0  0  0  0  0
   62.7824   26.0200   52.4558 H   0  0  0  0  0  0  0  0  0  0  0  0
   61.8404   25.6372   50.9750 H   0  0  0  0  0  0  0  0  0  0  0  0
   62.9932   27.0148   50.9750 H   0  0  0  0  0  0  0  0  0  0  0  0
   56.7497   31.1702   54.6425 H   0  0  0  0  0  0  0  0  0  0  0  0
   55.8516   32.5044   52.7143 H   0  0  0  0  0  0  0  0  0  0  0  0
   56.7345   32.1296   50.4060 H   0  0  0  0  0  0  0  0  0  0  0  0
   58.5247   30.4224   49.9941 H   0  0  0  0  0  0  0  0  0  0  0  0
   60.1451   26.6851   48.6217 H   0  0  0  0  0  0  0  0  0  0  0  0
   58.7433   27.5175   49.3842 H   0  0  0  0  0  0  0  0  0  0  0  0
   58.6147   29.0780   47.8773 H   0  0  0  0  0  0  0  0  0  0  0  0
   57.5700   26.2301   47.1830 H   0  0  0  0  0  0  0  0  0  0  0  0
   56.8485   25.4379   44.9083 H   0  0  0  0  0  0  0  0  0  0  0  0
   57.7970   26.5007   42.8498 H   0  0  0  0  0  0  0  0  0  0  0  0
   59.4658   28.3665   43.0511 H   0  0  0  0  0  0  0  0  0  0  0  0
   61.3227   29.3480   44.9486 H   0  0  0  0  0  0  0  0  0  0  0  0
   60.0068   30.4000   45.3860 H   0  0  0  0  0  0  0  0  0  0  0  0
   61.6484   28.5051   47.0646 H   0  0  0  0  0  0  0  0  0  0  0  0
  1  2  1  0
  2  3  1  0
  3  4  1  0
  4  5  1  0
  5  6  1  0
  6  7  1  0
  7  8  1  0
  7  9  1  0
  9 10  1  0
 10 11  1  0
  6 12  1  0
 12 13  1  0
 13 14  1  0
 14 15  2  0
 14 16  1  0
 16 17  1  0
 17 18  1  0
 18 19  1  0
 19 20  2  0
 20 21  1  0
 20 22  1  0
 22 23  2  0
 23 24  1  0
 24 25  1  0
 25 26  2  0
 26 27  1  0
 27 28  2  0
 28 29  1  0
 29 30  2  0
 30 31  1  0
 18 32  1  0
 32 33  1  0
 33 34  1  0
 34 35  2  0
 35 36  1  0
 36 37  2  0
 37 38  1  0
 38 39  2  0
 39 40  1  0
 40 41  1  0
 13  3  1  0
 41 16  1  0
 31 19  1  0
 41 33  1  0
 31 23  1  0
 39 34  1  0
 30 25  1  0
  1 42  1  0
  1 43  1  0
  1 44  1  0
  2 45  1  0
  2 46  1  0
  4 47  1  0
  4 48  1  0
  5 49  1  0
  5 50  1  0
  7 51  1  1
  8 52  1  0
  8 53  1  0
  8 54  1  0
  9 55  1  0
  9 56  1  0
 11 57  1  0
 11 58  1  0
 11 59  1  0
 12 60  1  0
 12 61  1  0
 13 62  1  6
 17 63  1  0
 17 64  1  0
 18 65  1  6
 21 66  1  0
 21 67  1  0
 21 68  1  0
 26 69  1  0
 27 70  1  0
 28 71  1  0
 29 72  1  0
 32 73  1  0
 32 74  1  0
 33 75  1  1
 35 76  1  0
 36 77  1  0
 37 78  1  0
 38 79  1  0
 40 80  1  0
 40 81  1  0
 41 82  1  6
M  END
>  <UniqueID>  (34) 
30

>  <SMILES>  (34) 
CCN1CCN([C@@H](C)COC)C[C@@H]1C(=O)N1CC(c2c(C)nc3sc4ccccc4n23)CC2c3ccccc3CC21

>  <Energy>  (34) 
230.32136794910994

>  <Genealogy>  (34) 
CCN1CCN([C@@H](C)COC)C[C@@H]1C(=O)N1CC(c2c(C)nc3sc4ccccc4n23)CC2c3ccccc3CC21 (chirality)
CCN1CCN([C@@H](C)COC)C[C@@H]1C(=O)N1CC(c2c(C)nc3sc4ccccc4n23)CC2c3ccccc3CC21 (3D coordinates assigned)
CCN1CCN([C@@H](C)COC)C[C@@H]1C(=O)N1CC(c2c(C)nc3sc4ccccc4n23)CC2c3ccccc3CC21 (nonaromatic ring conformer: 230.32136794910994 kcal/mol)

>  <smiles>  (34) 
CCN1CCN(C(C)COC)CC1C(=O)N1CC(c2c(C)nc3sc4ccccc4n23)CC2c3ccccc3CC21

>  <score_type>  (34) 
oracle

>  <origin>  (34) 
adg

>  <m_score__min__energy>  (34) 
-10.91

>  <m_primary>  (34) 
energy

$$$$
34:0
     RDKit          3D

 53 57  0  0  0  0  0  0  0  0999 V2000
   55.0730   23.7330   46.5950 C   0  0  0  0  0  0  0  0  0  0  0  0
   54.4300   24.6990   45.6050 C   0  0  0  0  0  0  0  0  0  0  0  0
   54.6970   26.0810   45.9890 N   0  0  0  0  0  0  0  0  0  0  0  0
   55.9960   26.6810   45.9380 C   0  0  0  0  0  0  0  0  0  0  0  0
   57.0270   25.9940   46.1830 O   0  0  0  0  0  0  0  0  0  0  0  0
   56.1040   28.0370   45.6230 O   0  0  0  0  0  0  0  0  0  0  0  0
   57.0610   28.5360   44.6940 C   0  0  0  0  0  0  0  0  0  0  0  0
   58.1780   29.1930   45.4480 C   0  0  0  0  0  0  0  0  0  0  0  0
   59.3710   28.4930   45.7660 C   0  0  0  0  0  0  0  0  0  0  0  0
   60.4720   29.1650   46.3580 C   0  0  0  0  0  0  0  0  0  0  0  0
   60.3460   30.5130   46.7450 C   0  0  0  0  0  0  0  0  0  0  0  0
   59.1130   31.1080   46.5710 C   0  0  0  0  0  0  0  0  0  0  0  0
   58.1050   30.5390   45.8220 C   0  0  0  0  0  0  0  0  0  0  0  0
   57.2620   31.5440   45.3130 O   0  0  0  0  0  0  0  0  0  0  0  0
   58.0950   32.7020   45.4150 C   0  0  1  0  0  0  0  0  0  0  0  0
   57.7190   34.1440   45.1420 C   0  0  0  0  0  0  0  0  0  0  0  0
   59.0720   34.9640   45.0630 C   0  0  0  0  0  0  0  0  0  0  0  0
   60.3660   34.2310   45.6210 C   0  0  0  0  0  0  0  0  0  0  0  0
   60.0030   33.4920   46.9250 C   0  0  2  0  0  0  0  0  0  0  0  0
   61.0170   32.7210   47.8090 C   0  0  2  0  0  0  0  0  0  0  0  0
   61.5100   31.4120   47.1170 C   0  0  0  0  0  0  0  0  0  0  0  0
   60.3500   32.3040   49.0910 N   0  0  0  0  0  0  0  0  0  0  0  0
   61.1880   32.6190   50.2580 C   0  0  0  0  0  0  0  0  0  0  0  0
   58.9370   32.7480   49.3250 C   0  0  0  0  0  0  0  0  0  0  0  0
   57.9970   32.6480   48.0710 C   0  0  0  0  0  0  0  0  0  0  0  0
   58.8150   32.5420   46.7580 C   0  0  2  0  0  0  0  0  0  0  0  0
   54.8546   24.0611   47.6220 H   0  0  0  0  0  0  0  0  0  0  0  0
   54.6664   22.7230   46.4385 H   0  0  0  0  0  0  0  0  0  0  0  0
   56.1617   23.7183   46.4385 H   0  0  0  0  0  0  0  0  0  0  0  0
   54.8426   24.5164   44.6018 H   0  0  0  0  0  0  0  0  0  0  0  0
   53.3423   24.5348   45.6048 H   0  0  0  0  0  0  0  0  0  0  0  0
   57.4601   27.7051   44.0938 H   0  0  0  0  0  0  0  0  0  0  0  0
   56.5833   29.2677   44.0258 H   0  0  0  0  0  0  0  0  0  0  0  0
   59.4431   27.4166   45.5510 H   0  0  0  0  0  0  0  0  0  0  0  0
   61.4224   28.6336   46.5143 H   0  0  0  0  0  0  0  0  0  0  0  0
   58.6441   32.6447   44.4636 H   0  0  0  0  0  0  0  0  0  0  0  0
   57.1746   34.2193   44.1891 H   0  0  0  0  0  0  0  0  0  0  0  0
   57.0652   34.5376   45.9342 H   0  0  0  0  0  0  0  0  0  0  0  0
   59.2545   35.2106   44.0067 H   0  0  0  0  0  0  0  0  0  0  0  0
   58.9253   35.8400   45.7119 H   0  0  0  0  0  0  0  0  0  0  0  0
   60.7297   33.5076   44.8764 H   0  0  0  0  0  0  0  0  0  0  0  0
   61.1546   34.9713   45.8212 H   0  0  0  0  0  0  0  0  0  0  0  0
   59.8381   34.4238   47.4859 H   0  0  0  0  0  0  0  0  0  0  0  0
   61.8683   33.3951   47.9846 H   0  0  0  0  0  0  0  0  0  0  0  0
   62.0646   31.6761   46.2045 H   0  0  0  0  0  0  0  0  0  0  0  0
   62.1566   30.8689   47.8220 H   0  0  0  0  0  0  0  0  0  0  0  0
   60.6267   32.4080   51.1802 H   0  0  0  0  0  0  0  0  0  0  0  0
   62.0980   32.0016   50.2333 H   0  0  0  0  0  0  0  0  0  0  0  0
   61.4660   33.6830   50.2333 H   0  0  0  0  0  0  0  0  0  0  0  0
   58.5100   32.1229   50.1230 H   0  0  0  0  0  0  0  0  0  0  0  0
   58.9881   33.8148   49.5883 H   0  0  0  0  0  0  0  0  0  0  0  0
   57.3619   31.7554   48.1701 H   0  0  0  0  0  0  0  0  0  0  0  0
   57.3838   33.5600   48.0243 H   0  0  0  0  0  0  0  0  0  0  0  0
  1  2  1  0
  2  3  1  0
  3  4  1  0
  4  5  2  0
  4  6  1  0
  6  7  1  0
  7  8  1  0
  8  9  2  0
  9 10  1  0
 10 11  2  0
 11 12  1  0
 12 13  2  0
 13 14  1  0
 14 15  1  0
 15 16  1  0
 16 17  1  0
 17 18  1  0
 18 19  1  0
 19 20  1  0
 20 21  1  0
 20 22  1  0
 22 23  1  0
 22 24  1  0
 24 25  1  0
 26 25  1  1
 13  8  1  0
 26 15  1  0
 21 11  1  0
 26 12  1  0
 26 19  1  0
  1 27  1  0
  1 28  1  0
  1 29  1  0
  2 30  1  0
  2 31  1  0
  7 32  1  0
  7 33  1  0
  9 34  1  0
 10 35  1  0
 15 36  1  6
 16 37  1  0
 16 38  1  0
 17 39  1  0
 17 40  1  0
 18 41  1  0
 18 42  1  0
 19 43  1  1
 20 44  1  1
 21 45  1  0
 21 46  1  0
 23 47  1  0
 23 48  1  0
 23 49  1  0
 24 50  1  0
 24 51  1  0
 25 52  1  0
 25 53  1  0
M  CHG  1   3  -1
M  END
>  <UniqueID>  (35) 
31

>  <SMILES>  (35) 
CC[N-]C(=O)OCc1ccc2c3c1O[C@H]1CCC[C@@H]4C(C2)N(C)CCC314

>  <Energy>  (35) 
154.6074865658828

>  <Genealogy>  (35) 
CC[N-]C(=O)OCc1ccc2c3c1OC1CCCC4C(C2)N(C)CCC314 (protonated)
CC[N-]C(=O)OCc1ccc2c3c1O[C@H]1CCC[C@@H]4C(C2)N(C)CCC314 (chirality)
CC[N-]C(=O)OCc1ccc2c3c1O[C@H]1CCC[C@@H]4C(C2)N(C)CCC314 (3D coordinates assigned)
CC[N-]C(=O)OCc1ccc2c3c1O[C@H]1CCC[C@@H]4C(C2)N(C)CCC314 (nonaromatic ring conformer: 154.6074865658828 kcal/mol)

>  <smiles>  (35) 
CCNC(=O)OCc1ccc2c3c1OC1CCCC4C(C2)N(C)CCC314

>  <score_type>  (35) 
oracle

>  <origin>  (35) 
adg

>  <m_score__min__energy>  (35) 
-11.050000000000001

>  <m_primary>  (35) 
energy

$$$$
35:0
     RDKit          3D

 36 39  0  0  0  0  0  0  0  0999 V2000
   61.1480   30.2370   46.7490 C   0  0  0  0  0  0  0  0  0  0  0  0
   60.8050   28.9730   45.9660 C   0  0  0  0  0  0  0  0  0  0  0  0
   59.3170   28.8540   45.7580 C   0  0  0  0  0  0  0  0  0  0  0  0
   58.6580   29.9320   45.2500 N   0  0  0  0  0  0  0  0  0  0  0  0
   57.3220   29.9150   45.0060 C   0  0  0  0  0  0  0  0  0  0  0  0
   56.6400   31.1440   44.4960 C   0  0  0  0  0  0  0  0  0  0  0  0
   57.3890   32.3690   44.9430 C   0  0  0  0  0  0  0  0  0  0  0  0
   57.3830   32.7480   46.2960 C   0  0  0  0  0  0  0  0  0  0  0  0
   58.1100   33.8660   46.7160 C   0  0  0  0  0  0  0  0  0  0  0  0
   58.8550   34.6050   45.7930 C   0  0  0  0  0  0  0  0  0  0  0  0
   58.8790   34.2250   44.4480 C   0  0  0  0  0  0  0  0  0  0  0  0
   58.1530   33.1080   44.0240 C   0  0  0  0  0  0  0  0  0  0  0  0
   56.5950   28.8020   45.2820 N   0  0  0  0  0  0  0  0  0  0  0  0
   57.1920   27.6910   45.7800 C   0  0  0  0  0  0  0  0  0  0  0  0
   58.5910   27.6710   46.0330 C   0  0  0  0  0  0  0  0  0  0  0  0
   59.1880   26.4810   46.5480 C   0  0  0  0  0  0  0  0  0  0  0  0
   58.4040   25.3400   46.8080 C   0  0  0  0  0  0  0  0  0  0  0  0
   57.0400   25.4210   46.5460 C   0  0  0  0  0  0  0  0  0  0  0  0
   56.0930   24.4870   46.7060 N   0  0  0  0  0  0  0  0  0  0  0  0
   54.9900   25.0730   46.3100 O   0  0  0  0  0  0  0  0  0  0  0  0
   55.1490   26.3100   45.9070 N   0  0  0  0  0  0  0  0  0  0  0  0
   56.4620   26.5410   46.0550 C   0  0  0  0  0  0  0  0  0  0  0  0
   61.0910   30.0271   47.8273 H   0  0  0  0  0  0  0  0  0  0  0  0
   62.1669   30.5623   46.4921 H   0  0  0  0  0  0  0  0  0  0  0  0
   60.4333   31.0327   46.4921 H   0  0  0  0  0  0  0  0  0  0  0  0
   61.3034   29.0104   44.9861 H   0  0  0  0  0  0  0  0  0  0  0  0
   61.1496   28.1004   46.5404 H   0  0  0  0  0  0  0  0  0  0  0  0
   56.6110   31.1153   43.3968 H   0  0  0  0  0  0  0  0  0  0  0  0
   55.6154   31.1809   44.8946 H   0  0  0  0  0  0  0  0  0  0  0  0
   56.8048   32.1635   47.0268 H   0  0  0  0  0  0  0  0  0  0  0  0
   58.0956   34.1644   47.7747 H   0  0  0  0  0  0  0  0  0  0  0  0
   59.4230   35.4865   46.1252 H   0  0  0  0  0  0  0  0  0  0  0  0
   59.4692   34.8049   43.7231 H   0  0  0  0  0  0  0  0  0  0  0  0
   58.1800   32.8064   42.9665 H   0  0  0  0  0  0  0  0  0  0  0  0
   60.2702   26.4548   46.7436 H   0  0  0  0  0  0  0  0  0  0  0  0
   58.8541   24.4178   47.2041 H   0  0  0  0  0  0  0  0  0  0  0  0
  1  2  1  0
  2  3  1  0
  3  4  2  0
  4  5  1  0
  5  6  1  0
  6  7  1  0
  7  8  2  0
  8  9  1  0
  9 10  2  0
 10 11  1  0
 11 12  2  0
  5 13  2  0
 13 14  1  0
 14 15  2  0
 15 16  1  0
 16 17  2  0
 17 18  1  0
 18 19  2  0
 19 20  1  0
 20 21  1  0
 21 22  2  0
 15  3  1  0
 22 18  1  0
 12  7  1  0
 22 14  1  0
  1 23  1  0
  1 24  1  0
  1 25  1  0
  2 26  1  0
  2 27  1  0
  6 28  1  0
  6 29  1  0
  8 30  1  0
  9 31  1  0
 10 32  1  0
 11 33  1  0
 12 34  1  0
 16 35  1  0
 17 36  1  0
M  END
>  <UniqueID>  (36) 
32

>  <SMILES>  (36) 
CCc1nc(Cc2ccccc2)nc2c1ccc1nonc12

>  <Energy>  (36) 
83.57871411875166

>  <Genealogy>  (36) 
CCc1nc(Cc2ccccc2)nc2c1ccc1nonc12 (3D coordinates assigned)
CCc1nc(Cc2ccccc2)nc2c1ccc1nonc12 (optimized conformer: 83.57871411875166 kcal/mol)

>  <smiles>  (36) 
CCc1nc(Cc2ccccc2)nc2c1ccc1nonc12

>  <score_type>  (36) 
oracle

>  <origin>  (36) 
adg

>  <m_score__min__energy>  (36) 
-8.4199999999999999

>  <m_primary>  (36) 
energy

$$$$
36:0
     RDKit          3D

 49 51  0  0  0  0  0  0  0  0999 V2000
   59.2280   34.6210   47.3050 C   0  0  0  0  0  0  0  0  0  0  0  0
   59.6220   34.3350   45.8590 C   0  0  0  0  0  0  0  0  0  0  0  0
   58.5360   34.8060   44.8840 C   0  0  0  0  0  0  0  0  0  0  0  0
   57.3510   33.8360   44.8300 C   0  0  0  0  0  0  0  0  0  0  0  0
   57.8070   32.4510   44.9000 N   0  0  0  0  0  0  0  0  0  0  0  0
   58.1790   31.7340   43.8520 N   0  0  0  0  0  0  0  0  0  0  0  0
   58.5540   30.5440   44.2850 N   0  0  0  0  0  0  0  0  0  0  0  0
   58.4000   30.5630   45.6220 C   0  0  0  0  0  0  0  0  0  0  0  0
   58.7330   29.4050   46.5340 C   0  0  2  0  0  0  0  0  0  0  0  0
   60.2640   29.2570   46.8130 C   0  0  1  0  0  0  0  0  0  0  0  0
   60.8140   30.4780   47.5230 C   0  0  0  0  0  0  0  0  0  0  0  0
   62.0280   31.0570   47.1070 C   0  0  0  0  0  0  0  0  0  0  0  0
   62.5260   32.1940   47.7500 C   0  0  0  0  0  0  0  0  0  0  0  0
   61.8210   32.7650   48.8130 C   0  0  0  0  0  0  0  0  0  0  0  0
   62.4480   34.1920   49.6180 Cl  0  0  0  0  0  0  0  0  0  0  0  0
   60.6160   32.1960   49.2360 C   0  0  0  0  0  0  0  0  0  0  0  0
   60.1140   31.0600   48.5950 C   0  0  0  0  0  0  0  0  0  0  0  0
   60.6430   28.0910   47.5430 O   0  0  0  0  0  0  0  0  0  0  0  0
   59.5430   27.3390   48.0140 C   0  0  0  0  0  0  0  0  0  0  0  0
   58.6140   26.9480   46.8590 C   0  0  0  0  0  0  0  0  0  0  0  0
   58.1180   28.1220   46.1040 N   0  0  0  0  0  0  0  0  0  0  0  0
   58.1220   27.7940   44.3750 S   0  0  0  0  0  0  0  0  0  0  0  0
   57.7880   26.0830   44.0000 C   0  0  0  0  0  0  0  0  0  0  0  0
   59.4450   28.1830   43.7800 O   0  0  0  0  0  0  0  0  0  0  0  0
   57.0560   28.6280   43.7200 O   0  0  0  0  0  0  0  0  0  0  0  0
   57.9370   31.7650   46.0250 N   0  0  0  0  0  0  0  0  0  0  0  0
   59.9287   34.1124   47.9834 H   0  0  0  0  0  0  0  0  0  0  0  0
   59.2632   35.7053   47.4870 H   0  0  0  0  0  0  0  0  0  0  0  0
   58.2080   34.2516   47.4870 H   0  0  0  0  0  0  0  0  0  0  0  0
   60.5606   34.8618   45.6321 H   0  0  0  0  0  0  0  0  0  0  0  0
   59.7482   33.2486   45.7410 H   0  0  0  0  0  0  0  0  0  0  0  0
   58.1725   35.7926   45.2073 H   0  0  0  0  0  0  0  0  0  0  0  0
   58.9805   34.8546   43.8790 H   0  0  0  0  0  0  0  0  0  0  0  0
   56.6815   34.0379   45.6791 H   0  0  0  0  0  0  0  0  0  0  0  0
   56.8199   33.9831   43.8780 H   0  0  0  0  0  0  0  0  0  0  0  0
   58.9040   29.7630   43.6870 H   0  0  0  0  0  0  0  0  0  0  0  0
   58.2677   29.6632   47.4967 H   0  0  0  0  0  0  0  0  0  0  0  0
   60.7032   29.1530   45.8098 H   0  0  0  0  0  0  0  0  0  0  0  0
   62.5879   30.6121   46.2712 H   0  0  0  0  0  0  0  0  0  0  0  0
   63.4751   32.6403   47.4184 H   0  0  0  0  0  0  0  0  0  0  0  0
   60.0621   32.6431   50.0746 H   0  0  0  0  0  0  0  0  0  0  0  0
   59.1646   30.6179   48.9314 H   0  0  0  0  0  0  0  0  0  0  0  0
   59.9136   26.4261   48.5031 H   0  0  0  0  0  0  0  0  0  0  0  0
   58.9763   27.9542   48.7284 H   0  0  0  0  0  0  0  0  0  0  0  0
   59.1663   26.2931   46.1690 H   0  0  0  0  0  0  0  0  0  0  0  0
   57.7411   26.4375   47.2919 H   0  0  0  0  0  0  0  0  0  0  0  0
   57.6775   25.5171   44.9368 H   0  0  0  0  0  0  0  0  0  0  0  0
   56.8587   26.0103   43.4159 H   0  0  0  0  0  0  0  0  0  0  0  0
   58.6217   25.6661   43.4159 H   0  0  0  0  0  0  0  0  0  0  0  0
  1  2  1  0
  2  3  1  0
  3  4  1  0
  4  5  1  0
  5  6  1  0
  6  7  2  0
  7  8  1  0
  8  9  1  0
  9 10  1  0
 10 11  1  0
 11 12  2  0
 12 13  1  0
 13 14  2  0
 14 15  1  0
 14 16  1  0
 16 17  2  0
 10 18  1  0
 18 19  1  0
 19 20  1  0
 20 21  1  0
 21 22  1  0
 22 23  1  0
 22 24  2  0
 22 25  2  0
  8 26  2  0
 26  5  1  0
 21  9  1  0
 17 11  1  0
  1 27  1  0
  1 28  1  0
  1 29  1  0
  2 30  1  0
  2 31  1  0
  3 32  1  0
  3 33  1  0
  4 34  1  0
  4 35  1  0
  7 36  1  0
  9 37  1  1
 10 38  1  6
 12 39  1  0
 13 40  1  0
 16 41  1  0
 17 42  1  0
 19 43  1  0
 19 44  1  0
 20 45  1  0
 20 46  1  0
 23 47  1  0
 23 48  1  0
 23 49  1  0
M  CHG  1   7   1
M  END
>  <UniqueID>  (37) 
33

>  <SMILES>  (37) 
CCCCn1n[nH+]c([C@@H]2[C@@H](c3ccc(Cl)cc3)OCCN2S(C)(=O)=O)n1

>  <Energy>  (37) 
94.74620727460602

>  <Genealogy>  (37) 
CCCCn1n[nH+]c(C2C(c3ccc(Cl)cc3)OCCN2S(C)(=O)=O)n1 (protonated)
CCCCn1n[nH+]c([C@@H]2[C@@H](c3ccc(Cl)cc3)OCCN2S(C)(=O)=O)n1 (chirality)
CCCCn1n[nH+]c([C@@H]2[C@@H](c3ccc(Cl)cc3)OCCN2S(C)(=O)=O)n1 (3D coordinates assigned)
CCCCn1n[nH+]c([C@@H]2[C@@H](c3ccc(Cl)cc3)OCCN2S(C)(=O)=O)n1 (nonaromatic ring conformer: 94.74620727460602 kcal/mol)

>  <smiles>  (37) 
CCCCn1nnc(C2C(c3ccc(Cl)cc3)OCCN2S(C)(=O)=O)n1

>  <score_type>  (37) 
oracle

>  <origin>  (37) 
adg

>  <m_score__min__energy>  (37) 
-6.8200000000000003

>  <m_primary>  (37) 
energy

$$$$
37:0
     RDKit          3D

 49 52  0  0  0  0  0  0  0  0999 V2000
   66.0320   31.5390   50.8330 C   0  0  0  0  0  0  0  0  0  0  0  0
   64.6060   31.7010   50.2910 C   0  0  0  0  0  0  0  0  0  0  0  0
   64.4160   32.9900   49.5790 N   0  0  0  0  0  0  0  0  0  0  0  0
   63.7320   32.7960   48.2620 C   0  0  0  0  0  0  0  0  0  0  0  0
   62.6510   33.8440   47.9700 C   0  0  0  0  0  0  0  0  0  0  0  0
   61.7040   33.8770   49.0880 N   0  0  0  0  0  0  0  0  0  0  0  0
   60.2990   34.0890   48.8610 C   0  0  0  0  0  0  0  0  0  0  0  0
   59.6850   34.9500   49.5480 O   0  0  0  0  0  0  0  0  0  0  0  0
   59.5520   33.3060   47.8500 C   0  0  0  0  0  0  0  0  0  0  0  0
   58.3950   33.8320   47.2530 C   0  0  0  0  0  0  0  0  0  0  0  0
   57.6980   33.0980   46.2900 C   0  0  0  0  0  0  0  0  0  0  0  0
   58.1530   31.8340   45.9050 C   0  0  0  0  0  0  0  0  0  0  0  0
   57.4730   31.1280   44.9730 N   0  0  0  0  0  0  0  0  0  0  0  0
   57.8840   29.8960   44.5680 C   0  0  0  0  0  0  0  0  0  0  0  0
   57.1360   29.2040   43.5940 C   0  0  0  0  0  0  0  0  0  0  0  0
   55.8940   29.8090   42.9970 C   0  0  0  0  0  0  0  0  0  0  0  0
   57.5670   27.9390   43.1830 C   0  0  0  0  0  0  0  0  0  0  0  0
   58.7150   27.3820   43.7350 C   0  0  0  0  0  0  0  0  0  0  0  0
   59.4320   28.0900   44.6960 C   0  0  0  0  0  0  0  0  0  0  0  0
   59.0220   29.3330   45.1090 N   0  0  0  0  0  0  0  0  0  0  0  0
   59.7400   30.0230   46.0590 C   0  0  0  0  0  0  0  0  0  0  0  0
   60.7850   29.5180   46.5620 O   0  0  0  0  0  0  0  0  0  0  0  0
   59.3170   31.2960   46.4800 C   0  0  0  0  0  0  0  0  0  0  0  0
   60.0160   32.0400   47.4500 C   0  0  0  0  0  0  0  0  0  0  0  0
   62.2220   33.8620   50.4590 C   0  0  0  0  0  0  0  0  0  0  0  0
   63.7540   33.9840   50.4660 C   0  0  0  0  0  0  0  0  0  0  0  0
   66.0088   31.5416   51.9328 H   0  0  0  0  0  0  0  0  0  0  0  0
   66.4535   30.5872   50.4774 H   0  0  0  0  0  0  0  0  0  0  0  0
   66.6562   32.3720   50.4774 H   0  0  0  0  0  0  0  0  0  0  0  0
   64.3975   30.8772   49.5926 H   0  0  0  0  0  0  0  0  0  0  0  0
   63.9168   31.6857   51.1482 H   0  0  0  0  0  0  0  0  0  0  0  0
   65.3720   33.3760   49.3840 H   0  0  0  0  0  0  0  0  0  0  0  0
   64.4896   32.8471   47.4661 H   0  0  0  0  0  0  0  0  0  0  0  0
   63.2302   31.8179   48.3007 H   0  0  0  0  0  0  0  0  0  0  0  0
   63.1182   34.8330   47.8531 H   0  0  0  0  0  0  0  0  0  0  0  0
   62.1214   33.5829   47.0419 H   0  0  0  0  0  0  0  0  0  0  0  0
   58.0348   34.8293   47.5457 H   0  0  0  0  0  0  0  0  0  0  0  0
   56.7887   33.5161   45.8336 H   0  0  0  0  0  0  0  0  0  0  0  0
   55.2216   30.1366   43.8036 H   0  0  0  0  0  0  0  0  0  0  0  0
   56.1696   30.6738   42.3755 H   0  0  0  0  0  0  0  0  0  0  0  0
   55.3830   29.0589   42.3755 H   0  0  0  0  0  0  0  0  0  0  0  0
   56.9976   27.3843   42.4227 H   0  0  0  0  0  0  0  0  0  0  0  0
   59.0554   26.3864   43.4140 H   0  0  0  0  0  0  0  0  0  0  0  0
   60.3401   27.6467   45.1304 H   0  0  0  0  0  0  0  0  0  0  0  0
   60.9320   31.6278   47.8983 H   0  0  0  0  0  0  0  0  0  0  0  0
   61.7906   34.7064   51.0166 H   0  0  0  0  0  0  0  0  0  0  0  0
   61.9425   32.9084   50.9306 H   0  0  0  0  0  0  0  0  0  0  0  0
   64.0276   34.9942   50.1274 H   0  0  0  0  0  0  0  0  0  0  0  0
   64.0967   33.7909   51.4933 H   0  0  0  0  0  0  0  0  0  0  0  0
  1  2  1  0
  2  3  1  0
  3  4  1  0
  4  5  1  0
  5  6  1  0
  6  7  1  0
  7  8  2  0
  7  9  1  0
  9 10  2  0
 10 11  1  0
 11 12  2  0
 12 13  1  0
 13 14  2  0
 14 15  1  0
 15 16  1  0
 15 17  2  0
 17 18  1  0
 18 19  2  0
 19 20  1  0
 20 21  1  0
 21 22  2  0
 21 23  1  0
 23 24  2  0
  6 25  1  0
 25 26  1  0
 26  3  1  0
 24  9  1  0
 23 12  1  0
 20 14  1  0
  1 27  1  0
  1 28  1  0
  1 29  1  0
  2 30  1  0
  2 31  1  0
  3 32  1  0
  4 33  1  0
  4 34  1  0
  5 35  1  0
  5 36  1  0
 10 37  1  0
 11 38  1  0
 16 39  1  0
 16 40  1  0
 16 41  1  0
 17 42  1  0
 18 43  1  0
 19 44  1  0
 24 45  1  0
 25 46  1  0
 25 47  1  0
 26 48  1  0
 26 49  1  0
M  CHG  1   3   1
M  END
>  <UniqueID>  (38) 
34

>  <SMILES>  (38) 
CC[NH+]1CCN(C(=O)c2ccc3nc4c(C)cccn4c(=O)c3c2)CC1

>  <Energy>  (38) 
74.04827057302508

>  <Genealogy>  (38) 
CC[NH+]1CCN(C(=O)c2ccc3nc4c(C)cccn4c(=O)c3c2)CC1 (protonated)
CC[NH+]1CCN(C(=O)c2ccc3nc4c(C)cccn4c(=O)c3c2)CC1 (3D coordinates assigned)
CC[NH+]1CCN(C(=O)c2ccc3nc4c(C)cccn4c(=O)c3c2)CC1 (nonaromatic ring conformer: 74.04827057302508 kcal/mol)

>  <smiles>  (38) 
CCN1CCN(C(=O)c2ccc3nc4c(C)cccn4c(=O)c3c2)CC1

>  <score_type>  (38) 
oracle

>  <origin>  (38) 
adg

>  <m_score__min__energy>  (38) 
-6.7000000000000002

>  <m_primary>  (38) 
energy

$$$$
38:0
     RDKit          3D

 35 37  0  0  0  0  0  0  0  0999 V2000
   59.4280   27.5360   46.1050 C   0  0  0  0  0  0  0  0  0  0  0  0
   57.6890   27.8050   46.5700 S   0  0  0  0  0  0  0  0  0  0  0  0
   57.5020   29.3220   45.6250 C   0  0  0  0  0  0  0  0  0  0  0  0
   56.4810   29.4380   44.8410 N   0  0  0  0  0  0  0  0  0  0  0  0
   56.2670   30.5840   43.9860 C   0  0  0  0  0  0  0  0  0  0  0  0
   57.6090   31.0550   43.4230 C   0  0  1  0  0  0  0  0  0  0  0  0
   57.4110   32.1970   42.4220 C   0  0  0  0  0  0  0  0  0  0  0  0
   58.4950   31.3610   44.5650 N   0  0  0  0  0  0  0  0  0  0  0  0
   58.7260   32.6460   45.1550 C   0  0  0  0  0  0  0  0  0  0  0  0
   59.0300   33.8510   44.4990 C   0  0  0  0  0  0  0  0  0  0  0  0
   59.2640   35.0020   45.2680 C   0  0  0  0  0  0  0  0  0  0  0  0
   59.2300   34.9380   46.6700 C   0  0  0  0  0  0  0  0  0  0  0  0
   58.9980   33.7140   47.3110 C   0  0  0  0  0  0  0  0  0  0  0  0
   58.7820   32.5760   46.5260 C   0  0  0  0  0  0  0  0  0  0  0  0
   58.5860   31.1770   46.9890 C   0  0  2  0  0  0  0  0  0  0  0  0
   59.6920   30.7320   47.9550 C   0  0  0  0  0  0  0  0  0  0  0  0
   58.6100   30.3700   45.6570 C   0  0  1  0  0  0  0  0  0  0  0  0
   60.0402   27.4413   47.0140 H   0  0  0  0  0  0  0  0  0  0  0  0
   59.5101   26.6145   45.5100 H   0  0  0  0  0  0  0  0  0  0  0  0
   59.7847   28.3896   45.5100 H   0  0  0  0  0  0  0  0  0  0  0  0
   55.5993   30.3045   43.1578 H   0  0  0  0  0  0  0  0  0  0  0  0
   55.8072   31.3962   44.5681 H   0  0  0  0  0  0  0  0  0  0  0  0
   58.1036   30.2712   42.8306 H   0  0  0  0  0  0  0  0  0  0  0  0
   57.2478   33.1383   42.9672 H   0  0  0  0  0  0  0  0  0  0  0  0
   58.3064   32.2899   41.7899 H   0  0  0  0  0  0  0  0  0  0  0  0
   56.5366   31.9830   41.7899 H   0  0  0  0  0  0  0  0  0  0  0  0
   59.0837   33.8917   43.4011 H   0  0  0  0  0  0  0  0  0  0  0  0
   59.4752   35.9594   44.7692 H   0  0  0  0  0  0  0  0  0  0  0  0
   59.3856   35.8495   47.2657 H   0  0  0  0  0  0  0  0  0  0  0  0
   58.9859   33.6489   48.4090 H   0  0  0  0  0  0  0  0  0  0  0  0
   57.6584   31.0349   47.5629 H   0  0  0  0  0  0  0  0  0  0  0  0
   59.3506   30.8694   48.9916 H   0  0  0  0  0  0  0  0  0  0  0  0
   59.9239   29.6706   47.7830 H   0  0  0  0  0  0  0  0  0  0  0  0
   60.5944   31.3370   47.7830 H   0  0  0  0  0  0  0  0  0  0  0  0
   59.5438   29.7990   45.5477 H   0  0  0  0  0  0  0  0  0  0  0  0
  1  2  1  0
  2  3  1  0
  3  4  2  0
  4  5  1  0
  5  6  1  0
  6  7  1  0
  6  8  1  0
  8  9  1  0
  9 10  2  0
 10 11  1  0
 11 12  2  0
 12 13  1  0
 13 14  2  0
 14 15  1  0
 15 16  1  0
 15 17  1  0
 17  3  1  0
 17  8  1  0
 14  9  1  0
  1 18  1  0
  1 19  1  0
  1 20  1  0
  5 21  1  0
  5 22  1  0
  6 23  1  6
  7 24  1  0
  7 25  1  0
  7 26  1  0
 10 27  1  0
 11 28  1  0
 12 29  1  0
 13 30  1  0
 15 31  1  1
 16 32  1  0
 16 33  1  0
 16 34  1  0
 17 35  1  6
M  END
>  <UniqueID>  (39) 
35

>  <SMILES>  (39) 
CSC1=NC[C@@H](C)N2c3ccccc3[C@H](C)C12

>  <Energy>  (39) 
54.47463811041428

>  <Genealogy>  (39) 
CSC1=NC[C@@H](C)N2c3ccccc3[C@H](C)C12 (chirality)
CSC1=NC[C@@H](C)N2c3ccccc3[C@H](C)C12 (3D coordinates assigned)
CSC1=NC[C@@H](C)N2c3ccccc3[C@H](C)C12 (nonaromatic ring conformer: 54.47463811041428 kcal/mol)

>  <smiles>  (39) 
CSC1=NCC(C)N2c3ccccc3C(C)C12

>  <score_type>  (39) 
oracle

>  <origin>  (39) 
adg

>  <m_score__min__energy>  (39) 
-6.9000000000000004

>  <m_primary>  (39) 
energy

$$$$
39:0
     RDKit          3D

 31 33  0  0  0  0  0  0  0  0999 V2000
   59.6810   30.9260   45.8060 O   0  0  0  0  0  0  0  0  0  0  0  0
   58.6900   30.2730   45.3810 C   0  0  0  0  0  0  0  0  0  0  0  0
   58.7320   28.8540   45.0540 C   0  0  0  0  0  0  0  0  0  0  0  0
   57.5140   28.4980   44.6850 C   0  0  0  0  0  0  0  0  0  0  0  0
   56.6670   29.6800   44.7780 C   0  0  0  0  0  0  0  0  0  0  0  0
   55.4310   29.6810   44.5340 O   0  0  0  0  0  0  0  0  0  0  0  0
   57.3830   30.8410   45.2240 N   0  0  0  0  0  0  0  0  0  0  0  0
   57.3390   31.9700   44.2650 C   0  0  0  0  0  0  0  0  0  0  0  0
   57.0370   33.3650   44.8720 C   0  0  0  0  0  0  0  0  0  0  0  0
   58.2000   33.9480   45.6230 C   0  0  0  0  0  0  0  0  0  0  0  0
   59.0620   34.9440   45.1700 C   0  0  0  0  0  0  0  0  0  0  0  0
   59.9960   35.2240   46.1080 N   0  0  0  0  0  0  0  0  0  0  0  0
   59.7240   34.4220   47.1530 C   0  0  0  0  0  0  0  0  0  0  0  0
   60.4080   34.3560   48.3660 C   0  0  0  0  0  0  0  0  0  0  0  0
   59.9410   33.4500   49.3350 C   0  0  0  0  0  0  0  0  0  0  0  0
   58.8110   32.6440   49.0750 C   0  0  0  0  0  0  0  0  0  0  0  0
   58.1400   32.7330   47.8430 C   0  0  0  0  0  0  0  0  0  0  0  0
   58.6320   33.6330   46.8970 C   0  0  0  0  0  0  0  0  0  0  0  0
   59.6147   28.1996   45.1049 H   0  0  0  0  0  0  0  0  0  0  0  0
   57.1977   27.4938   44.3662 H   0  0  0  0  0  0  0  0  0  0  0  0
   57.0190   31.1380   46.1590 H   0  0  0  0  0  0  0  0  0  0  0  0
   58.3170   32.0251   43.7646 H   0  0  0  0  0  0  0  0  0  0  0  0
   56.4994   31.7524   43.5884 H   0  0  0  0  0  0  0  0  0  0  0  0
   56.7690   34.0512   44.0551 H   0  0  0  0  0  0  0  0  0  0  0  0
   56.2144   33.2374   45.5911 H   0  0  0  0  0  0  0  0  0  0  0  0
   58.9931   35.4341   44.1876 H   0  0  0  0  0  0  0  0  0  0  0  0
   60.7650   35.9250   46.0330 H   0  0  0  0  0  0  0  0  0  0  0  0
   61.2846   34.9919   48.5589 H   0  0  0  0  0  0  0  0  0  0  0  0
   60.4594   33.3687   50.3018 H   0  0  0  0  0  0  0  0  0  0  0  0
   58.4533   31.9414   49.8421 H   0  0  0  0  0  0  0  0  0  0  0  0
   57.2560   32.1134   47.6316 H   0  0  0  0  0  0  0  0  0  0  0  0
  1  2  2  0
  2  3  1  0
  3  4  2  0
  4  5  1  0
  5  6  2  0
  5  7  1  0
  7  8  1  0
  8  9  1  0
  9 10  1  0
 10 11  2  0
 11 12  1  0
 12 13  1  0
 13 14  2  0
 14 15  1  0
 15 16  2  0
 16 17  1  0
 17 18  2  0
  7  2  1  0
 18 10  1  0
 18 13  1  0
  3 19  1  0
  4 20  1  0
  7 21  1  0
  8 22  1  0
  8 23  1  0
  9 24  1  0
  9 25  1  0
 11 26  1  0
 12 27  1  0
 14 28  1  0
 15 29  1  0
 16 30  1  0
 17 31  1  0
M  CHG  1   7   1
M  END
>  <UniqueID>  (40) 
36

>  <SMILES>  (40) 
O=C1C=CC(=O)[NH+]1CCc1c[nH]c2ccccc12

>  <Energy>  (40) 
84.7650093984222

>  <Genealogy>  (40) 
O=C1C=CC(=O)[NH+]1CCc1c[nH]c2ccccc12 (protonated)
O=C1C=CC(=O)[NH+]1CCc1c[nH]c2ccccc12 (3D coordinates assigned)
O=C1C=CC(=O)[NH+]1CCc1c[nH]c2ccccc12 (nonaromatic ring conformer: 84.7650093984222 kcal/mol)

>  <smiles>  (40) 
O=C1C=CC(=O)N1CCc1c[nH]c2ccccc12

>  <score_type>  (40) 
oracle

>  <origin>  (40) 
adg

>  <m_score__min__energy>  (40) 
-5.9699999999999998

>  <m_primary>  (40) 
energy

$$$$
40:0
     RDKit          3D

 68 72  0  0  0  0  0  0  0  0999 V2000
   64.1430   32.9480   47.9230 C   0  0  0  0  0  0  0  0  0  0  0  0
   63.6880   33.8550   48.8840 C   0  0  0  0  0  0  0  0  0  0  0  0
   62.3160   34.0130   49.1050 C   0  0  0  0  0  0  0  0  0  0  0  0
   61.3830   33.2690   48.3610 C   0  0  0  0  0  0  0  0  0  0  0  0
   59.9040   33.4340   48.6400 C   0  0  0  0  0  0  0  0  0  0  0  0
   59.7010   34.4070   49.6550 O   0  0  0  0  0  0  0  0  0  0  0  0
   59.6490   33.8220   50.9440 C   0  0  0  0  0  0  0  0  0  0  0  0
   58.4690   32.8400   51.0120 C   0  0  0  0  0  0  0  0  0  0  0  0
   58.8420   31.5010   51.5140 N   0  0  0  0  0  0  0  0  0  0  0  0
   58.0160   30.3790   51.0070 C   0  0  0  0  0  0  0  0  0  0  0  0
   58.6320   29.6410   49.7940 C   0  0  0  0  0  0  0  0  0  0  0  0
   60.0810   29.8780   49.6700 N   0  0  0  0  0  0  0  0  0  0  0  0
   60.7920   29.0930   48.6310 C   0  0  0  0  0  0  0  0  0  0  0  0
   60.0840   28.9500   47.2540 C   0  0  2  0  0  0  0  0  0  0  0  0
   59.6470   30.3050   46.6510 C   0  0  0  0  0  0  0  0  0  0  0  0
   58.6460   30.1490   45.5320 C   0  0  0  0  0  0  0  0  0  0  0  0
   58.3240   31.2620   44.7360 C   0  0  0  0  0  0  0  0  0  0  0  0
   57.3650   31.1570   43.7250 C   0  0  0  0  0  0  0  0  0  0  0  0
   56.7140   29.9400   43.5010 C   0  0  0  0  0  0  0  0  0  0  0  0
   57.0220   28.8260   44.2880 C   0  0  0  0  0  0  0  0  0  0  0  0
   57.9760   28.9260   45.3140 C   0  0  0  0  0  0  0  0  0  0  0  0
   58.3450   27.7030   46.1160 C   0  0  0  0  0  0  0  0  0  0  0  0
   58.9130   28.0690   47.4190 N   0  0  0  0  0  0  0  0  0  0  0  0
   60.7520   29.9620   50.9720 C   0  0  0  0  0  0  0  0  0  0  0  0
   60.3000   31.2590   51.6490 C   0  0  0  0  0  0  0  0  0  0  0  0
   59.2050   33.8540   47.3670 C   0  0  0  0  0  0  0  0  0  0  0  0
   57.8640   33.4930   47.1460 C   0  0  0  0  0  0  0  0  0  0  0  0
   57.2250   33.8490   45.9550 C   0  0  0  0  0  0  0  0  0  0  0  0
   57.9210   34.5660   44.9740 C   0  0  0  0  0  0  0  0  0  0  0  0
   59.2540   34.9260   45.1830 C   0  0  0  0  0  0  0  0  0  0  0  0
   59.8960   34.5750   46.3760 C   0  0  0  0  0  0  0  0  0  0  0  0
   61.8550   32.3390   47.4090 C   0  0  0  0  0  0  0  0  0  0  0  0
   63.2270   32.1850   47.1930 C   0  0  0  0  0  0  0  0  0  0  0  0
   65.2219   32.8345   47.7411 H   0  0  0  0  0  0  0  0  0  0  0  0
   64.4099   34.4454   49.4673 H   0  0  0  0  0  0  0  0  0  0  0  0
   61.9641   34.7246   49.8665 H   0  0  0  0  0  0  0  0  0  0  0  0
   59.4878   32.4776   48.9893 H   0  0  0  0  0  0  0  0  0  0  0  0
   60.5872   33.2823   51.1402 H   0  0  0  0  0  0  0  0  0  0  0  0
   59.5151   34.6099   51.6998 H   0  0  0  0  0  0  0  0  0  0  0  0
   57.7039   33.2614   51.6806 H   0  0  0  0  0  0  0  0  0  0  0  0
   58.0995   32.7079   49.9844 H   0  0  0  0  0  0  0  0  0  0  0  0
   57.8818   29.6526   51.8220 H   0  0  0  0  0  0  0  0  0  0  0  0
   57.0649   30.8134   50.6655 H   0  0  0  0  0  0  0  0  0  0  0  0
   58.4594   28.5611   49.9124 H   0  0  0  0  0  0  0  0  0  0  0  0
   58.1494   30.0286   48.8847 H   0  0  0  0  0  0  0  0  0  0  0  0
   61.7648   29.5759   48.4565 H   0  0  0  0  0  0  0  0  0  0  0  0
   60.8505   28.0705   49.0323 H   0  0  0  0  0  0  0  0  0  0  0  0
   60.8074   28.5182   46.5468 H   0  0  0  0  0  0  0  0  0  0  0  0
   59.1933   30.9143   47.4466 H   0  0  0  0  0  0  0  0  0  0  0  0
   60.5426   30.7860   46.2309 H   0  0  0  0  0  0  0  0  0  0  0  0
   58.8307   32.2227   44.9102 H   0  0  0  0  0  0  0  0  0  0  0  0
   57.1221   32.0325   43.1049 H   0  0  0  0  0  0  0  0  0  0  0  0
   55.9590   29.8589   42.7051 H   0  0  0  0  0  0  0  0  0  0  0  0
   56.5151   27.8675   44.1028 H   0  0  0  0  0  0  0  0  0  0  0  0
   57.4427   27.0948   46.2769 H   0  0  0  0  0  0  0  0  0  0  0  0
   59.1025   27.1362   45.5548 H   0  0  0  0  0  0  0  0  0  0  0  0
   58.1760   28.5590   47.9830 H   0  0  0  0  0  0  0  0  0  0  0  0
   60.4724   29.0985   51.5934 H   0  0  0  0  0  0  0  0  0  0  0  0
   61.8443   29.9569   50.8422 H   0  0  0  0  0  0  0  0  0  0  0  0
   60.5491   31.2022   52.7189 H   0  0  0  0  0  0  0  0  0  0  0  0
   60.8209   32.0907   51.1520 H   0  0  0  0  0  0  0  0  0  0  0  0
   57.3154   32.9279   47.9139 H   0  0  0  0  0  0  0  0  0  0  0  0
   56.1752   33.5659   45.7883 H   0  0  0  0  0  0  0  0  0  0  0  0
   57.4169   34.8461   44.0373 H   0  0  0  0  0  0  0  0  0  0  0  0
   59.7998   35.4859   44.4093 H   0  0  0  0  0  0  0  0  0  0  0  0
   60.9447   34.8639   46.5395 H   0  0  0  0  0  0  0  0  0  0  0  0
   61.1391   31.7327   46.8346 H   0  0  0  0  0  0  0  0  0  0  0  0
   63.5871   31.4616   46.4467 H   0  0  0  0  0  0  0  0  0  0  0  0
  1  2  2  0
  2  3  1  0
  3  4  2  0
  4  5  1  0
  5  6  1  0
  6  7  1  0
  7  8  1  0
  8  9  1  0
  9 10  1  0
 10 11  1  0
 11 12  1  0
 12 13  1  0
 13 14  1  0
 14 15  1  0
 15 16  1  0
 16 17  2  0
 17 18  1  0
 18 19  2  0
 19 20  1  0
 20 21  2  0
 21 22  1  0
 22 23  1  0
 12 24  1  0
 24 25  1  0
  5 26  1  0
 26 27  2  0
 27 28  1  0
 28 29  2  0
 29 30  1  0
 30 31  2  0
  4 32  1  0
 32 33  2  0
 33  1  1  0
 25  9  1  0
 31 26  1  0
 23 14  1  0
 21 16  1  0
  1 34  1  0
  2 35  1  0
  3 36  1  0
  5 37  1  0
  7 38  1  0
  7 39  1  0
  8 40  1  0
  8 41  1  0
 10 42  1  0
 10 43  1  0
 11 44  1  0
 11 45  1  0
 13 46  1  0
 13 47  1  0
 14 48  1  6
 15 49  1  0
 15 50  1  0
 17 51  1  0
 18 52  1  0
 19 53  1  0
 20 54  1  0
 22 55  1  0
 22 56  1  0
 23 57  1  0
 24 58  1  0
 24 59  1  0
 25 60  1  0
 25 61  1  0
 27 62  1  0
 28 63  1  0
 29 64  1  0
 30 65  1  0
 31 66  1  0
 32 67  1  0
 33 68  1  0
M  END
>  <UniqueID>  (41) 
37

>  <SMILES>  (41) 
c1ccc(C(OCCN2CCN(C[C@@H]3Cc4ccccc4CN3)CC2)c2ccccc2)cc1

>  <Energy>  (41) 
100.03941987500392

>  <Genealogy>  (41) 
c1ccc(C(OCCN2CCN(C[C@@H]3Cc4ccccc4CN3)CC2)c2ccccc2)cc1 (chirality)
c1ccc(C(OCCN2CCN(C[C@@H]3Cc4ccccc4CN3)CC2)c2ccccc2)cc1 (3D coordinates assigned)
c1ccc(C(OCCN2CCN(C[C@@H]3Cc4ccccc4CN3)CC2)c2ccccc2)cc1 (nonaromatic ring conformer: 100.03941987500392 kcal/mol)

>  <smiles>  (41) 
c1ccc(C(OCCN2CCN(CC3Cc4ccccc4CN3)CC2)c2ccccc2)cc1

>  <score_type>  (41) 
oracle

>  <origin>  (41) 
adg

>  <m_score__min__energy>  (41) 
-9.4700000000000006

>  <m_primary>  (41) 
energy

$$$$
41:0
     RDKit          3D

 39 40  0  0  0  0  0  0  0  0999 V2000
   60.3590   29.3760   45.6240 C   0  0  0  0  0  0  0  0  0  0  0  0
   59.8090   29.6720   47.0100 C   0  0  0  0  0  0  0  0  0  0  0  0
   58.5120   30.2520   46.8990 O   0  0  0  0  0  0  0  0  0  0  0  0
   58.2590   31.5600   46.4540 C   0  0  0  0  0  0  0  0  0  0  0  0
   58.6480   32.6850   47.2100 C   0  0  0  0  0  0  0  0  0  0  0  0
   58.3330   33.9740   46.7750 C   0  0  0  0  0  0  0  0  0  0  0  0
   57.6240   34.1600   45.5900 C   0  0  0  0  0  0  0  0  0  0  0  0
   57.2410   33.0560   44.8260 C   0  0  0  0  0  0  0  0  0  0  0  0
   57.5770   31.7580   45.2310 C   0  0  0  0  0  0  0  0  0  0  0  0
   57.1680   30.6620   44.3980 N   0  0  0  0  0  0  0  0  0  0  0  0
   56.4460   29.4930   44.8100 C   0  0  0  0  0  0  0  0  0  0  0  0
   55.1910   29.5640   44.8980 O   0  0  0  0  0  0  0  0  0  0  0  0
   57.1210   28.2040   45.0930 C   0  0  0  0  0  0  0  0  0  0  0  0
   57.0350   27.6340   46.3740 C   0  0  0  0  0  0  0  0  0  0  0  0
   57.6970   26.4380   46.6660 C   0  0  0  0  0  0  0  0  0  0  0  0
   58.4480   25.7830   45.6750 C   0  0  0  0  0  0  0  0  0  0  0  0
   59.1600   24.5650   45.9320 N   0  0  0  0  0  0  0  0  0  0  0  0
   58.5960   22.9680   45.5610 S   0  0  0  0  0  0  0  0  0  0  0  0
   57.6040   22.9970   44.0830 C   0  0  0  0  0  0  0  0  0  0  0  0
   59.7620   22.0350   45.3930 O   0  0  0  0  0  0  0  0  0  0  0  0
   57.7460   22.4790   46.7000 O   0  0  0  0  0  0  0  0  0  0  0  0
   58.5020   26.3290   44.3880 C   0  0  0  0  0  0  0  0  0  0  0  0
   57.8420   27.5260   44.0950 C   0  0  0  0  0  0  0  0  0  0  0  0
   61.3243   28.8565   45.7158 H   0  0  0  0  0  0  0  0  0  0  0  0
   59.6497   28.7378   45.0767 H   0  0  0  0  0  0  0  0  0  0  0  0
   60.5010   30.3195   45.0767 H   0  0  0  0  0  0  0  0  0  0  0  0
   59.7430   28.7363   47.5846 H   0  0  0  0  0  0  0  0  0  0  0  0
   60.4795   30.3756   47.5250 H   0  0  0  0  0  0  0  0  0  0  0  0
   59.2036   32.5462   48.1492 H   0  0  0  0  0  0  0  0  0  0  0  0
   58.6455   34.8451   47.3696 H   0  0  0  0  0  0  0  0  0  0  0  0
   57.3662   35.1761   45.2566 H   0  0  0  0  0  0  0  0  0  0  0  0
   56.6703   33.2069   43.8978 H   0  0  0  0  0  0  0  0  0  0  0  0
   56.4415   28.1332   47.1541 H   0  0  0  0  0  0  0  0  0  0  0  0
   57.6298   26.0075   47.6760 H   0  0  0  0  0  0  0  0  0  0  0  0
   56.5391   23.0281   44.3567 H   0  0  0  0  0  0  0  0  0  0  0  0
   57.8562   23.8882   43.4895 H   0  0  0  0  0  0  0  0  0  0  0  0
   57.8038   22.0926   43.4895 H   0  0  0  0  0  0  0  0  0  0  0  0
   59.0688   25.8119   43.5997 H   0  0  0  0  0  0  0  0  0  0  0  0
   57.8872   27.9399   43.0769 H   0  0  0  0  0  0  0  0  0  0  0  0
  1  2  1  0
  2  3  1  0
  3  4  1  0
  4  5  2  0
  5  6  1  0
  6  7  2  0
  7  8  1  0
  8  9  2  0
  9 10  1  0
 10 11  1  0
 11 12  2  0
 11 13  1  0
 13 14  2  0
 14 15  1  0
 15 16  2  0
 16 17  1  0
 17 18  1  0
 18 19  1  0
 18 20  2  0
 18 21  2  0
 16 22  1  0
 22 23  2  0
  9  4  1  0
 23 13  1  0
  1 24  1  0
  1 25  1  0
  1 26  1  0
  2 27  1  0
  2 28  1  0
  5 29  1  0
  6 30  1  0
  7 31  1  0
  8 32  1  0
 14 33  1  0
 15 34  1  0
 19 35  1  0
 19 36  1  0
 19 37  1  0
 22 38  1  0
 23 39  1  0
M  CHG  2  10  -1  17  -1
M  END
>  <UniqueID>  (42) 
38

>  <SMILES>  (42) 
CCOc1ccccc1[N-]C(=O)c1ccc([N-]S(C)(=O)=O)cc1

>  <Energy>  (42) 
41.50100510015306

>  <Genealogy>  (42) 
CCOc1ccccc1[N-]C(=O)c1ccc([N-]S(C)(=O)=O)cc1 (protonated)
CCOc1ccccc1[N-]C(=O)c1ccc([N-]S(C)(=O)=O)cc1 (3D coordinates assigned)
CCOc1ccccc1[N-]C(=O)c1ccc([N-]S(C)(=O)=O)cc1 (optimized conformer: 41.50100510015306 kcal/mol)

>  <smiles>  (42) 
CCOc1ccccc1NC(=O)c1ccc(NS(C)(=O)=O)cc1

>  <score_type>  (42) 
oracle

>  <origin>  (42) 
adg

>  <m_score__min__energy>  (42) 
-10.19

>  <m_primary>  (42) 
energy

$$$$
42:0
     RDKit          3D

 46 48  0  0  0  0  0  0  0  0999 V2000
   59.9740   35.3370   46.2320 C   0  0  0  0  0  0  0  0  0  0  0  0
   59.0470   34.2110   45.8590 C   0  0  0  0  0  0  0  0  0  0  0  0
   58.5470   34.1340   44.5480 C   0  0  0  0  0  0  0  0  0  0  0  0
   57.6880   33.1000   44.1730 C   0  0  0  0  0  0  0  0  0  0  0  0
   57.3290   32.1120   45.0930 C   0  0  0  0  0  0  0  0  0  0  0  0
   56.4200   31.0800   44.6870 N   0  0  0  0  0  0  0  0  0  0  0  0
   56.5440   29.6800   44.9680 C   0  0  0  0  0  0  0  0  0  0  0  0
   55.5230   28.9520   44.8560 O   0  0  0  0  0  0  0  0  0  0  0  0
   57.8860   29.0370   45.2530 C   0  0  1  0  0  0  0  0  0  0  0  0
   57.7900   28.0840   46.4710 C   0  0  0  0  0  0  0  0  0  0  0  0
   58.9140   27.0400   46.4340 C   0  0  0  0  0  0  0  0  0  0  0  0
   58.8660   26.1830   45.2140 N   0  0  1  0  0  0  0  0  0  0  0  0
   58.2890   24.8900   45.5300 C   0  0  0  0  0  0  0  0  0  0  0  0
   58.9810   24.0180   46.1260 O   0  0  0  0  0  0  0  0  0  0  0  0
   56.9250   24.5240   45.0960 C   0  0  0  0  0  0  0  0  0  0  0  0
   56.5670   23.7500   43.9930 C   0  0  0  0  0  0  0  0  0  0  0  0
   55.1840   23.5630   43.8720 C   0  0  0  0  0  0  0  0  0  0  0  0
   54.4460   24.1770   44.8730 C   0  0  0  0  0  0  0  0  0  0  0  0
   55.5170   24.9520   45.9130 S   0  0  0  0  0  0  0  0  0  0  0  0
   58.1670   26.8060   44.0570 C   0  0  0  0  0  0  0  0  0  0  0  0
   58.4280   28.3170   43.9930 C   0  0  0  0  0  0  0  0  0  0  0  0
   57.7980   32.1930   46.4110 C   0  0  0  0  0  0  0  0  0  0  0  0
   58.6690   33.2250   46.8030 C   0  0  0  0  0  0  0  0  0  0  0  0
   59.1620   33.2760   48.2240 C   0  0  0  0  0  0  0  0  0  0  0  0
   60.0365   35.4129   47.3276 H   0  0  0  0  0  0  0  0  0  0  0  0
   60.9748   35.1396   45.8205 H   0  0  0  0  0  0  0  0  0  0  0  0
   59.5880   36.2813   45.8205 H   0  0  0  0  0  0  0  0  0  0  0  0
   58.8357   34.8966   43.8097 H   0  0  0  0  0  0  0  0  0  0  0  0
   57.2915   33.0628   43.1476 H   0  0  0  0  0  0  0  0  0  0  0  0
   58.6063   29.8268   45.5126 H   0  0  0  0  0  0  0  0  0  0  0  0
   56.8182   27.5690   46.4506 H   0  0  0  0  0  0  0  0  0  0  0  0
   57.8889   28.6770   47.3922 H   0  0  0  0  0  0  0  0  0  0  0  0
   58.8241   26.3950   47.3205 H   0  0  0  0  0  0  0  0  0  0  0  0
   59.8705   27.5830   46.4202 H   0  0  0  0  0  0  0  0  0  0  0  0
   59.8530   26.0370   44.9000 H   0  0  0  0  0  0  0  0  0  0  0  0
   57.2981   23.3280   43.2877 H   0  0  0  0  0  0  0  0  0  0  0  0
   54.7254   22.9825   43.0579 H   0  0  0  0  0  0  0  0  0  0  0  0
   53.3504   24.1601   44.9700 H   0  0  0  0  0  0  0  0  0  0  0  0
   57.0852   26.6335   44.1572 H   0  0  0  0  0  0  0  0  0  0  0  0
   58.5511   26.3488   43.1332 H   0  0  0  0  0  0  0  0  0  0  0  0
   57.9299   28.7291   43.1030 H   0  0  0  0  0  0  0  0  0  0  0  0
   59.5148   28.4792   43.9416 H   0  0  0  0  0  0  0  0  0  0  0  0
   57.4810   31.4403   47.1478 H   0  0  0  0  0  0  0  0  0  0  0  0
   58.3081   33.1877   48.9118 H   0  0  0  0  0  0  0  0  0  0  0  0
   59.8616   32.4454   48.3994 H   0  0  0  0  0  0  0  0  0  0  0  0
   59.6767   34.2322   48.3994 H   0  0  0  0  0  0  0  0  0  0  0  0
  1  2  1  0
  2  3  2  0
  3  4  1  0
  4  5  2  0
  5  6  1  0
  6  7  1  0
  7  8  2  0
  7  9  1  0
  9 10  1  0
 10 11  1  0
 11 12  1  0
 12 13  1  0
 13 14  2  0
 13 15  1  0
 15 16  2  0
 16 17  1  0
 17 18  2  0
 18 19  1  0
 12 20  1  0
 20 21  1  0
  5 22  1  0
 22 23  2  0
 23 24  1  0
 23  2  1  0
 21  9  1  0
 19 15  1  0
  1 25  1  0
  1 26  1  0
  1 27  1  0
  3 28  1  0
  4 29  1  0
  9 30  1  1
 10 31  1  0
 10 32  1  0
 11 33  1  0
 11 34  1  0
 12 35  1  6
 16 36  1  0
 17 37  1  0
 18 38  1  0
 20 39  1  0
 20 40  1  0
 21 41  1  0
 21 42  1  0
 22 43  1  0
 24 44  1  0
 24 45  1  0
 24 46  1  0
M  CHG  2   6  -1  12   1
M  END
>  <UniqueID>  (43) 
39

>  <SMILES>  (43) 
Cc1ccc([N-]C(=O)C2CC[NH+](C(=O)c3cccs3)CC2)cc1C

>  <Energy>  (43) 
89.1110055320837

>  <Genealogy>  (43) 
Cc1ccc([N-]C(=O)C2CC[NH+](C(=O)c3cccs3)CC2)cc1C (protonated)
Cc1ccc([N-]C(=O)C2CC[NH+](C(=O)c3cccs3)CC2)cc1C (3D coordinates assigned)
Cc1ccc([N-]C(=O)C2CC[NH+](C(=O)c3cccs3)CC2)cc1C (nonaromatic ring conformer: 89.1110055320837 kcal/mol)

>  <smiles>  (43) 
Cc1ccc(NC(=O)C2CCN(C(=O)c3cccs3)CC2)cc1C

>  <score_type>  (43) 
oracle

>  <origin>  (43) 
adg

>  <m_score__min__energy>  (43) 
-8.6600000000000001

>  <m_primary>  (43) 
energy

$$$$
43:0
     RDKit          3D

 71 75  0  0  0  0  0  0  0  0999 V2000
   62.8420   32.3900   47.6780 C   0  0  0  0  0  0  0  0  0  0  0  0
   62.3240   33.5740   46.8700 C   0  0  0  0  0  0  0  0  0  0  0  0
   61.0930   34.0540   47.4110 O   0  0  0  0  0  0  0  0  0  0  0  0
   59.8320   33.9680   46.7930 C   0  0  0  0  0  0  0  0  0  0  0  0
   59.6320   34.3050   45.4370 C   0  0  0  0  0  0  0  0  0  0  0  0
   58.3580   34.2290   44.8700 C   0  0  0  0  0  0  0  0  0  0  0  0
   57.2700   33.8220   45.6440 C   0  0  0  0  0  0  0  0  0  0  0  0
   57.4540   33.4830   46.9860 C   0  0  0  0  0  0  0  0  0  0  0  0
   58.7330   33.5460   47.5640 C   0  0  0  0  0  0  0  0  0  0  0  0
   58.9200   33.1570   48.9360 N   0  0  0  0  0  0  0  0  0  0  0  0
   59.8880   33.8910   49.7530 C   0  0  0  0  0  0  0  0  0  0  0  0
   59.5010   33.8490   51.2430 C   0  0  0  0  0  0  0  0  0  0  0  0
   59.0690   32.5120   51.7240 N   0  0  0  0  0  0  0  0  0  0  0  0
   60.1470   31.6070   52.1100 C   0  0  0  0  0  0  0  0  0  0  0  0
   60.0910   31.0660   53.2070 O   0  0  0  0  0  0  0  0  0  0  0  0
   61.3480   31.3230   51.2240 C   0  0  0  0  0  0  0  0  0  0  0  0
   61.6010   29.8740   51.0750 N   0  0  0  0  0  0  0  0  0  0  0  0
   62.5200   29.2060   51.9770 C   0  0  0  0  0  0  0  0  0  0  0  0
   63.1690   29.8620   52.8370 O   0  0  0  0  0  0  0  0  0  0  0  0
   62.7460   27.7280   51.8800 C   0  0  0  0  0  0  0  0  0  0  0  0
   61.1390   26.9110   51.6950 S   0  0  0  0  0  0  0  0  0  0  0  0
   60.8190   27.7220   50.1260 C   0  0  0  0  0  0  0  0  0  0  0  0
   60.3760   26.9570   49.0430 C   0  0  0  0  0  0  0  0  0  0  0  0
   60.0560   27.5720   47.8330 C   0  0  0  0  0  0  0  0  0  0  0  0
   60.1700   28.9590   47.6960 C   0  0  0  0  0  0  0  0  0  0  0  0
   59.7450   29.7340   46.1690 S   0  0  0  0  0  0  0  0  0  0  0  0
   60.2820   31.1380   46.1610 O   0  0  0  0  0  0  0  0  0  0  0  0
   60.4060   28.9840   45.0450 O   0  0  0  0  0  0  0  0  0  0  0  0
   58.0160   29.7850   45.9040 N   0  0  0  0  0  0  0  0  0  0  0  0
   57.3940   28.4510   46.0030 C   0  0  0  0  0  0  0  0  0  0  0  0
   57.4960   27.6360   44.6900 C   0  0  0  0  0  0  0  0  0  0  0  0
   57.9230   28.4030   43.5800 O   0  0  0  0  0  0  0  0  0  0  0  0
   57.2040   29.6130   43.5300 C   0  0  0  0  0  0  0  0  0  0  0  0
   57.6370   30.5310   44.6840 C   0  0  0  0  0  0  0  0  0  0  0  0
   60.6510   29.7250   48.7690 C   0  0  0  0  0  0  0  0  0  0  0  0
   60.9990   29.1130   49.9920 C   0  0  0  0  0  0  0  0  0  0  0  0
   58.0750   31.8660   50.8380 C   0  0  0  0  0  0  0  0  0  0  0  0
   58.5150   31.8220   49.3740 C   0  0  0  0  0  0  0  0  0  0  0  0
   62.7462   32.6089   48.7517 H   0  0  0  0  0  0  0  0  0  0  0  0
   62.2540   31.4933   47.4327 H   0  0  0  0  0  0  0  0  0  0  0  0
   63.8996   32.2133   47.4327 H   0  0  0  0  0  0  0  0  0  0  0  0
   63.0694   34.3825   46.8957 H   0  0  0  0  0  0  0  0  0  0  0  0
   62.1515   33.2469   45.8340 H   0  0  0  0  0  0  0  0  0  0  0  0
   60.4850   34.6295   44.8230 H   0  0  0  0  0  0  0  0  0  0  0  0
   58.2116   34.4903   43.8116 H   0  0  0  0  0  0  0  0  0  0  0  0
   56.2667   33.7683   45.1963 H   0  0  0  0  0  0  0  0  0  0  0  0
   56.5937   33.1652   47.5934 H   0  0  0  0  0  0  0  0  0  0  0  0
   60.8819   33.4369   49.6271 H   0  0  0  0  0  0  0  0  0  0  0  0
   59.8980   34.9406   49.4241 H   0  0  0  0  0  0  0  0  0  0  0  0
   60.3736   34.1627   51.8347 H   0  0  0  0  0  0  0  0  0  0  0  0
   58.6388   34.5214   51.3639 H   0  0  0  0  0  0  0  0  0  0  0  0
   58.5510   32.7140   52.6160 H   0  0  0  0  0  0  0  0  0  0  0  0
   61.1644   31.7548   50.2291 H   0  0  0  0  0  0  0  0  0  0  0  0
   62.2322   31.7735   51.6986 H   0  0  0  0  0  0  0  0  0  0  0  0
   63.3778   27.5058   51.0074 H   0  0  0  0  0  0  0  0  0  0  0  0
   63.2516   27.3639   52.7866 H   0  0  0  0  0  0  0  0  0  0  0  0
   60.2795   25.8661   49.1457 H   0  0  0  0  0  0  0  0  0  0  0  0
   59.7126   26.9638   46.9832 H   0  0  0  0  0  0  0  0  0  0  0  0
   57.8961   27.8889   46.8042 H   0  0  0  0  0  0  0  0  0  0  0  0
   56.3250   28.6016   46.2142 H   0  0  0  0  0  0  0  0  0  0  0  0
   58.2139   26.8169   44.8438 H   0  0  0  0  0  0  0  0  0  0  0  0
   56.4855   27.2680   44.4589 H   0  0  0  0  0  0  0  0  0  0  0  0
   57.4022   30.1149   42.5715 H   0  0  0  0  0  0  0  0  0  0  0  0
   56.1293   29.3981   43.6239 H   0  0  0  0  0  0  0  0  0  0  0  0
   58.5016   31.1255   44.3537 H   0  0  0  0  0  0  0  0  0  0  0  0
   56.7763   31.1662   44.9404 H   0  0  0  0  0  0  0  0  0  0  0  0
   60.7579   30.8139   48.6555 H   0  0  0  0  0  0  0  0  0  0  0  0
   57.9135   30.8351   51.1861 H   0  0  0  0  0  0  0  0  0  0  0  0
   57.1543   32.4660   50.8858 H   0  0  0  0  0  0  0  0  0  0  0  0
   59.3639   31.1304   49.2689 H   0  0  0  0  0  0  0  0  0  0  0  0
   57.6750   31.4765   48.7535 H   0  0  0  0  0  0  0  0  0  0  0  0
  1  2  1  0
  2  3  1  0
  3  4  1  0
  4  5  2  0
  5  6  1  0
  6  7  2  0
  7  8  1  0
  8  9  2  0
  9 10  1  0
 10 11  1  0
 11 12  1  0
 12 13  1  0
 13 14  1  0
 14 15  2  0
 14 16  1  0
 16 17  1  0
 17 18  1  0
 18 19  2  0
 18 20  1  0
 20 21  1  0
 21 22  1  0
 22 23  2  0
 23 24  1  0
 24 25  2  0
 25 26  1  0
 26 27  2  0
 26 28  2  0
 26 29  1  0
 29 30  1  0
 30 31  1  0
 31 32  1  0
 32 33  1  0
 33 34  1  0
 25 35  1  0
 35 36  2  0
 13 37  1  0
 37 38  1  0
  9  4  1  0
 38 10  1  0
 36 17  1  0
 36 22  1  0
 34 29  1  0
  1 39  1  0
  1 40  1  0
  1 41  1  0
  2 42  1  0
  2 43  1  0
  5 44  1  0
  6 45  1  0
  7 46  1  0
  8 47  1  0
 11 48  1  0
 11 49  1  0
 12 50  1  0
 12 51  1  0
 13 52  1  0
 16 53  1  0
 16 54  1  0
 20 55  1  0
 20 56  1  0
 23 57  1  0
 24 58  1  0
 30 59  1  0
 30 60  1  0
 31 61  1  0
 31 62  1  0
 33 63  1  0
 33 64  1  0
 34 65  1  0
 34 66  1  0
 35 67  1  0
 37 68  1  0
 37 69  1  0
 38 70  1  0
 38 71  1  0
M  CHG  1  13   1
M  END
>  <UniqueID>  (44) 
40

>  <SMILES>  (44) 
CCOc1ccccc1N1CC[NH+](C(=O)CN2C(=O)CSc3ccc(S(=O)(=O)N4CCOCC4)cc32)CC1

>  <Energy>  (44) 
101.780928011292

>  <Genealogy>  (44) 
CCOc1ccccc1N1CC[NH+](C(=O)CN2C(=O)CSc3ccc(S(=O)(=O)N4CCOCC4)cc32)CC1 (protonated)
CCOc1ccccc1N1CC[NH+](C(=O)CN2C(=O)CSc3ccc(S(=O)(=O)N4CCOCC4)cc32)CC1 (3D coordinates assigned)
CCOc1ccccc1N1CC[NH+](C(=O)CN2C(=O)CSc3ccc(S(=O)(=O)N4CCOCC4)cc32)CC1 (nonaromatic ring conformer: 101.780928011292 kcal/mol)

>  <smiles>  (44) 
CCOc1ccccc1N1CCN(C(=O)CN2C(=O)CSc3ccc(S(=O)(=O)N4CCOCC4)cc32)CC1

>  <score_type>  (44) 
oracle

>  <origin>  (44) 
adg

>  <m_score__min__energy>  (44) 
-8.9399999999999995

>  <m_primary>  (44) 
energy

$$$$
44:0
     RDKit          3D

 49 51  0  0  0  0  0  0  0  0999 V2000
   56.6060   29.5080   42.6300 C   0  0  0  0  0  0  0  0  0  0  0  0
   56.6890   30.8460   43.3590 C   0  0  0  0  0  0  0  0  0  0  0  0
   58.1290   31.2220   43.7250 C   0  0  0  0  0  0  0  0  0  0  0  0
   58.2770   31.4470   45.1690 N   0  0  0  0  0  0  0  0  0  0  0  0
   58.4680   30.5380   46.1580 C   0  0  0  0  0  0  0  0  0  0  0  0
   58.6690   29.0910   45.9630 C   0  0  0  0  0  0  0  0  0  0  0  0
   59.9380   28.5180   46.1390 C   0  0  0  0  0  0  0  0  0  0  0  0
   60.1190   27.1420   45.9670 C   0  0  0  0  0  0  0  0  0  0  0  0
   59.0320   26.3270   45.6450 C   0  0  0  0  0  0  0  0  0  0  0  0
   57.7610   26.8850   45.4940 C   0  0  0  0  0  0  0  0  0  0  0  0
   57.5750   28.2630   45.6560 C   0  0  0  0  0  0  0  0  0  0  0  0
   56.3330   28.7890   45.5020 F   0  0  0  0  0  0  0  0  0  0  0  0
   58.4040   31.1110   47.3780 N   0  0  0  0  0  0  0  0  0  0  0  0
   58.1850   32.3990   47.1710 N   0  0  0  0  0  0  0  0  0  0  0  0
   58.1040   32.6010   45.8440 C   0  0  0  0  0  0  0  0  0  0  0  0
   57.7750   34.2040   45.1060 S   0  0  0  0  0  0  0  0  0  0  0  0
   59.4150   34.9010   45.5080 C   0  0  0  0  0  0  0  0  0  0  0  0
   59.7780   34.6920   46.9540 C   0  0  0  0  0  0  0  0  0  0  0  0
   58.9390   35.0450   47.8270 O   0  0  0  0  0  0  0  0  0  0  0  0
   61.0400   34.1100   47.3630 N   0  0  0  0  0  0  0  0  0  0  0  0
   62.0920   33.8030   46.3740 C   0  0  0  0  0  0  0  0  0  0  0  0
   63.2150   32.9500   46.9770 C   0  0  0  0  0  0  0  0  0  0  0  0
   63.7710   33.5490   48.2820 C   0  0  0  0  0  0  0  0  0  0  0  0
   62.6980   34.2110   49.1700 C   0  0  0  0  0  0  0  0  0  0  0  0
   61.2790   33.7940   48.7820 C   0  0  0  0  0  0  0  0  0  0  0  0
   56.5554   28.6920   43.3659 H   0  0  0  0  0  0  0  0  0  0  0  0
   55.7050   29.4894   41.9993 H   0  0  0  0  0  0  0  0  0  0  0  0
   57.4978   29.3781   41.9993 H   0  0  0  0  0  0  0  0  0  0  0  0
   56.2736   31.6295   42.7082 H   0  0  0  0  0  0  0  0  0  0  0  0
   56.1174   30.7550   44.2944 H   0  0  0  0  0  0  0  0  0  0  0  0
   58.8000   30.4055   43.4200 H   0  0  0  0  0  0  0  0  0  0  0  0
   58.3850   32.1556   43.2026 H   0  0  0  0  0  0  0  0  0  0  0  0
   60.7931   29.1533   46.4131 H   0  0  0  0  0  0  0  0  0  0  0  0
   61.1197   26.7009   46.0856 H   0  0  0  0  0  0  0  0  0  0  0  0
   59.1770   25.2450   45.5102 H   0  0  0  0  0  0  0  0  0  0  0  0
   56.9043   26.2406   45.2473 H   0  0  0  0  0  0  0  0  0  0  0  0
   58.0880   33.1160   47.9240 H   0  0  0  0  0  0  0  0  0  0  0  0
   60.1726   34.4126   44.8776 H   0  0  0  0  0  0  0  0  0  0  0  0
   59.3790   35.9842   45.3201 H   0  0  0  0  0  0  0  0  0  0  0  0
   61.6409   33.2542   45.5342 H   0  0  0  0  0  0  0  0  0  0  0  0
   62.5305   34.7541   46.0376 H   0  0  0  0  0  0  0  0  0  0  0  0
   62.8204   31.9454   47.1894 H   0  0  0  0  0  0  0  0  0  0  0  0
   64.0374   32.9140   46.2474 H   0  0  0  0  0  0  0  0  0  0  0  0
   64.2484   32.7425   48.8579 H   0  0  0  0  0  0  0  0  0  0  0  0
   64.4809   34.3387   47.9949 H   0  0  0  0  0  0  0  0  0  0  0  0
   62.8775   33.9211   50.2158 H   0  0  0  0  0  0  0  0  0  0  0  0
   62.7759   35.2997   49.0334 H   0  0  0  0  0  0  0  0  0  0  0  0
   61.1592   32.7122   48.9411 H   0  0  0  0  0  0  0  0  0  0  0  0
   60.5552   34.3408   49.4043 H   0  0  0  0  0  0  0  0  0  0  0  0
  1  2  1  0
  2  3  1  0
  3  4  1  0
  4  5  1  0
  5  6  1  0
  6  7  2  0
  7  8  1  0
  8  9  2  0
  9 10  1  0
 10 11  2  0
 11 12  1  0
  5 13  2  0
 13 14  1  0
 14 15  2  0
 15 16  1  0
 16 17  1  0
 17 18  1  0
 18 19  2  0
 18 20  1  0
 20 21  1  0
 21 22  1  0
 22 23  1  0
 23 24  1  0
 24 25  1  0
 15  4  1  0
 25 20  1  0
 11  6  1  0
  1 26  1  0
  1 27  1  0
  1 28  1  0
  2 29  1  0
  2 30  1  0
  3 31  1  0
  3 32  1  0
  7 33  1  0
  8 34  1  0
  9 35  1  0
 10 36  1  0
 14 37  1  0
 17 38  1  0
 17 39  1  0
 21 40  1  0
 21 41  1  0
 22 42  1  0
 22 43  1  0
 23 44  1  0
 23 45  1  0
 24 46  1  0
 24 47  1  0
 25 48  1  0
 25 49  1  0
M  CHG  1  14   1
M  END
>  <UniqueID>  (45) 
41

>  <SMILES>  (45) 
CCCn1c(-c2ccccc2F)n[nH+]c1SCC(=O)N1CCCCC1

>  <Energy>  (45) 
82.58884777376691

>  <Genealogy>  (45) 
CCCn1c(-c2ccccc2F)n[nH+]c1SCC(=O)N1CCCCC1 (protonated)
CCCn1c(-c2ccccc2F)n[nH+]c1SCC(=O)N1CCCCC1 (3D coordinates assigned)
CCCn1c(-c2ccccc2F)n[nH+]c1SCC(=O)N1CCCCC1 (nonaromatic ring conformer: 82.58884777376691 kcal/mol)

>  <smiles>  (45) 
CCCn1c(SCC(=O)N2CCCCC2)nnc1-c1ccccc1F

>  <score_type>  (45) 
oracle

>  <origin>  (45) 
adg

>  <m_score__min__energy>  (45) 
-7.2000000000000002

>  <m_primary>  (45) 
energy

$$$$
45:0
     RDKit          3D

 40 43  0  0  0  0  0  0  0  0999 V2000
   55.2410   29.7180   43.6790 C   0  0  0  0  0  0  0  0  0  0  0  0
   55.7060   29.2850   44.9530 O   0  0  0  0  0  0  0  0  0  0  0  0
   56.9420   28.6600   45.1830 C   0  0  0  0  0  0  0  0  0  0  0  0
   57.0540   27.2570   45.2610 C   0  0  0  0  0  0  0  0  0  0  0  0
   58.2820   26.6580   45.5440 C   0  0  0  0  0  0  0  0  0  0  0  0
   59.4120   27.4460   45.7550 C   0  0  0  0  0  0  0  0  0  0  0  0
   59.3210   28.8350   45.6720 C   0  0  0  0  0  0  0  0  0  0  0  0
   58.0970   29.4550   45.3680 C   0  0  0  0  0  0  0  0  0  0  0  0
   58.0490   30.9310   45.2570 C   0  0  0  0  0  0  0  0  0  0  0  0
   56.9420   31.6450   44.9190 N   0  0  0  0  0  0  0  0  0  0  0  0
   57.2090   32.9410   45.1080 N   0  0  0  0  0  0  0  0  0  0  0  0
   58.4830   32.9740   45.5330 C   0  0  0  0  0  0  0  0  0  0  0  0
   59.3660   34.1320   46.3600 S   0  0  0  0  0  0  0  0  0  0  0  0
   60.4720   32.8960   46.8390 C   0  0  0  0  0  0  0  0  0  0  0  0
   61.6730   33.1290   47.6680 C   0  0  0  0  0  0  0  0  0  0  0  0
   62.9270   33.0790   47.0310 C   0  0  0  0  0  0  0  0  0  0  0  0
   64.1040   33.2470   47.7600 C   0  0  0  0  0  0  0  0  0  0  0  0
   64.0490   33.4700   49.1320 C   0  0  0  0  0  0  0  0  0  0  0  0
   62.8160   33.5390   49.7810 C   0  0  0  0  0  0  0  0  0  0  0  0
   61.6150   33.3820   49.0670 C   0  0  0  0  0  0  0  0  0  0  0  0
   60.0870   33.5910   49.9500 S   0  0  0  0  0  0  0  0  0  0  0  0
   59.0290   32.1700   49.7370 C   0  0  0  0  0  0  0  0  0  0  0  0
   59.3470   34.7820   49.4080 O   0  0  0  0  0  0  0  0  0  0  0  0
   60.3570   33.8270   51.4090 O   0  0  0  0  0  0  0  0  0  0  0  0
   60.0960   31.6690   46.3860 N   0  0  0  0  0  0  0  0  0  0  0  0
   59.0120   31.7810   45.6340 N   0  0  0  0  0  0  0  0  0  0  0  0
   54.4420   30.4620   43.8137 H   0  0  0  0  0  0  0  0  0  0  0  0
   56.0729   30.1706   43.1194 H   0  0  0  0  0  0  0  0  0  0  0  0
   54.8488   28.8560   43.1194 H   0  0  0  0  0  0  0  0  0  0  0  0
   56.1658   26.6291   45.0974 H   0  0  0  0  0  0  0  0  0  0  0  0
   58.3583   25.5621   45.6007 H   0  0  0  0  0  0  0  0  0  0  0  0
   60.3769   26.9716   45.9873 H   0  0  0  0  0  0  0  0  0  0  0  0
   60.2155   29.4511   45.8461 H   0  0  0  0  0  0  0  0  0  0  0  0
   62.9793   32.9055   45.9460 H   0  0  0  0  0  0  0  0  0  0  0  0
   65.0773   33.2031   47.2493 H   0  0  0  0  0  0  0  0  0  0  0  0
   64.9793   33.5921   49.7061 H   0  0  0  0  0  0  0  0  0  0  0  0
   62.7830   33.7186   50.8657 H   0  0  0  0  0  0  0  0  0  0  0  0
   58.7377   31.7787   50.7229 H   0  0  0  0  0  0  0  0  0  0  0  0
   58.1282   32.4640   49.1784 H   0  0  0  0  0  0  0  0  0  0  0  0
   59.5690   31.3913   49.1784 H   0  0  0  0  0  0  0  0  0  0  0  0
  1  2  1  0
  2  3  1  0
  3  4  2  0
  4  5  1  0
  5  6  2  0
  6  7  1  0
  7  8  2  0
  8  9  1  0
  9 10  2  0
 10 11  1  0
 11 12  2  0
 12 13  1  0
 13 14  1  0
 14 15  1  0
 15 16  2  0
 16 17  1  0
 17 18  2  0
 18 19  1  0
 19 20  2  0
 20 21  1  0
 21 22  1  0
 21 23  2  0
 21 24  2  0
 14 25  2  0
 25 26  1  0
  8  3  1  0
 26  9  1  0
 26 12  1  0
 20 15  1  0
  1 27  1  0
  1 28  1  0
  1 29  1  0
  4 30  1  0
  5 31  1  0
  6 32  1  0
  7 33  1  0
 16 34  1  0
 17 35  1  0
 18 36  1  0
 19 37  1  0
 22 38  1  0
 22 39  1  0
 22 40  1  0
M  END
>  <UniqueID>  (46) 
42

>  <SMILES>  (46) 
COc1ccccc1-c1nnc2sc(-c3ccccc3S(C)(=O)=O)nn12

>  <Energy>  (46) 
144.37043827437967

>  <Genealogy>  (46) 
COc1ccccc1-c1nnc2sc(-c3ccccc3S(C)(=O)=O)nn12 (3D coordinates assigned)
COc1ccccc1-c1nnc2sc(-c3ccccc3S(C)(=O)=O)nn12 (optimized conformer: 144.37043827437967 kcal/mol)

>  <smiles>  (46) 
COc1ccccc1-c1nnc2sc(-c3ccccc3S(C)(=O)=O)nn12

>  <score_type>  (46) 
oracle

>  <origin>  (46) 
adg

>  <m_score__min__energy>  (46) 
-9.0800000000000001

>  <m_primary>  (46) 
energy

$$$$
46:0
     RDKit          3D

 50 52  0  0  0  0  0  0  0  0999 V2000
   63.3780   33.8570   46.3420 C   0  0  0  0  0  0  0  0  0  0  0  0
   63.6350   33.4540   47.7930 C   0  0  0  0  0  0  0  0  0  0  0  0
   62.4770   32.7010   48.3240 N   0  0  0  0  0  0  0  0  0  0  0  0
   62.4930   32.6500   49.8040 C   0  0  0  0  0  0  0  0  0  0  0  0
   61.4190   33.5620   50.3930 C   0  0  0  0  0  0  0  0  0  0  0  0
   62.4080   31.3380   47.7440 C   0  0  0  0  0  0  0  0  0  0  0  0
   61.0040   31.0660   47.1890 C   0  0  0  0  0  0  0  0  0  0  0  0
   59.9820   31.2200   48.2510 N   0  0  0  0  0  0  0  0  0  0  0  0
   59.0910   32.2690   48.2240 C   0  0  0  0  0  0  0  0  0  0  0  0
   59.0020   33.2090   47.0880 C   0  0  0  0  0  0  0  0  0  0  0  0
   58.2280   32.8790   45.9660 C   0  0  0  0  0  0  0  0  0  0  0  0
   58.1670   33.7500   44.8740 C   0  0  0  0  0  0  0  0  0  0  0  0
   58.8910   34.9460   44.8900 C   0  0  0  0  0  0  0  0  0  0  0  0
   59.6840   35.2670   45.9960 C   0  0  0  0  0  0  0  0  0  0  0  0
   59.7470   34.3980   47.0890 C   0  0  0  0  0  0  0  0  0  0  0  0
   58.2620   32.4860   49.2720 N   0  0  0  0  0  0  0  0  0  0  0  0
   58.2580   31.6890   50.3630 C   0  0  0  0  0  0  0  0  0  0  0  0
   57.3760   31.9780   51.4070 C   0  0  0  0  0  0  0  0  0  0  0  0
   57.3500   31.1790   52.5440 C   0  0  0  0  0  0  0  0  0  0  0  0
   58.2070   30.0860   52.6500 C   0  0  0  0  0  0  0  0  0  0  0  0
   59.1080   29.7690   51.6150 C   0  0  0  0  0  0  0  0  0  0  0  0
   60.0120   28.5770   51.8170 C   0  0  0  0  0  0  0  0  0  0  0  0
   59.1340   30.5840   50.4390 C   0  0  0  0  0  0  0  0  0  0  0  0
   59.9980   30.3690   49.3330 C   0  0  0  0  0  0  0  0  0  0  0  0
   60.7940   29.3910   49.3370 O   0  0  0  0  0  0  0  0  0  0  0  0
   62.7867   34.7842   46.3182 H   0  0  0  0  0  0  0  0  0  0  0  0
   64.3384   34.0214   45.8315 H   0  0  0  0  0  0  0  0  0  0  0  0
   62.8239   33.0555   45.8315 H   0  0  0  0  0  0  0  0  0  0  0  0
   64.5336   32.8213   47.8413 H   0  0  0  0  0  0  0  0  0  0  0  0
   63.7830   34.3608   48.3979 H   0  0  0  0  0  0  0  0  0  0  0  0
   62.3063   31.6163   50.1307 H   0  0  0  0  0  0  0  0  0  0  0  0
   63.4769   32.9930   50.1566 H   0  0  0  0  0  0  0  0  0  0  0  0
   61.4660   33.5221   51.4913 H   0  0  0  0  0  0  0  0  0  0  0  0
   61.5900   34.5950   50.0560 H   0  0  0  0  0  0  0  0  0  0  0  0
   60.4273   33.2258   50.0560 H   0  0  0  0  0  0  0  0  0  0  0  0
   63.1428   31.2524   46.9300 H   0  0  0  0  0  0  0  0  0  0  0  0
   62.6303   30.6025   48.5312 H   0  0  0  0  0  0  0  0  0  0  0  0
   60.7921   31.7782   46.3780 H   0  0  0  0  0  0  0  0  0  0  0  0
   60.9674   30.0340   46.8100 H   0  0  0  0  0  0  0  0  0  0  0  0
   57.6676   31.9327   45.9451 H   0  0  0  0  0  0  0  0  0  0  0  0
   57.5486   33.4940   44.0011 H   0  0  0  0  0  0  0  0  0  0  0  0
   58.8368   35.6338   44.0333 H   0  0  0  0  0  0  0  0  0  0  0  0
   60.2590   36.2047   46.0059 H   0  0  0  0  0  0  0  0  0  0  0  0
   60.3821   34.6468   47.9520 H   0  0  0  0  0  0  0  0  0  0  0  0
   56.6992   32.8416   51.3289 H   0  0  0  0  0  0  0  0  0  0  0  0
   56.6514   31.4102   53.3616 H   0  0  0  0  0  0  0  0  0  0  0  0
   58.1796   29.4615   53.5551 H   0  0  0  0  0  0  0  0  0  0  0  0
   60.1477   28.3980   52.8938 H   0  0  0  0  0  0  0  0  0  0  0  0
   59.5579   27.6895   51.3522 H   0  0  0  0  0  0  0  0  0  0  0  0
   60.9891   28.7749   51.3522 H   0  0  0  0  0  0  0  0  0  0  0  0
  1  2  1  0
  2  3  1  0
  3  4  1  0
  4  5  1  0
  3  6  1  0
  6  7  1  0
  7  8  1  0
  8  9  1  0
  9 10  1  0
 10 11  2  0
 11 12  1  0
 12 13  2  0
 13 14  1  0
 14 15  2  0
  9 16  2  0
 16 17  1  0
 17 18  2  0
 18 19  1  0
 19 20  2  0
 20 21  1  0
 21 22  1  0
 21 23  2  0
 23 24  1  0
 24 25  2  0
 24  8  1  0
 15 10  1  0
 23 17  1  0
  1 26  1  0
  1 27  1  0
  1 28  1  0
  2 29  1  0
  2 30  1  0
  4 31  1  0
  4 32  1  0
  5 33  1  0
  5 34  1  0
  5 35  1  0
  6 36  1  0
  6 37  1  0
  7 38  1  0
  7 39  1  0
 11 40  1  0
 12 41  1  0
 13 42  1  0
 14 43  1  0
 15 44  1  0
 18 45  1  0
 19 46  1  0
 20 47  1  0
 22 48  1  0
 22 49  1  0
 22 50  1  0
M  END
>  <UniqueID>  (47) 
43

>  <SMILES>  (47) 
CCN(CC)CCn1c(-c2ccccc2)nc2cccc(C)c2c1=O

>  <Energy>  (47) 
66.47103852079948

>  <Genealogy>  (47) 
CCN(CC)CCn1c(-c2ccccc2)nc2cccc(C)c2c1=O (3D coordinates assigned)
CCN(CC)CCn1c(-c2ccccc2)nc2cccc(C)c2c1=O (optimized conformer: 66.47103852079948 kcal/mol)

>  <smiles>  (47) 
CCN(CC)CCn1c(-c2ccccc2)nc2cccc(C)c2c1=O

>  <score_type>  (47) 
oracle

>  <origin>  (47) 
adg

>  <m_score__min__energy>  (47) 
-6.9699999999999998

>  <m_primary>  (47) 
energy

$$$$
