0:0
     RDKit          3D

 29 30  0  0  0  0  0  0  0  0999 V2000
   55.8630   29.7710   43.5200 C   0  0  0  0  0  0  0  0  0  0  0  0
   57.2500   30.2040   43.3950 N   0  0  0  0  0  0  0  0  0  0  0  0
   57.8590   31.1800   44.2590 C   0  0  0  0  0  0  0  0  0  0  0  0
   58.5640   30.7500   45.3940 C   0  0  0  0  0  0  0  0  0  0  0  0
   59.1680   31.6760   46.2500 C   0  0  0  0  0  0  0  0  0  0  0  0
   59.0860   33.0460   45.9840 C   0  0  0  0  0  0  0  0  0  0  0  0
   59.7020   33.9410   46.8710 O   0  0  0  0  0  0  0  0  0  0  0  0
   61.0220   33.8320   47.3290 C   0  0  0  0  0  0  0  0  0  0  0  0
   62.0590   33.8480   46.3870 C   0  0  0  0  0  0  0  0  0  0  0  0
   63.3900   33.7390   46.7980 C   0  0  0  0  0  0  0  0  0  0  0  0
   63.6960   33.6270   48.1560 C   0  0  0  0  0  0  0  0  0  0  0  0
   62.6720   33.6350   49.1070 C   0  0  0  0  0  0  0  0  0  0  0  0
   61.3340   33.7450   48.7040 C   0  0  0  0  0  0  0  0  0  0  0  0
   60.3040   33.8210   49.7110 C   0  0  0  0  0  0  0  0  0  0  0  0
   59.4780   33.8820   50.5180 N   0  0  0  0  0  0  0  0  0  0  0  0
   58.3680   33.4850   44.8570 C   0  0  0  0  0  0  0  0  0  0  0  0
   57.7650   32.5610   44.0000 C   0  0  0  0  0  0  0  0  0  0  0  0
   55.5991   29.6886   44.5847 H   0  0  0  0  0  0  0  0  0  0  0  0
   55.2042   30.5062   43.0348 H   0  0  0  0  0  0  0  0  0  0  0  0
   55.7395   28.7916   43.0348 H   0  0  0  0  0  0  0  0  0  0  0  0
   57.8230   29.7760   42.6330 H   0  0  0  0  0  0  0  0  0  0  0  0
   58.6420   29.6747   45.6121 H   0  0  0  0  0  0  0  0  0  0  0  0
   59.7116   31.3240   47.1391 H   0  0  0  0  0  0  0  0  0  0  0  0
   61.8238   33.9470   45.3170 H   0  0  0  0  0  0  0  0  0  0  0  0
   64.1976   33.7414   46.0512 H   0  0  0  0  0  0  0  0  0  0  0  0
   64.7438   33.5324   48.4773 H   0  0  0  0  0  0  0  0  0  0  0  0
   62.9171   33.5546   50.1763 H   0  0  0  0  0  0  0  0  0  0  0  0
   58.2808   34.5617   44.6493 H   0  0  0  0  0  0  0  0  0  0  0  0
   57.2129   32.9147   43.1168 H   0  0  0  0  0  0  0  0  0  0  0  0
  1  2  1  0
  2  3  1  0
  3  4  2  0
  4  5  1  0
  5  6  2  0
  6  7  1  0
  7  8  1  0
  8  9  2  0
  9 10  1  0
 10 11  2  0
 11 12  1  0
 12 13  2  0
 13 14  1  0
 14 15  3  0
  6 16  1  0
 16 17  2  0
 17  3  1  0
 13  8  1  0
  1 18  1  0
  1 19  1  0
  1 20  1  0
  2 21  1  0
  4 22  1  0
  5 23  1  0
  9 24  1  0
 10 25  1  0
 11 26  1  0
 12 27  1  0
 16 28  1  0
 17 29  1  0
M  END
>  <UniqueID>  (1) 
1

>  <SMILES>  (1) 
CNc1ccc(Oc2ccccc2C#N)cc1

>  <Energy>  (1) 
35.82018859952297

>  <Genealogy>  (1) 
CNc1ccc(Oc2ccccc2C#N)cc1 (3D coordinates assigned)
CNc1ccc(Oc2ccccc2C#N)cc1 (optimized conformer: 35.82018859952297 kcal/mol)

>  <smiles>  (1) 
CNc1ccc(Oc2ccccc2C#N)cc1

>  <score_type>  (1) 
oracle

>  <origin>  (1) 
adg

>  <m_score__min__energy>  (1) 
-5.8700000000000001

>  <m_primary>  (1) 
energy

$$$$
1:0
     RDKit          3D

 40 42  0  0  1  0  0  0  0  0999 V2000
   58.7620   27.7520   44.1570 C   0  0  0  0  0  0  0  0  0  0  0  0
   57.6610   28.5660   43.6810 N   0  0  0  0  0  0  0  0  0  0  0  0
   57.0780   29.5110   44.9770 S   0  0  0  0  0  0  0  0  0  0  0  0
   57.3710   28.8670   46.3090 O   0  0  0  0  0  0  0  0  0  0  0  0
   55.5680   29.6270   44.9080 O   0  0  0  0  0  0  0  0  0  0  0  0
   57.6780   31.1540   44.9130 C   0  0  0  0  0  0  0  0  0  0  0  0
   57.6850   31.7800   43.6690 C   0  0  0  0  0  0  0  0  0  0  0  0
   58.1380   33.0720   43.5210 C   0  0  0  0  0  0  0  0  0  0  0  0
   58.5970   33.7770   44.6090 C   0  0  0  0  0  0  0  0  0  0  0  0
   58.6000   33.1630   45.8850 C   0  0  0  0  0  0  0  0  0  0  0  0
   58.9450   33.8730   46.9830 N   0  0  0  0  0  0  0  0  0  0  0  0
   59.7250   33.6740   47.9030 C   0  0  0  0  0  0  0  0  0  0  0  0
   59.2230   33.4590   49.1460 N   0  0  0  0  0  0  0  0  0  0  0  0
   59.9680   33.2300   50.2310 C   0  0  0  0  0  0  0  0  0  0  0  0
   61.2970   33.2110   50.0800 N   0  0  0  0  0  0  0  0  0  0  0  0
   61.8350   33.4180   48.8690 C   0  0  0  0  0  0  0  0  0  0  0  0
   63.1940   33.3880   48.7720 C   0  0  0  0  0  0  0  0  0  0  0  0
   63.9630   33.1510   49.8980 O   0  0  0  0  0  0  0  0  0  0  0  0
   65.3430   32.7870   49.7430 C   0  0  0  0  0  0  0  0  0  0  0  0
   63.7590   33.5990   47.5410 C   0  0  0  0  0  0  0  0  0  0  0  0
   63.0670   33.8390   46.3920 C   0  0  0  0  0  0  0  0  0  0  0  0
   61.6640   33.8650   46.5130 C   0  0  0  0  0  0  0  0  0  0  0  0
   61.0790   33.6590   47.7280 C   0  0  0  0  0  0  0  0  0  0  0  0
   58.1270   31.8330   46.0000 C   0  0  0  0  0  0  0  0  0  0  0  0
   58.7667   27.7486   45.2570 H   0  0  0  0  0  0  0  0  0  0  0  0
   58.6435   26.7227   43.7876 H   0  0  0  0  0  0  0  0  0  0  0  0
   59.7113   28.1671   43.7876 H   0  0  0  0  0  0  0  0  0  0  0  0
   58.0230   29.2250   42.9550 H   0  0  0  0  0  0  0  0  0  0  0  0
   57.3216   31.2317   42.7874 H   0  0  0  0  0  0  0  0  0  0  0  0
   58.1327   33.5428   42.5269 H   0  0  0  0  0  0  0  0  0  0  0  0
   58.9587   34.8089   44.4890 H   0  0  0  0  0  0  0  0  0  0  0  0
   58.1770   33.4680   49.3020 H   0  0  0  0  0  0  0  0  0  0  0  0
   59.5046   33.0628   51.2145 H   0  0  0  0  0  0  0  0  0  0  0  0
   65.8037   32.6655   50.7344 H   0  0  0  0  0  0  0  0  0  0  0  0
   65.4123   31.8399   49.1879 H   0  0  0  0  0  0  0  0  0  0  0  0
   65.8704   33.5767   49.1879 H   0  0  0  0  0  0  0  0  0  0  0  0
   64.8567   33.5725   47.4757 H   0  0  0  0  0  0  0  0  0  0  0  0
   63.5730   34.0024   45.4291 H   0  0  0  0  0  0  0  0  0  0  0  0
   61.0394   34.0516   45.6270 H   0  0  0  0  0  0  0  0  0  0  0  0
   58.1233   31.3426   46.9846 H   0  0  0  0  0  0  0  0  0  0  0  0
  1  2  1  0
  2  3  1  0
  3  4  2  0
  3  5  2  0
  3  6  1  0
  6  7  2  0
  7  8  1  0
  8  9  2  0
  9 10  1  0
 10 11  1  0
 11 12  2  0
 12 13  1  0
 13 14  1  0
 14 15  2  0
 15 16  1  0
 16 17  2  0
 17 18  1  0
 18 19  1  0
 17 20  1  0
 20 21  2  0
 21 22  1  0
 22 23  2  0
 10 24  2  0
 24  6  1  0
 23 12  1  0
 23 16  1  0
  1 25  1  0
  1 26  1  0
  1 27  1  0
  2 28  1  0
  7 29  1  0
  8 30  1  0
  9 31  1  0
 13 32  1  0
 14 33  1  0
 19 34  1  0
 19 35  1  0
 19 36  1  0
 20 37  1  0
 21 38  1  0
 22 39  1  0
 24 40  1  0
M  END
>  <smiles>  (2) 
CNS(=O)(=O)c1cccc(N=c2[nH]cnc3c(OC)cccc23)c1

>  <score_type>  (2) 
oracle

>  <origin>  (2) 
adg

>  <m_score__min__energy>  (2) 
-8.2899999999999991

>  <m_primary>  (2) 
energy

$$$$
2:0
     RDKit          3D

 47 49  0  0  0  0  0  0  0  0999 V2000
   65.5320   32.7400   49.7610 C   0  0  0  0  0  0  0  0  0  0  0  0
   64.2070   33.1840   49.1340 C   0  0  0  0  0  0  0  0  0  0  0  0
   63.4430   32.0960   48.4770 N   0  0  0  0  0  0  0  0  0  0  0  0
   62.9010   32.4470   47.1410 C   0  0  0  0  0  0  0  0  0  0  0  0
   63.3070   33.8400   46.6300 C   0  0  0  0  0  0  0  0  0  0  0  0
   62.5160   31.3370   49.3460 C   0  0  0  0  0  0  0  0  0  0  0  0
   61.9100   32.2220   50.4470 C   0  0  0  0  0  0  0  0  0  0  0  0
   60.3780   32.1280   50.4890 C   0  0  0  0  0  0  0  0  0  0  0  0
   59.7910   32.3890   49.1640 N   0  0  0  0  0  0  0  0  0  0  0  0
   60.0110   33.6540   48.5130 C   0  0  0  0  0  0  0  0  0  0  0  0
   60.6250   34.5780   49.1140 O   0  0  0  0  0  0  0  0  0  0  0  0
   59.5180   33.8740   47.1340 C   0  0  0  0  0  0  0  0  0  0  0  0
   59.7400   35.1000   46.4840 C   0  0  0  0  0  0  0  0  0  0  0  0
   59.2790   35.3070   45.1820 C   0  0  0  0  0  0  0  0  0  0  0  0
   58.5920   34.2960   44.5110 C   0  0  0  0  0  0  0  0  0  0  0  0
   58.3570   33.0640   45.1390 C   0  0  0  0  0  0  0  0  0  0  0  0
   57.6670   32.0500   44.4600 C   0  0  0  0  0  0  0  0  0  0  0  0
   57.4250   30.8120   45.0770 C   0  0  0  0  0  0  0  0  0  0  0  0
   56.7160   29.7710   44.3780 N   0  0  0  0  0  0  0  0  0  0  0  0
   57.1940   29.2590   43.3440 O   0  0  0  0  0  0  0  0  0  0  0  0
   55.5000   29.3220   44.8370 O   0  0  0  0  0  0  0  0  0  0  0  0
   57.8850   30.5980   46.3860 C   0  0  0  0  0  0  0  0  0  0  0  0
   58.5800   31.6030   47.0840 C   0  0  0  0  0  0  0  0  0  0  0  0
   58.8210   32.8450   46.4600 C   0  0  0  0  0  0  0  0  0  0  0  0
   59.0610   31.3610   48.4640 C   0  0  0  0  0  0  0  0  0  0  0  0
   58.8360   30.2530   49.0240 O   0  0  0  0  0  0  0  0  0  0  0  0
   65.4466   32.7686   50.8573 H   0  0  0  0  0  0  0  0  0  0  0  0
   65.7651   31.7147   49.4380 H   0  0  0  0  0  0  0  0  0  0  0  0
   66.3358   33.4179   49.4380 H   0  0  0  0  0  0  0  0  0  0  0  0
   63.5785   33.6146   49.9275 H   0  0  0  0  0  0  0  0  0  0  0  0
   64.4607   33.9083   48.3460 H   0  0  0  0  0  0  0  0  0  0  0  0
   63.2589   31.6989   46.4184 H   0  0  0  0  0  0  0  0  0  0  0  0
   61.8058   32.4597   47.2428 H   0  0  0  0  0  0  0  0  0  0  0  0
   63.5002   34.5028   47.4864 H   0  0  0  0  0  0  0  0  0  0  0  0
   64.2178   33.7553   46.0191 H   0  0  0  0  0  0  0  0  0  0  0  0
   62.4933   34.2580   46.0191 H   0  0  0  0  0  0  0  0  0  0  0  0
   61.7019   30.9301   48.7282 H   0  0  0  0  0  0  0  0  0  0  0  0
   63.0859   30.5308   49.8311 H   0  0  0  0  0  0  0  0  0  0  0  0
   62.3114   31.9018   51.4198 H   0  0  0  0  0  0  0  0  0  0  0  0
   62.1784   33.2659   50.2271 H   0  0  0  0  0  0  0  0  0  0  0  0
   60.0895   31.1183   50.8165 H   0  0  0  0  0  0  0  0  0  0  0  0
   60.0021   32.8863   51.1916 H   0  0  0  0  0  0  0  0  0  0  0  0
   60.2814   35.9034   47.0051 H   0  0  0  0  0  0  0  0  0  0  0  0
   59.4585   36.2712   44.6840 H   0  0  0  0  0  0  0  0  0  0  0  0
   58.2329   34.4653   43.4851 H   0  0  0  0  0  0  0  0  0  0  0  0
   57.3117   32.2259   43.4339 H   0  0  0  0  0  0  0  0  0  0  0  0
   57.6993   29.6296   46.8736 H   0  0  0  0  0  0  0  0  0  0  0  0
  1  2  1  0
  2  3  1  0
  3  4  1  0
  4  5  1  0
  3  6  1  0
  6  7  1  0
  7  8  1  0
  8  9  1  0
  9 10  1  0
 10 11  2  0
 10 12  1  0
 12 13  1  0
 13 14  2  0
 14 15  1  0
 15 16  2  0
 16 17  1  0
 17 18  2  0
 18 19  1  0
 19 20  2  0
 19 21  1  0
 18 22  1  0
 22 23  2  0
 23 24  1  0
 23 25  1  0
 25 26  2  0
 25  9  1  0
 24 12  2  0
 24 16  1  0
  1 27  1  0
  1 28  1  0
  1 29  1  0
  2 30  1  0
  2 31  1  0
  4 32  1  0
  4 33  1  0
  5 34  1  0
  5 35  1  0
  5 36  1  0
  6 37  1  0
  6 38  1  0
  7 39  1  0
  7 40  1  0
  8 41  1  0
  8 42  1  0
 13 43  1  0
 14 44  1  0
 15 45  1  0
 17 46  1  0
 22 47  1  0
M  CHG  2  19   1  21  -1
M  END
>  <UniqueID>  (3) 
2

>  <SMILES>  (3) 
CCN(CC)CCCN1C(=O)c2cccc3cc([N+](=O)[O-])cc(c23)C1=O

>  <Energy>  (3) 
58.739642236656195

>  <Genealogy>  (3) 
CCN(CC)CCCN1C(=O)c2cccc3cc([N+](=O)[O-])cc(c23)C1=O (3D coordinates assigned)
CCN(CC)CCCN1C(=O)c2cccc3cc([N+](=O)[O-])cc(c23)C1=O (nonaromatic ring conformer: 58.739642236656195 kcal/mol)

>  <smiles>  (3) 
CCN(CC)CCCN1C(=O)c2cccc3cc([N+](=O)[O-])cc(c23)C1=O

>  <score_type>  (3) 
oracle

>  <origin>  (3) 
adg

>  <m_score__min__energy>  (3) 
-8.0299999999999994

>  <m_primary>  (3) 
energy

$$$$
3:0
     RDKit          3D

 66 68  0  0  0  0  0  0  0  0999 V2000
   54.4090   29.7358   44.0490 H   0  0  0  0  0  0  0  0  0  0  0  0
   55.4470   29.6820   44.4090 C   0  0  0  0  0  0  0  0  0  0  0  0
   55.8490   28.6270   45.1520 N   0  0  0  0  0  0  0  0  0  0  0  0
   57.1190   28.5170   45.6200 C   0  0  0  0  0  0  0  0  0  0  0  0
   57.4500   27.3880   46.3780 C   0  0  0  0  0  0  0  0  0  0  0  0
   56.6847   26.6259   46.5867 H   0  0  0  0  0  0  0  0  0  0  0  0
   58.7410   27.2240   46.8690 C   0  0  0  0  0  0  0  0  0  0  0  0
   58.9926   26.3397   47.4729 H   0  0  0  0  0  0  0  0  0  0  0  0
   59.7130   28.1800   46.5950 C   0  0  0  0  0  0  0  0  0  0  0  0
   60.7358   28.0420   46.9757 H   0  0  0  0  0  0  0  0  0  0  0  0
   59.4020   29.3150   45.8400 C   0  0  0  0  0  0  0  0  0  0  0  0
   60.1870   30.0566   45.6306 H   0  0  0  0  0  0  0  0  0  0  0  0
   58.0910   29.5270   45.3390 C   0  0  0  0  0  0  0  0  0  0  0  0
   57.6660   30.6610   44.5590 C   0  0  0  0  0  0  0  0  0  0  0  0
   58.3880   31.7010   44.2330 N   0  0  0  0  0  0  0  0  0  0  0  0
   58.0620   33.0730   43.8600 C   0  0  0  0  0  0  0  0  0  0  0  0
   57.5309   33.0731   42.8967 H   0  0  0  0  0  0  0  0  0  0  0  0
   58.9908   33.6556   43.7713 H   0  0  0  0  0  0  0  0  0  0  0  0
   57.1660   33.7070   44.9370 C   0  0  0  0  0  0  0  0  0  0  0  0
   56.4943   32.9337   45.3381 H   0  0  0  0  0  0  0  0  0  0  0  0
   56.6018   34.5251   44.4655 H   0  0  0  0  0  0  0  0  0  0  0  0
   57.9490   34.2830   46.0540 N   0  0  0  0  0  0  0  0  0  0  0  0
   57.9030   33.4030   47.2530 C   0  0  0  0  0  0  0  0  0  0  0  0
   57.0216   32.7491   47.1781 H   0  0  0  0  0  0  0  0  0  0  0  0
   57.8503   34.0486   48.1420 H   0  0  0  0  0  0  0  0  0  0  0  0
   59.1610   32.5250   47.3830 C   0  0  0  0  0  0  0  0  0  0  0  0
   59.2209   31.8620   46.5073 H   0  0  0  0  0  0  0  0  0  0  0  0
   59.0743   31.9519   48.3179 H   0  0  0  0  0  0  0  0  0  0  0  0
   60.4090   33.3290   47.4590 N   0  0  0  0  0  0  0  0  0  0  0  0
   60.9360   33.4210   48.8380 C   0  0  0  0  0  0  0  0  0  0  0  0
   60.9270   34.4727   49.1602 H   0  0  0  0  0  0  0  0  0  0  0  0
   61.9640   33.0299   48.8543 H   0  0  0  0  0  0  0  0  0  0  0  0
   60.0750   32.5940   49.7930 C   0  0  0  0  0  0  0  0  0  0  0  0
   60.6573   32.3456   50.6926 H   0  0  0  0  0  0  0  0  0  0  0  0
   59.7602   31.6639   49.2971 H   0  0  0  0  0  0  0  0  0  0  0  0
   58.9370   33.3470   50.1590 O   0  0  0  0  0  0  0  0  0  0  0  0
   58.9510   33.6410   51.5440 C   0  0  0  0  0  0  0  0  0  0  0  0
   58.4531   34.6073   51.7124 H   0  0  0  0  0  0  0  0  0  0  0  0
   59.9961   33.6838   51.8843 H   0  0  0  0  0  0  0  0  0  0  0  0
   58.2160   32.5480   52.3440 C   0  0  0  0  0  0  0  0  0  0  0  0
   57.6857   33.0245   53.1817 H   0  0  0  0  0  0  0  0  0  0  0  0
   58.9740   31.8301   52.6905 H   0  0  0  0  0  0  0  0  0  0  0  0
   57.2280   31.7900   51.5280 N   0  0  0  0  0  0  0  0  0  0  0  0
   57.0190   32.4020   50.7030 H   0  0  0  0  0  0  0  0  0  0  0  0
   57.7820   30.5400   50.9330 C   0  0  0  0  0  0  0  0  0  0  0  0
   58.1329   30.7748   49.9173 H   0  0  0  0  0  0  0  0  0  0  0  0
   56.9646   29.8044   50.9610 H   0  0  0  0  0  0  0  0  0  0  0  0
   58.9520   29.9010   51.7030 C   0  0  0  0  0  0  0  0  0  0  0  0
   58.7754   29.9974   52.7844 H   0  0  0  0  0  0  0  0  0  0  0  0
   59.0278   28.8362   51.4374 H   0  0  0  0  0  0  0  0  0  0  0  0
   59.8888   30.4127   51.4374 H   0  0  0  0  0  0  0  0  0  0  0  0
   55.9060   31.5890   52.1830 C   0  0  0  0  0  0  0  0  0  0  0  0
   55.9450   32.0567   53.1779 H   0  0  0  0  0  0  0  0  0  0  0  0
   55.1618   32.0425   51.5118 H   0  0  0  0  0  0  0  0  0  0  0  0
   55.4800   30.1280   52.3630 C   0  0  0  0  0  0  0  0  0  0  0  0
   55.4122   29.8954   53.4360 H   0  0  0  0  0  0  0  0  0  0  0  0
   54.4988   29.9714   51.8911 H   0  0  0  0  0  0  0  0  0  0  0  0
   56.2233   29.4685   51.8911 H   0  0  0  0  0  0  0  0  0  0  0  0
   60.2780   34.6710   46.8480 C   0  0  0  0  0  0  0  0  0  0  0  0
   61.2692   35.0141   46.5167 H   0  0  0  0  0  0  0  0  0  0  0  0
   59.8639   35.3599   47.5990 H   0  0  0  0  0  0  0  0  0  0  0  0
   59.3320   34.6340   45.6440 C   0  0  0  0  0  0  0  0  0  0  0  0
   59.6944   33.8829   44.9267 H   0  0  0  0  0  0  0  0  0  0  0  0
   59.3146   35.6339   45.1858 H   0  0  0  0  0  0  0  0  0  0  0  0
   56.3410   30.6980   44.0990 C   0  0  0  0  0  0  0  0  0  0  0  0
   56.0052   31.5453   43.4831 H   0  0  0  0  0  0  0  0  0  0  0  0
  1  2  1  0
  2  3  1  0
  3  4  1  0
  4  5  2  0
  5  6  1  0
  5  7  1  0
  7  8  1  0
  7  9  2  0
  9 10  1  0
  9 11  1  0
 11 12  1  0
 11 13  2  0
 13 14  1  0
 14 15  2  0
 15 16  1  0
 16 17  1  0
 16 18  1  0
 16 19  1  0
 19 20  1  0
 19 21  1  0
 19 22  1  0
 22 23  1  0
 23 24  1  0
 23 25  1  0
 23 26  1  0
 26 27  1  0
 26 28  1  0
 26 29  1  0
 29 30  1  0
 30 31  1  0
 30 32  1  0
 30 33  1  0
 33 34  1  0
 33 35  1  0
 33 36  1  0
 36 37  1  0
 37 38  1  0
 37 39  1  0
 37 40  1  0
 40 41  1  0
 40 42  1  0
 40 43  1  0
 43 44  1  0
 43 45  1  0
 45 46  1  0
 45 47  1  0
 45 48  1  0
 48 49  1  0
 48 50  1  0
 48 51  1  0
 43 52  1  0
 52 53  1  0
 52 54  1  0
 52 55  1  0
 55 56  1  0
 55 57  1  0
 55 58  1  0
 29 59  1  0
 59 60  1  0
 59 61  1  0
 59 62  1  0
 62 63  1  0
 62 64  1  0
 14 65  1  0
 65 66  1  0
 65  2  2  0
 13  4  1  0
 62 22  1  0
M  CHG  2   3  -1  43   1
M  END
>  <UniqueID>  (4) 
3

>  <SMILES>  (4) 
CC[NH+](CC)CCOCCN1CCN(CC/N=c2/cc[n-]c3ccccc23)CC1

>  <Energy>  (4) 
105.51121105985061

>  <Genealogy>  (4) 
CC[NH+](CC)CCOCCN1CCN(CCN=c2cc[n-]c3ccccc23)CC1 (protonated)
CC[NH+](CC)CCOCCN1CCN(CC/N=c2/cc[n-]c3ccccc23)CC1 (cis-trans isomerization)
CC[NH+](CC)CCOCCN1CCN(CC/N=c2/cc[n-]c3ccccc23)CC1 (3D coordinates assigned)
CC[NH+](CC)CCOCCN1CCN(CC/N=c2/cc[n-]c3ccccc23)CC1 (nonaromatic ring conformer: 105.51121105985061 kcal/mol)

>  <smiles>  (4) 
CCN(CC)CCOCCN1CCN(CCN=c2cc[nH]c3ccccc23)CC1

>  <score_type>  (4) 
oracle

>  <origin>  (4) 
adg

>  <m_score__min__energy>  (4) 
-7.8099999999999996

>  <m_primary>  (4) 
energy

$$$$
4:0
     RDKit          3D

 56 59  0  0  0  0  0  0  0  0999 V2000
   63.3660   33.7140   46.7400 C   0  0  0  0  0  0  0  0  0  0  0  0
   63.3910   32.2290   47.1230 C   0  0  0  0  0  0  0  0  0  0  0  0
   63.4500   32.0320   48.5960 N   0  0  0  0  0  0  0  0  0  0  0  0
   64.2400   33.1230   49.2300 C   0  0  0  0  0  0  0  0  0  0  0  0
   65.4780   32.5960   49.9670 C   0  0  0  0  0  0  0  0  0  0  0  0
   62.0730   31.9750   49.1820 C   0  0  0  0  0  0  0  0  0  0  0  0
   61.6120   30.5340   49.4750 C   0  0  0  0  0  0  0  0  0  0  0  0
   60.3420   30.1500   48.7060 C   0  0  0  0  0  0  0  0  0  0  0  0
   60.6140   30.0420   47.2730 N   0  0  0  0  0  0  0  0  0  0  0  0
   59.5470   29.8840   46.3270 C   0  0  0  0  0  0  0  0  0  0  0  0
   59.1100   28.5900   45.9580 C   0  0  0  0  0  0  0  0  0  0  0  0
   59.5830   27.4490   46.6410 C   0  0  0  0  0  0  0  0  0  0  0  0
   59.1640   26.1730   46.2730 C   0  0  0  0  0  0  0  0  0  0  0  0
   58.2600   26.0080   45.2300 C   0  0  0  0  0  0  0  0  0  0  0  0
   57.7640   27.1190   44.5470 C   0  0  0  0  0  0  0  0  0  0  0  0
   58.1720   28.4310   44.8920 C   0  0  0  0  0  0  0  0  0  0  0  0
   57.6850   29.5390   44.2220 N   0  0  0  0  0  0  0  0  0  0  0  0
   56.7480   29.3880   43.0910 C   0  0  0  0  0  0  0  0  0  0  0  0
   58.0710   30.7850   44.6410 C   0  0  0  0  0  0  0  0  0  0  0  0
   57.5730   32.2730   44.0010 S   0  0  0  0  0  0  0  0  0  0  0  0
   58.4770   33.1980   45.0660 C   0  0  0  0  0  0  0  0  0  0  0  0
   58.5320   34.5880   45.1240 C   0  0  0  0  0  0  0  0  0  0  0  0
   59.3200   35.1810   46.1160 C   0  0  0  0  0  0  0  0  0  0  0  0
   60.0210   34.3820   47.0340 C   0  0  0  0  0  0  0  0  0  0  0  0
   59.9490   32.9810   46.9610 C   0  0  0  0  0  0  0  0  0  0  0  0
   59.1820   32.3790   45.9470 C   0  0  0  0  0  0  0  0  0  0  0  0
   58.9680   30.9960   45.6930 C   0  0  0  0  0  0  0  0  0  0  0  0
   63.3557   34.3279   47.6527 H   0  0  0  0  0  0  0  0  0  0  0  0
   64.2602   33.9547   46.1463 H   0  0  0  0  0  0  0  0  0  0  0  0
   62.4642   33.9244   46.1463 H   0  0  0  0  0  0  0  0  0  0  0  0
   62.4803   31.7478   46.7370 H   0  0  0  0  0  0  0  0  0  0  0  0
   64.2953   31.7814   46.6849 H   0  0  0  0  0  0  0  0  0  0  0  0
   63.9450   31.1250   48.7760 H   0  0  0  0  0  0  0  0  0  0  0  0
   64.5664   33.8236   48.4473 H   0  0  0  0  0  0  0  0  0  0  0  0
   63.5943   33.6181   49.9703 H   0  0  0  0  0  0  0  0  0  0  0  0
   65.3155   32.6652   51.0527 H   0  0  0  0  0  0  0  0  0  0  0  0
   65.6513   31.5461   49.6884 H   0  0  0  0  0  0  0  0  0  0  0  0
   66.3549   33.1989   49.6884 H   0  0  0  0  0  0  0  0  0  0  0  0
   62.0668   32.5449   50.1228 H   0  0  0  0  0  0  0  0  0  0  0  0
   61.3790   32.4028   48.4435 H   0  0  0  0  0  0  0  0  0  0  0  0
   62.4183   29.8420   49.1903 H   0  0  0  0  0  0  0  0  0  0  0  0
   61.3815   30.4712   50.5487 H   0  0  0  0  0  0  0  0  0  0  0  0
   59.9748   29.1818   49.0771 H   0  0  0  0  0  0  0  0  0  0  0  0
   59.5852   30.9327   48.8628 H   0  0  0  0  0  0  0  0  0  0  0  0
   61.5660   30.2820   46.9140 H   0  0  0  0  0  0  0  0  0  0  0  0
   60.2912   27.5692   47.4741 H   0  0  0  0  0  0  0  0  0  0  0  0
   59.5494   25.2932   46.8091 H   0  0  0  0  0  0  0  0  0  0  0  0
   57.9344   24.9976   44.9420 H   0  0  0  0  0  0  0  0  0  0  0  0
   57.0447   26.9738   43.7276 H   0  0  0  0  0  0  0  0  0  0  0  0
   55.7310   29.2241   43.4768 H   0  0  0  0  0  0  0  0  0  0  0  0
   56.7646   30.3004   42.4768 H   0  0  0  0  0  0  0  0  0  0  0  0
   57.0504   28.5270   42.4768 H   0  0  0  0  0  0  0  0  0  0  0  0
   57.9697   35.2047   44.4074 H   0  0  0  0  0  0  0  0  0  0  0  0
   59.3909   36.2770   46.1773 H   0  0  0  0  0  0  0  0  0  0  0  0
   60.6312   34.8570   47.8163 H   0  0  0  0  0  0  0  0  0  0  0  0
   60.4882   32.3595   47.6911 H   0  0  0  0  0  0  0  0  0  0  0  0
  1  2  1  0
  2  3  1  0
  3  4  1  0
  4  5  1  0
  3  6  1  0
  6  7  1  0
  7  8  1  0
  8  9  1  0
  9 10  1  0
 10 11  2  0
 11 12  1  0
 12 13  2  0
 13 14  1  0
 14 15  2  0
 15 16  1  0
 16 17  2  0
 17 18  1  0
 17 19  1  0
 19 20  1  0
 20 21  1  0
 21 22  2  0
 22 23  1  0
 23 24  2  0
 24 25  1  0
 25 26  2  0
 26 27  1  0
 27 10  1  0
 16 11  1  0
 27 19  2  0
 26 21  1  0
  1 28  1  0
  1 29  1  0
  1 30  1  0
  2 31  1  0
  2 32  1  0
  3 33  1  0
  4 34  1  0
  4 35  1  0
  5 36  1  0
  5 37  1  0
  5 38  1  0
  6 39  1  0
  6 40  1  0
  7 41  1  0
  7 42  1  0
  8 43  1  0
  8 44  1  0
  9 45  1  0
 12 46  1  0
 13 47  1  0
 14 48  1  0
 15 49  1  0
 18 50  1  0
 18 51  1  0
 18 52  1  0
 22 53  1  0
 23 54  1  0
 24 55  1  0
 25 56  1  0
M  CHG  2   3   1  17   1
M  END
>  <UniqueID>  (5) 
4

>  <SMILES>  (5) 
CC[NH+](CC)CCCNc1c2ccccc2[n+](C)c2sc3ccccc3c12

>  <Energy>  (5) 
114.40325055302057

>  <Genealogy>  (5) 
CC[NH+](CC)CCCNc1c2ccccc2[n+](C)c2sc3ccccc3c12 (protonated)
CC[NH+](CC)CCCNc1c2ccccc2[n+](C)c2sc3ccccc3c12 (3D coordinates assigned)
CC[NH+](CC)CCCNc1c2ccccc2[n+](C)c2sc3ccccc3c12 (optimized conformer: 114.40325055302057 kcal/mol)

>  <smiles>  (5) 
CCN(CC)CCCNc1c2ccccc2[n+](C)c2sc3ccccc3c12

>  <score_type>  (5) 
oracle

>  <origin>  (5) 
adg

>  <m_score__min__energy>  (5) 
-5.8300000000000001

>  <m_primary>  (5) 
energy

$$$$
5:0
     RDKit          3D

 35 37  0  0  0  0  0  0  0  0999 V2000
   65.7410   32.5500   50.1820 C   0  0  0  0  0  0  0  0  0  0  0  0
   64.8320   33.6460   50.1510 O   0  0  0  0  0  0  0  0  0  0  0  0
   63.6520   33.6760   49.3920 C   0  0  0  0  0  0  0  0  0  0  0  0
   62.4530   34.2240   49.8810 C   0  0  0  0  0  0  0  0  0  0  0  0
   61.3030   34.2290   49.0850 C   0  0  0  0  0  0  0  0  0  0  0  0
   61.3250   33.6850   47.7880 C   0  0  0  0  0  0  0  0  0  0  0  0
   60.0910   33.7030   46.9600 C   0  0  0  0  0  0  0  0  0  0  0  0
   59.0220   34.5850   47.1530 C   0  0  0  0  0  0  0  0  0  0  0  0
   57.8640   34.2690   45.9760 S   0  0  0  0  0  0  0  0  0  0  0  0
   58.7480   33.0230   45.2820 C   0  0  0  0  0  0  0  0  0  0  0  0
   58.3480   32.2700   44.0550 C   0  0  0  0  0  0  0  0  0  0  0  0
   57.6150   31.0150   44.4390 C   0  0  0  0  0  0  0  0  0  0  0  0
   58.2490   30.0330   45.2180 C   0  0  0  0  0  0  0  0  0  0  0  0
   57.5530   28.8840   45.6060 C   0  0  0  0  0  0  0  0  0  0  0  0
   56.2180   28.7120   45.2300 C   0  0  0  0  0  0  0  0  0  0  0  0
   55.5280   27.5700   45.6170 O   0  0  0  0  0  0  0  0  0  0  0  0
   55.5760   29.6930   44.4650 C   0  0  0  0  0  0  0  0  0  0  0  0
   56.2700   30.8420   44.0750 C   0  0  0  0  0  0  0  0  0  0  0  0
   59.9290   32.8490   45.9100 N   0  0  0  0  0  0  0  0  0  0  0  0
   62.5300   33.1430   47.3050 C   0  0  0  0  0  0  0  0  0  0  0  0
   63.6780   33.1390   48.1010 C   0  0  0  0  0  0  0  0  0  0  0  0
   65.9606   32.2852   51.2268 H   0  0  0  0  0  0  0  0  0  0  0  0
   65.2909   31.6858   49.6716 H   0  0  0  0  0  0  0  0  0  0  0  0
   66.6735   32.8325   49.6716 H   0  0  0  0  0  0  0  0  0  0  0  0
   62.4193   34.6508   50.8943 H   0  0  0  0  0  0  0  0  0  0  0  0
   60.3715   34.6629   49.4774 H   0  0  0  0  0  0  0  0  0  0  0  0
   58.9516   35.3519   47.9384 H   0  0  0  0  0  0  0  0  0  0  0  0
   57.6915   32.9011   43.4379 H   0  0  0  0  0  0  0  0  0  0  0  0
   59.2500   32.0018   43.4854 H   0  0  0  0  0  0  0  0  0  0  0  0
   59.2969   30.1684   45.5239 H   0  0  0  0  0  0  0  0  0  0  0  0
   58.0572   28.1140   46.2084 H   0  0  0  0  0  0  0  0  0  0  0  0
   54.5246   29.5595   44.1706 H   0  0  0  0  0  0  0  0  0  0  0  0
   55.7601   31.6142   43.4802 H   0  0  0  0  0  0  0  0  0  0  0  0
   62.5686   32.7184   46.2910 H   0  0  0  0  0  0  0  0  0  0  0  0
   64.6114   32.7093   47.7085 H   0  0  0  0  0  0  0  0  0  0  0  0
  1  2  1  0
  2  3  1  0
  3  4  2  0
  4  5  1  0
  5  6  2  0
  6  7  1  0
  7  8  2  0
  8  9  1  0
  9 10  1  0
 10 11  1  0
 11 12  1  0
 12 13  2  0
 13 14  1  0
 14 15  2  0
 15 16  1  0
 15 17  1  0
 17 18  2  0
 10 19  2  0
  6 20  1  0
 20 21  2  0
 21  3  1  0
 19  7  1  0
 18 12  1  0
  1 22  1  0
  1 23  1  0
  1 24  1  0
  4 25  1  0
  5 26  1  0
  8 27  1  0
 11 28  1  0
 11 29  1  0
 13 30  1  0
 14 31  1  0
 17 32  1  0
 18 33  1  0
 20 34  1  0
 21 35  1  0
M  CHG  1  16  -1
M  END
>  <UniqueID>  (6) 
5

>  <SMILES>  (6) 
COc1ccc(-c2csc(Cc3ccc([O-])cc3)n2)cc1

>  <Energy>  (6) 
66.50625940567991

>  <Genealogy>  (6) 
COc1ccc(-c2csc(Cc3ccc([O-])cc3)n2)cc1 (protonated)
COc1ccc(-c2csc(Cc3ccc([O-])cc3)n2)cc1 (3D coordinates assigned)
COc1ccc(-c2csc(Cc3ccc([O-])cc3)n2)cc1 (optimized conformer: 66.50625940567991 kcal/mol)

>  <smiles>  (6) 
COc1ccc(-c2csc(Cc3ccc(O)cc3)n2)cc1

>  <score_type>  (6) 
oracle

>  <origin>  (6) 
adg

>  <m_score__min__energy>  (6) 
-11.050000000000001

>  <m_primary>  (6) 
energy

$$$$
6:0
     RDKit          3D

 57 60  0  0  0  0  0  0  0  0999 V2000
   56.5090   30.8760   52.0270 C   0  0  0  0  0  0  0  0  0  0  0  0
   57.4370   30.1200   51.2540 O   0  0  0  0  0  0  0  0  0  0  0  0
   58.4040   30.6810   50.4070 C   0  0  0  0  0  0  0  0  0  0  0  0
   58.8990   29.9050   49.3570 C   0  0  0  0  0  0  0  0  0  0  0  0
   59.8260   30.4320   48.4560 C   0  0  0  0  0  0  0  0  0  0  0  0
   60.2700   31.7620   48.5840 C   0  0  0  0  0  0  0  0  0  0  0  0
   61.2400   32.3200   47.5530 C   0  0  2  0  0  0  0  0  0  0  0  0
   62.6590   31.8000   47.7400 C   0  0  0  0  0  0  0  0  0  0  0  0
   63.5310   32.8670   47.0880 C   0  0  0  0  0  0  0  0  0  0  0  0
   62.6080   34.0660   46.8440 C   0  0  0  0  0  0  0  0  0  0  0  0
   61.3540   33.7940   47.5630 N   0  0  1  0  0  0  0  0  0  0  0  0
   60.1940   34.5720   47.0440 C   0  0  0  0  0  0  0  0  0  0  0  0
   59.2300   33.7930   46.1730 C   0  0  0  0  0  0  0  0  0  0  0  0
   59.3480   33.8080   44.7740 C   0  0  0  0  0  0  0  0  0  0  0  0
   58.5140   33.0080   43.9890 C   0  0  0  0  0  0  0  0  0  0  0  0
   57.5430   32.1920   44.5890 C   0  0  0  0  0  0  0  0  0  0  0  0
   56.7300   31.2460   43.7470 C   0  0  0  0  0  0  0  0  0  0  0  0
   57.4840   30.0170   43.4960 N   0  0  0  0  0  0  0  0  0  0  0  0
   58.0300   29.1930   44.5460 C   0  0  0  0  0  0  0  0  0  0  0  0
   59.4180   29.1090   44.7620 C   0  0  0  0  0  0  0  0  0  0  0  0
   59.9290   28.2900   45.7760 C   0  0  0  0  0  0  0  0  0  0  0  0
   59.0620   27.5560   46.5890 C   0  0  0  0  0  0  0  0  0  0  0  0
   57.6830   27.6460   46.3950 C   0  0  0  0  0  0  0  0  0  0  0  0
   57.1660   28.4620   45.3830 C   0  0  0  0  0  0  0  0  0  0  0  0
   55.8230   28.5250   45.2060 F   0  0  0  0  0  0  0  0  0  0  0  0
   57.3960   32.2100   45.9840 C   0  0  0  0  0  0  0  0  0  0  0  0
   58.2280   33.0090   46.7690 C   0  0  0  0  0  0  0  0  0  0  0  0
   59.8190   32.5240   49.6800 C   0  0  0  0  0  0  0  0  0  0  0  0
   58.8820   31.9950   50.5730 C   0  0  0  0  0  0  0  0  0  0  0  0
   56.7064   30.7152   53.0971 H   0  0  0  0  0  0  0  0  0  0  0  0
   56.6194   31.9446   51.7903 H   0  0  0  0  0  0  0  0  0  0  0  0
   55.4848   30.5519   51.7903 H   0  0  0  0  0  0  0  0  0  0  0  0
   58.5547   28.8670   49.2385 H   0  0  0  0  0  0  0  0  0  0  0  0
   60.2124   29.8036   47.6401 H   0  0  0  0  0  0  0  0  0  0  0  0
   60.8027   31.9800   46.6027 H   0  0  0  0  0  0  0  0  0  0  0  0
   62.9002   31.6969   48.8083 H   0  0  0  0  0  0  0  0  0  0  0  0
   62.8068   30.8037   47.2978 H   0  0  0  0  0  0  0  0  0  0  0  0
   64.3569   33.1490   47.7576 H   0  0  0  0  0  0  0  0  0  0  0  0
   63.9826   32.5057   46.1523 H   0  0  0  0  0  0  0  0  0  0  0  0
   63.0729   34.9856   47.2291 H   0  0  0  0  0  0  0  0  0  0  0  0
   62.4225   34.2074   45.7690 H   0  0  0  0  0  0  0  0  0  0  0  0
   61.5210   34.1210   48.5430 H   0  0  0  0  0  0  0  0  0  0  0  0
   59.6335   34.9625   47.9062 H   0  0  0  0  0  0  0  0  0  0  0  0
   60.6177   35.3579   46.4014 H   0  0  0  0  0  0  0  0  0  0  0  0
   60.0998   34.4520   44.2943 H   0  0  0  0  0  0  0  0  0  0  0  0
   58.6192   33.0179   42.8941 H   0  0  0  0  0  0  0  0  0  0  0  0
   55.7977   30.9987   44.2758 H   0  0  0  0  0  0  0  0  0  0  0  0
   56.5000   31.7285   42.7856 H   0  0  0  0  0  0  0  0  0  0  0  0
   57.7730   29.8290   42.5090 H   0  0  0  0  0  0  0  0  0  0  0  0
   60.1057   29.6904   44.1303 H   0  0  0  0  0  0  0  0  0  0  0  0
   61.0158   28.2243   45.9329 H   0  0  0  0  0  0  0  0  0  0  0  0
   59.4657   26.9080   47.3809 H   0  0  0  0  0  0  0  0  0  0  0  0
   57.0002   27.0734   47.0399 H   0  0  0  0  0  0  0  0  0  0  0  0
   56.6215   31.5915   46.4611 H   0  0  0  0  0  0  0  0  0  0  0  0
   58.0986   33.0252   47.8612 H   0  0  0  0  0  0  0  0  0  0  0  0
   60.2066   33.5418   49.8342 H   0  0  0  0  0  0  0  0  0  0  0  0
   58.5164   32.6086   51.4096 H   0  0  0  0  0  0  0  0  0  0  0  0
  1  2  1  0
  2  3  1  0
  3  4  2  0
  4  5  1  0
  5  6  2  0
  6  7  1  0
  7  8  1  0
  8  9  1  0
  9 10  1  0
 10 11  1  0
 11 12  1  0
 12 13  1  0
 13 14  2  0
 14 15  1  0
 15 16  2  0
 16 17  1  0
 17 18  1  0
 18 19  1  0
 19 20  2  0
 20 21  1  0
 21 22  2  0
 22 23  1  0
 23 24  2  0
 24 25  1  0
 16 26  1  0
 26 27  2  0
  6 28  1  0
 28 29  2  0
 29  3  1  0
 11  7  1  0
 27 13  1  0
 24 19  1  0
  1 30  1  0
  1 31  1  0
  1 32  1  0
  4 33  1  0
  5 34  1  0
  7 35  1  6
  8 36  1  0
  8 37  1  0
  9 38  1  0
  9 39  1  0
 10 40  1  0
 10 41  1  0
 11 42  1  1
 12 43  1  0
 12 44  1  0
 14 45  1  0
 15 46  1  0
 17 47  1  0
 17 48  1  0
 18 49  1  0
 20 50  1  0
 21 51  1  0
 22 52  1  0
 23 53  1  0
 26 54  1  0
 27 55  1  0
 28 56  1  0
 29 57  1  0
M  CHG  1  11   1
M  END
>  <UniqueID>  (7) 
6

>  <SMILES>  (7) 
COc1ccc([C@@H]2CCC[N@H+]2Cc2ccc(CNc3ccccc3F)cc2)cc1

>  <Energy>  (7) 
68.99105485207033

>  <Genealogy>  (7) 
COc1ccc(C2CCC[NH+]2Cc2ccc(CNc3ccccc3F)cc2)cc1 (protonated)
COc1ccc([C@@H]2CCC[N@H+]2Cc2ccc(CNc3ccccc3F)cc2)cc1 (chirality)
COc1ccc([C@@H]2CCC[N@H+]2Cc2ccc(CNc3ccccc3F)cc2)cc1 (3D coordinates assigned)
COc1ccc([C@@H]2CCC[N@H+]2Cc2ccc(CNc3ccccc3F)cc2)cc1 (nonaromatic ring conformer: 68.99105485207033 kcal/mol)

>  <smiles>  (7) 
COc1ccc(C2CCCN2Cc2ccc(CNc3ccccc3F)cc2)cc1

>  <score_type>  (7) 
oracle

>  <origin>  (7) 
adg

>  <m_score__min__energy>  (7) 
-7.4400000000000004

>  <m_primary>  (7) 
energy

$$$$
7:0
     RDKit          3D

 47 48  0  0  0  0  0  0  0  0999 V2000
   63.4550   33.0870   47.0680 C   0  0  0  0  0  0  0  0  0  0  0  0
   62.3750   33.2010   48.1380 C   0  0  0  0  0  0  0  0  0  0  0  0
   61.1740   32.5560   47.7140 O   0  0  0  0  0  0  0  0  0  0  0  0
   60.1490   33.1470   46.9540 C   0  0  0  0  0  0  0  0  0  0  0  0
   60.2950   34.4090   46.3420 C   0  0  0  0  0  0  0  0  0  0  0  0
   59.2510   34.9520   45.5910 C   0  0  0  0  0  0  0  0  0  0  0  0
   58.0620   34.2450   45.4310 C   0  0  0  0  0  0  0  0  0  0  0  0
   57.9050   32.9920   46.0290 C   0  0  0  0  0  0  0  0  0  0  0  0
   58.9410   32.4420   46.8100 C   0  0  0  0  0  0  0  0  0  0  0  0
   58.8220   31.1980   47.4550 O   0  0  0  0  0  0  0  0  0  0  0  0
   58.5760   29.9400   46.8210 C   0  0  0  0  0  0  0  0  0  0  0  0
   59.8550   29.1000   46.7490 C   0  0  0  0  0  0  0  0  0  0  0  0
   60.8430   29.5830   47.7180 N   0  0  0  0  0  0  0  0  0  0  0  0
   60.7310   28.8600   48.9900 C   0  0  0  0  0  0  0  0  0  0  0  0
   60.4730   29.8460   50.1410 C   0  0  0  0  0  0  0  0  0  0  0  0
   60.2890   31.2340   49.6760 N   0  0  0  0  0  0  0  0  0  0  0  0
   59.4660   31.9980   50.5870 C   0  0  0  0  0  0  0  0  0  0  0  0
   58.2200   31.4940   51.0140 C   0  0  0  0  0  0  0  0  0  0  0  0
   57.7750   30.2920   50.5680 F   0  0  0  0  0  0  0  0  0  0  0  0
   57.4280   32.2280   51.9030 C   0  0  0  0  0  0  0  0  0  0  0  0
   57.8670   33.4650   52.3770 C   0  0  0  0  0  0  0  0  0  0  0  0
   59.1000   33.9730   51.9660 C   0  0  0  0  0  0  0  0  0  0  0  0
   59.8990   33.2480   51.0770 C   0  0  0  0  0  0  0  0  0  0  0  0
   61.0980   33.7600   50.7020 F   0  0  0  0  0  0  0  0  0  0  0  0
   64.4386   32.9832   47.5494 H   0  0  0  0  0  0  0  0  0  0  0  0
   63.2585   32.2046   46.4413 H   0  0  0  0  0  0  0  0  0  0  0  0
   63.4471   33.9910   46.4413 H   0  0  0  0  0  0  0  0  0  0  0  0
   62.7324   32.7262   49.0637 H   0  0  0  0  0  0  0  0  0  0  0  0
   62.1616   34.2658   48.3128 H   0  0  0  0  0  0  0  0  0  0  0  0
   61.2354   34.9679   46.4568 H   0  0  0  0  0  0  0  0  0  0  0  0
   59.3679   35.9412   45.1243 H   0  0  0  0  0  0  0  0  0  0  0  0
   57.2447   34.6739   44.8326 H   0  0  0  0  0  0  0  0  0  0  0  0
   56.9684   32.4323   45.8895 H   0  0  0  0  0  0  0  0  0  0  0  0
   57.8167   29.3900   47.3963 H   0  0  0  0  0  0  0  0  0  0  0  0
   58.2230   30.1280   45.7963 H   0  0  0  0  0  0  0  0  0  0  0  0
   59.6118   28.0508   46.9727 H   0  0  0  0  0  0  0  0  0  0  0  0
   60.2789   29.1843   45.7375 H   0  0  0  0  0  0  0  0  0  0  0  0
   60.6410   30.5940   47.9070 H   0  0  0  0  0  0  0  0  0  0  0  0
   59.8966   28.1458   48.9296 H   0  0  0  0  0  0  0  0  0  0  0  0
   61.6719   28.3234   49.1816 H   0  0  0  0  0  0  0  0  0  0  0  0
   59.5647   29.5315   50.6759 H   0  0  0  0  0  0  0  0  0  0  0  0
   61.3580   29.8307   50.7941 H   0  0  0  0  0  0  0  0  0  0  0  0
   61.2150   31.7000   49.5310 H   0  0  0  0  0  0  0  0  0  0  0  0
   59.8240   31.2110   48.7390 H   0  0  0  0  0  0  0  0  0  0  0  0
   56.4563   31.8291   52.2295 H   0  0  0  0  0  0  0  0  0  0  0  0
   57.2407   34.0399   53.0750 H   0  0  0  0  0  0  0  0  0  0  0  0
   59.4445   34.9473   52.3429 H   0  0  0  0  0  0  0  0  0  0  0  0
  1  2  1  0
  2  3  1  0
  3  4  1  0
  4  5  2  0
  5  6  1  0
  6  7  2  0
  7  8  1  0
  8  9  2  0
  9 10  1  0
 10 11  1  0
 11 12  1  0
 12 13  1  0
 13 14  1  0
 14 15  1  0
 15 16  1  0
 16 17  1  0
 17 18  2  0
 18 19  1  0
 18 20  1  0
 20 21  2  0
 21 22  1  0
 22 23  2  0
 23 24  1  0
  9  4  1  0
 23 17  1  0
  1 25  1  0
  1 26  1  0
  1 27  1  0
  2 28  1  0
  2 29  1  0
  5 30  1  0
  6 31  1  0
  7 32  1  0
  8 33  1  0
 11 34  1  0
 11 35  1  0
 12 36  1  0
 12 37  1  0
 13 38  1  0
 14 39  1  0
 14 40  1  0
 15 41  1  0
 15 42  1  0
 16 43  1  0
 16 44  1  0
 20 45  1  0
 21 46  1  0
 22 47  1  0
M  CHG  1  16   1
M  END
>  <UniqueID>  (8) 
7

>  <SMILES>  (8) 
CCOc1ccccc1OCCNCC[NH2+]c1c(F)cccc1F

>  <Energy>  (8) 
40.182795082695414

>  <Genealogy>  (8) 
CCOc1ccccc1OCCNCC[NH2+]c1c(F)cccc1F (protonated)
CCOc1ccccc1OCCNCC[NH2+]c1c(F)cccc1F (3D coordinates assigned)
CCOc1ccccc1OCCNCC[NH2+]c1c(F)cccc1F (optimized conformer: 40.182795082695414 kcal/mol)

>  <smiles>  (8) 
CCOc1ccccc1OCCNCCNc1c(F)cccc1F

>  <score_type>  (8) 
oracle

>  <origin>  (8) 
adg

>  <m_score__min__energy>  (8) 
-3.3900000000000001

>  <m_primary>  (8) 
energy

$$$$
8:0
     RDKit          3D

 44 46  0  0  0  0  0  0  0  0999 V2000
   60.6930   30.9700   47.2210 C   0  0  0  0  0  0  0  0  0  0  0  0
   60.6480   29.6140   46.6540 N   0  0  0  0  0  0  0  0  0  0  0  0
   60.1660   29.6560   45.2540 C   0  0  0  0  0  0  0  0  0  0  0  0
   59.6060   28.2950   44.8180 C   0  0  0  0  0  0  0  0  0  0  0  0
   58.4360   27.8840   45.6350 N   0  0  0  0  0  0  0  0  0  0  0  0
   57.1620   28.1620   44.9320 C   0  0  0  0  0  0  0  0  0  0  0  0
   57.3850   28.6050   43.4760 C   0  0  0  0  0  0  0  0  0  0  0  0
   56.6270   29.8970   43.1480 C   0  0  0  0  0  0  0  0  0  0  0  0
   57.1810   31.0460   43.9390 C   0  0  0  0  0  0  0  0  0  0  0  0
   57.0650   31.1150   45.2920 N   0  0  0  0  0  0  0  0  0  0  0  0
   57.6960   32.2640   45.5930 C   0  0  0  0  0  0  0  0  0  0  0  0
   57.8560   32.8370   46.8530 C   0  0  0  0  0  0  0  0  0  0  0  0
   58.5360   34.0660   46.9310 C   0  0  0  0  0  0  0  0  0  0  0  0
   59.0290   34.6870   45.7610 C   0  0  0  0  0  0  0  0  0  0  0  0
   58.8510   34.0820   44.5030 C   0  0  0  0  0  0  0  0  0  0  0  0
   58.1780   32.8580   44.4630 C   0  0  0  0  0  0  0  0  0  0  0  0
   57.8800   32.0850   43.4050 N   0  0  0  0  0  0  0  0  0  0  0  0
   58.1340   32.3730   41.9930 C   0  0  0  0  0  0  0  0  0  0  0  0
   58.4440   28.4680   47.0020 C   0  0  0  0  0  0  0  0  0  0  0  0
   59.8730   28.6900   47.5190 C   0  0  0  0  0  0  0  0  0  0  0  0
   60.6910   30.9084   48.3193 H   0  0  0  0  0  0  0  0  0  0  0  0
   61.6085   31.4782   46.8839 H   0  0  0  0  0  0  0  0  0  0  0  0
   59.8132   31.5378   46.8839 H   0  0  0  0  0  0  0  0  0  0  0  0
   59.3729   30.4137   45.1703 H   0  0  0  0  0  0  0  0  0  0  0  0
   61.0146   29.9085   44.6012 H   0  0  0  0  0  0  0  0  0  0  0  0
   59.2974   28.3597   43.7641 H   0  0  0  0  0  0  0  0  0  0  0  0
   60.3969   27.5433   44.9572 H   0  0  0  0  0  0  0  0  0  0  0  0
   56.5497   27.2481   44.9342 H   0  0  0  0  0  0  0  0  0  0  0  0
   56.6574   28.9840   45.4610 H   0  0  0  0  0  0  0  0  0  0  0  0
   58.4602   28.7734   43.3164 H   0  0  0  0  0  0  0  0  0  0  0  0
   57.0054   27.8107   42.8165 H   0  0  0  0  0  0  0  0  0  0  0  0
   56.7288   30.1140   42.0744 H   0  0  0  0  0  0  0  0  0  0  0  0
   55.5667   29.7637   43.4087 H   0  0  0  0  0  0  0  0  0  0  0  0
   57.4641   32.3453   47.7556 H   0  0  0  0  0  0  0  0  0  0  0  0
   58.6850   34.5469   47.9090 H   0  0  0  0  0  0  0  0  0  0  0  0
   59.5555   35.6500   45.8343 H   0  0  0  0  0  0  0  0  0  0  0  0
   59.2280   34.5554   43.5844 H   0  0  0  0  0  0  0  0  0  0  0  0
   58.8596   33.1957   41.9113 H   0  0  0  0  0  0  0  0  0  0  0  0
   58.5403   31.4758   41.5031 H   0  0  0  0  0  0  0  0  0  0  0  0
   57.1931   32.6640   41.5031 H   0  0  0  0  0  0  0  0  0  0  0  0
   57.9194   29.4346   46.9793 H   0  0  0  0  0  0  0  0  0  0  0  0
   57.9415   27.7612   47.6787 H   0  0  0  0  0  0  0  0  0  0  0  0
   59.8205   29.1146   48.5324 H   0  0  0  0  0  0  0  0  0  0  0  0
   60.3864   27.7172   47.5170 H   0  0  0  0  0  0  0  0  0  0  0  0
  1  2  1  0
  2  3  1  0
  3  4  1  0
  4  5  1  0
  5  6  1  0
  6  7  1  0
  7  8  1  0
  8  9  1  0
  9 10  2  0
 10 11  1  0
 11 12  2  0
 12 13  1  0
 13 14  2  0
 14 15  1  0
 15 16  2  0
 16 17  1  0
 17 18  1  0
  5 19  1  0
 19 20  1  0
 20  2  1  0
 17  9  1  0
 16 11  1  0
  1 21  1  0
  1 22  1  0
  1 23  1  0
  3 24  1  0
  3 25  1  0
  4 26  1  0
  4 27  1  0
  6 28  1  0
  6 29  1  0
  7 30  1  0
  7 31  1  0
  8 32  1  0
  8 33  1  0
 12 34  1  0
 13 35  1  0
 14 36  1  0
 15 37  1  0
 18 38  1  0
 18 39  1  0
 18 40  1  0
 19 41  1  0
 19 42  1  0
 20 43  1  0
 20 44  1  0
M  END
>  <UniqueID>  (9) 
8

>  <SMILES>  (9) 
CN1CCN(CCCc2nc3ccccc3n2C)CC1

>  <Energy>  (9) 
90.02872786053106

>  <Genealogy>  (9) 
CN1CCN(CCCc2nc3ccccc3n2C)CC1 (3D coordinates assigned)
CN1CCN(CCCc2nc3ccccc3n2C)CC1 (nonaromatic ring conformer: 90.02872786053106 kcal/mol)

>  <smiles>  (9) 
CN1CCN(CCCc2nc3ccccc3n2C)CC1

>  <score_type>  (9) 
oracle

>  <origin>  (9) 
adg

>  <m_score__min__energy>  (9) 
-7.4100000000000001

>  <m_primary>  (9) 
energy

$$$$
9:0
     RDKit          3D

 51 53  0  0  0  0  0  0  0  0999 V2000
   57.0420   30.8820   43.2340 C   0  0  0  0  0  0  0  0  0  0  0  0
   56.3710   29.6910   43.9110 C   0  0  0  0  0  0  0  0  0  0  0  0
   57.2820   29.1040   44.9290 N   0  0  0  0  0  0  0  0  0  0  0  0
   57.3880   27.6330   44.7810 C   0  0  0  0  0  0  0  0  0  0  0  0
   58.1340   27.2410   43.5060 C   0  0  0  0  0  0  0  0  0  0  0  0
   58.6320   29.7110   44.8590 C   0  0  0  0  0  0  0  0  0  0  0  0
   59.5370   29.2260   46.0040 C   0  0  0  0  0  0  0  0  0  0  0  0
   58.9790   29.8270   47.6410 S   0  0  0  0  0  0  0  0  0  0  0  0
   60.0660   31.2640   47.7010 C   0  0  0  0  0  0  0  0  0  0  0  0
   61.2360   31.1760   48.4620 C   0  0  0  0  0  0  0  0  0  0  0  0
   62.1150   32.2690   48.5350 C   0  0  0  0  0  0  0  0  0  0  0  0
   63.3870   32.1950   49.2940 C   0  0  0  0  0  0  0  0  0  0  0  0
   64.4580   33.0680   49.0180 C   0  0  0  0  0  0  0  0  0  0  0  0
   65.6440   32.9900   49.7540 C   0  0  0  0  0  0  0  0  0  0  0  0
   65.7740   32.0480   50.7770 C   0  0  0  0  0  0  0  0  0  0  0  0
   64.7160   31.1860   51.0690 C   0  0  0  0  0  0  0  0  0  0  0  0
   63.5270   31.2590   50.3370 C   0  0  0  0  0  0  0  0  0  0  0  0
   61.7870   33.4260   47.8980 N   0  0  0  0  0  0  0  0  0  0  0  0
   60.6460   33.5620   47.1740 C   0  0  0  0  0  0  0  0  0  0  0  0
   60.3610   34.7840   46.5580 C   0  0  0  0  0  0  0  0  0  0  0  0
   59.1900   34.9390   45.8120 C   0  0  0  0  0  0  0  0  0  0  0  0
   58.2970   33.8680   45.6660 C   0  0  0  0  0  0  0  0  0  0  0  0
   57.0310   34.0440   44.8820 C   0  0  0  0  0  0  0  0  0  0  0  0
   58.5670   32.6470   46.3040 C   0  0  0  0  0  0  0  0  0  0  0  0
   59.7490   32.4760   47.0520 C   0  0  0  0  0  0  0  0  0  0  0  0
   57.4292   31.5693   44.0006 H   0  0  0  0  0  0  0  0  0  0  0  0
   57.8728   30.5269   42.6066 H   0  0  0  0  0  0  0  0  0  0  0  0
   56.3078   31.4086   42.6066 H   0  0  0  0  0  0  0  0  0  0  0  0
   55.4445   30.0251   44.4009 H   0  0  0  0  0  0  0  0  0  0  0  0
   56.1386   28.9288   43.1526 H   0  0  0  0  0  0  0  0  0  0  0  0
   57.9283   27.2263   45.6485 H   0  0  0  0  0  0  0  0  0  0  0  0
   56.3694   27.2221   44.7201 H   0  0  0  0  0  0  0  0  0  0  0  0
   59.0789   26.7445   43.7720 H   0  0  0  0  0  0  0  0  0  0  0  0
   57.5123   26.5531   42.9142 H   0  0  0  0  0  0  0  0  0  0  0  0
   58.3478   28.1432   42.9142 H   0  0  0  0  0  0  0  0  0  0  0  0
   59.0954   29.4387   43.8993 H   0  0  0  0  0  0  0  0  0  0  0  0
   58.5213   30.8017   44.9496 H   0  0  0  0  0  0  0  0  0  0  0  0
   59.5359   28.1260   46.0129 H   0  0  0  0  0  0  0  0  0  0  0  0
   60.5454   29.6279   45.8263 H   0  0  0  0  0  0  0  0  0  0  0  0
   61.4685   30.2480   49.0050 H   0  0  0  0  0  0  0  0  0  0  0  0
   64.3602   33.8163   48.2177 H   0  0  0  0  0  0  0  0  0  0  0  0
   66.4766   33.6720   49.5269 H   0  0  0  0  0  0  0  0  0  0  0  0
   66.7096   31.9856   51.3521 H   0  0  0  0  0  0  0  0  0  0  0  0
   64.8178   30.4470   51.8774 H   0  0  0  0  0  0  0  0  0  0  0  0
   62.6951   30.5807   50.5774 H   0  0  0  0  0  0  0  0  0  0  0  0
   61.0610   35.6263   46.6610 H   0  0  0  0  0  0  0  0  0  0  0  0
   58.9675   35.9059   45.3369 H   0  0  0  0  0  0  0  0  0  0  0  0
   56.1843   34.1617   45.5743 H   0  0  0  0  0  0  0  0  0  0  0  0
   57.1136   34.9393   44.2483 H   0  0  0  0  0  0  0  0  0  0  0  0
   56.8663   33.1601   44.2483 H   0  0  0  0  0  0  0  0  0  0  0  0
   57.8501   31.8170   46.2194 H   0  0  0  0  0  0  0  0  0  0  0  0
  1  2  1  0
  2  3  1  0
  3  4  1  0
  4  5  1  0
  3  6  1  0
  6  7  1  0
  7  8  1  0
  8  9  1  0
  9 10  2  0
 10 11  1  0
 11 12  1  0
 12 13  2  0
 13 14  1  0
 14 15  2  0
 15 16  1  0
 16 17  2  0
 11 18  2  0
 18 19  1  0
 19 20  2  0
 20 21  1  0
 21 22  2  0
 22 23  1  0
 22 24  1  0
 24 25  2  0
 25  9  1  0
 17 12  1  0
 25 19  1  0
  1 26  1  0
  1 27  1  0
  1 28  1  0
  2 29  1  0
  2 30  1  0
  4 31  1  0
  4 32  1  0
  5 33  1  0
  5 34  1  0
  5 35  1  0
  6 36  1  0
  6 37  1  0
  7 38  1  0
  7 39  1  0
 10 40  1  0
 13 41  1  0
 14 42  1  0
 15 43  1  0
 16 44  1  0
 17 45  1  0
 20 46  1  0
 21 47  1  0
 23 48  1  0
 23 49  1  0
 23 50  1  0
 24 51  1  0
M  END
>  <UniqueID>  (10) 
9

>  <SMILES>  (10) 
CCN(CC)CCSc1cc(-c2ccccc2)nc2ccc(C)cc12

>  <Energy>  (10) 
51.327674884390255

>  <Genealogy>  (10) 
CCN(CC)CCSc1cc(-c2ccccc2)nc2ccc(C)cc12 (3D coordinates assigned)
CCN(CC)CCSc1cc(-c2ccccc2)nc2ccc(C)cc12 (optimized conformer: 51.327674884390255 kcal/mol)

>  <smiles>  (10) 
CCN(CC)CCSc1cc(-c2ccccc2)nc2ccc(C)cc12

>  <score_type>  (10) 
oracle

>  <origin>  (10) 
adg

>  <m_score__min__energy>  (10) 
-7.6900000000000004

>  <m_primary>  (10) 
energy

$$$$
10:0
     RDKit          3D

 32 34  0  0  0  0  0  0  0  0999 V2000
   55.2820   30.0130   44.0790 C   0  0  0  0  0  0  0  0  0  0  0  0
   55.9950   29.7420   42.8300 N   0  0  0  0  0  0  0  0  0  0  0  0
   57.0220   30.7640   42.5980 C   0  0  0  0  0  0  0  0  0  0  0  0
   57.7370   31.0860   43.8960 C   0  0  0  0  0  0  0  0  0  0  0  0
   57.7440   32.4220   44.3110 C   0  0  0  0  0  0  0  0  0  0  0  0
   58.3750   32.8150   45.4910 C   0  0  0  0  0  0  0  0  0  0  0  0
   58.3630   34.1730   45.8510 C   0  0  0  0  0  0  0  0  0  0  0  0
   58.9890   34.6000   47.0190 C   0  0  0  0  0  0  0  0  0  0  0  0
   59.6330   33.6790   47.8400 C   0  0  0  0  0  0  0  0  0  0  0  0
   60.4220   34.2260   49.3090 Cl  0  0  0  0  0  0  0  0  0  0  0  0
   59.6520   32.3230   47.4990 C   0  0  0  0  0  0  0  0  0  0  0  0
   59.0210   31.8570   46.3160 C   0  0  0  0  0  0  0  0  0  0  0  0
   59.0030   30.4810   45.9290 C   0  0  0  0  0  0  0  0  0  0  0  0
   59.6100   29.4660   46.7120 C   0  0  0  0  0  0  0  0  0  0  0  0
   59.5680   28.1290   46.3220 C   0  0  0  0  0  0  0  0  0  0  0  0
   60.3940   26.7890   47.4050 Br  0  0  0  0  0  0  0  0  0  0  0  0
   58.9210   27.7640   45.1490 C   0  0  0  0  0  0  0  0  0  0  0  0
   58.3160   28.7310   44.3530 C   0  0  0  0  0  0  0  0  0  0  0  0
   58.3470   30.0990   44.7150 C   0  0  0  0  0  0  0  0  0  0  0  0
   55.9307   29.7664   44.9324 H   0  0  0  0  0  0  0  0  0  0  0  0
   55.0088   31.0777   44.1217 H   0  0  0  0  0  0  0  0  0  0  0  0
   54.3706   29.3986   44.1217 H   0  0  0  0  0  0  0  0  0  0  0  0
   55.2940   29.7870   42.0550 H   0  0  0  0  0  0  0  0  0  0  0  0
   57.7505   30.3882   41.8645 H   0  0  0  0  0  0  0  0  0  0  0  0
   56.5425   31.6766   42.2143 H   0  0  0  0  0  0  0  0  0  0  0  0
   57.2404   33.1796   43.6926 H   0  0  0  0  0  0  0  0  0  0  0  0
   57.8552   34.9044   45.2052 H   0  0  0  0  0  0  0  0  0  0  0  0
   58.9746   35.6653   47.2929 H   0  0  0  0  0  0  0  0  0  0  0  0
   60.1640   31.6062   48.1579 H   0  0  0  0  0  0  0  0  0  0  0  0
   60.1239   29.7397   47.6453 H   0  0  0  0  0  0  0  0  0  0  0  0
   58.8867   26.7065   44.8482 H   0  0  0  0  0  0  0  0  0  0  0  0
   57.8052   28.4277   43.4272 H   0  0  0  0  0  0  0  0  0  0  0  0
  1  2  1  0
  2  3  1  0
  3  4  1  0
  4  5  2  0
  5  6  1  0
  6  7  2  0
  7  8  1  0
  8  9  2  0
  9 10  1  0
  9 11  1  0
 11 12  2  0
 12 13  1  0
 13 14  2  0
 14 15  1  0
 15 16  1  0
 15 17  2  0
 17 18  1  0
 18 19  2  0
 19  4  1  0
 12  6  1  0
 19 13  1  0
  1 20  1  0
  1 21  1  0
  1 22  1  0
  2 23  1  0
  3 24  1  0
  3 25  1  0
  5 26  1  0
  7 27  1  0
  8 28  1  0
 11 29  1  0
 14 30  1  0
 17 31  1  0
 18 32  1  0
M  END
>  <UniqueID>  (11) 
10

>  <SMILES>  (11) 
CNCc1cc2ccc(Cl)cc2c2cc(Br)ccc12

>  <Energy>  (11) 
47.13018873535818

>  <Genealogy>  (11) 
CNCc1cc2ccc(Cl)cc2c2cc(Br)ccc12 (3D coordinates assigned)
CNCc1cc2ccc(Cl)cc2c2cc(Br)ccc12 (optimized conformer: 47.13018873535818 kcal/mol)

>  <smiles>  (11) 
CNCc1cc2ccc(Cl)cc2c2cc(Br)ccc12

>  <score_type>  (11) 
oracle

>  <origin>  (11) 
adg

>  <m_score__min__energy>  (11) 
-7.9699999999999998

>  <m_primary>  (11) 
energy

$$$$
11:0
     RDKit          3D

 43 46  0  0  0  0  0  0  0  0999 V2000
   65.6390   32.6600   50.1110 C   0  0  0  0  0  0  0  0  0  0  0  0
   64.9240   33.4130   49.1360 O   0  0  0  0  0  0  0  0  0  0  0  0
   63.7530   32.9750   48.5000 C   0  0  0  0  0  0  0  0  0  0  0  0
   63.1570   33.6860   47.4410 C   0  0  0  0  0  0  0  0  0  0  0  0
   61.9900   33.2080   46.8390 C   0  0  0  0  0  0  0  0  0  0  0  0
   61.3950   32.0130   47.2810 C   0  0  0  0  0  0  0  0  0  0  0  0
   60.1540   31.5050   46.6400 C   0  0  0  0  0  0  0  0  0  0  0  0
   58.9610   32.2410   46.7190 C   0  0  0  0  0  0  0  0  0  0  0  0
   57.7920   31.7610   46.1260 C   0  0  0  0  0  0  0  0  0  0  0  0
   57.7870   30.5320   45.4460 C   0  0  0  0  0  0  0  0  0  0  0  0
   58.9890   29.8020   45.3290 C   0  0  0  0  0  0  0  0  0  0  0  0
   60.1580   30.2870   45.9420 C   0  0  0  0  0  0  0  0  0  0  0  0
   59.0270   28.5760   44.5730 N   0  0  0  0  0  0  0  0  0  0  0  0
   58.3450   27.5400   45.3030 C   0  0  0  0  0  0  0  0  0  0  0  0
   59.0710   26.4680   45.8500 C   0  0  0  0  0  0  0  0  0  0  0  0
   58.4120   25.4200   46.4950 C   0  0  0  0  0  0  0  0  0  0  0  0
   57.0150   25.4280   46.6090 C   0  0  0  0  0  0  0  0  0  0  0  0
   56.3040   24.2750   47.2530 C   0  0  0  0  0  0  0  0  0  0  0  0
   56.2850   26.4920   46.0610 C   0  0  0  0  0  0  0  0  0  0  0  0
   56.9390   27.5640   45.4400 C   0  0  0  0  0  0  0  0  0  0  0  0
   56.1450   28.6460   44.9340 N   0  0  0  0  0  0  0  0  0  0  0  0
   56.5200   30.0300   44.8670 C   0  0  0  0  0  0  0  0  0  0  0  0
   55.7080   30.8490   44.3620 O   0  0  0  0  0  0  0  0  0  0  0  0
   61.9930   31.3090   48.3400 C   0  0  0  0  0  0  0  0  0  0  0  0
   63.1610   31.7870   48.9410 C   0  0  0  0  0  0  0  0  0  0  0  0
   65.3342   32.9810   51.1180 H   0  0  0  0  0  0  0  0  0  0  0  0
   65.4162   31.5903   49.9840 H   0  0  0  0  0  0  0  0  0  0  0  0
   66.7188   32.8272   49.9840 H   0  0  0  0  0  0  0  0  0  0  0  0
   63.6122   34.6223   47.0858 H   0  0  0  0  0  0  0  0  0  0  0  0
   61.5329   33.7714   46.0122 H   0  0  0  0  0  0  0  0  0  0  0  0
   58.9474   33.2031   47.2522 H   0  0  0  0  0  0  0  0  0  0  0  0
   56.8659   32.3509   46.1919 H   0  0  0  0  0  0  0  0  0  0  0  0
   61.0883   29.7040   45.8736 H   0  0  0  0  0  0  0  0  0  0  0  0
   58.5610   28.7170   43.6460 H   0  0  0  0  0  0  0  0  0  0  0  0
   60.0150   28.2980   44.3660 H   0  0  0  0  0  0  0  0  0  0  0  0
   60.1679   26.4547   45.7691 H   0  0  0  0  0  0  0  0  0  0  0  0
   58.9913   24.5847   46.9154 H   0  0  0  0  0  0  0  0  0  0  0  0
   56.3639   24.3722   48.3471 H   0  0  0  0  0  0  0  0  0  0  0  0
   55.2488   24.2750   46.9421 H   0  0  0  0  0  0  0  0  0  0  0  0
   56.7778   23.3322   46.9421 H   0  0  0  0  0  0  0  0  0  0  0  0
   55.1866   26.4851   46.1193 H   0  0  0  0  0  0  0  0  0  0  0  0
   61.5382   30.3740   48.6990 H   0  0  0  0  0  0  0  0  0  0  0  0
   63.6185   31.2240   49.7679 H   0  0  0  0  0  0  0  0  0  0  0  0
  1  2  1  0
  2  3  1  0
  3  4  2  0
  4  5  1  0
  5  6  2  0
  6  7  1  0
  7  8  2  0
  8  9  1  0
  9 10  2  0
 10 11  1  0
 11 12  2  0
 11 13  1  0
 13 14  1  0
 14 15  2  0
 15 16  1  0
 16 17  2  0
 17 18  1  0
 17 19  1  0
 19 20  2  0
 20 21  1  0
 21 22  1  0
 22 23  2  0
  6 24  1  0
 24 25  2  0
 25  3  1  0
 12  7  1  0
 20 14  1  0
 22 10  1  0
  1 26  1  0
  1 27  1  0
  1 28  1  0
  4 29  1  0
  5 30  1  0
  8 31  1  0
  9 32  1  0
 12 33  1  0
 13 34  1  0
 13 35  1  0
 15 36  1  0
 16 37  1  0
 18 38  1  0
 18 39  1  0
 18 40  1  0
 19 41  1  0
 24 42  1  0
 25 43  1  0
M  CHG  2  13   1  21  -1
M  END
>  <UniqueID>  (12) 
11

>  <SMILES>  (12) 
COc1ccc(-c2ccc3c(c2)[NH2+]c2ccc(C)cc2[N-]C3=O)cc1

>  <Energy>  (12) 
64.91286988233303

>  <Genealogy>  (12) 
COc1ccc(-c2ccc3c(c2)[NH2+]c2ccc(C)cc2[N-]C3=O)cc1 (protonated)
COc1ccc(-c2ccc3c(c2)[NH2+]c2ccc(C)cc2[N-]C3=O)cc1 (3D coordinates assigned)
COc1ccc(-c2ccc3c(c2)[NH2+]c2ccc(C)cc2[N-]C3=O)cc1 (nonaromatic ring conformer: 64.91286988233303 kcal/mol)

>  <smiles>  (12) 
COc1ccc(-c2ccc3c(c2)Nc2ccc(C)cc2NC3=O)cc1

>  <score_type>  (12) 
oracle

>  <origin>  (12) 
adg

>  <m_score__min__energy>  (12) 
-8.4900000000000002

>  <m_primary>  (12) 
energy

$$$$
12:0
     RDKit          3D

 32 34  0  0  0  0  0  0  0  0999 V2000
   58.1370   27.0920   43.3700 C   0  0  0  0  0  0  0  0  0  0  0  0
   57.5720   27.4100   44.7500 C   0  0  0  0  0  0  0  0  0  0  0  0
   58.0760   28.7140   45.2270 N   0  0  0  0  0  0  0  0  0  0  0  0
   57.2430   29.8080   45.2350 C   0  0  0  0  0  0  0  0  0  0  0  0
   56.0540   29.7110   44.8250 O   0  0  0  0  0  0  0  0  0  0  0  0
   57.6770   31.0130   45.6850 N   0  0  0  0  0  0  0  0  0  0  0  0
   58.9340   31.2030   46.1560 C   0  0  0  0  0  0  0  0  0  0  0  0
   59.3560   32.4310   46.6070 N   0  0  0  0  0  0  0  0  0  0  0  0
   58.4330   33.5840   46.5710 C   0  0  0  0  0  0  0  0  0  0  0  0
   60.6450   32.5830   47.0920 C   0  0  0  0  0  0  0  0  0  0  0  0
   61.1210   33.8320   47.5670 C   0  0  0  0  0  0  0  0  0  0  0  0
   62.4220   33.9680   48.0540 C   0  0  0  0  0  0  0  0  0  0  0  0
   63.2820   32.8740   48.0810 C   0  0  0  0  0  0  0  0  0  0  0  0
   62.8460   31.6340   47.6220 C   0  0  0  0  0  0  0  0  0  0  0  0
   61.5400   31.4750   47.1280 C   0  0  0  0  0  0  0  0  0  0  0  0
   61.1300   30.2190   46.6750 C   0  0  0  0  0  0  0  0  0  0  0  0
   59.8410   30.0460   46.1820 C   0  0  0  0  0  0  0  0  0  0  0  0
   59.3590   28.8160   45.7110 C   0  0  0  0  0  0  0  0  0  0  0  0
   60.1110   27.8000   45.7360 O   0  0  0  0  0  0  0  0  0  0  0  0
   59.0909   26.5551   43.4791 H   0  0  0  0  0  0  0  0  0  0  0  0
   57.4234   26.4630   42.8176 H   0  0  0  0  0  0  0  0  0  0  0  0
   58.3044   28.0284   42.8176 H   0  0  0  0  0  0  0  0  0  0  0  0
   56.4741   27.4453   44.6924 H   0  0  0  0  0  0  0  0  0  0  0  0
   57.8896   26.6266   45.4538 H   0  0  0  0  0  0  0  0  0  0  0  0
   58.1881   33.8899   47.5988 H   0  0  0  0  0  0  0  0  0  0  0  0
   58.9130   34.4216   46.0437 H   0  0  0  0  0  0  0  0  0  0  0  0
   57.5107   33.2990   46.0437 H   0  0  0  0  0  0  0  0  0  0  0  0
   60.4545   34.7069   47.5513 H   0  0  0  0  0  0  0  0  0  0  0  0
   62.7697   34.9458   48.4187 H   0  0  0  0  0  0  0  0  0  0  0  0
   64.3063   32.9891   48.4651 H   0  0  0  0  0  0  0  0  0  0  0  0
   63.5290   30.7721   47.6462 H   0  0  0  0  0  0  0  0  0  0  0  0
   61.8257   29.3676   46.7081 H   0  0  0  0  0  0  0  0  0  0  0  0
  1  2  1  0
  2  3  1  0
  3  4  1  0
  4  5  2  0
  4  6  1  0
  6  7  2  0
  7  8  1  0
  8  9  1  0
  8 10  1  0
 10 11  2  0
 11 12  1  0
 12 13  2  0
 13 14  1  0
 14 15  2  0
 15 16  1  0
 16 17  2  0
 17 18  1  0
 18 19  2  0
 18  3  1  0
 17  7  1  0
 15 10  1  0
  1 20  1  0
  1 21  1  0
  1 22  1  0
  2 23  1  0
  2 24  1  0
  9 25  1  0
  9 26  1  0
  9 27  1  0
 11 28  1  0
 12 29  1  0
 13 30  1  0
 14 31  1  0
 16 32  1  0
M  END
>  <UniqueID>  (13) 
12

>  <SMILES>  (13) 
CCn1c(=O)nc2n(C)c3ccccc3cc-2c1=O

>  <Energy>  (13) 
48.45477240654361

>  <Genealogy>  (13) 
CCn1c(=O)nc2n(C)c3ccccc3cc-2c1=O (3D coordinates assigned)
CCn1c(=O)nc2n(C)c3ccccc3cc-2c1=O (optimized conformer: 48.45477240654361 kcal/mol)

>  <smiles>  (13) 
CCn1c(=O)nc2n(C)c3ccccc3cc-2c1=O

>  <score_type>  (13) 
oracle

>  <origin>  (13) 
adg

>  <m_score__min__energy>  (13) 
-6.71

>  <m_primary>  (13) 
energy

$$$$
13:0
     RDKit          3D

 37 36  0  0  0  0  0  0  0  0999 V2000
   56.3700   29.8390   42.7620 C   0  0  0  0  0  0  0  0  0  0  0  0
   55.5190   30.0780   44.0040 C   0  0  0  0  0  0  0  0  0  0  0  0
   56.3700   30.0920   45.2000 N   0  0  0  0  0  0  0  0  0  0  0  0
   57.5420   29.2190   45.0360 C   0  0  0  0  0  0  0  0  0  0  0  0
   58.2660   29.0410   46.3760 C   0  0  0  0  0  0  0  0  0  0  0  0
   59.2490   30.1940   46.6310 C   0  0  0  0  0  0  0  0  0  0  0  0
   58.9210   31.4480   45.7780 C   0  0  0  0  0  0  0  0  0  0  0  0
   57.7820   32.2590   46.2880 N   0  0  0  0  0  0  0  0  0  0  0  0
   57.3240   33.2360   45.2670 C   0  0  0  0  0  0  0  0  0  0  0  0
   58.3380   33.4270   44.1370 C   0  0  0  0  0  0  0  0  0  0  0  0
   58.1050   32.9000   47.5980 C   0  0  0  0  0  0  0  0  0  0  0  0
   58.9620   34.1590   47.4330 C   0  0  0  0  0  0  0  0  0  0  0  0
   57.3882   29.5531   43.0646 H   0  0  0  0  0  0  0  0  0  0  0  0
   55.9251   29.0311   42.1626 H   0  0  0  0  0  0  0  0  0  0  0  0
   56.4108   30.7604   42.1626 H   0  0  0  0  0  0  0  0  0  0  0  0
   55.0038   31.0455   43.9120 H   0  0  0  0  0  0  0  0  0  0  0  0
   54.7793   29.2691   44.0963 H   0  0  0  0  0  0  0  0  0  0  0  0
   55.8020   29.7150   45.9950 H   0  0  0  0  0  0  0  0  0  0  0  0
   57.2133   28.2359   44.6680 H   0  0  0  0  0  0  0  0  0  0  0  0
   58.2330   29.6801   44.3149 H   0  0  0  0  0  0  0  0  0  0  0  0
   57.5221   29.0174   47.1859 H   0  0  0  0  0  0  0  0  0  0  0  0
   58.8331   28.0990   46.3443 H   0  0  0  0  0  0  0  0  0  0  0  0
   59.2036   30.4685   47.6952 H   0  0  0  0  0  0  0  0  0  0  0  0
   60.2539   29.8480   46.3475 H   0  0  0  0  0  0  0  0  0  0  0  0
   59.8146   32.0889   45.7511 H   0  0  0  0  0  0  0  0  0  0  0  0
   58.6249   31.0821   44.7838 H   0  0  0  0  0  0  0  0  0  0  0  0
   57.0030   31.5700   46.4220 H   0  0  0  0  0  0  0  0  0  0  0  0
   56.3786   32.8763   44.8347 H   0  0  0  0  0  0  0  0  0  0  0  0
   57.1981   34.2069   45.7685 H   0  0  0  0  0  0  0  0  0  0  0  0
   59.3336   33.6145   44.5656 H   0  0  0  0  0  0  0  0  0  0  0  0
   58.3709   32.5193   43.5166 H   0  0  0  0  0  0  0  0  0  0  0  0
   58.0384   34.2845   43.5166 H   0  0  0  0  0  0  0  0  0  0  0  0
   57.1650   33.1750   48.0987 H   0  0  0  0  0  0  0  0  0  0  0  0
   58.6806   32.1765   48.1940 H   0  0  0  0  0  0  0  0  0  0  0  0
   59.2300   34.5527   48.4246 H   0  0  0  0  0  0  0  0  0  0  0  0
   59.8782   33.9088   46.8780 H   0  0  0  0  0  0  0  0  0  0  0  0
   58.3932   34.9196   46.8780 H   0  0  0  0  0  0  0  0  0  0  0  0
  1  2  1  0
  2  3  1  0
  3  4  1  0
  4  5  1  0
  5  6  1  0
  6  7  1  0
  7  8  1  0
  8  9  1  0
  9 10  1  0
  8 11  1  0
 11 12  1  0
  1 13  1  0
  1 14  1  0
  1 15  1  0
  2 16  1  0
  2 17  1  0
  3 18  1  0
  4 19  1  0
  4 20  1  0
  5 21  1  0
  5 22  1  0
  6 23  1  0
  6 24  1  0
  7 25  1  0
  7 26  1  0
  8 27  1  0
  9 28  1  0
  9 29  1  0
 10 30  1  0
 10 31  1  0
 10 32  1  0
 11 33  1  0
 11 34  1  0
 12 35  1  0
 12 36  1  0
 12 37  1  0
M  CHG  1   8   1
M  END
>  <UniqueID>  (14) 
13

>  <SMILES>  (14) 
CCNCCCC[NH+](CC)CC

>  <Energy>  (14) 
29.437780058726414

>  <Genealogy>  (14) 
CCNCCCC[NH+](CC)CC (protonated)
CCNCCCC[NH+](CC)CC (3D coordinates assigned)
CCNCCCC[NH+](CC)CC (optimized conformer: 29.437780058726414 kcal/mol)

>  <smiles>  (14) 
CCNCCCCN(CC)CC

>  <score_type>  (14) 
oracle

>  <origin>  (14) 
adg

>  <m_score__min__energy>  (14) 
-2.7599999999999998

>  <m_primary>  (14) 
energy

$$$$
14:0
     RDKit          3D

 53 55  0  0  0  0  0  0  0  0999 V2000
   63.3940   33.5560   46.5470 C   0  0  0  0  0  0  0  0  0  0  0  0
   63.0120   33.9300   47.9860 C   0  0  0  0  0  0  0  0  0  0  0  0
   62.1470   32.9280   48.6530 N   0  0  0  0  0  0  0  0  0  0  0  0
   61.8080   33.2980   50.0480 C   0  0  0  0  0  0  0  0  0  0  0  0
   60.3880   33.8480   50.0940 C   0  0  0  0  0  0  0  0  0  0  0  0
   62.6640   31.5500   48.5190 C   0  0  0  0  0  0  0  0  0  0  0  0
   61.5570   30.6000   48.0300 C   0  0  0  0  0  0  0  0  0  0  0  0
   60.2060   31.1450   48.2640 N   0  0  0  0  0  0  0  0  0  0  0  0
   59.3780   31.0820   47.0650 C   0  0  0  0  0  0  0  0  0  0  0  0
   59.0680   32.2530   46.3140 C   0  0  0  0  0  0  0  0  0  0  0  0
   59.5500   33.5400   46.6780 C   0  0  0  0  0  0  0  0  0  0  0  0
   59.1720   34.6790   45.9740 C   0  0  0  0  0  0  0  0  0  0  0  0
   58.3040   34.5800   44.9000 C   0  0  0  0  0  0  0  0  0  0  0  0
   57.8420   33.3340   44.4920 C   0  0  0  0  0  0  0  0  0  0  0  0
   58.2490   32.1450   45.1520 C   0  0  0  0  0  0  0  0  0  0  0  0
   57.8560   30.9060   44.6880 N   0  0  0  0  0  0  0  0  0  0  0  0
   57.3050   30.7740   43.3190 C   0  0  0  0  0  0  0  0  0  0  0  0
   58.0140   29.7860   45.4760 C   0  0  0  0  0  0  0  0  0  0  0  0
   57.3670   28.5650   45.1510 C   0  0  0  0  0  0  0  0  0  0  0  0
   57.5970   27.3990   45.8860 C   0  0  0  0  0  0  0  0  0  0  0  0
   56.8810   26.1280   45.5330 C   0  0  0  0  0  0  0  0  0  0  0  0
   58.4440   27.4430   46.9900 C   0  0  0  0  0  0  0  0  0  0  0  0
   59.0480   28.6390   47.3650 C   0  0  0  0  0  0  0  0  0  0  0  0
   58.8230   29.8390   46.6450 C   0  0  0  0  0  0  0  0  0  0  0  0
   64.1799   32.7866   46.5645 H   0  0  0  0  0  0  0  0  0  0  0  0
   62.5096   33.1650   46.0227 H   0  0  0  0  0  0  0  0  0  0  0  0
   63.7662   34.4485   46.0227 H   0  0  0  0  0  0  0  0  0  0  0  0
   63.9357   34.0374   48.5736 H   0  0  0  0  0  0  0  0  0  0  0  0
   62.4369   34.8662   47.9327 H   0  0  0  0  0  0  0  0  0  0  0  0
   61.8782   32.4084   50.6912 H   0  0  0  0  0  0  0  0  0  0  0  0
   62.5110   34.0644   50.4064 H   0  0  0  0  0  0  0  0  0  0  0  0
   60.0754   33.9691   51.1417 H   0  0  0  0  0  0  0  0  0  0  0  0
   60.3560   34.8235   49.5868 H   0  0  0  0  0  0  0  0  0  0  0  0
   59.7072   33.1485   49.5868 H   0  0  0  0  0  0  0  0  0  0  0  0
   63.4917   31.5435   47.7945 H   0  0  0  0  0  0  0  0  0  0  0  0
   63.0160   31.2067   49.5030 H   0  0  0  0  0  0  0  0  0  0  0  0
   61.6878   30.4305   46.9510 H   0  0  0  0  0  0  0  0  0  0  0  0
   61.6440   29.6621   48.5981 H   0  0  0  0  0  0  0  0  0  0  0  0
   60.2680   32.0970   48.6780 H   0  0  0  0  0  0  0  0  0  0  0  0
   59.7500   30.6130   49.0380 H   0  0  0  0  0  0  0  0  0  0  0  0
   60.2352   33.6372   47.5330 H   0  0  0  0  0  0  0  0  0  0  0  0
   59.5645   35.6624   46.2720 H   0  0  0  0  0  0  0  0  0  0  0  0
   57.9799   35.4874   44.3694 H   0  0  0  0  0  0  0  0  0  0  0  0
   57.1477   33.2682   43.6414 H   0  0  0  0  0  0  0  0  0  0  0  0
   56.2367   30.5181   43.3768 H   0  0  0  0  0  0  0  0  0  0  0  0
   57.4253   31.7264   42.7819 H   0  0  0  0  0  0  0  0  0  0  0  0
   57.8438   29.9795   42.7819 H   0  0  0  0  0  0  0  0  0  0  0  0
   56.6689   28.5361   44.3014 H   0  0  0  0  0  0  0  0  0  0  0  0
   56.5864   25.6050   46.4548 H   0  0  0  0  0  0  0  0  0  0  0  0
   55.9834   26.3646   44.9428 H   0  0  0  0  0  0  0  0  0  0  0  0
   57.5485   25.4829   44.9428 H   0  0  0  0  0  0  0  0  0  0  0  0
   58.6367   26.5276   47.5687 H   0  0  0  0  0  0  0  0  0  0  0  0
   59.7149   28.6536   48.2396 H   0  0  0  0  0  0  0  0  0  0  0  0
  1  2  1  0
  2  3  1  0
  3  4  1  0
  4  5  1  0
  3  6  1  0
  6  7  1  0
  7  8  1  0
  8  9  1  0
  9 10  2  0
 10 11  1  0
 11 12  2  0
 12 13  1  0
 13 14  2  0
 14 15  1  0
 15 16  2  0
 16 17  1  0
 16 18  1  0
 18 19  2  0
 19 20  1  0
 20 21  1  0
 20 22  2  0
 22 23  1  0
 23 24  2  0
 24  9  1  0
 15 10  1  0
 24 18  1  0
  1 25  1  0
  1 26  1  0
  1 27  1  0
  2 28  1  0
  2 29  1  0
  4 30  1  0
  4 31  1  0
  5 32  1  0
  5 33  1  0
  5 34  1  0
  6 35  1  0
  6 36  1  0
  7 37  1  0
  7 38  1  0
  8 39  1  0
  8 40  1  0
 11 41  1  0
 12 42  1  0
 13 43  1  0
 14 44  1  0
 17 45  1  0
 17 46  1  0
 17 47  1  0
 19 48  1  0
 21 49  1  0
 21 50  1  0
 21 51  1  0
 22 52  1  0
 23 53  1  0
M  CHG  2   8   1  16   1
M  END
>  <UniqueID>  (15) 
14

>  <SMILES>  (15) 
CCN(CC)CC[NH2+]c1c2ccccc2[n+](C)c2cc(C)ccc12

>  <Energy>  (15) 
83.40947709706967

>  <Genealogy>  (15) 
CCN(CC)CC[NH2+]c1c2ccccc2[n+](C)c2cc(C)ccc12 (protonated)
CCN(CC)CC[NH2+]c1c2ccccc2[n+](C)c2cc(C)ccc12 (3D coordinates assigned)
CCN(CC)CC[NH2+]c1c2ccccc2[n+](C)c2cc(C)ccc12 (optimized conformer: 83.40947709706967 kcal/mol)

>  <smiles>  (15) 
CCN(CC)CCNc1c2ccccc2[n+](C)c2cc(C)ccc12

>  <score_type>  (15) 
oracle

>  <origin>  (15) 
adg

>  <m_score__min__energy>  (15) 
-4.2199999999999998

>  <m_primary>  (15) 
energy

$$$$
15:0
     RDKit          3D

 39 40  0  0  0  0  0  0  0  0999 V2000
   54.9630   20.3300   46.0180 C   0  0  0  0  0  0  0  0  0  0  0  0
   54.4510   21.5790   45.5670 O   0  0  0  0  0  0  0  0  0  0  0  0
   55.2040   22.7600   45.4680 C   0  0  0  0  0  0  0  0  0  0  0  0
   55.2250   23.7200   46.4960 C   0  0  0  0  0  0  0  0  0  0  0  0
   55.9680   24.8910   46.3550 C   0  0  0  0  0  0  0  0  0  0  0  0
   56.7210   25.1170   45.1960 C   0  0  0  0  0  0  0  0  0  0  0  0
   57.5100   26.3920   45.0360 C   0  0  0  0  0  0  0  0  0  0  0  0
   56.9660   27.5200   45.9240 C   0  0  0  0  0  0  0  0  0  0  0  0
   55.9220   28.2830   45.2470 N   0  0  0  0  0  0  0  0  0  0  0  0
   56.1210   29.5730   44.6610 C   0  0  0  0  0  0  0  0  0  0  0  0
   55.1530   30.3700   44.5210 O   0  0  0  0  0  0  0  0  0  0  0  0
   57.4860   29.9710   44.2040 C   0  0  0  0  0  0  0  0  0  0  0  0
   57.8110   31.3530   44.6750 C   0  0  0  0  0  0  0  0  0  0  0  0
   57.7960   32.5040   43.8970 C   0  0  0  0  0  0  0  0  0  0  0  0
   58.1000   33.6610   44.6220 C   0  0  0  0  0  0  0  0  0  0  0  0
   58.3410   33.4280   45.9700 C   0  0  0  0  0  0  0  0  0  0  0  0
   58.1700   31.7800   46.2610 S   0  0  0  0  0  0  0  0  0  0  0  0
   56.7120   24.1580   44.1710 C   0  0  0  0  0  0  0  0  0  0  0  0
   55.9520   22.9790   44.3010 C   0  0  0  0  0  0  0  0  0  0  0  0
   55.9150   22.0030   43.2920 O   0  0  0  0  0  0  0  0  0  0  0  0
   56.9880   21.1220   42.9800 C   0  0  0  0  0  0  0  0  0  0  0  0
   54.9703   20.3123   47.1178 H   0  0  0  0  0  0  0  0  0  0  0  0
   54.3262   19.5155   45.6424 H   0  0  0  0  0  0  0  0  0  0  0  0
   55.9883   20.1968   45.6424 H   0  0  0  0  0  0  0  0  0  0  0  0
   54.6509   23.5454   47.4179 H   0  0  0  0  0  0  0  0  0  0  0  0
   55.9628   25.6419   47.1588 H   0  0  0  0  0  0  0  0  0  0  0  0
   58.5576   26.1982   45.3099 H   0  0  0  0  0  0  0  0  0  0  0  0
   57.4261   26.7143   43.9876 H   0  0  0  0  0  0  0  0  0  0  0  0
   56.5485   27.0812   46.8422 H   0  0  0  0  0  0  0  0  0  0  0  0
   57.7953   28.2042   46.1564 H   0  0  0  0  0  0  0  0  0  0  0  0
   58.2249   29.2658   44.6122 H   0  0  0  0  0  0  0  0  0  0  0  0
   57.5137   29.9529   43.1045 H   0  0  0  0  0  0  0  0  0  0  0  0
   57.5683   32.5053   42.8208 H   0  0  0  0  0  0  0  0  0  0  0  0
   58.1441   34.6616   44.1672 H   0  0  0  0  0  0  0  0  0  0  0  0
   58.5995   34.1908   46.7192 H   0  0  0  0  0  0  0  0  0  0  0  0
   57.3030   24.3284   43.2591 H   0  0  0  0  0  0  0  0  0  0  0  0
   57.4402   20.7507   43.9115 H   0  0  0  0  0  0  0  0  0  0  0  0
   56.6067   20.2730   42.3937 H   0  0  0  0  0  0  0  0  0  0  0  0
   57.7466   21.6613   42.3937 H   0  0  0  0  0  0  0  0  0  0  0  0
  1  2  1  0
  2  3  1  0
  3  4  2  0
  4  5  1  0
  5  6  2  0
  6  7  1  0
  7  8  1  0
  8  9  1  0
  9 10  1  0
 10 11  2  0
 10 12  1  0
 12 13  1  0
 13 14  2  0
 14 15  1  0
 15 16  2  0
 16 17  1  0
  6 18  1  0
 18 19  2  0
 19 20  1  0
 20 21  1  0
 19  3  1  0
 17 13  1  0
  1 22  1  0
  1 23  1  0
  1 24  1  0
  4 25  1  0
  5 26  1  0
  7 27  1  0
  7 28  1  0
  8 29  1  0
  8 30  1  0
 12 31  1  0
 12 32  1  0
 14 33  1  0
 15 34  1  0
 16 35  1  0
 18 36  1  0
 21 37  1  0
 21 38  1  0
 21 39  1  0
M  CHG  1   9  -1
M  END
>  <UniqueID>  (16) 
15

>  <SMILES>  (16) 
COc1ccc(CC[N-]C(=O)Cc2cccs2)cc1OC

>  <Energy>  (16) 
52.8520267810107

>  <Genealogy>  (16) 
COc1ccc(CC[N-]C(=O)Cc2cccs2)cc1OC (protonated)
COc1ccc(CC[N-]C(=O)Cc2cccs2)cc1OC (3D coordinates assigned)
COc1ccc(CC[N-]C(=O)Cc2cccs2)cc1OC (optimized conformer: 52.8520267810107 kcal/mol)

>  <smiles>  (16) 
COc1ccc(CCNC(=O)Cc2cccs2)cc1OC

>  <score_type>  (16) 
oracle

>  <origin>  (16) 
adg

>  <m_score__min__energy>  (16) 
-8.8800000000000008

>  <m_primary>  (16) 
energy

$$$$
16:0
     RDKit          3D

 57 60  0  0  0  0  0  0  0  0999 V2000
   54.8170   30.8160   52.0150 C   0  0  0  0  0  0  0  0  0  0  0  0
   56.0090   30.0620   51.9810 O   0  0  0  0  0  0  0  0  0  0  0  0
   56.8990   30.4950   52.9950 C   0  0  0  0  0  0  0  0  0  0  0  0
   57.6590   31.7580   52.5740 C   0  0  0  0  0  0  0  0  0  0  0  0
   58.1820   31.6430   51.1760 C   0  0  0  0  0  0  0  0  0  0  0  0
   58.4660   30.4680   50.5170 C   0  0  0  0  0  0  0  0  0  0  0  0
   58.8720   30.7800   49.2740 N   0  0  0  0  0  0  0  0  0  0  0  0
   59.3520   29.8400   48.2990 C   0  0  0  0  0  0  0  0  0  0  0  0
   59.8570   28.5930   48.7020 C   0  0  0  0  0  0  0  0  0  0  0  0
   60.3180   27.6800   47.7510 C   0  0  0  0  0  0  0  0  0  0  0  0
   60.2640   27.9960   46.3910 C   0  0  0  0  0  0  0  0  0  0  0  0
   59.7410   29.2290   45.9710 C   0  0  0  0  0  0  0  0  0  0  0  0
   59.6730   29.5740   44.5070 C   0  0  0  0  0  0  0  0  0  0  0  0
   58.3090   29.3600   43.9850 N   0  0  0  0  0  0  0  0  0  0  0  0
   57.7530   28.0400   44.3770 C   0  0  0  0  0  0  0  0  0  0  0  0
   56.5980   28.1650   45.3860 C   0  0  0  0  0  0  0  0  0  0  0  0
   55.5290   28.9660   44.9050 O   0  0  0  0  0  0  0  0  0  0  0  0
   55.9550   30.1050   44.1640 C   0  0  0  0  0  0  0  0  0  0  0  0
   57.4310   30.4850   44.3650 C   0  0  0  0  0  0  0  0  0  0  0  0
   59.2770   30.1440   46.9320 C   0  0  0  0  0  0  0  0  0  0  0  0
   58.8060   32.1330   49.1980 C   0  0  0  0  0  0  0  0  0  0  0  0
   59.0440   32.9300   47.9750 C   0  0  0  0  0  0  0  0  0  0  0  0
   60.3030   33.4980   47.7250 C   0  0  0  0  0  0  0  0  0  0  0  0
   60.4910   34.2690   46.5750 C   0  0  0  0  0  0  0  0  0  0  0  0
   59.4320   34.4760   45.6920 C   0  0  0  0  0  0  0  0  0  0  0  0
   58.1860   33.9010   45.9720 C   0  0  0  0  0  0  0  0  0  0  0  0
   57.0270   34.1070   45.0500 C   0  0  0  0  0  0  0  0  0  0  0  0
   58.0260   33.1600   47.1010 N   0  0  0  0  0  0  0  0  0  0  0  0
   58.3820   32.6930   50.3540 N   0  0  0  0  0  0  0  0  0  0  0  0
   54.5283   30.9986   53.0606 H   0  0  0  0  0  0  0  0  0  0  0  0
   54.9768   31.7777   51.5054 H   0  0  0  0  0  0  0  0  0  0  0  0
   54.0165   30.2596   51.5054 H   0  0  0  0  0  0  0  0  0  0  0  0
   56.3235   30.7115   53.9071 H   0  0  0  0  0  0  0  0  0  0  0  0
   57.6322   29.6951   53.1752 H   0  0  0  0  0  0  0  0  0  0  0  0
   56.9786   32.6204   52.6313 H   0  0  0  0  0  0  0  0  0  0  0  0
   58.5145   31.8885   53.2530 H   0  0  0  0  0  0  0  0  0  0  0  0
   58.3766   29.4539   50.9336 H   0  0  0  0  0  0  0  0  0  0  0  0
   59.8896   28.3344   49.7707 H   0  0  0  0  0  0  0  0  0  0  0  0
   60.7245   26.7100   48.0733 H   0  0  0  0  0  0  0  0  0  0  0  0
   60.6329   27.2754   45.6463 H   0  0  0  0  0  0  0  0  0  0  0  0
   59.9504   30.6298   44.3712 H   0  0  0  0  0  0  0  0  0  0  0  0
   60.3690   28.9236   43.9570 H   0  0  0  0  0  0  0  0  0  0  0  0
   57.3806   27.5319   43.4753 H   0  0  0  0  0  0  0  0  0  0  0  0
   58.5587   27.4671   44.8595 H   0  0  0  0  0  0  0  0  0  0  0  0
   56.2119   27.1584   45.6041 H   0  0  0  0  0  0  0  0  0  0  0  0
   56.9977   28.6539   46.2867 H   0  0  0  0  0  0  0  0  0  0  0  0
   55.7967   29.8977   43.0954 H   0  0  0  0  0  0  0  0  0  0  0  0
   55.3618   30.9553   44.5316 H   0  0  0  0  0  0  0  0  0  0  0  0
   57.6689   31.3578   43.7392 H   0  0  0  0  0  0  0  0  0  0  0  0
   57.5965   30.7239   45.4259 H   0  0  0  0  0  0  0  0  0  0  0  0
   58.8518   31.1058   46.6093 H   0  0  0  0  0  0  0  0  0  0  0  0
   61.1338   33.3377   48.4278 H   0  0  0  0  0  0  0  0  0  0  0  0
   61.4754   34.7131   46.3661 H   0  0  0  0  0  0  0  0  0  0  0  0
   59.5735   35.0838   44.7861 H   0  0  0  0  0  0  0  0  0  0  0  0
   56.1132   34.2694   45.6404 H   0  0  0  0  0  0  0  0  0  0  0  0
   57.2148   34.9858   44.4157 H   0  0  0  0  0  0  0  0  0  0  0  0
   56.9004   33.2173   44.4157 H   0  0  0  0  0  0  0  0  0  0  0  0
  1  2  1  0
  2  3  1  0
  3  4  1  0
  4  5  1  0
  5  6  2  0
  6  7  1  0
  7  8  1  0
  8  9  2  0
  9 10  1  0
 10 11  2  0
 11 12  1  0
 12 13  1  0
 13 14  1  0
 14 15  1  0
 15 16  1  0
 16 17  1  0
 17 18  1  0
 18 19  1  0
 12 20  2  0
  7 21  1  0
 21 22  1  0
 22 23  2  0
 23 24  1  0
 24 25  2  0
 25 26  1  0
 26 27  1  0
 26 28  2  0
 21 29  2  0
 29  5  1  0
 20  8  1  0
 28 22  1  0
 19 14  1  0
  1 30  1  0
  1 31  1  0
  1 32  1  0
  3 33  1  0
  3 34  1  0
  4 35  1  0
  4 36  1  0
  6 37  1  0
  9 38  1  0
 10 39  1  0
 11 40  1  0
 13 41  1  0
 13 42  1  0
 15 43  1  0
 15 44  1  0
 16 45  1  0
 16 46  1  0
 18 47  1  0
 18 48  1  0
 19 49  1  0
 19 50  1  0
 20 51  1  0
 23 52  1  0
 24 53  1  0
 25 54  1  0
 27 55  1  0
 27 56  1  0
 27 57  1  0
M  END
>  <UniqueID>  (17) 
16

>  <SMILES>  (17) 
COCCc1cn(-c2cccc(CN3CCOCC3)c2)c(-c2cccc(C)n2)n1

>  <Energy>  (17) 
107.72617541515277

>  <Genealogy>  (17) 
COCCc1cn(-c2cccc(CN3CCOCC3)c2)c(-c2cccc(C)n2)n1 (3D coordinates assigned)
COCCc1cn(-c2cccc(CN3CCOCC3)c2)c(-c2cccc(C)n2)n1 (nonaromatic ring conformer: 107.72617541515277 kcal/mol)

>  <smiles>  (17) 
COCCc1cn(-c2cccc(CN3CCOCC3)c2)c(-c2cccc(C)n2)n1

>  <score_type>  (17) 
oracle

>  <origin>  (17) 
adg

>  <m_score__min__energy>  (17) 
-8.7200000000000006

>  <m_primary>  (17) 
energy

$$$$
17:0
     RDKit          3D

 47 48  0  0  0  0  0  0  0  0999 V2000
   60.0020   35.0410   46.3920 C   0  0  0  0  0  0  0  0  0  0  0  0
   59.1290   33.9280   45.8730 C   0  0  0  0  0  0  0  0  0  0  0  0
   58.8410   33.8630   44.5000 C   0  0  0  0  0  0  0  0  0  0  0  0
   58.0360   32.8430   43.9900 C   0  0  0  0  0  0  0  0  0  0  0  0
   57.5160   31.8610   44.8360 C   0  0  0  0  0  0  0  0  0  0  0  0
   56.6710   30.8480   44.2730 N   0  0  0  0  0  0  0  0  0  0  0  0
   56.3340   29.5870   44.8700 C   0  0  0  0  0  0  0  0  0  0  0  0
   55.1450   29.3540   45.2190 O   0  0  0  0  0  0  0  0  0  0  0  0
   57.3660   28.6080   45.1120 N   0  0  0  0  0  0  0  0  0  0  0  0
   57.9790   27.8710   43.9960 C   0  0  0  0  0  0  0  0  0  0  0  0
   58.4260   26.4760   44.4460 C   0  0  0  0  0  0  0  0  0  0  0  0
   57.2620   25.6300   44.7930 N   0  0  0  0  0  0  0  0  0  0  0  0
   57.0500   24.5810   43.7790 C   0  0  0  0  0  0  0  0  0  0  0  0
   57.4540   25.0070   46.1110 C   0  0  0  0  0  0  0  0  0  0  0  0
   57.7900   28.3100   46.4870 C   0  0  0  0  0  0  0  0  0  0  0  0
   59.0450   29.0570   46.8140 C   0  0  0  0  0  0  0  0  0  0  0  0
   59.4460   29.4670   48.0780 C   0  0  0  0  0  0  0  0  0  0  0  0
   60.6440   30.1930   48.0670 C   0  0  0  0  0  0  0  0  0  0  0  0
   61.1820   30.3590   46.7970 C   0  0  0  0  0  0  0  0  0  0  0  0
   60.1660   29.6050   45.6880 S   0  0  0  0  0  0  0  0  0  0  0  0
   57.7770   31.9300   46.2150 C   0  0  0  0  0  0  0  0  0  0  0  0
   58.5900   32.9490   46.7420 C   0  0  0  0  0  0  0  0  0  0  0  0
   58.8500   32.9960   48.2250 C   0  0  0  0  0  0  0  0  0  0  0  0
   59.9940   35.0308   47.4919 H   0  0  0  0  0  0  0  0  0  0  0  0
   61.0314   34.8981   46.0315 H   0  0  0  0  0  0  0  0  0  0  0  0
   59.6180   36.0067   46.0315 H   0  0  0  0  0  0  0  0  0  0  0  0
   59.2536   34.6230   43.8201 H   0  0  0  0  0  0  0  0  0  0  0  0
   57.8096   32.8125   42.9140 H   0  0  0  0  0  0  0  0  0  0  0  0
   57.2442   27.7698   43.1837 H   0  0  0  0  0  0  0  0  0  0  0  0
   58.8607   28.4285   43.6471 H   0  0  0  0  0  0  0  0  0  0  0  0
   58.9872   25.9978   43.6297 H   0  0  0  0  0  0  0  0  0  0  0  0
   59.0590   26.5830   45.3392 H   0  0  0  0  0  0  0  0  0  0  0  0
   56.8560   23.6209   44.2797 H   0  0  0  0  0  0  0  0  0  0  0  0
   56.1876   24.8476   43.1504 H   0  0  0  0  0  0  0  0  0  0  0  0
   57.9483   24.4918   43.1504 H   0  0  0  0  0  0  0  0  0  0  0  0
   57.2281   25.7400   46.8995 H   0  0  0  0  0  0  0  0  0  0  0  0
   56.7805   24.1429   46.2098 H   0  0  0  0  0  0  0  0  0  0  0  0
   58.4971   24.6720   46.2098 H   0  0  0  0  0  0  0  0  0  0  0  0
   56.9954   28.6110   47.1856 H   0  0  0  0  0  0  0  0  0  0  0  0
   57.9807   27.2305   46.5779 H   0  0  0  0  0  0  0  0  0  0  0  0
   58.8806   29.2445   48.9950 H   0  0  0  0  0  0  0  0  0  0  0  0
   61.1140   30.5935   48.9773 H   0  0  0  0  0  0  0  0  0  0  0  0
   62.1136   30.8925   46.5573 H   0  0  0  0  0  0  0  0  0  0  0  0
   57.3406   31.1787   46.8896 H   0  0  0  0  0  0  0  0  0  0  0  0
   57.9086   32.8258   48.7679 H   0  0  0  0  0  0  0  0  0  0  0  0
   59.5754   32.2144   48.4950 H   0  0  0  0  0  0  0  0  0  0  0  0
   59.2559   33.9821   48.4950 H   0  0  0  0  0  0  0  0  0  0  0  0
  1  2  1  0
  2  3  2  0
  3  4  1  0
  4  5  2  0
  5  6  1  0
  6  7  1  0
  7  8  2  0
  7  9  1  0
  9 10  1  0
 10 11  1  0
 11 12  1  0
 12 13  1  0
 12 14  1  0
  9 15  1  0
 15 16  1  0
 16 17  2  0
 17 18  1  0
 18 19  2  0
 19 20  1  0
  5 21  1  0
 21 22  2  0
 22 23  1  0
 22  2  1  0
 20 16  1  0
  1 24  1  0
  1 25  1  0
  1 26  1  0
  3 27  1  0
  4 28  1  0
 10 29  1  0
 10 30  1  0
 11 31  1  0
 11 32  1  0
 13 33  1  0
 13 34  1  0
 13 35  1  0
 14 36  1  0
 14 37  1  0
 14 38  1  0
 15 39  1  0
 15 40  1  0
 17 41  1  0
 18 42  1  0
 19 43  1  0
 21 44  1  0
 23 45  1  0
 23 46  1  0
 23 47  1  0
M  CHG  1   6  -1
M  END
>  <UniqueID>  (18) 
17

>  <SMILES>  (18) 
Cc1ccc([N-]C(=O)N(CCN(C)C)Cc2cccs2)cc1C

>  <Energy>  (18) 
70.71803935144936

>  <Genealogy>  (18) 
Cc1ccc([N-]C(=O)N(CCN(C)C)Cc2cccs2)cc1C (protonated)
Cc1ccc([N-]C(=O)N(CCN(C)C)Cc2cccs2)cc1C (3D coordinates assigned)
Cc1ccc([N-]C(=O)N(CCN(C)C)Cc2cccs2)cc1C (optimized conformer: 70.71803935144936 kcal/mol)

>  <smiles>  (18) 
Cc1ccc(NC(=O)N(CCN(C)C)Cc2cccs2)cc1C

>  <score_type>  (18) 
oracle

>  <origin>  (18) 
adg

>  <m_score__min__energy>  (18) 
-8.7200000000000006

>  <m_primary>  (18) 
energy

$$$$
18:0
     RDKit          3D

 50 52  0  0  0  0  0  0  0  0999 V2000
   58.1080   32.3760   42.9060 C   0  0  0  0  0  0  0  0  0  0  0  0
   58.1350   32.8840   44.1410 C   0  0  0  0  0  0  0  0  0  0  0  0
   59.0290   34.0420   44.4960 C   0  0  0  0  0  0  0  0  0  0  0  0
   58.8040   34.4880   45.8870 N   0  0  0  0  0  0  0  0  0  0  0  0
   60.0370   34.3540   46.7030 C   0  0  0  0  0  0  0  0  0  0  0  0
   59.7170   34.3260   48.2040 C   0  0  0  0  0  0  0  0  0  0  0  0
   58.8400   33.1850   48.5720 N   0  0  0  0  0  0  0  0  0  0  0  0
   59.5970   32.0980   49.2270 C   0  0  0  0  0  0  0  0  0  0  0  0
   61.0490   32.1110   48.8030 C   0  0  0  0  0  0  0  0  0  0  0  0
   62.0220   32.6670   49.6490 C   0  0  0  0  0  0  0  0  0  0  0  0
   63.3660   32.6870   49.2630 C   0  0  0  0  0  0  0  0  0  0  0  0
   64.6810   33.4480   50.4210 Br  0  0  0  0  0  0  0  0  0  0  0  0
   63.7470   32.1500   48.0310 C   0  0  0  0  0  0  0  0  0  0  0  0
   62.7890   31.5940   47.1810 C   0  0  0  0  0  0  0  0  0  0  0  0
   61.4330   31.5700   47.5590 C   0  0  0  0  0  0  0  0  0  0  0  0
   60.4410   31.0320   46.7270 O   0  0  0  0  0  0  0  0  0  0  0  0
   60.5880   29.8630   45.9290 C   0  0  0  0  0  0  0  0  0  0  0  0
   59.2670   29.1560   45.8620 C   0  0  0  0  0  0  0  0  0  0  0  0
   58.2610   29.5880   44.9810 C   0  0  0  0  0  0  0  0  0  0  0  0
   57.0470   28.8980   44.9100 C   0  0  0  0  0  0  0  0  0  0  0  0
   56.8310   27.7720   45.7100 C   0  0  0  0  0  0  0  0  0  0  0  0
   55.6540   27.1030   45.6350 F   0  0  0  0  0  0  0  0  0  0  0  0
   57.8300   27.3340   46.5850 C   0  0  0  0  0  0  0  0  0  0  0  0
   59.0440   28.0230   46.6620 C   0  0  0  0  0  0  0  0  0  0  0  0
   58.0290   32.6770   47.4400 C   0  0  0  0  0  0  0  0  0  0  0  0
   57.6260   33.8130   46.4910 C   0  0  0  0  0  0  0  0  0  0  0  0
   57.4451   31.5294   42.6739 H   0  0  0  0  0  0  0  0  0  0  0  0
   58.7486   32.8042   42.1210 H   0  0  0  0  0  0  0  0  0  0  0  0
   57.4892   32.4462   44.9164 H   0  0  0  0  0  0  0  0  0  0  0  0
   60.0784   33.7317   44.3846 H   0  0  0  0  0  0  0  0  0  0  0  0
   58.7968   34.8792   43.8213 H   0  0  0  0  0  0  0  0  0  0  0  0
   60.5475   33.4190   46.4287 H   0  0  0  0  0  0  0  0  0  0  0  0
   60.6799   35.2239   46.5030 H   0  0  0  0  0  0  0  0  0  0  0  0
   60.6595   34.2432   48.7652 H   0  0  0  0  0  0  0  0  0  0  0  0
   59.1825   35.2550   48.4516 H   0  0  0  0  0  0  0  0  0  0  0  0
   59.5404   32.2280   50.3178 H   0  0  0  0  0  0  0  0  0  0  0  0
   59.1551   31.1361   48.9279 H   0  0  0  0  0  0  0  0  0  0  0  0
   61.7255   33.0891   50.6206 H   0  0  0  0  0  0  0  0  0  0  0  0
   64.8048   32.1652   47.7297 H   0  0  0  0  0  0  0  0  0  0  0  0
   63.0950   31.1729   46.2119 H   0  0  0  0  0  0  0  0  0  0  0  0
   60.9085   30.1450   44.9152 H   0  0  0  0  0  0  0  0  0  0  0  0
   61.3454   29.1999   46.3724 H   0  0  0  0  0  0  0  0  0  0  0  0
   58.4289   30.4705   44.3462 H   0  0  0  0  0  0  0  0  0  0  0  0
   56.2598   29.2420   44.2229 H   0  0  0  0  0  0  0  0  0  0  0  0
   57.6606   26.4469   47.2130 H   0  0  0  0  0  0  0  0  0  0  0  0
   59.8277   27.6766   47.3518 H   0  0  0  0  0  0  0  0  0  0  0  0
   58.6183   31.9350   46.8812 H   0  0  0  0  0  0  0  0  0  0  0  0
   57.1136   32.2209   47.8450 H   0  0  0  0  0  0  0  0  0  0  0  0
   57.0049   33.3965   45.6843 H   0  0  0  0  0  0  0  0  0  0  0  0
   57.0735   34.5616   47.0778 H   0  0  0  0  0  0  0  0  0  0  0  0
  1  2  2  0
  2  3  1  0
  3  4  1  0
  4  5  1  0
  5  6  1  0
  6  7  1  0
  7  8  1  0
  8  9  1  0
  9 10  2  0
 10 11  1  0
 11 12  1  0
 11 13  2  0
 13 14  1  0
 14 15  2  0
 15 16  1  0
 16 17  1  0
 17 18  1  0
 18 19  2  0
 19 20  1  0
 20 21  2  0
 21 22  1  0
 21 23  1  0
 23 24  2  0
  7 25  1  0
 25 26  1  0
 26  4  1  0
 15  9  1  0
 24 18  1  0
  1 27  1  0
  1 28  1  0
  2 29  1  0
  3 30  1  0
  3 31  1  0
  5 32  1  0
  5 33  1  0
  6 34  1  0
  6 35  1  0
  8 36  1  0
  8 37  1  0
 10 38  1  0
 13 39  1  0
 14 40  1  0
 17 41  1  0
 17 42  1  0
 19 43  1  0
 20 44  1  0
 23 45  1  0
 24 46  1  0
 25 47  1  0
 25 48  1  0
 26 49  1  0
 26 50  1  0
M  END
>  <UniqueID>  (19) 
18

>  <SMILES>  (19) 
C=CCN1CCN(Cc2cc(Br)ccc2OCc2ccc(F)cc2)CC1

>  <Energy>  (19) 
59.67095807050113

>  <Genealogy>  (19) 
C=CCN1CCN(Cc2cc(Br)ccc2OCc2ccc(F)cc2)CC1 (3D coordinates assigned)
C=CCN1CCN(Cc2cc(Br)ccc2OCc2ccc(F)cc2)CC1 (nonaromatic ring conformer: 59.67095807050113 kcal/mol)

>  <smiles>  (19) 
C=CCN1CCN(Cc2cc(Br)ccc2OCc2ccc(F)cc2)CC1

>  <score_type>  (19) 
oracle

>  <origin>  (19) 
adg

>  <m_score__min__energy>  (19) 
-7.7599999999999998

>  <m_primary>  (19) 
energy

$$$$
19:0
     RDKit          3D

 60 62  0  0  0  0  0  0  0  0999 V2000
   51.2240   23.3600   45.4740 C   0  0  0  0  0  0  0  0  0  0  0  0
   52.4960   22.9660   45.0100 O   0  0  0  0  0  0  0  0  0  0  0  0
   53.2050   24.0880   44.5190 C   0  0  0  0  0  0  0  0  0  0  0  0
   54.0390   24.7100   45.6070 C   0  0  0  0  0  0  0  0  0  0  0  0
   54.1840   25.9620   45.6320 O   0  0  0  0  0  0  0  0  0  0  0  0
   54.6620   23.9170   46.6250 N   0  0  0  0  0  0  0  0  0  0  0  0
   55.7540   22.9820   46.3830 C   0  0  0  0  0  0  0  0  0  0  0  0
   57.0470   23.7260   46.3430 C   0  0  0  0  0  0  0  0  0  0  0  0
   58.1020   23.4720   45.4750 C   0  0  0  0  0  0  0  0  0  0  0  0
   59.1690   24.3630   45.6260 C   0  0  0  0  0  0  0  0  0  0  0  0
   58.9470   25.3210   46.6080 C   0  0  0  0  0  0  0  0  0  0  0  0
   59.8940   26.4220   46.9990 C   0  0  0  0  0  0  0  0  0  0  0  0
   59.2610   27.7590   46.8930 N   0  0  0  0  0  0  0  0  0  0  0  0
   59.8870   28.6760   47.8730 C   0  0  0  0  0  0  0  0  0  0  0  0
   59.2850   30.0820   47.7750 C   0  0  0  0  0  0  0  0  0  0  0  0
   59.3350   30.5650   46.3930 N   0  0  0  0  0  0  0  0  0  0  0  0
   59.0010   31.9300   46.0920 C   0  0  0  0  0  0  0  0  0  0  0  0
   59.8160   32.9640   46.5760 C   0  0  0  0  0  0  0  0  0  0  0  0
   59.4970   34.2990   46.3080 C   0  0  0  0  0  0  0  0  0  0  0  0
   58.3620   34.6100   45.5580 C   0  0  0  0  0  0  0  0  0  0  0  0
   57.5350   33.5860   45.0800 C   0  0  0  0  0  0  0  0  0  0  0  0
   57.8420   32.2350   45.3500 C   0  0  0  0  0  0  0  0  0  0  0  0
   57.0160   31.1740   44.9300 O   0  0  0  0  0  0  0  0  0  0  0  0
   57.1090   30.4750   43.6860 C   0  0  0  0  0  0  0  0  0  0  0  0
   57.3950   31.4890   42.5770 C   0  0  0  0  0  0  0  0  0  0  0  0
   55.8000   29.7290   43.3990 C   0  0  0  0  0  0  0  0  0  0  0  0
   59.8560   29.6970   45.3350 C   0  0  0  0  0  0  0  0  0  0  0  0
   59.2940   28.2720   45.4850 C   0  0  0  0  0  0  0  0  0  0  0  0
   57.4240   25.0720   47.2830 S   0  0  0  0  0  0  0  0  0  0  0  0
   51.2192   23.3615   46.5740 H   0  0  0  0  0  0  0  0  0  0  0  0
   50.9960   24.3709   45.1050 H   0  0  0  0  0  0  0  0  0  0  0  0
   50.4645   22.6550   45.1050 H   0  0  0  0  0  0  0  0  0  0  0  0
   53.8635   23.7678   43.6981 H   0  0  0  0  0  0  0  0  0  0  0  0
   52.4806   24.8337   44.1595 H   0  0  0  0  0  0  0  0  0  0  0  0
   55.7847   22.2370   47.1917 H   0  0  0  0  0  0  0  0  0  0  0  0
   55.5942   22.4730   45.4210 H   0  0  0  0  0  0  0  0  0  0  0  0
   58.0981   22.6517   44.7421 H   0  0  0  0  0  0  0  0  0  0  0  0
   60.0908   24.3109   45.0280 H   0  0  0  0  0  0  0  0  0  0  0  0
   60.2155   26.2621   48.0387 H   0  0  0  0  0  0  0  0  0  0  0  0
   60.7514   26.3950   46.3104 H   0  0  0  0  0  0  0  0  0  0  0  0
   58.2570   27.6610   47.1790 H   0  0  0  0  0  0  0  0  0  0  0  0
   59.7222   28.2845   48.8877 H   0  0  0  0  0  0  0  0  0  0  0  0
   60.9630   28.7404   47.6537 H   0  0  0  0  0  0  0  0  0  0  0  0
   58.2378   30.0519   48.1105 H   0  0  0  0  0  0  0  0  0  0  0  0
   59.8672   30.7640   48.4121 H   0  0  0  0  0  0  0  0  0  0  0  0
   60.7105   32.7236   47.1693 H   0  0  0  0  0  0  0  0  0  0  0  0
   60.1416   35.1049   46.6889 H   0  0  0  0  0  0  0  0  0  0  0  0
   58.1168   35.6604   45.3421 H   0  0  0  0  0  0  0  0  0  0  0  0
   56.6406   33.8360   44.4905 H   0  0  0  0  0  0  0  0  0  0  0  0
   57.9220   29.7356   43.7329 H   0  0  0  0  0  0  0  0  0  0  0  0
   57.6677   32.4557   43.0255 H   0  0  0  0  0  0  0  0  0  0  0  0
   58.2259   31.1264   41.9540 H   0  0  0  0  0  0  0  0  0  0  0  0
   56.4971   31.6140   41.9540 H   0  0  0  0  0  0  0  0  0  0  0  0
   55.3185   29.4546   44.3492 H   0  0  0  0  0  0  0  0  0  0  0  0
   55.1267   30.3790   42.8210 H   0  0  0  0  0  0  0  0  0  0  0  0
   56.0161   28.8184   42.8210 H   0  0  0  0  0  0  0  0  0  0  0  0
   59.5608   30.1019   44.3558 H   0  0  0  0  0  0  0  0  0  0  0  0
   60.9526   29.6582   45.4129 H   0  0  0  0  0  0  0  0  0  0  0  0
   58.2661   28.2656   45.0934 H   0  0  0  0  0  0  0  0  0  0  0  0
   59.9723   27.6092   44.9277 H   0  0  0  0  0  0  0  0  0  0  0  0
  1  2  1  0
  2  3  1  0
  3  4  1  0
  4  5  2  0
  4  6  1  0
  6  7  1  0
  7  8  1  0
  8  9  2  0
  9 10  1  0
 10 11  2  0
 11 12  1  0
 12 13  1  0
 13 14  1  0
 14 15  1  0
 15 16  1  0
 16 17  1  0
 17 18  2  0
 18 19  1  0
 19 20  2  0
 20 21  1  0
 21 22  2  0
 22 23  1  0
 23 24  1  0
 24 25  1  0
 24 26  1  0
 16 27  1  0
 27 28  1  0
 11 29  1  0
 29  8  1  0
 28 13  1  0
 22 17  1  0
  1 30  1  0
  1 31  1  0
  1 32  1  0
  3 33  1  0
  3 34  1  0
  7 35  1  0
  7 36  1  0
  9 37  1  0
 10 38  1  0
 12 39  1  0
 12 40  1  0
 13 41  1  0
 14 42  1  0
 14 43  1  0
 15 44  1  0
 15 45  1  0
 18 46  1  0
 19 47  1  0
 20 48  1  0
 21 49  1  0
 24 50  1  0
 25 51  1  0
 25 52  1  0
 25 53  1  0
 26 54  1  0
 26 55  1  0
 26 56  1  0
 27 57  1  0
 27 58  1  0
 28 59  1  0
 28 60  1  0
M  CHG  2   6  -1  13   1
M  END
>  <UniqueID>  (20) 
19

>  <SMILES>  (20) 
COCC(=O)[N-]Cc1ccc(C[NH+]2CCN(c3ccccc3OC(C)C)CC2)s1

>  <Energy>  (20) 
92.39732076843349

>  <Genealogy>  (20) 
COCC(=O)[N-]Cc1ccc(C[NH+]2CCN(c3ccccc3OC(C)C)CC2)s1 (protonated)
COCC(=O)[N-]Cc1ccc(C[NH+]2CCN(c3ccccc3OC(C)C)CC2)s1 (3D coordinates assigned)
COCC(=O)[N-]Cc1ccc(C[NH+]2CCN(c3ccccc3OC(C)C)CC2)s1 (nonaromatic ring conformer: 92.39732076843349 kcal/mol)

>  <smiles>  (20) 
COCC(=O)NCc1ccc(CN2CCN(c3ccccc3OC(C)C)CC2)s1

>  <score_type>  (20) 
oracle

>  <origin>  (20) 
adg

>  <m_score__min__energy>  (20) 
-8.5399999999999991

>  <m_primary>  (20) 
energy

$$$$
20:0
     RDKit          3D

 44 47  0  0  0  0  0  0  0  0999 V2000
   56.6200   23.8170   43.5550 C   0  0  0  0  0  0  0  0  0  0  0  0
   57.8730   24.0630   44.1830 O   0  0  0  0  0  0  0  0  0  0  0  0
   58.1810   25.2210   44.9130 C   0  0  0  0  0  0  0  0  0  0  0  0
   58.8980   25.1780   46.1380 C   0  0  0  0  0  0  0  0  0  0  0  0
   59.1910   26.3590   46.8420 C   0  0  0  0  0  0  0  0  0  0  0  0
   58.7600   27.5800   46.3060 C   0  0  0  0  0  0  0  0  0  0  0  0
   58.0570   27.6120   45.1260 C   0  0  0  0  0  0  0  0  0  0  0  0
   57.7540   26.4600   44.4020 C   0  0  0  0  0  0  0  0  0  0  0  0
   57.7710   28.9320   44.8830 C   0  0  0  0  0  0  0  0  0  0  0  0
   57.1040   29.5080   43.8130 C   0  0  0  0  0  0  0  0  0  0  0  0
   56.9700   30.8960   43.7930 C   0  0  0  0  0  0  0  0  0  0  0  0
   57.4740   31.6990   44.8450 C   0  0  0  0  0  0  0  0  0  0  0  0
   58.0930   31.0820   45.9770 C   0  0  0  0  0  0  0  0  0  0  0  0
   58.2900   29.6700   45.9360 C   0  0  0  0  0  0  0  0  0  0  0  0
   58.9400   28.8320   46.8070 N   0  0  0  0  0  0  0  0  0  0  0  0
   59.7380   29.1580   47.9920 C   0  0  0  0  0  0  0  0  0  0  0  0
   58.5000   31.9580   47.1310 C   0  0  0  0  0  0  0  0  0  0  0  0
   59.6110   32.9370   46.7140 C   0  0  0  0  0  0  0  0  0  0  0  0
   59.1110   34.2210   46.1750 N   0  0  0  0  0  0  0  0  0  0  0  0
   60.0180   35.3660   46.3700 C   0  0  0  0  0  0  0  0  0  0  0  0
   58.4750   34.1490   44.8440 C   0  0  0  0  0  0  0  0  0  0  0  0
   57.2490   33.2020   44.7340 C   0  0  0  0  0  0  0  0  0  0  0  0
   55.8480   23.6654   44.3238 H   0  0  0  0  0  0  0  0  0  0  0  0
   56.3487   24.6790   42.9279 H   0  0  0  0  0  0  0  0  0  0  0  0
   56.6947   22.9164   42.9279 H   0  0  0  0  0  0  0  0  0  0  0  0
   59.2280   24.2091   46.5408 H   0  0  0  0  0  0  0  0  0  0  0  0
   59.7456   26.3255   47.7914 H   0  0  0  0  0  0  0  0  0  0  0  0
   57.1957   26.5183   43.4560 H   0  0  0  0  0  0  0  0  0  0  0  0
   56.6922   28.8881   43.0030 H   0  0  0  0  0  0  0  0  0  0  0  0
   56.4628   31.3765   42.9434 H   0  0  0  0  0  0  0  0  0  0  0  0
   59.1613   28.9224   48.8986 H   0  0  0  0  0  0  0  0  0  0  0  0
   60.6655   28.5667   47.9835 H   0  0  0  0  0  0  0  0  0  0  0  0
   59.9862   30.2296   47.9835 H   0  0  0  0  0  0  0  0  0  0  0  0
   57.6257   32.5308   47.4739 H   0  0  0  0  0  0  0  0  0  0  0  0
   58.8821   31.3177   47.9397 H   0  0  0  0  0  0  0  0  0  0  0  0
   60.2325   33.1508   47.5960 H   0  0  0  0  0  0  0  0  0  0  0  0
   60.1762   32.4509   45.9051 H   0  0  0  0  0  0  0  0  0  0  0  0
   60.1585   35.5433   47.4465 H   0  0  0  0  0  0  0  0  0  0  0  0
   60.9903   35.1470   45.9045 H   0  0  0  0  0  0  0  0  0  0  0  0
   59.5823   36.2624   45.9045 H   0  0  0  0  0  0  0  0  0  0  0  0
   58.1448   35.1624   44.5719 H   0  0  0  0  0  0  0  0  0  0  0  0
   59.2374   33.7322   44.1694 H   0  0  0  0  0  0  0  0  0  0  0  0
   56.5486   33.4846   45.5337 H   0  0  0  0  0  0  0  0  0  0  0  0
   56.8933   33.3437   43.7028 H   0  0  0  0  0  0  0  0  0  0  0  0
  1  2  1  0
  2  3  1  0
  3  4  2  0
  4  5  1  0
  5  6  2  0
  6  7  1  0
  7  8  2  0
  7  9  1  0
  9 10  2  0
 10 11  1  0
 11 12  2  0
 12 13  1  0
 13 14  2  0
 14 15  1  0
 15 16  1  0
 13 17  1  0
 17 18  1  0
 18 19  1  0
 19 20  1  0
 19 21  1  0
 21 22  1  0
  8  3  1  0
 14  9  1  0
 15  6  1  0
 22 12  1  0
  1 23  1  0
  1 24  1  0
  1 25  1  0
  4 26  1  0
  5 27  1  0
  8 28  1  0
 10 29  1  0
 11 30  1  0
 16 31  1  0
 16 32  1  0
 16 33  1  0
 17 34  1  0
 17 35  1  0
 18 36  1  0
 18 37  1  0
 20 38  1  0
 20 39  1  0
 20 40  1  0
 21 41  1  0
 21 42  1  0
 22 43  1  0
 22 44  1  0
M  END
>  <UniqueID>  (21) 
20

>  <SMILES>  (21) 
COc1ccc2c(c1)c1ccc3c(c1n2C)CCN(C)CC3

>  <Energy>  (21) 
113.41342093243652

>  <Genealogy>  (21) 
COc1ccc2c(c1)c1ccc3c(c1n2C)CCN(C)CC3 (3D coordinates assigned)
COc1ccc2c(c1)c1ccc3c(c1n2C)CCN(C)CC3 (nonaromatic ring conformer: 113.41342093243652 kcal/mol)

>  <smiles>  (21) 
COc1ccc2c(c1)c1ccc3c(c1n2C)CCN(C)CC3

>  <score_type>  (21) 
oracle

>  <origin>  (21) 
adg

>  <m_score__min__energy>  (21) 
-5.6399999999999997

>  <m_primary>  (21) 
energy

$$$$
21:0
     RDKit          3D

 54 58  0  0  0  0  0  0  0  0999 V2000
   57.7790   34.2210   44.8510 C   0  0  0  0  0  0  0  0  0  0  0  0
   57.0720   32.8770   45.0780 C   0  0  0  0  0  0  0  0  0  0  0  0
   57.4590   31.8060   44.1260 N   0  0  0  0  0  0  0  0  0  0  0  0
   58.0280   32.3560   42.8840 C   0  0  0  0  0  0  0  0  0  0  0  0
   56.3890   30.8310   43.8170 C   0  0  0  0  0  0  0  0  0  0  0  0
   56.8050   29.3950   44.1570 C   0  0  0  0  0  0  0  0  0  0  0  0
   56.6250   29.1430   45.5870 N   0  0  0  0  0  0  0  0  0  0  0  0
   57.6620   28.5220   46.3620 C   0  0  0  0  0  0  0  0  0  0  0  0
   57.5930   27.1440   46.6400 C   0  0  0  0  0  0  0  0  0  0  0  0
   56.1570   26.0600   45.9760 Br  0  0  0  0  0  0  0  0  0  0  0  0
   58.5670   26.5360   47.4340 C   0  0  0  0  0  0  0  0  0  0  0  0
   59.6210   27.2850   47.9570 C   0  0  0  0  0  0  0  0  0  0  0  0
   59.7230   28.6540   47.6730 C   0  0  0  0  0  0  0  0  0  0  0  0
   60.7880   29.4000   48.1830 C   0  0  0  0  0  0  0  0  0  0  0  0
   60.8990   30.7680   47.8790 C   0  0  0  0  0  0  0  0  0  0  0  0
   59.9880   31.3480   47.0270 N   0  0  0  0  0  0  0  0  0  0  0  0
   58.9280   30.6360   46.5370 C   0  0  0  0  0  0  0  0  0  0  0  0
   58.7540   29.2790   46.8590 C   0  0  0  0  0  0  0  0  0  0  0  0
   60.0870   32.7810   46.6940 C   0  0  0  0  0  0  0  0  0  0  0  0
   61.5470   33.2140   46.5360 C   0  0  0  0  0  0  0  0  0  0  0  0
   62.3370   32.8110   47.7480 C   0  0  0  0  0  0  0  0  0  0  0  0
   63.4100   33.6130   48.1930 C   0  0  0  0  0  0  0  0  0  0  0  0
   64.1200   33.1890   49.3100 C   0  0  0  0  0  0  0  0  0  0  0  0
   63.8120   32.0420   49.9650 C   0  0  0  0  0  0  0  0  0  0  0  0
   62.7750   31.2120   49.5540 C   0  0  0  0  0  0  0  0  0  0  0  0
   62.0300   31.5880   48.4080 C   0  0  0  0  0  0  0  0  0  0  0  0
   64.6690   31.8810   51.0370 O   0  0  0  0  0  0  0  0  0  0  0  0
   65.5730   32.9940   51.0540 C   0  0  0  0  0  0  0  0  0  0  0  0
   65.1870   33.8050   49.9340 O   0  0  0  0  0  0  0  0  0  0  0  0
   58.0192   34.6776   45.8225 H   0  0  0  0  0  0  0  0  0  0  0  0
   58.7070   34.0560   44.2839 H   0  0  0  0  0  0  0  0  0  0  0  0
   57.1173   34.8922   44.2839 H   0  0  0  0  0  0  0  0  0  0  0  0
   57.3080   32.5329   46.0958 H   0  0  0  0  0  0  0  0  0  0  0  0
   55.9985   33.0595   44.9219 H   0  0  0  0  0  0  0  0  0  0  0  0
   58.7985   33.1008   43.1321 H   0  0  0  0  0  0  0  0  0  0  0  0
   58.4794   31.5432   42.2961 H   0  0  0  0  0  0  0  0  0  0  0  0
   57.2310   32.8348   42.2961 H   0  0  0  0  0  0  0  0  0  0  0  0
   55.4936   31.0892   44.4015 H   0  0  0  0  0  0  0  0  0  0  0  0
   56.1866   30.8795   42.7369 H   0  0  0  0  0  0  0  0  0  0  0  0
   56.1845   28.6912   43.5829 H   0  0  0  0  0  0  0  0  0  0  0  0
   57.8653   29.2573   43.8985 H   0  0  0  0  0  0  0  0  0  0  0  0
   55.9110   29.7170   46.0890 H   0  0  0  0  0  0  0  0  0  0  0  0
   58.5028   25.4590   47.6486 H   0  0  0  0  0  0  0  0  0  0  0  0
   60.3748   26.7998   48.5945 H   0  0  0  0  0  0  0  0  0  0  0  0
   61.5406   28.9166   48.8232 H   0  0  0  0  0  0  0  0  0  0  0  0
   58.1996   31.1337   45.8800 H   0  0  0  0  0  0  0  0  0  0  0  0
   59.5534   32.9676   45.7503 H   0  0  0  0  0  0  0  0  0  0  0  0
   59.6390   33.3607   47.5146 H   0  0  0  0  0  0  0  0  0  0  0  0
   61.9755   32.7317   45.6451 H   0  0  0  0  0  0  0  0  0  0  0  0
   61.5890   34.3076   46.4252 H   0  0  0  0  0  0  0  0  0  0  0  0
   63.6759   34.5445   47.6719 H   0  0  0  0  0  0  0  0  0  0  0  0
   62.5390   30.2886   50.1032 H   0  0  0  0  0  0  0  0  0  0  0  0
   65.4730   33.5587   51.9927 H   0  0  0  0  0  0  0  0  0  0  0  0
   66.6233   32.6736   50.9889 H   0  0  0  0  0  0  0  0  0  0  0  0
  1  2  1  0
  2  3  1  0
  3  4  1  0
  3  5  1  0
  5  6  1  0
  6  7  1  0
  7  8  1  0
  8  9  2  0
  9 10  1  0
  9 11  1  0
 11 12  2  0
 12 13  1  0
 13 14  2  0
 14 15  1  0
 15 16  2  0
 16 17  1  0
 17 18  2  0
 16 19  1  0
 19 20  1  0
 20 21  1  0
 21 22  2  0
 22 23  1  0
 23 24  2  0
 24 25  1  0
 25 26  2  0
 24 27  1  0
 27 28  1  0
 28 29  1  0
 18  8  1  0
 26 21  1  0
 18 13  1  0
 29 23  1  0
 26 15  1  0
  1 30  1  0
  1 31  1  0
  1 32  1  0
  2 33  1  0
  2 34  1  0
  4 35  1  0
  4 36  1  0
  4 37  1  0
  5 38  1  0
  5 39  1  0
  6 40  1  0
  6 41  1  0
  7 42  1  0
 11 43  1  0
 12 44  1  0
 14 45  1  0
 17 46  1  0
 19 47  1  0
 19 48  1  0
 20 49  1  0
 20 50  1  0
 22 51  1  0
 25 52  1  0
 28 53  1  0
 28 54  1  0
M  CHG  1  16   1
M  END
>  <UniqueID>  (22) 
21

>  <SMILES>  (22) 
CCN(C)CCNc1c(Br)ccc2cc3[n+](cc12)CCc1cc2c(cc1-3)OCO2

>  <Energy>  (22) 
102.86978024395388

>  <Genealogy>  (22) 
CCN(C)CCNc1c(Br)ccc2cc3[n+](cc12)CCc1cc2c(cc1-3)OCO2 (3D coordinates assigned)
CCN(C)CCNc1c(Br)ccc2cc3[n+](cc12)CCc1cc2c(cc1-3)OCO2 (nonaromatic ring conformer: 102.86978024395388 kcal/mol)

>  <smiles>  (22) 
CCN(C)CCNc1c(Br)ccc2cc3[n+](cc12)CCc1cc2c(cc1-3)OCO2

>  <score_type>  (22) 
oracle

>  <origin>  (22) 
adg

>  <m_score__min__energy>  (22) 
-7.1100000000000003

>  <m_primary>  (22) 
energy

$$$$
22:0
     RDKit          3D

 76 79  0  0  0  0  0  0  0  0999 V2000
   58.6190   30.5870   50.0000 C   0  0  0  0  0  0  0  0  0  0  0  0
   59.1180   31.9630   49.6410 C   0  0  0  0  0  0  0  0  0  0  0  0
   59.6790   32.7860   50.6380 C   0  0  0  0  0  0  0  0  0  0  0  0
   59.7750   32.2890   51.9470 O   0  0  0  0  0  0  0  0  0  0  0  0
   60.3180   33.0030   53.0520 C   0  0  0  0  0  0  0  0  0  0  0  0
   61.8460   32.9460   52.9950 C   0  0  0  0  0  0  0  0  0  0  0  0
   62.3460   31.4940   52.8120 C   0  0  0  0  0  0  0  0  0  0  0  0
   62.3220   30.9980   51.4090 N   0  0  2  0  0  0  0  0  0  0  0  0
   62.0630   29.5460   51.3390 C   0  0  0  0  0  0  0  0  0  0  0  0
   63.5370   31.3430   50.6270 C   0  0  0  0  0  0  0  0  0  0  0  0
   63.2030   31.9800   49.2960 C   0  0  0  0  0  0  0  0  0  0  0  0
   62.3660   31.3200   48.3780 C   0  0  0  0  0  0  0  0  0  0  0  0
   62.0570   31.9170   47.1500 C   0  0  0  0  0  0  0  0  0  0  0  0
   62.5930   33.1680   46.8260 C   0  0  0  0  0  0  0  0  0  0  0  0
   63.4360   33.8250   47.7270 C   0  0  0  0  0  0  0  0  0  0  0  0
   63.7380   33.2360   48.9590 C   0  0  0  0  0  0  0  0  0  0  0  0
   60.1250   34.0780   50.3000 C   0  0  0  0  0  0  0  0  0  0  0  0
   59.9980   34.5570   48.9950 C   0  0  0  0  0  0  0  0  0  0  0  0
   59.4230   33.7520   47.9980 C   0  0  0  0  0  0  0  0  0  0  0  0
   59.2710   34.2040   46.6720 C   0  0  0  0  0  0  0  0  0  0  0  0
   59.6530   35.3630   46.3440 O   0  0  0  0  0  0  0  0  0  0  0  0
   58.6930   33.3480   45.7180 C   0  0  0  0  0  0  0  0  0  0  0  0
   58.5190   33.7290   44.3770 C   0  0  0  0  0  0  0  0  0  0  0  0
   57.9540   32.8360   43.4610 C   0  0  0  0  0  0  0  0  0  0  0  0
   57.5600   31.5520   43.8600 C   0  0  0  0  0  0  0  0  0  0  0  0
   57.0100   30.6980   42.8890 O   0  0  0  0  0  0  0  0  0  0  0  0
   56.5910   29.3480   43.0970 C   0  0  0  0  0  0  0  0  0  0  0  0
   57.7330   28.4910   43.6570 C   0  0  0  0  0  0  0  0  0  0  0  0
   57.4750   27.9640   45.0820 C   0  0  0  0  0  0  0  0  0  0  0  0
   58.7550   27.6390   45.8710 C   0  0  0  0  0  0  0  0  0  0  0  0
   59.5470   28.8570   46.1530 N   0  0  0  0  0  0  0  0  0  0  0  0
   60.6890   28.9460   45.2270 C   0  0  0  0  0  0  0  0  0  0  0  0
   60.0420   28.8610   47.5400 C   0  0  0  0  0  0  0  0  0  0  0  0
   57.7060   31.1780   45.2100 C   0  0  0  0  0  0  0  0  0  0  0  0
   58.2780   32.0620   46.1300 C   0  0  0  0  0  0  0  0  0  0  0  0
   58.4270   31.6790   47.3920 O   0  0  0  0  0  0  0  0  0  0  0  0
   58.9770   32.4500   48.3270 C   0  0  0  0  0  0  0  0  0  0  0  0
   58.5818   30.4845   51.0946 H   0  0  0  0  0  0  0  0  0  0  0  0
   57.6111   30.4423   49.5837 H   0  0  0  0  0  0  0  0  0  0  0  0
   59.2998   29.8299   49.5837 H   0  0  0  0  0  0  0  0  0  0  0  0
   59.9883   34.0515   53.0087 H   0  0  0  0  0  0  0  0  0  0  0  0
   59.9689   32.5472   53.9903 H   0  0  0  0  0  0  0  0  0  0  0  0
   62.1963   33.5553   52.1488 H   0  0  0  0  0  0  0  0  0  0  0  0
   62.2443   33.3341   53.9441 H   0  0  0  0  0  0  0  0  0  0  0  0
   63.3826   31.4405   53.1762 H   0  0  0  0  0  0  0  0  0  0  0  0
   61.6535   30.8542   53.3786 H   0  0  0  0  0  0  0  0  0  0  0  0
   61.5040   31.4600   50.9440 H   0  0  0  0  0  0  0  0  0  0  0  0
   61.9901   29.1370   52.3575 H   0  0  0  0  0  0  0  0  0  0  0  0
   61.1188   29.3674   50.8037 H   0  0  0  0  0  0  0  0  0  0  0  0
   62.8872   29.0519   50.8037 H   0  0  0  0  0  0  0  0  0  0  0  0
   64.1464   32.0469   51.2128 H   0  0  0  0  0  0  0  0  0  0  0  0
   64.0829   30.4096   50.4252 H   0  0  0  0  0  0  0  0  0  0  0  0
   61.9528   30.3312   48.6260 H   0  0  0  0  0  0  0  0  0  0  0  0
   61.3928   31.4025   46.4399 H   0  0  0  0  0  0  0  0  0  0  0  0
   62.3506   33.6356   45.8603 H   0  0  0  0  0  0  0  0  0  0  0  0
   63.8619   34.8053   47.4670 H   0  0  0  0  0  0  0  0  0  0  0  0
   64.3974   33.7579   49.6680 H   0  0  0  0  0  0  0  0  0  0  0  0
   60.5783   34.7167   51.0724 H   0  0  0  0  0  0  0  0  0  0  0  0
   60.3497   35.5692   48.7464 H   0  0  0  0  0  0  0  0  0  0  0  0
   58.8278   34.7318   44.0468 H   0  0  0  0  0  0  0  0  0  0  0  0
   57.8172   33.1455   42.4143 H   0  0  0  0  0  0  0  0  0  0  0  0
   55.7530   29.3385   43.8095 H   0  0  0  0  0  0  0  0  0  0  0  0
   56.2828   28.9266   42.1288 H   0  0  0  0  0  0  0  0  0  0  0  0
   57.8788   27.6288   42.9896 H   0  0  0  0  0  0  0  0  0  0  0  0
   58.6215   29.1373   43.7107 H   0  0  0  0  0  0  0  0  0  0  0  0
   56.9117   28.7288   45.6368 H   0  0  0  0  0  0  0  0  0  0  0  0
   56.9186   27.0210   44.9764 H   0  0  0  0  0  0  0  0  0  0  0  0
   58.4761   27.1663   46.8243 H   0  0  0  0  0  0  0  0  0  0  0  0
   59.3715   26.9620   45.2614 H   0  0  0  0  0  0  0  0  0  0  0  0
   61.6233   29.0188   45.8030 H   0  0  0  0  0  0  0  0  0  0  0  0
   60.7181   28.0474   44.5932 H   0  0  0  0  0  0  0  0  0  0  0  0
   60.5785   29.8383   44.5932 H   0  0  0  0  0  0  0  0  0  0  0  0
   59.1885   28.8541   48.2339 H   0  0  0  0  0  0  0  0  0  0  0  0
   60.6609   27.9678   47.7110 H   0  0  0  0  0  0  0  0  0  0  0  0
   60.6463   29.7641   47.7110 H   0  0  0  0  0  0  0  0  0  0  0  0
   57.3683   30.1853   45.5423 H   0  0  0  0  0  0  0  0  0  0  0  0
  1  2  1  0
  2  3  2  0
  3  4  1  0
  4  5  1  0
  5  6  1  0
  6  7  1  0
  7  8  1  0
  8  9  1  0
  8 10  1  0
 10 11  1  0
 11 12  2  0
 12 13  1  0
 13 14  2  0
 14 15  1  0
 15 16  2  0
  3 17  1  0
 17 18  2  0
 18 19  1  0
 19 20  1  0
 20 21  2  0
 20 22  1  0
 22 23  2  0
 23 24  1  0
 24 25  2  0
 25 26  1  0
 26 27  1  0
 27 28  1  0
 28 29  1  0
 29 30  1  0
 30 31  1  0
 31 32  1  0
 31 33  1  0
 25 34  1  0
 34 35  2  0
 35 36  1  0
 36 37  1  0
 37  2  1  0
 16 11  1  0
 37 19  2  0
 35 22  1  0
  1 38  1  0
  1 39  1  0
  1 40  1  0
  5 41  1  0
  5 42  1  0
  6 43  1  0
  6 44  1  0
  7 45  1  0
  7 46  1  0
  8 47  1  6
  9 48  1  0
  9 49  1  0
  9 50  1  0
 10 51  1  0
 10 52  1  0
 12 53  1  0
 13 54  1  0
 14 55  1  0
 15 56  1  0
 16 57  1  0
 17 58  1  0
 18 59  1  0
 23 60  1  0
 24 61  1  0
 27 62  1  0
 27 63  1  0
 28 64  1  0
 28 65  1  0
 29 66  1  0
 29 67  1  0
 30 68  1  0
 30 69  1  0
 32 70  1  0
 32 71  1  0
 32 72  1  0
 33 73  1  0
 33 74  1  0
 33 75  1  0
 34 76  1  0
M  CHG  1   8   1
M  END
>  <UniqueID>  (23) 
22

>  <SMILES>  (23) 
Cc1c(OCCC[N@H+](C)Cc2ccccc2)ccc2c(=O)c3ccc(OCCCCN(C)C)cc3oc12

>  <Energy>  (23) 
88.14007199498805

>  <Genealogy>  (23) 
Cc1c(OCCC[NH+](C)Cc2ccccc2)ccc2c(=O)c3ccc(OCCCCN(C)C)cc3oc12 (protonated)
Cc1c(OCCC[N@H+](C)Cc2ccccc2)ccc2c(=O)c3ccc(OCCCCN(C)C)cc3oc12 (chirality)
Cc1c(OCCC[N@H+](C)Cc2ccccc2)ccc2c(=O)c3ccc(OCCCCN(C)C)cc3oc12 (3D coordinates assigned)
Cc1c(OCCC[N@H+](C)Cc2ccccc2)ccc2c(=O)c3ccc(OCCCCN(C)C)cc3oc12 (optimized conformer: 88.14007199498805 kcal/mol)

>  <smiles>  (23) 
Cc1c(OCCCN(C)Cc2ccccc2)ccc2c(=O)c3ccc(OCCCCN(C)C)cc3oc12

>  <score_type>  (23) 
oracle

>  <origin>  (23) 
adg

>  <m_score__min__energy>  (23) 
-6.79

>  <m_primary>  (23) 
energy

$$$$
23:0
     RDKit          3D

 73 76  0  0  0  0  0  0  0  0999 V2000
   62.8190   34.2460   49.0970 C   0  0  0  0  0  0  0  0  0  0  0  0
   63.7410   33.0600   48.7820 C   0  0  0  0  0  0  0  0  0  0  0  0
   63.6910   32.6630   47.3510 N   0  0  2  0  0  0  0  0  0  0  0  0
   63.3670   33.8470   46.5280 C   0  0  0  0  0  0  0  0  0  0  0  0
   62.6910   31.5870   47.1310 C   0  0  0  0  0  0  0  0  0  0  0  0
   61.9540   31.1920   48.4210 C   0  0  0  0  0  0  0  0  0  0  0  0
   60.6120   31.7710   48.4310 N   0  0  0  0  0  0  0  0  0  0  0  0
   59.7400   31.6300   47.2950 C   0  0  0  0  0  0  0  0  0  0  0  0
   59.4750   32.7340   46.4680 C   0  0  0  0  0  0  0  0  0  0  0  0
   59.9600   34.0170   46.7970 C   0  0  0  0  0  0  0  0  0  0  0  0
   59.6610   35.1190   45.9980 C   0  0  0  0  0  0  0  0  0  0  0  0
   58.8590   34.9650   44.8750 C   0  0  0  0  0  0  0  0  0  0  0  0
   58.3650   33.7080   44.5310 C   0  0  0  0  0  0  0  0  0  0  0  0
   58.6830   32.5600   45.3010 C   0  0  0  0  0  0  0  0  0  0  0  0
   58.2290   31.3010   44.9530 N   0  0  0  0  0  0  0  0  0  0  0  0
   57.6730   31.0620   43.6040 C   0  0  0  0  0  0  0  0  0  0  0  0
   58.3210   30.2590   45.8580 C   0  0  0  0  0  0  0  0  0  0  0  0
   57.6370   29.0340   45.6550 C   0  0  0  0  0  0  0  0  0  0  0  0
   57.7920   27.9540   46.5270 C   0  0  0  0  0  0  0  0  0  0  0  0
   57.0930   26.7680   46.2410 O   0  0  0  0  0  0  0  0  0  0  0  0
   57.4940   25.4520   46.6210 C   0  0  0  0  0  0  0  0  0  0  0  0
   56.5880   24.4030   45.9340 C   0  0  0  0  0  0  0  0  0  0  0  0
   57.0100   23.9560   44.5650 N   0  0  0  0  0  0  0  0  0  0  0  0
   57.4230   25.1880   43.8350 C   0  0  0  0  0  0  0  0  0  0  0  0
   55.8440   23.3560   43.8320 C   0  0  0  0  0  0  0  0  0  0  0  0
   56.2740   22.4590   42.6590 C   0  0  0  0  0  0  0  0  0  0  0  0
   57.1470   21.2830   43.1300 C   0  0  0  0  0  0  0  0  0  0  0  0
   57.8290   21.5500   44.4790 C   0  0  0  0  0  0  0  0  0  0  0  0
   58.2000   23.0360   44.6250 C   0  0  0  0  0  0  0  0  0  0  0  0
   58.6230   28.0920   47.6460 C   0  0  0  0  0  0  0  0  0  0  0  0
   59.2670   29.3000   47.8970 C   0  0  0  0  0  0  0  0  0  0  0  0
   59.1120   30.3990   47.0280 C   0  0  0  0  0  0  0  0  0  0  0  0
   62.7294   34.3613   50.1873 H   0  0  0  0  0  0  0  0  0  0  0  0
   63.2425   35.1646   48.6647 H   0  0  0  0  0  0  0  0  0  0  0  0
   61.8243   34.0621   48.6647 H   0  0  0  0  0  0  0  0  0  0  0  0
   64.7744   33.3402   49.0342 H   0  0  0  0  0  0  0  0  0  0  0  0
   63.3967   32.2022   49.3784 H   0  0  0  0  0  0  0  0  0  0  0  0
   64.6410   32.3290   47.0610 H   0  0  0  0  0  0  0  0  0  0  0  0
   63.1342   34.6978   47.1852 H   0  0  0  0  0  0  0  0  0  0  0  0
   64.2291   34.0993   45.8931 H   0  0  0  0  0  0  0  0  0  0  0  0
   62.4965   33.6252   45.8931 H   0  0  0  0  0  0  0  0  0  0  0  0
   61.9515   31.9382   46.3962 H   0  0  0  0  0  0  0  0  0  0  0  0
   63.2310   30.6990   46.7706 H   0  0  0  0  0  0  0  0  0  0  0  0
   61.8776   30.0960   48.4752 H   0  0  0  0  0  0  0  0  0  0  0  0
   62.5160   31.5717   49.2870 H   0  0  0  0  0  0  0  0  0  0  0  0
   60.2010   32.0380   49.3530 H   0  0  0  0  0  0  0  0  0  0  0  0
   60.5816   34.1493   47.6948 H   0  0  0  0  0  0  0  0  0  0  0  0
   60.0603   36.1107   46.2570 H   0  0  0  0  0  0  0  0  0  0  0  0
   58.6125   35.8389   44.2541 H   0  0  0  0  0  0  0  0  0  0  0  0
   57.7177   33.6045   43.6476 H   0  0  0  0  0  0  0  0  0  0  0  0
   56.6658   30.6290   43.6940 H   0  0  0  0  0  0  0  0  0  0  0  0
   57.6151   32.0147   43.0572 H   0  0  0  0  0  0  0  0  0  0  0  0
   58.3245   30.3644   43.0572 H   0  0  0  0  0  0  0  0  0  0  0  0
   56.9671   28.9314   44.7886 H   0  0  0  0  0  0  0  0  0  0  0  0
   58.5379   25.2871   46.3160 H   0  0  0  0  0  0  0  0  0  0  0  0
   57.4029   25.3481   47.7123 H   0  0  0  0  0  0  0  0  0  0  0  0
   56.5537   23.5142   46.5812 H   0  0  0  0  0  0  0  0  0  0  0  0
   55.6168   24.9002   45.7943 H   0  0  0  0  0  0  0  0  0  0  0  0
   57.6861   25.9727   44.5596 H   0  0  0  0  0  0  0  0  0  0  0  0
   58.2954   24.9648   43.2033 H   0  0  0  0  0  0  0  0  0  0  0  0
   56.5923   25.5358   43.2033 H   0  0  0  0  0  0  0  0  0  0  0  0
   55.2575   22.7517   44.5397 H   0  0  0  0  0  0  0  0  0  0  0  0
   55.2532   24.1850   43.4152 H   0  0  0  0  0  0  0  0  0  0  0  0
   55.3745   22.0602   42.1672 H   0  0  0  0  0  0  0  0  0  0  0  0
   56.8680   23.0685   41.9620 H   0  0  0  0  0  0  0  0  0  0  0  0
   56.5111   20.3908   43.2284 H   0  0  0  0  0  0  0  0  0  0  0  0
   57.9399   21.1391   42.3813 H   0  0  0  0  0  0  0  0  0  0  0  0
   57.1421   21.2693   45.2911 H   0  0  0  0  0  0  0  0  0  0  0  0
   58.7509   20.9521   44.5299 H   0  0  0  0  0  0  0  0  0  0  0  0
   58.7017   23.1770   45.5937 H   0  0  0  0  0  0  0  0  0  0  0  0
   58.8534   23.2932   43.7783 H   0  0  0  0  0  0  0  0  0  0  0  0
   58.7672   27.2421   48.3293 H   0  0  0  0  0  0  0  0  0  0  0  0
   59.9064   29.3986   48.7866 H   0  0  0  0  0  0  0  0  0  0  0  0
  1  2  1  0
  2  3  1  0
  3  4  1  0
  3  5  1  0
  5  6  1  0
  6  7  1  0
  7  8  1  0
  8  9  2  0
  9 10  1  0
 10 11  2  0
 11 12  1  0
 12 13  2  0
 13 14  1  0
 14 15  2  0
 15 16  1  0
 15 17  1  0
 17 18  2  0
 18 19  1  0
 19 20  1  0
 20 21  1  0
 21 22  1  0
 22 23  1  0
 23 24  1  0
 23 25  1  0
 25 26  1  0
 26 27  1  0
 27 28  1  0
 28 29  1  0
 19 30  2  0
 30 31  1  0
 31 32  2  0
 32  8  1  0
 14  9  1  0
 32 17  1  0
 29 23  1  0
  1 33  1  0
  1 34  1  0
  1 35  1  0
  2 36  1  0
  2 37  1  0
  3 38  1  6
  4 39  1  0
  4 40  1  0
  4 41  1  0
  5 42  1  0
  5 43  1  0
  6 44  1  0
  6 45  1  0
  7 46  1  0
 10 47  1  0
 11 48  1  0
 12 49  1  0
 13 50  1  0
 16 51  1  0
 16 52  1  0
 16 53  1  0
 18 54  1  0
 21 55  1  0
 21 56  1  0
 22 57  1  0
 22 58  1  0
 24 59  1  0
 24 60  1  0
 24 61  1  0
 25 62  1  0
 25 63  1  0
 26 64  1  0
 26 65  1  0
 27 66  1  0
 27 67  1  0
 28 68  1  0
 28 69  1  0
 29 70  1  0
 29 71  1  0
 30 72  1  0
 31 73  1  0
M  CHG  3   3   1  15   1  23   1
M  END
>  <UniqueID>  (24) 
23

>  <SMILES>  (24) 
CC[N@H+](C)CCNc1c2ccccc2[n+](C)c2cc(OCC[N+]3(C)CCCCC3)ccc12

>  <Energy>  (24) 
117.49478040052854

>  <Genealogy>  (24) 
CC[NH+](C)CCNc1c2ccccc2[n+](C)c2cc(OCC[N+]3(C)CCCCC3)ccc12 (protonated)
CC[N@H+](C)CCNc1c2ccccc2[n+](C)c2cc(OCC[N+]3(C)CCCCC3)ccc12 (chirality)
CC[N@H+](C)CCNc1c2ccccc2[n+](C)c2cc(OCC[N+]3(C)CCCCC3)ccc12 (3D coordinates assigned)
CC[N@H+](C)CCNc1c2ccccc2[n+](C)c2cc(OCC[N+]3(C)CCCCC3)ccc12 (nonaromatic ring conformer: 117.49478040052854 kcal/mol)

>  <smiles>  (24) 
CCN(C)CCNc1c2ccccc2[n+](C)c2cc(OCC[N+]3(C)CCCCC3)ccc12

>  <score_type>  (24) 
oracle

>  <origin>  (24) 
adg

>  <m_score__min__energy>  (24) 
-4.4199999999999999

>  <m_primary>  (24) 
energy

$$$$
24:0
     RDKit          3D

 38 41  0  0  0  0  0  0  0  0999 V2000
   60.5070   30.3970   50.4670 C   0  0  0  0  0  0  0  0  0  0  0  0
   59.3070   30.6850   51.3670 C   0  0  0  0  0  0  0  0  0  0  0  0
   58.7650   32.0280   51.1040 N   0  0  0  0  0  0  0  0  0  0  0  0
   57.9770   32.7040   52.1400 C   0  0  0  0  0  0  0  0  0  0  0  0
   59.0170   32.7020   49.8480 C   0  0  0  0  0  0  0  0  0  0  0  0
   59.7640   33.8960   49.8090 C   0  0  0  0  0  0  0  0  0  0  0  0
   60.0050   34.5470   48.5940 C   0  0  0  0  0  0  0  0  0  0  0  0
   59.5000   34.0220   47.4020 C   0  0  0  0  0  0  0  0  0  0  0  0
   58.7630   32.8290   47.4290 C   0  0  0  0  0  0  0  0  0  0  0  0
   58.5220   32.1700   48.6410 C   0  0  0  0  0  0  0  0  0  0  0  0
   58.2900   32.3170   46.1440 C   0  0  0  0  0  0  0  0  0  0  0  0
   57.6140   31.1520   45.9540 N   0  0  0  0  0  0  0  0  0  0  0  0
   57.4060   31.1540   44.6210 C   0  0  0  0  0  0  0  0  0  0  0  0
   56.7340   30.1960   43.8660 C   0  0  0  0  0  0  0  0  0  0  0  0
   56.6140   30.4210   42.4810 C   0  0  0  0  0  0  0  0  0  0  0  0
   57.1580   31.5860   41.8920 C   0  0  0  0  0  0  0  0  0  0  0  0
   57.8310   32.5370   42.6830 C   0  0  0  0  0  0  0  0  0  0  0  0
   57.9370   32.2760   44.0480 C   0  0  0  0  0  0  0  0  0  0  0  0
   58.5110   33.0110   45.0090 N   0  0  0  0  0  0  0  0  0  0  0  0
   59.1170   34.3410   44.9410 C   0  0  0  0  0  0  0  0  0  0  0  0
   59.7550   34.6800   46.1840 O   0  0  0  0  0  0  0  0  0  0  0  0
   61.3893   30.1853   51.0889 H   0  0  0  0  0  0  0  0  0  0  0  0
   60.2884   29.5258   49.8320 H   0  0  0  0  0  0  0  0  0  0  0  0
   60.7076   31.2725   49.8320 H   0  0  0  0  0  0  0  0  0  0  0  0
   58.5243   29.9365   51.1745 H   0  0  0  0  0  0  0  0  0  0  0  0
   59.6342   30.6368   52.4161 H   0  0  0  0  0  0  0  0  0  0  0  0
   58.3360   32.3960   53.1331 H   0  0  0  0  0  0  0  0  0  0  0  0
   58.0868   33.7932   52.0319 H   0  0  0  0  0  0  0  0  0  0  0  0
   56.9172   32.4298   52.0319 H   0  0  0  0  0  0  0  0  0  0  0  0
   60.1616   34.3205   50.7427 H   0  0  0  0  0  0  0  0  0  0  0  0
   60.5943   35.4757   48.5774 H   0  0  0  0  0  0  0  0  0  0  0  0
   57.9443   31.2339   48.6506 H   0  0  0  0  0  0  0  0  0  0  0  0
   56.3117   29.2951   44.3350 H   0  0  0  0  0  0  0  0  0  0  0  0
   56.0927   29.6844   41.8520 H   0  0  0  0  0  0  0  0  0  0  0  0
   57.0548   31.7503   40.8092 H   0  0  0  0  0  0  0  0  0  0  0  0
   58.2564   33.4500   42.2409 H   0  0  0  0  0  0  0  0  0  0  0  0
   59.8669   34.3540   44.1363 H   0  0  0  0  0  0  0  0  0  0  0  0
   58.3248   35.0775   44.7411 H   0  0  0  0  0  0  0  0  0  0  0  0
  1  2  1  0
  2  3  1  0
  3  4  1  0
  3  5  1  0
  5  6  2  0
  6  7  1  0
  7  8  2  0
  8  9  1  0
  9 10  2  0
  9 11  1  0
 11 12  2  0
 12 13  1  0
 13 14  2  0
 14 15  1  0
 15 16  2  0
 16 17  1  0
 17 18  2  0
 18 19  1  0
 19 20  1  0
 20 21  1  0
 10  5  1  0
 19 11  1  0
 21  8  1  0
 18 13  1  0
  1 22  1  0
  1 23  1  0
  1 24  1  0
  2 25  1  0
  2 26  1  0
  4 27  1  0
  4 28  1  0
  4 29  1  0
  6 30  1  0
  7 31  1  0
 10 32  1  0
 14 33  1  0
 15 34  1  0
 16 35  1  0
 17 36  1  0
 20 37  1  0
 20 38  1  0
M  END
>  <UniqueID>  (25) 
24

>  <SMILES>  (25) 
CCN(C)c1ccc2c(c1)-c1nc3ccccc3n1CO2

>  <Energy>  (25) 
84.26698450537802

>  <Genealogy>  (25) 
CCN(C)c1ccc2c(c1)-c1nc3ccccc3n1CO2 (3D coordinates assigned)
CCN(C)c1ccc2c(c1)-c1nc3ccccc3n1CO2 (nonaromatic ring conformer: 84.26698450537802 kcal/mol)

>  <smiles>  (25) 
CCN(C)c1ccc2c(c1)-c1nc3ccccc3n1CO2

>  <score_type>  (25) 
oracle

>  <origin>  (25) 
adg

>  <m_score__min__energy>  (25) 
-6.7699999999999996

>  <m_primary>  (25) 
energy

$$$$
25:0
     RDKit          3D

 45 47  0  0  0  0  0  0  0  0999 V2000
   61.9050   30.9310   47.1170 C   0  0  0  0  0  0  0  0  0  0  0  0
   60.5390   30.4610   46.8810 N   0  0  0  0  0  0  0  0  0  0  0  0
   59.3780   31.1910   47.4030 C   0  0  0  0  0  0  0  0  0  0  0  0
   59.0540   32.3560   46.5100 C   0  0  0  0  0  0  0  0  0  0  0  0
   59.6790   33.5970   46.7160 C   0  0  0  0  0  0  0  0  0  0  0  0
   59.3210   34.7030   45.9390 C   0  0  0  0  0  0  0  0  0  0  0  0
   58.3340   34.5800   44.9570 C   0  0  0  0  0  0  0  0  0  0  0  0
   57.7030   33.3510   44.7500 C   0  0  0  0  0  0  0  0  0  0  0  0
   58.0600   32.2420   45.5240 C   0  0  0  0  0  0  0  0  0  0  0  0
   60.3330   29.3540   45.9960 C   0  0  0  0  0  0  0  0  0  0  0  0
   61.2560   29.0310   45.1980 O   0  0  0  0  0  0  0  0  0  0  0  0
   59.0490   28.6100   45.9890 C   0  0  0  0  0  0  0  0  0  0  0  0
   58.0600   28.9100   45.0350 C   0  0  0  0  0  0  0  0  0  0  0  0
   56.8370   28.2320   45.0450 C   0  0  0  0  0  0  0  0  0  0  0  0
   56.5860   27.2350   45.9940 C   0  0  0  0  0  0  0  0  0  0  0  0
   55.3140   26.5720   45.9840 N   0  0  0  0  0  0  0  0  0  0  0  0
   55.0920   25.1750   45.7420 C   0  0  0  0  0  0  0  0  0  0  0  0
   53.9520   24.6960   45.9800 O   0  0  0  0  0  0  0  0  0  0  0  0
   56.1440   24.2970   45.1740 C   0  0  0  0  0  0  0  0  0  0  0  0
   56.0000   23.7340   43.8920 C   0  0  0  0  0  0  0  0  0  0  0  0
   56.9990   22.9100   43.3670 C   0  0  0  0  0  0  0  0  0  0  0  0
   58.1430   22.6290   44.1170 C   0  0  0  0  0  0  0  0  0  0  0  0
   58.2880   23.1680   45.3980 C   0  0  0  0  0  0  0  0  0  0  0  0
   57.2920   23.9940   45.9270 C   0  0  0  0  0  0  0  0  0  0  0  0
   57.5630   26.9440   46.9590 C   0  0  0  0  0  0  0  0  0  0  0  0
   58.7870   27.6150   46.9490 C   0  0  0  0  0  0  0  0  0  0  0  0
   62.0891   30.9943   48.1996 H   0  0  0  0  0  0  0  0  0  0  0  0
   62.6185   30.2267   46.6644 H   0  0  0  0  0  0  0  0  0  0  0  0
   62.0340   31.9252   46.6644 H   0  0  0  0  0  0  0  0  0  0  0  0
   58.5121   30.5140   47.4458 H   0  0  0  0  0  0  0  0  0  0  0  0
   59.6120   31.5649   48.4107 H   0  0  0  0  0  0  0  0  0  0  0  0
   60.4527   33.6991   47.4912 H   0  0  0  0  0  0  0  0  0  0  0  0
   59.8169   35.6714   46.1008 H   0  0  0  0  0  0  0  0  0  0  0  0
   58.0540   35.4514   44.3469 H   0  0  0  0  0  0  0  0  0  0  0  0
   56.9252   33.2554   43.9781 H   0  0  0  0  0  0  0  0  0  0  0  0
   57.5600   31.2760   45.3598 H   0  0  0  0  0  0  0  0  0  0  0  0
   58.2498   29.6832   44.2759 H   0  0  0  0  0  0  0  0  0  0  0  0
   56.0667   28.4843   44.3014 H   0  0  0  0  0  0  0  0  0  0  0  0
   55.0966   23.9437   43.3005 H   0  0  0  0  0  0  0  0  0  0  0  0
   56.8840   22.4816   42.3604 H   0  0  0  0  0  0  0  0  0  0  0  0
   58.9298   21.9835   43.6994 H   0  0  0  0  0  0  0  0  0  0  0  0
   59.1867   22.9421   45.9907 H   0  0  0  0  0  0  0  0  0  0  0  0
   57.4072   24.4096   46.9389 H   0  0  0  0  0  0  0  0  0  0  0  0
   57.3629   26.1828   47.7275 H   0  0  0  0  0  0  0  0  0  0  0  0
   59.5529   27.3640   47.6976 H   0  0  0  0  0  0  0  0  0  0  0  0
  1  2  1  0
  2  3  1  0
  3  4  1  0
  4  5  2  0
  5  6  1  0
  6  7  2  0
  7  8  1  0
  8  9  2  0
  2 10  1  0
 10 11  2  0
 10 12  1  0
 12 13  2  0
 13 14  1  0
 14 15  2  0
 15 16  1  0
 16 17  1  0
 17 18  2  0
 17 19  1  0
 19 20  2  0
 20 21  1  0
 21 22  2  0
 22 23  1  0
 23 24  2  0
 15 25  1  0
 25 26  2  0
  9  4  1  0
 26 12  1  0
 24 19  1  0
  1 27  1  0
  1 28  1  0
  1 29  1  0
  3 30  1  0
  3 31  1  0
  5 32  1  0
  6 33  1  0
  7 34  1  0
  8 35  1  0
  9 36  1  0
 13 37  1  0
 14 38  1  0
 20 39  1  0
 21 40  1  0
 22 41  1  0
 23 42  1  0
 24 43  1  0
 25 44  1  0
 26 45  1  0
M  CHG  1  16  -1
M  END
>  <UniqueID>  (26) 
25

>  <SMILES>  (26) 
CN(Cc1ccccc1)C(=O)c1ccc([N-]C(=O)c2ccccc2)cc1

>  <Energy>  (26) 
56.81260153297812

>  <Genealogy>  (26) 
CN(Cc1ccccc1)C(=O)c1ccc([N-]C(=O)c2ccccc2)cc1 (protonated)
CN(Cc1ccccc1)C(=O)c1ccc([N-]C(=O)c2ccccc2)cc1 (3D coordinates assigned)
CN(Cc1ccccc1)C(=O)c1ccc([N-]C(=O)c2ccccc2)cc1 (optimized conformer: 56.81260153297812 kcal/mol)

>  <smiles>  (26) 
CN(Cc1ccccc1)C(=O)c1ccc(NC(=O)c2ccccc2)cc1

>  <score_type>  (26) 
oracle

>  <origin>  (26) 
adg

>  <m_score__min__energy>  (26) 
-10.57

>  <m_primary>  (26) 
energy

$$$$
26:0
     RDKit          3D

 52 55  0  0  0  0  0  0  0  0999 V2000
   56.2790   29.7710   42.6330 C   0  0  0  0  0  0  0  0  0  0  0  0
   56.9840   29.7070   43.6090 C   0  0  0  0  0  0  0  0  0  0  0  0
   57.8270   29.6290   44.7740 C   0  0  0  0  0  0  0  0  0  0  0  0
   57.6380   28.6060   45.7110 C   0  0  0  0  0  0  0  0  0  0  0  0
   58.4560   28.5310   46.8410 C   0  0  0  0  0  0  0  0  0  0  0  0
   59.4760   29.4760   47.0470 C   0  0  0  0  0  0  0  0  0  0  0  0
   60.3070   29.4110   48.2220 N   0  0  0  0  0  0  0  0  0  0  0  0
   60.3210   28.2210   49.0780 C   0  0  0  0  0  0  0  0  0  0  0  0
   60.0490   28.5970   50.5520 C   0  0  0  0  0  0  0  0  0  0  0  0
   60.3730   30.0140   50.8870 N   0  0  0  0  0  0  0  0  0  0  0  0
   59.1620   30.8720   50.8040 C   0  0  0  0  0  0  0  0  0  0  0  0
   59.4800   32.3740   50.9250 C   0  0  0  0  0  0  0  0  0  0  0  0
   58.9980   33.0840   49.7840 O   0  0  0  0  0  0  0  0  0  0  0  0
   59.7590   33.4460   48.6570 C   0  0  0  0  0  0  0  0  0  0  0  0
   61.1520   33.6560   48.7330 C   0  0  0  0  0  0  0  0  0  0  0  0
   61.8810   34.0130   47.5990 C   0  0  0  0  0  0  0  0  0  0  0  0
   61.2420   34.1660   46.3690 C   0  0  0  0  0  0  0  0  0  0  0  0
   59.8610   33.9620   46.2630 C   0  0  0  0  0  0  0  0  0  0  0  0
   59.2140   34.1160   45.0260 C   0  0  0  0  0  0  0  0  0  0  0  0
   57.8360   33.9130   44.9230 C   0  0  0  0  0  0  0  0  0  0  0  0
   57.0940   33.5560   46.0500 C   0  0  0  0  0  0  0  0  0  0  0  0
   57.7220   33.4000   47.2880 C   0  0  0  0  0  0  0  0  0  0  0  0
   59.1100   33.6000   47.4120 C   0  0  0  0  0  0  0  0  0  0  0  0
   61.5130   30.5090   50.0750 C   0  0  0  0  0  0  0  0  0  0  0  0
   61.1760   30.5380   48.5750 C   0  0  0  0  0  0  0  0  0  0  0  0
   59.6520   30.5070   46.1080 C   0  0  0  0  0  0  0  0  0  0  0  0
   58.8340   30.5800   44.9760 C   0  0  0  0  0  0  0  0  0  0  0  0
   55.6358   29.8294   41.7426 H   0  0  0  0  0  0  0  0  0  0  0  0
   56.8442   27.8602   45.5572 H   0  0  0  0  0  0  0  0  0  0  0  0
   58.3007   27.7265   47.5750 H   0  0  0  0  0  0  0  0  0  0  0  0
   59.5436   27.5222   48.7355 H   0  0  0  0  0  0  0  0  0  0  0  0
   61.3146   27.7536   49.0128 H   0  0  0  0  0  0  0  0  0  0  0  0
   58.9824   28.4275   50.7609 H   0  0  0  0  0  0  0  0  0  0  0  0
   60.7070   27.9662   51.1677 H   0  0  0  0  0  0  0  0  0  0  0  0
   60.6840   30.0240   51.8890 H   0  0  0  0  0  0  0  0  0  0  0  0
   58.6720   30.6942   49.8353 H   0  0  0  0  0  0  0  0  0  0  0  0
   58.5102   30.6043   51.6487 H   0  0  0  0  0  0  0  0  0  0  0  0
   58.9981   32.7737   51.8294 H   0  0  0  0  0  0  0  0  0  0  0  0
   60.5709   32.5013   50.9867 H   0  0  0  0  0  0  0  0  0  0  0  0
   61.6685   33.5369   49.6968 H   0  0  0  0  0  0  0  0  0  0  0  0
   62.9664   34.1748   47.6752 H   0  0  0  0  0  0  0  0  0  0  0  0
   61.8247   34.4478   45.4795 H   0  0  0  0  0  0  0  0  0  0  0  0
   59.7946   34.3975   44.1351 H   0  0  0  0  0  0  0  0  0  0  0  0
   57.3344   34.0347   43.9516 H   0  0  0  0  0  0  0  0  0  0  0  0
   56.0091   33.3967   45.9629 H   0  0  0  0  0  0  0  0  0  0  0  0
   57.1288   33.1194   48.1708 H   0  0  0  0  0  0  0  0  0  0  0  0
   61.7675   31.5278   50.4025 H   0  0  0  0  0  0  0  0  0  0  0  0
   62.3604   29.8232   50.2217 H   0  0  0  0  0  0  0  0  0  0  0  0
   60.6608   31.4805   48.3379 H   0  0  0  0  0  0  0  0  0  0  0  0
   62.1100   30.4611   47.9990 H   0  0  0  0  0  0  0  0  0  0  0  0
   60.4377   31.2608   46.2644 H   0  0  0  0  0  0  0  0  0  0  0  0
   58.9823   31.3865   44.2428 H   0  0  0  0  0  0  0  0  0  0  0  0
  1  2  3  0
  2  3  1  0
  3  4  2  0
  4  5  1  0
  5  6  2  0
  6  7  1  0
  7  8  1  0
  8  9  1  0
  9 10  1  0
 10 11  1  0
 11 12  1  0
 12 13  1  0
 13 14  1  0
 14 15  2  0
 15 16  1  0
 16 17  2  0
 17 18  1  0
 18 19  2  0
 19 20  1  0
 20 21  2  0
 21 22  1  0
 22 23  2  0
 10 24  1  0
 24 25  1  0
  6 26  1  0
 26 27  2  0
 27  3  1  0
 25  7  1  0
 23 14  1  0
 23 18  1  0
  1 28  1  0
  4 29  1  0
  5 30  1  0
  8 31  1  0
  8 32  1  0
  9 33  1  0
  9 34  1  0
 10 35  1  0
 11 36  1  0
 11 37  1  0
 12 38  1  0
 12 39  1  0
 15 40  1  0
 16 41  1  0
 17 42  1  0
 19 43  1  0
 20 44  1  0
 21 45  1  0
 22 46  1  0
 24 47  1  0
 24 48  1  0
 25 49  1  0
 25 50  1  0
 26 51  1  0
 27 52  1  0
M  CHG  1  10   1
M  END
>  <UniqueID>  (27) 
26

>  <SMILES>  (27) 
C#Cc1ccc(N2CC[NH+](CCOc3cccc4ccccc34)CC2)cc1

>  <Energy>  (27) 
70.66833117566472

>  <Genealogy>  (27) 
C#Cc1ccc(N2CC[NH+](CCOc3cccc4ccccc34)CC2)cc1 (protonated)
C#Cc1ccc(N2CC[NH+](CCOc3cccc4ccccc34)CC2)cc1 (3D coordinates assigned)
C#Cc1ccc(N2CC[NH+](CCOc3cccc4ccccc34)CC2)cc1 (nonaromatic ring conformer: 70.66833117566472 kcal/mol)

>  <smiles>  (27) 
C#Cc1ccc(N2CCN(CCOc3cccc4ccccc34)CC2)cc1

>  <score_type>  (27) 
oracle

>  <origin>  (27) 
adg

>  <m_score__min__energy>  (27) 
-6.6299999999999999

>  <m_primary>  (27) 
energy

$$$$
27:0
     RDKit          3D

 59 61  0  0  0  0  0  0  0  0999 V2000
   60.9360   28.5780   44.5510 C   0  0  0  0  0  0  0  0  0  0  0  0
   60.6910   29.5810   45.6880 C   0  0  0  0  0  0  0  0  0  0  0  0
   59.3000   30.0940   45.7830 N   0  0  0  0  0  0  0  0  0  0  0  0
   58.5340   30.1820   44.5200 C   0  0  0  0  0  0  0  0  0  0  0  0
   58.2620   31.6460   44.1360 C   0  0  0  0  0  0  0  0  0  0  0  0
   57.0220   32.2340   44.8360 C   0  0  0  0  0  0  0  0  0  0  0  0
   57.3030   33.1680   46.0410 C   0  0  0  0  0  0  0  0  0  0  0  0
   58.7080   33.1270   46.5370 N   0  0  0  0  0  0  0  0  0  0  0  0
   59.4950   34.2920   46.1550 C   0  0  0  0  0  0  0  0  0  0  0  0
   59.0430   35.1530   45.4120 O   0  0  0  0  0  0  0  0  0  0  0  0
   60.8900   34.4870   46.7030 C   0  0  0  0  0  0  0  0  0  0  0  0
   61.2820   33.3910   47.7280 C   0  0  0  0  0  0  0  0  0  0  0  0
   61.6920   32.0630   47.0330 C   0  0  0  0  0  0  0  0  0  0  0  0
   63.0770   31.6850   47.5520 C   0  0  0  0  0  0  0  0  0  0  0  0
   63.3220   32.5510   48.7710 C   0  0  0  0  0  0  0  0  0  0  0  0
   62.5400   33.8230   48.5090 C   0  0  0  0  0  0  0  0  0  0  0  0
   60.0980   33.1620   48.7110 C   0  0  0  0  0  0  0  0  0  0  0  0
   58.7790   32.9980   47.9870 C   0  0  0  0  0  0  0  0  0  0  0  0
   57.7870   32.7220   48.6500 O   0  0  0  0  0  0  0  0  0  0  0  0
   58.5230   29.5490   46.9200 C   0  0  0  0  0  0  0  0  0  0  0  0
   58.1350   28.1000   46.7430 C   0  0  0  0  0  0  0  0  0  0  0  0
   57.0430   27.7470   45.9330 C   0  0  0  0  0  0  0  0  0  0  0  0
   56.6960   26.4030   45.7630 C   0  0  0  0  0  0  0  0  0  0  0  0
   57.4320   25.4010   46.4040 C   0  0  0  0  0  0  0  0  0  0  0  0
   56.9930   23.7170   46.1900 Cl  0  0  0  0  0  0  0  0  0  0  0  0
   58.5130   25.7450   47.2200 C   0  0  0  0  0  0  0  0  0  0  0  0
   58.8620   27.0880   47.3940 C   0  0  0  0  0  0  0  0  0  0  0  0
   61.1767   27.5927   44.9768 H   0  0  0  0  0  0  0  0  0  0  0  0
   60.0309   28.4983   43.9310 H   0  0  0  0  0  0  0  0  0  0  0  0
   61.7759   28.9246   43.9310 H   0  0  0  0  0  0  0  0  0  0  0  0
   60.9380   29.0862   46.6388 H   0  0  0  0  0  0  0  0  0  0  0  0
   61.3263   30.4526   45.4717 H   0  0  0  0  0  0  0  0  0  0  0  0
   59.1109   29.7014   43.7161 H   0  0  0  0  0  0  0  0  0  0  0  0
   57.5688   29.6737   44.6616 H   0  0  0  0  0  0  0  0  0  0  0  0
   59.1392   32.2493   44.4127 H   0  0  0  0  0  0  0  0  0  0  0  0
   58.0700   31.6708   43.0532 H   0  0  0  0  0  0  0  0  0  0  0  0
   56.4546   32.8089   44.0893 H   0  0  0  0  0  0  0  0  0  0  0  0
   56.4768   31.3723   45.2485 H   0  0  0  0  0  0  0  0  0  0  0  0
   57.0756   34.2003   45.7366 H   0  0  0  0  0  0  0  0  0  0  0  0
   56.6680   32.8148   46.8669 H   0  0  0  0  0  0  0  0  0  0  0  0
   59.1700   32.2800   46.1460 H   0  0  0  0  0  0  0  0  0  0  0  0
   61.6046   34.4606   45.8672 H   0  0  0  0  0  0  0  0  0  0  0  0
   60.9132   35.4559   47.2232 H   0  0  0  0  0  0  0  0  0  0  0  0
   60.9692   31.2711   47.2790 H   0  0  0  0  0  0  0  0  0  0  0  0
   61.7068   32.1851   45.9399 H   0  0  0  0  0  0  0  0  0  0  0  0
   63.1032   30.6207   47.8287 H   0  0  0  0  0  0  0  0  0  0  0  0
   63.8497   31.8439   46.7854 H   0  0  0  0  0  0  0  0  0  0  0  0
   62.9558   32.0519   49.6803 H   0  0  0  0  0  0  0  0  0  0  0  0
   64.3923   32.7482   48.9306 H   0  0  0  0  0  0  0  0  0  0  0  0
   62.2560   34.3003   49.4585 H   0  0  0  0  0  0  0  0  0  0  0  0
   63.1357   34.5547   47.9435 H   0  0  0  0  0  0  0  0  0  0  0  0
   60.2955   32.2530   49.2982 H   0  0  0  0  0  0  0  0  0  0  0  0
   60.0203   34.0474   49.3591 H   0  0  0  0  0  0  0  0  0  0  0  0
   59.1312   29.6380   47.8322 H   0  0  0  0  0  0  0  0  0  0  0  0
   57.5905   30.1290   46.9832 H   0  0  0  0  0  0  0  0  0  0  0  0
   56.4582   28.5313   45.4301 H   0  0  0  0  0  0  0  0  0  0  0  0
   55.8424   26.1332   45.1238 H   0  0  0  0  0  0  0  0  0  0  0  0
   59.0906   24.9578   47.7265 H   0  0  0  0  0  0  0  0  0  0  0  0
   59.7093   27.3538   48.0432 H   0  0  0  0  0  0  0  0  0  0  0  0
  1  2  1  0
  2  3  1  0
  3  4  1  0
  4  5  1  0
  5  6  1  0
  6  7  1  0
  7  8  1  0
  8  9  1  0
  9 10  2  0
  9 11  1  0
 11 12  1  0
 12 13  1  0
 13 14  1  0
 14 15  1  0
 15 16  1  0
 12 17  1  0
 17 18  1  0
 18 19  2  0
  3 20  1  0
 20 21  1  0
 21 22  2  0
 22 23  1  0
 23 24  2  0
 24 25  1  0
 24 26  1  0
 26 27  2  0
 18  8  1  0
 27 21  1  0
 16 12  1  0
  1 28  1  0
  1 29  1  0
  1 30  1  0
  2 31  1  0
  2 32  1  0
  4 33  1  0
  4 34  1  0
  5 35  1  0
  5 36  1  0
  6 37  1  0
  6 38  1  0
  7 39  1  0
  7 40  1  0
  8 41  1  0
 11 42  1  0
 11 43  1  0
 13 44  1  0
 13 45  1  0
 14 46  1  0
 14 47  1  0
 15 48  1  0
 15 49  1  0
 16 50  1  0
 16 51  1  0
 17 52  1  0
 17 53  1  0
 20 54  1  0
 20 55  1  0
 22 56  1  0
 23 57  1  0
 26 58  1  0
 27 59  1  0
M  CHG  1   8   1
M  END
>  <UniqueID>  (28) 
27

>  <SMILES>  (28) 
CCN(CCCC[NH+]1C(=O)CC2(CCCC2)CC1=O)Cc1ccc(Cl)cc1

>  <Energy>  (28) 
75.1808584352203

>  <Genealogy>  (28) 
CCN(CCCC[NH+]1C(=O)CC2(CCCC2)CC1=O)Cc1ccc(Cl)cc1 (protonated)
CCN(CCCC[NH+]1C(=O)CC2(CCCC2)CC1=O)Cc1ccc(Cl)cc1 (3D coordinates assigned)
CCN(CCCC[NH+]1C(=O)CC2(CCCC2)CC1=O)Cc1ccc(Cl)cc1 (nonaromatic ring conformer: 75.1808584352203 kcal/mol)

>  <smiles>  (28) 
CCN(CCCCN1C(=O)CC2(CCCC2)CC1=O)Cc1ccc(Cl)cc1

>  <score_type>  (28) 
oracle

>  <origin>  (28) 
adg

>  <m_score__min__energy>  (28) 
-7.7599999999999998

>  <m_primary>  (28) 
energy

$$$$
28:0
     RDKit          3D

 52 55  0  0  0  0  0  0  0  0999 V2000
   57.7590   25.8110   44.4810 C   0  0  0  0  0  0  0  0  0  0  0  0
   56.8050   26.0670   45.6450 C   0  0  0  0  0  0  0  0  0  0  0  0
   57.4830   25.8160   46.9380 N   0  0  0  0  0  0  0  0  0  0  0  0
   56.9870   24.5690   47.5500 C   0  0  0  0  0  0  0  0  0  0  0  0
   58.9530   25.7550   46.7770 C   0  0  0  0  0  0  0  0  0  0  0  0
   59.5860   27.1460   46.9700 C   0  0  0  0  0  0  0  0  0  0  0  0
   58.6060   28.2390   47.0530 N   0  0  0  0  0  0  0  0  0  0  0  0
   58.8610   29.5960   46.6500 C   0  0  0  0  0  0  0  0  0  0  0  0
   58.2420   30.1330   45.5070 C   0  0  0  0  0  0  0  0  0  0  0  0
   57.3200   29.3760   44.7540 C   0  0  0  0  0  0  0  0  0  0  0  0
   56.7070   29.9200   43.6280 C   0  0  0  0  0  0  0  0  0  0  0  0
   56.9920   31.2230   43.2390 C   0  0  0  0  0  0  0  0  0  0  0  0
   57.8830   31.9980   43.9820 C   0  0  0  0  0  0  0  0  0  0  0  0
   58.5170   31.4750   45.1360 C   0  0  0  0  0  0  0  0  0  0  0  0
   59.3730   32.2440   45.8990 N   0  0  0  0  0  0  0  0  0  0  0  0
   59.2380   33.7160   45.8350 C   0  0  0  0  0  0  0  0  0  0  0  0
   60.1620   31.6500   46.8680 C   0  0  0  0  0  0  0  0  0  0  0  0
   59.7920   30.3720   47.3610 C   0  0  0  0  0  0  0  0  0  0  0  0
   60.3760   29.8800   48.5420 C   0  0  0  0  0  0  0  0  0  0  0  0
   61.3800   30.5880   49.1870 C   0  0  0  0  0  0  0  0  0  0  0  0
   61.9030   31.7460   48.6090 C   0  0  0  0  0  0  0  0  0  0  0  0
   63.0230   32.3640   49.1900 C   0  0  0  0  0  0  0  0  0  0  0  0
   63.6440   33.4360   48.5520 C   0  0  0  0  0  0  0  0  0  0  0  0
   63.1760   33.8740   47.3150 C   0  0  0  0  0  0  0  0  0  0  0  0
   62.0520   33.2800   46.7360 C   0  0  0  0  0  0  0  0  0  0  0  0
   61.3410   32.2600   47.4090 C   0  0  0  0  0  0  0  0  0  0  0  0
   58.7519   25.5446   44.8724 H   0  0  0  0  0  0  0  0  0  0  0  0
   57.3735   24.9845   43.8659 H   0  0  0  0  0  0  0  0  0  0  0  0
   57.8390   26.7194   43.8659 H   0  0  0  0  0  0  0  0  0  0  0  0
   56.4658   27.1129   45.6114 H   0  0  0  0  0  0  0  0  0  0  0  0
   55.9457   25.3859   45.5564 H   0  0  0  0  0  0  0  0  0  0  0  0
   57.0227   24.6589   48.6457 H   0  0  0  0  0  0  0  0  0  0  0  0
   55.9496   24.3910   47.2303 H   0  0  0  0  0  0  0  0  0  0  0  0
   57.6187   23.7271   47.2303 H   0  0  0  0  0  0  0  0  0  0  0  0
   59.3687   25.0634   47.5246 H   0  0  0  0  0  0  0  0  0  0  0  0
   59.1806   25.4037   45.7597 H   0  0  0  0  0  0  0  0  0  0  0  0
   60.1716   27.1341   47.9011 H   0  0  0  0  0  0  0  0  0  0  0  0
   60.2075   27.3403   46.0834 H   0  0  0  0  0  0  0  0  0  0  0  0
   57.6350   28.0000   47.3560 H   0  0  0  0  0  0  0  0  0  0  0  0
   57.0830   28.3461   45.0592 H   0  0  0  0  0  0  0  0  0  0  0  0
   55.9955   29.3166   43.0452 H   0  0  0  0  0  0  0  0  0  0  0  0
   56.5138   31.6448   42.3427 H   0  0  0  0  0  0  0  0  0  0  0  0
   58.0964   33.0302   43.6672 H   0  0  0  0  0  0  0  0  0  0  0  0
   59.2004   34.1255   46.8553 H   0  0  0  0  0  0  0  0  0  0  0  0
   60.1010   34.1405   45.3011 H   0  0  0  0  0  0  0  0  0  0  0  0
   58.3122   33.9764   45.3011 H   0  0  0  0  0  0  0  0  0  0  0  0
   60.0326   28.9220   48.9596 H   0  0  0  0  0  0  0  0  0  0  0  0
   61.7645   30.2361   50.1557 H   0  0  0  0  0  0  0  0  0  0  0  0
   63.4114   32.0001   50.1527 H   0  0  0  0  0  0  0  0  0  0  0  0
   64.5026   33.9357   49.0244 H   0  0  0  0  0  0  0  0  0  0  0  0
   63.6940   34.6913   46.7918 H   0  0  0  0  0  0  0  0  0  0  0  0
   61.7153   33.6106   45.7423 H   0  0  0  0  0  0  0  0  0  0  0  0
  1  2  1  0
  2  3  1  0
  3  4  1  0
  3  5  1  0
  5  6  1  0
  6  7  1  0
  7  8  1  0
  8  9  2  0
  9 10  1  0
 10 11  2  0
 11 12  1  0
 12 13  2  0
 13 14  1  0
 14 15  2  0
 15 16  1  0
 15 17  1  0
 17 18  2  0
 18 19  1  0
 19 20  2  0
 20 21  1  0
 21 22  2  0
 22 23  1  0
 23 24  2  0
 24 25  1  0
 25 26  2  0
 18  8  1  0
 26 21  1  0
 14  9  1  0
 26 17  1  0
  1 27  1  0
  1 28  1  0
  1 29  1  0
  2 30  1  0
  2 31  1  0
  4 32  1  0
  4 33  1  0
  4 34  1  0
  5 35  1  0
  5 36  1  0
  6 37  1  0
  6 38  1  0
  7 39  1  0
 10 40  1  0
 11 41  1  0
 12 42  1  0
 13 43  1  0
 16 44  1  0
 16 45  1  0
 16 46  1  0
 19 47  1  0
 20 48  1  0
 22 49  1  0
 23 50  1  0
 24 51  1  0
 25 52  1  0
M  CHG  1  15   1
M  END
>  <UniqueID>  (29) 
28

>  <SMILES>  (29) 
CCN(C)CCNc1c2ccccc2[n+](C)c2c1ccc1ccccc12

>  <Energy>  (29) 
95.11874697967929

>  <Genealogy>  (29) 
CCN(C)CCNc1c2ccccc2[n+](C)c2c1ccc1ccccc12 (3D coordinates assigned)
CCN(C)CCNc1c2ccccc2[n+](C)c2c1ccc1ccccc12 (optimized conformer: 95.11874697967929 kcal/mol)

>  <smiles>  (29) 
CCN(C)CCNc1c2ccccc2[n+](C)c2c1ccc1ccccc12

>  <score_type>  (29) 
oracle

>  <origin>  (29) 
adg

>  <m_score__min__energy>  (29) 
-6

>  <m_primary>  (29) 
energy

$$$$
29:0
     RDKit          3D

 40 43  0  0  0  0  0  0  0  0999 V2000
   55.8990   29.7630   45.9870 H   0  0  0  0  0  0  0  0  0  0  0  0
   55.6150   29.5220   45.0120 N   0  0  0  0  0  0  0  0  0  0  0  0
   56.1970   30.0350   43.9760 C   0  0  0  0  0  0  0  0  0  0  0  0
   55.8890   29.7050   42.7100 N   0  0  0  0  0  0  0  0  0  0  0  0
   56.6130   30.4980   41.9680 O   0  0  0  0  0  0  0  0  0  0  0  0
   57.3590   31.3120   42.6610 N   0  0  0  0  0  0  0  0  0  0  0  0
   58.0110   32.0220   42.2600 H   0  0  0  0  0  0  0  0  0  0  0  0
   57.1380   31.0430   43.9570 C   0  0  0  0  0  0  0  0  0  0  0  0
   57.7930   31.7410   45.0780 C   0  0  0  0  0  0  0  0  0  0  0  0
   57.7280   33.0910   45.2130 N   0  0  0  0  0  0  0  0  0  0  0  0
   58.4410   33.3200   46.3300 C   0  0  0  0  0  0  0  0  0  0  0  0
   58.7250   34.5520   46.9130 C   0  0  0  0  0  0  0  0  0  0  0  0
   58.3219   35.4858   46.4941 H   0  0  0  0  0  0  0  0  0  0  0  0
   59.5450   34.5620   48.0560 C   0  0  0  0  0  0  0  0  0  0  0  0
   59.7814   35.5157   48.5505 H   0  0  0  0  0  0  0  0  0  0  0  0
   60.0670   33.3550   48.5730 C   0  0  0  0  0  0  0  0  0  0  0  0
   60.7125   33.3761   49.4635 H   0  0  0  0  0  0  0  0  0  0  0  0
   59.7670   32.1270   47.9570 C   0  0  0  0  0  0  0  0  0  0  0  0
   60.1783   31.1820   48.3414 H   0  0  0  0  0  0  0  0  0  0  0  0
   58.9270   32.1490   46.8380 C   0  0  0  0  0  0  0  0  0  0  0  0
   58.5240   31.1330   46.0540 N   0  0  0  0  0  0  0  0  0  0  0  0
   58.9230   29.7530   46.1440 C   0  0  0  0  0  0  0  0  0  0  0  0
   59.6670   29.1630   45.1130 C   0  0  0  0  0  0  0  0  0  0  0  0
   59.9380   29.7546   44.2261 H   0  0  0  0  0  0  0  0  0  0  0  0
   60.0660   27.8280   45.2060 C   0  0  0  0  0  0  0  0  0  0  0  0
   60.6533   27.3773   44.3924 H   0  0  0  0  0  0  0  0  0  0  0  0
   59.7250   27.0550   46.3280 C   0  0  0  0  0  0  0  0  0  0  0  0
   60.1600   25.6820   46.3900 N   0  0  0  0  0  0  0  0  0  0  0  0
   61.1140   25.4810   46.7680 H   0  0  0  0  0  0  0  0  0  0  0  0
   59.3560   24.5320   45.9760 C   0  0  0  0  0  0  0  0  0  0  0  0
   59.9235   23.9397   45.2431 H   0  0  0  0  0  0  0  0  0  0  0  0
   59.1264   23.9233   46.8630 H   0  0  0  0  0  0  0  0  0  0  0  0
   58.0460   24.9900   45.3430 C   0  0  0  0  0  0  0  0  0  0  0  0
   57.3248   25.2421   46.1344 H   0  0  0  0  0  0  0  0  0  0  0  0
   58.2306   25.8769   44.7190 H   0  0  0  0  0  0  0  0  0  0  0  0
   57.6378   24.1813   44.7190 H   0  0  0  0  0  0  0  0  0  0  0  0
   58.9820   27.6530   47.3640 C   0  0  0  0  0  0  0  0  0  0  0  0
   58.7132   27.0646   48.2537 H   0  0  0  0  0  0  0  0  0  0  0  0
   58.5840   28.9890   47.2690 C   0  0  0  0  0  0  0  0  0  0  0  0
   58.0006   29.4443   48.0828 H   0  0  0  0  0  0  0  0  0  0  0  0
  1  2  1  0
  2  3  2  0
  3  4  1  0
  4  5  1  0
  5  6  1  0
  6  7  1  0
  6  8  2  0
  8  9  1  0
  9 10  2  0
 10 11  1  0
 11 12  2  0
 12 13  1  0
 12 14  1  0
 14 15  1  0
 14 16  2  0
 16 17  1  0
 16 18  1  0
 18 19  1  0
 18 20  2  0
 20 21  1  0
 21 22  1  0
 22 23  2  0
 23 24  1  0
 23 25  1  0
 25 26  1  0
 25 27  2  0
 27 28  1  0
 28 29  1  0
 28 30  1  0
 30 31  1  0
 30 32  1  0
 30 33  1  0
 33 34  1  0
 33 35  1  0
 33 36  1  0
 27 37  1  0
 37 38  1  0
 37 39  2  0
 39 40  1  0
  8  3  1  0
 21  9  1  0
 39 22  1  0
 20 11  1  0
M  CHG  2   4  -1   6   1
M  END
>  <UniqueID>  (30) 
29

>  <SMILES>  (30) 
[H]/N=c1/[n-]o[nH+]c1-c1nc2ccccc2n1-c1ccc(NCC)cc1

>  <Energy>  (30) 
126.53894105810116

>  <Genealogy>  (30) 
CCNc1ccc(-n2c(-c3[nH+]o[n-]c3=N)nc3ccccc32)cc1 (protonated)
[H]/N=c1/[n-]o[nH+]c1-c1nc2ccccc2n1-c1ccc(NCC)cc1 (cis-trans isomerization)
[H]/N=c1/[n-]o[nH+]c1-c1nc2ccccc2n1-c1ccc(NCC)cc1 (3D coordinates assigned)
[H]/N=c1/[n-]o[nH+]c1-c1nc2ccccc2n1-c1ccc(NCC)cc1 (optimized conformer: 126.53894105810116 kcal/mol)

>  <smiles>  (30) 
CCNc1ccc(-n2c(-c3no[nH]c3=N)nc3ccccc32)cc1

>  <score_type>  (30) 
oracle

>  <origin>  (30) 
adg

>  <m_score__min__energy>  (30) 
-7.7199999999999998

>  <m_primary>  (30) 
energy

$$$$
30:0
     RDKit          3D

 61 63  0  0  0  0  0  0  0  0999 V2000
   57.7460   28.3980   44.1040 C   0  0  0  0  0  0  0  0  0  0  0  0
   58.7820   27.5970   44.8860 C   0  0  0  0  0  0  0  0  0  0  0  0
   58.2380   27.1980   46.2030 N   0  0  0  0  0  0  0  0  0  0  0  0
   56.9620   26.4780   46.0460 C   0  0  0  0  0  0  0  0  0  0  0  0
   59.2020   26.3740   46.9640 C   0  0  0  0  0  0  0  0  0  0  0  0
   59.7760   27.1640   48.1470 C   0  0  0  0  0  0  0  0  0  0  0  0
   59.1370   28.4770   48.2690 N   0  0  0  0  0  0  0  0  0  0  0  0
   59.7860   29.5950   48.8990 C   0  0  0  0  0  0  0  0  0  0  0  0
   60.3950   29.3720   50.1420 C   0  0  0  0  0  0  0  0  0  0  0  0
   61.0480   30.3930   50.8150 C   0  0  0  0  0  0  0  0  0  0  0  0
   61.1190   31.6680   50.2620 C   0  0  0  0  0  0  0  0  0  0  0  0
   61.8170   32.6930   50.9830 N   0  0  0  0  0  0  0  0  0  0  0  0
   63.2790   32.7180   50.9960 C   0  0  0  0  0  0  0  0  0  0  0  0
   63.8570   32.2900   49.6390 C   0  0  0  0  0  0  0  0  0  0  0  0
   63.9380   33.4400   48.6220 C   0  0  0  0  0  0  0  0  0  0  0  0
   63.8890   32.9620   47.2220 N   0  0  0  0  0  0  0  0  0  0  0  0
   63.0870   33.8620   46.3750 C   0  0  0  0  0  0  0  0  0  0  0  0
   63.3060   31.6100   47.1800 C   0  0  0  0  0  0  0  0  0  0  0  0
   60.4880   31.9270   49.0290 C   0  0  0  0  0  0  0  0  0  0  0  0
   60.4730   33.4960   48.4100 S   0  0  0  0  0  0  0  0  0  0  0  0
   59.6510   33.6190   46.9580 C   0  0  0  0  0  0  0  0  0  0  0  0
   59.5500   34.8580   46.3140 C   0  0  0  0  0  0  0  0  0  0  0  0
   58.8640   34.9610   45.1050 C   0  0  0  0  0  0  0  0  0  0  0  0
   58.2800   33.8280   44.5410 C   0  0  0  0  0  0  0  0  0  0  0  0
   58.3810   32.5900   45.1820 C   0  0  0  0  0  0  0  0  0  0  0  0
   59.0720   32.4550   46.4120 C   0  0  0  0  0  0  0  0  0  0  0  0
   59.1540   31.1730   47.0470 C   0  0  0  0  0  0  0  0  0  0  0  0
   58.5940   30.2180   46.4450 O   0  0  0  0  0  0  0  0  0  0  0  0
   59.8120   30.9020   48.3040 C   0  0  0  0  0  0  0  0  0  0  0  0
   57.0763   28.9158   44.8064 H   0  0  0  0  0  0  0  0  0  0  0  0
   58.2566   29.1385   43.4708 H   0  0  0  0  0  0  0  0  0  0  0  0
   57.1579   27.7174   43.4708 H   0  0  0  0  0  0  0  0  0  0  0  0
   59.0489   26.6951   44.3157 H   0  0  0  0  0  0  0  0  0  0  0  0
   59.6732   28.2225   45.0424 H   0  0  0  0  0  0  0  0  0  0  0  0
   56.5483   26.2445   47.0381 H   0  0  0  0  0  0  0  0  0  0  0  0
   56.2512   27.1082   45.4913 H   0  0  0  0  0  0  0  0  0  0  0  0
   57.1340   25.5438   45.4913 H   0  0  0  0  0  0  0  0  0  0  0  0
   58.6900   25.4773   47.3431 H   0  0  0  0  0  0  0  0  0  0  0  0
   60.0278   26.0885   46.2957 H   0  0  0  0  0  0  0  0  0  0  0  0
   59.6071   26.5956   49.0735 H   0  0  0  0  0  0  0  0  0  0  0  0
   60.8518   27.3155   47.9748 H   0  0  0  0  0  0  0  0  0  0  0  0
   58.1950   28.6130   47.8380 H   0  0  0  0  0  0  0  0  0  0  0  0
   60.3539   28.3688   50.5913 H   0  0  0  0  0  0  0  0  0  0  0  0
   61.5128   30.1941   51.7919 H   0  0  0  0  0  0  0  0  0  0  0  0
   61.3270   33.0870   51.8190 H   0  0  0  0  0  0  0  0  0  0  0  0
   63.6178   33.7395   51.2236 H   0  0  0  0  0  0  0  0  0  0  0  0
   63.6313   32.0112   51.7617 H   0  0  0  0  0  0  0  0  0  0  0  0
   64.8708   31.8948   49.8004 H   0  0  0  0  0  0  0  0  0  0  0  0
   63.1782   31.5324   49.2204 H   0  0  0  0  0  0  0  0  0  0  0  0
   63.0916   34.1217   48.7920 H   0  0  0  0  0  0  0  0  0  0  0  0
   64.9022   33.9488   48.7683 H   0  0  0  0  0  0  0  0  0  0  0  0
   62.4907   34.5311   47.0128 H   0  0  0  0  0  0  0  0  0  0  0  0
   63.7563   34.4609   45.7399 H   0  0  0  0  0  0  0  0  0  0  0  0
   62.4152   33.2659   45.7399 H   0  0  0  0  0  0  0  0  0  0  0  0
   63.1492   31.2463   48.2062 H   0  0  0  0  0  0  0  0  0  0  0  0
   62.3420   31.6427   46.6512 H   0  0  0  0  0  0  0  0  0  0  0  0
   63.9915   30.9314   46.6512 H   0  0  0  0  0  0  0  0  0  0  0  0
   60.0120   35.7501   46.7621 H   0  0  0  0  0  0  0  0  0  0  0  0
   58.7837   35.9336   44.5975 H   0  0  0  0  0  0  0  0  0  0  0  0
   57.7374   33.9085   43.5875 H   0  0  0  0  0  0  0  0  0  0  0  0
   57.9159   31.7048   44.7236 H   0  0  0  0  0  0  0  0  0  0  0  0
  1  2  1  0
  2  3  1  0
  3  4  1  0
  3  5  1  0
  5  6  1  0
  6  7  1  0
  7  8  1  0
  8  9  2  0
  9 10  1  0
 10 11  2  0
 11 12  1  0
 12 13  1  0
 13 14  1  0
 14 15  1  0
 15 16  1  0
 16 17  1  0
 16 18  1  0
 11 19  1  0
 19 20  1  0
 20 21  1  0
 21 22  2  0
 22 23  1  0
 23 24  2  0
 24 25  1  0
 25 26  2  0
 26 27  1  0
 27 28  2  0
 27 29  1  0
 29  8  1  0
 29 19  2  0
 26 21  1  0
  1 30  1  0
  1 31  1  0
  1 32  1  0
  2 33  1  0
  2 34  1  0
  4 35  1  0
  4 36  1  0
  4 37  1  0
  5 38  1  0
  5 39  1  0
  6 40  1  0
  6 41  1  0
  7 42  1  0
  9 43  1  0
 10 44  1  0
 12 45  1  0
 13 46  1  0
 13 47  1  0
 14 48  1  0
 14 49  1  0
 15 50  1  0
 15 51  1  0
 17 52  1  0
 17 53  1  0
 17 54  1  0
 18 55  1  0
 18 56  1  0
 18 57  1  0
 22 58  1  0
 23 59  1  0
 24 60  1  0
 25 61  1  0
M  END
>  <UniqueID>  (31) 
30

>  <SMILES>  (31) 
CCN(C)CCNc1ccc(NCCCN(C)C)c2sc3ccccc3c(=O)c12

>  <Energy>  (31) 
79.763668749142

>  <Genealogy>  (31) 
CCN(C)CCNc1ccc(NCCCN(C)C)c2sc3ccccc3c(=O)c12 (3D coordinates assigned)
CCN(C)CCNc1ccc(NCCCN(C)C)c2sc3ccccc3c(=O)c12 (optimized conformer: 79.763668749142 kcal/mol)

>  <smiles>  (31) 
CCN(C)CCNc1ccc(NCCCN(C)C)c2sc3ccccc3c(=O)c12

>  <score_type>  (31) 
oracle

>  <origin>  (31) 
adg

>  <m_score__min__energy>  (31) 
-6.7400000000000002

>  <m_primary>  (31) 
energy

$$$$
31:0
     RDKit          3D

 50 52  0  0  0  0  0  0  0  0999 V2000
   57.0270   31.6320   44.2340 C   0  0  0  0  0  0  0  0  0  0  0  0
   57.3080   32.1510   45.5280 O   0  0  0  0  0  0  0  0  0  0  0  0
   58.1200   33.2700   45.7800 C   0  0  0  0  0  0  0  0  0  0  0  0
   58.6270   34.0700   44.7370 C   0  0  0  0  0  0  0  0  0  0  0  0
   59.4330   35.1750   45.0230 C   0  0  0  0  0  0  0  0  0  0  0  0
   59.7430   35.4930   46.3450 C   0  0  0  0  0  0  0  0  0  0  0  0
   59.2500   34.7070   47.3880 C   0  0  0  0  0  0  0  0  0  0  0  0
   58.4380   33.5930   47.1170 C   0  0  0  0  0  0  0  0  0  0  0  0
   57.9220   32.7430   48.2520 C   0  0  0  0  0  0  0  0  0  0  0  0
   59.0490   32.1930   49.0320 N   0  0  0  0  0  0  0  0  0  0  0  0
   58.5810   31.2740   50.0950 C   0  0  0  0  0  0  0  0  0  0  0  0
   59.6620   30.2250   50.4560 C   0  0  0  0  0  0  0  0  0  0  0  0
   59.5690   28.9180   49.6380 C   0  0  0  0  0  0  0  0  0  0  0  0
   59.9940   29.0380   48.2160 N   0  0  0  0  0  0  0  0  0  0  0  0
   59.7860   27.7960   47.4350 C   0  0  0  0  0  0  0  0  0  0  0  0
   58.9590   28.0040   46.1820 C   0  0  0  0  0  0  0  0  0  0  0  0
   59.4880   27.7000   44.9170 C   0  0  0  0  0  0  0  0  0  0  0  0
   58.7150   27.8790   43.7660 C   0  0  0  0  0  0  0  0  0  0  0  0
   57.4130   28.3730   43.8660 C   0  0  0  0  0  0  0  0  0  0  0  0
   56.8800   28.6970   45.1200 C   0  0  0  0  0  0  0  0  0  0  0  0
   55.5850   29.1970   45.2340 O   0  0  0  0  0  0  0  0  0  0  0  0
   57.6530   28.5170   46.2720 C   0  0  0  0  0  0  0  0  0  0  0  0
   59.5430   30.2470   47.4880 C   0  0  0  0  0  0  0  0  0  0  0  0
   60.0390   31.5590   48.1330 C   0  0  0  0  0  0  0  0  0  0  0  0
   56.5053   30.6684   44.3308 H   0  0  0  0  0  0  0  0  0  0  0  0
   56.3894   32.3407   43.6852 H   0  0  0  0  0  0  0  0  0  0  0  0
   57.9690   31.4855   43.6852 H   0  0  0  0  0  0  0  0  0  0  0  0
   58.3871   33.8235   43.6922 H   0  0  0  0  0  0  0  0  0  0  0  0
   59.8240   35.7957   44.2033 H   0  0  0  0  0  0  0  0  0  0  0  0
   60.3769   36.3644   46.5662 H   0  0  0  0  0  0  0  0  0  0  0  0
   59.4989   34.9615   48.4288 H   0  0  0  0  0  0  0  0  0  0  0  0
   57.2917   33.3594   48.9098 H   0  0  0  0  0  0  0  0  0  0  0  0
   57.3330   31.9113   47.8379 H   0  0  0  0  0  0  0  0  0  0  0  0
   58.3384   31.8607   50.9933 H   0  0  0  0  0  0  0  0  0  0  0  0
   57.6935   30.7407   49.7236 H   0  0  0  0  0  0  0  0  0  0  0  0
   60.6510   30.6732   50.2801 H   0  0  0  0  0  0  0  0  0  0  0  0
   59.5010   29.9526   51.5095 H   0  0  0  0  0  0  0  0  0  0  0  0
   60.2072   28.1648   50.1232 H   0  0  0  0  0  0  0  0  0  0  0  0
   58.5049   28.6398   49.6200 H   0  0  0  0  0  0  0  0  0  0  0  0
   60.7694   27.3997   47.1419 H   0  0  0  0  0  0  0  0  0  0  0  0
   59.2308   27.0973   48.0781 H   0  0  0  0  0  0  0  0  0  0  0  0
   60.5163   27.3189   44.8314 H   0  0  0  0  0  0  0  0  0  0  0  0
   59.1334   27.6301   42.7796 H   0  0  0  0  0  0  0  0  0  0  0  0
   56.8053   28.5079   42.9591 H   0  0  0  0  0  0  0  0  0  0  0  0
   55.3980   30.0890   45.6790 H   0  0  0  0  0  0  0  0  0  0  0  0
   57.2359   28.7788   47.2556 H   0  0  0  0  0  0  0  0  0  0  0  0
   59.9231   30.1976   46.4569 H   0  0  0  0  0  0  0  0  0  0  0  0
   58.4435   30.2595   47.5199 H   0  0  0  0  0  0  0  0  0  0  0  0
   60.9455   31.3382   48.7157 H   0  0  0  0  0  0  0  0  0  0  0  0
   60.2283   32.2679   47.3134 H   0  0  0  0  0  0  0  0  0  0  0  0
  1  2  1  0
  2  3  1  0
  3  4  2  0
  4  5  1  0
  5  6  2  0
  6  7  1  0
  7  8  2  0
  8  9  1  0
  9 10  1  0
 10 11  1  0
 11 12  1  0
 12 13  1  0
 13 14  1  0
 14 15  1  0
 15 16  1  0
 16 17  2  0
 17 18  1  0
 18 19  2  0
 19 20  1  0
 20 21  1  0
 20 22  2  0
 14 23  1  0
 23 24  1  0
  8  3  1  0
 24 10  1  0
 22 16  1  0
  1 25  1  0
  1 26  1  0
  1 27  1  0
  4 28  1  0
  5 29  1  0
  6 30  1  0
  7 31  1  0
  9 32  1  0
  9 33  1  0
 11 34  1  0
 11 35  1  0
 12 36  1  0
 12 37  1  0
 13 38  1  0
 13 39  1  0
 15 40  1  0
 15 41  1  0
 17 42  1  0
 18 43  1  0
 19 44  1  0
 21 45  1  0
 22 46  1  0
 23 47  1  0
 23 48  1  0
 24 49  1  0
 24 50  1  0
M  END
>  <UniqueID>  (32) 
31

>  <SMILES>  (32) 
COc1ccccc1CN1CCCN(Cc2cccc(O)c2)CC1

>  <Energy>  (32) 
67.9967361270221

>  <Genealogy>  (32) 
COc1ccccc1CN1CCCN(Cc2cccc(O)c2)CC1 (3D coordinates assigned)
COc1ccccc1CN1CCCN(Cc2cccc(O)c2)CC1 (nonaromatic ring conformer: 67.9967361270221 kcal/mol)

>  <smiles>  (32) 
COc1ccccc1CN1CCCN(Cc2cccc(O)c2)CC1

>  <score_type>  (32) 
oracle

>  <origin>  (32) 
adg

>  <m_score__min__energy>  (32) 
-6.4100000000000001

>  <m_primary>  (32) 
energy

$$$$
32:0
     RDKit          3D

 64 67  0  0  0  0  0  0  0  0999 V2000
   56.3620   31.1310   52.0810 C   0  0  0  0  0  0  0  0  0  0  0  0
   57.1520   30.4190   51.1340 O   0  0  0  0  0  0  0  0  0  0  0  0
   58.5510   30.4870   51.0600 C   0  0  0  0  0  0  0  0  0  0  0  0
   59.2900   29.3460   51.3900 C   0  0  0  0  0  0  0  0  0  0  0  0
   60.6860   29.3690   51.3560 C   0  0  0  0  0  0  0  0  0  0  0  0
   61.3680   30.5400   50.9870 C   0  0  0  0  0  0  0  0  0  0  0  0
   62.8770   30.5770   51.0200 C   0  0  0  0  0  0  0  0  0  0  0  0
   63.4300   31.8410   50.3420 C   0  0  0  0  0  0  0  0  0  0  0  0
   63.8910   31.6080   48.8860 C   0  0  0  0  0  0  0  0  0  0  0  0
   64.1690   32.8630   48.1490 N   0  0  0  0  0  0  0  0  0  0  0  0
   63.0230   33.7910   48.1030 C   0  0  0  0  0  0  0  0  0  0  0  0
   62.3160   33.8340   46.7260 C   0  0  0  0  0  0  0  0  0  0  0  0
   61.1260   32.8910   46.6500 C   0  0  0  0  0  0  0  0  0  0  0  0
   61.2840   31.6390   47.2540 C   0  0  0  0  0  0  0  0  0  0  0  0
   60.2750   30.6780   47.2180 C   0  0  0  0  0  0  0  0  0  0  0  0
   60.4950   29.4450   47.8370 C   0  0  0  0  0  0  0  0  0  0  0  0
   59.5290   28.4500   47.7910 C   0  0  0  0  0  0  0  0  0  0  0  0
   58.3580   28.6300   47.0400 C   0  0  0  0  0  0  0  0  0  0  0  0
   57.3850   27.6190   46.9800 O   0  0  0  0  0  0  0  0  0  0  0  0
   57.3810   26.5400   46.0510 C   0  0  0  0  0  0  0  0  0  0  0  0
   58.1530   29.8490   46.3440 C   0  0  0  0  0  0  0  0  0  0  0  0
   57.1270   29.9900   45.3910 O   0  0  0  0  0  0  0  0  0  0  0  0
   57.2130   29.7160   43.9970 C   0  0  0  0  0  0  0  0  0  0  0  0
   59.0500   30.9430   46.5580 C   0  0  0  0  0  0  0  0  0  0  0  0
   58.8020   32.2770   46.1040 C   0  0  0  0  0  0  0  0  0  0  0  0
   57.5030   32.7270   45.7620 C   0  0  0  0  0  0  0  0  0  0  0  0
   57.2890   34.0100   45.2660 C   0  0  0  0  0  0  0  0  0  0  0  0
   58.3520   34.8920   45.1320 C   0  0  0  0  0  0  0  0  0  0  0  0
   59.6260   34.5190   45.5500 C   0  0  0  0  0  0  0  0  0  0  0  0
   59.8690   33.2330   46.0840 C   0  0  0  0  0  0  0  0  0  0  0  0
   60.6280   31.6790   50.6350 C   0  0  0  0  0  0  0  0  0  0  0  0
   59.2310   31.6550   50.6700 C   0  0  0  0  0  0  0  0  0  0  0  0
   56.6709   30.8526   53.0994 H   0  0  0  0  0  0  0  0  0  0  0  0
   56.5037   32.2124   51.9376 H   0  0  0  0  0  0  0  0  0  0  0  0
   55.3011   30.8780   51.9376 H   0  0  0  0  0  0  0  0  0  0  0  0
   58.7669   28.4224   51.6788 H   0  0  0  0  0  0  0  0  0  0  0  0
   61.2545   28.4650   51.6197 H   0  0  0  0  0  0  0  0  0  0  0  0
   63.2111   30.5594   52.0679 H   0  0  0  0  0  0  0  0  0  0  0  0
   63.2534   29.7011   50.4713 H   0  0  0  0  0  0  0  0  0  0  0  0
   62.6414   32.6078   50.3390 H   0  0  0  0  0  0  0  0  0  0  0  0
   64.3149   32.1547   50.9152 H   0  0  0  0  0  0  0  0  0  0  0  0
   64.8096   31.0032   48.9036 H   0  0  0  0  0  0  0  0  0  0  0  0
   63.0683   31.0992   48.3623 H   0  0  0  0  0  0  0  0  0  0  0  0
   64.4520   32.6540   47.1630 H   0  0  0  0  0  0  0  0  0  0  0  0
   64.9900   33.3440   48.5830 H   0  0  0  0  0  0  0  0  0  0  0  0
   62.2901   33.4766   48.8607 H   0  0  0  0  0  0  0  0  0  0  0  0
   63.4166   34.8000   48.2955 H   0  0  0  0  0  0  0  0  0  0  0  0
   61.9647   34.8601   46.5423 H   0  0  0  0  0  0  0  0  0  0  0  0
   63.0447   33.5126   45.9672 H   0  0  0  0  0  0  0  0  0  0  0  0
   62.2275   31.4073   47.7699 H   0  0  0  0  0  0  0  0  0  0  0  0
   61.4422   29.2614   48.3654 H   0  0  0  0  0  0  0  0  0  0  0  0
   59.6825   27.5136   48.3473 H   0  0  0  0  0  0  0  0  0  0  0  0
   57.3775   25.5855   46.5977 H   0  0  0  0  0  0  0  0  0  0  0  0
   56.4831   26.6038   45.4188 H   0  0  0  0  0  0  0  0  0  0  0  0
   58.2794   26.5971   45.4188 H   0  0  0  0  0  0  0  0  0  0  0  0
   57.5393   28.6763   43.8471 H   0  0  0  0  0  0  0  0  0  0  0  0
   56.2261   29.8610   43.5332 H   0  0  0  0  0  0  0  0  0  0  0  0
   57.9400   30.3990   43.5332 H   0  0  0  0  0  0  0  0  0  0  0  0
   56.6464   32.0491   45.8909 H   0  0  0  0  0  0  0  0  0  0  0  0
   56.2749   34.3254   44.9796 H   0  0  0  0  0  0  0  0  0  0  0  0
   58.1873   35.8878   44.6946 H   0  0  0  0  0  0  0  0  0  0  0  0
   60.4561   35.2356   45.4635 H   0  0  0  0  0  0  0  0  0  0  0  0
   61.1510   32.5972   50.3294 H   0  0  0  0  0  0  0  0  0  0  0  0
   58.6607   32.5534   50.3913 H   0  0  0  0  0  0  0  0  0  0  0  0
  1  2  1  0
  2  3  1  0
  3  4  2  0
  4  5  1  0
  5  6  2  0
  6  7  1  0
  7  8  1  0
  8  9  1  0
  9 10  1  0
 10 11  1  0
 11 12  1  0
 12 13  1  0
 13 14  2  0
 14 15  1  0
 15 16  2  0
 16 17  1  0
 17 18  2  0
 18 19  1  0
 19 20  1  0
 18 21  1  0
 21 22  1  0
 22 23  1  0
 21 24  2  0
 24 25  1  0
 25 26  2  0
 26 27  1  0
 27 28  2  0
 28 29  1  0
 29 30  2  0
  6 31  1  0
 31 32  2  0
 32  3  1  0
 30 13  1  0
 24 15  1  0
 30 25  1  0
  1 33  1  0
  1 34  1  0
  1 35  1  0
  4 36  1  0
  5 37  1  0
  7 38  1  0
  7 39  1  0
  8 40  1  0
  8 41  1  0
  9 42  1  0
  9 43  1  0
 10 44  1  0
 10 45  1  0
 11 46  1  0
 11 47  1  0
 12 48  1  0
 12 49  1  0
 14 50  1  0
 16 51  1  0
 17 52  1  0
 20 53  1  0
 20 54  1  0
 20 55  1  0
 23 56  1  0
 23 57  1  0
 23 58  1  0
 26 59  1  0
 27 60  1  0
 28 61  1  0
 29 62  1  0
 31 63  1  0
 32 64  1  0
M  CHG  1  10   1
M  END
>  <UniqueID>  (33) 
32

>  <SMILES>  (33) 
COc1ccc(CCC[NH2+]CCc2cc3ccc(OC)c(OC)c3c3ccccc23)cc1

>  <Energy>  (33) 
87.46296981390329

>  <Genealogy>  (33) 
COc1ccc(CCC[NH2+]CCc2cc3ccc(OC)c(OC)c3c3ccccc23)cc1 (protonated)
COc1ccc(CCC[NH2+]CCc2cc3ccc(OC)c(OC)c3c3ccccc23)cc1 (3D coordinates assigned)
COc1ccc(CCC[NH2+]CCc2cc3ccc(OC)c(OC)c3c3ccccc23)cc1 (optimized conformer: 87.46296981390329 kcal/mol)

>  <smiles>  (33) 
COc1ccc(CCCNCCc2cc3ccc(OC)c(OC)c3c3ccccc23)cc1

>  <score_type>  (33) 
oracle

>  <origin>  (33) 
adg

>  <m_score__min__energy>  (33) 
-7.5800000000000001

>  <m_primary>  (33) 
energy

$$$$
33:0
     RDKit          3D

 44 46  0  0  0  0  0  0  0  0999 V2000
   56.5010   29.3410   42.7530 C   0  0  0  0  0  0  0  0  0  0  0  0
   57.1290   30.4320   43.5570 C   0  0  0  0  0  0  0  0  0  0  0  0
   57.3990   30.3470   45.2410 S   0  0  0  0  0  0  0  0  0  0  0  0
   58.0940   31.8700   45.2920 C   0  0  0  0  0  0  0  0  0  0  0  0
   58.1290   32.4490   44.0690 C   0  0  0  0  0  0  0  0  0  0  0  0
   57.6010   31.6570   43.0490 C   0  0  0  0  0  0  0  0  0  0  0  0
   57.4840   32.0900   41.6210 C   0  0  0  0  0  0  0  0  0  0  0  0
   58.7190   33.8270   44.1250 C   0  0  0  0  0  0  0  0  0  0  0  0
   59.0070   33.9190   45.6080 C   0  0  0  0  0  0  0  0  0  0  0  0
   59.5760   34.9840   46.3030 C   0  0  0  0  0  0  0  0  0  0  0  0
   59.7560   34.8640   47.6930 C   0  0  0  0  0  0  0  0  0  0  0  0
   59.3630   33.6850   48.3800 C   0  0  0  0  0  0  0  0  0  0  0  0
   59.5550   33.5550   49.8440 C   0  0  0  0  0  0  0  0  0  0  0  0
   60.5830   34.0550   50.3760 O   0  0  0  0  0  0  0  0  0  0  0  0
   58.6080   32.8380   50.6550 N   0  0  0  0  0  0  0  0  0  0  0  0
   58.6430   32.8580   52.1180 C   0  0  0  0  0  0  0  0  0  0  0  0
   57.5760   31.9210   52.7220 C   0  0  0  0  0  0  0  0  0  0  0  0
   56.9760   30.9490   51.7780 N   0  0  0  0  0  0  0  0  0  0  0  0
   55.5870   30.5950   52.1060 C   0  0  0  0  0  0  0  0  0  0  0  0
   57.8000   29.7510   51.5610 C   0  0  0  0  0  0  0  0  0  0  0  0
   58.8010   32.6140   47.6510 C   0  0  0  0  0  0  0  0  0  0  0  0
   58.6360   32.7650   46.2780 C   0  0  0  0  0  0  0  0  0  0  0  0
   56.0684   28.5894   43.4297 H   0  0  0  0  0  0  0  0  0  0  0  0
   55.7077   29.7631   42.1186 H   0  0  0  0  0  0  0  0  0  0  0  0
   57.2645   28.8670   42.1186 H   0  0  0  0  0  0  0  0  0  0  0  0
   57.1972   33.1512   41.5820 H   0  0  0  0  0  0  0  0  0  0  0  0
   58.4514   31.9528   41.1158 H   0  0  0  0  0  0  0  0  0  0  0  0
   56.7173   31.4842   41.1158 H   0  0  0  0  0  0  0  0  0  0  0  0
   59.6368   33.9045   43.5237 H   0  0  0  0  0  0  0  0  0  0  0  0
   58.0784   34.6259   43.7233 H   0  0  0  0  0  0  0  0  0  0  0  0
   59.8785   35.9005   45.7753 H   0  0  0  0  0  0  0  0  0  0  0  0
   60.2073   35.6947   48.2554 H   0  0  0  0  0  0  0  0  0  0  0  0
   57.8250   32.3200   50.1990 H   0  0  0  0  0  0  0  0  0  0  0  0
   59.6377   32.5321   52.4562 H   0  0  0  0  0  0  0  0  0  0  0  0
   58.4318   33.8838   52.4543 H   0  0  0  0  0  0  0  0  0  0  0  0
   58.0456   31.3544   53.5396 H   0  0  0  0  0  0  0  0  0  0  0  0
   56.7525   32.5718   53.0511 H   0  0  0  0  0  0  0  0  0  0  0  0
   55.4648   30.5639   53.1987 H   0  0  0  0  0  0  0  0  0  0  0  0
   54.9067   31.3485   51.6823 H   0  0  0  0  0  0  0  0  0  0  0  0
   55.3504   29.6078   51.6823 H   0  0  0  0  0  0  0  0  0  0  0  0
   58.0923   29.3261   52.5326 H   0  0  0  0  0  0  0  0  0  0  0  0
   57.2221   29.0063   50.9940 H   0  0  0  0  0  0  0  0  0  0  0  0
   58.7021   30.0242   50.9940 H   0  0  0  0  0  0  0  0  0  0  0  0
   58.5013   31.6839   48.1561 H   0  0  0  0  0  0  0  0  0  0  0  0
  1  2  1  0
  2  3  1  0
  3  4  1  0
  4  5  2  0
  5  6  1  0
  6  7  1  0
  5  8  1  0
  8  9  1  0
  9 10  2  0
 10 11  1  0
 11 12  2  0
 12 13  1  0
 13 14  2  0
 13 15  1  0
 15 16  1  0
 16 17  1  0
 17 18  1  0
 18 19  1  0
 18 20  1  0
 12 21  1  0
 21 22  2  0
  6  2  2  0
 22  9  1  0
 22  4  1  0
  1 23  1  0
  1 24  1  0
  1 25  1  0
  7 26  1  0
  7 27  1  0
  7 28  1  0
  8 29  1  0
  8 30  1  0
 10 31  1  0
 11 32  1  0
 15 33  1  0
 16 34  1  0
 16 35  1  0
 17 36  1  0
 17 37  1  0
 19 38  1  0
 19 39  1  0
 19 40  1  0
 20 41  1  0
 20 42  1  0
 20 43  1  0
 21 44  1  0
M  END
>  <UniqueID>  (34) 
33

>  <SMILES>  (34) 
Cc1sc2c(c1C)Cc1ccc(C(=O)NCCN(C)C)cc1-2

>  <Energy>  (34) 
106.74854550278911

>  <Genealogy>  (34) 
Cc1sc2c(c1C)Cc1ccc(C(=O)NCCN(C)C)cc1-2 (3D coordinates assigned)
Cc1sc2c(c1C)Cc1ccc(C(=O)NCCN(C)C)cc1-2 (nonaromatic ring conformer: 106.74854550278911 kcal/mol)

>  <smiles>  (34) 
Cc1sc2c(c1C)Cc1ccc(C(=O)NCCN(C)C)cc1-2

>  <score_type>  (34) 
oracle

>  <origin>  (34) 
adg

>  <m_score__min__energy>  (34) 
-7.8600000000000003

>  <m_primary>  (34) 
energy

$$$$
34:0
     RDKit          3D

 56 58  0  0  0  0  0  0  0  0999 V2000
   59.5290   35.2660   46.1960 C   0  0  0  0  0  0  0  0  0  0  0  0
   59.2290   34.3490   45.0020 C   0  0  0  0  0  0  0  0  0  0  0  0
   58.2150   33.3080   45.2850 N   0  0  0  0  0  0  0  0  0  0  0  0
   57.0250   33.8370   45.9700 C   0  0  0  0  0  0  0  0  0  0  0  0
   57.8650   32.4920   44.1020 C   0  0  0  0  0  0  0  0  0  0  0  0
   58.0020   30.9930   44.4250 C   0  0  0  0  0  0  0  0  0  0  0  0
   57.4360   30.6670   45.6810 O   0  0  0  0  0  0  0  0  0  0  0  0
   58.1710   29.6440   46.3250 C   0  0  0  0  0  0  0  0  0  0  0  0
   59.1000   30.2870   47.3620 C   0  0  0  0  0  0  0  0  0  0  0  0
   59.1540   31.7580   47.2430 N   0  0  0  0  0  0  0  0  0  0  0  0
   59.9240   32.3590   48.3290 C   0  0  0  0  0  0  0  0  0  0  0  0
   61.2190   32.8950   48.0710 C   0  0  0  0  0  0  0  0  0  0  0  0
   61.7770   32.9100   46.7650 C   0  0  0  0  0  0  0  0  0  0  0  0
   63.0180   33.4880   46.5160 C   0  0  0  0  0  0  0  0  0  0  0  0
   63.7330   34.0740   47.5490 C   0  0  0  0  0  0  0  0  0  0  0  0
   63.2280   34.0510   48.8460 C   0  0  0  0  0  0  0  0  0  0  0  0
   61.9900   33.4250   49.1430 C   0  0  0  0  0  0  0  0  0  0  0  0
   61.5340   33.3310   50.4390 N   0  0  0  0  0  0  0  0  0  0  0  0
   62.4680   33.5550   51.5680 C   0  0  0  0  0  0  0  0  0  0  0  0
   60.2230   32.9850   50.6910 C   0  0  0  0  0  0  0  0  0  0  0  0
   59.6590   33.1690   51.9780 C   0  0  0  0  0  0  0  0  0  0  0  0
   58.3700   32.7400   52.2730 C   0  0  0  0  0  0  0  0  0  0  0  0
   57.5960   32.1250   51.3000 C   0  0  0  0  0  0  0  0  0  0  0  0
   56.2840   31.6660   51.6570 N   0  0  0  0  0  0  0  0  0  0  0  0
   56.0570   30.5010   51.9900 N   0  0  0  0  0  0  0  0  0  0  0  0
   55.8320   29.3380   52.3220 N   0  0  0  0  0  0  0  0  0  0  0  0
   58.1080   31.9790   50.0020 C   0  0  0  0  0  0  0  0  0  0  0  0
   59.4090   32.4390   49.6590 C   0  0  0  0  0  0  0  0  0  0  0  0
   59.3498   34.7184   47.1330 H   0  0  0  0  0  0  0  0  0  0  0  0
   60.5797   35.5891   46.1553 H   0  0  0  0  0  0  0  0  0  0  0  0
   58.8724   36.1476   46.1553 H   0  0  0  0  0  0  0  0  0  0  0  0
   58.8646   34.9706   44.1709 H   0  0  0  0  0  0  0  0  0  0  0  0
   60.1651   33.8251   44.7586 H   0  0  0  0  0  0  0  0  0  0  0  0
   57.1696   33.7727   47.0586 H   0  0  0  0  0  0  0  0  0  0  0  0
   56.8727   34.8876   45.6818 H   0  0  0  0  0  0  0  0  0  0  0  0
   56.1430   33.2462   45.6818 H   0  0  0  0  0  0  0  0  0  0  0  0
   56.8268   32.7061   43.8082 H   0  0  0  0  0  0  0  0  0  0  0  0
   58.5501   32.7440   43.2791 H   0  0  0  0  0  0  0  0  0  0  0  0
   57.4895   30.4130   43.6433 H   0  0  0  0  0  0  0  0  0  0  0  0
   59.0742   30.7502   44.4623 H   0  0  0  0  0  0  0  0  0  0  0  0
   57.4797   28.9506   46.8263 H   0  0  0  0  0  0  0  0  0  0  0  0
   58.7632   29.0847   45.5858 H   0  0  0  0  0  0  0  0  0  0  0  0
   58.7376   30.0282   48.3678 H   0  0  0  0  0  0  0  0  0  0  0  0
   60.1147   29.9014   47.1840 H   0  0  0  0  0  0  0  0  0  0  0  0
   58.1940   32.1410   47.1390 H   0  0  0  0  0  0  0  0  0  0  0  0
   59.5790   32.0140   46.3260 H   0  0  0  0  0  0  0  0  0  0  0  0
   61.2172   32.4558   45.9341 H   0  0  0  0  0  0  0  0  0  0  0  0
   63.4326   33.4799   45.4972 H   0  0  0  0  0  0  0  0  0  0  0  0
   64.6996   34.5573   47.3437 H   0  0  0  0  0  0  0  0  0  0  0  0
   63.7998   34.5273   49.6561 H   0  0  0  0  0  0  0  0  0  0  0  0
   61.9309   33.4262   52.5193 H   0  0  0  0  0  0  0  0  0  0  0  0
   63.2926   32.8291   51.5113 H   0  0  0  0  0  0  0  0  0  0  0  0
   62.8736   34.5759   51.5113 H   0  0  0  0  0  0  0  0  0  0  0  0
   60.2542   33.6621   52.7607 H   0  0  0  0  0  0  0  0  0  0  0  0
   57.9617   32.8891   53.2835 H   0  0  0  0  0  0  0  0  0  0  0  0
   57.4883   31.4973   49.2314 H   0  0  0  0  0  0  0  0  0  0  0  0
  1  2  1  0
  2  3  1  0
  3  4  1  0
  3  5  1  0
  5  6  1  0
  6  7  1  0
  7  8  1  0
  8  9  1  0
  9 10  1  0
 10 11  1  0
 11 12  2  0
 12 13  1  0
 13 14  2  0
 14 15  1  0
 15 16  2  0
 16 17  1  0
 17 18  2  0
 18 19  1  0
 18 20  1  0
 20 21  2  0
 21 22  1  0
 22 23  2  0
 23 24  1  0
 24 25  2  0
 25 26  2  0
 23 27  1  0
 27 28  2  0
 28 11  1  0
 17 12  1  0
 28 20  1  0
  1 29  1  0
  1 30  1  0
  1 31  1  0
  2 32  1  0
  2 33  1  0
  4 34  1  0
  4 35  1  0
  4 36  1  0
  5 37  1  0
  5 38  1  0
  6 39  1  0
  6 40  1  0
  8 41  1  0
  8 42  1  0
  9 43  1  0
  9 44  1  0
 10 45  1  0
 10 46  1  0
 13 47  1  0
 14 48  1  0
 15 49  1  0
 16 50  1  0
 19 51  1  0
 19 52  1  0
 19 53  1  0
 21 54  1  0
 22 55  1  0
 27 56  1  0
M  CHG  4  10   1  18   1  25   1  26  -1
M  END
>  <UniqueID>  (35) 
34

>  <SMILES>  (35) 
CCN(C)CCOCC[NH2+]c1c2ccccc2[n+](C)c2ccc(N=[N+]=[N-])cc12

>  <Energy>  (35) 
87.12262444680763

>  <Genealogy>  (35) 
CCN(C)CCOCC[NH2+]c1c2ccccc2[n+](C)c2ccc(N=[N+]=[N-])cc12 (protonated)
CCN(C)CCOCC[NH2+]c1c2ccccc2[n+](C)c2ccc(N=[N+]=[N-])cc12 (3D coordinates assigned)
CCN(C)CCOCC[NH2+]c1c2ccccc2[n+](C)c2ccc(N=[N+]=[N-])cc12 (optimized conformer: 87.12262444680763 kcal/mol)

>  <smiles>  (35) 
CCN(C)CCOCCNc1c2ccccc2[n+](C)c2ccc(N=[N+]=[N-])cc12

>  <score_type>  (35) 
oracle

>  <origin>  (35) 
adg

>  <m_score__min__energy>  (35) 
-4.71

>  <m_primary>  (35) 
energy

$$$$
35:0
     RDKit          3D

 53 55  0  0  0  0  0  0  0  0999 V2000
   55.8981   29.6216   42.8911 H   0  0  0  0  0  0  0  0  0  0  0  0
   56.8240   29.6300   43.4850 C   0  0  0  0  0  0  0  0  0  0  0  0
   57.3910   28.4430   43.7640 C   0  0  0  0  0  0  0  0  0  0  0  0
   57.1694   27.6035   43.0886 H   0  0  0  0  0  0  0  0  0  0  0  0
   58.2890   28.1790   44.9080 C   0  0  0  0  0  0  0  0  0  0  0  0
   57.8300   27.4930   46.0500 C   0  0  0  0  0  0  0  0  0  0  0  0
   56.7738   27.1941   46.1217 H   0  0  0  0  0  0  0  0  0  0  0  0
   58.7100   27.1910   47.0910 C   0  0  0  0  0  0  0  0  0  0  0  0
   58.3427   26.6550   47.9786 H   0  0  0  0  0  0  0  0  0  0  0  0
   60.0580   27.5660   47.0130 C   0  0  0  0  0  0  0  0  0  0  0  0
   60.9050   27.2240   48.0680 O   0  0  0  0  0  0  0  0  0  0  0  0
   60.5600   27.3600   49.4420 C   0  0  0  0  0  0  0  0  0  0  0  0
   61.1109   26.6161   50.0363 H   0  0  0  0  0  0  0  0  0  0  0  0
   59.4800   27.1972   49.5726 H   0  0  0  0  0  0  0  0  0  0  0  0
   60.9340   28.7770   49.9130 C   0  0  0  0  0  0  0  0  0  0  0  0
   61.9890   28.7756   50.2245 H   0  0  0  0  0  0  0  0  0  0  0  0
   60.2604   29.0357   50.7432 H   0  0  0  0  0  0  0  0  0  0  0  0
   60.7530   29.8110   48.8540 N   0  0  0  0  0  0  0  0  0  0  0  0
   60.9990   29.3800   47.9310 H   0  0  0  0  0  0  0  0  0  0  0  0
   61.6860   30.9690   48.9940 C   0  0  0  0  0  0  0  0  0  0  0  0
   62.6150   30.6030   49.4555 H   0  0  0  0  0  0  0  0  0  0  0  0
   61.1551   31.7152   49.6034 H   0  0  0  0  0  0  0  0  0  0  0  0
   62.0560   31.6790   47.6790 C   0  0  0  0  0  0  0  0  0  0  0  0
   62.5535   32.6337   47.9051 H   0  0  0  0  0  0  0  0  0  0  0  0
   62.7359   31.0403   47.0962 H   0  0  0  0  0  0  0  0  0  0  0  0
   61.1430   31.8704   47.0962 H   0  0  0  0  0  0  0  0  0  0  0  0
   59.3310   30.2510   48.7560 C   0  0  0  0  0  0  0  0  0  0  0  0
   59.2041   30.8323   47.8308 H   0  0  0  0  0  0  0  0  0  0  0  0
   58.7004   29.3497   48.7556 H   0  0  0  0  0  0  0  0  0  0  0  0
   58.9030   31.1220   49.9490 C   0  0  0  0  0  0  0  0  0  0  0  0
   59.1558   30.6076   50.8879 H   0  0  0  0  0  0  0  0  0  0  0  0
   59.4296   32.0868   49.9062 H   0  0  0  0  0  0  0  0  0  0  0  0
   57.8175   31.2946   49.9062 H   0  0  0  0  0  0  0  0  0  0  0  0
   60.5200   28.2470   45.8750 C   0  0  0  0  0  0  0  0  0  0  0  0
   61.5732   28.5584   45.8132 H   0  0  0  0  0  0  0  0  0  0  0  0
   59.6470   28.5310   44.8200 C   0  0  0  0  0  0  0  0  0  0  0  0
   60.0250   29.0324   43.9168 H   0  0  0  0  0  0  0  0  0  0  0  0
   57.3460   30.9460   43.9130 C   0  0  0  0  0  0  0  0  0  0  0  0
   57.4620   31.2570   45.2350 N   0  0  0  0  0  0  0  0  0  0  0  0
   57.9640   32.4450   45.6610 C   0  0  0  0  0  0  0  0  0  0  0  0
   58.0440   32.7320   47.0280 C   0  0  0  0  0  0  0  0  0  0  0  0
   57.6965   31.9935   47.7655 H   0  0  0  0  0  0  0  0  0  0  0  0
   58.5650   33.9560   47.4580 C   0  0  0  0  0  0  0  0  0  0  0  0
   58.6234   34.1802   48.5333 H   0  0  0  0  0  0  0  0  0  0  0  0
   59.0130   34.8980   46.5220 C   0  0  0  0  0  0  0  0  0  0  0  0
   59.4253   35.8582   46.8655 H   0  0  0  0  0  0  0  0  0  0  0  0
   58.9380   34.6220   45.1530 C   0  0  0  0  0  0  0  0  0  0  0  0
   59.2911   35.3640   44.4218 H   0  0  0  0  0  0  0  0  0  0  0  0
   58.4120   33.3980   44.7130 C   0  0  0  0  0  0  0  0  0  0  0  0
   58.3220   33.0900   43.3490 C   0  0  0  0  0  0  0  0  0  0  0  0
   58.6649   33.8157   42.5969 H   0  0  0  0  0  0  0  0  0  0  0  0
   57.7970   31.8620   42.9460 C   0  0  0  0  0  0  0  0  0  0  0  0
   57.7361   31.6113   41.8767 H   0  0  0  0  0  0  0  0  0  0  0  0
  1  2  1  0
  2  3  2  0
  3  4  1  0
  3  5  1  0
  5  6  2  0
  6  7  1  0
  6  8  1  0
  8  9  1  0
  8 10  2  0
 10 11  1  0
 11 12  1  0
 12 13  1  0
 12 14  1  0
 12 15  1  0
 15 16  1  0
 15 17  1  0
 15 18  1  0
 18 19  1  0
 18 20  1  0
 20 21  1  0
 20 22  1  0
 20 23  1  0
 23 24  1  0
 23 25  1  0
 23 26  1  0
 18 27  1  0
 27 28  1  0
 27 29  1  0
 27 30  1  0
 30 31  1  0
 30 32  1  0
 30 33  1  0
 10 34  1  0
 34 35  1  0
 34 36  2  0
 36 37  1  0
  2 38  1  0
 38 39  2  0
 39 40  1  0
 40 41  2  0
 41 42  1  0
 41 43  1  0
 43 44  1  0
 43 45  2  0
 45 46  1  0
 45 47  1  0
 47 48  1  0
 47 49  2  0
 49 50  1  0
 50 51  1  0
 50 52  2  0
 52 53  1  0
 36  5  1  0
 52 38  1  0
 49 40  1  0
M  CHG  1  18   1
M  END
>  <UniqueID>  (36) 
35

>  <SMILES>  (36) 
CC[NH+](CC)CCOc1ccc(/C=C\c2ccc3ccccc3n2)cc1

>  <Energy>  (36) 
70.7445616581159

>  <Genealogy>  (36) 
CC[NH+](CC)CCOc1ccc(C=Cc2ccc3ccccc3n2)cc1 (protonated)
CC[NH+](CC)CCOc1ccc(/C=C\c2ccc3ccccc3n2)cc1 (cis-trans isomerization)
CC[NH+](CC)CCOc1ccc(/C=C\c2ccc3ccccc3n2)cc1 (3D coordinates assigned)
CC[NH+](CC)CCOc1ccc(/C=C\c2ccc3ccccc3n2)cc1 (optimized conformer: 70.7445616581159 kcal/mol)

>  <smiles>  (36) 
CCN(CC)CCOc1ccc(C=Cc2ccc3ccccc3n2)cc1

>  <score_type>  (36) 
oracle

>  <origin>  (36) 
adg

>  <m_score__min__energy>  (36) 
-6.9199999999999999

>  <m_primary>  (36) 
energy

$$$$
36:0
     RDKit          3D

 44 46  0  0  0  0  0  0  0  0999 V2000
   58.4370   34.5880   44.8720 C   0  0  0  0  0  0  0  0  0  0  0  0
   57.2530   33.8360   45.4710 C   0  0  0  0  0  0  0  0  0  0  0  0
   57.6730   33.0250   46.5700 O   0  0  0  0  0  0  0  0  0  0  0  0
   58.9150   33.1020   47.2270 C   0  0  0  0  0  0  0  0  0  0  0  0
   59.2540   34.1910   48.0520 C   0  0  0  0  0  0  0  0  0  0  0  0
   60.4860   34.2330   48.7040 C   0  0  0  0  0  0  0  0  0  0  0  0
   61.4190   33.1990   48.5410 C   0  0  0  0  0  0  0  0  0  0  0  0
   62.7260   33.2660   49.2450 C   0  0  0  0  0  0  0  0  0  0  0  0
   63.8700   32.6230   48.7440 C   0  0  0  0  0  0  0  0  0  0  0  0
   65.0650   32.7330   49.4550 C   0  0  0  0  0  0  0  0  0  0  0  0
   65.1090   33.4550   50.6030 N   0  0  0  0  0  0  0  0  0  0  0  0
   64.0000   34.0800   51.0750 C   0  0  0  0  0  0  0  0  0  0  0  0
   62.8270   33.9850   50.3970 N   0  0  0  0  0  0  0  0  0  0  0  0
   61.0830   32.1070   47.7200 C   0  0  0  0  0  0  0  0  0  0  0  0
   59.8410   32.0490   47.0600 C   0  0  0  0  0  0  0  0  0  0  0  0
   59.5210   30.8900   46.1870 C   0  0  0  0  0  0  0  0  0  0  0  0
   60.3900   29.7960   46.0840 C   0  0  0  0  0  0  0  0  0  0  0  0
   60.0630   28.7340   45.2410 C   0  0  0  0  0  0  0  0  0  0  0  0
   58.8670   28.7560   44.5020 C   0  0  0  0  0  0  0  0  0  0  0  0
   58.5390   27.7310   43.6000 O   0  0  0  0  0  0  0  0  0  0  0  0
   57.9140   26.5040   43.9610 C   0  0  0  0  0  0  0  0  0  0  0  0
   57.9990   29.8560   44.6590 C   0  0  0  0  0  0  0  0  0  0  0  0
   56.7120   29.9570   43.9420 C   0  0  0  0  0  0  0  0  0  0  0  0
   56.5450   29.4290   42.6240 N   0  0  0  0  0  0  0  0  0  0  0  0
   55.7230   30.4780   44.5230 O   0  0  0  0  0  0  0  0  0  0  0  0
   58.3610   30.8840   45.4750 N   0  0  0  0  0  0  0  0  0  0  0  0
   59.0655   34.9872   45.6818 H   0  0  0  0  0  0  0  0  0  0  0  0
   59.0313   33.9015   44.2511 H   0  0  0  0  0  0  0  0  0  0  0  0
   58.0682   35.4178   44.2511 H   0  0  0  0  0  0  0  0  0  0  0  0
   56.5051   34.5617   45.8230 H   0  0  0  0  0  0  0  0  0  0  0  0
   56.8193   33.1856   44.6972 H   0  0  0  0  0  0  0  0  0  0  0  0
   58.5399   35.0172   48.1837 H   0  0  0  0  0  0  0  0  0  0  0  0
   60.7286   35.0870   49.3535 H   0  0  0  0  0  0  0  0  0  0  0  0
   63.8244   32.0443   47.8096 H   0  0  0  0  0  0  0  0  0  0  0  0
   65.9726   32.2339   49.0847 H   0  0  0  0  0  0  0  0  0  0  0  0
   64.0515   34.6632   52.0063 H   0  0  0  0  0  0  0  0  0  0  0  0
   61.8027   31.2850   47.5917 H   0  0  0  0  0  0  0  0  0  0  0  0
   61.3243   29.7747   46.6643 H   0  0  0  0  0  0  0  0  0  0  0  0
   60.7443   27.8748   45.1539 H   0  0  0  0  0  0  0  0  0  0  0  0
   57.8724   26.4223   45.0572 H   0  0  0  0  0  0  0  0  0  0  0  0
   56.8930   26.4784   43.5524 H   0  0  0  0  0  0  0  0  0  0  0  0
   58.4936   25.6631   43.5524 H   0  0  0  0  0  0  0  0  0  0  0  0
   55.6430   29.5700   42.1170 H   0  0  0  0  0  0  0  0  0  0  0  0
   57.2640   28.8080   42.1930 H   0  0  0  0  0  0  0  0  0  0  0  0
  1  2  1  0
  2  3  1  0
  3  4  1  0
  4  5  2  0
  5  6  1  0
  6  7  2  0
  7  8  1  0
  8  9  2  0
  9 10  1  0
 10 11  2  0
 11 12  1  0
 12 13  2  0
  7 14  1  0
 14 15  2  0
 15 16  1  0
 16 17  2  0
 17 18  1  0
 18 19  2  0
 19 20  1  0
 20 21  1  0
 19 22  1  0
 22 23  1  0
 23 24  1  0
 23 25  2  0
 22 26  2  0
 15  4  1  0
 26 16  1  0
 13  8  1  0
  1 27  1  0
  1 28  1  0
  1 29  1  0
  2 30  1  0
  2 31  1  0
  5 32  1  0
  6 33  1  0
  9 34  1  0
 10 35  1  0
 12 36  1  0
 14 37  1  0
 17 38  1  0
 18 39  1  0
 21 40  1  0
 21 41  1  0
 21 42  1  0
 24 43  1  0
 24 44  1  0
M  END
>  <UniqueID>  (37) 
36

>  <SMILES>  (37) 
CCOc1ccc(-c2ccncn2)cc1-c1ccc(OC)c(C(N)=O)n1

>  <Energy>  (37) 
57.35342396303105

>  <Genealogy>  (37) 
CCOc1ccc(-c2ccncn2)cc1-c1ccc(OC)c(C(N)=O)n1 (3D coordinates assigned)
CCOc1ccc(-c2ccncn2)cc1-c1ccc(OC)c(C(N)=O)n1 (optimized conformer: 57.35342396303105 kcal/mol)

>  <smiles>  (37) 
CCOc1ccc(-c2ccncn2)cc1-c1ccc(OC)c(C(N)=O)n1

>  <score_type>  (37) 
oracle

>  <origin>  (37) 
adg

>  <m_score__min__energy>  (37) 
-8.5

>  <m_primary>  (37) 
energy

$$$$
37:0
     RDKit          3D

 49 51  0  0  0  0  0  0  0  0999 V2000
   61.5480   28.5950   43.7790 H   0  0  0  0  0  0  0  0  0  0  0  0
   61.2140   28.9250   44.6760 O   0  0  0  0  0  0  0  0  0  0  0  0
   59.9510   29.4600   44.8510 N   0  0  0  0  0  0  0  0  0  0  0  0
   59.6380   30.3620   45.7400 C   0  0  0  0  0  0  0  0  0  0  0  0
   60.5110   30.6080   46.9170 C   0  0  0  0  0  0  0  0  0  0  0  0
   61.5750   31.5140   46.8130 C   0  0  0  0  0  0  0  0  0  0  0  0
   61.7482   32.0511   45.8688 H   0  0  0  0  0  0  0  0  0  0  0  0
   62.4140   31.7360   47.9030 C   0  0  0  0  0  0  0  0  0  0  0  0
   63.2466   32.4508   47.8258 H   0  0  0  0  0  0  0  0  0  0  0  0
   62.1890   31.0440   49.0930 C   0  0  0  0  0  0  0  0  0  0  0  0
   62.8504   31.2085   49.9564 H   0  0  0  0  0  0  0  0  0  0  0  0
   61.1550   30.1670   49.1890 N   0  0  0  0  0  0  0  0  0  0  0  0
   61.0020   29.6600   50.0900 H   0  0  0  0  0  0  0  0  0  0  0  0
   60.3070   29.9430   48.1460 C   0  0  0  0  0  0  0  0  0  0  0  0
   59.2560   29.0330   48.3040 O   0  0  0  0  0  0  0  0  0  0  0  0
   59.1040   27.8830   47.5180 C   0  0  0  0  0  0  0  0  0  0  0  0
   57.8250   27.5350   47.0720 C   0  0  0  0  0  0  0  0  0  0  0  0
   56.9646   28.1708   47.3280 H   0  0  0  0  0  0  0  0  0  0  0  0
   57.6340   26.3840   46.3030 C   0  0  0  0  0  0  0  0  0  0  0  0
   56.6222   26.1155   45.9652 H   0  0  0  0  0  0  0  0  0  0  0  0
   58.7190   25.5700   45.9590 C   0  0  0  0  0  0  0  0  0  0  0  0
   58.4740   24.4140   45.2040 O   0  0  0  0  0  0  0  0  0  0  0  0
   57.4220   24.2850   44.2530 C   0  0  0  0  0  0  0  0  0  0  0  0
   56.4637   24.1675   44.7800 H   0  0  0  0  0  0  0  0  0  0  0  0
   57.3855   25.1854   43.6222 H   0  0  0  0  0  0  0  0  0  0  0  0
   57.6042   23.4025   43.6222 H   0  0  0  0  0  0  0  0  0  0  0  0
   60.0120   25.9360   46.3820 C   0  0  0  0  0  0  0  0  0  0  0  0
   60.8757   25.3142   46.1039 H   0  0  0  0  0  0  0  0  0  0  0  0
   60.2020   27.0850   47.1530 C   0  0  0  0  0  0  0  0  0  0  0  0
   61.2151   27.3666   47.4759 H   0  0  0  0  0  0  0  0  0  0  0  0
   58.4280   31.1400   45.5550 N   0  0  0  0  0  0  0  0  0  0  0  0
   57.8100   31.8290   46.7080 C   0  0  0  0  0  0  0  0  0  0  0  0
   56.7284   31.6293   46.6921 H   0  0  0  0  0  0  0  0  0  0  0  0
   58.2974   31.4381   47.6133 H   0  0  0  0  0  0  0  0  0  0  0  0
   58.0220   33.3540   46.7080 C   0  0  0  0  0  0  0  0  0  0  0  0
   57.3283   33.7986   47.4368 H   0  0  0  0  0  0  0  0  0  0  0  0
   59.0778   33.5261   46.9642 H   0  0  0  0  0  0  0  0  0  0  0  0
   57.7830   34.0260   45.3410 C   0  0  0  0  0  0  0  0  0  0  0  0
   56.7531   33.7992   45.0282 H   0  0  0  0  0  0  0  0  0  0  0  0
   57.9760   35.0978   45.4956 H   0  0  0  0  0  0  0  0  0  0  0  0
   58.7290   33.5880   44.2080 C   0  0  0  0  0  0  0  0  0  0  0  0
   58.8644   34.4386   43.5238 H   0  0  0  0  0  0  0  0  0  0  0  0
   59.6677   33.2707   44.6856 H   0  0  0  0  0  0  0  0  0  0  0  0
   58.2220   32.3870   43.3900 C   0  0  0  0  0  0  0  0  0  0  0  0
   57.3643   32.7204   42.7873 H   0  0  0  0  0  0  0  0  0  0  0  0
   59.0717   32.0448   42.7810 H   0  0  0  0  0  0  0  0  0  0  0  0
   57.7740   31.1740   44.2350 C   0  0  0  0  0  0  0  0  0  0  0  0
   56.6850   31.2274   44.3810 H   0  0  0  0  0  0  0  0  0  0  0  0
   58.0623   30.2613   43.6929 H   0  0  0  0  0  0  0  0  0  0  0  0
  1  2  1  0
  2  3  1  0
  3  4  2  0
  4  5  1  0
  5  6  2  0
  6  7  1  0
  6  8  1  0
  8  9  1  0
  8 10  2  0
 10 11  1  0
 10 12  1  0
 12 13  1  0
 12 14  2  0
 14 15  1  0
 15 16  1  0
 16 17  2  0
 17 18  1  0
 17 19  1  0
 19 20  1  0
 19 21  2  0
 21 22  1  0
 22 23  1  0
 23 24  1  0
 23 25  1  0
 23 26  1  0
 21 27  1  0
 27 28  1  0
 27 29  2  0
 29 30  1  0
  4 31  1  0
 31 32  1  0
 32 33  1  0
 32 34  1  0
 32 35  1  0
 35 36  1  0
 35 37  1  0
 35 38  1  0
 38 39  1  0
 38 40  1  0
 38 41  1  0
 41 42  1  0
 41 43  1  0
 41 44  1  0
 44 45  1  0
 44 46  1  0
 44 47  1  0
 47 48  1  0
 47 49  1  0
 14  5  1  0
 29 16  1  0
 47 31  1  0
M  CHG  1  12   1
M  END
>  <UniqueID>  (38) 
37

>  <SMILES>  (38) 
COc1ccc(Oc2[nH+]cccc2/C(=N\O)N2CCCCCC2)cc1

>  <Energy>  (38) 
68.1309477477998

>  <Genealogy>  (38) 
COc1ccc(Oc2[nH+]cccc2C(=NO)N2CCCCCC2)cc1 (protonated)
COc1ccc(Oc2[nH+]cccc2/C(=N\O)N2CCCCCC2)cc1 (cis-trans isomerization)
COc1ccc(Oc2[nH+]cccc2/C(=N\O)N2CCCCCC2)cc1 (3D coordinates assigned)
COc1ccc(Oc2[nH+]cccc2/C(=N\O)N2CCCCCC2)cc1 (nonaromatic ring conformer: 68.1309477477998 kcal/mol)

>  <smiles>  (38) 
COc1ccc(Oc2ncccc2C(=NO)N2CCCCCC2)cc1

>  <score_type>  (38) 
oracle

>  <origin>  (38) 
adg

>  <m_score__min__energy>  (38) 
-3.2799999999999998

>  <m_primary>  (38) 
energy

$$$$
