0:0
     RDKit          3D

 49 51  0  0  0  0  0  0  0  0999 V2000
   54.6440   25.1530   45.6170 C   0  0  0  0  0  0  0  0  0  0  0  0
   55.1370   26.4340   45.9960 O   0  0  0  0  0  0  0  0  0  0  0  0
   56.4700   26.7060   46.3450 C   0  0  0  0  0  0  0  0  0  0  0  0
   57.2550   25.7710   47.0510 C   0  0  0  0  0  0  0  0  0  0  0  0
   58.5970   26.0410   47.3280 C   0  0  0  0  0  0  0  0  0  0  0  0
   59.1740   27.2370   46.9030 C   0  0  0  0  0  0  0  0  0  0  0  0
   58.4050   28.1740   46.2090 C   0  0  0  0  0  0  0  0  0  0  0  0
   57.0510   27.9320   45.9520 C   0  0  0  0  0  0  0  0  0  0  0  0
   56.3050   28.9240   45.2340 N   0  0  0  0  0  0  0  0  0  0  0  0
   56.6620   29.4570   43.9540 C   0  0  0  0  0  0  0  0  0  0  0  0
   57.2360   28.7330   43.0950 O   0  0  0  0  0  0  0  0  0  0  0  0
   56.2790   30.8590   43.6040 C   0  0  0  0  0  0  0  0  0  0  0  0
   57.7630   31.8590   43.2460 S   0  0  0  0  0  0  0  0  0  0  0  0
   57.9890   32.3980   44.9450 C   0  0  0  0  0  0  0  0  0  0  0  0
   57.5090   31.7350   46.0100 N   0  0  0  0  0  0  0  0  0  0  0  0
   57.8200   32.4240   47.0970 N   0  0  0  0  0  0  0  0  0  0  0  0
   58.4910   33.5150   46.6710 C   0  0  0  0  0  0  0  0  0  0  0  0
   59.0440   34.5540   47.6010 C   0  0  0  0  0  0  0  0  0  0  0  0
   59.8890   33.8970   48.6950 C   0  0  0  0  0  0  0  0  0  0  0  0
   61.2990   33.6820   48.2150 C   0  0  0  0  0  0  0  0  0  0  0  0
   61.6370   33.9280   46.8740 C   0  0  0  0  0  0  0  0  0  0  0  0
   62.9390   33.6930   46.4220 C   0  0  0  0  0  0  0  0  0  0  0  0
   63.9080   33.2050   47.3020 C   0  0  0  0  0  0  0  0  0  0  0  0
   63.5760   32.9450   48.6330 C   0  0  0  0  0  0  0  0  0  0  0  0
   62.2750   33.1770   49.0900 C   0  0  0  0  0  0  0  0  0  0  0  0
   58.6370   33.5160   45.3260 N   0  0  0  0  0  0  0  0  0  0  0  0
   59.2310   34.5460   44.4790 C   0  0  0  0  0  0  0  0  0  0  0  0
   54.4179   24.5655   46.5191 H   0  0  0  0  0  0  0  0  0  0  0  0
   53.7284   25.2745   45.0196 H   0  0  0  0  0  0  0  0  0  0  0  0
   55.4048   24.6294   45.0196 H   0  0  0  0  0  0  0  0  0  0  0  0
   56.8076   24.8234   47.3855 H   0  0  0  0  0  0  0  0  0  0  0  0
   59.2006   25.3079   47.8832 H   0  0  0  0  0  0  0  0  0  0  0  0
   60.2338   27.4425   47.1140 H   0  0  0  0  0  0  0  0  0  0  0  0
   58.8675   29.1097   45.8617 H   0  0  0  0  0  0  0  0  0  0  0  0
   55.6292   30.8456   42.7165 H   0  0  0  0  0  0  0  0  0  0  0  0
   55.7476   31.3054   44.4575 H   0  0  0  0  0  0  0  0  0  0  0  0
   56.9690   30.8420   46.0050 H   0  0  0  0  0  0  0  0  0  0  0  0
   59.6715   35.2541   47.0300 H   0  0  0  0  0  0  0  0  0  0  0  0
   58.2080   35.0923   48.0715 H   0  0  0  0  0  0  0  0  0  0  0  0
   59.9038   34.5485   49.5812 H   0  0  0  0  0  0  0  0  0  0  0  0
   59.4471   32.9220   48.9481 H   0  0  0  0  0  0  0  0  0  0  0  0
   60.8748   34.3068   46.1772 H   0  0  0  0  0  0  0  0  0  0  0  0
   63.2006   33.8926   45.3724 H   0  0  0  0  0  0  0  0  0  0  0  0
   64.9332   33.0255   46.9461 H   0  0  0  0  0  0  0  0  0  0  0  0
   64.3393   32.5569   49.3234 H   0  0  0  0  0  0  0  0  0  0  0  0
   62.0152   32.9635   50.1373 H   0  0  0  0  0  0  0  0  0  0  0  0
   59.6808   35.3260   45.1109 H   0  0  0  0  0  0  0  0  0  0  0  0
   60.0079   34.0954   43.8439 H   0  0  0  0  0  0  0  0  0  0  0  0
   58.4519   34.9928   43.8439 H   0  0  0  0  0  0  0  0  0  0  0  0
  1  2  1  0
  2  3  1  0
  3  4  2  0
  4  5  1  0
  5  6  2  0
  6  7  1  0
  7  8  2  0
  8  9  1  0
  9 10  1  0
 10 11  2  0
 10 12  1  0
 12 13  1  0
 13 14  1  0
 14 15  2  0
 15 16  1  0
 16 17  2  0
 17 18  1  0
 18 19  1  0
 19 20  1  0
 20 21  2  0
 21 22  1  0
 22 23  2  0
 23 24  1  0
 24 25  2  0
 17 26  1  0
 26 27  1  0
  8  3  1  0
 26 14  1  0
 25 20  1  0
  1 28  1  0
  1 29  1  0
  1 30  1  0
  4 31  1  0
  5 32  1  0
  6 33  1  0
  7 34  1  0
 12 35  1  0
 12 36  1  0
 15 37  1  0
 18 38  1  0
 18 39  1  0
 19 40  1  0
 19 41  1  0
 21 42  1  0
 22 43  1  0
 23 44  1  0
 24 45  1  0
 25 46  1  0
 27 47  1  0
 27 48  1  0
 27 49  1  0
M  CHG  2   9  -1  15   1
M  END
>  <UniqueID>  (1) 
1

>  <SMILES>  (1) 
COc1ccccc1[N-]C(=O)CSc1[nH+]nc(CCc2ccccc2)n1C

>  <Energy>  (1) 
81.45155451564463

>  <Genealogy>  (1) 
COc1ccccc1[N-]C(=O)CSc1[nH+]nc(CCc2ccccc2)n1C (protonated)
COc1ccccc1[N-]C(=O)CSc1[nH+]nc(CCc2ccccc2)n1C (3D coordinates assigned)
COc1ccccc1[N-]C(=O)CSc1[nH+]nc(CCc2ccccc2)n1C (optimized conformer: 81.45155451564463 kcal/mol)

>  <smiles>  (1) 
COc1ccccc1NC(=O)CSc1nnc(CCc2ccccc2)n1C

>  <score_type>  (1) 
oracle

>  <origin>  (1) 
adg

>  <m_score__min__energy>  (1) 
-10.34

>  <m_primary>  (1) 
energy

$$$$
1:0
     RDKit          3D

 34 35  0  0  0  0  0  0  0  0999 V2000
   55.4270   23.8870   44.6780 C   0  0  0  0  0  0  0  0  0  0  0  0
   54.6610   24.8270   45.6000 C   0  0  0  0  0  0  0  0  0  0  0  0
   55.5310   25.9300   46.0240 N   0  0  0  0  0  0  0  0  0  0  0  0
   56.8980   25.4640   46.3150 C   0  0  0  0  0  0  0  0  0  0  0  0
   57.9290   26.4190   45.7060 C   0  0  0  0  0  0  0  0  0  0  0  0
   57.2900   27.6490   45.2390 N   0  0  0  0  0  0  0  0  0  0  0  0
   57.8830   28.9480   45.4150 C   0  0  0  0  0  0  0  0  0  0  0  0
   59.1810   29.0550   45.8040 N   0  0  0  0  0  0  0  0  0  0  0  0
   59.7620   30.2370   46.0040 N   0  0  0  0  0  0  0  0  0  0  0  0
   61.0810   30.2740   46.4030 O   0  0  0  0  0  0  0  0  0  0  0  0
   59.0600   31.3910   45.8230 C   0  0  0  0  0  0  0  0  0  0  0  0
   59.6480   32.6520   46.0340 C   0  0  0  0  0  0  0  0  0  0  0  0
   58.9010   33.8160   45.8420 C   0  0  0  0  0  0  0  0  0  0  0  0
   57.5670   33.7370   45.4410 C   0  0  0  0  0  0  0  0  0  0  0  0
   56.9700   32.4920   45.2270 C   0  0  0  0  0  0  0  0  0  0  0  0
   57.7090   31.3080   45.4160 C   0  0  0  0  0  0  0  0  0  0  0  0
   57.1460   30.0790   45.2170 N   0  0  0  0  0  0  0  0  0  0  0  0
   55.8270   29.9760   44.8280 O   0  0  0  0  0  0  0  0  0  0  0  0
   56.0079   23.1741   45.2816 H   0  0  0  0  0  0  0  0  0  0  0  0
   54.7169   23.3367   44.0433 H   0  0  0  0  0  0  0  0  0  0  0  0
   56.1094   24.4714   44.0433 H   0  0  0  0  0  0  0  0  0  0  0  0
   53.7908   25.2342   45.0644 H   0  0  0  0  0  0  0  0  0  0  0  0
   54.3247   24.2698   46.4868 H   0  0  0  0  0  0  0  0  0  0  0  0
   55.1260   26.3380   46.9000 H   0  0  0  0  0  0  0  0  0  0  0  0
   57.0423   25.4220   47.4047 H   0  0  0  0  0  0  0  0  0  0  0  0
   57.0350   24.4645   45.8766 H   0  0  0  0  0  0  0  0  0  0  0  0
   58.6808   26.6709   46.4684 H   0  0  0  0  0  0  0  0  0  0  0  0
   58.4038   25.9220   44.8472 H   0  0  0  0  0  0  0  0  0  0  0  0
   56.3250   27.5690   44.8470 H   0  0  0  0  0  0  0  0  0  0  0  0
   61.6000   29.4180   46.5640 H   0  0  0  0  0  0  0  0  0  0  0  0
   60.6991   32.7209   46.3511 H   0  0  0  0  0  0  0  0  0  0  0  0
   59.3661   34.7990   46.0075 H   0  0  0  0  0  0  0  0  0  0  0  0
   56.9835   34.6576   45.2929 H   0  0  0  0  0  0  0  0  0  0  0  0
   55.9183   32.4363   44.9095 H   0  0  0  0  0  0  0  0  0  0  0  0
  1  2  1  0
  2  3  1  0
  3  4  1  0
  4  5  1  0
  5  6  1  0
  6  7  1  0
  7  8  2  0
  8  9  1  0
  9 10  1  0
  9 11  2  0
 11 12  1  0
 12 13  2  0
 13 14  1  0
 14 15  2  0
 15 16  1  0
 16 17  2  0
 17 18  1  0
 17  7  1  0
 16 11  1  0
  1 19  1  0
  1 20  1  0
  1 21  1  0
  2 22  1  0
  2 23  1  0
  3 24  1  0
  4 25  1  0
  4 26  1  0
  5 27  1  0
  5 28  1  0
  6 29  1  0
 10 30  1  0
 12 31  1  0
 13 32  1  0
 14 33  1  0
 15 34  1  0
M  CHG  3   9   1  17   1  18  -1
M  END
>  <UniqueID>  (2) 
2

>  <SMILES>  (2) 
CCNCCNc1n[n+](O)c2ccccc2[n+]1[O-]

>  <Energy>  (2) 
32.723536847853914

>  <Genealogy>  (2) 
CCNCCNc1n[n+](O)c2ccccc2[n+]1[O-] (protonated)
CCNCCNc1n[n+](O)c2ccccc2[n+]1[O-] (3D coordinates assigned)
CCNCCNc1n[n+](O)c2ccccc2[n+]1[O-] (optimized conformer: 32.723536847853914 kcal/mol)

>  <smiles>  (2) 
CCNCCNc1n[n+]([O-])c2ccccc2[n+]1[O-]

>  <score_type>  (2) 
oracle

>  <origin>  (2) 
adg

>  <m_score__min__energy>  (2) 
-5.8300000000000001

>  <m_primary>  (2) 
energy

$$$$
2:0
     RDKit          3D

 44 46  0  0  0  0  0  0  0  0999 V2000
   60.5130   33.9530   47.1290 C   0  0  0  0  0  0  0  0  0  0  0  0
   59.0290   34.0120   47.4560 C   0  0  0  0  0  0  0  0  0  0  0  0
   58.3390   34.6120   46.3780 O   0  0  0  0  0  0  0  0  0  0  0  0
   57.4350   33.7130   45.8790 N   0  0  0  0  0  0  0  0  0  0  0  0
   57.7630   33.4600   44.4730 C   0  0  0  0  0  0  0  0  0  0  0  0
   57.3950   32.0340   44.0540 C   0  0  0  0  0  0  0  0  0  0  0  0
   57.0820   31.2670   45.2140 O   0  0  0  0  0  0  0  0  0  0  0  0
   57.7120   30.0630   45.5630 C   0  0  0  0  0  0  0  0  0  0  0  0
   58.7400   30.1020   46.5110 C   0  0  0  0  0  0  0  0  0  0  0  0
   59.4040   28.9340   46.8950 C   0  0  0  0  0  0  0  0  0  0  0  0
   59.0410   27.7000   46.3270 C   0  0  0  0  0  0  0  0  0  0  0  0
   59.6790   26.4990   46.6740 C   0  0  0  0  0  0  0  0  0  0  0  0
   60.6170   26.4800   47.5160 O   0  0  0  0  0  0  0  0  0  0  0  0
   59.2700   25.3070   46.0730 C   0  0  0  0  0  0  0  0  0  0  0  0
   58.2230   25.3330   45.1340 C   0  0  0  0  0  0  0  0  0  0  0  0
   57.7440   24.0990   44.4610 C   0  0  0  0  0  0  0  0  0  0  0  0
   56.6280   24.1640   43.6050 C   0  0  0  0  0  0  0  0  0  0  0  0
   56.1540   23.0150   42.9670 C   0  0  0  0  0  0  0  0  0  0  0  0
   56.7800   21.7860   43.1800 C   0  0  0  0  0  0  0  0  0  0  0  0
   57.8790   21.7030   44.0370 C   0  0  0  0  0  0  0  0  0  0  0  0
   58.3600   22.8490   44.6780 C   0  0  0  0  0  0  0  0  0  0  0  0
   57.6480   26.4940   44.8240 O   0  0  0  0  0  0  0  0  0  0  0  0
   58.0050   27.6530   45.3700 C   0  0  0  0  0  0  0  0  0  0  0  0
   57.3480   28.8280   44.9920 C   0  0  0  0  0  0  0  0  0  0  0  0
   61.0936   33.9299   48.0630 H   0  0  0  0  0  0  0  0  0  0  0  0
   60.7237   33.0458   46.5437 H   0  0  0  0  0  0  0  0  0  0  0  0
   60.7951   34.8406   46.5437 H   0  0  0  0  0  0  0  0  0  0  0  0
   58.6467   32.9930   47.6160 H   0  0  0  0  0  0  0  0  0  0  0  0
   58.8751   34.6054   48.3694 H   0  0  0  0  0  0  0  0  0  0  0  0
   57.5140   32.8030   46.3950 H   0  0  0  0  0  0  0  0  0  0  0  0
   56.4560   34.0870   45.9420 H   0  0  0  0  0  0  0  0  0  0  0  0
   57.2077   34.1711   43.8437 H   0  0  0  0  0  0  0  0  0  0  0  0
   58.8484   33.5857   44.3458 H   0  0  0  0  0  0  0  0  0  0  0  0
   56.5220   32.0614   43.3853 H   0  0  0  0  0  0  0  0  0  0  0  0
   58.2442   31.5745   43.5271 H   0  0  0  0  0  0  0  0  0  0  0  0
   59.0292   31.0638   46.9596 H   0  0  0  0  0  0  0  0  0  0  0  0
   60.2106   28.9799   47.6415 H   0  0  0  0  0  0  0  0  0  0  0  0
   59.7615   24.3573   46.3311 H   0  0  0  0  0  0  0  0  0  0  0  0
   56.1250   25.1277   43.4371 H   0  0  0  0  0  0  0  0  0  0  0  0
   55.2853   23.0792   42.2952 H   0  0  0  0  0  0  0  0  0  0  0  0
   56.4078   20.8835   42.6731 H   0  0  0  0  0  0  0  0  0  0  0  0
   58.3682   20.7328   44.2086 H   0  0  0  0  0  0  0  0  0  0  0  0
   59.2236   22.7751   45.3553 H   0  0  0  0  0  0  0  0  0  0  0  0
   56.5422   28.7876   44.2443 H   0  0  0  0  0  0  0  0  0  0  0  0
  1  2  1  0
  2  3  1  0
  3  4  1  0
  4  5  1  0
  5  6  1  0
  6  7  1  0
  7  8  1  0
  8  9  2  0
  9 10  1  0
 10 11  2  0
 11 12  1  0
 12 13  2  0
 12 14  1  0
 14 15  2  0
 15 16  1  0
 16 17  2  0
 17 18  1  0
 18 19  2  0
 19 20  1  0
 20 21  2  0
 15 22  1  0
 22 23  1  0
 23 24  2  0
 24  8  1  0
 23 11  1  0
 21 16  1  0
  1 25  1  0
  1 26  1  0
  1 27  1  0
  2 28  1  0
  2 29  1  0
  4 30  1  0
  4 31  1  0
  5 32  1  0
  5 33  1  0
  6 34  1  0
  6 35  1  0
  9 36  1  0
 10 37  1  0
 14 38  1  0
 17 39  1  0
 18 40  1  0
 19 41  1  0
 20 42  1  0
 21 43  1  0
 24 44  1  0
M  CHG  1   4   1
M  END
>  <UniqueID>  (3) 
3

>  <SMILES>  (3) 
CCO[NH2+]CCOc1ccc2c(=O)cc(-c3ccccc3)oc2c1

>  <Energy>  (3) 
51.041501990591804

>  <Genealogy>  (3) 
CCO[NH2+]CCOc1ccc2c(=O)cc(-c3ccccc3)oc2c1 (protonated)
CCO[NH2+]CCOc1ccc2c(=O)cc(-c3ccccc3)oc2c1 (3D coordinates assigned)
CCO[NH2+]CCOc1ccc2c(=O)cc(-c3ccccc3)oc2c1 (optimized conformer: 51.041501990591804 kcal/mol)

>  <smiles>  (3) 
CCONCCOc1ccc2c(=O)cc(-c3ccccc3)oc2c1

>  <score_type>  (3) 
oracle

>  <origin>  (3) 
adg

>  <m_score__min__energy>  (3) 
-5.5199999999999996

>  <m_primary>  (3) 
energy

$$$$
3:0
     RDKit          3D

 32 33  0  0  0  0  0  0  0  0999 V2000
   58.1540   27.3210   43.3520 C   0  0  0  0  0  0  0  0  0  0  0  0
   57.4010   28.5710   43.2220 N   0  0  0  0  0  0  0  0  0  0  0  0
   57.7700   29.4850   44.2730 C   0  0  0  0  0  0  0  0  0  0  0  0
   58.4490   29.0210   45.4140 C   0  0  0  0  0  0  0  0  0  0  0  0
   58.7800   29.9040   46.4470 C   0  0  0  0  0  0  0  0  0  0  0  0
   58.4280   31.2520   46.3550 C   0  0  0  0  0  0  0  0  0  0  0  0
   57.7390   31.7230   45.2320 C   0  0  0  0  0  0  0  0  0  0  0  0
   57.2770   33.4520   45.1220 S   0  0  0  0  0  0  0  0  0  0  0  0
   58.9900   34.0180   44.8600 C   0  0  0  0  0  0  0  0  0  0  0  0
   59.6910   34.1180   46.1830 C   0  0  0  0  0  0  0  0  0  0  0  0
   61.0410   33.7470   46.2980 C   0  0  0  0  0  0  0  0  0  0  0  0
   61.6860   33.8090   47.5380 C   0  0  0  0  0  0  0  0  0  0  0  0
   60.9840   34.2310   48.6710 C   0  0  0  0  0  0  0  0  0  0  0  0
   59.6370   34.5890   48.5660 C   0  0  0  0  0  0  0  0  0  0  0  0
   58.9890   34.5280   47.3280 C   0  0  0  0  0  0  0  0  0  0  0  0
   57.4110   30.8430   44.1950 C   0  0  0  0  0  0  0  0  0  0  0  0
   58.2950   27.0870   44.4175 H   0  0  0  0  0  0  0  0  0  0  0  0
   57.5969   26.5053   42.8680 H   0  0  0  0  0  0  0  0  0  0  0  0
   59.1355   27.4322   42.8680 H   0  0  0  0  0  0  0  0  0  0  0  0
   57.6010   28.9960   42.2870 H   0  0  0  0  0  0  0  0  0  0  0  0
   56.3760   28.3620   43.2690 H   0  0  0  0  0  0  0  0  0  0  0  0
   58.7211   27.9582   45.4944 H   0  0  0  0  0  0  0  0  0  0  0  0
   59.3183   29.5360   47.3329 H   0  0  0  0  0  0  0  0  0  0  0  0
   58.6929   31.9451   47.1670 H   0  0  0  0  0  0  0  0  0  0  0  0
   59.5197   33.2990   44.2177 H   0  0  0  0  0  0  0  0  0  0  0  0
   58.9801   35.0050   44.3745 H   0  0  0  0  0  0  0  0  0  0  0  0
   61.5932   33.4064   45.4097 H   0  0  0  0  0  0  0  0  0  0  0  0
   62.7456   33.5257   47.6215 H   0  0  0  0  0  0  0  0  0  0  0  0
   61.4919   34.2813   49.6454 H   0  0  0  0  0  0  0  0  0  0  0  0
   59.0855   34.9193   49.4586 H   0  0  0  0  0  0  0  0  0  0  0  0
   57.9264   34.8020   47.2511 H   0  0  0  0  0  0  0  0  0  0  0  0
   56.8690   31.2153   43.3131 H   0  0  0  0  0  0  0  0  0  0  0  0
  1  2  1  0
  2  3  1  0
  3  4  2  0
  4  5  1  0
  5  6  2  0
  6  7  1  0
  7  8  1  0
  8  9  1  0
  9 10  1  0
 10 11  2  0
 11 12  1  0
 12 13  2  0
 13 14  1  0
 14 15  2  0
  7 16  2  0
 16  3  1  0
 15 10  1  0
  1 17  1  0
  1 18  1  0
  1 19  1  0
  2 20  1  0
  2 21  1  0
  4 22  1  0
  5 23  1  0
  6 24  1  0
  9 25  1  0
  9 26  1  0
 11 27  1  0
 12 28  1  0
 13 29  1  0
 14 30  1  0
 15 31  1  0
 16 32  1  0
M  CHG  1   2   1
M  END
>  <UniqueID>  (4) 
4

>  <SMILES>  (4) 
C[NH2+]c1cccc(SCc2ccccc2)c1

>  <Energy>  (4) 
27.16684121638142

>  <Genealogy>  (4) 
C[NH2+]c1cccc(SCc2ccccc2)c1 (protonated)
C[NH2+]c1cccc(SCc2ccccc2)c1 (3D coordinates assigned)
C[NH2+]c1cccc(SCc2ccccc2)c1 (optimized conformer: 27.16684121638142 kcal/mol)

>  <smiles>  (4) 
CNc1cccc(SCc2ccccc2)c1

>  <score_type>  (4) 
oracle

>  <origin>  (4) 
adg

>  <m_score__min__energy>  (4) 
-5.3399999999999999

>  <m_primary>  (4) 
energy

$$$$
4:0
     RDKit          3D

 49 51  0  0  1  0  0  0  0  0999 V2000
   57.7900   32.2880   41.8660 C   0  0  0  0  0  0  0  0  0  0  0  0
   57.0430   31.1780   42.6260 C   0  0  0  0  0  0  0  0  0  0  0  0
   57.4100   31.2630   44.0850 C   0  0  0  0  0  0  0  0  0  0  0  0
   56.6300   30.4340   44.8230 O   0  0  0  0  0  0  0  0  0  0  0  0
   57.2390   29.3790   45.4610 C   0  0  0  0  0  0  0  0  0  0  0  0
   58.6720   29.7610   45.7270 C   0  0  0  0  0  0  0  0  0  0  0  0
   59.2270   29.3080   46.9550 N   0  0  0  0  0  0  0  0  0  0  0  0
   59.7680   28.0610   47.1340 C   0  0  0  0  0  0  0  0  0  0  0  0
   59.8440   27.1340   45.9710 C   0  0  0  0  0  0  0  0  0  0  0  0
   60.2510   27.6170   48.2990 N   0  0  0  0  0  0  0  0  0  0  0  0
   60.2450   28.3710   49.4080 C   0  0  0  0  0  0  0  0  0  0  0  0
   59.7140   29.6370   49.2840 C   0  0  0  0  0  0  0  0  0  0  0  0
   59.8220   30.1990   50.5390 C   0  0  0  0  0  0  0  0  0  0  0  0
   60.3960   29.2910   51.3610 N   0  0  0  0  0  0  0  0  0  0  0  0
   60.6500   28.1910   50.6800 N   0  0  0  0  0  0  0  0  0  0  0  0
   61.2690   26.9710   51.2050 C   0  0  0  0  0  0  0  0  0  0  0  0
   59.2110   30.0930   48.0520 C   0  0  0  0  0  0  0  0  0  0  0  0
   58.8570   31.3190   48.0630 N   0  0  0  0  0  0  0  0  0  0  0  0
   59.8330   32.3540   47.9310 C   0  0  0  0  0  0  0  0  0  0  0  0
   59.0890   33.1350   46.8380 C   0  0  0  0  0  0  0  0  0  0  0  0
   59.7880   33.8430   45.8860 C   0  0  0  0  0  0  0  0  0  0  0  0
   59.1140   34.5530   44.9130 C   0  0  0  0  0  0  0  0  0  0  0  0
   57.7510   34.5190   44.9380 C   0  0  0  0  0  0  0  0  0  0  0  0
   57.0370   33.8270   45.8660 N   0  0  0  0  0  0  0  0  0  0  0  0
   57.7070   33.1390   46.8100 C   0  0  0  0  0  0  0  0  0  0  0  0
   58.2540   32.9775   42.5867 H   0  0  0  0  0  0  0  0  0  0  0  0
   58.5701   31.8386   41.2340 H   0  0  0  0  0  0  0  0  0  0  0  0
   57.0799   32.8415   41.2340 H   0  0  0  0  0  0  0  0  0  0  0  0
   55.9578   31.3142   42.5084 H   0  0  0  0  0  0  0  0  0  0  0  0
   57.3243   30.1932   42.2247 H   0  0  0  0  0  0  0  0  0  0  0  0
   58.4640   30.9740   44.2100 H   0  0  0  0  0  0  0  0  0  0  0  0
   57.2549   32.2960   44.4299 H   0  0  0  0  0  0  0  0  0  0  0  0
   56.7256   29.1705   46.4112 H   0  0  0  0  0  0  0  0  0  0  0  0
   57.1940   28.4758   44.8347 H   0  0  0  0  0  0  0  0  0  0  0  0
   59.2851   29.3513   44.9108 H   0  0  0  0  0  0  0  0  0  0  0  0
   58.6759   30.8591   45.7907 H   0  0  0  0  0  0  0  0  0  0  0  0
   59.9289   26.0985   46.3324 H   0  0  0  0  0  0  0  0  0  0  0  0
   58.9345   27.2360   45.3608 H   0  0  0  0  0  0  0  0  0  0  0  0
   60.7248   27.3828   45.3608 H   0  0  0  0  0  0  0  0  0  0  0  0
   59.4973   31.2110   50.8225 H   0  0  0  0  0  0  0  0  0  0  0  0
   61.2558   26.9971   52.3046 H   0  0  0  0  0  0  0  0  0  0  0  0
   60.7070   26.0937   50.8523 H   0  0  0  0  0  0  0  0  0  0  0  0
   62.3089   26.9064   50.8523 H   0  0  0  0  0  0  0  0  0  0  0  0
   59.9635   32.9358   48.8554 H   0  0  0  0  0  0  0  0  0  0  0  0
   60.8662   32.0456   47.7134 H   0  0  0  0  0  0  0  0  0  0  0  0
   60.8879   33.8427   45.9010 H   0  0  0  0  0  0  0  0  0  0  0  0
   59.6563   35.1251   44.1458 H   0  0  0  0  0  0  0  0  0  0  0  0
   57.2008   35.0800   44.1682 H   0  0  0  0  0  0  0  0  0  0  0  0
   57.1471   32.5727   47.5689 H   0  0  0  0  0  0  0  0  0  0  0  0
  1  2  1  0
  2  3  1  0
  3  4  1  0
  4  5  1  0
  5  6  1  0
  6  7  1  0
  7  8  1  0
  8  9  1  0
  8 10  2  0
 10 11  1  0
 11 12  2  0
 12 13  1  0
 13 14  2  0
 14 15  1  0
 15 16  1  0
 12 17  1  0
 17 18  2  0
 18 19  1  0
 19 20  1  0
 20 21  2  0
 21 22  1  0
 22 23  2  0
 23 24  1  0
 24 25  2  0
 17  7  1  0
 25 20  1  0
 15 11  1  0
  1 26  1  0
  1 27  1  0
  1 28  1  0
  2 29  1  0
  2 30  1  0
  3 31  1  0
  3 32  1  0
  5 33  1  0
  5 34  1  0
  6 35  1  0
  6 36  1  0
  9 37  1  0
  9 38  1  0
  9 39  1  0
 13 40  1  0
 16 41  1  0
 16 42  1  0
 16 43  1  0
 19 44  1  0
 19 45  1  0
 21 46  1  0
 22 47  1  0
 23 48  1  0
 25 49  1  0
M  END
>  <smiles>  (5) 
CCCOCCn1c(C)nc2c(cnn2C)c1=NCc1cccnc1

>  <score_type>  (5) 
oracle

>  <origin>  (5) 
adg

>  <m_score__min__energy>  (5) 
-6.5899999999999999

>  <m_primary>  (5) 
energy

$$$$
5:0
     RDKit          3D

 43 45  0  0  0  0  0  0  0  0999 V2000
   68.4620   31.6680   52.3820 C   0  0  0  0  0  0  0  0  0  0  0  0
   67.3180   32.0190   51.4850 C   0  0  0  0  0  0  0  0  0  0  0  0
   66.1460   31.3040   51.3500 C   0  0  0  0  0  0  0  0  0  0  0  0
   65.4190   32.0180   50.4110 C   0  0  0  0  0  0  0  0  0  0  0  0
   64.0430   31.6700   49.9020 C   0  0  0  0  0  0  0  0  0  0  0  0
   63.5310   32.6080   48.8710 N   0  0  0  0  0  0  0  0  0  0  0  0
   62.3190   33.3330   49.3380 C   0  0  0  0  0  0  0  0  0  0  0  0
   61.5480   33.9720   48.1780 C   0  0  0  0  0  0  0  0  0  0  0  0
   61.1520   32.9390   47.2100 N   0  0  0  0  0  0  0  0  0  0  0  0
   59.9890   33.1280   46.3720 C   0  0  0  0  0  0  0  0  0  0  0  0
   59.5690   34.4240   46.0110 C   0  0  0  0  0  0  0  0  0  0  0  0
   58.4460   34.6040   45.2000 C   0  0  0  0  0  0  0  0  0  0  0  0
   57.7280   33.4980   44.7390 C   0  0  0  0  0  0  0  0  0  0  0  0
   58.1340   32.2080   45.0890 C   0  0  0  0  0  0  0  0  0  0  0  0
   57.2290   30.8180   44.5130 Cl  0  0  0  0  0  0  0  0  0  0  0  0
   59.2580   32.0220   45.9010 C   0  0  0  0  0  0  0  0  0  0  0  0
   61.9360   31.7000   47.1340 C   0  0  0  0  0  0  0  0  0  0  0  0
   63.3950   31.9730   47.5280 C   0  0  0  0  0  0  0  0  0  0  0  0
   66.1280   33.0890   49.9980 N   0  0  0  0  0  0  0  0  0  0  0  0
   67.2780   33.0790   50.6530 N   0  0  0  0  0  0  0  0  0  0  0  0
   68.3070   34.1000   50.4930 C   0  0  0  0  0  0  0  0  0  0  0  0
   68.1478   31.7644   53.4318 H   0  0  0  0  0  0  0  0  0  0  0  0
   68.7764   30.6321   52.1870 H   0  0  0  0  0  0  0  0  0  0  0  0
   69.3033   32.3493   52.1870 H   0  0  0  0  0  0  0  0  0  0  0  0
   65.8552   30.3788   51.8690 H   0  0  0  0  0  0  0  0  0  0  0  0
   64.0795   30.6610   49.4655 H   0  0  0  0  0  0  0  0  0  0  0  0
   63.3583   31.7325   50.7606 H   0  0  0  0  0  0  0  0  0  0  0  0
   64.2770   33.3380   48.7710 H   0  0  0  0  0  0  0  0  0  0  0  0
   61.6575   32.6223   49.8550 H   0  0  0  0  0  0  0  0  0  0  0  0
   62.6445   34.1381   50.0132 H   0  0  0  0  0  0  0  0  0  0  0  0
   60.6482   34.4697   48.5686 H   0  0  0  0  0  0  0  0  0  0  0  0
   62.1932   34.7088   47.6771 H   0  0  0  0  0  0  0  0  0  0  0  0
   60.1293   35.2997   46.3703 H   0  0  0  0  0  0  0  0  0  0  0  0
   58.1262   35.6195   44.9236 H   0  0  0  0  0  0  0  0  0  0  0  0
   56.8437   33.6427   44.1010 H   0  0  0  0  0  0  0  0  0  0  0  0
   59.5725   31.0037   46.1732 H   0  0  0  0  0  0  0  0  0  0  0  0
   61.5070   30.9554   47.8207 H   0  0  0  0  0  0  0  0  0  0  0  0
   61.9072   31.3187   46.1026 H   0  0  0  0  0  0  0  0  0  0  0  0
   63.9398   31.0174   47.5361 H   0  0  0  0  0  0  0  0  0  0  0  0
   63.8072   32.6768   46.7899 H   0  0  0  0  0  0  0  0  0  0  0  0
   68.6465   34.4368   51.4836 H   0  0  0  0  0  0  0  0  0  0  0  0
   69.1579   33.6791   49.9374 H   0  0  0  0  0  0  0  0  0  0  0  0
   67.8927   34.9542   49.9374 H   0  0  0  0  0  0  0  0  0  0  0  0
  1  2  1  0
  2  3  2  0
  3  4  1  0
  4  5  1  0
  5  6  1  0
  6  7  1  0
  7  8  1  0
  8  9  1  0
  9 10  1  0
 10 11  2  0
 11 12  1  0
 12 13  2  0
 13 14  1  0
 14 15  1  0
 14 16  2  0
  9 17  1  0
 17 18  1  0
  4 19  2  0
 19 20  1  0
 20 21  1  0
 20  2  1  0
 18  6  1  0
 16 10  1  0
  1 22  1  0
  1 23  1  0
  1 24  1  0
  3 25  1  0
  5 26  1  0
  5 27  1  0
  6 28  1  0
  7 29  1  0
  7 30  1  0
  8 31  1  0
  8 32  1  0
 11 33  1  0
 12 34  1  0
 13 35  1  0
 16 36  1  0
 17 37  1  0
 17 38  1  0
 18 39  1  0
 18 40  1  0
 21 41  1  0
 21 42  1  0
 21 43  1  0
M  CHG  1   6   1
M  END
>  <UniqueID>  (6) 
5

>  <SMILES>  (6) 
Cc1cc(C[NH+]2CCN(c3cccc(Cl)c3)CC2)nn1C

>  <Energy>  (6) 
83.39229246933158

>  <Genealogy>  (6) 
Cc1cc(C[NH+]2CCN(c3cccc(Cl)c3)CC2)nn1C (protonated)
Cc1cc(C[NH+]2CCN(c3cccc(Cl)c3)CC2)nn1C (3D coordinates assigned)
Cc1cc(C[NH+]2CCN(c3cccc(Cl)c3)CC2)nn1C (nonaromatic ring conformer: 83.39229246933158 kcal/mol)

>  <smiles>  (6) 
Cc1cc(CN2CCN(c3cccc(Cl)c3)CC2)nn1C

>  <score_type>  (6) 
oracle

>  <origin>  (6) 
adg

>  <m_score__min__energy>  (6) 
-5.7999999999999998

>  <m_primary>  (6) 
energy

$$$$
6:0
     RDKit          3D

 57 59  0  0  0  0  0  0  0  0999 V2000
   59.2820   34.9460   47.7820 C   0  0  0  0  0  0  0  0  0  0  0  0
   59.0860   34.5720   46.3220 C   0  0  0  0  0  0  0  0  0  0  0  0
   58.2020   33.4800   46.2280 O   0  0  0  0  0  0  0  0  0  0  0  0
   58.6860   32.6850   45.2360 N   0  0  0  0  0  0  0  0  0  0  0  0
   57.7870   32.7770   44.0810 C   0  0  0  0  0  0  0  0  0  0  0  0
   57.5060   31.3980   43.4560 C   0  0  0  0  0  0  0  0  0  0  0  0
   56.7200   30.5080   44.4270 C   0  0  0  0  0  0  0  0  0  0  0  0
   57.4350   30.3450   45.6400 O   0  0  0  0  0  0  0  0  0  0  0  0
   57.7320   28.9820   45.8920 C   0  0  0  0  0  0  0  0  0  0  0  0
   58.6030   28.8050   47.1480 C   0  0  0  0  0  0  0  0  0  0  0  0
   59.7990   29.7600   47.2020 C   0  0  0  0  0  0  0  0  0  0  0  0
   59.3890   31.1150   47.5740 N   0  0  0  0  0  0  0  0  0  0  0  0
   60.0730   31.8840   48.5840 C   0  0  0  0  0  0  0  0  0  0  0  0
   59.4570   32.1150   49.8270 C   0  0  0  0  0  0  0  0  0  0  0  0
   58.1400   31.6710   50.0810 C   0  0  0  0  0  0  0  0  0  0  0  0
   57.5150   31.9470   51.2940 C   0  0  0  0  0  0  0  0  0  0  0  0
   58.1730   32.6990   52.2630 C   0  0  0  0  0  0  0  0  0  0  0  0
   59.4780   33.1370   52.0410 C   0  0  0  0  0  0  0  0  0  0  0  0
   60.1620   32.8180   50.8410 C   0  0  0  0  0  0  0  0  0  0  0  0
   61.4770   33.1900   50.6410 N   0  0  0  0  0  0  0  0  0  0  0  0
   62.3030   33.6240   51.7890 C   0  0  0  0  0  0  0  0  0  0  0  0
   62.0170   33.1460   49.3700 C   0  0  0  0  0  0  0  0  0  0  0  0
   63.2380   33.8030   49.0610 C   0  0  0  0  0  0  0  0  0  0  0  0
   63.7830   33.7480   47.7800 C   0  0  0  0  0  0  0  0  0  0  0  0
   63.1150   33.0710   46.7670 C   0  0  0  0  0  0  0  0  0  0  0  0
   61.8860   32.4680   47.0240 C   0  0  0  0  0  0  0  0  0  0  0  0
   61.3290   32.4760   48.3220 C   0  0  0  0  0  0  0  0  0  0  0  0
   58.8668   34.1538   48.4224 H   0  0  0  0  0  0  0  0  0  0  0  0
   60.3560   35.0605   47.9902 H   0  0  0  0  0  0  0  0  0  0  0  0
   58.7650   35.8944   47.9902 H   0  0  0  0  0  0  0  0  0  0  0  0
   58.6662   35.4306   45.7775 H   0  0  0  0  0  0  0  0  0  0  0  0
   60.0558   34.2954   45.8827 H   0  0  0  0  0  0  0  0  0  0  0  0
   58.6870   31.6960   45.5910 H   0  0  0  0  0  0  0  0  0  0  0  0
   56.8343   33.2196   44.4072 H   0  0  0  0  0  0  0  0  0  0  0  0
   58.2764   33.4015   43.3191 H   0  0  0  0  0  0  0  0  0  0  0  0
   56.9194   31.5325   42.5352 H   0  0  0  0  0  0  0  0  0  0  0  0
   58.4665   30.9112   43.2314 H   0  0  0  0  0  0  0  0  0  0  0  0
   55.7473   30.9755   44.6401 H   0  0  0  0  0  0  0  0  0  0  0  0
   56.5729   29.5206   43.9651 H   0  0  0  0  0  0  0  0  0  0  0  0
   56.7892   28.4333   46.0333 H   0  0  0  0  0  0  0  0  0  0  0  0
   58.2941   28.5917   45.0308 H   0  0  0  0  0  0  0  0  0  0  0  0
   57.9759   28.9820   48.0343 H   0  0  0  0  0  0  0  0  0  0  0  0
   59.0069   27.7822   47.1200 H   0  0  0  0  0  0  0  0  0  0  0  0
   60.5197   29.3882   47.9452 H   0  0  0  0  0  0  0  0  0  0  0  0
   60.2532   29.8001   46.2010 H   0  0  0  0  0  0  0  0  0  0  0  0
   58.5770   31.5490   47.0780 H   0  0  0  0  0  0  0  0  0  0  0  0
   57.6015   31.0999   49.3104 H   0  0  0  0  0  0  0  0  0  0  0  0
   56.4997   31.5702   51.4869 H   0  0  0  0  0  0  0  0  0  0  0  0
   57.6628   32.9481   53.2052 H   0  0  0  0  0  0  0  0  0  0  0  0
   59.9848   33.7396   52.8091 H   0  0  0  0  0  0  0  0  0  0  0  0
   61.7953   33.3572   52.7277 H   0  0  0  0  0  0  0  0  0  0  0  0
   63.2817   33.1237   51.7465 H   0  0  0  0  0  0  0  0  0  0  0  0
   62.4462   34.7138   51.7465 H   0  0  0  0  0  0  0  0  0  0  0  0
   63.7627   34.3654   49.8474 H   0  0  0  0  0  0  0  0  0  0  0  0
   64.7436   34.2413   47.5702 H   0  0  0  0  0  0  0  0  0  0  0  0
   63.5570   33.0112   45.7615 H   0  0  0  0  0  0  0  0  0  0  0  0
   61.3409   31.9781   46.2037 H   0  0  0  0  0  0  0  0  0  0  0  0
  1  2  1  0
  2  3  1  0
  3  4  1  0
  4  5  1  0
  5  6  1  0
  6  7  1  0
  7  8  1  0
  8  9  1  0
  9 10  1  0
 10 11  1  0
 11 12  1  0
 12 13  1  0
 13 14  2  0
 14 15  1  0
 15 16  2  0
 16 17  1  0
 17 18  2  0
 18 19  1  0
 19 20  2  0
 20 21  1  0
 20 22  1  0
 22 23  2  0
 23 24  1  0
 24 25  2  0
 25 26  1  0
 26 27  2  0
 27 13  1  0
 19 14  1  0
 27 22  1  0
  1 28  1  0
  1 29  1  0
  1 30  1  0
  2 31  1  0
  2 32  1  0
  4 33  1  0
  5 34  1  0
  5 35  1  0
  6 36  1  0
  6 37  1  0
  7 38  1  0
  7 39  1  0
  9 40  1  0
  9 41  1  0
 10 42  1  0
 10 43  1  0
 11 44  1  0
 11 45  1  0
 12 46  1  0
 15 47  1  0
 16 48  1  0
 17 49  1  0
 18 50  1  0
 21 51  1  0
 21 52  1  0
 21 53  1  0
 23 54  1  0
 24 55  1  0
 25 56  1  0
 26 57  1  0
M  CHG  1  20   1
M  END
>  <UniqueID>  (7) 
6

>  <SMILES>  (7) 
CCONCCCOCCCNc1c2ccccc2[n+](C)c2ccccc12

>  <Energy>  (7) 
76.9136987733116

>  <Genealogy>  (7) 
CCONCCCOCCCNc1c2ccccc2[n+](C)c2ccccc12 (3D coordinates assigned)
CCONCCCOCCCNc1c2ccccc2[n+](C)c2ccccc12 (optimized conformer: 76.9136987733116 kcal/mol)

>  <smiles>  (7) 
CCONCCCOCCCNc1c2ccccc2[n+](C)c2ccccc12

>  <score_type>  (7) 
oracle

>  <origin>  (7) 
adg

>  <m_score__min__energy>  (7) 
-4.6100000000000003

>  <m_primary>  (7) 
energy

$$$$
7:0
     RDKit          3D

 56 59  0  0  0  0  0  0  0  0999 V2000
   63.7540   33.0840   46.7490 C   0  0  0  0  0  0  0  0  0  0  0  0
   62.8500   33.8470   47.7110 C   0  0  0  0  0  0  0  0  0  0  0  0
   62.7330   33.1050   48.9870 N   0  0  0  0  0  0  0  0  0  0  0  0
   63.8840   33.3660   49.8920 C   0  0  0  0  0  0  0  0  0  0  0  0
   65.0260   32.3440   49.7820 C   0  0  0  0  0  0  0  0  0  0  0  0
   61.4010   33.2770   49.6100 C   0  0  0  0  0  0  0  0  0  0  0  0
   60.4020   32.2010   49.1440 C   0  0  0  0  0  0  0  0  0  0  0  0
   60.9530   31.3590   48.0650 N   0  0  0  0  0  0  0  0  0  0  0  0
   59.9750   31.1210   47.0170 C   0  0  0  0  0  0  0  0  0  0  0  0
   59.5820   29.8150   46.6800 C   0  0  0  0  0  0  0  0  0  0  0  0
   58.6950   29.5770   45.6410 C   0  0  0  0  0  0  0  0  0  0  0  0
   58.1760   30.5820   44.8670 N   0  0  0  0  0  0  0  0  0  0  0  0
   57.3470   30.2450   43.6900 C   0  0  0  0  0  0  0  0  0  0  0  0
   55.8820   30.0710   44.0830 C   0  0  0  0  0  0  0  0  0  0  0  0
   58.4580   31.8960   45.2140 C   0  0  0  0  0  0  0  0  0  0  0  0
   57.8420   32.9870   44.5480 C   0  0  0  0  0  0  0  0  0  0  0  0
   58.1570   34.3040   44.8700 C   0  0  0  0  0  0  0  0  0  0  0  0
   59.0830   34.5780   45.8670 C   0  0  0  0  0  0  0  0  0  0  0  0
   59.6880   33.5390   46.5670 C   0  0  0  0  0  0  0  0  0  0  0  0
   59.3850   32.1880   46.2760 C   0  0  0  0  0  0  0  0  0  0  0  0
   58.4740   28.1190   45.5600 C   0  0  0  0  0  0  0  0  0  0  0  0
   57.6310   27.4150   44.7610 N   0  0  0  0  0  0  0  0  0  0  0  0
   57.5510   26.0570   44.8870 C   0  0  0  0  0  0  0  0  0  0  0  0
   58.3240   25.3830   45.8540 C   0  0  0  0  0  0  0  0  0  0  0  0
   59.1770   26.1130   46.6940 C   0  0  0  0  0  0  0  0  0  0  0  0
   59.2300   27.4930   46.5230 C   0  0  0  0  0  0  0  0  0  0  0  0
   59.9570   28.5100   47.2610 C   0  0  0  0  0  0  0  0  0  0  0  0
   60.7400   28.2880   48.2210 O   0  0  0  0  0  0  0  0  0  0  0  0
   64.4714   32.4785   47.3223 H   0  0  0  0  0  0  0  0  0  0  0  0
   63.1421   32.4252   46.1153 H   0  0  0  0  0  0  0  0  0  0  0  0
   64.3007   33.7979   46.1153 H   0  0  0  0  0  0  0  0  0  0  0  0
   63.2797   34.8408   47.9049 H   0  0  0  0  0  0  0  0  0  0  0  0
   61.8518   33.9552   47.2617 H   0  0  0  0  0  0  0  0  0  0  0  0
   64.2891   34.3607   49.6544 H   0  0  0  0  0  0  0  0  0  0  0  0
   63.4970   33.2931   50.9191 H   0  0  0  0  0  0  0  0  0  0  0  0
   65.3539   32.0506   50.7902 H   0  0  0  0  0  0  0  0  0  0  0  0
   64.6719   31.4556   49.2385 H   0  0  0  0  0  0  0  0  0  0  0  0
   65.8698   32.7941   49.2385 H   0  0  0  0  0  0  0  0  0  0  0  0
   61.5091   33.2117   50.7027 H   0  0  0  0  0  0  0  0  0  0  0  0
   61.0085   34.2588   49.3066 H   0  0  0  0  0  0  0  0  0  0  0  0
   60.1483   31.5586   50.0001 H   0  0  0  0  0  0  0  0  0  0  0  0
   59.5119   32.7141   48.7509 H   0  0  0  0  0  0  0  0  0  0  0  0
   61.2750   30.4480   48.4610 H   0  0  0  0  0  0  0  0  0  0  0  0
   61.8240   31.7900   47.6930 H   0  0  0  0  0  0  0  0  0  0  0  0
   57.4270   31.0550   42.9501 H   0  0  0  0  0  0  0  0  0  0  0  0
   57.7104   29.2975   43.2656 H   0  0  0  0  0  0  0  0  0  0  0  0
   55.7953   30.0607   45.1795 H   0  0  0  0  0  0  0  0  0  0  0  0
   55.2917   30.9053   43.6763 H   0  0  0  0  0  0  0  0  0  0  0  0
   55.5035   29.1216   43.6763 H   0  0  0  0  0  0  0  0  0  0  0  0
   57.1000   32.7878   43.7608 H   0  0  0  0  0  0  0  0  0  0  0  0
   57.6702   35.1309   44.3322 H   0  0  0  0  0  0  0  0  0  0  0  0
   59.3396   35.6209   46.1046 H   0  0  0  0  0  0  0  0  0  0  0  0
   60.4140   33.7718   47.3599 H   0  0  0  0  0  0  0  0  0  0  0  0
   56.8790   25.4859   44.2296 H   0  0  0  0  0  0  0  0  0  0  0  0
   58.2584   24.2891   45.9492 H   0  0  0  0  0  0  0  0  0  0  0  0
   59.7839   25.6117   47.4623 H   0  0  0  0  0  0  0  0  0  0  0  0
  1  2  1  0
  2  3  1  0
  3  4  1  0
  4  5  1  0
  3  6  1  0
  6  7  1  0
  7  8  1  0
  8  9  1  0
  9 10  2  0
 10 11  1  0
 11 12  2  0
 12 13  1  0
 13 14  1  0
 12 15  1  0
 15 16  2  0
 16 17  1  0
 17 18  2  0
 18 19  1  0
 19 20  2  0
 11 21  1  0
 21 22  2  0
 22 23  1  0
 23 24  2  0
 24 25  1  0
 25 26  2  0
 26 27  1  0
 27 28  2  0
 20  9  1  0
 26 21  1  0
 27 10  1  0
 20 15  1  0
  1 29  1  0
  1 30  1  0
  1 31  1  0
  2 32  1  0
  2 33  1  0
  4 34  1  0
  4 35  1  0
  5 36  1  0
  5 37  1  0
  5 38  1  0
  6 39  1  0
  6 40  1  0
  7 41  1  0
  7 42  1  0
  8 43  1  0
  8 44  1  0
 13 45  1  0
 13 46  1  0
 14 47  1  0
 14 48  1  0
 14 49  1  0
 16 50  1  0
 17 51  1  0
 18 52  1  0
 19 53  1  0
 23 54  1  0
 24 55  1  0
 25 56  1  0
M  CHG  2   8   1  12   1
M  END
>  <UniqueID>  (8) 
7

>  <SMILES>  (8) 
CCN(CC)CC[NH2+]c1c2c([n+](CC)c3ccccc13)-c1ncccc1C2=O

>  <Energy>  (8) 
111.2542752370164

>  <Genealogy>  (8) 
CCN(CC)CC[NH2+]c1c2c([n+](CC)c3ccccc13)-c1ncccc1C2=O (protonated)
CCN(CC)CC[NH2+]c1c2c([n+](CC)c3ccccc13)-c1ncccc1C2=O (3D coordinates assigned)
CCN(CC)CC[NH2+]c1c2c([n+](CC)c3ccccc13)-c1ncccc1C2=O (nonaromatic ring conformer: 111.2542752370164 kcal/mol)

>  <smiles>  (8) 
CCN(CC)CCNc1c2c([n+](CC)c3ccccc13)-c1ncccc1C2=O

>  <score_type>  (8) 
oracle

>  <origin>  (8) 
adg

>  <m_score__min__energy>  (8) 
-4.8200000000000003

>  <m_primary>  (8) 
energy

$$$$
8:0
     RDKit          3D

 35 36  0  0  0  0  0  0  0  0999 V2000
   55.8990   23.9330   44.7430 C   0  0  0  0  0  0  0  0  0  0  0  0
   56.4600   24.8500   46.2100 S   0  0  0  0  0  0  0  0  0  0  0  0
   57.0670   26.2410   45.2550 C   0  0  0  0  0  0  0  0  0  0  0  0
   57.7900   26.0200   44.0770 C   0  0  0  0  0  0  0  0  0  0  0  0
   58.2700   27.1040   43.3370 C   0  0  0  0  0  0  0  0  0  0  0  0
   58.0180   28.4110   43.7640 C   0  0  0  0  0  0  0  0  0  0  0  0
   57.2690   28.6440   44.9310 C   0  0  0  0  0  0  0  0  0  0  0  0
   57.0240   29.9790   45.4060 N   0  0  0  0  0  0  0  0  0  0  0  0
   57.3600   31.1730   44.6810 C   0  0  0  0  0  0  0  0  0  0  0  0
   57.2080   31.2030   43.0410 S   0  0  0  0  0  0  0  0  0  0  0  0
   57.7750   32.3520   45.4040 N   0  0  0  0  0  0  0  0  0  0  0  0
   57.4920   33.7120   44.9200 C   0  0  0  0  0  0  0  0  0  0  0  0
   58.7900   34.5310   44.8300 C   0  0  0  0  0  0  0  0  0  0  0  0
   59.7850   34.2330   45.9730 C   0  0  0  0  0  0  0  0  0  0  0  0
   59.1300   33.5010   47.1500 C   0  0  0  0  0  0  0  0  0  0  0  0
   58.5000   32.1830   46.6740 C   0  0  0  0  0  0  0  0  0  0  0  0
   56.8120   27.5510   45.6820 C   0  0  0  0  0  0  0  0  0  0  0  0
   55.3493   23.0345   45.0602 H   0  0  0  0  0  0  0  0  0  0  0  0
   55.2380   24.5736   44.1407 H   0  0  0  0  0  0  0  0  0  0  0  0
   56.7703   23.6362   44.1407 H   0  0  0  0  0  0  0  0  0  0  0  0
   57.9805   24.9925   43.7335 H   0  0  0  0  0  0  0  0  0  0  0  0
   58.8470   26.9285   42.4171 H   0  0  0  0  0  0  0  0  0  0  0  0
   58.4074   29.2610   43.1845 H   0  0  0  0  0  0  0  0  0  0  0  0
   56.5440   30.0920   46.3270 H   0  0  0  0  0  0  0  0  0  0  0  0
   57.0310   33.6531   43.9230 H   0  0  0  0  0  0  0  0  0  0  0  0
   56.8072   34.2059   45.6251 H   0  0  0  0  0  0  0  0  0  0  0  0
   59.2806   34.3023   43.8724 H   0  0  0  0  0  0  0  0  0  0  0  0
   58.5105   35.5917   44.9117 H   0  0  0  0  0  0  0  0  0  0  0  0
   60.5984   33.6069   45.5775 H   0  0  0  0  0  0  0  0  0  0  0  0
   60.1599   35.1969   46.3476 H   0  0  0  0  0  0  0  0  0  0  0  0
   59.8928   33.2841   47.9123 H   0  0  0  0  0  0  0  0  0  0  0  0
   58.3429   34.1406   47.5759 H   0  0  0  0  0  0  0  0  0  0  0  0
   59.2968   31.4378   46.5329 H   0  0  0  0  0  0  0  0  0  0  0  0
   57.7805   31.8521   47.4375 H   0  0  0  0  0  0  0  0  0  0  0  0
   56.2500   27.7233   46.6118 H   0  0  0  0  0  0  0  0  0  0  0  0
  1  2  1  0
  2  3  1  0
  3  4  2  0
  4  5  1  0
  5  6  2  0
  6  7  1  0
  7  8  1  0
  8  9  1  0
  9 10  2  0
  9 11  1  0
 11 12  1  0
 12 13  1  0
 13 14  1  0
 14 15  1  0
 15 16  1  0
  7 17  2  0
 17  3  1  0
 16 11  1  0
  1 18  1  0
  1 19  1  0
  1 20  1  0
  4 21  1  0
  5 22  1  0
  6 23  1  0
  8 24  1  0
 12 25  1  0
 12 26  1  0
 13 27  1  0
 13 28  1  0
 14 29  1  0
 14 30  1  0
 15 31  1  0
 15 32  1  0
 16 33  1  0
 16 34  1  0
 17 35  1  0
M  END
>  <UniqueID>  (9) 
8

>  <SMILES>  (9) 
CSc1cccc(NC(=S)N2CCCCC2)c1

>  <Energy>  (9) 
38.61401220610676

>  <Genealogy>  (9) 
CSc1cccc(NC(=S)N2CCCCC2)c1 (3D coordinates assigned)
CSc1cccc(NC(=S)N2CCCCC2)c1 (nonaromatic ring conformer: 38.61401220610676 kcal/mol)

>  <smiles>  (9) 
CSc1cccc(NC(=S)N2CCCCC2)c1

>  <score_type>  (9) 
oracle

>  <origin>  (9) 
adg

>  <m_score__min__energy>  (9) 
-6.8499999999999996

>  <m_primary>  (9) 
energy

$$$$
9:0
     RDKit          3D

 65 66  0  0  0  0  0  0  0  0999 V2000
   63.2490   33.0740   47.1490 C   0  0  0  0  0  0  0  0  0  0  0  0
   61.9510   32.2800   47.1240 C   0  0  0  0  0  0  0  0  0  0  0  0
   61.7270   31.7130   48.4020 O   0  0  0  0  0  0  0  0  0  0  0  0
   62.9370   31.6490   49.1360 C   0  0  0  0  0  0  0  0  0  0  0  0
   62.7020   30.9610   50.4860 C   0  0  0  0  0  0  0  0  0  0  0  0
   61.4080   30.3890   50.5460 O   0  0  0  0  0  0  0  0  0  0  0  0
   61.4230   29.0210   50.1680 C   0  0  0  0  0  0  0  0  0  0  0  0
   60.0440   28.5760   49.6640 C   0  0  0  0  0  0  0  0  0  0  0  0
   59.2130   29.7000   49.3670 O   0  0  0  0  0  0  0  0  0  0  0  0
   58.9880   30.2470   48.0880 C   0  0  0  0  0  0  0  0  0  0  0  0
   59.2100   29.4940   46.9230 C   0  0  0  0  0  0  0  0  0  0  0  0
   58.9550   30.0340   45.6680 C   0  0  0  0  0  0  0  0  0  0  0  0
   58.4820   31.3420   45.5390 C   0  0  0  0  0  0  0  0  0  0  0  0
   58.2220   31.8650   44.2620 C   0  0  0  0  0  0  0  0  0  0  0  0
   57.7530   33.1690   44.1180 C   0  0  0  0  0  0  0  0  0  0  0  0
   57.5400   33.9630   45.2430 C   0  0  0  0  0  0  0  0  0  0  0  0
   57.7930   33.4560   46.5230 C   0  0  0  0  0  0  0  0  0  0  0  0
   58.2670   32.1360   46.6970 C   0  0  0  0  0  0  0  0  0  0  0  0
   58.5230   31.5800   47.9850 C   0  0  0  0  0  0  0  0  0  0  0  0
   58.2980   32.3860   49.2620 C   0  0  0  0  0  0  0  0  0  0  0  0
   59.4660   32.3160   50.1790 N   0  0  1  0  0  0  0  0  0  0  0  0
   60.2460   33.5830   50.1540 C   0  0  0  0  0  0  0  0  0  0  0  0
   60.0120   34.4520   48.9080 C   0  0  0  0  0  0  0  0  0  0  0  0
   59.0420   31.9040   51.5450 C   0  0  0  0  0  0  0  0  0  0  0  0
   57.5110   31.8600   51.7380 C   0  0  0  0  0  0  0  0  0  0  0  0
   56.9730   30.4870   51.6130 N   0  0  0  0  0  0  0  0  0  0  0  0
   57.8070   29.5480   52.3800 C   0  0  0  0  0  0  0  0  0  0  0  0
   55.5830   30.4140   52.0920 C   0  0  0  0  0  0  0  0  0  0  0  0
   63.5472   33.2564   48.1920 H   0  0  0  0  0  0  0  0  0  0  0  0
   64.0377   32.5036   46.6365 H   0  0  0  0  0  0  0  0  0  0  0  0
   63.1003   34.0359   46.6365 H   0  0  0  0  0  0  0  0  0  0  0  0
   61.1160   32.9482   46.8665 H   0  0  0  0  0  0  0  0  0  0  0  0
   62.0217   31.4801   46.3722 H   0  0  0  0  0  0  0  0  0  0  0  0
   63.6806   31.0773   48.5614 H   0  0  0  0  0  0  0  0  0  0  0  0
   63.3037   32.6708   49.3131 H   0  0  0  0  0  0  0  0  0  0  0  0
   63.4523   30.1681   50.6210 H   0  0  0  0  0  0  0  0  0  0  0  0
   62.7893   31.7142   51.2829 H   0  0  0  0  0  0  0  0  0  0  0  0
   62.1627   28.8771   49.3667 H   0  0  0  0  0  0  0  0  0  0  0  0
   61.6868   28.4165   51.0483 H   0  0  0  0  0  0  0  0  0  0  0  0
   60.1726   27.9744   48.7521 H   0  0  0  0  0  0  0  0  0  0  0  0
   59.5592   27.9847   50.4547 H   0  0  0  0  0  0  0  0  0  0  0  0
   59.5901   28.4650   47.0050 H   0  0  0  0  0  0  0  0  0  0  0  0
   59.1273   29.4257   44.7679 H   0  0  0  0  0  0  0  0  0  0  0  0
   58.3894   31.2421   43.3710 H   0  0  0  0  0  0  0  0  0  0  0  0
   57.5506   33.5723   43.1148 H   0  0  0  0  0  0  0  0  0  0  0  0
   57.1715   34.9927   45.1248 H   0  0  0  0  0  0  0  0  0  0  0  0
   57.6209   34.0923   47.4036 H   0  0  0  0  0  0  0  0  0  0  0  0
   58.1216   33.4375   48.9916 H   0  0  0  0  0  0  0  0  0  0  0  0
   57.4300   31.9580   49.7849 H   0  0  0  0  0  0  0  0  0  0  0  0
   60.1140   31.5770   49.8180 H   0  0  0  0  0  0  0  0  0  0  0  0
   59.9712   34.1730   51.0407 H   0  0  0  0  0  0  0  0  0  0  0  0
   61.3078   33.2960   50.1399 H   0  0  0  0  0  0  0  0  0  0  0  0
   59.7376   35.4711   49.2180 H   0  0  0  0  0  0  0  0  0  0  0  0
   60.9327   34.4869   48.3071 H   0  0  0  0  0  0  0  0  0  0  0  0
   59.1982   34.0199   48.3071 H   0  0  0  0  0  0  0  0  0  0  0  0
   59.4453   30.9003   51.7449 H   0  0  0  0  0  0  0  0  0  0  0  0
   59.4301   32.6615   52.2419 H   0  0  0  0  0  0  0  0  0  0  0  0
   57.2685   32.2461   52.7391 H   0  0  0  0  0  0  0  0  0  0  0  0
   57.0526   32.4762   50.9505 H   0  0  0  0  0  0  0  0  0  0  0  0
   57.6558   29.7182   53.4562 H   0  0  0  0  0  0  0  0  0  0  0  0
   57.5228   28.5155   52.1286 H   0  0  0  0  0  0  0  0  0  0  0  0
   58.8658   29.7084   52.1286 H   0  0  0  0  0  0  0  0  0  0  0  0
   55.5738   30.4135   53.1920 H   0  0  0  0  0  0  0  0  0  0  0  0
   55.0212   31.2839   51.7210 H   0  0  0  0  0  0  0  0  0  0  0  0
   55.1154   29.4901   51.7210 H   0  0  0  0  0  0  0  0  0  0  0  0
  1  2  1  0
  2  3  1  0
  3  4  1  0
  4  5  1  0
  5  6  1  0
  6  7  1  0
  7  8  1  0
  8  9  1  0
  9 10  1  0
 10 11  2  0
 11 12  1  0
 12 13  2  0
 13 14  1  0
 14 15  2  0
 15 16  1  0
 16 17  2  0
 17 18  1  0
 18 19  2  0
 19 20  1  0
 20 21  1  0
 21 22  1  0
 22 23  1  0
 21 24  1  0
 24 25  1  0
 25 26  1  0
 26 27  1  0
 26 28  1  0
 19 10  1  0
 18 13  1  0
  1 29  1  0
  1 30  1  0
  1 31  1  0
  2 32  1  0
  2 33  1  0
  4 34  1  0
  4 35  1  0
  5 36  1  0
  5 37  1  0
  7 38  1  0
  7 39  1  0
  8 40  1  0
  8 41  1  0
 11 42  1  0
 12 43  1  0
 14 44  1  0
 15 45  1  0
 16 46  1  0
 17 47  1  0
 20 48  1  0
 20 49  1  0
 21 50  1  6
 22 51  1  0
 22 52  1  0
 23 53  1  0
 23 54  1  0
 23 55  1  0
 24 56  1  0
 24 57  1  0
 25 58  1  0
 25 59  1  0
 27 60  1  0
 27 61  1  0
 27 62  1  0
 28 63  1  0
 28 64  1  0
 28 65  1  0
M  CHG  1  21   1
M  END
>  <UniqueID>  (10) 
9

>  <SMILES>  (10) 
CCOCCOCCOc1ccc2ccccc2c1C[N@@H+](CC)CCN(C)C

>  <Energy>  (10) 
71.0561683786002

>  <Genealogy>  (10) 
CCOCCOCCOc1ccc2ccccc2c1C[NH+](CC)CCN(C)C (protonated)
CCOCCOCCOc1ccc2ccccc2c1C[N@@H+](CC)CCN(C)C (chirality)
CCOCCOCCOc1ccc2ccccc2c1C[N@@H+](CC)CCN(C)C (3D coordinates assigned)
CCOCCOCCOc1ccc2ccccc2c1C[N@@H+](CC)CCN(C)C (optimized conformer: 71.0561683786002 kcal/mol)

>  <smiles>  (10) 
CCOCCOCCOc1ccc2ccccc2c1CN(CC)CCN(C)C

>  <score_type>  (10) 
oracle

>  <origin>  (10) 
adg

>  <m_score__min__energy>  (10) 
-4.6699999999999999

>  <m_primary>  (10) 
energy

$$$$
10:0
     RDKit          3D

 57 60  0  0  0  0  0  0  0  0999 V2000
   59.2910   34.8330   45.4010 C   0  0  0  0  0  0  0  0  0  0  0  0
   58.8470   34.5870   46.8380 C   0  0  0  0  0  0  0  0  0  0  0  0
   59.2590   33.2940   47.2760 O   0  0  0  0  0  0  0  0  0  0  0  0
   59.0780   32.1240   46.5280 C   0  0  0  0  0  0  0  0  0  0  0  0
   58.0020   31.9950   45.7010 N   0  0  0  0  0  0  0  0  0  0  0  0
   57.7950   30.8820   44.9500 C   0  0  0  0  0  0  0  0  0  0  0  0
   56.6750   30.7970   44.1150 C   0  0  0  0  0  0  0  0  0  0  0  0
   56.4670   29.6510   43.3400 C   0  0  0  0  0  0  0  0  0  0  0  0
   57.3750   28.5890   43.3970 C   0  0  0  0  0  0  0  0  0  0  0  0
   58.4970   28.6670   44.2290 C   0  0  0  0  0  0  0  0  0  0  0  0
   58.7120   29.8130   45.0100 C   0  0  0  0  0  0  0  0  0  0  0  0
   59.8250   29.9210   45.8510 C   0  0  0  0  0  0  0  0  0  0  0  0
   60.0180   31.0780   46.6210 C   0  0  0  0  0  0  0  0  0  0  0  0
   61.2330   31.1890   47.5160 C   0  0  0  0  0  0  0  0  0  0  0  0
   61.9980   32.4250   47.2770 N   0  0  0  0  0  0  0  0  0  0  0  0
   63.0360   32.6820   48.2860 C   0  0  0  0  0  0  0  0  0  0  0  0
   62.7940   33.9820   49.0740 C   0  0  0  0  0  0  0  0  0  0  0  0
   61.6670   33.8720   50.1200 C   0  0  0  0  0  0  0  0  0  0  0  0
   60.3730   33.5280   49.5060 N   0  0  0  0  0  0  0  0  0  0  0  0
   59.4570   33.0620   50.5180 C   0  0  0  0  0  0  0  0  0  0  0  0
   59.2120   33.8370   51.6690 C   0  0  0  0  0  0  0  0  0  0  0  0
   58.3420   33.3730   52.6620 C   0  0  0  0  0  0  0  0  0  0  0  0
   57.7170   32.1330   52.5170 C   0  0  0  0  0  0  0  0  0  0  0  0
   57.9870   31.3370   51.3960 C   0  0  0  0  0  0  0  0  0  0  0  0
   58.8430   31.8020   50.3940 C   0  0  0  0  0  0  0  0  0  0  0  0
   57.3910   30.0760   51.2990 O   0  0  0  0  0  0  0  0  0  0  0  0
   56.7460   29.4760   52.4260 C   0  0  0  0  0  0  0  0  0  0  0  0
   55.9810   30.5380   53.2250 C   0  0  0  0  0  0  0  0  0  0  0  0
   56.8210   31.6650   53.4840 O   0  0  0  0  0  0  0  0  0  0  0  0
   60.2532   35.3661   45.4007 H   0  0  0  0  0  0  0  0  0  0  0  0
   59.4054   33.8696   44.8826 H   0  0  0  0  0  0  0  0  0  0  0  0
   58.5349   35.4408   44.8826 H   0  0  0  0  0  0  0  0  0  0  0  0
   59.2961   35.3500   47.4908 H   0  0  0  0  0  0  0  0  0  0  0  0
   57.7495   34.6444   46.8849 H   0  0  0  0  0  0  0  0  0  0  0  0
   55.9588   31.6306   44.0681 H   0  0  0  0  0  0  0  0  0  0  0  0
   55.5866   29.5851   42.6838 H   0  0  0  0  0  0  0  0  0  0  0  0
   57.2066   27.6899   42.7860 H   0  0  0  0  0  0  0  0  0  0  0  0
   59.2102   27.8306   44.2710 H   0  0  0  0  0  0  0  0  0  0  0  0
   60.5508   29.0965   45.9087 H   0  0  0  0  0  0  0  0  0  0  0  0
   60.9011   31.1766   48.5647 H   0  0  0  0  0  0  0  0  0  0  0  0
   61.8931   30.3383   47.2909 H   0  0  0  0  0  0  0  0  0  0  0  0
   61.3350   33.2350   47.2650 H   0  0  0  0  0  0  0  0  0  0  0  0
   63.0539   31.8402   48.9939 H   0  0  0  0  0  0  0  0  0  0  0  0
   63.9936   32.7900   47.7555 H   0  0  0  0  0  0  0  0  0  0  0  0
   63.7252   34.2514   49.5939 H   0  0  0  0  0  0  0  0  0  0  0  0
   62.4835   34.7460   48.3461 H   0  0  0  0  0  0  0  0  0  0  0  0
   61.9332   33.0910   50.8475 H   0  0  0  0  0  0  0  0  0  0  0  0
   61.5606   34.8522   50.6078 H   0  0  0  0  0  0  0  0  0  0  0  0
   60.4970   32.7780   48.7890 H   0  0  0  0  0  0  0  0  0  0  0  0
   59.9710   34.3690   49.0280 H   0  0  0  0  0  0  0  0  0  0  0  0
   59.7073   34.8120   51.7876 H   0  0  0  0  0  0  0  0  0  0  0  0
   58.1507   33.9847   53.5560 H   0  0  0  0  0  0  0  0  0  0  0  0
   59.0372   31.1818   49.5065 H   0  0  0  0  0  0  0  0  0  0  0  0
   56.0414   28.7077   52.0750 H   0  0  0  0  0  0  0  0  0  0  0  0
   57.5078   29.0184   53.0743 H   0  0  0  0  0  0  0  0  0  0  0  0
   55.1037   30.8645   52.6473 H   0  0  0  0  0  0  0  0  0  0  0  0
   55.6608   30.1029   54.1832 H   0  0  0  0  0  0  0  0  0  0  0  0
  1  2  1  0
  2  3  1  0
  3  4  1  0
  4  5  2  0
  5  6  1  0
  6  7  2  0
  7  8  1  0
  8  9  2  0
  9 10  1  0
 10 11  2  0
 11 12  1  0
 12 13  2  0
 13 14  1  0
 14 15  1  0
 15 16  1  0
 16 17  1  0
 17 18  1  0
 18 19  1  0
 19 20  1  0
 20 21  2  0
 21 22  1  0
 22 23  2  0
 23 24  1  0
 24 25  2  0
 24 26  1  0
 26 27  1  0
 27 28  1  0
 28 29  1  0
 13  4  1  0
 25 20  1  0
 11  6  1  0
 29 23  1  0
  1 30  1  0
  1 31  1  0
  1 32  1  0
  2 33  1  0
  2 34  1  0
  7 35  1  0
  8 36  1  0
  9 37  1  0
 10 38  1  0
 12 39  1  0
 14 40  1  0
 14 41  1  0
 15 42  1  0
 16 43  1  0
 16 44  1  0
 17 45  1  0
 17 46  1  0
 18 47  1  0
 18 48  1  0
 19 49  1  0
 19 50  1  0
 21 51  1  0
 22 52  1  0
 25 53  1  0
 27 54  1  0
 27 55  1  0
 28 56  1  0
 28 57  1  0
M  CHG  1  19   1
M  END
>  <UniqueID>  (11) 
10

>  <SMILES>  (11) 
CCOc1nc2ccccc2cc1CNCCC[NH2+]c1ccc2c(c1)OCCO2

>  <Energy>  (11) 
59.795816356036894

>  <Genealogy>  (11) 
CCOc1nc2ccccc2cc1CNCCC[NH2+]c1ccc2c(c1)OCCO2 (protonated)
CCOc1nc2ccccc2cc1CNCCC[NH2+]c1ccc2c(c1)OCCO2 (3D coordinates assigned)
CCOc1nc2ccccc2cc1CNCCC[NH2+]c1ccc2c(c1)OCCO2 (nonaromatic ring conformer: 59.795816356036894 kcal/mol)

>  <smiles>  (11) 
CCOc1nc2ccccc2cc1CNCCCNc1ccc2c(c1)OCCO2

>  <score_type>  (11) 
oracle

>  <origin>  (11) 
adg

>  <m_score__min__energy>  (11) 
-5.9100000000000001

>  <m_primary>  (11) 
energy

$$$$
11:0
     RDKit          3D

 46 47  0  0  0  0  0  0  0  0999 V2000
   57.4110   31.2350   43.4970 C   0  0  0  0  0  0  0  0  0  0  0  0
   57.8320   32.6960   43.6300 C   0  0  0  0  0  0  0  0  0  0  0  0
   58.3520   32.9750   44.9850 N   0  0  0  0  0  0  0  0  0  0  0  0
   57.7980   32.0600   46.0090 C   0  0  0  0  0  0  0  0  0  0  0  0
   58.8230   31.0580   46.5600 C   0  0  0  0  0  0  0  0  0  0  0  0
   58.2550   34.4030   45.3750 C   0  0  0  0  0  0  0  0  0  0  0  0
   59.6190   34.9070   45.8530 C   0  0  0  0  0  0  0  0  0  0  0  0
   60.5690   33.7990   45.9690 N   0  0  0  0  0  0  0  0  0  0  0  0
   61.5010   33.6570   47.0590 C   0  0  0  0  0  0  0  0  0  0  0  0
   62.8750   33.6600   46.8040 C   0  0  0  0  0  0  0  0  0  0  0  0
   63.7840   33.5870   47.8510 C   0  0  0  0  0  0  0  0  0  0  0  0
   63.3690   33.5030   49.1520 N   0  0  0  0  0  0  0  0  0  0  0  0
   64.4220   33.4310   50.1860 C   0  0  0  0  0  0  0  0  0  0  0  0
   65.4460   32.3530   49.8420 C   0  0  0  0  0  0  0  0  0  0  0  0
   62.0190   33.5150   49.4520 C   0  0  0  0  0  0  0  0  0  0  0  0
   61.5510   33.4710   50.7890 C   0  0  0  0  0  0  0  0  0  0  0  0
   60.1840   33.4490   51.0720 C   0  0  0  0  0  0  0  0  0  0  0  0
   59.6340   33.3900   52.7370 Cl  0  0  0  0  0  0  0  0  0  0  0  0
   59.2550   33.4620   50.0370 C   0  0  0  0  0  0  0  0  0  0  0  0
   59.6820   33.5200   48.7130 C   0  0  0  0  0  0  0  0  0  0  0  0
   61.0570   33.5730   48.3980 C   0  0  0  0  0  0  0  0  0  0  0  0
   57.2848   30.7972   44.4982 H   0  0  0  0  0  0  0  0  0  0  0  0
   56.4593   31.1761   42.9485 H   0  0  0  0  0  0  0  0  0  0  0  0
   58.1854   30.6787   42.9485 H   0  0  0  0  0  0  0  0  0  0  0  0
   58.6177   32.9128   42.8913 H   0  0  0  0  0  0  0  0  0  0  0  0
   56.9521   33.3322   43.4539 H   0  0  0  0  0  0  0  0  0  0  0  0
   57.4184   32.6644   46.8460 H   0  0  0  0  0  0  0  0  0  0  0  0
   57.0051   31.4739   45.5215 H   0  0  0  0  0  0  0  0  0  0  0  0
   58.8016   31.0789   47.6596 H   0  0  0  0  0  0  0  0  0  0  0  0
   58.5730   30.0464   46.2075 H   0  0  0  0  0  0  0  0  0  0  0  0
   59.8286   31.3309   46.2075 H   0  0  0  0  0  0  0  0  0  0  0  0
   57.9304   34.9966   44.5077 H   0  0  0  0  0  0  0  0  0  0  0  0
   57.5247   34.5064   46.1911 H   0  0  0  0  0  0  0  0  0  0  0  0
   60.0063   35.6405   45.1305 H   0  0  0  0  0  0  0  0  0  0  0  0
   59.4969   35.3729   46.8419 H   0  0  0  0  0  0  0  0  0  0  0  0
   60.5050   33.0430   45.2510 H   0  0  0  0  0  0  0  0  0  0  0  0
   63.2386   33.7206   45.7676 H   0  0  0  0  0  0  0  0  0  0  0  0
   64.8614   33.5969   47.6296 H   0  0  0  0  0  0  0  0  0  0  0  0
   64.9307   34.4041   50.2511 H   0  0  0  0  0  0  0  0  0  0  0  0
   63.9541   33.1786   51.1490 H   0  0  0  0  0  0  0  0  0  0  0  0
   65.8530   31.9245   50.7697 H   0  0  0  0  0  0  0  0  0  0  0  0
   64.9603   31.5602   49.2541 H   0  0  0  0  0  0  0  0  0  0  0  0
   66.2627   32.7973   49.2541 H   0  0  0  0  0  0  0  0  0  0  0  0
   62.2758   33.4539   51.6163 H   0  0  0  0  0  0  0  0  0  0  0  0
   58.1795   33.4264   50.2651 H   0  0  0  0  0  0  0  0  0  0  0  0
   58.9385   33.5246   47.9023 H   0  0  0  0  0  0  0  0  0  0  0  0
  1  2  1  0
  2  3  1  0
  3  4  1  0
  4  5  1  0
  3  6  1  0
  6  7  1  0
  7  8  1  0
  8  9  1  0
  9 10  2  0
 10 11  1  0
 11 12  2  0
 12 13  1  0
 13 14  1  0
 12 15  1  0
 15 16  2  0
 16 17  1  0
 17 18  1  0
 17 19  2  0
 19 20  1  0
 20 21  2  0
 21  9  1  0
 21 15  1  0
  1 22  1  0
  1 23  1  0
  1 24  1  0
  2 25  1  0
  2 26  1  0
  4 27  1  0
  4 28  1  0
  5 29  1  0
  5 30  1  0
  5 31  1  0
  6 32  1  0
  6 33  1  0
  7 34  1  0
  7 35  1  0
  8 36  1  0
 10 37  1  0
 11 38  1  0
 13 39  1  0
 13 40  1  0
 14 41  1  0
 14 42  1  0
 14 43  1  0
 16 44  1  0
 19 45  1  0
 20 46  1  0
M  CHG  1  12   1
M  END
>  <UniqueID>  (12) 
11

>  <SMILES>  (12) 
CCN(CC)CCNc1cc[n+](CC)c2cc(Cl)ccc12

>  <Energy>  (12) 
54.72592557523074

>  <Genealogy>  (12) 
CCN(CC)CCNc1cc[n+](CC)c2cc(Cl)ccc12 (3D coordinates assigned)
CCN(CC)CCNc1cc[n+](CC)c2cc(Cl)ccc12 (optimized conformer: 54.72592557523074 kcal/mol)

>  <smiles>  (12) 
CCN(CC)CCNc1cc[n+](CC)c2cc(Cl)ccc12

>  <score_type>  (12) 
oracle

>  <origin>  (12) 
adg

>  <m_score__min__energy>  (12) 
-5.0499999999999998

>  <m_primary>  (12) 
energy

$$$$
12:0
     RDKit          3D

 87 89  0  0  0  0  0  0  0  0999 V2000
   62.1500   29.1430   51.9290 C   0  0  0  0  0  0  0  0  0  0  0  0
   61.6640   30.5750   51.7720 C   0  0  0  0  0  0  0  0  0  0  0  0
   62.1330   31.0920   50.5450 O   0  0  0  0  0  0  0  0  0  0  0  0
   63.5410   31.0110   50.4980 C   0  0  0  0  0  0  0  0  0  0  0  0
   64.0670   31.9720   49.4340 C   0  0  0  0  0  0  0  0  0  0  0  0
   62.9380   32.4720   48.6030 N   0  0  0  0  0  0  0  0  0  0  0  0
   63.2640   32.4170   47.1570 C   0  0  0  0  0  0  0  0  0  0  0  0
   63.3380   33.8230   46.5680 C   0  0  0  0  0  0  0  0  0  0  0  0
   62.5250   33.8440   48.9830 C   0  0  0  0  0  0  0  0  0  0  0  0
   62.9770   34.2020   50.4100 C   0  0  0  0  0  0  0  0  0  0  0  0
   62.0300   33.7830   51.3760 O   0  0  0  0  0  0  0  0  0  0  0  0
   62.6250   33.5800   52.6490 C   0  0  0  0  0  0  0  0  0  0  0  0
   61.6460   33.8250   53.8100 C   0  0  0  0  0  0  0  0  0  0  0  0
   60.2530   33.2240   53.5570 C   0  0  0  0  0  0  0  0  0  0  0  0
   59.2990   34.2630   52.9460 C   0  0  0  0  0  0  0  0  0  0  0  0
   58.4740   33.6710   51.8680 N   0  0  0  0  0  0  0  0  0  0  0  0
   59.3180   33.0450   50.8180 C   0  0  0  0  0  0  0  0  0  0  0  0
   58.5110   32.0570   49.9640 C   0  0  0  0  0  0  0  0  0  0  0  0
   57.9300   30.9510   50.7700 N   0  0  0  0  0  0  0  0  0  0  0  0
   58.6610   29.6790   50.5810 C   0  0  0  0  0  0  0  0  0  0  0  0
   59.0170   29.4340   49.1050 C   0  0  0  0  0  0  0  0  0  0  0  0
   60.5380   29.4920   48.8610 C   0  0  0  0  0  0  0  0  0  0  0  0
   60.9450   30.7250   48.1660 N   0  0  0  0  0  0  0  0  0  0  0  0
   60.0830   31.0240   47.0440 C   0  0  0  0  0  0  0  0  0  0  0  0
   59.6550   29.9880   46.1950 C   0  0  0  0  0  0  0  0  0  0  0  0
   58.8080   30.2530   45.1020 C   0  0  0  0  0  0  0  0  0  0  0  0
   58.3610   29.2420   44.2370 O   0  0  0  0  0  0  0  0  0  0  0  0
   57.1640   29.3090   43.4690 C   0  0  0  0  0  0  0  0  0  0  0  0
   58.3920   31.5640   44.8560 C   0  0  0  0  0  0  0  0  0  0  0  0
   58.8170   32.6120   45.6810 C   0  0  0  0  0  0  0  0  0  0  0  0
   58.4130   33.9320   45.4370 C   0  0  0  0  0  0  0  0  0  0  0  0
   58.8520   34.9600   46.2730 C   0  0  0  0  0  0  0  0  0  0  0  0
   59.6870   34.6590   47.3490 C   0  0  0  0  0  0  0  0  0  0  0  0
   60.0710   33.3740   47.5760 N   0  0  0  0  0  0  0  0  0  0  0  0
   59.6640   32.3460   46.7810 C   0  0  0  0  0  0  0  0  0  0  0  0
   57.7680   31.2890   52.2050 C   0  0  0  0  0  0  0  0  0  0  0  0
   57.4170   32.7700   52.3920 C   0  0  0  0  0  0  0  0  0  0  0  0
   62.2328   28.8991   52.9984 H   0  0  0  0  0  0  0  0  0  0  0  0
   61.4339   28.4583   51.4511 H   0  0  0  0  0  0  0  0  0  0  0  0
   63.1349   29.0356   51.4511 H   0  0  0  0  0  0  0  0  0  0  0  0
   60.5642   30.5936   51.7829 H   0  0  0  0  0  0  0  0  0  0  0  0
   62.0458   31.1881   52.6017 H   0  0  0  0  0  0  0  0  0  0  0  0
   63.9577   31.2847   51.4785 H   0  0  0  0  0  0  0  0  0  0  0  0
   63.8427   29.9832   50.2475 H   0  0  0  0  0  0  0  0  0  0  0  0
   64.5643   32.8222   49.9237 H   0  0  0  0  0  0  0  0  0  0  0  0
   64.7850   31.4429   48.7902 H   0  0  0  0  0  0  0  0  0  0  0  0
   64.2354   31.9181   47.0243 H   0  0  0  0  0  0  0  0  0  0  0  0
   62.4734   31.8563   46.6368 H   0  0  0  0  0  0  0  0  0  0  0  0
   63.3768   34.5605   47.3832 H   0  0  0  0  0  0  0  0  0  0  0  0
   64.2422   33.9137   45.9481 H   0  0  0  0  0  0  0  0  0  0  0  0
   62.4484   34.0082   45.9481 H   0  0  0  0  0  0  0  0  0  0  0  0
   62.9733   34.5591   48.2775 H   0  0  0  0  0  0  0  0  0  0  0  0
   61.4265   33.8921   48.9500 H   0  0  0  0  0  0  0  0  0  0  0  0
   63.9384   33.7082   50.6146 H   0  0  0  0  0  0  0  0  0  0  0  0
   63.0759   35.2956   50.4760 H   0  0  0  0  0  0  0  0  0  0  0  0
   62.9863   32.5426   52.7068 H   0  0  0  0  0  0  0  0  0  0  0  0
   63.4467   34.3043   52.7500 H   0  0  0  0  0  0  0  0  0  0  0  0
   62.0629   33.3724   54.7218 H   0  0  0  0  0  0  0  0  0  0  0  0
   61.5218   34.9132   53.9122 H   0  0  0  0  0  0  0  0  0  0  0  0
   60.3495   32.3750   52.8642 H   0  0  0  0  0  0  0  0  0  0  0  0
   59.8367   32.8947   54.5205 H   0  0  0  0  0  0  0  0  0  0  0  0
   58.6353   34.6469   53.7347 H   0  0  0  0  0  0  0  0  0  0  0  0
   59.9023   35.0750   52.5140 H   0  0  0  0  0  0  0  0  0  0  0  0
   59.7220   33.8338   50.1665 H   0  0  0  0  0  0  0  0  0  0  0  0
   60.1303   32.4916   51.3119 H   0  0  0  0  0  0  0  0  0  0  0  0
   57.6924   32.6027   49.4719 H   0  0  0  0  0  0  0  0  0  0  0  0
   59.1980   31.6107   49.2299 H   0  0  0  0  0  0  0  0  0  0  0  0
   59.5896   29.7120   51.1697 H   0  0  0  0  0  0  0  0  0  0  0  0
   58.0082   28.8587   50.9141 H   0  0  0  0  0  0  0  0  0  0  0  0
   58.6476   28.4405   48.8107 H   0  0  0  0  0  0  0  0  0  0  0  0
   58.5460   30.2270   48.5055 H   0  0  0  0  0  0  0  0  0  0  0  0
   61.0541   29.4458   49.8313 H   0  0  0  0  0  0  0  0  0  0  0  0
   60.8094   28.6393   48.2212 H   0  0  0  0  0  0  0  0  0  0  0  0
   61.9260   30.6120   47.8240 H   0  0  0  0  0  0  0  0  0  0  0  0
   60.9600   31.5230   48.8430 H   0  0  0  0  0  0  0  0  0  0  0  0
   59.9863   28.9569   46.3873 H   0  0  0  0  0  0  0  0  0  0  0  0
   56.2972   29.3575   44.1445 H   0  0  0  0  0  0  0  0  0  0  0  0
   57.1852   30.2074   42.8346 H   0  0  0  0  0  0  0  0  0  0  0  0
   57.0848   28.4139   42.8346 H   0  0  0  0  0  0  0  0  0  0  0  0
   57.7250   31.7743   44.0070 H   0  0  0  0  0  0  0  0  0  0  0  0
   57.7510   34.1573   44.5879 H   0  0  0  0  0  0  0  0  0  0  0  0
   58.5421   35.9986   46.0849 H   0  0  0  0  0  0  0  0  0  0  0  0
   60.0355   35.4621   48.0150 H   0  0  0  0  0  0  0  0  0  0  0  0
   56.9614   30.6732   52.6294 H   0  0  0  0  0  0  0  0  0  0  0  0
   58.7203   31.0902   52.7183 H   0  0  0  0  0  0  0  0  0  0  0  0
   56.4774   32.9805   51.8602 H   0  0  0  0  0  0  0  0  0  0  0  0
   57.3193   32.9586   53.4713 H   0  0  0  0  0  0  0  0  0  0  0  0
  1  2  1  0
  2  3  1  0
  3  4  1  0
  4  5  1  0
  5  6  1  0
  6  7  1  0
  7  8  1  0
  6  9  1  0
  9 10  1  0
 10 11  1  0
 11 12  1  0
 12 13  1  0
 13 14  1  0
 14 15  1  0
 15 16  1  0
 16 17  1  0
 17 18  1  0
 18 19  1  0
 19 20  1  0
 20 21  1  0
 21 22  1  0
 22 23  1  0
 23 24  1  0
 24 25  2  0
 25 26  1  0
 26 27  1  0
 27 28  1  0
 26 29  2  0
 29 30  1  0
 30 31  2  0
 31 32  1  0
 32 33  2  0
 33 34  1  0
 34 35  2  0
 19 36  1  0
 36 37  1  0
 37 16  1  0
 35 24  1  0
 35 30  1  0
  1 38  1  0
  1 39  1  0
  1 40  1  0
  2 41  1  0
  2 42  1  0
  4 43  1  0
  4 44  1  0
  5 45  1  0
  5 46  1  0
  7 47  1  0
  7 48  1  0
  8 49  1  0
  8 50  1  0
  8 51  1  0
  9 52  1  0
  9 53  1  0
 10 54  1  0
 10 55  1  0
 12 56  1  0
 12 57  1  0
 13 58  1  0
 13 59  1  0
 14 60  1  0
 14 61  1  0
 15 62  1  0
 15 63  1  0
 17 64  1  0
 17 65  1  0
 18 66  1  0
 18 67  1  0
 20 68  1  0
 20 69  1  0
 21 70  1  0
 21 71  1  0
 22 72  1  0
 22 73  1  0
 23 74  1  0
 23 75  1  0
 25 76  1  0
 28 77  1  0
 28 78  1  0
 28 79  1  0
 29 80  1  0
 31 81  1  0
 32 82  1  0
 33 83  1  0
 36 84  1  0
 36 85  1  0
 37 86  1  0
 37 87  1  0
M  CHG  1  23   1
M  END
>  <UniqueID>  (13) 
12

>  <SMILES>  (13) 
CCOCCN(CC)CCOCCCCN1CCN(CCC[NH2+]c2cc(OC)cc3cccnc23)CC1

>  <Energy>  (13) 
99.29625986030634

>  <Genealogy>  (13) 
CCOCCN(CC)CCOCCCCN1CCN(CCC[NH2+]c2cc(OC)cc3cccnc23)CC1 (protonated)
CCOCCN(CC)CCOCCCCN1CCN(CCC[NH2+]c2cc(OC)cc3cccnc23)CC1 (3D coordinates assigned)
CCOCCN(CC)CCOCCCCN1CCN(CCC[NH2+]c2cc(OC)cc3cccnc23)CC1 (nonaromatic ring conformer: 99.29625986030634 kcal/mol)

>  <smiles>  (13) 
CCOCCN(CC)CCOCCCCN1CCN(CCCNc2cc(OC)cc3cccnc23)CC1

>  <score_type>  (13) 
oracle

>  <origin>  (13) 
adg

>  <m_score__min__energy>  (13) 
-6.6600000000000001

>  <m_primary>  (13) 
energy

$$$$
13:0
     RDKit          3D

 40 41  0  0  0  0  0  0  0  0999 V2000
   55.7830   24.3770   46.4900 C   0  0  0  0  0  0  0  0  0  0  0  0
   54.9040   25.3070   45.6680 C   0  0  0  0  0  0  0  0  0  0  0  0
   55.2300   26.6950   45.9890 N   0  0  0  0  0  0  0  0  0  0  0  0
   56.9220   26.9800   45.7190 S   0  0  0  0  0  0  0  0  0  0  0  0
   57.4090   26.0600   44.6340 O   0  0  0  0  0  0  0  0  0  0  0  0
   57.6940   26.6850   46.9740 O   0  0  0  0  0  0  0  0  0  0  0  0
   57.1870   28.6490   45.2180 C   0  0  0  0  0  0  0  0  0  0  0  0
   56.2390   29.2920   44.4120 C   0  0  0  0  0  0  0  0  0  0  0  0
   56.4310   30.6200   44.0220 C   0  0  0  0  0  0  0  0  0  0  0  0
   57.5750   31.3220   44.4370 C   0  0  0  0  0  0  0  0  0  0  0  0
   57.7960   32.7520   44.0050 C   0  0  0  0  0  0  0  0  0  0  0  0
   57.2580   33.7200   44.9770 N   0  0  0  0  0  0  0  0  0  0  0  0
   58.2940   34.5930   45.5490 C   0  0  0  0  0  0  0  0  0  0  0  0
   58.7590   34.0670   46.8810 C   0  0  0  0  0  0  0  0  0  0  0  0
   59.7780   34.7240   47.5880 C   0  0  0  0  0  0  0  0  0  0  0  0
   60.1850   34.2260   48.8270 C   0  0  0  0  0  0  0  0  0  0  0  0
   59.5780   33.0850   49.3480 C   0  0  0  0  0  0  0  0  0  0  0  0
   58.5690   32.4530   48.6190 C   0  0  0  0  0  0  0  0  0  0  0  0
   58.1810   32.9500   47.4130 N   0  0  0  0  0  0  0  0  0  0  0  0
   58.5200   30.6760   45.2500 C   0  0  0  0  0  0  0  0  0  0  0  0
   58.3260   29.3470   45.6400 C   0  0  0  0  0  0  0  0  0  0  0  0
   55.6099   24.5601   47.5607 H   0  0  0  0  0  0  0  0  0  0  0  0
   55.5347   23.3322   46.2519 H   0  0  0  0  0  0  0  0  0  0  0  0
   56.8401   24.5661   46.2519 H   0  0  0  0  0  0  0  0  0  0  0  0
   55.0804   25.1271   44.5972 H   0  0  0  0  0  0  0  0  0  0  0  0
   53.8466   25.1149   45.9026 H   0  0  0  0  0  0  0  0  0  0  0  0
   55.3398   28.7494   44.0847 H   0  0  0  0  0  0  0  0  0  0  0  0
   55.6832   31.1179   43.3873 H   0  0  0  0  0  0  0  0  0  0  0  0
   58.8767   32.9251   43.8947 H   0  0  0  0  0  0  0  0  0  0  0  0
   57.2656   32.9014   43.0529 H   0  0  0  0  0  0  0  0  0  0  0  0
   56.7910   33.2020   45.7580 H   0  0  0  0  0  0  0  0  0  0  0  0
   59.1500   34.6368   44.8595 H   0  0  0  0  0  0  0  0  0  0  0  0
   57.8688   35.5970   45.6947 H   0  0  0  0  0  0  0  0  0  0  0  0
   60.2520   35.6240   47.1692 H   0  0  0  0  0  0  0  0  0  0  0  0
   60.9824   34.7327   49.3903 H   0  0  0  0  0  0  0  0  0  0  0  0
   59.8908   32.6861   50.3242 H   0  0  0  0  0  0  0  0  0  0  0  0
   58.0859   31.5501   49.0208 H   0  0  0  0  0  0  0  0  0  0  0  0
   57.4210   32.4590   46.8890 H   0  0  0  0  0  0  0  0  0  0  0  0
   59.4177   31.2181   45.5820 H   0  0  0  0  0  0  0  0  0  0  0  0
   59.0694   28.8487   46.2795 H   0  0  0  0  0  0  0  0  0  0  0  0
  1  2  1  0
  2  3  1  0
  3  4  1  0
  4  5  2  0
  4  6  2  0
  4  7  1  0
  7  8  2  0
  8  9  1  0
  9 10  2  0
 10 11  1  0
 11 12  1  0
 12 13  1  0
 13 14  1  0
 14 15  2  0
 15 16  1  0
 16 17  2  0
 17 18  1  0
 18 19  2  0
 10 20  1  0
 20 21  2  0
 21  7  1  0
 19 14  1  0
  1 22  1  0
  1 23  1  0
  1 24  1  0
  2 25  1  0
  2 26  1  0
  8 27  1  0
  9 28  1  0
 11 29  1  0
 11 30  1  0
 12 31  1  0
 13 32  1  0
 13 33  1  0
 15 34  1  0
 16 35  1  0
 17 36  1  0
 18 37  1  0
 19 38  1  0
 20 39  1  0
 21 40  1  0
M  CHG  2   3  -1  19   1
M  END
>  <UniqueID>  (14) 
13

>  <SMILES>  (14) 
CC[N-]S(=O)(=O)c1ccc(CNCc2cccc[nH+]2)cc1

>  <Energy>  (14) 
34.693293714635466

>  <Genealogy>  (14) 
CC[N-]S(=O)(=O)c1ccc(CNCc2cccc[nH+]2)cc1 (protonated)
CC[N-]S(=O)(=O)c1ccc(CNCc2cccc[nH+]2)cc1 (3D coordinates assigned)
CC[N-]S(=O)(=O)c1ccc(CNCc2cccc[nH+]2)cc1 (optimized conformer: 34.693293714635466 kcal/mol)

>  <smiles>  (14) 
CCNS(=O)(=O)c1ccc(CNCc2ccccn2)cc1

>  <score_type>  (14) 
oracle

>  <origin>  (14) 
adg

>  <m_score__min__energy>  (14) 
-7.2400000000000002

>  <m_primary>  (14) 
energy

$$$$
14:0
     RDKit          3D

 32 33  0  0  0  0  0  0  0  0999 V2000
   60.4870   27.9090   47.9430 C   0  0  0  0  0  0  0  0  0  0  0  0
   59.0700   28.1010   48.4730 C   0  0  0  0  0  0  0  0  0  0  0  0
   58.2190   28.6380   47.4610 O   0  0  0  0  0  0  0  0  0  0  0  0
   58.3320   29.9120   46.8760 C   0  0  0  0  0  0  0  0  0  0  0  0
   59.0030   30.9710   47.5230 C   0  0  0  0  0  0  0  0  0  0  0  0
   59.0850   32.2300   46.9250 C   0  0  0  0  0  0  0  0  0  0  0  0
   58.4990   32.4530   45.6790 C   0  0  0  0  0  0  0  0  0  0  0  0
   58.6040   34.1800   44.8690 Br  0  0  0  0  0  0  0  0  0  0  0  0
   57.8370   31.4140   45.0250 C   0  0  0  0  0  0  0  0  0  0  0  0
   57.7620   30.1380   45.6050 C   0  0  0  0  0  0  0  0  0  0  0  0
   56.9050   28.8610   44.7250 S   0  0  0  0  0  0  0  0  0  0  0  0
   55.4170   28.9840   44.8980 O   0  0  0  0  0  0  0  0  0  0  0  0
   57.2450   29.0060   43.2690 O   0  0  0  0  0  0  0  0  0  0  0  0
   57.3890   27.2710   45.3320 C   0  0  0  0  0  0  0  0  0  0  0  0
   58.7420   26.9060   45.2760 C   0  0  0  0  0  0  0  0  0  0  0  0
   59.1410   25.6590   45.7530 C   0  0  0  0  0  0  0  0  0  0  0  0
   58.1950   24.7890   46.2930 C   0  0  0  0  0  0  0  0  0  0  0  0
   56.8580   25.1860   46.3520 C   0  0  0  0  0  0  0  0  0  0  0  0
   56.4780   26.4080   45.8830 N   0  0  0  0  0  0  0  0  0  0  0  0
   55.1530   26.7640   45.9900 O   0  0  0  0  0  0  0  0  0  0  0  0
   61.1849   27.8144   48.7880 H   0  0  0  0  0  0  0  0  0  0  0  0
   60.5285   26.9970   47.3293 H   0  0  0  0  0  0  0  0  0  0  0  0
   60.7697   28.7770   47.3293 H   0  0  0  0  0  0  0  0  0  0  0  0
   58.6725   27.1289   48.8001 H   0  0  0  0  0  0  0  0  0  0  0  0
   59.1017   28.8053   49.3174 H   0  0  0  0  0  0  0  0  0  0  0  0
   59.4655   30.8034   48.5069 H   0  0  0  0  0  0  0  0  0  0  0  0
   59.6128   33.0477   47.4375 H   0  0  0  0  0  0  0  0  0  0  0  0
   57.3696   31.5962   44.0461 H   0  0  0  0  0  0  0  0  0  0  0  0
   59.4849   27.6010   44.8574 H   0  0  0  0  0  0  0  0  0  0  0  0
   60.1990   25.3621   45.7036 H   0  0  0  0  0  0  0  0  0  0  0  0
   58.4987   23.8007   46.6684 H   0  0  0  0  0  0  0  0  0  0  0  0
   56.1055   24.5075   46.7802 H   0  0  0  0  0  0  0  0  0  0  0  0
  1  2  1  0
  2  3  1  0
  3  4  1  0
  4  5  2  0
  5  6  1  0
  6  7  2  0
  7  8  1  0
  7  9  1  0
  9 10  2  0
 10 11  1  0
 11 12  2  0
 11 13  2  0
 11 14  1  0
 14 15  2  0
 15 16  1  0
 16 17  2  0
 17 18  1  0
 18 19  2  0
 19 20  1  0
 10  4  1  0
 19 14  1  0
  1 21  1  0
  1 22  1  0
  1 23  1  0
  2 24  1  0
  2 25  1  0
  5 26  1  0
  6 27  1  0
  9 28  1  0
 15 29  1  0
 16 30  1  0
 17 31  1  0
 18 32  1  0
M  CHG  2  19   1  20  -1
M  END
>  <UniqueID>  (15) 
14

>  <SMILES>  (15) 
CCOc1ccc(Br)cc1S(=O)(=O)c1cccc[n+]1[O-]

>  <Energy>  (15) 
35.69273672240332

>  <Genealogy>  (15) 
CCOc1ccc(Br)cc1S(=O)(=O)c1cccc[n+]1[O-] (3D coordinates assigned)
CCOc1ccc(Br)cc1S(=O)(=O)c1cccc[n+]1[O-] (optimized conformer: 35.69273672240332 kcal/mol)

>  <smiles>  (15) 
CCOc1ccc(Br)cc1S(=O)(=O)c1cccc[n+]1[O-]

>  <score_type>  (15) 
oracle

>  <origin>  (15) 
adg

>  <m_score__min__energy>  (15) 
-8.9299999999999997

>  <m_primary>  (15) 
energy

$$$$
15:0
     RDKit          3D

 71 73  0  0  0  0  0  0  0  0999 V2000
   64.6570   28.9920   51.9610 C   0  0  0  0  0  0  0  0  0  0  0  0
   65.8780   29.8520   51.6350 C   0  0  0  0  0  0  0  0  0  0  0  0
   65.4750   31.1010   50.9480 N   0  0  0  0  0  0  0  0  0  0  0  0
   66.6600   31.8770   50.5190 C   0  0  0  0  0  0  0  0  0  0  0  0
   66.3400   33.3670   50.4970 C   0  0  0  0  0  0  0  0  0  0  0  0
   64.5930   31.9190   51.8120 C   0  0  0  0  0  0  0  0  0  0  0  0
   63.1950   32.0560   51.1870 C   0  0  0  0  0  0  0  0  0  0  0  0
   63.0610   31.2460   49.9610 N   0  0  0  0  0  0  0  0  0  0  0  0
   62.7120   32.0820   48.8390 C   0  0  0  0  0  0  0  0  0  0  0  0
   63.6330   32.3040   47.8020 C   0  0  0  0  0  0  0  0  0  0  0  0
   63.3190   33.1730   46.7550 C   0  0  0  0  0  0  0  0  0  0  0  0
   62.0870   33.8350   46.7340 C   0  0  0  0  0  0  0  0  0  0  0  0
   61.1550   33.6290   47.7630 C   0  0  0  0  0  0  0  0  0  0  0  0
   59.8120   34.3180   47.7190 C   0  0  0  0  0  0  0  0  0  0  0  0
   59.6790   35.3090   46.5460 C   0  0  0  0  0  0  0  0  0  0  0  0
   59.2340   34.6580   45.2210 C   0  0  0  0  0  0  0  0  0  0  0  0
   57.8410   34.0200   45.3080 C   0  0  0  0  0  0  0  0  0  0  0  0
   57.8120   32.6550   44.5990 C   0  0  0  0  0  0  0  0  0  0  0  0
   58.7730   31.6370   45.2400 C   0  0  0  0  0  0  0  0  0  0  0  0
   58.1210   30.7690   46.3280 C   0  0  0  0  0  0  0  0  0  0  0  0
   59.1360   30.0850   47.1970 C   0  0  0  0  0  0  0  0  0  0  0  0
   60.0220   29.0920   46.7880 C   0  0  0  0  0  0  0  0  0  0  0  0
   60.7620   28.7110   47.9060 C   0  0  0  0  0  0  0  0  0  0  0  0
   60.2890   29.4970   48.9330 C   0  0  0  0  0  0  0  0  0  0  0  0
   60.6750   29.4940   50.2300 N   0  0  0  0  0  0  0  0  0  0  0  0
   60.0660   30.3590   51.0900 C   0  0  0  0  0  0  0  0  0  0  0  0
   59.0680   31.2440   50.6190 C   0  0  0  0  0  0  0  0  0  0  0  0
   58.3830   32.1970   51.5510 C   0  0  0  0  0  0  0  0  0  0  0  0
   58.7300   33.5010   51.2410 F   0  0  0  0  0  0  0  0  0  0  0  0
   57.0130   32.0520   51.4350 F   0  0  0  0  0  0  0  0  0  0  0  0
   58.7620   31.9430   52.8580 F   0  0  0  0  0  0  0  0  0  0  0  0
   58.7020   31.1810   49.3050 N   0  0  0  0  0  0  0  0  0  0  0  0
   59.3250   30.3170   48.5060 N   0  0  0  0  0  0  0  0  0  0  0  0
   61.4730   32.7480   48.8090 C   0  0  0  0  0  0  0  0  0  0  0  0
   64.5449   28.9131   53.0524 H   0  0  0  0  0  0  0  0  0  0  0  0
   63.7565   29.4563   51.5326 H   0  0  0  0  0  0  0  0  0  0  0  0
   64.7909   27.9877   51.5326 H   0  0  0  0  0  0  0  0  0  0  0  0
   66.3993   30.1068   52.5695 H   0  0  0  0  0  0  0  0  0  0  0  0
   66.5421   29.2822   50.9685 H   0  0  0  0  0  0  0  0  0  0  0  0
   67.4866   31.6942   51.2213 H   0  0  0  0  0  0  0  0  0  0  0  0
   66.9473   31.5588   49.5060 H   0  0  0  0  0  0  0  0  0  0  0  0
   66.2599   33.7401   51.5287 H   0  0  0  0  0  0  0  0  0  0  0  0
   67.1427   33.9067   49.9732 H   0  0  0  0  0  0  0  0  0  0  0  0
   65.3865   33.5295   49.9732 H   0  0  0  0  0  0  0  0  0  0  0  0
   64.5028   31.4360   52.7961 H   0  0  0  0  0  0  0  0  0  0  0  0
   65.0328   32.9217   51.9178 H   0  0  0  0  0  0  0  0  0  0  0  0
   62.4439   31.7223   51.9181 H   0  0  0  0  0  0  0  0  0  0  0  0
   63.0429   33.1116   50.9176 H   0  0  0  0  0  0  0  0  0  0  0  0
   63.9670   30.7610   49.7630 H   0  0  0  0  0  0  0  0  0  0  0  0
   62.3320   30.5030   50.0800 H   0  0  0  0  0  0  0  0  0  0  0  0
   64.6060   31.7910   47.8147 H   0  0  0  0  0  0  0  0  0  0  0  0
   64.0433   33.3376   45.9436 H   0  0  0  0  0  0  0  0  0  0  0  0
   61.8475   34.5201   45.9074 H   0  0  0  0  0  0  0  0  0  0  0  0
   59.0286   33.5521   47.6207 H   0  0  0  0  0  0  0  0  0  0  0  0
   59.7090   34.8955   48.6495 H   0  0  0  0  0  0  0  0  0  0  0  0
   58.9377   36.0735   46.8217 H   0  0  0  0  0  0  0  0  0  0  0  0
   60.6795   35.7317   46.3721 H   0  0  0  0  0  0  0  0  0  0  0  0
   59.2180   35.4306   44.4382 H   0  0  0  0  0  0  0  0  0  0  0  0
   59.9507   33.8562   44.9898 H   0  0  0  0  0  0  0  0  0  0  0  0
   57.5750   33.8809   46.3662 H   0  0  0  0  0  0  0  0  0  0  0  0
   57.1198   34.6866   44.8125 H   0  0  0  0  0  0  0  0  0  0  0  0
   56.7890   32.2537   44.6481 H   0  0  0  0  0  0  0  0  0  0  0  0
   58.1357   32.8114   43.5594 H   0  0  0  0  0  0  0  0  0  0  0  0
   59.1539   30.9740   44.4492 H   0  0  0  0  0  0  0  0  0  0  0  0
   59.5730   32.2140   45.7269 H   0  0  0  0  0  0  0  0  0  0  0  0
   57.4890   31.4101   46.9601 H   0  0  0  0  0  0  0  0  0  0  0  0
   57.5287   29.9897   45.8260 H   0  0  0  0  0  0  0  0  0  0  0  0
   60.1198   28.6839   45.7712 H   0  0  0  0  0  0  0  0  0  0  0  0
   61.5525   27.9478   47.9569 H   0  0  0  0  0  0  0  0  0  0  0  0
   60.3513   30.3688   52.1523 H   0  0  0  0  0  0  0  0  0  0  0  0
   60.7444   32.5763   49.6150 H   0  0  0  0  0  0  0  0  0  0  0  0
  1  2  1  0
  2  3  1  0
  3  4  1  0
  4  5  1  0
  3  6  1  0
  6  7  1  0
  7  8  1  0
  8  9  1  0
  9 10  2  0
 10 11  1  0
 11 12  2  0
 12 13  1  0
 13 14  1  0
 14 15  1  0
 15 16  1  0
 16 17  1  0
 17 18  1  0
 18 19  1  0
 19 20  1  0
 20 21  1  0
 21 22  2  0
 22 23  1  0
 23 24  2  0
 24 25  1  0
 25 26  2  0
 26 27  1  0
 27 28  1  0
 28 29  1  0
 28 30  1  0
 28 31  1  0
 27 32  2  0
 32 33  1  0
 13 34  2  0
 34  9  1  0
 33 21  1  0
 33 24  1  0
  1 35  1  0
  1 36  1  0
  1 37  1  0
  2 38  1  0
  2 39  1  0
  4 40  1  0
  4 41  1  0
  5 42  1  0
  5 43  1  0
  5 44  1  0
  6 45  1  0
  6 46  1  0
  7 47  1  0
  7 48  1  0
  8 49  1  0
  8 50  1  0
 10 51  1  0
 11 52  1  0
 12 53  1  0
 14 54  1  0
 14 55  1  0
 15 56  1  0
 15 57  1  0
 16 58  1  0
 16 59  1  0
 17 60  1  0
 17 61  1  0
 18 62  1  0
 18 63  1  0
 19 64  1  0
 19 65  1  0
 20 66  1  0
 20 67  1  0
 22 68  1  0
 23 69  1  0
 26 70  1  0
 34 71  1  0
M  CHG  1   8   1
M  END
>  <UniqueID>  (16) 
15

>  <SMILES>  (16) 
CCN(CC)CC[NH2+]c1cccc(CCCCCCCc2ccc3ncc(C(F)(F)F)nn23)c1

>  <Energy>  (16) 
89.65106526714423

>  <Genealogy>  (16) 
CCN(CC)CC[NH2+]c1cccc(CCCCCCCc2ccc3ncc(C(F)(F)F)nn23)c1 (protonated)
CCN(CC)CC[NH2+]c1cccc(CCCCCCCc2ccc3ncc(C(F)(F)F)nn23)c1 (3D coordinates assigned)
CCN(CC)CC[NH2+]c1cccc(CCCCCCCc2ccc3ncc(C(F)(F)F)nn23)c1 (optimized conformer: 89.65106526714423 kcal/mol)

>  <smiles>  (16) 
CCN(CC)CCNc1cccc(CCCCCCCc2ccc3ncc(C(F)(F)F)nn23)c1

>  <score_type>  (16) 
oracle

>  <origin>  (16) 
adg

>  <m_score__min__energy>  (16) 
-6.0199999999999996

>  <m_primary>  (16) 
energy

$$$$
16:0
     RDKit          3D

 58 62  0  0  0  0  0  0  0  0999 V2000
   57.8870   29.7490   52.4550 C   0  0  0  0  0  0  0  0  0  0  0  0
   57.7570   30.0140   51.0610 O   0  0  0  0  0  0  0  0  0  0  0  0
   58.8100   29.9250   50.1360 C   0  0  0  0  0  0  0  0  0  0  0  0
   60.1010   30.4180   50.4130 C   0  0  0  0  0  0  0  0  0  0  0  0
   61.1150   30.3110   49.4580 C   0  0  0  0  0  0  0  0  0  0  0  0
   60.8560   29.7120   48.2230 C   0  0  0  0  0  0  0  0  0  0  0  0
   59.5800   29.2050   47.9370 C   0  0  0  0  0  0  0  0  0  0  0  0
   59.2990   28.6010   46.5850 C   0  0  1  0  0  0  0  0  0  0  0  0
   59.2280   27.0840   46.4610 C   0  0  0  0  0  0  0  0  0  0  0  0
   57.9550   27.9190   46.4480 C   0  0  2  0  0  0  0  0  0  0  0  0
   57.4220   28.3380   45.0840 C   0  0  0  0  0  0  0  0  0  0  0  0
   58.2100   29.4920   44.6080 N   0  0  0  0  0  0  0  0  0  0  0  0
   57.5000   30.7810   44.8270 C   0  0  0  0  0  0  0  0  0  0  0  0
   57.5360   31.6350   43.5500 C   0  0  0  0  0  0  0  0  0  0  0  0
   57.9180   33.0930   43.8180 C   0  0  0  0  0  0  0  0  0  0  0  0
   56.9320   33.7840   45.1930 S   0  0  0  0  0  0  0  0  0  0  0  0
   58.1310   33.3630   46.4630 C   0  0  0  0  0  0  0  0  0  0  0  0
   57.8720   32.5250   47.4820 N   0  0  0  0  0  0  0  0  0  0  0  0
   58.9780   32.4400   48.2030 N   0  0  0  0  0  0  0  0  0  0  0  0
   59.8980   33.2310   47.6140 C   0  0  0  0  0  0  0  0  0  0  0  0
   61.2930   33.3410   48.0960 C   0  0  0  0  0  0  0  0  0  0  0  0
   62.3600   32.8600   47.3190 C   0  0  0  0  0  0  0  0  0  0  0  0
   63.6710   32.9300   47.8000 C   0  0  0  0  0  0  0  0  0  0  0  0
   63.9290   33.4740   49.0650 C   0  0  0  0  0  0  0  0  0  0  0  0
   62.8700   33.9360   49.8530 C   0  0  0  0  0  0  0  0  0  0  0  0
   61.5550   33.8620   49.3760 C   0  0  0  0  0  0  0  0  0  0  0  0
   59.3900   33.8410   46.5210 N   0  0  0  0  0  0  0  0  0  0  0  0
   60.0070   34.8230   45.6260 C   0  0  0  0  0  0  0  0  0  0  0  0
   59.4990   29.4240   45.3210 C   0  0  0  0  0  0  0  0  0  0  0  0
   58.5570   29.3280   48.8930 C   0  0  0  0  0  0  0  0  0  0  0  0
   57.4736   30.5917   53.0285 H   0  0  0  0  0  0  0  0  0  0  0  0
   57.3375   28.8298   52.7063 H   0  0  0  0  0  0  0  0  0  0  0  0
   58.9502   29.6209   52.7063 H   0  0  0  0  0  0  0  0  0  0  0  0
   60.3109   30.8888   51.3847 H   0  0  0  0  0  0  0  0  0  0  0  0
   62.1201   30.6995   49.6792 H   0  0  0  0  0  0  0  0  0  0  0  0
   61.6560   29.6376   47.4717 H   0  0  0  0  0  0  0  0  0  0  0  0
   59.5722   26.5895   45.5407 H   0  0  0  0  0  0  0  0  0  0  0  0
   59.5979   26.2345   47.0538 H   0  0  0  0  0  0  0  0  0  0  0  0
   57.0091   27.7970   46.9961 H   0  0  0  0  0  0  0  0  0  0  0  0
   57.5207   27.5032   44.3745 H   0  0  0  0  0  0  0  0  0  0  0  0
   56.3599   28.6132   45.1625 H   0  0  0  0  0  0  0  0  0  0  0  0
   56.4535   30.5771   45.0975 H   0  0  0  0  0  0  0  0  0  0  0  0
   57.9995   31.3306   45.6385 H   0  0  0  0  0  0  0  0  0  0  0  0
   58.2728   31.2008   42.8582 H   0  0  0  0  0  0  0  0  0  0  0  0
   56.5222   31.6329   43.1232 H   0  0  0  0  0  0  0  0  0  0  0  0
   58.9853   33.1433   44.0795 H   0  0  0  0  0  0  0  0  0  0  0  0
   57.7162   33.6814   42.9108 H   0  0  0  0  0  0  0  0  0  0  0  0
   62.1631   32.4262   46.3275 H   0  0  0  0  0  0  0  0  0  0  0  0
   64.5021   32.5569   47.1835 H   0  0  0  0  0  0  0  0  0  0  0  0
   64.9620   33.5376   49.4375 H   0  0  0  0  0  0  0  0  0  0  0  0
   63.0700   34.3581   50.8489 H   0  0  0  0  0  0  0  0  0  0  0  0
   60.7237   34.2128   50.0051 H   0  0  0  0  0  0  0  0  0  0  0  0
   60.4985   35.6053   46.2230 H   0  0  0  0  0  0  0  0  0  0  0  0
   60.7534   34.3227   44.9915 H   0  0  0  0  0  0  0  0  0  0  0  0
   59.2324   35.2784   44.9915 H   0  0  0  0  0  0  0  0  0  0  0  0
   60.2543   28.9453   44.6804 H   0  0  0  0  0  0  0  0  0  0  0  0
   59.8461   30.4360   45.5769 H   0  0  0  0  0  0  0  0  0  0  0  0
   57.5488   28.9525   48.6638 H   0  0  0  0  0  0  0  0  0  0  0  0
  1  2  1  0
  2  3  1  0
  3  4  2  0
  4  5  1  0
  5  6  2  0
  6  7  1  0
  8  7  1  1
  8  9  1  0
  9 10  1  0
 10 11  1  0
 11 12  1  0
 12 13  1  0
 13 14  1  0
 14 15  1  0
 15 16  1  0
 16 17  1  0
 17 18  2  0
 18 19  1  0
 19 20  2  0
 20 21  1  0
 21 22  2  0
 22 23  1  0
 23 24  2  0
 24 25  1  0
 25 26  2  0
 20 27  1  0
 27 28  1  0
 12 29  1  0
  7 30  2  0
 30  3  1  0
 10  8  1  0
 27 17  1  0
 29  8  1  0
 26 21  1  0
  1 31  1  0
  1 32  1  0
  1 33  1  0
  4 34  1  0
  5 35  1  0
  6 36  1  0
  9 37  1  0
  9 38  1  0
 10 39  1  1
 11 40  1  0
 11 41  1  0
 13 42  1  0
 13 43  1  0
 14 44  1  0
 14 45  1  0
 15 46  1  0
 15 47  1  0
 22 48  1  0
 23 49  1  0
 24 50  1  0
 25 51  1  0
 26 52  1  0
 28 53  1  0
 28 54  1  0
 28 55  1  0
 29 56  1  0
 29 57  1  0
 30 58  1  0
M  END
>  <UniqueID>  (17) 
16

>  <SMILES>  (17) 
COc1cccc([C@@]23C[C@@H]2CN(CCCSc2nnc(-c4ccccc4)n2C)C3)c1

>  <Energy>  (17) 
368.91543823130814

>  <Genealogy>  (17) 
COc1cccc([C@@]23C[C@@H]2CN(CCCSc2nnc(-c4ccccc4)n2C)C3)c1 (chirality)
COc1cccc([C@@]23C[C@@H]2CN(CCCSc2nnc(-c4ccccc4)n2C)C3)c1 (3D coordinates assigned)
COc1cccc([C@@]23C[C@@H]2CN(CCCSc2nnc(-c4ccccc4)n2C)C3)c1 (nonaromatic ring conformer: 368.91543823130814 kcal/mol)

>  <smiles>  (17) 
COc1cccc(C23CC2CN(CCCSc2nnc(-c4ccccc4)n2C)C3)c1

>  <score_type>  (17) 
oracle

>  <origin>  (17) 
adg

>  <m_score__min__energy>  (17) 
-9.6799999999999997

>  <m_primary>  (17) 
energy

$$$$
17:0
     RDKit          3D

 57 60  0  0  0  0  0  0  0  0999 V2000
   62.1680   32.9180   47.1360 C   0  0  0  0  0  0  0  0  0  0  0  0
   61.3540   33.3510   48.2720 N   0  0  0  0  0  0  0  0  0  0  0  0
   60.0920   33.8460   48.2820 C   0  0  0  0  0  0  0  0  0  0  0  0
   59.2110   33.9950   47.1040 C   0  0  0  0  0  0  0  0  0  0  0  0
   59.6430   34.6750   45.9520 C   0  0  0  0  0  0  0  0  0  0  0  0
   58.8010   34.7880   44.8410 C   0  0  0  0  0  0  0  0  0  0  0  0
   57.5280   34.2140   44.8650 C   0  0  0  0  0  0  0  0  0  0  0  0
   57.0980   33.5170   45.9970 C   0  0  0  0  0  0  0  0  0  0  0  0
   57.9370   33.4020   47.1100 C   0  0  0  0  0  0  0  0  0  0  0  0
   59.7230   34.2250   49.5240 N   0  0  0  0  0  0  0  0  0  0  0  0
   60.7450   33.9510   50.3170 N   0  0  0  0  0  0  0  0  0  0  0  0
   61.7220   33.4150   49.5670 C   0  0  0  0  0  0  0  0  0  0  0  0
   63.3150   32.9020   50.2210 S   0  0  0  0  0  0  0  0  0  0  0  0
   62.6490   31.5290   51.2340 C   0  0  0  0  0  0  0  0  0  0  0  0
   62.3040   30.2820   50.4090 C   0  0  0  0  0  0  0  0  0  0  0  0
   61.1030   30.4570   49.4680 C   0  0  0  0  0  0  0  0  0  0  0  0
   61.0680   29.3730   48.4580 N   0  0  0  0  0  0  0  0  0  0  0  0
   60.5680   28.1010   49.0360 C   0  0  0  0  0  0  0  0  0  0  0  0
   60.1390   27.1100   47.9490 C   0  0  0  0  0  0  0  0  0  0  0  0
   58.9700   27.6710   47.1170 C   0  0  0  0  0  0  0  0  0  0  0  0
   58.9600   29.2180   47.0830 C   0  0  2  0  0  0  0  0  0  0  0  0
   58.2450   29.7450   45.8530 C   0  0  0  0  0  0  0  0  0  0  0  0
   58.8610   30.6830   45.0000 C   0  0  0  0  0  0  0  0  0  0  0  0
   58.1890   31.1610   43.8700 C   0  0  0  0  0  0  0  0  0  0  0  0
   56.9000   30.7090   43.5780 C   0  0  0  0  0  0  0  0  0  0  0  0
   56.2790   29.7780   44.4150 C   0  0  0  0  0  0  0  0  0  0  0  0
   55.0290   29.3390   44.1290 F   0  0  0  0  0  0  0  0  0  0  0  0
   56.9470   29.2960   45.5450 C   0  0  0  0  0  0  0  0  0  0  0  0
   60.3920   29.7780   47.1940 C   0  0  0  0  0  0  0  0  0  0  0  0
   63.0829   32.4313   47.5049 H   0  0  0  0  0  0  0  0  0  0  0  0
   61.5947   32.2056   46.5245 H   0  0  0  0  0  0  0  0  0  0  0  0
   62.4383   33.7915   46.5245 H   0  0  0  0  0  0  0  0  0  0  0  0
   60.6484   35.1205   45.9242 H   0  0  0  0  0  0  0  0  0  0  0  0
   59.1420   35.3300   43.9466 H   0  0  0  0  0  0  0  0  0  0  0  0
   56.8643   34.3106   43.9932 H   0  0  0  0  0  0  0  0  0  0  0  0
   56.0984   33.0582   46.0128 H   0  0  0  0  0  0  0  0  0  0  0  0
   57.5977   32.8441   47.9952 H   0  0  0  0  0  0  0  0  0  0  0  0
   60.7670   34.1280   51.3460 H   0  0  0  0  0  0  0  0  0  0  0  0
   63.4018   31.2529   51.9870 H   0  0  0  0  0  0  0  0  0  0  0  0
   61.7157   31.8851   51.6945 H   0  0  0  0  0  0  0  0  0  0  0  0
   63.1819   30.0178   49.8011 H   0  0  0  0  0  0  0  0  0  0  0  0
   62.0282   29.4962   51.1276 H   0  0  0  0  0  0  0  0  0  0  0  0
   60.1750   30.4312   50.0580 H   0  0  0  0  0  0  0  0  0  0  0  0
   61.1977   31.4220   48.9486 H   0  0  0  0  0  0  0  0  0  0  0  0
   61.3680   27.6449   49.6376 H   0  0  0  0  0  0  0  0  0  0  0  0
   59.6882   28.3302   49.6553 H   0  0  0  0  0  0  0  0  0  0  0  0
   60.9927   26.9152   47.2833 H   0  0  0  0  0  0  0  0  0  0  0  0
   59.8075   26.1804   48.4349 H   0  0  0  0  0  0  0  0  0  0  0  0
   59.0573   27.2955   46.0868 H   0  0  0  0  0  0  0  0  0  0  0  0
   58.0330   27.3396   47.5885 H   0  0  0  0  0  0  0  0  0  0  0  0
   58.3937   29.5708   47.9576 H   0  0  0  0  0  0  0  0  0  0  0  0
   59.8765   31.0414   45.2243 H   0  0  0  0  0  0  0  0  0  0  0  0
   58.6765   31.8940   43.2104 H   0  0  0  0  0  0  0  0  0  0  0  0
   56.3735   31.0860   42.6888 H   0  0  0  0  0  0  0  0  0  0  0  0
   56.4544   28.5605   46.1980 H   0  0  0  0  0  0  0  0  0  0  0  0
   60.9827   29.4065   46.3437 H   0  0  0  0  0  0  0  0  0  0  0  0
   60.3221   30.8758   47.1900 H   0  0  0  0  0  0  0  0  0  0  0  0
  1  2  1  0
  2  3  1  0
  3  4  1  0
  4  5  2  0
  5  6  1  0
  6  7  2  0
  7  8  1  0
  8  9  2  0
  3 10  2  0
 10 11  1  0
 11 12  2  0
 12 13  1  0
 13 14  1  0
 14 15  1  0
 15 16  1  0
 16 17  1  0
 17 18  1  0
 18 19  1  0
 19 20  1  0
 20 21  1  0
 21 22  1  0
 22 23  2  0
 23 24  1  0
 24 25  2  0
 25 26  1  0
 26 27  1  0
 26 28  2  0
 21 29  1  0
 12  2  1  0
 29 17  1  0
  9  4  1  0
 28 22  1  0
  1 30  1  0
  1 31  1  0
  1 32  1  0
  5 33  1  0
  6 34  1  0
  7 35  1  0
  8 36  1  0
  9 37  1  0
 11 38  1  0
 14 39  1  0
 14 40  1  0
 15 41  1  0
 15 42  1  0
 16 43  1  0
 16 44  1  0
 18 45  1  0
 18 46  1  0
 19 47  1  0
 19 48  1  0
 20 49  1  0
 20 50  1  0
 21 51  1  1
 23 52  1  0
 24 53  1  0
 25 54  1  0
 28 55  1  0
 29 56  1  0
 29 57  1  0
M  CHG  1  11   1
M  END
>  <UniqueID>  (18) 
17

>  <SMILES>  (18) 
Cn1c(-c2ccccc2)n[nH+]c1SCCCN1CCC[C@H](c2cccc(F)c2)C1

>  <Energy>  (18) 
103.89667741842234

>  <Genealogy>  (18) 
Cn1c(-c2ccccc2)n[nH+]c1SCCCN1CCCC(c2cccc(F)c2)C1 (protonated)
Cn1c(-c2ccccc2)n[nH+]c1SCCCN1CCC[C@H](c2cccc(F)c2)C1 (chirality)
Cn1c(-c2ccccc2)n[nH+]c1SCCCN1CCC[C@H](c2cccc(F)c2)C1 (3D coordinates assigned)
Cn1c(-c2ccccc2)n[nH+]c1SCCCN1CCC[C@H](c2cccc(F)c2)C1 (nonaromatic ring conformer: 103.89667741842234 kcal/mol)

>  <smiles>  (18) 
Cn1c(SCCCN2CCCC(c3cccc(F)c3)C2)nnc1-c1ccccc1

>  <score_type>  (18) 
oracle

>  <origin>  (18) 
adg

>  <m_score__min__energy>  (18) 
-7.75

>  <m_primary>  (18) 
energy

$$$$
18:0
     RDKit          3D

 82 87  0  0  0  0  0  0  0  0999 V2000
   58.4810   32.6050   51.3070 C   0  0  0  0  0  0  0  0  0  0  0  0
   59.5300   33.7170   51.3090 C   0  0  0  0  0  0  0  0  0  0  0  0
   60.6960   33.4280   52.2710 C   0  0  0  0  0  0  0  0  0  0  0  0
   62.0020   33.7300   51.6630 N   0  0  0  0  0  0  0  0  0  0  0  0
   61.8490   33.9760   50.2200 C   0  0  0  0  0  0  0  0  0  0  0  0
   62.3210   32.7710   49.3800 C   0  0  0  0  0  0  0  0  0  0  0  0
   61.3010   31.6100   49.3650 C   0  0  0  0  0  0  0  0  0  0  0  0
   60.4030   31.5350   48.3000 C   0  0  0  0  0  0  0  0  0  0  0  0
   60.4620   32.4840   47.2450 C   0  0  0  0  0  0  0  0  0  0  0  0
   59.6930   32.3740   46.0910 C   0  0  0  0  0  0  0  0  0  0  0  0
   58.8200   31.3330   45.8930 N   0  0  0  0  0  0  0  0  0  0  0  0
   58.6840   30.4290   46.9190 C   0  0  0  0  0  0  0  0  0  0  0  0
   59.3860   30.5520   48.1460 C   0  0  0  0  0  0  0  0  0  0  0  0
   58.8290   29.7450   49.2410 C   0  0  0  0  0  0  0  0  0  0  0  0
   59.5390   29.0960   50.0890 N   0  0  0  0  0  0  0  0  0  0  0  0
   60.9250   29.2300   50.3430 C   0  0  0  0  0  0  0  0  0  0  0  0
   61.5050   28.1330   50.9940 C   0  0  0  0  0  0  0  0  0  0  0  0
   62.5630   28.3120   51.8750 C   0  0  0  0  0  0  0  0  0  0  0  0
   63.0310   29.5940   52.1280 C   0  0  0  0  0  0  0  0  0  0  0  0
   62.4960   30.6830   51.4400 C   0  0  0  0  0  0  0  0  0  0  0  0
   61.5350   30.5070   50.4030 C   0  0  0  0  0  0  0  0  0  0  0  0
   64.0440   29.7720   53.0750 O   0  0  0  0  0  0  0  0  0  0  0  0
   64.8260   28.6690   53.5370 C   0  0  0  0  0  0  0  0  0  0  0  0
   63.9420   27.4290   53.7150 C   0  0  0  0  0  0  0  0  0  0  0  0
   63.1210   27.2310   52.5630 O   0  0  0  0  0  0  0  0  0  0  0  0
   57.8240   29.3430   46.7640 O   0  0  0  0  0  0  0  0  0  0  0  0
   57.0780   29.1710   45.6100 C   0  0  0  0  0  0  0  0  0  0  0  0
   56.1810   28.0530   45.5430 N   0  0  0  0  0  0  0  0  0  0  0  0
   56.7030   26.6840   45.5790 C   0  0  0  0  0  0  0  0  0  0  0  0
   57.9120   26.5790   46.5180 C   0  0  0  0  0  0  0  0  0  0  0  0
   59.1590   26.4470   45.7290 N   0  0  0  0  0  0  0  0  0  0  0  0
   60.3540   26.3580   46.6010 C   0  0  0  0  0  0  0  0  0  0  0  0
   60.0300   26.7700   48.0360 C   0  0  0  0  0  0  0  0  0  0  0  0
   59.2650   27.4680   44.6580 C   0  0  0  0  0  0  0  0  0  0  0  0
   60.3910   28.4920   44.8670 C   0  0  0  0  0  0  0  0  0  0  0  0
   57.2130   30.0620   44.6080 C   0  0  0  0  0  0  0  0  0  0  0  0
   56.5130   29.8840   43.3910 C   0  0  0  0  0  0  0  0  0  0  0  0
   56.6310   30.8020   42.3590 C   0  0  0  0  0  0  0  0  0  0  0  0
   57.4490   31.9090   42.5040 C   0  0  0  0  0  0  0  0  0  0  0  0
   58.1760   32.1020   43.6760 C   0  0  0  0  0  0  0  0  0  0  0  0
   58.1040   31.1810   44.7690 C   0  0  0  0  0  0  0  0  0  0  0  0
   58.2285   32.3373   52.3436 H   0  0  0  0  0  0  0  0  0  0  0  0
   57.5765   32.9551   50.7880 H   0  0  0  0  0  0  0  0  0  0  0  0
   58.8832   31.7225   50.7880 H   0  0  0  0  0  0  0  0  0  0  0  0
   59.9317   33.8244   50.2906 H   0  0  0  0  0  0  0  0  0  0  0  0
   59.0373   34.6396   51.6498 H   0  0  0  0  0  0  0  0  0  0  0  0
   60.5732   34.0454   53.1731 H   0  0  0  0  0  0  0  0  0  0  0  0
   60.6758   32.3558   52.5161 H   0  0  0  0  0  0  0  0  0  0  0  0
   62.3930   34.5900   52.1100 H   0  0  0  0  0  0  0  0  0  0  0  0
   62.6530   32.9240   51.8100 H   0  0  0  0  0  0  0  0  0  0  0  0
   60.7881   34.1682   50.0021 H   0  0  0  0  0  0  0  0  0  0  0  0
   62.4709   34.8433   49.9532 H   0  0  0  0  0  0  0  0  0  0  0  0
   62.4849   33.1073   48.3456 H   0  0  0  0  0  0  0  0  0  0  0  0
   63.2457   32.3913   49.8392 H   0  0  0  0  0  0  0  0  0  0  0  0
   61.1439   33.3414   47.3445 H   0  0  0  0  0  0  0  0  0  0  0  0
   59.7873   33.1454   45.3125 H   0  0  0  0  0  0  0  0  0  0  0  0
   57.7345   29.6946   49.3392 H   0  0  0  0  0  0  0  0  0  0  0  0
   61.1184   27.1206   50.8053 H   0  0  0  0  0  0  0  0  0  0  0  0
   62.8231   31.6996   51.7037 H   0  0  0  0  0  0  0  0  0  0  0  0
   65.6148   28.4501   52.8022 H   0  0  0  0  0  0  0  0  0  0  0  0
   65.2764   28.9300   54.5060 H   0  0  0  0  0  0  0  0  0  0  0  0
   64.5818   26.5460   53.8598 H   0  0  0  0  0  0  0  0  0  0  0  0
   63.2949   27.5761   54.5923 H   0  0  0  0  0  0  0  0  0  0  0  0
   55.1470   28.2150   45.5310 H   0  0  0  0  0  0  0  0  0  0  0  0
   55.9121   26.0071   45.9343 H   0  0  0  0  0  0  0  0  0  0  0  0
   57.0231   26.4051   44.5643 H   0  0  0  0  0  0  0  0  0  0  0  0
   57.9692   27.4843   47.1402 H   0  0  0  0  0  0  0  0  0  0  0  0
   57.7951   25.6920   47.1580 H   0  0  0  0  0  0  0  0  0  0  0  0
   60.7206   25.3209   46.6007 H   0  0  0  0  0  0  0  0  0  0  0  0
   61.1199   27.0434   46.2090 H   0  0  0  0  0  0  0  0  0  0  0  0
   60.5544   26.1032   48.7362 H   0  0  0  0  0  0  0  0  0  0  0  0
   60.3571   27.8069   48.2025 H   0  0  0  0  0  0  0  0  0  0  0  0
   58.9452   26.6966   48.2025 H   0  0  0  0  0  0  0  0  0  0  0  0
   59.4442   26.9493   43.7047 H   0  0  0  0  0  0  0  0  0  0  0  0
   58.3211   28.0327   44.6679 H   0  0  0  0  0  0  0  0  0  0  0  0
   60.5554   28.6415   45.9443 H   0  0  0  0  0  0  0  0  0  0  0  0
   61.3162   28.1194   44.4032 H   0  0  0  0  0  0  0  0  0  0  0  0
   60.1077   29.4483   44.4032 H   0  0  0  0  0  0  0  0  0  0  0  0
   55.8656   29.0041   43.2620 H   0  0  0  0  0  0  0  0  0  0  0  0
   56.0734   30.6503   41.4230 H   0  0  0  0  0  0  0  0  0  0  0  0
   57.5255   32.6419   41.6873 H   0  0  0  0  0  0  0  0  0  0  0  0
   58.8235   32.9869   43.7641 H   0  0  0  0  0  0  0  0  0  0  0  0
  1  2  1  0
  2  3  1  0
  3  4  1  0
  4  5  1  0
  5  6  1  0
  6  7  1  0
  7  8  2  0
  8  9  1  0
  9 10  2  0
 10 11  1  0
 11 12  1  0
 12 13  2  0
 13 14  1  0
 14 15  2  0
 15 16  1  0
 16 17  2  0
 17 18  1  0
 18 19  2  0
 19 20  1  0
 20 21  2  0
 19 22  1  0
 22 23  1  0
 23 24  1  0
 24 25  1  0
 12 26  1  0
 26 27  1  0
 27 28  1  0
 28 29  1  0
 29 30  1  0
 30 31  1  0
 31 32  1  0
 32 33  1  0
 31 34  1  0
 34 35  1  0
 27 36  2  0
 36 37  1  0
 37 38  2  0
 38 39  1  0
 39 40  2  0
 40 41  1  0
 21  7  1  0
 41 36  1  0
 13  8  1  0
 21 16  1  0
 41 11  2  0
 25 18  1  0
  1 42  1  0
  1 43  1  0
  1 44  1  0
  2 45  1  0
  2 46  1  0
  3 47  1  0
  3 48  1  0
  4 49  1  0
  4 50  1  0
  5 51  1  0
  5 52  1  0
  6 53  1  0
  6 54  1  0
  9 55  1  0
 10 56  1  0
 14 57  1  0
 17 58  1  0
 20 59  1  0
 23 60  1  0
 23 61  1  0
 24 62  1  0
 24 63  1  0
 28 64  1  0
 29 65  1  0
 29 66  1  0
 30 67  1  0
 30 68  1  0
 32 69  1  0
 32 70  1  0
 33 71  1  0
 33 72  1  0
 33 73  1  0
 34 74  1  0
 34 75  1  0
 35 76  1  0
 35 77  1  0
 35 78  1  0
 37 79  1  0
 38 80  1  0
 39 81  1  0
 40 82  1  0
M  CHG  2   4   1  11   1
M  END
>  <UniqueID>  (19) 
18

>  <SMILES>  (19) 
CCC[NH2+]CCC1=c2cc[n+]3c(c2C=Nc2cc4c(cc21)OCCO4)OC(NCCN(CC)CC)=c1ccccc1=3

>  <Energy>  (19) 
163.5773496079457

>  <Genealogy>  (19) 
CCC[NH2+]CCC1=c2cc[n+]3c(c2C=Nc2cc4c(cc21)OCCO4)OC(NCCN(CC)CC)=c1ccccc1=3 (protonated)
CCC[NH2+]CCC1=c2cc[n+]3c(c2C=Nc2cc4c(cc21)OCCO4)OC(NCCN(CC)CC)=c1ccccc1=3 (3D coordinates assigned)
CCC[NH2+]CCC1=c2cc[n+]3c(c2C=Nc2cc4c(cc21)OCCO4)OC(NCCN(CC)CC)=c1ccccc1=3 (nonaromatic ring conformer: 163.5773496079457 kcal/mol)

>  <smiles>  (19) 
CCCNCCC1=c2cc[n+]3c(c2C=Nc2cc4c(cc21)OCCO4)OC(NCCN(CC)CC)=c1ccccc1=3

>  <score_type>  (19) 
oracle

>  <origin>  (19) 
adg

>  <m_score__min__energy>  (19) 
-6.21

>  <m_primary>  (19) 
energy

$$$$
