0:0
     RDKit          3D

 51 54  0  0  0  0  0  0  0  0999 V2000
   56.7980   30.4810   43.5670 C   0  0  0  0  0  0  0  0  0  0  0  0
   56.6950   29.9620   44.8740 O   0  0  0  0  0  0  0  0  0  0  0  0
   57.8260   30.3240   45.6470 C   0  0  0  0  0  0  0  0  0  0  0  0
   59.0440   29.4820   45.2270 C   0  0  1  0  0  0  0  0  0  0  0  0
   60.3440   30.0050   45.8900 C   0  0  0  0  0  0  0  0  0  0  0  0
   60.4810   29.7110   47.3540 N   0  0  0  0  0  0  0  0  0  0  0  0
   60.3640   30.9140   48.2020 C   0  0  0  0  0  0  0  0  0  0  0  0
   61.3970   31.9490   47.8110 C   0  0  0  0  0  0  0  0  0  0  0  0
   62.7350   31.7620   48.2060 C   0  0  0  0  0  0  0  0  0  0  0  0
   63.7080   32.7150   47.8960 C   0  0  0  0  0  0  0  0  0  0  0  0
   63.3600   33.8670   47.1930 C   0  0  0  0  0  0  0  0  0  0  0  0
   62.0400   34.0690   46.7890 C   0  0  0  0  0  0  0  0  0  0  0  0
   61.0520   33.1150   47.0810 C   0  0  0  0  0  0  0  0  0  0  0  0
   59.6670   33.3730   46.6340 C   0  0  0  0  0  0  0  0  0  0  0  0
   59.3950   33.7320   45.3070 C   0  0  0  0  0  0  0  0  0  0  0  0
   58.0780   33.9550   44.9020 C   0  0  0  0  0  0  0  0  0  0  0  0
   57.0450   33.8240   45.8330 C   0  0  0  0  0  0  0  0  0  0  0  0
   57.3250   33.4860   47.1190 N   0  0  0  0  0  0  0  0  0  0  0  0
   58.6000   33.2640   47.5380 C   0  0  0  0  0  0  0  0  0  0  0  0
   59.7450   28.5470   47.9250 C   0  0  0  0  0  0  0  0  0  0  0  0
   59.2350   27.6260   46.8730 C   0  0  0  0  0  0  0  0  0  0  0  0
   58.8250   26.3090   46.9460 C   0  0  0  0  0  0  0  0  0  0  0  0
   58.2770   25.9790   45.7560 N   0  0  0  0  0  0  0  0  0  0  0  0
   58.3130   27.0360   44.9570 N   0  0  0  0  0  0  0  0  0  0  0  0
   57.7700   27.0650   43.6030 C   0  0  0  0  0  0  0  0  0  0  0  0
   58.8790   28.0550   45.6330 C   0  0  0  0  0  0  0  0  0  0  0  0
   57.0119   31.5589   43.6163 H   0  0  0  0  0  0  0  0  0  0  0  0
   57.6122   29.9697   43.0325 H   0  0  0  0  0  0  0  0  0  0  0  0
   55.8503   30.3193   43.0325 H   0  0  0  0  0  0  0  0  0  0  0  0
   58.0485   31.3897   45.4896 H   0  0  0  0  0  0  0  0  0  0  0  0
   57.6100   30.1402   46.7098 H   0  0  0  0  0  0  0  0  0  0  0  0
   59.1152   29.5625   44.1323 H   0  0  0  0  0  0  0  0  0  0  0  0
   61.1984   29.5469   45.3702 H   0  0  0  0  0  0  0  0  0  0  0  0
   60.3100   31.1010   45.8022 H   0  0  0  0  0  0  0  0  0  0  0  0
   59.3588   31.3441   48.0813 H   0  0  0  0  0  0  0  0  0  0  0  0
   60.5332   30.6249   49.2498 H   0  0  0  0  0  0  0  0  0  0  0  0
   63.0170   30.8570   48.7640 H   0  0  0  0  0  0  0  0  0  0  0  0
   64.7510   32.5560   48.2073 H   0  0  0  0  0  0  0  0  0  0  0  0
   64.1276   34.6185   46.9562 H   0  0  0  0  0  0  0  0  0  0  0  0
   61.7713   34.9822   46.2378 H   0  0  0  0  0  0  0  0  0  0  0  0
   60.2184   33.8379   44.5854 H   0  0  0  0  0  0  0  0  0  0  0  0
   57.8559   34.2310   43.8606 H   0  0  0  0  0  0  0  0  0  0  0  0
   56.0030   33.9947   45.5246 H   0  0  0  0  0  0  0  0  0  0  0  0
   58.7946   32.9985   48.5876 H   0  0  0  0  0  0  0  0  0  0  0  0
   60.4253   27.9879   48.5843 H   0  0  0  0  0  0  0  0  0  0  0  0
   58.8778   28.9373   48.4778 H   0  0  0  0  0  0  0  0  0  0  0  0
   58.9266   25.6465   47.8182 H   0  0  0  0  0  0  0  0  0  0  0  0
   57.8650   25.0530   45.5070 H   0  0  0  0  0  0  0  0  0  0  0  0
   56.6725   27.1236   43.6492 H   0  0  0  0  0  0  0  0  0  0  0  0
   58.1620   27.9435   43.0695 H   0  0  0  0  0  0  0  0  0  0  0  0
   58.0662   26.1498   43.0695 H   0  0  0  0  0  0  0  0  0  0  0  0
  1  2  1  0
  2  3  1  0
  3  4  1  0
  4  5  1  0
  5  6  1  0
  6  7  1  0
  7  8  1  0
  8  9  2  0
  9 10  1  0
 10 11  2  0
 11 12  1  0
 12 13  2  0
 13 14  1  0
 14 15  2  0
 15 16  1  0
 16 17  2  0
 17 18  1  0
 18 19  2  0
  6 20  1  0
 20 21  1  0
 21 22  1  0
 22 23  2  0
 23 24  1  0
 24 25  1  0
 24 26  1  0
 26  4  1  0
 13  8  1  0
 19 14  1  0
 26 21  2  0
  1 27  1  0
  1 28  1  0
  1 29  1  0
  3 30  1  0
  3 31  1  0
  4 32  1  6
  5 33  1  0
  5 34  1  0
  7 35  1  0
  7 36  1  0
  9 37  1  0
 10 38  1  0
 11 39  1  0
 12 40  1  0
 15 41  1  0
 16 42  1  0
 17 43  1  0
 19 44  1  0
 20 45  1  0
 20 46  1  0
 22 47  1  0
 23 48  1  0
 25 49  1  0
 25 50  1  0
 25 51  1  0
M  CHG  1  23   1
M  END
>  <UniqueID>  (1) 
1

>  <SMILES>  (1) 
COC[C@H]1CN(Cc2ccccc2-c2cccnc2)Cc2c[nH+]n(C)c21

>  <Energy>  (1) 
107.92150016530579

>  <Genealogy>  (1) 
COCC1CN(Cc2ccccc2-c2cccnc2)Cc2c[nH+]n(C)c21 (protonated)
COC[C@H]1CN(Cc2ccccc2-c2cccnc2)Cc2c[nH+]n(C)c21 (chirality)
COC[C@H]1CN(Cc2ccccc2-c2cccnc2)Cc2c[nH+]n(C)c21 (3D coordinates assigned)
COC[C@H]1CN(Cc2ccccc2-c2cccnc2)Cc2c[nH+]n(C)c21 (nonaromatic ring conformer: 107.92150016530579 kcal/mol)

>  <smiles>  (1) 
COCC1CN(Cc2ccccc2-c2cccnc2)Cc2cnn(C)c21

>  <score_type>  (1) 
oracle

>  <origin>  (1) 
adg

>  <m_score__min__energy>  (1) 
-7.1200000000000001

>  <m_primary>  (1) 
energy

$$$$
1:0
     RDKit          3D

 64 66  0  0  0  0  0  0  0  0999 V2000
   60.3470   29.2070   50.8840 C   0  0  0  0  0  0  0  0  0  0  0  0
   59.0370   29.3440   50.1210 C   0  0  0  0  0  0  0  0  0  0  0  0
   59.3100   29.7560   48.7980 O   0  0  0  0  0  0  0  0  0  0  0  0
   60.6150   29.3710   48.4130 C   0  0  0  0  0  0  0  0  0  0  0  0
   60.7670   29.4580   46.8960 C   0  0  0  0  0  0  0  0  0  0  0  0
   59.6310   30.0910   46.3490 O   0  0  0  0  0  0  0  0  0  0  0  0
   58.8490   29.1470   45.6490 C   0  0  0  0  0  0  0  0  0  0  0  0
   57.6090   29.8340   45.0630 C   0  0  0  0  0  0  0  0  0  0  0  0
   57.5440   31.1950   45.4620 O   0  0  0  0  0  0  0  0  0  0  0  0
   57.0160   32.0210   44.4350 C   0  0  0  0  0  0  0  0  0  0  0  0
   58.0800   33.0410   43.9930 C   0  0  0  0  0  0  0  0  0  0  0  0
   58.8400   33.5360   45.0860 O   0  0  0  0  0  0  0  0  0  0  0  0
   58.0150   34.2210   46.0100 C   0  0  0  0  0  0  0  0  0  0  0  0
   57.7950   33.3400   47.2420 C   0  0  0  0  0  0  0  0  0  0  0  0
   58.8380   32.3050   47.4010 N   0  0  0  0  0  0  0  0  0  0  0  0
   59.8190   32.6400   48.4280 C   0  0  0  0  0  0  0  0  0  0  0  0
   61.1520   33.0150   48.0870 C   0  0  0  0  0  0  0  0  0  0  0  0
   61.5860   33.1350   46.7390 C   0  0  0  0  0  0  0  0  0  0  0  0
   62.8660   33.5870   46.4290 C   0  0  0  0  0  0  0  0  0  0  0  0
   63.7510   33.9240   47.4390 C   0  0  0  0  0  0  0  0  0  0  0  0
   63.3740   33.7820   48.7690 C   0  0  0  0  0  0  0  0  0  0  0  0
   62.0880   33.2920   49.1240 C   0  0  0  0  0  0  0  0  0  0  0  0
   61.7430   33.1000   50.4470 N   0  0  0  0  0  0  0  0  0  0  0  0
   62.7990   33.0600   51.4860 C   0  0  0  0  0  0  0  0  0  0  0  0
   60.4230   32.9180   50.7990 C   0  0  0  0  0  0  0  0  0  0  0  0
   60.0050   33.0100   52.1510 C   0  0  0  0  0  0  0  0  0  0  0  0
   58.6870   32.7590   52.5190 C   0  0  0  0  0  0  0  0  0  0  0  0
   57.7470   32.4310   51.5550 C   0  0  0  0  0  0  0  0  0  0  0  0
   58.1120   32.3790   50.2130 C   0  0  0  0  0  0  0  0  0  0  0  0
   59.4440   32.6430   49.8010 C   0  0  0  0  0  0  0  0  0  0  0  0
   60.1455   29.2281   51.9652 H   0  0  0  0  0  0  0  0  0  0  0  0
   60.8277   28.2537   50.6191 H   0  0  0  0  0  0  0  0  0  0  0  0
   61.0145   30.0402   50.6191 H   0  0  0  0  0  0  0  0  0  0  0  0
   58.5179   28.3743   50.1045 H   0  0  0  0  0  0  0  0  0  0  0  0
   58.3980   30.0903   50.6156 H   0  0  0  0  0  0  0  0  0  0  0  0
   61.3464   30.0400   48.8900 H   0  0  0  0  0  0  0  0  0  0  0  0
   60.7905   28.3328   48.7314 H   0  0  0  0  0  0  0  0  0  0  0  0
   61.6667   30.0410   46.6497 H   0  0  0  0  0  0  0  0  0  0  0  0
   60.8624   28.4456   46.4766 H   0  0  0  0  0  0  0  0  0  0  0  0
   59.4451   28.7114   44.8336 H   0  0  0  0  0  0  0  0  0  0  0  0
   58.5321   28.3526   46.3407 H   0  0  0  0  0  0  0  0  0  0  0  0
   57.6548   29.7830   43.9651 H   0  0  0  0  0  0  0  0  0  0  0  0
   56.7129   29.3166   45.4363 H   0  0  0  0  0  0  0  0  0  0  0  0
   56.7278   31.3974   43.5759 H   0  0  0  0  0  0  0  0  0  0  0  0
   56.1333   32.5562   44.8150 H   0  0  0  0  0  0  0  0  0  0  0  0
   58.7617   32.5544   43.2799 H   0  0  0  0  0  0  0  0  0  0  0  0
   57.5582   33.8931   43.5330 H   0  0  0  0  0  0  0  0  0  0  0  0
   58.5023   35.1598   46.3119 H   0  0  0  0  0  0  0  0  0  0  0  0
   57.0460   34.4474   45.5413 H   0  0  0  0  0  0  0  0  0  0  0  0
   57.7963   33.9803   48.1364 H   0  0  0  0  0  0  0  0  0  0  0  0
   56.8331   32.8227   47.1111 H   0  0  0  0  0  0  0  0  0  0  0  0
   59.2710   32.0880   46.4800 H   0  0  0  0  0  0  0  0  0  0  0  0
   58.3810   31.3970   47.6410 H   0  0  0  0  0  0  0  0  0  0  0  0
   60.8973   32.8655   45.9247 H   0  0  0  0  0  0  0  0  0  0  0  0
   63.1754   33.6767   45.3772 H   0  0  0  0  0  0  0  0  0  0  0  0
   64.7524   34.3041   47.1887 H   0  0  0  0  0  0  0  0  0  0  0  0
   64.0851   34.0543   49.5628 H   0  0  0  0  0  0  0  0  0  0  0  0
   62.3337   33.0776   52.4826 H   0  0  0  0  0  0  0  0  0  0  0  0
   63.3896   32.1388   51.3733 H   0  0  0  0  0  0  0  0  0  0  0  0
   63.4576   33.9338   51.3733 H   0  0  0  0  0  0  0  0  0  0  0  0
   60.7374   33.2853   52.9241 H   0  0  0  0  0  0  0  0  0  0  0  0
   58.3907   32.8210   53.5765 H   0  0  0  0  0  0  0  0  0  0  0  0
   56.7106   32.2114   51.8510 H   0  0  0  0  0  0  0  0  0  0  0  0
   57.3533   32.1284   49.4570 H   0  0  0  0  0  0  0  0  0  0  0  0
  1  2  1  0
  2  3  1  0
  3  4  1  0
  4  5  1  0
  5  6  1  0
  6  7  1  0
  7  8  1  0
  8  9  1  0
  9 10  1  0
 10 11  1  0
 11 12  1  0
 12 13  1  0
 13 14  1  0
 14 15  1  0
 15 16  1  0
 16 17  2  0
 17 18  1  0
 18 19  2  0
 19 20  1  0
 20 21  2  0
 21 22  1  0
 22 23  2  0
 23 24  1  0
 23 25  1  0
 25 26  2  0
 26 27  1  0
 27 28  2  0
 28 29  1  0
 29 30  2  0
 30 16  1  0
 22 17  1  0
 30 25  1  0
  1 31  1  0
  1 32  1  0
  1 33  1  0
  2 34  1  0
  2 35  1  0
  4 36  1  0
  4 37  1  0
  5 38  1  0
  5 39  1  0
  7 40  1  0
  7 41  1  0
  8 42  1  0
  8 43  1  0
 10 44  1  0
 10 45  1  0
 11 46  1  0
 11 47  1  0
 13 48  1  0
 13 49  1  0
 14 50  1  0
 14 51  1  0
 15 52  1  0
 15 53  1  0
 18 54  1  0
 19 55  1  0
 20 56  1  0
 21 57  1  0
 24 58  1  0
 24 59  1  0
 24 60  1  0
 26 61  1  0
 27 62  1  0
 28 63  1  0
 29 64  1  0
M  CHG  2  15   1  23   1
M  END
>  <UniqueID>  (2) 
2

>  <SMILES>  (2) 
CCOCCOCCOCCOCC[NH2+]c1c2ccccc2[n+](C)c2ccccc12

>  <Energy>  (2) 
93.39098486704545

>  <Genealogy>  (2) 
CCOCCOCCOCCOCC[NH2+]c1c2ccccc2[n+](C)c2ccccc12 (protonated)
CCOCCOCCOCCOCC[NH2+]c1c2ccccc2[n+](C)c2ccccc12 (3D coordinates assigned)
CCOCCOCCOCCOCC[NH2+]c1c2ccccc2[n+](C)c2ccccc12 (optimized conformer: 93.39098486704545 kcal/mol)

>  <smiles>  (2) 
CCOCCOCCOCCOCCNc1c2ccccc2[n+](C)c2ccccc12

>  <score_type>  (2) 
oracle

>  <origin>  (2) 
adg

>  <m_score__min__energy>  (2) 
-3.25

>  <m_primary>  (2) 
energy

$$$$
2:0
     RDKit          3D

 41 43  0  0  0  0  0  0  0  0999 V2000
   58.5010   34.2380   52.4120 C   0  0  0  0  0  0  0  0  0  0  0  0
   59.6280   33.5470   53.1850 C   0  0  0  0  0  0  0  0  0  0  0  0
   59.2970   32.1610   53.5660 N   0  0  0  0  0  0  0  0  0  0  0  0
   60.3350   31.1620   53.2440 C   0  0  0  0  0  0  0  0  0  0  0  0
   59.8570   30.0850   52.2590 C   0  0  0  0  0  0  0  0  0  0  0  0
   58.5790   30.4360   51.7330 O   0  0  0  0  0  0  0  0  0  0  0  0
   57.3560   30.0520   52.3000 C   0  0  0  0  0  0  0  0  0  0  0  0
   57.3580   28.9930   53.2350 C   0  0  0  0  0  0  0  0  0  0  0  0
   56.1660   28.5540   53.8390 C   0  0  0  0  0  0  0  0  0  0  0  0
   54.9760   29.2020   53.4950 C   0  0  0  0  0  0  0  0  0  0  0  0
   54.9710   30.2340   52.5780 C   0  0  0  0  0  0  0  0  0  0  0  0
   56.1360   30.6860   51.9620 C   0  0  0  0  0  0  0  0  0  0  0  0
   53.6590   30.6200   52.4360 C   0  0  0  0  0  0  0  0  0  0  0  0
   53.0640   31.5900   51.6300 C   0  0  0  0  0  0  0  0  0  0  0  0
   51.6660   31.7230   51.6880 C   0  0  0  0  0  0  0  0  0  0  0  0
   51.0300   32.6780   50.9030 O   0  0  0  0  0  0  0  0  0  0  0  0
   50.9030   30.8900   52.5370 C   0  0  0  0  0  0  0  0  0  0  0  0
   51.5280   29.9170   53.3380 C   0  0  0  0  0  0  0  0  0  0  0  0
   52.9200   29.8070   53.2740 C   0  0  0  0  0  0  0  0  0  0  0  0
   53.7220   28.9420   53.9440 N   0  0  0  0  0  0  0  0  0  0  0  0
   53.3110   27.8760   54.8580 C   0  0  0  0  0  0  0  0  0  0  0  0
   57.7849   34.6771   53.1222 H   0  0  0  0  0  0  0  0  0  0  0  0
   58.9238   35.0323   51.7793 H   0  0  0  0  0  0  0  0  0  0  0  0
   57.9848   33.5010   51.7793 H   0  0  0  0  0  0  0  0  0  0  0  0
   60.5286   33.5319   52.5537 H   0  0  0  0  0  0  0  0  0  0  0  0
   59.7882   34.1151   54.1132 H   0  0  0  0  0  0  0  0  0  0  0  0
   59.1150   32.1280   54.5970 H   0  0  0  0  0  0  0  0  0  0  0  0
   58.4050   31.8890   53.0880 H   0  0  0  0  0  0  0  0  0  0  0  0
   61.1958   31.6836   52.8003 H   0  0  0  0  0  0  0  0  0  0  0  0
   60.5981   30.6516   54.1822 H   0  0  0  0  0  0  0  0  0  0  0  0
   60.5794   30.0000   51.4338 H   0  0  0  0  0  0  0  0  0  0  0  0
   59.7778   29.1232   52.7870 H   0  0  0  0  0  0  0  0  0  0  0  0
   58.3080   28.5033   53.4951 H   0  0  0  0  0  0  0  0  0  0  0  0
   56.1700   27.7245   54.5614 H   0  0  0  0  0  0  0  0  0  0  0  0
   56.1088   31.5108   51.2347 H   0  0  0  0  0  0  0  0  0  0  0  0
   53.6688   32.2299   50.9706 H   0  0  0  0  0  0  0  0  0  0  0  0
   49.8094   31.0035   52.5719 H   0  0  0  0  0  0  0  0  0  0  0  0
   50.9383   29.2616   53.9958 H   0  0  0  0  0  0  0  0  0  0  0  0
   53.4411   28.2134   55.8969 H   0  0  0  0  0  0  0  0  0  0  0  0
   52.2535   27.6297   54.6821 H   0  0  0  0  0  0  0  0  0  0  0  0
   53.9295   26.9835   54.6821 H   0  0  0  0  0  0  0  0  0  0  0  0
  1  2  1  0
  2  3  1  0
  3  4  1  0
  4  5  1  0
  5  6  1  0
  6  7  1  0
  7  8  2  0
  8  9  1  0
  9 10  2  0
 10 11  1  0
 11 12  2  0
 11 13  1  0
 13 14  2  0
 14 15  1  0
 15 16  1  0
 15 17  2  0
 17 18  1  0
 18 19  2  0
 19 20  1  0
 20 21  1  0
 12  7  1  0
 19 13  1  0
 20 10  1  0
  1 22  1  0
  1 23  1  0
  1 24  1  0
  2 25  1  0
  2 26  1  0
  3 27  1  0
  3 28  1  0
  4 29  1  0
  4 30  1  0
  5 31  1  0
  5 32  1  0
  8 33  1  0
  9 34  1  0
 12 35  1  0
 14 36  1  0
 17 37  1  0
 18 38  1  0
 21 39  1  0
 21 40  1  0
 21 41  1  0
M  CHG  2   3   1  16  -1
M  END
>  <UniqueID>  (3) 
3

>  <SMILES>  (3) 
CC[NH2+]CCOc1ccc2c(c1)c1cc([O-])ccc1n2C

>  <Energy>  (3) 
82.59687752834212

>  <Genealogy>  (3) 
CC[NH2+]CCOc1ccc2c(c1)c1cc([O-])ccc1n2C (protonated)
CC[NH2+]CCOc1ccc2c(c1)c1cc([O-])ccc1n2C (3D coordinates assigned)
CC[NH2+]CCOc1ccc2c(c1)c1cc([O-])ccc1n2C (optimized conformer: 82.59687752834212 kcal/mol)

>  <smiles>  (3) 
CCNCCOc1ccc2c(c1)c1cc(O)ccc1n2C

>  <score_type>  (3) 
oracle

>  <origin>  (3) 
adg

>  <m_score__min__energy>  (3) 
-8.0600000000000005

>  <m_primary>  (3) 
energy

$$$$
3:0
     RDKit          3D

 44 47  0  0  0  0  0  0  0  0999 V2000
   57.4760   28.6080   43.6750 O   0  0  0  0  0  0  0  0  0  0  0  0
   57.8240   29.3350   44.6490 C   0  0  0  0  0  0  0  0  0  0  0  0
   57.9690   30.7160   44.4770 C   0  0  0  0  0  0  0  0  0  0  0  0
   57.7090   31.3130   43.2270 C   0  0  0  0  0  0  0  0  0  0  0  0
   57.8540   32.6870   43.0570 C   0  0  0  0  0  0  0  0  0  0  0  0
   58.2610   33.4780   44.1240 C   0  0  0  0  0  0  0  0  0  0  0  0
   58.5250   32.9060   45.3680 C   0  0  0  0  0  0  0  0  0  0  0  0
   58.3840   31.5070   45.5800 C   0  0  0  0  0  0  0  0  0  0  0  0
   58.6340   30.8980   46.7990 N   0  0  0  0  0  0  0  0  0  0  0  0
   59.0790   31.6390   48.0090 C   0  0  0  0  0  0  0  0  0  0  0  0
   60.5110   32.1090   47.8690 C   0  0  0  0  0  0  0  0  0  0  0  0
   61.5330   31.1740   47.6170 C   0  0  0  0  0  0  0  0  0  0  0  0
   62.8580   31.5930   47.4740 C   0  0  0  0  0  0  0  0  0  0  0  0
   63.1810   32.9460   47.5840 C   0  0  0  0  0  0  0  0  0  0  0  0
   62.1770   33.8840   47.8390 C   0  0  0  0  0  0  0  0  0  0  0  0
   60.8480   33.4720   47.9830 C   0  0  0  0  0  0  0  0  0  0  0  0
   59.9010   34.4070   48.2370 F   0  0  0  0  0  0  0  0  0  0  0  0
   58.4700   29.5350   46.9250 C   0  0  0  0  0  0  0  0  0  0  0  0
   58.6940   28.9720   48.0360 O   0  0  0  0  0  0  0  0  0  0  0  0
   58.0580   28.7720   45.8680 N   0  0  0  0  0  0  0  0  0  0  0  0
   57.9140   27.3460   46.0310 C   0  0  0  0  0  0  0  0  0  0  0  0
   56.6270   26.7920   46.0190 C   0  0  0  0  0  0  0  0  0  0  0  0
   56.4440   25.4180   46.1820 C   0  0  0  0  0  0  0  0  0  0  0  0
   57.5490   24.5860   46.3610 C   0  0  0  0  0  0  0  0  0  0  0  0
   58.8380   25.1210   46.3740 C   0  0  0  0  0  0  0  0  0  0  0  0
   59.0440   26.5060   46.2020 C   0  0  0  0  0  0  0  0  0  0  0  0
   60.4460   27.0790   46.2240 C   0  0  0  0  0  0  0  0  0  0  0  0
   60.7000   27.6610   47.4520 F   0  0  0  0  0  0  0  0  0  0  0  0
   60.6200   28.0460   45.2490 F   0  0  0  0  0  0  0  0  0  0  0  0
   61.3640   26.0710   46.0030 F   0  0  0  0  0  0  0  0  0  0  0  0
   57.3892   30.6887   42.3797 H   0  0  0  0  0  0  0  0  0  0  0  0
   57.6466   33.1458   42.0790 H   0  0  0  0  0  0  0  0  0  0  0  0
   58.3758   34.5633   43.9866 H   0  0  0  0  0  0  0  0  0  0  0  0
   58.8481   33.5485   46.2003 H   0  0  0  0  0  0  0  0  0  0  0  0
   58.4273   32.5132   48.1539 H   0  0  0  0  0  0  0  0  0  0  0  0
   59.0184   30.9615   48.8735 H   0  0  0  0  0  0  0  0  0  0  0  0
   61.2863   30.1054   47.5321 H   0  0  0  0  0  0  0  0  0  0  0  0
   63.6485   30.8546   47.2742 H   0  0  0  0  0  0  0  0  0  0  0  0
   64.2248   33.2739   47.4701 H   0  0  0  0  0  0  0  0  0  0  0  0
   62.4327   34.9502   47.9268 H   0  0  0  0  0  0  0  0  0  0  0  0
   55.7533   27.4457   45.8799 H   0  0  0  0  0  0  0  0  0  0  0  0
   55.4299   24.9920   46.1693 H   0  0  0  0  0  0  0  0  0  0  0  0
   57.4040   23.5036   46.4925 H   0  0  0  0  0  0  0  0  0  0  0  0
   59.7020   24.4560   46.5198 H   0  0  0  0  0  0  0  0  0  0  0  0
  1  2  2  0
  2  3  1  0
  3  4  2  0
  4  5  1  0
  5  6  2  0
  6  7  1  0
  7  8  2  0
  8  9  1  0
  9 10  1  0
 10 11  1  0
 11 12  2  0
 12 13  1  0
 13 14  2  0
 14 15  1  0
 15 16  2  0
 16 17  1  0
  9 18  1  0
 18 19  2  0
 18 20  1  0
 20 21  1  0
 21 22  2  0
 22 23  1  0
 23 24  2  0
 24 25  1  0
 25 26  2  0
 26 27  1  0
 27 28  1  0
 27 29  1  0
 27 30  1  0
 20  2  1  0
 26 21  1  0
  8  3  1  0
 16 11  1  0
  4 31  1  0
  5 32  1  0
  6 33  1  0
  7 34  1  0
 10 35  1  0
 10 36  1  0
 12 37  1  0
 13 38  1  0
 14 39  1  0
 15 40  1  0
 22 41  1  0
 23 42  1  0
 24 43  1  0
 25 44  1  0
M  END
>  <UniqueID>  (4) 
4

>  <SMILES>  (4) 
O=c1c2ccccc2n(Cc2ccccc2F)c(=O)n1-c1ccccc1C(F)(F)F

>  <Energy>  (4) 
76.11510399239532

>  <Genealogy>  (4) 
O=c1c2ccccc2n(Cc2ccccc2F)c(=O)n1-c1ccccc1C(F)(F)F (3D coordinates assigned)
O=c1c2ccccc2n(Cc2ccccc2F)c(=O)n1-c1ccccc1C(F)(F)F (optimized conformer: 76.11510399239532 kcal/mol)

>  <smiles>  (4) 
O=c1c2ccccc2n(Cc2ccccc2F)c(=O)n1-c1ccccc1C(F)(F)F

>  <score_type>  (4) 
oracle

>  <origin>  (4) 
adg

>  <m_score__min__energy>  (4) 
-7.54

>  <m_primary>  (4) 
energy

$$$$
4:0
     RDKit          3D

 49 51  0  0  0  0  0  0  0  0999 V2000
   58.6570   26.4560   45.9050 C   0  0  0  0  0  0  0  0  0  0  0  0
   57.3770   26.8580   45.1800 C   0  0  0  0  0  0  0  0  0  0  0  0
   56.7610   27.9680   45.8300 O   0  0  0  0  0  0  0  0  0  0  0  0
   56.4070   29.1530   45.1700 C   0  0  0  0  0  0  0  0  0  0  0  0
   55.2060   29.3420   44.8250 O   0  0  0  0  0  0  0  0  0  0  0  0
   57.4910   30.1820   44.8440 C   0  0  1  0  0  0  0  0  0  0  0  0
   58.6810   29.4500   44.1530 C   0  0  0  0  0  0  0  0  0  0  0  0
   56.8650   31.1930   43.8550 C   0  0  0  0  0  0  0  0  0  0  0  0
   57.7920   32.3520   43.4660 C   0  0  0  0  0  0  0  0  0  0  0  0
   58.8600   32.7100   44.5130 C   0  0  0  0  0  0  0  0  0  0  0  0
   58.4750   32.4350   45.9960 C   0  0  2  0  0  0  0  0  0  0  0  0
   57.3230   33.4020   46.4040 C   0  0  0  0  0  0  0  0  0  0  0  0
   59.7900   32.7110   46.8190 C   0  0  0  0  0  0  0  0  0  0  0  0
   60.3200   34.0260   47.1020 C   0  0  0  0  0  0  0  0  0  0  0  0
   59.5860   35.3250   46.8630 C   0  0  0  0  0  0  0  0  0  0  0  0
   61.6120   34.1590   47.6500 C   0  0  0  0  0  0  0  0  0  0  0  0
   62.4130   33.0530   47.8920 C   0  0  0  0  0  0  0  0  0  0  0  0
   64.0230   33.2600   48.5580 Cl  0  0  0  0  0  0  0  0  0  0  0  0
   61.9340   31.7840   47.6180 C   0  0  0  0  0  0  0  0  0  0  0  0
   60.6440   31.6060   47.1030 C   0  0  0  0  0  0  0  0  0  0  0  0
   60.1430   30.2430   46.9530 C   0  0  0  0  0  0  0  0  0  0  0  0
   60.9180   29.2680   46.7560 O   0  0  0  0  0  0  0  0  0  0  0  0
   58.6950   30.0340   47.1370 C   0  0  0  0  0  0  0  0  0  0  0  0
   57.9000   30.9350   46.1730 C   0  0  2  0  0  0  0  0  0  0  0  0
   58.4944   26.5071   46.9917 H   0  0  0  0  0  0  0  0  0  0  0  0
   58.9308   25.4286   45.6231 H   0  0  0  0  0  0  0  0  0  0  0  0
   59.4691   27.1424   45.6231 H   0  0  0  0  0  0  0  0  0  0  0  0
   57.6200   27.1350   44.1435 H   0  0  0  0  0  0  0  0  0  0  0  0
   56.6797   26.0074   45.1923 H   0  0  0  0  0  0  0  0  0  0  0  0
   59.3526   29.0369   44.9201 H   0  0  0  0  0  0  0  0  0  0  0  0
   58.2946   28.6332   43.5256 H   0  0  0  0  0  0  0  0  0  0  0  0
   59.2357   30.1632   43.5256 H   0  0  0  0  0  0  0  0  0  0  0  0
   56.5871   30.6516   42.9387 H   0  0  0  0  0  0  0  0  0  0  0  0
   55.9997   31.6397   44.3666 H   0  0  0  0  0  0  0  0  0  0  0  0
   58.3069   32.0787   42.5331 H   0  0  0  0  0  0  0  0  0  0  0  0
   57.1495   33.2393   43.3667 H   0  0  0  0  0  0  0  0  0  0  0  0
   59.7643   32.1266   44.2855 H   0  0  0  0  0  0  0  0  0  0  0  0
   58.9986   33.7986   44.4377 H   0  0  0  0  0  0  0  0  0  0  0  0
   57.2599   33.4550   47.5009 H   0  0  0  0  0  0  0  0  0  0  0  0
   57.5254   34.4047   45.9995 H   0  0  0  0  0  0  0  0  0  0  0  0
   56.3705   33.0289   45.9995 H   0  0  0  0  0  0  0  0  0  0  0  0
   59.3272   35.7830   47.8290 H   0  0  0  0  0  0  0  0  0  0  0  0
   60.2302   36.0106   46.2930 H   0  0  0  0  0  0  0  0  0  0  0  0
   58.6663   35.1270   46.2930 H   0  0  0  0  0  0  0  0  0  0  0  0
   61.9933   35.1623   47.8910 H   0  0  0  0  0  0  0  0  0  0  0  0
   62.5718   30.9078   47.8063 H   0  0  0  0  0  0  0  0  0  0  0  0
   58.4513   28.9807   46.9339 H   0  0  0  0  0  0  0  0  0  0  0  0
   58.4244   30.2896   48.1721 H   0  0  0  0  0  0  0  0  0  0  0  0
   56.9449   31.1421   46.6779 H   0  0  0  0  0  0  0  0  0  0  0  0
  1  2  1  0
  2  3  1  0
  3  4  1  0
  4  5  2  0
  4  6  1  0
  6  7  1  6
  6  8  1  0
  8  9  1  0
  9 10  1  0
 10 11  1  0
 11 12  1  1
 11 13  1  0
 13 14  2  0
 14 15  1  0
 14 16  1  0
 16 17  2  0
 17 18  1  0
 17 19  1  0
 19 20  2  0
 20 21  1  0
 21 22  2  0
 21 23  1  0
 23 24  1  0
 24  6  1  0
 24 11  1  0
 20 13  1  0
  1 25  1  0
  1 26  1  0
  1 27  1  0
  2 28  1  0
  2 29  1  0
  7 30  1  0
  7 31  1  0
  7 32  1  0
  8 33  1  0
  8 34  1  0
  9 35  1  0
  9 36  1  0
 10 37  1  0
 10 38  1  0
 12 39  1  0
 12 40  1  0
 12 41  1  0
 15 42  1  0
 15 43  1  0
 15 44  1  0
 16 45  1  0
 19 46  1  0
 23 47  1  0
 23 48  1  0
 24 49  1  1
M  END
>  <UniqueID>  (5) 
5

>  <SMILES>  (5) 
CCOC(=O)[C@@]1(C)CCC[C@]2(C)c3c(C)cc(Cl)cc3C(=O)CC12

>  <Energy>  (5) 
85.09452914682495

>  <Genealogy>  (5) 
CCOC(=O)[C@@]1(C)CCC[C@]2(C)c3c(C)cc(Cl)cc3C(=O)CC12 (chirality)
CCOC(=O)[C@@]1(C)CCC[C@]2(C)c3c(C)cc(Cl)cc3C(=O)CC12 (3D coordinates assigned)
CCOC(=O)[C@@]1(C)CCC[C@]2(C)c3c(C)cc(Cl)cc3C(=O)CC12 (nonaromatic ring conformer: 85.09452914682495 kcal/mol)

>  <smiles>  (5) 
CCOC(=O)C1(C)CCCC2(C)c3c(C)cc(Cl)cc3C(=O)CC12

>  <score_type>  (5) 
oracle

>  <origin>  (5) 
adg

>  <m_score__min__energy>  (5) 
-8.8699999999999992

>  <m_primary>  (5) 
energy

$$$$
5:0
     RDKit          3D

 60 62  0  0  0  0  0  0  0  0999 V2000
   58.5170   32.3470   49.7250 C   0  0  0  0  0  0  0  0  0  0  0  0
   59.5750   33.3350   50.2040 C   0  0  0  0  0  0  0  0  0  0  0  0
   60.8390   32.7010   50.2840 O   0  0  0  0  0  0  0  0  0  0  0  0
   61.6970   33.4160   51.1500 C   0  0  0  0  0  0  0  0  0  0  0  0
   62.6940   34.2150   50.3230 C   0  0  0  0  0  0  0  0  0  0  0  0
   62.4610   33.9640   48.9550 O   0  0  0  0  0  0  0  0  0  0  0  0
   63.6940   33.8280   48.2770 C   0  0  0  0  0  0  0  0  0  0  0  0
   63.5070   32.9460   47.0350 C   0  0  0  0  0  0  0  0  0  0  0  0
   62.7820   31.6210   47.3360 C   0  0  0  0  0  0  0  0  0  0  0  0
   61.4820   31.8340   48.0020 N   0  0  0  0  0  0  0  0  0  0  0  0
   60.3810   31.6250   47.0710 C   0  0  0  0  0  0  0  0  0  0  0  0
   59.8210   32.7450   46.3920 C   0  0  0  0  0  0  0  0  0  0  0  0
   60.1920   34.0780   46.7140 C   0  0  0  0  0  0  0  0  0  0  0  0
   59.6980   35.1610   45.9950 C   0  0  0  0  0  0  0  0  0  0  0  0
   58.8310   34.9540   44.9350 C   0  0  0  0  0  0  0  0  0  0  0  0
   58.4220   33.6640   44.6120 C   0  0  0  0  0  0  0  0  0  0  0  0
   58.8670   32.5400   45.3580 C   0  0  0  0  0  0  0  0  0  0  0  0
   58.4140   31.2720   45.0720 N   0  0  0  0  0  0  0  0  0  0  0  0
   57.2190   31.0960   44.2110 C   0  0  0  0  0  0  0  0  0  0  0  0
   59.0310   30.1690   45.6230 C   0  0  0  0  0  0  0  0  0  0  0  0
   58.7920   28.8770   45.0980 C   0  0  0  0  0  0  0  0  0  0  0  0
   59.3090   27.7450   45.7050 C   0  0  0  0  0  0  0  0  0  0  0  0
   60.0480   27.8590   46.8690 C   0  0  0  0  0  0  0  0  0  0  0  0
   60.3510   29.1200   47.4110 C   0  0  0  0  0  0  0  0  0  0  0  0
   61.0170   29.1940   48.6460 O   0  0  0  0  0  0  0  0  0  0  0  0
   60.6570   28.4770   49.8250 C   0  0  0  0  0  0  0  0  0  0  0  0
   59.8620   29.3830   50.7490 C   0  0  0  0  0  0  0  0  0  0  0  0
   59.9340   30.3090   46.7210 C   0  0  0  0  0  0  0  0  0  0  0  0
   58.0245   31.8871   50.5944 H   0  0  0  0  0  0  0  0  0  0  0  0
   57.7686   32.8770   49.1175 H   0  0  0  0  0  0  0  0  0  0  0  0
   58.9946   31.5642   49.1175 H   0  0  0  0  0  0  0  0  0  0  0  0
   59.6344   34.1748   49.4960 H   0  0  0  0  0  0  0  0  0  0  0  0
   59.2953   33.7029   51.2022 H   0  0  0  0  0  0  0  0  0  0  0  0
   61.1030   34.1014   51.7724 H   0  0  0  0  0  0  0  0  0  0  0  0
   62.2374   32.7107   51.7984 H   0  0  0  0  0  0  0  0  0  0  0  0
   62.5669   35.2882   50.5279 H   0  0  0  0  0  0  0  0  0  0  0  0
   63.7194   33.9162   50.5864 H   0  0  0  0  0  0  0  0  0  0  0  0
   64.0536   34.8210   47.9695 H   0  0  0  0  0  0  0  0  0  0  0  0
   64.4292   33.3604   48.9484 H   0  0  0  0  0  0  0  0  0  0  0  0
   62.9182   33.5062   46.2937 H   0  0  0  0  0  0  0  0  0  0  0  0
   64.5095   32.6924   46.6599 H   0  0  0  0  0  0  0  0  0  0  0  0
   62.6115   31.0877   46.3891 H   0  0  0  0  0  0  0  0  0  0  0  0
   63.4177   31.0360   48.0169 H   0  0  0  0  0  0  0  0  0  0  0  0
   61.3730   31.1930   48.8150 H   0  0  0  0  0  0  0  0  0  0  0  0
   61.4350   32.7670   48.4590 H   0  0  0  0  0  0  0  0  0  0  0  0
   60.8846   34.2572   47.5496 H   0  0  0  0  0  0  0  0  0  0  0  0
   59.9964   36.1838   46.2686 H   0  0  0  0  0  0  0  0  0  0  0  0
   58.4657   35.8098   44.3483 H   0  0  0  0  0  0  0  0  0  0  0  0
   57.7405   33.5114   43.7621 H   0  0  0  0  0  0  0  0  0  0  0  0
   56.3281   30.9648   44.8427 H   0  0  0  0  0  0  0  0  0  0  0  0
   57.0905   31.9849   43.5759 H   0  0  0  0  0  0  0  0  0  0  0  0
   57.3523   30.2078   43.5759 H   0  0  0  0  0  0  0  0  0  0  0  0
   58.1827   28.7696   44.1885 H   0  0  0  0  0  0  0  0  0  0  0  0
   59.1320   26.7541   45.2613 H   0  0  0  0  0  0  0  0  0  0  0  0
   60.4033   26.9504   47.3772 H   0  0  0  0  0  0  0  0  0  0  0  0
   60.0445   27.6054   49.5508 H   0  0  0  0  0  0  0  0  0  0  0  0
   61.5684   28.1390   50.3398 H   0  0  0  0  0  0  0  0  0  0  0  0
   60.0862   29.1275   51.7951 H   0  0  0  0  0  0  0  0  0  0  0  0
   60.1371   30.4312   50.5605 H   0  0  0  0  0  0  0  0  0  0  0  0
   58.7869   29.2465   50.5605 H   0  0  0  0  0  0  0  0  0  0  0  0
  1  2  1  0
  2  3  1  0
  3  4  1  0
  4  5  1  0
  5  6  1  0
  6  7  1  0
  7  8  1  0
  8  9  1  0
  9 10  1  0
 10 11  1  0
 11 12  2  0
 12 13  1  0
 13 14  2  0
 14 15  1  0
 15 16  2  0
 16 17  1  0
 17 18  2  0
 18 19  1  0
 18 20  1  0
 20 21  2  0
 21 22  1  0
 22 23  2  0
 23 24  1  0
 24 25  1  0
 25 26  1  0
 26 27  1  0
 24 28  2  0
 28 11  1  0
 17 12  1  0
 28 20  1  0
  1 29  1  0
  1 30  1  0
  1 31  1  0
  2 32  1  0
  2 33  1  0
  4 34  1  0
  4 35  1  0
  5 36  1  0
  5 37  1  0
  7 38  1  0
  7 39  1  0
  8 40  1  0
  8 41  1  0
  9 42  1  0
  9 43  1  0
 10 44  1  0
 10 45  1  0
 13 46  1  0
 14 47  1  0
 15 48  1  0
 16 49  1  0
 19 50  1  0
 19 51  1  0
 19 52  1  0
 21 53  1  0
 22 54  1  0
 23 55  1  0
 26 56  1  0
 26 57  1  0
 27 58  1  0
 27 59  1  0
 27 60  1  0
M  CHG  2  10   1  18   1
M  END
>  <UniqueID>  (6) 
6

>  <SMILES>  (6) 
CCOCCOCCC[NH2+]c1c2ccccc2[n+](C)c2cccc(OCC)c12

>  <Energy>  (6) 
87.28650819938231

>  <Genealogy>  (6) 
CCOCCOCCC[NH2+]c1c2ccccc2[n+](C)c2cccc(OCC)c12 (protonated)
CCOCCOCCC[NH2+]c1c2ccccc2[n+](C)c2cccc(OCC)c12 (3D coordinates assigned)
CCOCCOCCC[NH2+]c1c2ccccc2[n+](C)c2cccc(OCC)c12 (optimized conformer: 87.28650819938231 kcal/mol)

>  <smiles>  (6) 
CCOCCOCCCNc1c2ccccc2[n+](C)c2cccc(OCC)c12

>  <score_type>  (6) 
oracle

>  <origin>  (6) 
adg

>  <m_score__min__energy>  (6) 
-3.1899999999999999

>  <m_primary>  (6) 
energy

$$$$
6:0
     RDKit          3D

 66 69  0  0  0  0  0  0  0  0999 V2000
   59.7220   34.2400   49.7910 C   0  0  0  0  0  0  0  0  0  0  0  0
   59.6060   33.3780   50.8030 C   0  0  0  0  0  0  0  0  0  0  0  0
   60.3390   32.0690   50.7990 C   0  0  0  0  0  0  0  0  0  0  0  0
   59.6300   31.1020   49.9570 N   0  0  0  0  0  0  0  0  0  0  0  0
   60.5380   30.0260   49.5440 C   0  0  0  0  0  0  0  0  0  0  0  0
   60.0110   29.2850   48.3010 C   0  0  0  0  0  0  0  0  0  0  0  0
   58.7000   29.7870   47.8350 N   0  0  0  0  0  0  0  0  0  0  0  0
   58.6390   29.9630   46.3880 C   0  0  0  0  0  0  0  0  0  0  0  0
   58.4760   28.8520   45.5290 C   0  0  0  0  0  0  0  0  0  0  0  0
   58.8440   27.5470   45.9280 C   0  0  0  0  0  0  0  0  0  0  0  0
   58.6880   26.4670   45.0640 C   0  0  0  0  0  0  0  0  0  0  0  0
   58.1760   26.6630   43.7870 C   0  0  0  0  0  0  0  0  0  0  0  0
   57.8070   27.9420   43.3690 C   0  0  0  0  0  0  0  0  0  0  0  0
   57.9330   29.0560   44.2340 C   0  0  0  0  0  0  0  0  0  0  0  0
   57.5410   30.3200   43.8480 N   0  0  0  0  0  0  0  0  0  0  0  0
   56.6290   30.4930   42.6970 C   0  0  0  0  0  0  0  0  0  0  0  0
   58.0200   31.4200   44.5320 C   0  0  0  0  0  0  0  0  0  0  0  0
   57.9120   32.7240   43.9920 C   0  0  0  0  0  0  0  0  0  0  0  0
   58.3930   33.8300   44.6850 C   0  0  0  0  0  0  0  0  0  0  0  0
   59.0780   33.6600   45.8780 C   0  0  0  0  0  0  0  0  0  0  0  0
   59.2910   32.3800   46.4020 C   0  0  0  0  0  0  0  0  0  0  0  0
   60.2940   32.2510   47.4240 N   0  0  0  0  0  0  0  0  0  0  0  0
   61.7210   32.1310   47.1180 C   0  0  0  0  0  0  0  0  0  0  0  0
   62.3290   33.4980   46.7860 C   0  0  0  0  0  0  0  0  0  0  0  0
   63.7760   33.6230   47.2790 C   0  0  0  0  0  0  0  0  0  0  0  0
   63.8290   33.4880   48.7400 N   0  0  0  0  0  0  0  0  0  0  0  0
   63.0510   34.2980   49.5230 C   0  0  0  0  0  0  0  0  0  0  0  0
   63.0690   34.1700   50.9140 C   0  0  0  0  0  0  0  0  0  0  0  0
   63.8840   33.2030   51.5010 C   0  0  0  0  0  0  0  0  0  0  0  0
   64.6640   32.3740   50.6960 C   0  0  0  0  0  0  0  0  0  0  0  0
   64.6200   32.5270   49.3070 C   0  0  0  0  0  0  0  0  0  0  0  0
   58.6580   31.2540   45.7950 C   0  0  0  0  0  0  0  0  0  0  0  0
   59.1749   35.1940   49.8157 H   0  0  0  0  0  0  0  0  0  0  0  0
   60.3647   33.9966   48.9321 H   0  0  0  0  0  0  0  0  0  0  0  0
   58.9605   33.6321   51.6567 H   0  0  0  0  0  0  0  0  0  0  0  0
   61.3543   32.2209   50.4040 H   0  0  0  0  0  0  0  0  0  0  0  0
   60.3936   31.6818   51.8272 H   0  0  0  0  0  0  0  0  0  0  0  0
   58.8640   30.6820   50.5360 H   0  0  0  0  0  0  0  0  0  0  0  0
   61.5219   30.4591   49.3109 H   0  0  0  0  0  0  0  0  0  0  0  0
   60.6125   29.3029   50.3696 H   0  0  0  0  0  0  0  0  0  0  0  0
   60.7408   29.4053   47.4868 H   0  0  0  0  0  0  0  0  0  0  0  0
   59.8756   28.2303   48.5824 H   0  0  0  0  0  0  0  0  0  0  0  0
   57.9940   29.1020   48.1800 H   0  0  0  0  0  0  0  0  0  0  0  0
   58.4860   30.6950   48.3040 H   0  0  0  0  0  0  0  0  0  0  0  0
   59.2587   27.3829   46.9335 H   0  0  0  0  0  0  0  0  0  0  0  0
   58.9706   25.4560   45.3927 H   0  0  0  0  0  0  0  0  0  0  0  0
   58.0614   25.8081   43.1044 H   0  0  0  0  0  0  0  0  0  0  0  0
   57.4124   28.0871   42.3525 H   0  0  0  0  0  0  0  0  0  0  0  0
   55.6097   30.6864   43.0626 H   0  0  0  0  0  0  0  0  0  0  0  0
   56.9668   31.3431   42.0861 H   0  0  0  0  0  0  0  0  0  0  0  0
   56.6320   29.5783   42.0861 H   0  0  0  0  0  0  0  0  0  0  0  0
   57.4401   32.8650   43.0084 H   0  0  0  0  0  0  0  0  0  0  0  0
   58.2294   34.8417   44.2854 H   0  0  0  0  0  0  0  0  0  0  0  0
   59.4579   34.5398   46.4181 H   0  0  0  0  0  0  0  0  0  0  0  0
   60.0440   32.5520   48.3940 H   0  0  0  0  0  0  0  0  0  0  0  0
   62.2414   31.7082   47.9900 H   0  0  0  0  0  0  0  0  0  0  0  0
   61.8376   31.4742   46.2434 H   0  0  0  0  0  0  0  0  0  0  0  0
   62.3131   33.6374   45.6950 H   0  0  0  0  0  0  0  0  0  0  0  0
   61.7305   34.2670   47.2963 H   0  0  0  0  0  0  0  0  0  0  0  0
   64.3859   32.8316   46.8189 H   0  0  0  0  0  0  0  0  0  0  0  0
   64.1667   34.6116   46.9962 H   0  0  0  0  0  0  0  0  0  0  0  0
   62.4066   35.0556   49.0531 H   0  0  0  0  0  0  0  0  0  0  0  0
   62.4462   34.8258   51.5401 H   0  0  0  0  0  0  0  0  0  0  0  0
   63.9115   33.0946   52.5953 H   0  0  0  0  0  0  0  0  0  0  0  0
   65.3083   31.6064   51.1496 H   0  0  0  0  0  0  0  0  0  0  0  0
   65.2258   31.8699   48.6657 H   0  0  0  0  0  0  0  0  0  0  0  0
  1  2  2  0
  2  3  1  0
  3  4  1  0
  4  5  1  0
  5  6  1  0
  6  7  1  0
  7  8  1  0
  8  9  2  0
  9 10  1  0
 10 11  2  0
 11 12  1  0
 12 13  2  0
 13 14  1  0
 14 15  2  0
 15 16  1  0
 15 17  1  0
 17 18  2  0
 18 19  1  0
 19 20  2  0
 20 21  1  0
 21 22  1  0
 22 23  1  0
 23 24  1  0
 24 25  1  0
 25 26  1  0
 26 27  2  0
 27 28  1  0
 28 29  2  0
 29 30  1  0
 30 31  2  0
 21 32  2  0
 32  8  1  0
 14  9  1  0
 32 17  1  0
 31 26  1  0
  1 33  1  0
  1 34  1  0
  2 35  1  0
  3 36  1  0
  3 37  1  0
  4 38  1  0
  5 39  1  0
  5 40  1  0
  6 41  1  0
  6 42  1  0
  7 43  1  0
  7 44  1  0
 10 45  1  0
 11 46  1  0
 12 47  1  0
 13 48  1  0
 16 49  1  0
 16 50  1  0
 16 51  1  0
 18 52  1  0
 19 53  1  0
 20 54  1  0
 22 55  1  0
 23 56  1  0
 23 57  1  0
 24 58  1  0
 24 59  1  0
 25 60  1  0
 25 61  1  0
 27 62  1  0
 28 63  1  0
 29 64  1  0
 30 65  1  0
 31 66  1  0
M  CHG  3   7   1  15   1  26   1
M  END
>  <UniqueID>  (7) 
7

>  <SMILES>  (7) 
C=CCNCC[NH2+]c1c2ccccc2[n+](C)c2cccc(NCCC[n+]3ccccc3)c12

>  <Energy>  (7) 
98.21094394149996

>  <Genealogy>  (7) 
C=CCNCC[NH2+]c1c2ccccc2[n+](C)c2cccc(NCCC[n+]3ccccc3)c12 (protonated)
C=CCNCC[NH2+]c1c2ccccc2[n+](C)c2cccc(NCCC[n+]3ccccc3)c12 (3D coordinates assigned)
C=CCNCC[NH2+]c1c2ccccc2[n+](C)c2cccc(NCCC[n+]3ccccc3)c12 (optimized conformer: 98.21094394149996 kcal/mol)

>  <smiles>  (7) 
C=CCNCCNc1c2ccccc2[n+](C)c2cccc(NCCC[n+]3ccccc3)c12

>  <score_type>  (7) 
oracle

>  <origin>  (7) 
adg

>  <m_score__min__energy>  (7) 
-3.2799999999999998

>  <m_primary>  (7) 
energy

$$$$
7:0
     RDKit          3D

 67 70  0  0  0  0  0  0  0  0999 V2000
   58.8800   29.9070   53.4320 C   0  0  0  0  0  0  0  0  0  0  0  0
   58.2080   29.3700   52.1690 C   0  0  0  0  0  0  0  0  0  0  0  0
   56.7960   29.8010   52.0730 N   0  0  0  0  0  0  0  0  0  0  0  0
   55.9760   29.1560   53.1120 C   0  0  0  0  0  0  0  0  0  0  0  0
   56.5840   31.2710   51.9970 C   0  0  0  0  0  0  0  0  0  0  0  0
   57.3870   32.0030   50.9060 C   0  0  0  0  0  0  0  0  0  0  0  0
   58.6220   32.4500   51.4190 O   0  0  0  0  0  0  0  0  0  0  0  0
   58.4250   33.3480   52.4940 C   0  0  0  0  0  0  0  0  0  0  0  0
   59.7470   33.9960   52.9000 C   0  0  0  0  0  0  0  0  0  0  0  0
   60.8160   33.1630   52.4930 O   0  0  0  0  0  0  0  0  0  0  0  0
   61.5780   33.8030   51.5460 N   0  0  0  0  0  0  0  0  0  0  0  0
   62.6670   32.9220   51.1120 C   0  0  0  0  0  0  0  0  0  0  0  0
   62.1310   31.6340   50.4700 C   0  0  0  0  0  0  0  0  0  0  0  0
   60.6630   31.5710   50.5260 N   0  0  0  0  0  0  0  0  0  0  0  0
   60.1470   30.9220   49.3370 C   0  0  0  0  0  0  0  0  0  0  0  0
   59.5960   31.6810   48.2950 C   0  0  0  0  0  0  0  0  0  0  0  0
   59.1350   31.0870   47.1310 C   0  0  0  0  0  0  0  0  0  0  0  0
   59.0600   29.7260   46.9960 N   0  0  0  0  0  0  0  0  0  0  0  0
   58.2620   29.1390   45.9060 C   0  0  0  0  0  0  0  0  0  0  0  0
   59.6700   28.9300   47.9510 C   0  0  0  0  0  0  0  0  0  0  0  0
   59.8160   27.5340   47.7580 C   0  0  0  0  0  0  0  0  0  0  0  0
   60.3590   26.7230   48.7520 C   0  0  0  0  0  0  0  0  0  0  0  0
   60.7760   27.2740   49.9560 C   0  0  0  0  0  0  0  0  0  0  0  0
   60.6930   28.6500   50.1650 C   0  0  0  0  0  0  0  0  0  0  0  0
   60.1800   29.5080   49.1640 C   0  0  0  0  0  0  0  0  0  0  0  0
   58.6990   32.1600   46.2010 C   0  0  0  0  0  0  0  0  0  0  0  0
   58.3620   32.1350   44.8390 C   0  0  0  0  0  0  0  0  0  0  0  0
   58.0630   33.3480   44.1950 C   0  0  0  0  0  0  0  0  0  0  0  0
   58.1440   34.5680   44.8930 C   0  0  0  0  0  0  0  0  0  0  0  0
   58.5480   34.5870   46.2360 C   0  0  0  0  0  0  0  0  0  0  0  0
   58.8280   33.3720   46.8590 C   0  0  0  0  0  0  0  0  0  0  0  0
   59.3770   33.1290   48.1810 C   0  0  0  0  0  0  0  0  0  0  0  0
   59.5860   34.0060   49.0600 O   0  0  0  0  0  0  0  0  0  0  0  0
   58.3716   29.5007   54.3189 H   0  0  0  0  0  0  0  0  0  0  0  0
   59.9367   29.6018   53.4432 H   0  0  0  0  0  0  0  0  0  0  0  0
   58.8154   31.0050   53.4432 H   0  0  0  0  0  0  0  0  0  0  0  0
   58.7543   29.7414   51.2895 H   0  0  0  0  0  0  0  0  0  0  0  0
   58.2282   28.2710   52.2115 H   0  0  0  0  0  0  0  0  0  0  0  0
   56.3470   29.4478   54.1056 H   0  0  0  0  0  0  0  0  0  0  0  0
   54.9289   29.4751   53.0033 H   0  0  0  0  0  0  0  0  0  0  0  0
   56.0395   28.0632   53.0033 H   0  0  0  0  0  0  0  0  0  0  0  0
   55.5152   31.4495   51.8079 H   0  0  0  0  0  0  0  0  0  0  0  0
   56.9396   31.6765   52.9557 H   0  0  0  0  0  0  0  0  0  0  0  0
   57.5708   31.3144   50.0681 H   0  0  0  0  0  0  0  0  0  0  0  0
   56.8087   32.8729   50.5614 H   0  0  0  0  0  0  0  0  0  0  0  0
   57.7175   34.1318   52.1857 H   0  0  0  0  0  0  0  0  0  0  0  0
   58.0236   32.7909   53.3534 H   0  0  0  0  0  0  0  0  0  0  0  0
   59.8401   34.9784   52.4140 H   0  0  0  0  0  0  0  0  0  0  0  0
   59.7750   34.1275   53.9918 H   0  0  0  0  0  0  0  0  0  0  0  0
   61.0320   34.1340   50.7110 H   0  0  0  0  0  0  0  0  0  0  0  0
   63.2867   33.4562   50.3767 H   0  0  0  0  0  0  0  0  0  0  0  0
   63.2584   32.6447   51.9970 H   0  0  0  0  0  0  0  0  0  0  0  0
   62.4498   31.6003   49.4177 H   0  0  0  0  0  0  0  0  0  0  0  0
   62.5335   30.7773   51.0303 H   0  0  0  0  0  0  0  0  0  0  0  0
   60.2510   32.5240   50.6370 H   0  0  0  0  0  0  0  0  0  0  0  0
   60.3640   31.0530   51.3830 H   0  0  0  0  0  0  0  0  0  0  0  0
   57.4451   28.5381   46.3322 H   0  0  0  0  0  0  0  0  0  0  0  0
   57.8403   29.9437   45.2859 H   0  0  0  0  0  0  0  0  0  0  0  0
   58.9047   28.4968   45.2859 H   0  0  0  0  0  0  0  0  0  0  0  0
   59.4952   27.0830   46.8074 H   0  0  0  0  0  0  0  0  0  0  0  0
   60.4578   25.6407   48.5820 H   0  0  0  0  0  0  0  0  0  0  0  0
   61.1734   26.6225   50.7482 H   0  0  0  0  0  0  0  0  0  0  0  0
   61.0312   29.0745   51.1218 H   0  0  0  0  0  0  0  0  0  0  0  0
   58.3324   31.1845   44.2861 H   0  0  0  0  0  0  0  0  0  0  0  0
   57.7632   33.3441   43.1367 H   0  0  0  0  0  0  0  0  0  0  0  0
   57.8897   35.5091   44.3835 H   0  0  0  0  0  0  0  0  0  0  0  0
   58.6415   35.5364   46.7836 H   0  0  0  0  0  0  0  0  0  0  0  0
  1  2  1  0
  2  3  1  0
  3  4  1  0
  3  5  1  0
  5  6  1  0
  6  7  1  0
  7  8  1  0
  8  9  1  0
  9 10  1  0
 10 11  1  0
 11 12  1  0
 12 13  1  0
 13 14  1  0
 14 15  1  0
 15 16  2  0
 16 17  1  0
 17 18  2  0
 18 19  1  0
 18 20  1  0
 20 21  2  0
 21 22  1  0
 22 23  2  0
 23 24  1  0
 24 25  2  0
 17 26  1  0
 26 27  2  0
 27 28  1  0
 28 29  2  0
 29 30  1  0
 30 31  2  0
 31 32  1  0
 32 33  2  0
 25 15  1  0
 31 26  1  0
 32 16  1  0
 25 20  1  0
  1 34  1  0
  1 35  1  0
  1 36  1  0
  2 37  1  0
  2 38  1  0
  4 39  1  0
  4 40  1  0
  4 41  1  0
  5 42  1  0
  5 43  1  0
  6 44  1  0
  6 45  1  0
  8 46  1  0
  8 47  1  0
  9 48  1  0
  9 49  1  0
 11 50  1  0
 12 51  1  0
 12 52  1  0
 13 53  1  0
 13 54  1  0
 14 55  1  0
 14 56  1  0
 19 57  1  0
 19 58  1  0
 19 59  1  0
 21 60  1  0
 22 61  1  0
 23 62  1  0
 24 63  1  0
 27 64  1  0
 28 65  1  0
 29 66  1  0
 30 67  1  0
M  CHG  2  14   1  18   1
M  END
>  <UniqueID>  (8) 
8

>  <SMILES>  (8) 
CCN(C)CCOCCONCC[NH2+]c1c2c([n+](C)c3ccccc13)-c1ccccc1C2=O

>  <Energy>  (8) 
128.39718952699715

>  <Genealogy>  (8) 
CCN(C)CCOCCONCC[NH2+]c1c2c([n+](C)c3ccccc13)-c1ccccc1C2=O (protonated)
CCN(C)CCOCCONCC[NH2+]c1c2c([n+](C)c3ccccc13)-c1ccccc1C2=O (3D coordinates assigned)
CCN(C)CCOCCONCC[NH2+]c1c2c([n+](C)c3ccccc13)-c1ccccc1C2=O (nonaromatic ring conformer: 128.39718952699715 kcal/mol)

>  <smiles>  (8) 
CCN(C)CCOCCONCCNc1c2c([n+](C)c3ccccc13)-c1ccccc1C2=O

>  <score_type>  (8) 
oracle

>  <origin>  (8) 
adg

>  <m_score__min__energy>  (8) 
-4.9500000000000002

>  <m_primary>  (8) 
energy

$$$$
8:0
     RDKit          3D

 47 48  0  0  0  0  0  0  0  0999 V2000
   57.0360   33.9040   45.2310 C   0  0  0  0  0  0  0  0  0  0  0  0
   57.6190   32.6150   44.6720 C   0  0  0  0  0  0  0  0  0  0  0  0
   56.6900   31.5670   44.8580 O   0  0  0  0  0  0  0  0  0  0  0  0
   56.5860   30.7820   43.6850 C   0  0  0  0  0  0  0  0  0  0  0  0
   55.5110   29.7130   43.8610 C   0  0  0  0  0  0  0  0  0  0  0  0
   55.6600   29.0770   45.1640 N   0  0  0  0  0  0  0  0  0  0  0  0
   56.6500   28.0930   45.4880 C   0  0  0  0  0  0  0  0  0  0  0  0
   56.2650   27.0020   45.9850 O   0  0  0  0  0  0  0  0  0  0  0  0
   58.1340   28.3620   45.2900 C   0  0  2  0  0  0  0  0  0  0  0  0
   59.0110   27.1920   45.7710 C   0  0  0  0  0  0  0  0  0  0  0  0
   59.1600   27.1250   47.3010 C   0  0  0  0  0  0  0  0  0  0  0  0
   58.8720   28.4640   48.0040 C   0  0  0  0  0  0  0  0  0  0  0  0
   59.2900   29.6390   47.2060 N   0  0  1  0  0  0  0  0  0  0  0  0
   60.7630   29.7340   47.0230 C   0  0  0  0  0  0  0  0  0  0  0  0
   61.2640   31.1580   47.1200 C   0  0  0  0  0  0  0  0  0  0  0  0
   62.6140   31.4120   47.4150 C   0  0  0  0  0  0  0  0  0  0  0  0
   63.0850   32.7260   47.4860 C   0  0  0  0  0  0  0  0  0  0  0  0
   62.2140   33.7960   47.2650 C   0  0  0  0  0  0  0  0  0  0  0  0
   60.8670   33.5530   46.9720 C   0  0  0  0  0  0  0  0  0  0  0  0
   59.7750   34.8970   46.6920 Cl  0  0  0  0  0  0  0  0  0  0  0  0
   60.3930   32.2380   46.9000 C   0  0  0  0  0  0  0  0  0  0  0  0
   58.5560   29.7270   45.9120 C   0  0  0  0  0  0  0  0  0  0  0  0
   57.0525   33.8675   46.3303 H   0  0  0  0  0  0  0  0  0  0  0  0
   57.6353   34.7585   44.8835 H   0  0  0  0  0  0  0  0  0  0  0  0
   55.9986   34.0182   44.8835 H   0  0  0  0  0  0  0  0  0  0  0  0
   57.8240   32.7389   43.5984 H   0  0  0  0  0  0  0  0  0  0  0  0
   58.5565   32.3755   45.1952 H   0  0  0  0  0  0  0  0  0  0  0  0
   56.3193   31.4295   42.8367 H   0  0  0  0  0  0  0  0  0  0  0  0
   57.5521   30.2920   43.4937 H   0  0  0  0  0  0  0  0  0  0  0  0
   54.5170   30.1792   43.7931 H   0  0  0  0  0  0  0  0  0  0  0  0
   55.6179   28.9550   43.0711 H   0  0  0  0  0  0  0  0  0  0  0  0
   58.3078   28.4405   44.2067 H   0  0  0  0  0  0  0  0  0  0  0  0
   58.5580   26.2517   45.4238 H   0  0  0  0  0  0  0  0  0  0  0  0
   60.0169   27.3492   45.3546 H   0  0  0  0  0  0  0  0  0  0  0  0
   58.4581   26.3709   47.6867 H   0  0  0  0  0  0  0  0  0  0  0  0
   60.2078   26.8661   47.5136 H   0  0  0  0  0  0  0  0  0  0  0  0
   57.7906   28.5353   48.1925 H   0  0  0  0  0  0  0  0  0  0  0  0
   59.4538   28.4769   48.9375 H   0  0  0  0  0  0  0  0  0  0  0  0
   59.0060   30.4830   47.7600 H   0  0  0  0  0  0  0  0  0  0  0  0
   61.2555   29.1322   47.8010 H   0  0  0  0  0  0  0  0  0  0  0  0
   61.0012   29.3619   46.0156 H   0  0  0  0  0  0  0  0  0  0  0  0
   63.3033   30.5730   47.5909 H   0  0  0  0  0  0  0  0  0  0  0  0
   64.1433   32.9182   47.7163 H   0  0  0  0  0  0  0  0  0  0  0  0
   62.5869   34.8293   47.3213 H   0  0  0  0  0  0  0  0  0  0  0  0
   59.3339   32.0494   46.6702 H   0  0  0  0  0  0  0  0  0  0  0  0
   57.6449   30.3206   46.0781 H   0  0  0  0  0  0  0  0  0  0  0  0
   59.2559   30.1832   45.1964 H   0  0  0  0  0  0  0  0  0  0  0  0
  1  2  1  0
  2  3  1  0
  3  4  1  0
  4  5  1  0
  5  6  1  0
  6  7  1  0
  7  8  2  0
  7  9  1  0
  9 10  1  0
 10 11  1  0
 11 12  1  0
 12 13  1  0
 13 14  1  0
 14 15  1  0
 15 16  2  0
 16 17  1  0
 17 18  2  0
 18 19  1  0
 19 20  1  0
 19 21  2  0
 13 22  1  0
 22  9  1  0
 21 15  1  0
  1 23  1  0
  1 24  1  0
  1 25  1  0
  2 26  1  0
  2 27  1  0
  4 28  1  0
  4 29  1  0
  5 30  1  0
  5 31  1  0
  9 32  1  6
 10 33  1  0
 10 34  1  0
 11 35  1  0
 11 36  1  0
 12 37  1  0
 12 38  1  0
 13 39  1  1
 14 40  1  0
 14 41  1  0
 16 42  1  0
 17 43  1  0
 18 44  1  0
 21 45  1  0
 22 46  1  0
 22 47  1  0
M  CHG  2   6  -1  13   1
M  END
>  <UniqueID>  (9) 
9

>  <SMILES>  (9) 
CCOCC[N-]C(=O)[C@@H]1CCC[N@@H+](Cc2cccc(Cl)c2)C1

>  <Energy>  (9) 
53.81711144458575

>  <Genealogy>  (9) 
CCOCC[N-]C(=O)C1CCC[NH+](Cc2cccc(Cl)c2)C1 (protonated)
CCOCC[N-]C(=O)[C@@H]1CCC[N@@H+](Cc2cccc(Cl)c2)C1 (chirality)
CCOCC[N-]C(=O)[C@@H]1CCC[N@@H+](Cc2cccc(Cl)c2)C1 (3D coordinates assigned)
CCOCC[N-]C(=O)[C@@H]1CCC[N@@H+](Cc2cccc(Cl)c2)C1 (nonaromatic ring conformer: 53.81711144458575 kcal/mol)

>  <smiles>  (9) 
CCOCCNC(=O)C1CCCN(Cc2cccc(Cl)c2)C1

>  <score_type>  (9) 
oracle

>  <origin>  (9) 
adg

>  <m_score__min__energy>  (9) 
-8.3599999999999994

>  <m_primary>  (9) 
energy

$$$$
9:0
     RDKit          3D

 70 73  0  0  0  0  0  0  0  0999 V2000
   57.2510   31.2080   43.5110 C   0  0  0  0  0  0  0  0  0  0  0  0
   56.2180   30.2080   44.0460 C   0  0  0  0  0  0  0  0  0  0  0  0
   56.6040   29.6640   45.3620 N   0  0  0  0  0  0  0  0  0  0  0  0
   57.1080   28.2830   45.2760 C   0  0  0  0  0  0  0  0  0  0  0  0
   58.5300   28.2150   45.8380 C   0  0  0  0  0  0  0  0  0  0  0  0
   59.4520   29.2150   45.1240 C   0  0  0  0  0  0  0  0  0  0  0  0
   59.7550   30.4540   45.9870 C   0  0  0  0  0  0  0  0  0  0  0  0
   61.0370   30.3340   46.8330 C   0  0  0  0  0  0  0  0  0  0  0  0
   60.7380   30.2690   48.3420 C   0  0  0  0  0  0  0  0  0  0  0  0
   59.2440   30.0630   48.6370 C   0  0  0  0  0  0  0  0  0  0  0  0
   58.6360   31.2280   49.1640 O   0  0  0  0  0  0  0  0  0  0  0  0
   59.1130   31.5310   50.4620 C   0  0  0  0  0  0  0  0  0  0  0  0
   58.5080   32.8480   50.9580 C   0  0  0  0  0  0  0  0  0  0  0  0
   59.4970   33.9370   50.9300 N   0  0  0  0  0  0  0  0  0  0  0  0
   60.4920   33.6970   49.9030 C   0  0  0  0  0  0  0  0  0  0  0  0
   61.8090   33.3840   50.2580 C   0  0  0  0  0  0  0  0  0  0  0  0
   62.8060   33.2480   49.3030 C   0  0  0  0  0  0  0  0  0  0  0  0
   62.5230   33.2450   47.9650 N   0  0  0  0  0  0  0  0  0  0  0  0
   63.5360   32.7790   47.0020 C   0  0  0  0  0  0  0  0  0  0  0  0
   61.2540   33.6160   47.5510 C   0  0  0  0  0  0  0  0  0  0  0  0
   60.9590   33.8310   46.1820 C   0  0  0  0  0  0  0  0  0  0  0  0
   59.6670   34.1380   45.7630 C   0  0  0  0  0  0  0  0  0  0  0  0
   58.6400   34.2530   46.6900 C   0  0  0  0  0  0  0  0  0  0  0  0
   58.8980   34.0940   48.0490 C   0  0  0  0  0  0  0  0  0  0  0  0
   60.2020   33.8080   48.5130 C   0  0  0  0  0  0  0  0  0  0  0  0
   64.0970   33.0400   50.0070 C   0  0  0  0  0  0  0  0  0  0  0  0
   65.4240   33.0750   49.5530 C   0  0  0  0  0  0  0  0  0  0  0  0
   66.4630   32.9280   50.4920 C   0  0  0  0  0  0  0  0  0  0  0  0
   66.1740   32.7900   51.8630 C   0  0  0  0  0  0  0  0  0  0  0  0
   64.8460   32.8230   52.3130 C   0  0  0  0  0  0  0  0  0  0  0  0
   63.8320   32.9620   51.3670 C   0  0  0  0  0  0  0  0  0  0  0  0
   62.4100   33.1590   51.5770 C   0  0  0  0  0  0  0  0  0  0  0  0
   61.8190   33.1060   52.6900 O   0  0  0  0  0  0  0  0  0  0  0  0
   57.7578   31.6986   44.3551 H   0  0  0  0  0  0  0  0  0  0  0  0
   57.9927   30.6759   42.8971 H   0  0  0  0  0  0  0  0  0  0  0  0
   56.7433   31.9665   42.8971 H   0  0  0  0  0  0  0  0  0  0  0  0
   55.2480   30.7175   44.1432 H   0  0  0  0  0  0  0  0  0  0  0  0
   56.1583   29.3695   43.3365 H   0  0  0  0  0  0  0  0  0  0  0  0
   55.7830   29.6980   46.0160 H   0  0  0  0  0  0  0  0  0  0  0  0
   56.4529   27.6181   45.8581 H   0  0  0  0  0  0  0  0  0  0  0  0
   57.1176   27.9644   44.2232 H   0  0  0  0  0  0  0  0  0  0  0  0
   58.5043   28.4526   46.9117 H   0  0  0  0  0  0  0  0  0  0  0  0
   58.9223   27.2000   45.6775 H   0  0  0  0  0  0  0  0  0  0  0  0
   60.4001   28.7117   44.8834 H   0  0  0  0  0  0  0  0  0  0  0  0
   58.9354   29.5575   44.2153 H   0  0  0  0  0  0  0  0  0  0  0  0
   59.8616   31.3219   45.3197 H   0  0  0  0  0  0  0  0  0  0  0  0
   58.9183   30.5607   46.6930 H   0  0  0  0  0  0  0  0  0  0  0  0
   61.5707   29.4183   46.5385 H   0  0  0  0  0  0  0  0  0  0  0  0
   61.6464   31.2312   46.6493 H   0  0  0  0  0  0  0  0  0  0  0  0
   61.3025   29.4315   48.7778 H   0  0  0  0  0  0  0  0  0  0  0  0
   61.0366   31.2311   48.7839 H   0  0  0  0  0  0  0  0  0  0  0  0
   58.7331   29.7890   47.7022 H   0  0  0  0  0  0  0  0  0  0  0  0
   59.1559   29.2665   49.3905 H   0  0  0  0  0  0  0  0  0  0  0  0
   58.8312   30.7205   51.1503 H   0  0  0  0  0  0  0  0  0  0  0  0
   60.2078   31.6319   50.4258 H   0  0  0  0  0  0  0  0  0  0  0  0
   57.6598   33.1181   50.3117 H   0  0  0  0  0  0  0  0  0  0  0  0
   58.1772   32.7073   51.9976 H   0  0  0  0  0  0  0  0  0  0  0  0
   59.9660   34.0160   51.8580 H   0  0  0  0  0  0  0  0  0  0  0  0
   59.0310   34.8600   50.7930 H   0  0  0  0  0  0  0  0  0  0  0  0
   64.4039   32.3797   47.5472 H   0  0  0  0  0  0  0  0  0  0  0  0
   63.1048   31.9887   46.3699 H   0  0  0  0  0  0  0  0  0  0  0  0
   63.8555   33.6206   46.3699 H   0  0  0  0  0  0  0  0  0  0  0  0
   61.7647   33.7541   45.4371 H   0  0  0  0  0  0  0  0  0  0  0  0
   59.4594   34.2900   44.6935 H   0  0  0  0  0  0  0  0  0  0  0  0
   57.6171   34.4709   46.3491 H   0  0  0  0  0  0  0  0  0  0  0  0
   58.0749   34.1924   48.7721 H   0  0  0  0  0  0  0  0  0  0  0  0
   65.6483   33.2144   48.4852 H   0  0  0  0  0  0  0  0  0  0  0  0
   67.5090   32.9209   50.1516 H   0  0  0  0  0  0  0  0  0  0  0  0
   66.9934   32.6557   52.5845 H   0  0  0  0  0  0  0  0  0  0  0  0
   64.6109   32.7413   53.3845 H   0  0  0  0  0  0  0  0  0  0  0  0
  1  2  1  0
  2  3  1  0
  3  4  1  0
  4  5  1  0
  5  6  1  0
  6  7  1  0
  7  8  1  0
  8  9  1  0
  9 10  1  0
 10 11  1  0
 11 12  1  0
 12 13  1  0
 13 14  1  0
 14 15  1  0
 15 16  2  0
 16 17  1  0
 17 18  2  0
 18 19  1  0
 18 20  1  0
 20 21  2  0
 21 22  1  0
 22 23  2  0
 23 24  1  0
 24 25  2  0
 17 26  1  0
 26 27  2  0
 27 28  1  0
 28 29  2  0
 29 30  1  0
 30 31  2  0
 31 32  1  0
 32 33  2  0
 25 15  1  0
 31 26  1  0
 32 16  1  0
 25 20  1  0
  1 34  1  0
  1 35  1  0
  1 36  1  0
  2 37  1  0
  2 38  1  0
  3 39  1  0
  4 40  1  0
  4 41  1  0
  5 42  1  0
  5 43  1  0
  6 44  1  0
  6 45  1  0
  7 46  1  0
  7 47  1  0
  8 48  1  0
  8 49  1  0
  9 50  1  0
  9 51  1  0
 10 52  1  0
 10 53  1  0
 12 54  1  0
 12 55  1  0
 13 56  1  0
 13 57  1  0
 14 58  1  0
 14 59  1  0
 19 60  1  0
 19 61  1  0
 19 62  1  0
 21 63  1  0
 22 64  1  0
 23 65  1  0
 24 66  1  0
 27 67  1  0
 28 68  1  0
 29 69  1  0
 30 70  1  0
M  CHG  2  14   1  18   1
M  END
>  <UniqueID>  (10) 
10

>  <SMILES>  (10) 
CCNCCCCCCCOCC[NH2+]c1c2c([n+](C)c3ccccc13)-c1ccccc1C2=O

>  <Energy>  (10) 
118.79322467642363

>  <Genealogy>  (10) 
CCNCCCCCCCOCC[NH2+]c1c2c([n+](C)c3ccccc13)-c1ccccc1C2=O (protonated)
CCNCCCCCCCOCC[NH2+]c1c2c([n+](C)c3ccccc13)-c1ccccc1C2=O (3D coordinates assigned)
CCNCCCCCCCOCC[NH2+]c1c2c([n+](C)c3ccccc13)-c1ccccc1C2=O (nonaromatic ring conformer: 118.79322467642363 kcal/mol)

>  <smiles>  (10) 
CCNCCCCCCCOCCNc1c2c([n+](C)c3ccccc13)-c1ccccc1C2=O

>  <score_type>  (10) 
oracle

>  <origin>  (10) 
adg

>  <m_score__min__energy>  (10) 
-5.3399999999999999

>  <m_primary>  (10) 
energy

$$$$
10:0
     RDKit          3D

 40 40  0  0  0  0  0  0  0  0999 V2000
   58.1480   27.0970   43.0090 C   0  0  0  0  0  0  0  0  0  0  0  0
   58.8560   27.8250   44.1560 C   0  0  0  0  0  0  0  0  0  0  0  0
   58.4360   29.2320   44.2730 N   0  0  0  0  0  0  0  0  0  0  0  0
   57.0430   29.3540   44.7240 C   0  0  0  0  0  0  0  0  0  0  0  0
   56.4350   30.6950   44.2720 C   0  0  0  0  0  0  0  0  0  0  0  0
   57.4180   31.5190   43.5200 N   0  0  0  0  0  0  0  0  0  0  0  0
   57.0700   31.5770   42.0810 C   0  0  0  0  0  0  0  0  0  0  0  0
   58.1110   32.3880   41.3100 C   0  0  0  0  0  0  0  0  0  0  0  0
   57.5640   32.8780   44.1060 C   0  0  0  0  0  0  0  0  0  0  0  0
   58.6160   32.8760   45.1710 C   0  0  0  0  0  0  0  0  0  0  0  0
   59.0300   33.9460   45.9390 C   0  0  0  0  0  0  0  0  0  0  0  0
   59.9130   33.4520   46.8280 N   0  0  0  0  0  0  0  0  0  0  0  0
   60.5890   34.1910   47.8870 C   0  0  0  0  0  0  0  0  0  0  0  0
   59.7500   34.1720   49.1600 C   0  0  0  0  0  0  0  0  0  0  0  0
   58.8610   33.1150   49.1170 F   0  0  0  0  0  0  0  0  0  0  0  0
   60.0120   32.1430   46.6480 N   0  0  0  0  0  0  0  0  0  0  0  0
   59.2300   31.7750   45.6450 N   0  0  0  0  0  0  0  0  0  0  0  0
   57.4372   26.3661   43.4219 H   0  0  0  0  0  0  0  0  0  0  0  0
   57.6054   27.8273   42.3907 H   0  0  0  0  0  0  0  0  0  0  0  0
   58.8931   26.5749   42.3907 H   0  0  0  0  0  0  0  0  0  0  0  0
   58.6245   27.3078   45.0988 H   0  0  0  0  0  0  0  0  0  0  0  0
   59.9354   27.8140   43.9443 H   0  0  0  0  0  0  0  0  0  0  0  0
   58.5580   29.7120   43.3530 H   0  0  0  0  0  0  0  0  0  0  0  0
   56.4529   28.5291   44.2981 H   0  0  0  0  0  0  0  0  0  0  0  0
   57.0242   29.3120   45.8230 H   0  0  0  0  0  0  0  0  0  0  0  0
   55.5692   30.4935   43.6242 H   0  0  0  0  0  0  0  0  0  0  0  0
   56.1339   31.2548   45.1697 H   0  0  0  0  0  0  0  0  0  0  0  0
   57.0348   30.5550   41.6757 H   0  0  0  0  0  0  0  0  0  0  0  0
   56.0890   32.0626   41.9719 H   0  0  0  0  0  0  0  0  0  0  0  0
   58.7735   32.9041   42.0205 H   0  0  0  0  0  0  0  0  0  0  0  0
   58.7064   31.7133   40.6773 H   0  0  0  0  0  0  0  0  0  0  0  0
   57.6024   33.1303   40.6773 H   0  0  0  0  0  0  0  0  0  0  0  0
   57.8511   33.5854   43.3141 H   0  0  0  0  0  0  0  0  0  0  0  0
   56.6048   33.1795   44.5521 H   0  0  0  0  0  0  0  0  0  0  0  0
   58.7040   34.9923   45.8439 H   0  0  0  0  0  0  0  0  0  0  0  0
   61.5654   33.7262   48.0883 H   0  0  0  0  0  0  0  0  0  0  0  0
   60.7288   35.2334   47.5646 H   0  0  0  0  0  0  0  0  0  0  0  0
   60.4111   34.0583   50.0318 H   0  0  0  0  0  0  0  0  0  0  0  0
   59.1901   35.1154   49.2410 H   0  0  0  0  0  0  0  0  0  0  0  0
   59.1140   30.7930   45.3100 H   0  0  0  0  0  0  0  0  0  0  0  0
  1  2  1  0
  2  3  1  0
  3  4  1  0
  4  5  1  0
  5  6  1  0
  6  7  1  0
  7  8  1  0
  6  9  1  0
  9 10  1  0
 10 11  2  0
 11 12  1  0
 12 13  1  0
 13 14  1  0
 14 15  1  0
 12 16  1  0
 16 17  2  0
 17 10  1  0
  1 18  1  0
  1 19  1  0
  1 20  1  0
  2 21  1  0
  2 22  1  0
  3 23  1  0
  4 24  1  0
  4 25  1  0
  5 26  1  0
  5 27  1  0
  7 28  1  0
  7 29  1  0
  8 30  1  0
  8 31  1  0
  8 32  1  0
  9 33  1  0
  9 34  1  0
 11 35  1  0
 13 36  1  0
 13 37  1  0
 14 38  1  0
 14 39  1  0
 17 40  1  0
M  CHG  1  17   1
M  END
>  <UniqueID>  (11) 
11

>  <SMILES>  (11) 
CCNCCN(CC)Cc1cn(CCF)n[nH+]1

>  <Energy>  (11) 
68.23871908466816

>  <Genealogy>  (11) 
CCNCCN(CC)Cc1cn(CCF)n[nH+]1 (protonated)
CCNCCN(CC)Cc1cn(CCF)n[nH+]1 (3D coordinates assigned)
CCNCCN(CC)Cc1cn(CCF)n[nH+]1 (optimized conformer: 68.23871908466816 kcal/mol)

>  <smiles>  (11) 
CCNCCN(CC)Cc1cn(CCF)nn1

>  <score_type>  (11) 
oracle

>  <origin>  (11) 
adg

>  <m_score__min__energy>  (11) 
-3.04

>  <m_primary>  (11) 
energy

$$$$
11:0
     RDKit          3D

 49 51  0  0  0  0  0  0  0  0999 V2000
   63.3700   33.8360   46.3580 C   0  0  0  0  0  0  0  0  0  0  0  0
   63.7130   33.8500   47.8460 C   0  0  0  0  0  0  0  0  0  0  0  0
   62.6340   33.2310   48.6540 N   0  0  0  0  0  0  0  0  0  0  0  0
   62.4470   34.0100   49.9030 C   0  0  0  0  0  0  0  0  0  0  0  0
   61.0450   33.8400   50.4870 C   0  0  0  0  0  0  0  0  0  0  0  0
   62.9280   31.7980   48.9350 C   0  0  0  0  0  0  0  0  0  0  0  0
   61.8890   30.8800   48.2680 C   0  0  0  0  0  0  0  0  0  0  0  0
   60.5280   31.4350   48.3570 N   0  0  0  0  0  0  0  0  0  0  0  0
   59.9300   31.5130   47.0280 C   0  0  0  0  0  0  0  0  0  0  0  0
   59.6790   32.7820   46.4330 C   0  0  0  0  0  0  0  0  0  0  0  0
   60.1970   33.9820   46.9780 C   0  0  0  0  0  0  0  0  0  0  0  0
   59.9900   35.1720   46.3630 N   0  0  0  0  0  0  0  0  0  0  0  0
   59.2860   35.2660   45.2130 C   0  0  0  0  0  0  0  0  0  0  0  0
   58.7330   34.1280   44.6370 C   0  0  0  0  0  0  0  0  0  0  0  0
   58.8980   32.8620   45.2500 C   0  0  0  0  0  0  0  0  0  0  0  0
   58.2800   31.6880   44.7510 C   0  0  0  0  0  0  0  0  0  0  0  0
   57.3410   31.7160   43.6860 C   0  0  0  0  0  0  0  0  0  0  0  0
   56.7150   30.5530   43.2480 C   0  0  0  0  0  0  0  0  0  0  0  0
   56.9820   29.3420   43.8670 C   0  0  0  0  0  0  0  0  0  0  0  0
   57.8950   29.2810   44.9160 C   0  0  0  0  0  0  0  0  0  0  0  0
   58.5880   30.4380   45.3580 C   0  0  0  0  0  0  0  0  0  0  0  0
   59.5200   30.3670   46.3740 N   0  0  0  0  0  0  0  0  0  0  0  0
   60.1110   29.0620   46.7420 C   0  0  0  0  0  0  0  0  0  0  0  0
   62.2779   33.7914   46.2339 H   0  0  0  0  0  0  0  0  0  0  0  0
   63.7559   34.7506   45.8841 H   0  0  0  0  0  0  0  0  0  0  0  0
   63.8291   32.9558   45.8841 H   0  0  0  0  0  0  0  0  0  0  0  0
   64.6458   33.2887   48.0039 H   0  0  0  0  0  0  0  0  0  0  0  0
   63.8292   34.8961   48.1655 H   0  0  0  0  0  0  0  0  0  0  0  0
   63.1835   33.6698   50.6459 H   0  0  0  0  0  0  0  0  0  0  0  0
   62.5841   35.0741   49.6602 H   0  0  0  0  0  0  0  0  0  0  0  0
   61.1021   33.8469   51.5855 H   0  0  0  0  0  0  0  0  0  0  0  0
   60.4038   34.6670   50.1479 H   0  0  0  0  0  0  0  0  0  0  0  0
   60.6200   32.8837   50.1479 H   0  0  0  0  0  0  0  0  0  0  0  0
   63.9271   31.5528   48.5455 H   0  0  0  0  0  0  0  0  0  0  0  0
   62.8884   31.6393   50.0228 H   0  0  0  0  0  0  0  0  0  0  0  0
   62.1535   30.7552   47.2076 H   0  0  0  0  0  0  0  0  0  0  0  0
   61.8986   29.9148   48.7955 H   0  0  0  0  0  0  0  0  0  0  0  0
   59.9240   30.8720   48.9930 H   0  0  0  0  0  0  0  0  0  0  0  0
   60.6110   32.3620   48.8210 H   0  0  0  0  0  0  0  0  0  0  0  0
   60.7752   33.9479   47.9132 H   0  0  0  0  0  0  0  0  0  0  0  0
   59.1503   36.2457   44.7315 H   0  0  0  0  0  0  0  0  0  0  0  0
   58.1638   34.2114   43.6994 H   0  0  0  0  0  0  0  0  0  0  0  0
   57.1045   32.6735   43.1989 H   0  0  0  0  0  0  0  0  0  0  0  0
   56.0061   30.5949   42.4079 H   0  0  0  0  0  0  0  0  0  0  0  0
   56.4718   28.4280   43.5289 H   0  0  0  0  0  0  0  0  0  0  0  0
   58.0830   28.3173   45.4120 H   0  0  0  0  0  0  0  0  0  0  0  0
   60.1511   28.9735   47.8377 H   0  0  0  0  0  0  0  0  0  0  0  0
   59.4926   28.2504   46.3310 H   0  0  0  0  0  0  0  0  0  0  0  0
   61.1289   28.9915   46.3310 H   0  0  0  0  0  0  0  0  0  0  0  0
  1  2  1  0
  2  3  1  0
  3  4  1  0
  4  5  1  0
  3  6  1  0
  6  7  1  0
  7  8  1  0
  8  9  1  0
  9 10  2  0
 10 11  1  0
 11 12  2  0
 12 13  1  0
 13 14  2  0
 14 15  1  0
 15 16  2  0
 16 17  1  0
 17 18  2  0
 18 19  1  0
 19 20  2  0
 20 21  1  0
 21 22  2  0
 22 23  1  0
 22  9  1  0
 15 10  1  0
 21 16  1  0
  1 24  1  0
  1 25  1  0
  1 26  1  0
  2 27  1  0
  2 28  1  0
  4 29  1  0
  4 30  1  0
  5 31  1  0
  5 32  1  0
  5 33  1  0
  6 34  1  0
  6 35  1  0
  7 36  1  0
  7 37  1  0
  8 38  1  0
  8 39  1  0
 11 40  1  0
 13 41  1  0
 14 42  1  0
 17 43  1  0
 18 44  1  0
 19 45  1  0
 20 46  1  0
 23 47  1  0
 23 48  1  0
 23 49  1  0
M  CHG  2   8   1  22   1
M  END
>  <UniqueID>  (12) 
12

>  <SMILES>  (12) 
CCN(CC)CC[NH2+]c1c2cnccc2c2ccccc2[n+]1C

>  <Energy>  (12) 
80.45802412230871

>  <Genealogy>  (12) 
CCN(CC)CC[NH2+]c1c2cnccc2c2ccccc2[n+]1C (protonated)
CCN(CC)CC[NH2+]c1c2cnccc2c2ccccc2[n+]1C (3D coordinates assigned)
CCN(CC)CC[NH2+]c1c2cnccc2c2ccccc2[n+]1C (optimized conformer: 80.45802412230871 kcal/mol)

>  <smiles>  (12) 
CCN(CC)CCNc1c2cnccc2c2ccccc2[n+]1C

>  <score_type>  (12) 
oracle

>  <origin>  (12) 
adg

>  <m_score__min__energy>  (12) 
-3.8799999999999999

>  <m_primary>  (12) 
energy

$$$$
12:0
     RDKit          3D

 64 66  0  0  0  0  0  0  0  0999 V2000
   63.3330   33.2280   47.5410 C   0  0  0  0  0  0  0  0  0  0  0  0
   62.8140   31.8460   47.1510 C   0  0  0  0  0  0  0  0  0  0  0  0
   61.6550   31.5310   47.9020 O   0  0  0  0  0  0  0  0  0  0  0  0
   62.0070   30.9380   49.1370 C   0  0  0  0  0  0  0  0  0  0  0  0
   61.5370   31.8330   50.2900 C   0  0  0  0  0  0  0  0  0  0  0  0
   60.8740   33.0560   49.8140 N   0  0  0  0  0  0  0  0  0  0  0  0
   60.2760   33.8290   50.9150 C   0  0  0  0  0  0  0  0  0  0  0  0
   59.0480   33.1150   51.4860 C   0  0  0  0  0  0  0  0  0  0  0  0
   58.4360   32.3390   50.4730 O   0  0  0  0  0  0  0  0  0  0  0  0
   58.3080   30.9920   50.8890 C   0  0  0  0  0  0  0  0  0  0  0  0
   58.5450   30.0260   49.7260 C   0  0  0  0  0  0  0  0  0  0  0  0
   59.1060   30.7250   48.5690 N   0  0  0  0  0  0  0  0  0  0  0  0
   58.9310   30.2210   47.2340 C   0  0  0  0  0  0  0  0  0  0  0  0
   59.2450   28.8760   46.9620 C   0  0  0  0  0  0  0  0  0  0  0  0
   59.9120   28.0800   47.9180 C   0  0  0  0  0  0  0  0  0  0  0  0
   60.2370   26.7540   47.6430 C   0  0  0  0  0  0  0  0  0  0  0  0
   59.9160   26.2020   46.4100 C   0  0  0  0  0  0  0  0  0  0  0  0
   59.2760   26.9750   45.4420 C   0  0  0  0  0  0  0  0  0  0  0  0
   58.9170   28.3230   45.7000 C   0  0  0  0  0  0  0  0  0  0  0  0
   58.2820   29.0970   44.7530 N   0  0  0  0  0  0  0  0  0  0  0  0
   57.6610   28.4560   43.5720 C   0  0  0  0  0  0  0  0  0  0  0  0
   58.2180   30.4670   44.9110 C   0  0  0  0  0  0  0  0  0  0  0  0
   57.8980   31.3090   43.8210 C   0  0  0  0  0  0  0  0  0  0  0  0
   57.7830   32.6820   43.9820 C   0  0  0  0  0  0  0  0  0  0  0  0
   57.9750   33.2570   45.2280 C   0  0  0  0  0  0  0  0  0  0  0  0
   58.3220   32.4690   46.3420 C   0  0  0  0  0  0  0  0  0  0  0  0
   58.5220   33.0660   47.6020 O   0  0  0  0  0  0  0  0  0  0  0  0
   59.0690   34.3620   47.8540 C   0  0  0  0  0  0  0  0  0  0  0  0
   60.2950   34.6180   46.9800 C   0  0  0  0  0  0  0  0  0  0  0  0
   58.4890   31.0610   46.1810 C   0  0  0  0  0  0  0  0  0  0  0  0
   63.3645   33.3119   48.6373 H   0  0  0  0  0  0  0  0  0  0  0  0
   64.3450   33.3681   47.1333 H   0  0  0  0  0  0  0  0  0  0  0  0
   62.6634   33.9996   47.1333 H   0  0  0  0  0  0  0  0  0  0  0  0
   62.5659   31.8397   46.0794 H   0  0  0  0  0  0  0  0  0  0  0  0
   63.5924   31.0973   47.3596 H   0  0  0  0  0  0  0  0  0  0  0  0
   61.5265   29.9519   49.2197 H   0  0  0  0  0  0  0  0  0  0  0  0
   63.0996   30.8207   49.1876 H   0  0  0  0  0  0  0  0  0  0  0  0
   60.8285   31.2658   50.9116 H   0  0  0  0  0  0  0  0  0  0  0  0
   62.4250   32.1342   50.8650 H   0  0  0  0  0  0  0  0  0  0  0  0
   60.1050   32.7440   49.1730 H   0  0  0  0  0  0  0  0  0  0  0  0
   61.0225   33.9539   51.7132 H   0  0  0  0  0  0  0  0  0  0  0  0
   59.9608   34.8077   50.5240 H   0  0  0  0  0  0  0  0  0  0  0  0
   59.3576   32.4590   52.3129 H   0  0  0  0  0  0  0  0  0  0  0  0
   58.3309   33.8620   51.8572 H   0  0  0  0  0  0  0  0  0  0  0  0
   59.0459   30.7894   51.6792 H   0  0  0  0  0  0  0  0  0  0  0  0
   57.2850   30.8400   51.2636 H   0  0  0  0  0  0  0  0  0  0  0  0
   59.2463   29.2417   50.0471 H   0  0  0  0  0  0  0  0  0  0  0  0
   57.5803   29.5850   49.4348 H   0  0  0  0  0  0  0  0  0  0  0  0
   59.6640   31.5940   48.7230 H   0  0  0  0  0  0  0  0  0  0  0  0
   60.1787   28.5129   48.8934 H   0  0  0  0  0  0  0  0  0  0  0  0
   60.7479   26.1440   48.4025 H   0  0  0  0  0  0  0  0  0  0  0  0
   60.1672   25.1526   46.1964 H   0  0  0  0  0  0  0  0  0  0  0  0
   59.0456   26.5322   44.4618 H   0  0  0  0  0  0  0  0  0  0  0  0
   56.9315   27.7030   43.9047 H   0  0  0  0  0  0  0  0  0  0  0  0
   57.1500   29.2193   42.9668 H   0  0  0  0  0  0  0  0  0  0  0  0
   58.4401   27.9694   42.9668 H   0  0  0  0  0  0  0  0  0  0  0  0
   57.7372   30.8669   42.8267 H   0  0  0  0  0  0  0  0  0  0  0  0
   57.5385   33.3166   43.1174 H   0  0  0  0  0  0  0  0  0  0  0  0
   57.8547   34.3437   45.3484 H   0  0  0  0  0  0  0  0  0  0  0  0
   58.3058   35.1233   47.6351 H   0  0  0  0  0  0  0  0  0  0  0  0
   59.3740   34.4145   48.9096 H   0  0  0  0  0  0  0  0  0  0  0  0
   61.1703   34.8008   47.6207 H   0  0  0  0  0  0  0  0  0  0  0  0
   60.4824   33.7396   46.3449 H   0  0  0  0  0  0  0  0  0  0  0  0
   60.1153   35.4980   46.3449 H   0  0  0  0  0  0  0  0  0  0  0  0
  1  2  1  0
  2  3  1  0
  3  4  1  0
  4  5  1  0
  5  6  1  0
  6  7  1  0
  7  8  1  0
  8  9  1  0
  9 10  1  0
 10 11  1  0
 11 12  1  0
 12 13  1  0
 13 14  2  0
 14 15  1  0
 15 16  2  0
 16 17  1  0
 17 18  2  0
 18 19  1  0
 19 20  2  0
 20 21  1  0
 20 22  1  0
 22 23  2  0
 23 24  1  0
 24 25  2  0
 25 26  1  0
 26 27  1  0
 27 28  1  0
 28 29  1  0
 26 30  2  0
 30 13  1  0
 19 14  1  0
 30 22  1  0
  1 31  1  0
  1 32  1  0
  1 33  1  0
  2 34  1  0
  2 35  1  0
  4 36  1  0
  4 37  1  0
  5 38  1  0
  5 39  1  0
  6 40  1  0
  7 41  1  0
  7 42  1  0
  8 43  1  0
  8 44  1  0
 10 45  1  0
 10 46  1  0
 11 47  1  0
 11 48  1  0
 12 49  1  0
 15 50  1  0
 16 51  1  0
 17 52  1  0
 18 53  1  0
 21 54  1  0
 21 55  1  0
 21 56  1  0
 23 57  1  0
 24 58  1  0
 25 59  1  0
 28 60  1  0
 28 61  1  0
 29 62  1  0
 29 63  1  0
 29 64  1  0
M  CHG  1  20   1
M  END
>  <UniqueID>  (13) 
13

>  <SMILES>  (13) 
CCOCCNCCOCCNc1c2ccccc2[n+](C)c2cccc(OCC)c12

>  <Energy>  (13) 
89.32940483640735

>  <Genealogy>  (13) 
CCOCCNCCOCCNc1c2ccccc2[n+](C)c2cccc(OCC)c12 (3D coordinates assigned)
CCOCCNCCOCCNc1c2ccccc2[n+](C)c2cccc(OCC)c12 (optimized conformer: 89.32940483640735 kcal/mol)

>  <smiles>  (13) 
CCOCCNCCOCCNc1c2ccccc2[n+](C)c2cccc(OCC)c12

>  <score_type>  (13) 
oracle

>  <origin>  (13) 
adg

>  <m_score__min__energy>  (13) 
-4.9199999999999999

>  <m_primary>  (13) 
energy

$$$$
13:0
     RDKit          3D

 60 62  0  0  0  0  0  0  0  0999 V2000
   59.2280   29.8560   50.3240 C   0  0  0  0  0  0  0  0  0  0  0  0
   60.0120   31.0650   50.8400 C   0  0  0  0  0  0  0  0  0  0  0  0
   59.9270   32.2170   49.9140 N   0  0  0  0  0  0  0  0  0  0  0  0
   58.5420   32.4040   49.4340 C   0  0  0  0  0  0  0  0  0  0  0  0
   60.4110   33.4500   50.5770 C   0  0  0  0  0  0  0  0  0  0  0  0
   61.9350   33.5660   50.4440 C   0  0  0  0  0  0  0  0  0  0  0  0
   62.4650   32.4260   49.7930 O   0  0  0  0  0  0  0  0  0  0  0  0
   63.7240   32.7040   49.2070 C   0  0  0  0  0  0  0  0  0  0  0  0
   63.6180   32.6750   47.6750 C   0  0  0  0  0  0  0  0  0  0  0  0
   62.6430   31.5890   47.1710 C   0  0  0  0  0  0  0  0  0  0  0  0
   61.2830   31.6750   47.7500 N   0  0  0  0  0  0  0  0  0  0  0  0
   60.2180   31.4200   46.7860 C   0  0  0  0  0  0  0  0  0  0  0  0
   59.5450   32.4890   46.1170 C   0  0  0  0  0  0  0  0  0  0  0  0
   59.8920   33.8540   46.3160 C   0  0  0  0  0  0  0  0  0  0  0  0
   59.1710   34.8800   45.7120 C   0  0  0  0  0  0  0  0  0  0  0  0
   58.0890   34.5890   44.9000 C   0  0  0  0  0  0  0  0  0  0  0  0
   57.7440   33.2650   44.6530 C   0  0  0  0  0  0  0  0  0  0  0  0
   58.4800   32.1900   45.2170 C   0  0  0  0  0  0  0  0  0  0  0  0
   58.1630   30.8830   44.9150 N   0  0  0  0  0  0  0  0  0  0  0  0
   57.2880   30.5840   43.7570 C   0  0  0  0  0  0  0  0  0  0  0  0
   58.6920   29.8500   45.6580 C   0  0  0  0  0  0  0  0  0  0  0  0
   58.1650   28.5350   45.5630 C   0  0  0  0  0  0  0  0  0  0  0  0
   58.7610   27.4590   46.2260 C   0  0  0  0  0  0  0  0  0  0  0  0
   58.1670   26.0850   46.1250 C   0  0  0  0  0  0  0  0  0  0  0  0
   59.8730   27.6860   47.0320 C   0  0  0  0  0  0  0  0  0  0  0  0
   60.3750   28.9750   47.1910 C   0  0  0  0  0  0  0  0  0  0  0  0
   59.7740   30.0870   46.5500 C   0  0  0  0  0  0  0  0  0  0  0  0
   58.8500   29.2730   51.1768 H   0  0  0  0  0  0  0  0  0  0  0  0
   58.3817   30.2017   49.7122 H   0  0  0  0  0  0  0  0  0  0  0  0
   59.8889   29.2244   49.7122 H   0  0  0  0  0  0  0  0  0  0  0  0
   59.6028   31.3633   51.8165 H   0  0  0  0  0  0  0  0  0  0  0  0
   61.0694   30.7738   50.9241 H   0  0  0  0  0  0  0  0  0  0  0  0
   57.8645   32.4955   50.2957 H   0  0  0  0  0  0  0  0  0  0  0  0
   58.4854   33.3179   48.8245 H   0  0  0  0  0  0  0  0  0  0  0  0
   58.2451   31.5378   48.8245 H   0  0  0  0  0  0  0  0  0  0  0  0
   59.9385   34.3244   50.1056 H   0  0  0  0  0  0  0  0  0  0  0  0
   60.1482   33.4078   51.6443 H   0  0  0  0  0  0  0  0  0  0  0  0
   62.1797   34.4639   49.8576 H   0  0  0  0  0  0  0  0  0  0  0  0
   62.3750   33.6376   51.4496 H   0  0  0  0  0  0  0  0  0  0  0  0
   64.0616   33.7003   49.5284 H   0  0  0  0  0  0  0  0  0  0  0  0
   64.4453   31.9389   49.5299 H   0  0  0  0  0  0  0  0  0  0  0  0
   63.2635   33.6565   47.3271 H   0  0  0  0  0  0  0  0  0  0  0  0
   64.6155   32.4407   47.2750 H   0  0  0  0  0  0  0  0  0  0  0  0
   62.5587   31.6821   46.0782 H   0  0  0  0  0  0  0  0  0  0  0  0
   63.0592   30.6210   47.4868 H   0  0  0  0  0  0  0  0  0  0  0  0
   61.2340   31.0750   48.5970 H   0  0  0  0  0  0  0  0  0  0  0  0
   61.1520   32.6260   48.1600 H   0  0  0  0  0  0  0  0  0  0  0  0
   60.7477   34.1039   46.9605 H   0  0  0  0  0  0  0  0  0  0  0  0
   59.4627   35.9271   45.8809 H   0  0  0  0  0  0  0  0  0  0  0  0
   57.5027   35.4040   44.4506 H   0  0  0  0  0  0  0  0  0  0  0  0
   56.8817   33.0456   44.0063 H   0  0  0  0  0  0  0  0  0  0  0  0
   56.3046   30.2480   44.1176 H   0  0  0  0  0  0  0  0  0  0  0  0
   57.1645   31.4909   43.1469 H   0  0  0  0  0  0  0  0  0  0  0  0
   57.7454   29.7912   43.1469 H   0  0  0  0  0  0  0  0  0  0  0  0
   57.2665   28.3592   44.9532 H   0  0  0  0  0  0  0  0  0  0  0  0
   57.9941   25.6851   47.1351 H   0  0  0  0  0  0  0  0  0  0  0  0
   57.2113   26.1376   45.5829 H   0  0  0  0  0  0  0  0  0  0  0  0
   58.8601   25.4248   45.5829 H   0  0  0  0  0  0  0  0  0  0  0  0
   60.3576   26.8428   47.5459 H   0  0  0  0  0  0  0  0  0  0  0  0
   61.2575   29.1337   47.8282 H   0  0  0  0  0  0  0  0  0  0  0  0
  1  2  1  0
  2  3  1  0
  3  4  1  0
  3  5  1  0
  5  6  1  0
  6  7  1  0
  7  8  1  0
  8  9  1  0
  9 10  1  0
 10 11  1  0
 11 12  1  0
 12 13  2  0
 13 14  1  0
 14 15  2  0
 15 16  1  0
 16 17  2  0
 17 18  1  0
 18 19  2  0
 19 20  1  0
 19 21  1  0
 21 22  2  0
 22 23  1  0
 23 24  1  0
 23 25  2  0
 25 26  1  0
 26 27  2  0
 27 12  1  0
 18 13  1  0
 27 21  1  0
  1 28  1  0
  1 29  1  0
  1 30  1  0
  2 31  1  0
  2 32  1  0
  4 33  1  0
  4 34  1  0
  4 35  1  0
  5 36  1  0
  5 37  1  0
  6 38  1  0
  6 39  1  0
  8 40  1  0
  8 41  1  0
  9 42  1  0
  9 43  1  0
 10 44  1  0
 10 45  1  0
 11 46  1  0
 11 47  1  0
 14 48  1  0
 15 49  1  0
 16 50  1  0
 17 51  1  0
 20 52  1  0
 20 53  1  0
 20 54  1  0
 22 55  1  0
 24 56  1  0
 24 57  1  0
 24 58  1  0
 25 59  1  0
 26 60  1  0
M  CHG  2  11   1  19   1
M  END
>  <UniqueID>  (14) 
14

>  <SMILES>  (14) 
CCN(C)CCOCCC[NH2+]c1c2ccccc2[n+](C)c2cc(C)ccc12

>  <Energy>  (14) 
87.6025143164524

>  <Genealogy>  (14) 
CCN(C)CCOCCC[NH2+]c1c2ccccc2[n+](C)c2cc(C)ccc12 (protonated)
CCN(C)CCOCCC[NH2+]c1c2ccccc2[n+](C)c2cc(C)ccc12 (3D coordinates assigned)
CCN(C)CCOCCC[NH2+]c1c2ccccc2[n+](C)c2cc(C)ccc12 (optimized conformer: 87.6025143164524 kcal/mol)

>  <smiles>  (14) 
CCN(C)CCOCCCNc1c2ccccc2[n+](C)c2cc(C)ccc12

>  <score_type>  (14) 
oracle

>  <origin>  (14) 
adg

>  <m_score__min__energy>  (14) 
-3.5699999999999998

>  <m_primary>  (14) 
energy

$$$$
14:0
     RDKit          3D

 56 58  0  0  0  0  0  0  0  0999 V2000
   53.5270   24.2890   45.2710 C   0  0  0  0  0  0  0  0  0  0  0  0
   54.9500   24.4810   45.7730 C   0  0  0  0  0  0  0  0  0  0  0  0
   55.1820   25.8550   46.0060 O   0  0  0  0  0  0  0  0  0  0  0  0
   56.5000   26.2090   45.6340 C   0  0  0  0  0  0  0  0  0  0  0  0
   57.5160   25.4120   46.4560 C   0  0  0  0  0  0  0  0  0  0  0  0
   58.0190   26.2100   47.5110 O   0  0  0  0  0  0  0  0  0  0  0  0
   58.4130   27.4790   47.0310 C   0  0  0  0  0  0  0  0  0  0  0  0
   58.5410   28.4400   48.2170 C   0  0  0  0  0  0  0  0  0  0  0  0
   59.9400   28.7480   48.5520 N   0  0  0  0  0  0  0  0  0  0  0  0
   60.7480   29.0640   47.3670 C   0  0  0  0  0  0  0  0  0  0  0  0
   60.4650   30.4850   46.9260 C   0  0  0  0  0  0  0  0  0  0  0  0
   59.2540   30.7380   46.2770 C   0  0  0  0  0  0  0  0  0  0  0  0
   58.9000   32.0260   45.8560 C   0  0  0  0  0  0  0  0  0  0  0  0
   57.6580   32.2330   45.2060 C   0  0  0  0  0  0  0  0  0  0  0  0
   56.8130   31.1270   44.9730 O   0  0  0  0  0  0  0  0  0  0  0  0
   56.6880   30.4070   43.7460 C   0  0  0  0  0  0  0  0  0  0  0  0
   57.3840   29.0520   43.8440 C   0  0  0  0  0  0  0  0  0  0  0  0
   57.3010   33.5290   44.8010 C   0  0  0  0  0  0  0  0  0  0  0  0
   58.1540   34.6010   45.0370 C   0  0  0  0  0  0  0  0  0  0  0  0
   59.3790   34.4050   45.6690 C   0  0  0  0  0  0  0  0  0  0  0  0
   59.7870   33.1160   46.0890 C   0  0  0  0  0  0  0  0  0  0  0  0
   61.0470   32.8720   46.7210 C   0  0  0  0  0  0  0  0  0  0  0  0
   61.9870   33.9060   46.9650 C   0  0  0  0  0  0  0  0  0  0  0  0
   63.2180   33.6390   47.5600 C   0  0  0  0  0  0  0  0  0  0  0  0
   63.5530   32.3420   47.9220 C   0  0  0  0  0  0  0  0  0  0  0  0
   62.6550   31.3030   47.7050 C   0  0  0  0  0  0  0  0  0  0  0  0
   61.3890   31.5420   47.1210 C   0  0  0  0  0  0  0  0  0  0  0  0
   52.8448   24.1970   46.1290 H   0  0  0  0  0  0  0  0  0  0  0  0
   53.2335   25.1557   44.6605 H   0  0  0  0  0  0  0  0  0  0  0  0
   53.4737   23.3755   44.6605 H   0  0  0  0  0  0  0  0  0  0  0  0
   55.0878   23.9211   46.7098 H   0  0  0  0  0  0  0  0  0  0  0  0
   55.6598   24.1104   45.0188 H   0  0  0  0  0  0  0  0  0  0  0  0
   56.6465   25.9911   44.5658 H   0  0  0  0  0  0  0  0  0  0  0  0
   56.6493   27.2822   45.8235 H   0  0  0  0  0  0  0  0  0  0  0  0
   57.0262   24.5207   46.8752 H   0  0  0  0  0  0  0  0  0  0  0  0
   58.3488   25.1089   45.8044 H   0  0  0  0  0  0  0  0  0  0  0  0
   59.3821   27.3950   46.5175 H   0  0  0  0  0  0  0  0  0  0  0  0
   57.6623   27.8591   46.3225 H   0  0  0  0  0  0  0  0  0  0  0  0
   58.0247   29.3784   47.9664 H   0  0  0  0  0  0  0  0  0  0  0  0
   58.0912   27.9482   49.0921 H   0  0  0  0  0  0  0  0  0  0  0  0
   60.3650   27.9270   49.0440 H   0  0  0  0  0  0  0  0  0  0  0  0
   61.8152   28.9624   47.6134 H   0  0  0  0  0  0  0  0  0  0  0  0
   60.4914   28.3700   46.5531 H   0  0  0  0  0  0  0  0  0  0  0  0
   58.5608   29.9042   46.0919 H   0  0  0  0  0  0  0  0  0  0  0  0
   55.6217   30.2505   43.5259 H   0  0  0  0  0  0  0  0  0  0  0  0
   57.1610   30.9910   42.9427 H   0  0  0  0  0  0  0  0  0  0  0  0
   57.5208   28.7857   44.9025 H   0  0  0  0  0  0  0  0  0  0  0  0
   56.7675   28.2865   43.3501 H   0  0  0  0  0  0  0  0  0  0  0  0
   58.3653   29.1073   43.3501 H   0  0  0  0  0  0  0  0  0  0  0  0
   56.3397   33.6973   44.2934 H   0  0  0  0  0  0  0  0  0  0  0  0
   57.8586   35.6126   44.7218 H   0  0  0  0  0  0  0  0  0  0  0  0
   60.0408   35.2659   45.8449 H   0  0  0  0  0  0  0  0  0  0  0  0
   61.7391   34.9388   46.6788 H   0  0  0  0  0  0  0  0  0  0  0  0
   63.9272   34.4595   47.7436 H   0  0  0  0  0  0  0  0  0  0  0  0
   64.5309   32.1355   48.3815 H   0  0  0  0  0  0  0  0  0  0  0  0
   62.9336   30.2783   47.9922 H   0  0  0  0  0  0  0  0  0  0  0  0
  1  2  1  0
  2  3  1  0
  3  4  1  0
  4  5  1  0
  5  6  1  0
  6  7  1  0
  7  8  1  0
  8  9  1  0
  9 10  1  0
 10 11  1  0
 11 12  2  0
 12 13  1  0
 13 14  2  0
 14 15  1  0
 15 16  1  0
 16 17  1  0
 14 18  1  0
 18 19  2  0
 19 20  1  0
 20 21  2  0
 21 22  1  0
 22 23  2  0
 23 24  1  0
 24 25  2  0
 25 26  1  0
 26 27  2  0
 27 11  1  0
 21 13  1  0
 27 22  1  0
  1 28  1  0
  1 29  1  0
  1 30  1  0
  2 31  1  0
  2 32  1  0
  4 33  1  0
  4 34  1  0
  5 35  1  0
  5 36  1  0
  7 37  1  0
  7 38  1  0
  8 39  1  0
  8 40  1  0
  9 41  1  0
 10 42  1  0
 10 43  1  0
 12 44  1  0
 16 45  1  0
 16 46  1  0
 17 47  1  0
 17 48  1  0
 17 49  1  0
 18 50  1  0
 19 51  1  0
 20 52  1  0
 23 53  1  0
 24 54  1  0
 25 55  1  0
 26 56  1  0
M  END
>  <UniqueID>  (15) 
15

>  <SMILES>  (15) 
CCOCCOCCNCc1cc2c(OCC)cccc2c2ccccc12

>  <Energy>  (15) 
69.17069040451298

>  <Genealogy>  (15) 
CCOCCOCCNCc1cc2c(OCC)cccc2c2ccccc12 (3D coordinates assigned)
CCOCCOCCNCc1cc2c(OCC)cccc2c2ccccc12 (optimized conformer: 69.17069040451298 kcal/mol)

>  <smiles>  (15) 
CCOCCOCCNCc1cc2c(OCC)cccc2c2ccccc12

>  <score_type>  (15) 
oracle

>  <origin>  (15) 
adg

>  <m_score__min__energy>  (15) 
-7.8799999999999999

>  <m_primary>  (15) 
energy

$$$$
15:0
     RDKit          3D

 54 57  0  0  0  0  0  0  0  0999 V2000
   58.8704   34.2989   43.8898 H   0  0  0  0  0  0  0  0  0  0  0  0
   58.4030   33.3040   43.9310 C   0  0  0  0  0  0  0  0  0  0  0  0
   57.8690   32.6520   42.8650 N   0  0  0  0  0  0  0  0  0  0  0  0
   57.4240   31.4960   43.3990 C   0  0  0  0  0  0  0  0  0  0  0  0
   56.7590   30.4790   42.7280 C   0  0  0  0  0  0  0  0  0  0  0  0
   56.5557   30.5452   41.6490 H   0  0  0  0  0  0  0  0  0  0  0  0
   56.3560   29.3640   43.4770 C   0  0  0  0  0  0  0  0  0  0  0  0
   55.8253   28.5339   42.9879 H   0  0  0  0  0  0  0  0  0  0  0  0
   56.6350   29.3090   44.8700 C   0  0  0  0  0  0  0  0  0  0  0  0
   56.3160   28.2890   45.6160 N   0  0  0  0  0  0  0  0  0  0  0  0
   56.7780   26.9040   45.4980 C   0  0  0  0  0  0  0  0  0  0  0  0
   55.9462   26.2730   45.1516 H   0  0  0  0  0  0  0  0  0  0  0  0
   57.6081   26.8657   44.7773 H   0  0  0  0  0  0  0  0  0  0  0  0
   57.2750   26.3850   46.8580 C   0  0  0  0  0  0  0  0  0  0  0  0
   56.5349   26.6565   47.6251 H   0  0  0  0  0  0  0  0  0  0  0  0
   57.3984   25.2962   46.7616 H   0  0  0  0  0  0  0  0  0  0  0  0
   58.6480   26.9610   47.2780 C   0  0  0  0  0  0  0  0  0  0  0  0
   58.5785   27.2391   48.3400 H   0  0  0  0  0  0  0  0  0  0  0  0
   59.3702   26.1635   47.0488 H   0  0  0  0  0  0  0  0  0  0  0  0
   59.1490   28.1580   46.5320 N   0  0  0  0  0  0  0  0  0  0  0  0
   58.3040   28.7300   46.2780 H   0  0  0  0  0  0  0  0  0  0  0  0
   59.8160   27.8300   45.2620 C   0  0  0  0  0  0  0  0  0  0  0  0
   60.3810   26.8917   45.3638 H   0  0  0  0  0  0  0  0  0  0  0  0
   59.0795   27.6959   44.4560 H   0  0  0  0  0  0  0  0  0  0  0  0
   60.7690   28.9850   44.9430 C   0  0  0  0  0  0  0  0  0  0  0  0
   61.7913   28.6082   44.7912 H   0  0  0  0  0  0  0  0  0  0  0  0
   60.4783   29.5088   44.0205 H   0  0  0  0  0  0  0  0  0  0  0  0
   60.7170   29.9080   46.1550 C   0  0  0  0  0  0  0  0  0  0  0  0
   61.7296   30.2152   46.4555 H   0  0  0  0  0  0  0  0  0  0  0  0
   60.1629   30.8369   45.9546 H   0  0  0  0  0  0  0  0  0  0  0  0
   60.0670   29.0640   47.2360 C   0  0  0  0  0  0  0  0  0  0  0  0
   60.8282   28.4894   47.7841 H   0  0  0  0  0  0  0  0  0  0  0  0
   59.5389   29.6850   47.9746 H   0  0  0  0  0  0  0  0  0  0  0  0
   57.2740   30.3620   45.4550 N   0  0  0  0  0  0  0  0  0  0  0  0
   57.6530   31.4010   44.7130 N   0  0  0  0  0  0  0  0  0  0  0  0
   58.2740   32.5330   45.0820 C   0  0  0  0  0  0  0  0  0  0  0  0
   58.6780   32.9120   46.4600 C   0  0  0  0  0  0  0  0  0  0  0  0
   59.2510   34.1660   46.7310 C   0  0  0  0  0  0  0  0  0  0  0  0
   59.3811   34.8949   45.9175 H   0  0  0  0  0  0  0  0  0  0  0  0
   59.6570   34.4930   48.0290 C   0  0  0  0  0  0  0  0  0  0  0  0
   60.1199   35.4717   48.2236 H   0  0  0  0  0  0  0  0  0  0  0  0
   59.4810   33.5890   49.0830 C   0  0  0  0  0  0  0  0  0  0  0  0
   59.9060   33.9750   50.3680 O   0  0  0  0  0  0  0  0  0  0  0  0
   59.5540   33.3230   51.5880 C   0  0  0  0  0  0  0  0  0  0  0  0
   60.4646   33.1521   52.1809 H   0  0  0  0  0  0  0  0  0  0  0  0
   59.0672   32.3663   51.3478 H   0  0  0  0  0  0  0  0  0  0  0  0
   58.5810   34.1760   52.4000 C   0  0  0  0  0  0  0  0  0  0  0  0
   58.7620   34.0173   53.4733 H   0  0  0  0  0  0  0  0  0  0  0  0
   58.7323   35.2378   52.1557 H   0  0  0  0  0  0  0  0  0  0  0  0
   57.5481   33.8871   52.1557 H   0  0  0  0  0  0  0  0  0  0  0  0
   58.8890   32.3400   48.8180 C   0  0  0  0  0  0  0  0  0  0  0  0
   58.7411   31.6199   49.6362 H   0  0  0  0  0  0  0  0  0  0  0  0
   58.4880   32.0100   47.5200 C   0  0  0  0  0  0  0  0  0  0  0  0
   58.0189   31.0340   47.3268 H   0  0  0  0  0  0  0  0  0  0  0  0
  1  2  1  0
  2  3  1  0
  3  4  2  0
  4  5  1  0
  5  6  1  0
  5  7  2  0
  7  8  1  0
  7  9  1  0
  9 10  2  0
 10 11  1  0
 11 12  1  0
 11 13  1  0
 11 14  1  0
 14 15  1  0
 14 16  1  0
 14 17  1  0
 17 18  1  0
 17 19  1  0
 17 20  1  0
 20 21  1  0
 20 22  1  0
 22 23  1  0
 22 24  1  0
 22 25  1  0
 25 26  1  0
 25 27  1  0
 25 28  1  0
 28 29  1  0
 28 30  1  0
 28 31  1  0
 31 32  1  0
 31 33  1  0
  9 34  1  0
 34 35  1  0
 35 36  1  0
 36 37  1  0
 37 38  2  0
 38 39  1  0
 38 40  1  0
 40 41  1  0
 40 42  2  0
 42 43  1  0
 43 44  1  0
 44 45  1  0
 44 46  1  0
 44 47  1  0
 47 48  1  0
 47 49  1  0
 47 50  1  0
 42 51  1  0
 51 52  1  0
 51 53  2  0
 53 54  1  0
 36  2  2  0
 53 37  1  0
 35  4  1  0
 31 20  1  0
M  CHG  2  20   1  34  -1
M  END
>  <UniqueID>  (16) 
16

>  <SMILES>  (16) 
CCOc1ccc(-c2cnc3cc/c(=N\CCC[NH+]4CCCC4)[n-]n23)cc1

>  <Energy>  (16) 
107.76171996101779

>  <Genealogy>  (16) 
CCOc1ccc(-c2cnc3ccc(=NCCC[NH+]4CCCC4)[n-]n23)cc1 (protonated)
CCOc1ccc(-c2cnc3cc/c(=N\CCC[NH+]4CCCC4)[n-]n23)cc1 (cis-trans isomerization)
CCOc1ccc(-c2cnc3cc/c(=N\CCC[NH+]4CCCC4)[n-]n23)cc1 (3D coordinates assigned)
CCOc1ccc(-c2cnc3cc/c(=N\CCC[NH+]4CCCC4)[n-]n23)cc1 (nonaromatic ring conformer: 107.76171996101779 kcal/mol)

>  <smiles>  (16) 
CCOc1ccc(-c2cnc3ccc(=NCCCN4CCCC4)[nH]n23)cc1

>  <score_type>  (16) 
oracle

>  <origin>  (16) 
adg

>  <m_score__min__energy>  (16) 
-7.3200000000000003

>  <m_primary>  (16) 
energy

$$$$
16:0
     RDKit          3D

 35 37  0  0  0  0  0  0  0  0999 V2000
   57.2010   31.5750   42.2400 C   0  0  0  0  0  0  0  0  0  0  0  0
   57.5680   31.3930   43.6450 N   0  0  0  0  0  0  0  0  0  0  0  0
   57.3250   30.3160   44.4400 C   0  0  0  0  0  0  0  0  0  0  0  0
   56.6210   29.0530   44.0070 C   0  0  0  0  0  0  0  0  0  0  0  0
   57.3970   28.2970   43.0060 N   0  0  0  0  0  0  0  0  0  0  0  0
   58.1430   27.1600   43.5760 C   0  0  0  0  0  0  0  0  0  0  0  0
   58.8700   27.5360   44.8360 C   0  0  0  0  0  0  0  0  0  0  0  0
   58.5520   27.1090   46.1180 C   0  0  0  0  0  0  0  0  0  0  0  0
   59.4030   27.6330   47.0990 C   0  0  0  0  0  0  0  0  0  0  0  0
   60.3900   28.4690   46.5930 C   0  0  0  0  0  0  0  0  0  0  0  0
   60.2040   28.5570   44.9240 S   0  0  0  0  0  0  0  0  0  0  0  0
   57.7680   30.5520   45.7390 C   0  0  0  0  0  0  0  0  0  0  0  0
   58.2800   31.8290   45.7210 C   0  0  0  0  0  0  0  0  0  0  0  0
   58.8360   32.5900   46.7470 C   0  0  0  0  0  0  0  0  0  0  0  0
   59.2590   33.8970   46.4420 C   0  0  0  0  0  0  0  0  0  0  0  0
   59.9650   34.8990   47.6960 Cl  0  0  0  0  0  0  0  0  0  0  0  0
   59.1130   34.4060   45.1320 C   0  0  0  0  0  0  0  0  0  0  0  0
   58.5450   33.6150   44.1180 C   0  0  0  0  0  0  0  0  0  0  0  0
   58.1400   32.3170   44.4460 C   0  0  0  0  0  0  0  0  0  0  0  0
   56.2171   32.0629   42.1783 H   0  0  0  0  0  0  0  0  0  0  0  0
   57.9541   32.2041   41.7428 H   0  0  0  0  0  0  0  0  0  0  0  0
   57.1560   30.5948   41.7428 H   0  0  0  0  0  0  0  0  0  0  0  0
   56.4641   28.4148   44.8891 H   0  0  0  0  0  0  0  0  0  0  0  0
   55.6649   29.3409   43.5455 H   0  0  0  0  0  0  0  0  0  0  0  0
   56.7530   27.9340   42.2650 H   0  0  0  0  0  0  0  0  0  0  0  0
   58.0670   28.9500   42.5370 H   0  0  0  0  0  0  0  0  0  0  0  0
   57.4350   26.3494   43.8034 H   0  0  0  0  0  0  0  0  0  0  0  0
   58.8911   26.8403   42.8357 H   0  0  0  0  0  0  0  0  0  0  0  0
   57.7169   26.4285   46.3406 H   0  0  0  0  0  0  0  0  0  0  0  0
   59.2995   27.4040   48.1699 H   0  0  0  0  0  0  0  0  0  0  0  0
   61.1615   28.9853   47.1831 H   0  0  0  0  0  0  0  0  0  0  0  0
   57.7191   29.8644   46.5962 H   0  0  0  0  0  0  0  0  0  0  0  0
   58.9410   32.1822   47.7632 H   0  0  0  0  0  0  0  0  0  0  0  0
   59.4464   35.4291   44.9038 H   0  0  0  0  0  0  0  0  0  0  0  0
   58.4227   34.0053   43.0969 H   0  0  0  0  0  0  0  0  0  0  0  0
  1  2  1  0
  2  3  1  0
  3  4  1  0
  4  5  1  0
  5  6  1  0
  6  7  1  0
  7  8  2  0
  8  9  1  0
  9 10  2  0
 10 11  1  0
  3 12  2  0
 12 13  1  0
 13 14  2  0
 14 15  1  0
 15 16  1  0
 15 17  2  0
 17 18  1  0
 18 19  2  0
 19  2  1  0
 11  7  1  0
 19 13  1  0
  1 20  1  0
  1 21  1  0
  1 22  1  0
  4 23  1  0
  4 24  1  0
  5 25  1  0
  5 26  1  0
  6 27  1  0
  6 28  1  0
  8 29  1  0
  9 30  1  0
 10 31  1  0
 12 32  1  0
 14 33  1  0
 17 34  1  0
 18 35  1  0
M  CHG  1   5   1
M  END
>  <UniqueID>  (17) 
17

>  <SMILES>  (17) 
Cn1c(C[NH2+]Cc2cccs2)cc2cc(Cl)ccc21

>  <Energy>  (17) 
95.05213434229975

>  <Genealogy>  (17) 
Cn1c(C[NH2+]Cc2cccs2)cc2cc(Cl)ccc21 (protonated)
Cn1c(C[NH2+]Cc2cccs2)cc2cc(Cl)ccc21 (3D coordinates assigned)
Cn1c(C[NH2+]Cc2cccs2)cc2cc(Cl)ccc21 (optimized conformer: 95.05213434229975 kcal/mol)

>  <smiles>  (17) 
Cn1c(CNCc2cccs2)cc2cc(Cl)ccc21

>  <score_type>  (17) 
oracle

>  <origin>  (17) 
adg

>  <m_score__min__energy>  (17) 
-5.79

>  <m_primary>  (17) 
energy

$$$$
17:0
     RDKit          3D

 33 34  0  0  0  0  0  0  0  0999 V2000
   57.4070   23.5680   44.7320 C   0  0  0  0  0  0  0  0  0  0  0  0
   56.6940   24.9080   44.6040 C   0  0  0  0  0  0  0  0  0  0  0  0
   56.0360   25.4360   46.1790 S   0  0  0  0  0  0  0  0  0  0  0  0
   55.2030   24.3260   46.7540 O   0  0  0  0  0  0  0  0  0  0  0  0
   55.1630   26.6470   45.9880 O   0  0  0  0  0  0  0  0  0  0  0  0
   57.3470   25.7720   47.2800 N   0  0  0  0  0  0  0  0  0  0  0  0
   58.5200   26.3110   46.5900 C   0  0  0  0  0  0  0  0  0  0  0  0
   58.6210   27.7930   46.7840 C   0  0  0  0  0  0  0  0  0  0  0  0
   59.4590   28.4810   47.6600 C   0  0  0  0  0  0  0  0  0  0  0  0
   59.2980   29.8130   47.4730 N   0  0  0  0  0  0  0  0  0  0  0  0
   58.4010   29.9820   46.5150 N   0  0  0  0  0  0  0  0  0  0  0  0
   57.9520   31.1360   45.9610 C   0  0  0  0  0  0  0  0  0  0  0  0
   58.4400   32.4720   46.4240 C   0  0  0  0  0  0  0  0  0  0  0  0
   57.0480   31.0470   44.9440 N   0  0  0  0  0  0  0  0  0  0  0  0
   56.6070   29.8260   44.5100 C   0  0  0  0  0  0  0  0  0  0  0  0
   55.6520   29.7460   43.3660 C   0  0  0  0  0  0  0  0  0  0  0  0
   57.0850   28.6790   45.0740 N   0  0  0  0  0  0  0  0  0  0  0  0
   57.9780   28.7920   46.0850 C   0  0  0  0  0  0  0  0  0  0  0  0
   57.5377   23.3224   45.7962 H   0  0  0  0  0  0  0  0  0  0  0  0
   56.8062   22.7851   44.2461 H   0  0  0  0  0  0  0  0  0  0  0  0
   58.3920   23.6289   44.2461 H   0  0  0  0  0  0  0  0  0  0  0  0
   57.4079   25.6622   44.2413 H   0  0  0  0  0  0  0  0  0  0  0  0
   55.8599   24.7950   43.8958 H   0  0  0  0  0  0  0  0  0  0  0  0
   59.4254   25.8328   46.9919 H   0  0  0  0  0  0  0  0  0  0  0  0
   58.4207   26.1036   45.5143 H   0  0  0  0  0  0  0  0  0  0  0  0
   60.1418   28.0167   48.3868 H   0  0  0  0  0  0  0  0  0  0  0  0
   59.8060   30.5750   47.9750 H   0  0  0  0  0  0  0  0  0  0  0  0
   58.4495   32.4980   47.5237 H   0  0  0  0  0  0  0  0  0  0  0  0
   59.4583   32.6421   46.0444 H   0  0  0  0  0  0  0  0  0  0  0  0
   57.7711   33.2584   46.0444 H   0  0  0  0  0  0  0  0  0  0  0  0
   54.6251   29.6600   43.7509 H   0  0  0  0  0  0  0  0  0  0  0  0
   55.7385   30.6545   42.7519 H   0  0  0  0  0  0  0  0  0  0  0  0
   55.8884   28.8645   42.7519 H   0  0  0  0  0  0  0  0  0  0  0  0
  1  2  1  0
  2  3  1  0
  3  4  2  0
  3  5  2  0
  3  6  1  0
  6  7  1  0
  7  8  1  0
  8  9  1  0
  9 10  2  0
 10 11  1  0
 11 12  1  0
 12 13  1  0
 12 14  2  0
 14 15  1  0
 15 16  1  0
 15 17  2  0
 17 18  1  0
 18  8  2  0
 18 11  1  0
  1 19  1  0
  1 20  1  0
  1 21  1  0
  2 22  1  0
  2 23  1  0
  7 24  1  0
  7 25  1  0
  9 26  1  0
 10 27  1  0
 13 28  1  0
 13 29  1  0
 13 30  1  0
 16 31  1  0
 16 32  1  0
 16 33  1  0
M  CHG  2   6  -1  10   1
M  END
>  <UniqueID>  (18) 
18

>  <SMILES>  (18) 
CCS(=O)(=O)[N-]Cc1c[nH+]n2c(C)nc(C)nc12

>  <Energy>  (18) 
59.8430514440699

>  <Genealogy>  (18) 
CCS(=O)(=O)[N-]Cc1c[nH+]n2c(C)nc(C)nc12 (protonated)
CCS(=O)(=O)[N-]Cc1c[nH+]n2c(C)nc(C)nc12 (3D coordinates assigned)
CCS(=O)(=O)[N-]Cc1c[nH+]n2c(C)nc(C)nc12 (optimized conformer: 59.8430514440699 kcal/mol)

>  <smiles>  (18) 
CCS(=O)(=O)NCc1cnn2c(C)nc(C)nc12

>  <score_type>  (18) 
oracle

>  <origin>  (18) 
adg

>  <m_score__min__energy>  (18) 
-6.96

>  <m_primary>  (18) 
energy

$$$$
18:0
     RDKit          3D

 41 43  0  0  0  0  0  0  0  0999 V2000
   58.6380   24.6900   45.9240 C   0  0  0  0  0  0  0  0  0  0  0  0
   59.0270   25.9260   46.5110 O   0  0  0  0  0  0  0  0  0  0  0  0
   58.5460   27.1810   46.1070 C   0  0  0  0  0  0  0  0  0  0  0  0
   57.2250   27.2730   45.6520 C   0  0  0  0  0  0  0  0  0  0  0  0
   56.6980   28.4990   45.2380 C   0  0  0  0  0  0  0  0  0  0  0  0
   57.4930   29.6610   45.2710 C   0  0  0  0  0  0  0  0  0  0  0  0
   57.0190   30.9210   44.8700 O   0  0  0  0  0  0  0  0  0  0  0  0
   57.4580   31.6450   43.7200 C   0  0  0  0  0  0  0  0  0  0  0  0
   57.7710   33.0960   44.0860 C   0  0  0  0  0  0  0  0  0  0  0  0
   56.9710   33.5760   45.6580 S   0  0  0  0  0  0  0  0  0  0  0  0
   58.3420   33.0610   46.6980 C   0  0  0  0  0  0  0  0  0  0  0  0
   58.2770   32.0020   47.5270 N   0  0  0  0  0  0  0  0  0  0  0  0
   59.4580   31.9280   48.1190 N   0  0  0  0  0  0  0  0  0  0  0  0
   60.2360   32.9180   47.6430 C   0  0  0  0  0  0  0  0  0  0  0  0
   61.6320   33.1280   48.0830 C   0  0  0  0  0  0  0  0  0  0  0  0
   62.7990   32.7300   47.4340 C   0  0  0  0  0  0  0  0  0  0  0  0
   63.9640   33.0450   48.1420 C   0  0  0  0  0  0  0  0  0  0  0  0
   63.7290   33.6780   49.3540 C   0  0  0  0  0  0  0  0  0  0  0  0
   62.0670   33.8420   49.5430 S   0  0  0  0  0  0  0  0  0  0  0  0
   59.5500   33.6650   46.7470 N   0  0  0  0  0  0  0  0  0  0  0  0
   60.0010   34.8230   45.9750 C   0  0  0  0  0  0  0  0  0  0  0  0
   58.8120   29.5690   45.7300 C   0  0  0  0  0  0  0  0  0  0  0  0
   59.3400   28.3420   46.1440 C   0  0  0  0  0  0  0  0  0  0  0  0
   58.4093   23.9632   46.7174 H   0  0  0  0  0  0  0  0  0  0  0  0
   57.7453   24.8451   45.3004 H   0  0  0  0  0  0  0  0  0  0  0  0
   59.4587   24.3059   45.3004 H   0  0  0  0  0  0  0  0  0  0  0  0
   56.5959   26.3712   45.6202 H   0  0  0  0  0  0  0  0  0  0  0  0
   55.6578   28.5568   44.8848 H   0  0  0  0  0  0  0  0  0  0  0  0
   58.3649   31.1697   43.3178 H   0  0  0  0  0  0  0  0  0  0  0  0
   56.6569   31.6338   42.9663 H   0  0  0  0  0  0  0  0  0  0  0  0
   58.8600   33.2121   44.1888 H   0  0  0  0  0  0  0  0  0  0  0  0
   57.3824   33.7455   43.2878 H   0  0  0  0  0  0  0  0  0  0  0  0
   59.7210   31.2000   48.8210 H   0  0  0  0  0  0  0  0  0  0  0  0
   62.8039   32.2182   46.4603 H   0  0  0  0  0  0  0  0  0  0  0  0
   64.9733   32.8122   47.7717 H   0  0  0  0  0  0  0  0  0  0  0  0
   64.4965   34.0139   50.0668 H   0  0  0  0  0  0  0  0  0  0  0  0
   60.3126   35.6232   46.6625 H   0  0  0  0  0  0  0  0  0  0  0  0
   60.8516   34.5323   45.3410 H   0  0  0  0  0  0  0  0  0  0  0  0
   59.1778   35.1842   45.3410 H   0  0  0  0  0  0  0  0  0  0  0  0
   59.4400   30.4714   45.7655 H   0  0  0  0  0  0  0  0  0  0  0  0
   60.3793   28.2843   46.4997 H   0  0  0  0  0  0  0  0  0  0  0  0
  1  2  1  0
  2  3  1  0
  3  4  2  0
  4  5  1  0
  5  6  2  0
  6  7  1  0
  7  8  1  0
  8  9  1  0
  9 10  1  0
 10 11  1  0
 11 12  2  0
 12 13  1  0
 13 14  2  0
 14 15  1  0
 15 16  2  0
 16 17  1  0
 17 18  2  0
 18 19  1  0
 14 20  1  0
 20 21  1  0
  6 22  1  0
 22 23  2  0
 23  3  1  0
 20 11  1  0
 19 15  1  0
  1 24  1  0
  1 25  1  0
  1 26  1  0
  4 27  1  0
  5 28  1  0
  8 29  1  0
  8 30  1  0
  9 31  1  0
  9 32  1  0
 13 33  1  0
 16 34  1  0
 17 35  1  0
 18 36  1  0
 21 37  1  0
 21 38  1  0
 21 39  1  0
 22 40  1  0
 23 41  1  0
M  CHG  1  13   1
M  END
>  <UniqueID>  (19) 
19

>  <SMILES>  (19) 
COc1ccc(OCCSc2n[nH+]c(-c3cccs3)n2C)cc1

>  <Energy>  (19) 
101.47885397087668

>  <Genealogy>  (19) 
COc1ccc(OCCSc2n[nH+]c(-c3cccs3)n2C)cc1 (protonated)
COc1ccc(OCCSc2n[nH+]c(-c3cccs3)n2C)cc1 (3D coordinates assigned)
COc1ccc(OCCSc2n[nH+]c(-c3cccs3)n2C)cc1 (optimized conformer: 101.47885397087668 kcal/mol)

>  <smiles>  (19) 
COc1ccc(OCCSc2nnc(-c3cccs3)n2C)cc1

>  <score_type>  (19) 
oracle

>  <origin>  (19) 
adg

>  <m_score__min__energy>  (19) 
-6.1699999999999999

>  <m_primary>  (19) 
energy

$$$$
19:0
     RDKit          3D

 42 43  0  0  0  0  0  0  0  0999 V2000
   57.7110   29.7396   43.1338 H   0  0  0  0  0  0  0  0  0  0  0  0
   57.2830   29.6280   44.1410 C   0  0  0  0  0  0  0  0  0  0  0  0
   56.3740   30.4720   44.5220 N   0  0  0  0  0  0  0  0  0  0  0  0
   56.6780   31.6640   45.1420 O   0  0  0  0  0  0  0  0  0  0  0  0
   57.4220   32.6610   44.4610 C   0  0  0  0  0  0  0  0  0  0  0  0
   57.0081   32.8012   43.4515 H   0  0  0  0  0  0  0  0  0  0  0  0
   58.4733   32.3459   44.3872 H   0  0  0  0  0  0  0  0  0  0  0  0
   57.3400   33.9710   45.2280 C   0  0  0  0  0  0  0  0  0  0  0  0
   57.3529   33.7647   46.3084 H   0  0  0  0  0  0  0  0  0  0  0  0
   58.2003   34.6042   44.9653 H   0  0  0  0  0  0  0  0  0  0  0  0
   56.4075   34.4920   44.9653 H   0  0  0  0  0  0  0  0  0  0  0  0
   57.7730   28.5210   44.9960 C   0  0  0  0  0  0  0  0  0  0  0  0
   57.8670   27.2090   44.5050 C   0  0  0  0  0  0  0  0  0  0  0  0
   57.5515   26.9837   43.4756 H   0  0  0  0  0  0  0  0  0  0  0  0
   58.3600   26.1910   45.3210 C   0  0  0  0  0  0  0  0  0  0  0  0
   58.4301   25.1607   44.9420 H   0  0  0  0  0  0  0  0  0  0  0  0
   58.7630   26.4910   46.6210 C   0  0  0  0  0  0  0  0  0  0  0  0
   59.1422   25.6923   47.2755 H   0  0  0  0  0  0  0  0  0  0  0  0
   58.6890   27.7680   47.0830 N   0  0  0  0  0  0  0  0  0  0  0  0
   58.9720   27.9510   48.0710 H   0  0  0  0  0  0  0  0  0  0  0  0
   58.2290   28.7900   46.2990 C   0  0  0  0  0  0  0  0  0  0  0  0
   58.1550   30.0990   46.7990 O   0  0  0  0  0  0  0  0  0  0  0  0
   59.2550   30.9410   47.0190 C   0  0  0  0  0  0  0  0  0  0  0  0
   59.0980   32.2840   47.4020 C   0  0  0  0  0  0  0  0  0  0  0  0
   58.0887   32.7045   47.5221 H   0  0  0  0  0  0  0  0  0  0  0  0
   60.2180   33.0880   47.6310 C   0  0  0  0  0  0  0  0  0  0  0  0
   60.0846   34.1398   47.9242 H   0  0  0  0  0  0  0  0  0  0  0  0
   61.5160   32.5610   47.4890 C   0  0  0  0  0  0  0  0  0  0  0  0
   62.7410   33.4210   47.7350 C   0  0  0  0  0  0  0  0  0  0  0  0
   62.4105   34.3344   48.2513 H   0  0  0  0  0  0  0  0  0  0  0  0
   63.3960   33.8400   46.4140 C   0  0  0  0  0  0  0  0  0  0  0  0
   64.3056   34.4218   46.6241 H   0  0  0  0  0  0  0  0  0  0  0  0
   63.6602   32.9428   45.8350 H   0  0  0  0  0  0  0  0  0  0  0  0
   62.6923   34.4560   45.8350 H   0  0  0  0  0  0  0  0  0  0  0  0
   63.7460   32.7060   48.6470 C   0  0  0  0  0  0  0  0  0  0  0  0
   63.4838   32.8925   49.6989 H   0  0  0  0  0  0  0  0  0  0  0  0
   63.7168   31.6245   48.4481 H   0  0  0  0  0  0  0  0  0  0  0  0
   64.7581   33.0882   48.4481 H   0  0  0  0  0  0  0  0  0  0  0  0
   61.6650   31.2110   47.1250 C   0  0  0  0  0  0  0  0  0  0  0  0
   62.6725   30.7830   47.0165 H   0  0  0  0  0  0  0  0  0  0  0  0
   60.5430   30.4090   46.9000 C   0  0  0  0  0  0  0  0  0  0  0  0
   60.6738   29.3514   46.6273 H   0  0  0  0  0  0  0  0  0  0  0  0
  1  2  1  0
  2  3  2  0
  3  4  1  0
  4  5  1  0
  5  6  1  0
  5  7  1  0
  5  8  1  0
  8  9  1  0
  8 10  1  0
  8 11  1  0
  2 12  1  0
 12 13  2  0
 13 14  1  0
 13 15  1  0
 15 16  1  0
 15 17  2  0
 17 18  1  0
 17 19  1  0
 19 20  1  0
 19 21  2  0
 21 22  1  0
 22 23  1  0
 23 24  2  0
 24 25  1  0
 24 26  1  0
 26 27  1  0
 26 28  2  0
 28 29  1  0
 29 30  1  0
 29 31  1  0
 31 32  1  0
 31 33  1  0
 31 34  1  0
 29 35  1  0
 35 36  1  0
 35 37  1  0
 35 38  1  0
 28 39  1  0
 39 40  1  0
 39 41  2  0
 41 42  1  0
 21 12  1  0
 41 23  1  0
M  CHG  1  19   1
M  END
>  <UniqueID>  (20) 
20

>  <SMILES>  (20) 
CCO/N=C\c1ccc[nH+]c1Oc1ccc(C(C)C)cc1

>  <Energy>  (20) 
42.44129490016472

>  <Genealogy>  (20) 
CCON=Cc1ccc[nH+]c1Oc1ccc(C(C)C)cc1 (protonated)
CCO/N=C\c1ccc[nH+]c1Oc1ccc(C(C)C)cc1 (cis-trans isomerization)
CCO/N=C\c1ccc[nH+]c1Oc1ccc(C(C)C)cc1 (3D coordinates assigned)
CCO/N=C\c1ccc[nH+]c1Oc1ccc(C(C)C)cc1 (optimized conformer: 42.44129490016472 kcal/mol)

>  <smiles>  (20) 
CCON=Cc1cccnc1Oc1ccc(C(C)C)cc1

>  <score_type>  (20) 
oracle

>  <origin>  (20) 
adg

>  <m_score__min__energy>  (20) 
-5.21

>  <m_primary>  (20) 
energy

$$$$
20:0
     RDKit          3D

 50 52  0  0  0  0  0  0  0  0999 V2000
   66.1930   32.7460   50.1260 C   0  0  0  0  0  0  0  0  0  0  0  0
   64.6850   32.5880   50.2920 C   0  0  0  0  0  0  0  0  0  0  0  0
   64.0650   32.3080   49.0360 O   0  0  0  0  0  0  0  0  0  0  0  0
   62.9650   32.9940   48.4970 C   0  0  0  0  0  0  0  0  0  0  0  0
   62.0250   33.5310   49.3830 C   0  0  0  0  0  0  0  0  0  0  0  0
   60.9060   34.2170   48.9040 C   0  0  0  0  0  0  0  0  0  0  0  0
   60.6910   34.3570   47.5230 C   0  0  0  0  0  0  0  0  0  0  0  0
   59.4770   35.1010   46.9970 C   0  0  0  0  0  0  0  0  0  0  0  0
   58.4530   34.2370   46.3520 N   0  0  0  0  0  0  0  0  0  0  0  0
   58.8410   33.8320   44.9730 C   0  0  0  0  0  0  0  0  0  0  0  0
   58.0310   32.6300   44.4800 C   0  0  0  0  0  0  0  0  0  0  0  0
   58.2430   31.4980   45.3890 N   0  0  0  0  0  0  0  0  0  0  0  0
   58.3310   30.1600   44.8690 C   0  0  0  0  0  0  0  0  0  0  0  0
   59.5180   29.4310   45.0450 C   0  0  0  0  0  0  0  0  0  0  0  0
   59.6390   28.1400   44.5280 C   0  0  0  0  0  0  0  0  0  0  0  0
   58.5770   27.5640   43.8300 C   0  0  0  0  0  0  0  0  0  0  0  0
   57.3880   28.2740   43.6550 C   0  0  0  0  0  0  0  0  0  0  0  0
   57.2450   29.5680   44.1830 C   0  0  0  0  0  0  0  0  0  0  0  0
   55.9470   30.3040   43.9890 C   0  0  0  0  0  0  0  0  0  0  0  0
   58.5600   31.7520   46.7970 C   0  0  0  0  0  0  0  0  0  0  0  0
   57.9960   33.1150   47.2230 C   0  0  0  0  0  0  0  0  0  0  0  0
   61.6520   33.8470   46.6340 C   0  0  0  0  0  0  0  0  0  0  0  0
   62.7710   33.1600   47.1120 C   0  0  0  0  0  0  0  0  0  0  0  0
   66.6678   32.7957   51.1170 H   0  0  0  0  0  0  0  0  0  0  0  0
   66.5930   31.8848   49.5706 H   0  0  0  0  0  0  0  0  0  0  0  0
   66.4058   33.6714   49.5706 H   0  0  0  0  0  0  0  0  0  0  0  0
   64.4831   31.7595   50.9869 H   0  0  0  0  0  0  0  0  0  0  0  0
   64.2726   33.5277   50.6881 H   0  0  0  0  0  0  0  0  0  0  0  0
   62.1682   33.4120   50.4671 H   0  0  0  0  0  0  0  0  0  0  0  0
   60.1872   34.6512   49.6145 H   0  0  0  0  0  0  0  0  0  0  0  0
   59.0028   35.6237   47.8408 H   0  0  0  0  0  0  0  0  0  0  0  0
   59.8440   35.7846   46.2173 H   0  0  0  0  0  0  0  0  0  0  0  0
   57.6160   34.8590   46.2340 H   0  0  0  0  0  0  0  0  0  0  0  0
   58.6698   34.6791   44.2925 H   0  0  0  0  0  0  0  0  0  0  0  0
   59.9024   33.5435   44.9891 H   0  0  0  0  0  0  0  0  0  0  0  0
   56.9624   32.8901   44.4598 H   0  0  0  0  0  0  0  0  0  0  0  0
   58.3581   32.3554   43.4663 H   0  0  0  0  0  0  0  0  0  0  0  0
   60.3585   29.8804   45.5942 H   0  0  0  0  0  0  0  0  0  0  0  0
   60.5726   27.5762   44.6710 H   0  0  0  0  0  0  0  0  0  0  0  0
   58.6768   26.5493   43.4172 H   0  0  0  0  0  0  0  0  0  0  0  0
   56.5562   27.8166   43.0992 H   0  0  0  0  0  0  0  0  0  0  0  0
   55.5144   30.5493   44.9702 H   0  0  0  0  0  0  0  0  0  0  0  0
   56.1319   31.2317   43.4275 H   0  0  0  0  0  0  0  0  0  0  0  0
   55.2458   29.6691   43.4275 H   0  0  0  0  0  0  0  0  0  0  0  0
   58.1139   30.9622   47.4193 H   0  0  0  0  0  0  0  0  0  0  0  0
   59.6523   31.7559   46.9269 H   0  0  0  0  0  0  0  0  0  0  0  0
   56.8977   33.0668   47.1840 H   0  0  0  0  0  0  0  0  0  0  0  0
   58.3642   33.3186   48.2394 H   0  0  0  0  0  0  0  0  0  0  0  0
   61.5223   33.9899   45.5511 H   0  0  0  0  0  0  0  0  0  0  0  0
   63.5038   32.7469   46.4032 H   0  0  0  0  0  0  0  0  0  0  0  0
  1  2  1  0
  2  3  1  0
  3  4  1  0
  4  5  2  0
  5  6  1  0
  6  7  2  0
  7  8  1  0
  8  9  1  0
  9 10  1  0
 10 11  1  0
 11 12  1  0
 12 13  1  0
 13 14  2  0
 14 15  1  0
 15 16  2  0
 16 17  1  0
 17 18  2  0
 18 19  1  0
 12 20  1  0
 20 21  1  0
  7 22  1  0
 22 23  2  0
 23  4  1  0
 21  9  1  0
 18 13  1  0
  1 24  1  0
  1 25  1  0
  1 26  1  0
  2 27  1  0
  2 28  1  0
  5 29  1  0
  6 30  1  0
  8 31  1  0
  8 32  1  0
  9 33  1  0
 10 34  1  0
 10 35  1  0
 11 36  1  0
 11 37  1  0
 14 38  1  0
 15 39  1  0
 16 40  1  0
 17 41  1  0
 19 42  1  0
 19 43  1  0
 19 44  1  0
 20 45  1  0
 20 46  1  0
 21 47  1  0
 21 48  1  0
 22 49  1  0
 23 50  1  0
M  CHG  1   9   1
M  END
>  <UniqueID>  (21) 
21

>  <SMILES>  (21) 
CCOc1ccc(C[NH+]2CCN(c3ccccc3C)CC2)cc1

>  <Energy>  (21) 
64.38880887076574

>  <Genealogy>  (21) 
CCOc1ccc(C[NH+]2CCN(c3ccccc3C)CC2)cc1 (protonated)
CCOc1ccc(C[NH+]2CCN(c3ccccc3C)CC2)cc1 (3D coordinates assigned)
CCOc1ccc(C[NH+]2CCN(c3ccccc3C)CC2)cc1 (nonaromatic ring conformer: 64.38880887076574 kcal/mol)

>  <smiles>  (21) 
CCOc1ccc(CN2CCN(c3ccccc3C)CC2)cc1

>  <score_type>  (21) 
oracle

>  <origin>  (21) 
adg

>  <m_score__min__energy>  (21) 
-5.7800000000000002

>  <m_primary>  (21) 
energy

$$$$
21:0
     RDKit          3D

 50 52  0  0  0  0  0  0  0  0999 V2000
   64.7070   33.0890   49.3500 C   0  0  0  0  0  0  0  0  0  0  0  0
   63.5030   32.3050   48.9320 C   0  0  0  0  0  0  0  0  0  0  0  0
   62.9260   31.2700   49.6410 C   0  0  0  0  0  0  0  0  0  0  0  0
   61.8650   30.8200   48.9460 N   0  0  0  0  0  0  0  0  0  0  0  0
   61.8070   31.5800   47.8340 C   0  0  0  0  0  0  0  0  0  0  0  0
   60.7670   31.3960   46.7630 C   0  0  0  0  0  0  0  0  0  0  0  0
   60.2480   30.0130   46.7630 N   0  0  0  0  0  0  0  0  0  0  0  0
   58.8220   29.9690   47.1760 C   0  0  0  0  0  0  0  0  0  0  0  0
   58.1120   28.7210   46.6320 C   0  0  0  0  0  0  0  0  0  0  0  0
   58.1000   28.6910   45.1470 N   0  0  0  0  0  0  0  0  0  0  0  0
   56.8210   29.2090   44.6090 C   0  0  0  0  0  0  0  0  0  0  0  0
   56.9770   30.6190   44.0150 C   0  0  0  0  0  0  0  0  0  0  0  0
   56.6820   31.6340   44.9770 O   0  0  0  0  0  0  0  0  0  0  0  0
   57.5570   32.6540   45.3840 C   0  0  0  0  0  0  0  0  0  0  0  0
   57.6450   33.0950   46.7200 C   0  0  0  0  0  0  0  0  0  0  0  0
   58.5400   34.1130   47.0670 C   0  0  0  0  0  0  0  0  0  0  0  0
   59.3500   34.6980   46.0900 C   0  0  0  0  0  0  0  0  0  0  0  0
   59.2640   34.2690   44.7630 C   0  0  0  0  0  0  0  0  0  0  0  0
   58.3710   33.2530   44.4130 C   0  0  0  0  0  0  0  0  0  0  0  0
   59.2700   29.3820   44.5450 C   0  0  0  0  0  0  0  0  0  0  0  0
   60.4990   29.3400   45.4640 C   0  0  0  0  0  0  0  0  0  0  0  0
   62.8150   32.4810   47.7830 N   0  0  0  0  0  0  0  0  0  0  0  0
   63.0370   33.5100   46.7670 C   0  0  0  0  0  0  0  0  0  0  0  0
   64.7593   33.1230   50.4482 H   0  0  0  0  0  0  0  0  0  0  0  0
   65.6135   32.6075   48.9545 H   0  0  0  0  0  0  0  0  0  0  0  0
   64.6333   34.1128   48.9545 H   0  0  0  0  0  0  0  0  0  0  0  0
   63.2742   30.8799   50.6088 H   0  0  0  0  0  0  0  0  0  0  0  0
   61.2210   30.0450   49.2200 H   0  0  0  0  0  0  0  0  0  0  0  0
   59.9354   32.0926   46.9453 H   0  0  0  0  0  0  0  0  0  0  0  0
   61.2301   31.5972   45.7857 H   0  0  0  0  0  0  0  0  0  0  0  0
   58.7691   29.9589   48.2747 H   0  0  0  0  0  0  0  0  0  0  0  0
   58.3183   30.8566   46.7655 H   0  0  0  0  0  0  0  0  0  0  0  0
   58.6342   27.8260   47.0011 H   0  0  0  0  0  0  0  0  0  0  0  0
   57.0688   28.7446   46.9800 H   0  0  0  0  0  0  0  0  0  0  0  0
   56.4652   28.5287   43.8212 H   0  0  0  0  0  0  0  0  0  0  0  0
   56.1010   29.2666   45.4386 H   0  0  0  0  0  0  0  0  0  0  0  0
   58.0130   30.7470   43.6682 H   0  0  0  0  0  0  0  0  0  0  0  0
   56.2666   30.7202   43.1813 H   0  0  0  0  0  0  0  0  0  0  0  0
   57.0084   32.6376   47.4917 H   0  0  0  0  0  0  0  0  0  0  0  0
   58.6062   34.4535   48.1109 H   0  0  0  0  0  0  0  0  0  0  0  0
   60.0551   35.4960   46.3656 H   0  0  0  0  0  0  0  0  0  0  0  0
   59.8997   34.7314   43.9935 H   0  0  0  0  0  0  0  0  0  0  0  0
   58.3063   32.9204   43.3665 H   0  0  0  0  0  0  0  0  0  0  0  0
   59.5214   28.8909   43.5934 H   0  0  0  0  0  0  0  0  0  0  0  0
   58.9984   30.4365   44.3894 H   0  0  0  0  0  0  0  0  0  0  0  0
   60.7640   28.2895   45.6541 H   0  0  0  0  0  0  0  0  0  0  0  0
   61.3180   29.8730   44.9590 H   0  0  0  0  0  0  0  0  0  0  0  0
   63.2445   34.4719   47.2586 H   0  0  0  0  0  0  0  0  0  0  0  0
   63.8946   33.2265   46.1393 H   0  0  0  0  0  0  0  0  0  0  0  0
   62.1387   33.6053   46.1393 H   0  0  0  0  0  0  0  0  0  0  0  0
  1  2  1  0
  2  3  2  0
  3  4  1  0
  4  5  2  0
  5  6  1  0
  6  7  1  0
  7  8  1  0
  8  9  1  0
  9 10  1  0
 10 11  1  0
 11 12  1  0
 12 13  1  0
 13 14  1  0
 14 15  2  0
 15 16  1  0
 16 17  2  0
 17 18  1  0
 18 19  2  0
 10 20  1  0
 20 21  1  0
  5 22  1  0
 22 23  1  0
 22  2  1  0
 21  7  1  0
 19 14  1  0
  1 24  1  0
  1 25  1  0
  1 26  1  0
  3 27  1  0
  4 28  1  0
  6 29  1  0
  6 30  1  0
  8 31  1  0
  8 32  1  0
  9 33  1  0
  9 34  1  0
 11 35  1  0
 11 36  1  0
 12 37  1  0
 12 38  1  0
 15 39  1  0
 16 40  1  0
 17 41  1  0
 18 42  1  0
 19 43  1  0
 20 44  1  0
 20 45  1  0
 21 46  1  0
 21 47  1  0
 23 48  1  0
 23 49  1  0
 23 50  1  0
M  CHG  1   4   1
M  END
>  <UniqueID>  (22) 
22

>  <SMILES>  (22) 
Cc1c[nH+]c(CN2CCN(CCOc3ccccc3)CC2)n1C

>  <Energy>  (22) 
91.96900807407823

>  <Genealogy>  (22) 
Cc1c[nH+]c(CN2CCN(CCOc3ccccc3)CC2)n1C (protonated)
Cc1c[nH+]c(CN2CCN(CCOc3ccccc3)CC2)n1C (3D coordinates assigned)
Cc1c[nH+]c(CN2CCN(CCOc3ccccc3)CC2)n1C (nonaromatic ring conformer: 91.96900807407823 kcal/mol)

>  <smiles>  (22) 
Cc1cnc(CN2CCN(CCOc3ccccc3)CC2)n1C

>  <score_type>  (22) 
oracle

>  <origin>  (22) 
adg

>  <m_score__min__energy>  (22) 
-6.2999999999999998

>  <m_primary>  (22) 
energy

$$$$
22:0
     RDKit          3D

 55 57  0  0  0  0  0  0  0  0999 V2000
   62.6110   32.9290   47.1180 C   0  0  0  0  0  0  0  0  0  0  0  0
   63.1420   31.9840   48.1850 C   0  0  0  0  0  0  0  0  0  0  0  0
   62.2100   30.9550   48.3980 O   0  0  0  0  0  0  0  0  0  0  0  0
   61.8240   31.0570   49.6980 N   0  0  0  0  0  0  0  0  0  0  0  0
   61.5130   29.7180   50.2140 C   0  0  0  0  0  0  0  0  0  0  0  0
   60.0020   29.4360   50.3800 C   0  0  0  0  0  0  0  0  0  0  0  0
   59.1070   29.8280   49.1860 C   0  0  0  0  0  0  0  0  0  0  0  0
   59.7880   30.6140   48.1310 N   0  0  0  0  0  0  0  0  0  0  0  0
   59.0550   30.6550   46.8680 C   0  0  0  0  0  0  0  0  0  0  0  0
   58.9410   29.4530   46.0990 C   0  0  0  0  0  0  0  0  0  0  0  0
   59.5410   28.2330   46.5150 C   0  0  0  0  0  0  0  0  0  0  0  0
   59.4250   27.0700   45.7580 C   0  0  0  0  0  0  0  0  0  0  0  0
   58.7310   27.0870   44.5600 C   0  0  0  0  0  0  0  0  0  0  0  0
   58.1430   28.2650   44.1150 C   0  0  0  0  0  0  0  0  0  0  0  0
   58.2180   29.4610   44.8760 C   0  0  0  0  0  0  0  0  0  0  0  0
   57.6400   30.6220   44.4230 N   0  0  0  0  0  0  0  0  0  0  0  0
   56.6440   30.5730   43.3280 C   0  0  0  0  0  0  0  0  0  0  0  0
   57.9750   31.8300   44.9920 C   0  0  0  0  0  0  0  0  0  0  0  0
   57.7390   33.0330   44.2860 C   0  0  0  0  0  0  0  0  0  0  0  0
   57.9720   34.2650   44.8670 C   0  0  0  0  0  0  0  0  0  0  0  0
   58.3910   34.3400   46.1800 C   0  0  0  0  0  0  0  0  0  0  0  0
   58.6490   33.1760   46.9280 C   0  0  0  0  0  0  0  0  0  0  0  0
   58.9250   33.2950   48.3000 O   0  0  0  0  0  0  0  0  0  0  0  0
   59.8200   34.2190   48.9240 C   0  0  0  0  0  0  0  0  0  0  0  0
   60.0960   33.8170   50.3690 C   0  0  0  0  0  0  0  0  0  0  0  0
   58.5740   31.8870   46.2900 C   0  0  0  0  0  0  0  0  0  0  0  0
   62.1266   33.7911   47.5999 H   0  0  0  0  0  0  0  0  0  0  0  0
   63.4442   33.2797   46.4912 H   0  0  0  0  0  0  0  0  0  0  0  0
   61.8782   32.3997   46.4912 H   0  0  0  0  0  0  0  0  0  0  0  0
   64.0968   31.5518   47.8511 H   0  0  0  0  0  0  0  0  0  0  0  0
   63.3008   32.5377   49.1221 H   0  0  0  0  0  0  0  0  0  0  0  0
   62.6130   31.4720   50.2430 H   0  0  0  0  0  0  0  0  0  0  0  0
   61.9277   28.9751   49.5168 H   0  0  0  0  0  0  0  0  0  0  0  0
   61.9575   29.6560   51.2183 H   0  0  0  0  0  0  0  0  0  0  0  0
   59.8779   28.3570   50.5540 H   0  0  0  0  0  0  0  0  0  0  0  0
   59.6723   30.0672   51.2183 H   0  0  0  0  0  0  0  0  0  0  0  0
   58.7215   28.9044   48.7296 H   0  0  0  0  0  0  0  0  0  0  0  0
   58.3152   30.4749   49.5917 H   0  0  0  0  0  0  0  0  0  0  0  0
   60.1000   31.5300   48.4950 H   0  0  0  0  0  0  0  0  0  0  0  0
   60.7180   30.1770   47.9460 H   0  0  0  0  0  0  0  0  0  0  0  0
   60.1098   28.2072   47.4562 H   0  0  0  0  0  0  0  0  0  0  0  0
   59.8856   26.1361   46.1124 H   0  0  0  0  0  0  0  0  0  0  0  0
   58.6451   26.1686   43.9608 H   0  0  0  0  0  0  0  0  0  0  0  0
   57.6086   28.2707   43.1535 H   0  0  0  0  0  0  0  0  0  0  0  0
   55.6316   30.5232   43.7552 H   0  0  0  0  0  0  0  0  0  0  0  0
   56.7362   31.4768   42.7078 H   0  0  0  0  0  0  0  0  0  0  0  0
   56.8245   29.6826   42.7078 H   0  0  0  0  0  0  0  0  0  0  0  0
   57.3624   32.9868   43.2535 H   0  0  0  0  0  0  0  0  0  0  0  0
   57.8236   35.1855   44.2833 H   0  0  0  0  0  0  0  0  0  0  0  0
   58.5255   35.3256   46.6495 H   0  0  0  0  0  0  0  0  0  0  0  0
   60.7683   34.2341   48.3669 H   0  0  0  0  0  0  0  0  0  0  0  0
   59.3558   35.2162   48.9189 H   0  0  0  0  0  0  0  0  0  0  0  0
   59.6062   34.5304   51.0480 H   0  0  0  0  0  0  0  0  0  0  0  0
   59.7000   32.8069   50.5506 H   0  0  0  0  0  0  0  0  0  0  0  0
   61.1809   33.8237   50.5506 H   0  0  0  0  0  0  0  0  0  0  0  0
  1  2  1  0
  2  3  1  0
  3  4  1  0
  4  5  1  0
  5  6  1  0
  6  7  1  0
  7  8  1  0
  8  9  1  0
  9 10  2  0
 10 11  1  0
 11 12  2  0
 12 13  1  0
 13 14  2  0
 14 15  1  0
 15 16  2  0
 16 17  1  0
 16 18  1  0
 18 19  2  0
 19 20  1  0
 20 21  2  0
 21 22  1  0
 22 23  1  0
 23 24  1  0
 24 25  1  0
 22 26  2  0
 26  9  1  0
 15 10  1  0
 26 18  1  0
  1 27  1  0
  1 28  1  0
  1 29  1  0
  2 30  1  0
  2 31  1  0
  4 32  1  0
  5 33  1  0
  5 34  1  0
  6 35  1  0
  6 36  1  0
  7 37  1  0
  7 38  1  0
  8 39  1  0
  8 40  1  0
 11 41  1  0
 12 42  1  0
 13 43  1  0
 14 44  1  0
 17 45  1  0
 17 46  1  0
 17 47  1  0
 19 48  1  0
 20 49  1  0
 21 50  1  0
 24 51  1  0
 24 52  1  0
 25 53  1  0
 25 54  1  0
 25 55  1  0
M  CHG  2   8   1  16   1
M  END
>  <UniqueID>  (23) 
23

>  <SMILES>  (23) 
CCONCCC[NH2+]c1c2ccccc2[n+](C)c2cccc(OCC)c12

>  <Energy>  (23) 
89.63869342324104

>  <Genealogy>  (23) 
CCONCCC[NH2+]c1c2ccccc2[n+](C)c2cccc(OCC)c12 (protonated)
CCONCCC[NH2+]c1c2ccccc2[n+](C)c2cccc(OCC)c12 (3D coordinates assigned)
CCONCCC[NH2+]c1c2ccccc2[n+](C)c2cccc(OCC)c12 (optimized conformer: 89.63869342324104 kcal/mol)

>  <smiles>  (23) 
CCONCCCNc1c2ccccc2[n+](C)c2cccc(OCC)c12

>  <score_type>  (23) 
oracle

>  <origin>  (23) 
adg

>  <m_score__min__energy>  (23) 
-3.0800000000000001

>  <m_primary>  (23) 
energy

$$$$
23:0
     RDKit          3D

 34 35  0  0  0  0  0  0  0  0999 V2000
   59.1510   28.7030   46.8430 C   0  0  0  0  0  0  0  0  0  0  0  0
   59.5880   28.0580   45.5170 C   0  0  0  0  0  0  0  0  0  0  0  0
   60.7120   28.8920   44.8840 C   0  0  0  0  0  0  0  0  0  0  0  0
   58.4570   27.9330   44.5720 N   0  0  0  0  0  0  0  0  0  0  0  0
   57.1870   28.1920   45.2140 C   0  0  0  0  0  0  0  0  0  0  0  0
   56.4180   26.9780   46.0080 S   0  0  0  0  0  0  0  0  0  0  0  0
   56.6130   29.5120   45.2510 N   0  0  0  0  0  0  0  0  0  0  0  0
   57.0710   30.6070   44.4440 C   0  0  0  0  0  0  0  0  0  0  0  0
   56.9550   30.5070   43.0520 C   0  0  0  0  0  0  0  0  0  0  0  0
   57.3600   31.5570   42.2270 C   0  0  0  0  0  0  0  0  0  0  0  0
   57.9040   32.7160   42.7800 C   0  0  0  0  0  0  0  0  0  0  0  0
   58.0670   32.8270   44.1680 C   0  0  0  0  0  0  0  0  0  0  0  0
   58.6400   33.9820   44.7220 C   0  0  0  0  0  0  0  0  0  0  0  0
   58.8270   34.0830   46.1010 C   0  0  0  0  0  0  0  0  0  0  0  0
   58.4540   33.0300   46.9380 C   0  0  0  0  0  0  0  0  0  0  0  0
   57.8810   31.8740   46.4030 C   0  0  0  0  0  0  0  0  0  0  0  0
   57.6620   31.7600   45.0160 C   0  0  0  0  0  0  0  0  0  0  0  0
   59.5484   28.1165   47.6845 H   0  0  0  0  0  0  0  0  0  0  0  0
   59.5396   29.7307   46.8964 H   0  0  0  0  0  0  0  0  0  0  0  0
   58.0525   28.7231   46.8964 H   0  0  0  0  0  0  0  0  0  0  0  0
   59.9543   27.0440   45.7351 H   0  0  0  0  0  0  0  0  0  0  0  0
   61.3235   29.3457   45.6778 H   0  0  0  0  0  0  0  0  0  0  0  0
   61.3439   28.2425   44.2604 H   0  0  0  0  0  0  0  0  0  0  0  0
   60.2735   29.6850   44.2604 H   0  0  0  0  0  0  0  0  0  0  0  0
   58.6050   28.5700   43.7590 H   0  0  0  0  0  0  0  0  0  0  0  0
   58.4270   26.9580   44.1920 H   0  0  0  0  0  0  0  0  0  0  0  0
   55.9050   29.7220   45.9910 H   0  0  0  0  0  0  0  0  0  0  0  0
   56.5405   29.5916   42.6045 H   0  0  0  0  0  0  0  0  0  0  0  0
   57.2497   31.4702   41.1360 H   0  0  0  0  0  0  0  0  0  0  0  0
   58.2063   33.5461   42.1247 H   0  0  0  0  0  0  0  0  0  0  0  0
   58.9431   34.8115   44.0662 H   0  0  0  0  0  0  0  0  0  0  0  0
   59.2693   34.9944   46.5295 H   0  0  0  0  0  0  0  0  0  0  0  0
   58.6120   33.1110   48.0236 H   0  0  0  0  0  0  0  0  0  0  0  0
   57.5985   31.0461   47.0699 H   0  0  0  0  0  0  0  0  0  0  0  0
  1  2  1  0
  2  3  1  0
  2  4  1  0
  4  5  1  0
  5  6  2  0
  5  7  1  0
  7  8  1  0
  8  9  2  0
  9 10  1  0
 10 11  2  0
 11 12  1  0
 12 13  2  0
 13 14  1  0
 14 15  2  0
 15 16  1  0
 16 17  2  0
 17  8  1  0
 17 12  1  0
  1 18  1  0
  1 19  1  0
  1 20  1  0
  2 21  1  0
  3 22  1  0
  3 23  1  0
  3 24  1  0
  4 25  1  0
  4 26  1  0
  7 27  1  0
  9 28  1  0
 10 29  1  0
 11 30  1  0
 13 31  1  0
 14 32  1  0
 15 33  1  0
 16 34  1  0
M  CHG  1   4   1
M  END
>  <UniqueID>  (24) 
24

>  <SMILES>  (24) 
CC(C)[NH2+]C(=S)Nc1cccc2ccccc12

>  <Energy>  (24) 
40.9890866287287

>  <Genealogy>  (24) 
CC(C)[NH2+]C(=S)Nc1cccc2ccccc12 (protonated)
CC(C)[NH2+]C(=S)Nc1cccc2ccccc12 (3D coordinates assigned)
CC(C)[NH2+]C(=S)Nc1cccc2ccccc12 (optimized conformer: 40.9890866287287 kcal/mol)

>  <smiles>  (24) 
CC(C)NC(=S)Nc1cccc2ccccc12

>  <score_type>  (24) 
oracle

>  <origin>  (24) 
adg

>  <m_score__min__energy>  (24) 
-5.3600000000000003

>  <m_primary>  (24) 
energy

$$$$
24:0
     RDKit          3D

 87 90  0  0  0  0  0  0  0  0999 V2000
   58.1090   27.0600   42.6420 C   0  0  0  0  0  0  0  0  0  0  0  0
   58.5580   27.2290   44.0930 C   0  0  0  0  0  0  0  0  0  0  0  0
   57.3840   27.1090   45.0750 C   0  0  0  0  0  0  0  0  0  0  0  0
   57.8720   26.8390   46.4440 N   0  0  0  0  0  0  0  0  0  0  0  0
   57.6550   25.4420   46.8820 C   0  0  0  0  0  0  0  0  0  0  0  0
   58.4670   24.4700   46.0040 C   0  0  0  0  0  0  0  0  0  0  0  0
   57.5830   23.7180   45.0110 C   0  0  0  0  0  0  0  0  0  0  0  0
   59.2460   27.3380   46.6960 C   0  0  0  0  0  0  0  0  0  0  0  0
   59.3220   28.7280   47.3770 C   0  0  0  0  0  0  0  0  0  0  0  0
   58.2140   29.5990   46.9840 N   0  0  0  0  0  0  0  0  0  0  0  0
   58.4780   30.8860   46.4030 C   0  0  0  0  0  0  0  0  0  0  0  0
   58.0710   31.1720   45.0870 C   0  0  0  0  0  0  0  0  0  0  0  0
   57.4620   30.1820   44.2880 C   0  0  0  0  0  0  0  0  0  0  0  0
   57.1000   30.4560   42.9700 C   0  0  0  0  0  0  0  0  0  0  0  0
   57.3570   31.7060   42.4230 C   0  0  0  0  0  0  0  0  0  0  0  0
   57.9620   32.7000   43.1910 C   0  0  0  0  0  0  0  0  0  0  0  0
   58.3060   32.4670   44.5480 C   0  0  0  0  0  0  0  0  0  0  0  0
   58.8750   33.4500   45.3350 N   0  0  0  0  0  0  0  0  0  0  0  0
   58.8510   34.8630   44.8910 C   0  0  0  0  0  0  0  0  0  0  0  0
   59.4460   33.1210   46.5510 C   0  0  0  0  0  0  0  0  0  0  0  0
   60.2820   34.0270   47.2530 C   0  0  0  0  0  0  0  0  0  0  0  0
   60.8000   33.7110   48.5230 C   0  0  0  0  0  0  0  0  0  0  0  0
   61.6320   34.5820   49.2470 O   0  0  0  0  0  0  0  0  0  0  0  0
   63.0190   34.3800   49.5180 C   0  0  0  0  0  0  0  0  0  0  0  0
   63.1970   33.6570   50.8760 C   0  0  0  0  0  0  0  0  0  0  0  0
   64.3570   32.7080   50.9790 N   0  0  0  0  0  0  0  0  0  0  0  0
   63.7800   31.3380   50.8630 C   0  0  0  0  0  0  0  0  0  0  0  0
   65.0450   32.8070   52.3110 C   0  0  0  0  0  0  0  0  0  0  0  0
   66.3370   33.6510   52.2600 C   0  0  0  0  0  0  0  0  0  0  0  0
   67.3540   33.0940   51.3100 N   0  0  0  0  0  0  0  0  0  0  0  0
   68.2380   32.1440   52.0320 C   0  0  0  0  0  0  0  0  0  0  0  0
   68.1970   34.2080   50.8050 C   0  0  0  0  0  0  0  0  0  0  0  0
   66.7190   32.3850   50.1530 C   0  0  0  0  0  0  0  0  0  0  0  0
   65.3070   32.9140   49.8370 C   0  0  0  0  0  0  0  0  0  0  0  0
   60.4910   32.4810   49.0960 C   0  0  0  0  0  0  0  0  0  0  0  0
   59.7140   31.5530   48.4080 C   0  0  0  0  0  0  0  0  0  0  0  0
   59.2130   31.8440   47.1230 C   0  0  0  0  0  0  0  0  0  0  0  0
   57.0797   26.6726   42.6194 H   0  0  0  0  0  0  0  0  0  0  0  0
   58.1457   28.0335   42.1311 H   0  0  0  0  0  0  0  0  0  0  0  0
   58.7784   26.3523   42.1311 H   0  0  0  0  0  0  0  0  0  0  0  0
   59.2991   26.4510   44.3285 H   0  0  0  0  0  0  0  0  0  0  0  0
   58.9899   28.2349   44.2005 H   0  0  0  0  0  0  0  0  0  0  0  0
   56.8149   28.0503   45.0738 H   0  0  0  0  0  0  0  0  0  0  0  0
   56.7421   26.2739   44.7577 H   0  0  0  0  0  0  0  0  0  0  0  0
   57.9744   25.3370   47.9294 H   0  0  0  0  0  0  0  0  0  0  0  0
   56.5861   25.2005   46.7861 H   0  0  0  0  0  0  0  0  0  0  0  0
   59.2211   25.0429   45.4445 H   0  0  0  0  0  0  0  0  0  0  0  0
   58.9391   23.7291   46.6660 H   0  0  0  0  0  0  0  0  0  0  0  0
   56.8572   23.1006   45.5606 H   0  0  0  0  0  0  0  0  0  0  0  0
   57.0456   24.4400   44.3786 H   0  0  0  0  0  0  0  0  0  0  0  0
   58.2095   23.0718   44.3786 H   0  0  0  0  0  0  0  0  0  0  0  0
   59.7596   26.6120   47.3434 H   0  0  0  0  0  0  0  0  0  0  0  0
   59.7180   27.4524   45.7090 H   0  0  0  0  0  0  0  0  0  0  0  0
   59.2937   28.5897   48.4679 H   0  0  0  0  0  0  0  0  0  0  0  0
   60.2583   29.2090   47.0577 H   0  0  0  0  0  0  0  0  0  0  0  0
   57.2530   29.2050   46.8740 H   0  0  0  0  0  0  0  0  0  0  0  0
   57.2708   29.1839   44.7090 H   0  0  0  0  0  0  0  0  0  0  0  0
   56.6101   29.6808   42.3625 H   0  0  0  0  0  0  0  0  0  0  0  0
   57.0819   31.9132   41.3783 H   0  0  0  0  0  0  0  0  0  0  0  0
   58.1759   33.6795   42.7384 H   0  0  0  0  0  0  0  0  0  0  0  0
   58.8398   35.5236   45.7705 H   0  0  0  0  0  0  0  0  0  0  0  0
   59.7457   35.0726   44.2864 H   0  0  0  0  0  0  0  0  0  0  0  0
   57.9497   35.0421   44.2864 H   0  0  0  0  0  0  0  0  0  0  0  0
   60.5304   34.9960   46.7955 H   0  0  0  0  0  0  0  0  0  0  0  0
   63.4601   33.7664   48.7187 H   0  0  0  0  0  0  0  0  0  0  0  0
   63.5229   35.3568   49.5618 H   0  0  0  0  0  0  0  0  0  0  0  0
   63.3243   34.4270   51.6512 H   0  0  0  0  0  0  0  0  0  0  0  0
   62.2980   33.0347   50.9964 H   0  0  0  0  0  0  0  0  0  0  0  0
   63.6068   30.9268   51.8684 H   0  0  0  0  0  0  0  0  0  0  0  0
   62.8260   31.3869   50.3175 H   0  0  0  0  0  0  0  0  0  0  0  0
   64.4815   30.6897   50.3175 H   0  0  0  0  0  0  0  0  0  0  0  0
   64.3524   33.2689   53.0300 H   0  0  0  0  0  0  0  0  0  0  0  0
   65.3288   31.7877   52.6119 H   0  0  0  0  0  0  0  0  0  0  0  0
   66.0785   34.6714   51.9405 H   0  0  0  0  0  0  0  0  0  0  0  0
   66.7811   33.6404   53.2663 H   0  0  0  0  0  0  0  0  0  0  0  0
   68.1128   32.2786   53.1165 H   0  0  0  0  0  0  0  0  0  0  0  0
   67.9705   31.1130   51.7571 H   0  0  0  0  0  0  0  0  0  0  0  0
   69.2855   32.3367   51.7571 H   0  0  0  0  0  0  0  0  0  0  0  0
   68.6178   34.7641   51.6557 H   0  0  0  0  0  0  0  0  0  0  0  0
   69.0149   33.8004   50.1927 H   0  0  0  0  0  0  0  0  0  0  0  0
   67.5825   34.8844   50.1927 H   0  0  0  0  0  0  0  0  0  0  0  0
   67.3534   32.5216   49.2648 H   0  0  0  0  0  0  0  0  0  0  0  0
   66.6241   31.3232   50.4242 H   0  0  0  0  0  0  0  0  0  0  0  0
   65.3722   33.9904   49.6200 H   0  0  0  0  0  0  0  0  0  0  0  0
   64.9221   32.3542   48.9719 H   0  0  0  0  0  0  0  0  0  0  0  0
   60.8643   32.2397   50.1022 H   0  0  0  0  0  0  0  0  0  0  0  0
   59.4885   30.5817   48.8724 H   0  0  0  0  0  0  0  0  0  0  0  0
  1  2  1  0
  2  3  1  0
  3  4  1  0
  4  5  1  0
  5  6  1  0
  6  7  1  0
  4  8  1  0
  8  9  1  0
  9 10  1  0
 10 11  1  0
 11 12  2  0
 12 13  1  0
 13 14  2  0
 14 15  1  0
 15 16  2  0
 16 17  1  0
 17 18  2  0
 18 19  1  0
 18 20  1  0
 20 21  2  0
 21 22  1  0
 22 23  1  0
 23 24  1  0
 24 25  1  0
 25 26  1  0
 26 27  1  0
 26 28  1  0
 28 29  1  0
 29 30  1  0
 30 31  1  0
 30 32  1  0
 30 33  1  0
 33 34  1  0
 22 35  2  0
 35 36  1  0
 36 37  2  0
 37 11  1  0
 17 12  1  0
 37 20  1  0
 34 26  1  0
  1 38  1  0
  1 39  1  0
  1 40  1  0
  2 41  1  0
  2 42  1  0
  3 43  1  0
  3 44  1  0
  5 45  1  0
  5 46  1  0
  6 47  1  0
  6 48  1  0
  7 49  1  0
  7 50  1  0
  7 51  1  0
  8 52  1  0
  8 53  1  0
  9 54  1  0
  9 55  1  0
 10 56  1  0
 13 57  1  0
 14 58  1  0
 15 59  1  0
 16 60  1  0
 19 61  1  0
 19 62  1  0
 19 63  1  0
 21 64  1  0
 24 65  1  0
 24 66  1  0
 25 67  1  0
 25 68  1  0
 27 69  1  0
 27 70  1  0
 27 71  1  0
 28 72  1  0
 28 73  1  0
 29 74  1  0
 29 75  1  0
 31 76  1  0
 31 77  1  0
 31 78  1  0
 32 79  1  0
 32 80  1  0
 32 81  1  0
 33 82  1  0
 33 83  1  0
 34 84  1  0
 34 85  1  0
 35 86  1  0
 36 87  1  0
M  CHG  3  18   1  26   1  30   1
M  END
>  <UniqueID>  (25) 
25

>  <SMILES>  (25) 
CCCN(CCC)CCNc1c2ccccc2[n+](C)c2cc(OCC[N+]3(C)CC[N+](C)(C)CC3)ccc12

>  <Energy>  (25) 
141.5229355497482

>  <Genealogy>  (25) 
CCCN(CCC)CCNc1c2ccccc2[n+](C)c2cc(OCC[N+]3(C)CC[N+](C)(C)CC3)ccc12 (3D coordinates assigned)
CCCN(CCC)CCNc1c2ccccc2[n+](C)c2cc(OCC[N+]3(C)CC[N+](C)(C)CC3)ccc12 (nonaromatic ring conformer: 141.5229355497482 kcal/mol)

>  <smiles>  (25) 
CCCN(CCC)CCNc1c2ccccc2[n+](C)c2cc(OCC[N+]3(C)CC[N+](C)(C)CC3)ccc12

>  <score_type>  (25) 
oracle

>  <origin>  (25) 
adg

>  <m_score__min__energy>  (25) 
-4.2400000000000002

>  <m_primary>  (25) 
energy

$$$$
25:0
     RDKit          3D

 45 46  0  0  0  0  0  0  0  0999 V2000
   63.6770   33.1170   46.7640 C   0  0  0  0  0  0  0  0  0  0  0  0
   63.7340   32.3210   48.0590 C   0  0  0  0  0  0  0  0  0  0  0  0
   62.5410   31.5940   48.2110 O   0  0  0  0  0  0  0  0  0  0  0  0
   61.9010   32.1400   49.2780 N   0  0  0  0  0  0  0  0  0  0  0  0
   61.6410   31.0650   50.2370 C   0  0  0  0  0  0  0  0  0  0  0  0
   60.3470   30.3200   49.8890 C   0  0  0  0  0  0  0  0  0  0  0  0
   60.6100   29.0180   49.1200 C   0  0  0  0  0  0  0  0  0  0  0  0
   60.0900   29.1160   47.6750 C   0  0  0  0  0  0  0  0  0  0  0  0
   60.5820   30.3230   46.9880 N   0  0  0  0  0  0  0  0  0  0  0  0
   59.5030   31.0680   46.3750 C   0  0  0  0  0  0  0  0  0  0  0  0
   58.4370   30.3820   45.7640 C   0  0  0  0  0  0  0  0  0  0  0  0
   57.3930   31.0830   45.1330 C   0  0  0  0  0  0  0  0  0  0  0  0
   56.3220   30.4280   44.5030 O   0  0  0  0  0  0  0  0  0  0  0  0
   56.3610   29.9180   43.1750 C   0  0  0  0  0  0  0  0  0  0  0  0
   57.4100   32.4800   45.1210 C   0  0  0  0  0  0  0  0  0  0  0  0
   58.4610   33.1830   45.7230 C   0  0  0  0  0  0  0  0  0  0  0  0
   58.4920   34.5850   45.7100 C   0  0  0  0  0  0  0  0  0  0  0  0
   59.5530   35.2620   46.3120 C   0  0  0  0  0  0  0  0  0  0  0  0
   60.5740   34.5330   46.9230 C   0  0  0  0  0  0  0  0  0  0  0  0
   60.5340   33.1740   46.9300 N   0  0  0  0  0  0  0  0  0  0  0  0
   59.5140   32.4790   46.3510 C   0  0  0  0  0  0  0  0  0  0  0  0
   63.6002   34.1895   46.9959 H   0  0  0  0  0  0  0  0  0  0  0  0
   64.5906   32.9327   46.1798 H   0  0  0  0  0  0  0  0  0  0  0  0
   62.7989   32.8044   46.1798 H   0  0  0  0  0  0  0  0  0  0  0  0
   64.5860   31.6260   48.0258 H   0  0  0  0  0  0  0  0  0  0  0  0
   63.8569   33.0086   48.9087 H   0  0  0  0  0  0  0  0  0  0  0  0
   60.9800   32.4880   48.9230 H   0  0  0  0  0  0  0  0  0  0  0  0
   62.4811   30.3551   50.2182 H   0  0  0  0  0  0  0  0  0  0  0  0
   61.5326   31.5071   51.2384 H   0  0  0  0  0  0  0  0  0  0  0  0
   59.8168   30.0783   50.8220 H   0  0  0  0  0  0  0  0  0  0  0  0
   59.7460   30.9760   49.2421 H   0  0  0  0  0  0  0  0  0  0  0  0
   61.6926   28.8243   49.1003 H   0  0  0  0  0  0  0  0  0  0  0  0
   60.0809   28.1982   49.6279 H   0  0  0  0  0  0  0  0  0  0  0  0
   60.4249   28.2292   47.1169 H   0  0  0  0  0  0  0  0  0  0  0  0
   58.9922   29.1730   47.7139 H   0  0  0  0  0  0  0  0  0  0  0  0
   61.2660   30.0360   46.2500 H   0  0  0  0  0  0  0  0  0  0  0  0
   61.1100   30.9260   47.6620 H   0  0  0  0  0  0  0  0  0  0  0  0
   58.4197   29.2823   45.7800 H   0  0  0  0  0  0  0  0  0  0  0  0
   56.4448   28.8216   43.2056 H   0  0  0  0  0  0  0  0  0  0  0  0
   55.4386   30.2006   42.6465 H   0  0  0  0  0  0  0  0  0  0  0  0
   57.2297   30.3376   42.6465 H   0  0  0  0  0  0  0  0  0  0  0  0
   56.5918   33.0318   44.6351 H   0  0  0  0  0  0  0  0  0  0  0  0
   57.6815   35.1497   45.2262 H   0  0  0  0  0  0  0  0  0  0  0  0
   59.5844   36.3615   46.3051 H   0  0  0  0  0  0  0  0  0  0  0  0
   61.4137   35.0594   47.4004 H   0  0  0  0  0  0  0  0  0  0  0  0
  1  2  1  0
  2  3  1  0
  3  4  1  0
  4  5  1  0
  5  6  1  0
  6  7  1  0
  7  8  1  0
  8  9  1  0
  9 10  1  0
 10 11  2  0
 11 12  1  0
 12 13  1  0
 13 14  1  0
 12 15  2  0
 15 16  1  0
 16 17  2  0
 17 18  1  0
 18 19  2  0
 19 20  1  0
 20 21  2  0
 21 10  1  0
 21 16  1  0
  1 22  1  0
  1 23  1  0
  1 24  1  0
  2 25  1  0
  2 26  1  0
  4 27  1  0
  5 28  1  0
  5 29  1  0
  6 30  1  0
  6 31  1  0
  7 32  1  0
  7 33  1  0
  8 34  1  0
  8 35  1  0
  9 36  1  0
  9 37  1  0
 11 38  1  0
 14 39  1  0
 14 40  1  0
 14 41  1  0
 15 42  1  0
 17 43  1  0
 18 44  1  0
 19 45  1  0
M  CHG  1   9   1
M  END
>  <UniqueID>  (26) 
26

>  <SMILES>  (26) 
CCONCCCC[NH2+]c1cc(OC)cc2cccnc12

>  <Energy>  (26) 
37.55405612008138

>  <Genealogy>  (26) 
CCONCCCC[NH2+]c1cc(OC)cc2cccnc12 (protonated)
CCONCCCC[NH2+]c1cc(OC)cc2cccnc12 (3D coordinates assigned)
CCONCCCC[NH2+]c1cc(OC)cc2cccnc12 (optimized conformer: 37.55405612008138 kcal/mol)

>  <smiles>  (26) 
CCONCCCCNc1cc(OC)cc2cccnc12

>  <score_type>  (26) 
oracle

>  <origin>  (26) 
adg

>  <m_score__min__energy>  (26) 
-4.8200000000000003

>  <m_primary>  (26) 
energy

$$$$
26:0
     RDKit          3D

 57 59  0  0  0  0  0  0  0  0999 V2000
   54.7460   30.8240   51.9970 C   0  0  0  0  0  0  0  0  0  0  0  0
   56.2160   31.1710   51.8280 C   0  0  0  0  0  0  0  0  0  0  0  0
   56.9830   29.9930   51.8650 O   0  0  0  0  0  0  0  0  0  0  0  0
   57.9100   30.1160   50.8770 N   0  0  0  0  0  0  0  0  0  0  0  0
   59.0750   29.3160   51.2540 C   0  0  0  0  0  0  0  0  0  0  0  0
   60.3430   29.9330   50.6570 C   0  0  0  0  0  0  0  0  0  0  0  0
   60.8540   29.2020   49.4010 C   0  0  0  0  0  0  0  0  0  0  0  0
   59.8850   29.1710   48.2060 C   0  0  0  0  0  0  0  0  0  0  0  0
   58.9200   30.2740   48.2370 N   0  0  0  0  0  0  0  0  0  0  0  0
   58.5900   31.0610   47.0790 C   0  0  0  0  0  0  0  0  0  0  0  0
   58.0240   30.4280   45.9580 C   0  0  0  0  0  0  0  0  0  0  0  0
   57.6330   29.0730   46.0110 C   0  0  0  0  0  0  0  0  0  0  0  0
   57.0470   28.4560   44.9090 C   0  0  0  0  0  0  0  0  0  0  0  0
   56.8350   29.1780   43.7410 C   0  0  0  0  0  0  0  0  0  0  0  0
   57.2380   30.5110   43.6560 C   0  0  0  0  0  0  0  0  0  0  0  0
   57.8770   31.1520   44.7480 C   0  0  0  0  0  0  0  0  0  0  0  0
   58.3570   32.4430   44.6530 N   0  0  0  0  0  0  0  0  0  0  0  0
   58.5020   33.0770   43.3220 C   0  0  0  0  0  0  0  0  0  0  0  0
   58.7010   33.1380   45.7990 C   0  0  0  0  0  0  0  0  0  0  0  0
   58.9320   34.5360   45.7690 C   0  0  0  0  0  0  0  0  0  0  0  0
   59.2840   35.2310   46.9170 C   0  0  0  0  0  0  0  0  0  0  0  0
   59.3560   34.5780   48.1380 C   0  0  0  0  0  0  0  0  0  0  0  0
   59.0790   33.2050   48.2320 C   0  0  0  0  0  0  0  0  0  0  0  0
   59.0180   32.5770   49.4890 O   0  0  0  0  0  0  0  0  0  0  0  0
   59.2890   33.2080   50.7380 C   0  0  0  0  0  0  0  0  0  0  0  0
   60.7890   33.3910   50.8940 C   0  0  0  0  0  0  0  0  0  0  0  0
   58.8060   32.4590   47.0490 C   0  0  0  0  0  0  0  0  0  0  0  0
   54.5036   30.7668   53.0684 H   0  0  0  0  0  0  0  0  0  0  0  0
   54.1289   31.6012   51.5224 H   0  0  0  0  0  0  0  0  0  0  0  0
   54.5416   29.8529   51.5224 H   0  0  0  0  0  0  0  0  0  0  0  0
   56.3650   31.6753   50.8618 H   0  0  0  0  0  0  0  0  0  0  0  0
   56.5310   31.8393   52.6429 H   0  0  0  0  0  0  0  0  0  0  0  0
   58.1980   31.1220   50.8550 H   0  0  0  0  0  0  0  0  0  0  0  0
   59.1620   29.2916   52.3503 H   0  0  0  0  0  0  0  0  0  0  0  0
   58.9530   28.2928   50.8691 H   0  0  0  0  0  0  0  0  0  0  0  0
   60.1275   30.9775   50.3876 H   0  0  0  0  0  0  0  0  0  0  0  0
   61.1310   29.8509   51.4201 H   0  0  0  0  0  0  0  0  0  0  0  0
   61.7788   29.6994   49.0733 H   0  0  0  0  0  0  0  0  0  0  0  0
   60.9937   28.1529   49.7008 H   0  0  0  0  0  0  0  0  0  0  0  0
   60.4691   29.2393   47.2764 H   0  0  0  0  0  0  0  0  0  0  0  0
   59.3184   28.2296   48.2595 H   0  0  0  0  0  0  0  0  0  0  0  0
   58.4550   30.5040   49.1440 H   0  0  0  0  0  0  0  0  0  0  0  0
   57.7932   28.4972   46.9344 H   0  0  0  0  0  0  0  0  0  0  0  0
   56.7521   27.3977   44.9630 H   0  0  0  0  0  0  0  0  0  0  0  0
   56.3476   28.6969   42.8802 H   0  0  0  0  0  0  0  0  0  0  0  0
   57.0574   31.0734   42.7280 H   0  0  0  0  0  0  0  0  0  0  0  0
   58.7456   34.1423   43.4479 H   0  0  0  0  0  0  0  0  0  0  0  0
   59.3096   32.5795   42.7649 H   0  0  0  0  0  0  0  0  0  0  0  0
   57.5585   32.9800   42.7649 H   0  0  0  0  0  0  0  0  0  0  0  0
   58.8304   35.0799   44.8183 H   0  0  0  0  0  0  0  0  0  0  0  0
   59.5073   36.3065   46.8582 H   0  0  0  0  0  0  0  0  0  0  0  0
   59.6328   35.1411   49.0415 H   0  0  0  0  0  0  0  0  0  0  0  0
   58.7941   34.1899   50.7685 H   0  0  0  0  0  0  0  0  0  0  0  0
   58.9074   32.5813   51.5575 H   0  0  0  0  0  0  0  0  0  0  0  0
   61.0453   33.4223   51.9633 H   0  0  0  0  0  0  0  0  0  0  0  0
   61.3127   32.5501   50.4158 H   0  0  0  0  0  0  0  0  0  0  0  0
   61.0951   34.3332   50.4158 H   0  0  0  0  0  0  0  0  0  0  0  0
  1  2  1  0
  2  3  1  0
  3  4  1  0
  4  5  1  0
  5  6  1  0
  6  7  1  0
  7  8  1  0
  8  9  1  0
  9 10  1  0
 10 11  2  0
 11 12  1  0
 12 13  2  0
 13 14  1  0
 14 15  2  0
 15 16  1  0
 16 17  2  0
 17 18  1  0
 17 19  1  0
 19 20  2  0
 20 21  1  0
 21 22  2  0
 22 23  1  0
 23 24  1  0
 24 25  1  0
 25 26  1  0
 23 27  2  0
 27 10  1  0
 16 11  1  0
 27 19  1  0
  1 28  1  0
  1 29  1  0
  1 30  1  0
  2 31  1  0
  2 32  1  0
  4 33  1  0
  5 34  1  0
  5 35  1  0
  6 36  1  0
  6 37  1  0
  7 38  1  0
  7 39  1  0
  8 40  1  0
  8 41  1  0
  9 42  1  0
 12 43  1  0
 13 44  1  0
 14 45  1  0
 15 46  1  0
 18 47  1  0
 18 48  1  0
 18 49  1  0
 20 50  1  0
 21 51  1  0
 22 52  1  0
 25 53  1  0
 25 54  1  0
 26 55  1  0
 26 56  1  0
 26 57  1  0
M  CHG  1  17   1
M  END
>  <UniqueID>  (27) 
27

>  <SMILES>  (27) 
CCONCCCCNc1c2ccccc2[n+](C)c2cccc(OCC)c12

>  <Energy>  (27) 
70.98728780686528

>  <Genealogy>  (27) 
CCONCCCCNc1c2ccccc2[n+](C)c2cccc(OCC)c12 (3D coordinates assigned)
CCONCCCCNc1c2ccccc2[n+](C)c2cccc(OCC)c12 (optimized conformer: 70.98728780686528 kcal/mol)

>  <smiles>  (27) 
CCONCCCCNc1c2ccccc2[n+](C)c2cccc(OCC)c12

>  <score_type>  (27) 
oracle

>  <origin>  (27) 
adg

>  <m_score__min__energy>  (27) 
-6.3399999999999999

>  <m_primary>  (27) 
energy

$$$$
27:0
     RDKit          3D

 61 63  0  0  0  0  0  0  0  0999 V2000
   63.4630   33.7410   46.5570 C   0  0  0  0  0  0  0  0  0  0  0  0
   63.3120   32.5250   47.4720 C   0  0  0  0  0  0  0  0  0  0  0  0
   62.0810   32.5950   48.2880 N   0  0  0  0  0  0  0  0  0  0  0  0
   62.0780   33.8100   49.1210 C   0  0  0  0  0  0  0  0  0  0  0  0
   61.7850   31.3740   49.0810 C   0  0  0  0  0  0  0  0  0  0  0  0
   60.8610   30.3580   48.3740 C   0  0  0  0  0  0  0  0  0  0  0  0
   60.9150   30.5290   46.9070 N   0  0  0  0  0  0  0  0  0  0  0  0
   59.8080   29.8920   46.2100 C   0  0  0  0  0  0  0  0  0  0  0  0
   59.6600   28.4800   46.3000 C   0  0  0  0  0  0  0  0  0  0  0  0
   60.3570   27.7140   47.2690 C   0  0  0  0  0  0  0  0  0  0  0  0
   60.1400   26.3460   47.4000 C   0  0  0  0  0  0  0  0  0  0  0  0
   59.2310   25.7040   46.5710 C   0  0  0  0  0  0  0  0  0  0  0  0
   58.5780   26.4190   45.5720 C   0  0  0  0  0  0  0  0  0  0  0  0
   58.8190   27.8040   45.3830 C   0  0  0  0  0  0  0  0  0  0  0  0
   58.2810   28.4830   44.3150 N   0  0  0  0  0  0  0  0  0  0  0  0
   57.7770   27.7280   43.1440 C   0  0  0  0  0  0  0  0  0  0  0  0
   58.2320   29.8630   44.3250 C   0  0  0  0  0  0  0  0  0  0  0  0
   57.4390   30.5570   43.3770 C   0  0  0  0  0  0  0  0  0  0  0  0
   57.3760   31.9380   43.3600 C   0  0  0  0  0  0  0  0  0  0  0  0
   58.0370   32.6710   44.3240 C   0  0  0  0  0  0  0  0  0  0  0  0
   58.8010   32.0440   45.3140 C   0  0  0  0  0  0  0  0  0  0  0  0
   59.1680   32.8690   46.4400 N   0  0  0  0  0  0  0  0  0  0  0  0
   58.1440   33.1120   47.4770 C   0  0  0  0  0  0  0  0  0  0  0  0
   58.5810   32.6810   48.8810 C   0  0  0  0  0  0  0  0  0  0  0  0
   60.1990   33.9250   46.3140 C   0  0  0  0  0  0  0  0  0  0  0  0
   59.6520   35.3580   46.2870 C   0  0  0  0  0  0  0  0  0  0  0  0
   58.9620   30.6140   45.3040 C   0  0  0  0  0  0  0  0  0  0  0  0
   63.5757   34.6483   47.1686 H   0  0  0  0  0  0  0  0  0  0  0  0
   64.3523   33.6140   45.9221 H   0  0  0  0  0  0  0  0  0  0  0  0
   62.5697   33.8353   45.9221 H   0  0  0  0  0  0  0  0  0  0  0  0
   63.2762   31.6167   46.8525 H   0  0  0  0  0  0  0  0  0  0  0  0
   64.1727   32.5061   48.1567 H   0  0  0  0  0  0  0  0  0  0  0  0
   62.0787   33.5260   50.1837 H   0  0  0  0  0  0  0  0  0  0  0  0
   62.9747   34.4079   48.9007 H   0  0  0  0  0  0  0  0  0  0  0  0
   61.1784   34.4034   48.9007 H   0  0  0  0  0  0  0  0  0  0  0  0
   62.7374   30.8723   49.3073 H   0  0  0  0  0  0  0  0  0  0  0  0
   61.2498   31.7088   49.9818 H   0  0  0  0  0  0  0  0  0  0  0  0
   61.1842   29.3382   48.6300 H   0  0  0  0  0  0  0  0  0  0  0  0
   59.8277   30.5290   48.7103 H   0  0  0  0  0  0  0  0  0  0  0  0
   61.8100   30.1380   46.5280 H   0  0  0  0  0  0  0  0  0  0  0  0
   60.9780   31.5380   46.6690 H   0  0  0  0  0  0  0  0  0  0  0  0
   61.0829   28.2109   47.9295 H   0  0  0  0  0  0  0  0  0  0  0  0
   60.6894   25.7728   48.1613 H   0  0  0  0  0  0  0  0  0  0  0  0
   59.0270   24.6312   46.7035 H   0  0  0  0  0  0  0  0  0  0  0  0
   57.8620   25.9010   44.9170 H   0  0  0  0  0  0  0  0  0  0  0  0
   57.1972   26.8594   43.4896 H   0  0  0  0  0  0  0  0  0  0  0  0
   57.1328   28.3807   42.5365 H   0  0  0  0  0  0  0  0  0  0  0  0
   58.6268   27.3834   42.5365 H   0  0  0  0  0  0  0  0  0  0  0  0
   56.8604   29.9836   42.6378 H   0  0  0  0  0  0  0  0  0  0  0  0
   56.7987   32.4525   42.5777 H   0  0  0  0  0  0  0  0  0  0  0  0
   57.9619   33.7684   44.3139 H   0  0  0  0  0  0  0  0  0  0  0  0
   57.9182   34.1884   47.4978 H   0  0  0  0  0  0  0  0  0  0  0  0
   57.2650   32.5062   47.2117 H   0  0  0  0  0  0  0  0  0  0  0  0
   58.0090   33.2451   49.6324 H   0  0  0  0  0  0  0  0  0  0  0  0
   58.3932   31.6048   49.0093 H   0  0  0  0  0  0  0  0  0  0  0  0
   59.6545   32.8837   49.0093 H   0  0  0  0  0  0  0  0  0  0  0  0
   60.8855   33.8368   47.1690 H   0  0  0  0  0  0  0  0  0  0  0  0
   60.6913   33.7631   45.3437 H   0  0  0  0  0  0  0  0  0  0  0  0
   59.5148   35.7176   47.3175 H   0  0  0  0  0  0  0  0  0  0  0  0
   60.3636   36.0123   45.7621 H   0  0  0  0  0  0  0  0  0  0  0  0
   58.6854   35.3717   45.7621 H   0  0  0  0  0  0  0  0  0  0  0  0
  1  2  1  0
  2  3  1  0
  3  4  1  0
  3  5  1  0
  5  6  1  0
  6  7  1  0
  7  8  1  0
  8  9  2  0
  9 10  1  0
 10 11  2  0
 11 12  1  0
 12 13  2  0
 13 14  1  0
 14 15  2  0
 15 16  1  0
 15 17  1  0
 17 18  2  0
 18 19  1  0
 19 20  2  0
 20 21  1  0
 21 22  1  0
 22 23  1  0
 23 24  1  0
 22 25  1  0
 25 26  1  0
 21 27  2  0
 27  8  1  0
 14  9  1  0
 27 17  1  0
  1 28  1  0
  1 29  1  0
  1 30  1  0
  2 31  1  0
  2 32  1  0
  4 33  1  0
  4 34  1  0
  4 35  1  0
  5 36  1  0
  5 37  1  0
  6 38  1  0
  6 39  1  0
  7 40  1  0
  7 41  1  0
 10 42  1  0
 11 43  1  0
 12 44  1  0
 13 45  1  0
 16 46  1  0
 16 47  1  0
 16 48  1  0
 18 49  1  0
 19 50  1  0
 20 51  1  0
 23 52  1  0
 23 53  1  0
 24 54  1  0
 24 55  1  0
 24 56  1  0
 25 57  1  0
 25 58  1  0
 26 59  1  0
 26 60  1  0
 26 61  1  0
M  CHG  2   7   1  15   1
M  END
>  <UniqueID>  (28) 
28

>  <SMILES>  (28) 
CCN(C)CC[NH2+]c1c2ccccc2[n+](C)c2cccc(N(CC)CC)c12

>  <Energy>  (28) 
106.79646905687066

>  <Genealogy>  (28) 
CCN(C)CC[NH2+]c1c2ccccc2[n+](C)c2cccc(N(CC)CC)c12 (protonated)
CCN(C)CC[NH2+]c1c2ccccc2[n+](C)c2cccc(N(CC)CC)c12 (3D coordinates assigned)
CCN(C)CC[NH2+]c1c2ccccc2[n+](C)c2cccc(N(CC)CC)c12 (optimized conformer: 106.79646905687066 kcal/mol)

>  <smiles>  (28) 
CCN(C)CCNc1c2ccccc2[n+](C)c2cccc(N(CC)CC)c12

>  <score_type>  (28) 
oracle

>  <origin>  (28) 
adg

>  <m_score__min__energy>  (28) 
-4.1600000000000001

>  <m_primary>  (28) 
energy

$$$$
28:0
     RDKit          3D

 72 75  0  0  0  0  0  0  0  0999 V2000
   58.3260   29.5860   52.0830 C   0  0  0  0  0  0  0  0  0  0  0  0
   57.0120   30.1050   51.6600 N   0  0  0  0  0  0  0  0  0  0  0  0
   56.0160   29.7940   52.7000 C   0  0  0  0  0  0  0  0  0  0  0  0
   57.0600   31.5670   51.4350 C   0  0  0  0  0  0  0  0  0  0  0  0
   58.4720   32.0630   51.0670 C   0  0  0  0  0  0  0  0  0  0  0  0
   58.5530   32.7070   49.6720 C   0  0  0  0  0  0  0  0  0  0  0  0
   59.5450   32.0380   48.8290 N   0  0  0  0  0  0  0  0  0  0  0  0
   59.1540   31.3480   47.6280 C   0  0  0  0  0  0  0  0  0  0  0  0
   58.5620   32.0800   46.5800 C   0  0  0  0  0  0  0  0  0  0  0  0
   58.3700   33.4760   46.6860 C   0  0  0  0  0  0  0  0  0  0  0  0
   57.8110   34.2040   45.6390 C   0  0  0  0  0  0  0  0  0  0  0  0
   57.4540   33.5640   44.4600 C   0  0  0  0  0  0  0  0  0  0  0  0
   57.6420   32.1890   44.3250 C   0  0  0  0  0  0  0  0  0  0  0  0
   58.1790   31.4150   45.3860 C   0  0  0  0  0  0  0  0  0  0  0  0
   58.3670   30.0540   45.2630 N   0  0  0  0  0  0  0  0  0  0  0  0
   57.7200   29.3180   44.1540 C   0  0  0  0  0  0  0  0  0  0  0  0
   59.1410   29.3750   46.1840 C   0  0  0  0  0  0  0  0  0  0  0  0
   59.6300   28.0760   45.9070 C   0  0  0  0  0  0  0  0  0  0  0  0
   60.3570   27.3670   46.8510 C   0  0  0  0  0  0  0  0  0  0  0  0
   60.5890   27.9080   48.1060 C   0  0  0  0  0  0  0  0  0  0  0  0
   60.1280   29.1950   48.4300 C   0  0  0  0  0  0  0  0  0  0  0  0
   60.2750   29.7000   49.7360 O   0  0  0  0  0  0  0  0  0  0  0  0
   61.4850   30.1450   50.3460 C   0  0  0  0  0  0  0  0  0  0  0  0
   62.4700   30.8400   49.3670 C   0  0  0  0  0  0  0  0  0  0  0  0
   63.1040   32.1440   49.7870 N   0  0  0  0  0  0  0  0  0  0  0  0
   63.9160   31.9140   51.0150 C   0  0  0  0  0  0  0  0  0  0  0  0
   64.0660   32.5680   48.7230 C   0  0  0  0  0  0  0  0  0  0  0  0
   63.3960   32.9290   47.3760 C   0  0  0  0  0  0  0  0  0  0  0  0
   62.0000   33.5430   47.5410 C   0  0  0  0  0  0  0  0  0  0  0  0
   61.8580   34.2220   48.8950 C   0  0  0  0  0  0  0  0  0  0  0  0
   62.1170   33.2490   50.0670 C   0  0  0  0  0  0  0  0  0  0  0  0
   59.4780   29.9800   47.4300 C   0  0  0  0  0  0  0  0  0  0  0  0
   58.3760   29.5662   53.1817 H   0  0  0  0  0  0  0  0  0  0  0  0
   58.4611   28.5670   51.6914 H   0  0  0  0  0  0  0  0  0  0  0  0
   59.1210   30.2377   51.6914 H   0  0  0  0  0  0  0  0  0  0  0  0
   56.4670   29.9348   53.6934 H   0  0  0  0  0  0  0  0  0  0  0  0
   55.1510   30.4648   52.5916 H   0  0  0  0  0  0  0  0  0  0  0  0
   55.6864   28.7502   52.5916 H   0  0  0  0  0  0  0  0  0  0  0  0
   56.3725   31.8201   50.6145 H   0  0  0  0  0  0  0  0  0  0  0  0
   56.7680   32.0589   52.3746 H   0  0  0  0  0  0  0  0  0  0  0  0
   58.7845   32.8084   51.8131 H   0  0  0  0  0  0  0  0  0  0  0  0
   59.1310   31.1823   51.0552 H   0  0  0  0  0  0  0  0  0  0  0  0
   57.5675   32.6371   49.1883 H   0  0  0  0  0  0  0  0  0  0  0  0
   58.8559   33.7574   49.7939 H   0  0  0  0  0  0  0  0  0  0  0  0
   60.4950   31.8470   49.2160 H   0  0  0  0  0  0  0  0  0  0  0  0
   58.6665   33.9952   47.6093 H   0  0  0  0  0  0  0  0  0  0  0  0
   57.6521   35.2872   45.7462 H   0  0  0  0  0  0  0  0  0  0  0  0
   57.0219   34.1429   43.6304 H   0  0  0  0  0  0  0  0  0  0  0  0
   57.3694   31.6961   43.3802 H   0  0  0  0  0  0  0  0  0  0  0  0
   57.0466   28.5520   44.5660 H   0  0  0  0  0  0  0  0  0  0  0  0
   57.1417   30.0205   43.5359 H   0  0  0  0  0  0  0  0  0  0  0  0
   58.4908   28.8345   43.5359 H   0  0  0  0  0  0  0  0  0  0  0  0
   59.4298   27.6210   44.9257 H   0  0  0  0  0  0  0  0  0  0  0  0
   60.7515   26.3706   46.6029 H   0  0  0  0  0  0  0  0  0  0  0  0
   61.1404   27.3230   48.8568 H   0  0  0  0  0  0  0  0  0  0  0  0
   61.2282   30.8589   51.1425 H   0  0  0  0  0  0  0  0  0  0  0  0
   61.9962   29.2489   50.7276 H   0  0  0  0  0  0  0  0  0  0  0  0
   63.2871   30.1303   49.1704 H   0  0  0  0  0  0  0  0  0  0  0  0
   61.8447   31.1108   48.5035 H   0  0  0  0  0  0  0  0  0  0  0  0
   63.2935   32.0903   51.9046 H   0  0  0  0  0  0  0  0  0  0  0  0
   64.2822   30.8768   51.0235 H   0  0  0  0  0  0  0  0  0  0  0  0
   64.7718   32.6051   51.0235 H   0  0  0  0  0  0  0  0  0  0  0  0
   64.6141   33.4507   49.0841 H   0  0  0  0  0  0  0  0  0  0  0  0
   64.7257   31.7092   48.5301 H   0  0  0  0  0  0  0  0  0  0  0  0
   64.0362   33.6524   46.8499 H   0  0  0  0  0  0  0  0  0  0  0  0
   63.2770   31.9939   46.8091 H   0  0  0  0  0  0  0  0  0  0  0  0
   61.8384   34.2870   46.7471 H   0  0  0  0  0  0  0  0  0  0  0  0
   61.2535   32.7379   47.4734 H   0  0  0  0  0  0  0  0  0  0  0  0
   62.5816   35.0483   48.9543 H   0  0  0  0  0  0  0  0  0  0  0  0
   60.8242   34.5875   48.9823 H   0  0  0  0  0  0  0  0  0  0  0  0
   62.4967   33.8353   50.9167 H   0  0  0  0  0  0  0  0  0  0  0  0
   61.1558   32.7524   50.2654 H   0  0  0  0  0  0  0  0  0  0  0  0
  1  2  1  0
  2  3  1  0
  2  4  1  0
  4  5  1  0
  5  6  1  0
  6  7  1  0
  7  8  1  0
  8  9  2  0
  9 10  1  0
 10 11  2  0
 11 12  1  0
 12 13  2  0
 13 14  1  0
 14 15  2  0
 15 16  1  0
 15 17  1  0
 17 18  2  0
 18 19  1  0
 19 20  2  0
 20 21  1  0
 21 22  1  0
 22 23  1  0
 23 24  1  0
 24 25  1  0
 25 26  1  0
 25 27  1  0
 27 28  1  0
 28 29  1  0
 29 30  1  0
 30 31  1  0
 21 32  2  0
 32  8  1  0
 14  9  1  0
 32 17  1  0
 31 25  1  0
  1 33  1  0
  1 34  1  0
  1 35  1  0
  3 36  1  0
  3 37  1  0
  3 38  1  0
  4 39  1  0
  4 40  1  0
  5 41  1  0
  5 42  1  0
  6 43  1  0
  6 44  1  0
  7 45  1  0
 10 46  1  0
 11 47  1  0
 12 48  1  0
 13 49  1  0
 16 50  1  0
 16 51  1  0
 16 52  1  0
 18 53  1  0
 19 54  1  0
 20 55  1  0
 23 56  1  0
 23 57  1  0
 24 58  1  0
 24 59  1  0
 26 60  1  0
 26 61  1  0
 26 62  1  0
 27 63  1  0
 27 64  1  0
 28 65  1  0
 28 66  1  0
 29 67  1  0
 29 68  1  0
 30 69  1  0
 30 70  1  0
 31 71  1  0
 31 72  1  0
M  CHG  2  15   1  25   1
M  END
>  <UniqueID>  (29) 
29

>  <SMILES>  (29) 
CN(C)CCCNc1c2ccccc2[n+](C)c2cccc(OCC[N+]3(C)CCCCC3)c12

>  <Energy>  (29) 
121.88618750015848

>  <Genealogy>  (29) 
CN(C)CCCNc1c2ccccc2[n+](C)c2cccc(OCC[N+]3(C)CCCCC3)c12 (3D coordinates assigned)
CN(C)CCCNc1c2ccccc2[n+](C)c2cccc(OCC[N+]3(C)CCCCC3)c12 (nonaromatic ring conformer: 121.88618750015848 kcal/mol)

>  <smiles>  (29) 
CN(C)CCCNc1c2ccccc2[n+](C)c2cccc(OCC[N+]3(C)CCCCC3)c12

>  <score_type>  (29) 
oracle

>  <origin>  (29) 
adg

>  <m_score__min__energy>  (29) 
-4.96

>  <m_primary>  (29) 
energy

$$$$
