0:0
     RDKit          3D

 59 62  0  0  0  0  0  0  0  0999 V2000
   61.2710   33.8920   49.9190 C   0  0  0  0  0  0  0  0  0  0  0  0
   62.5470   33.8060   49.0780 C   0  0  0  0  0  0  0  0  0  0  0  0
   62.7530   32.4230   48.5880 N   0  0  0  0  0  0  0  0  0  0  0  0
   63.2050   32.4060   47.1770 C   0  0  0  0  0  0  0  0  0  0  0  0
   63.3740   33.8230   46.6210 C   0  0  0  0  0  0  0  0  0  0  0  0
   63.6990   31.6750   49.4580 C   0  0  0  0  0  0  0  0  0  0  0  0
   62.9480   31.0350   50.6280 C   0  0  0  0  0  0  0  0  0  0  0  0
   61.9100   30.2020   50.1480 O   0  0  0  0  0  0  0  0  0  0  0  0
   60.6650   30.5740   50.7010 C   0  0  0  0  0  0  0  0  0  0  0  0
   59.6380   30.7350   49.5830 C   0  0  0  0  0  0  0  0  0  0  0  0
   60.2790   30.7150   48.2660 N   0  0  0  0  0  0  0  0  0  0  0  0
   59.5600   30.3410   47.0820 C   0  0  0  0  0  0  0  0  0  0  0  0
   59.2310   28.9950   46.8210 C   0  0  0  0  0  0  0  0  0  0  0  0
   59.7250   27.9520   47.6300 C   0  0  0  0  0  0  0  0  0  0  0  0
   59.3850   26.6270   47.3620 C   0  0  0  0  0  0  0  0  0  0  0  0
   58.5530   26.3190   46.2880 C   0  0  0  0  0  0  0  0  0  0  0  0
   58.0620   27.3330   45.4630 C   0  0  0  0  0  0  0  0  0  0  0  0
   58.3980   28.6890   45.6990 C   0  0  0  0  0  0  0  0  0  0  0  0
   57.9430   29.7040   44.8760 N   0  0  0  0  0  0  0  0  0  0  0  0
   57.0740   29.4270   43.7170 C   0  0  0  0  0  0  0  0  0  0  0  0
   58.3250   30.9900   45.1500 C   0  0  0  0  0  0  0  0  0  0  0  0
   57.9530   32.0780   44.4250 N   0  0  0  0  0  0  0  0  0  0  0  0
   58.5700   33.0880   45.0660 C   0  0  0  0  0  0  0  0  0  0  0  0
   58.5310   34.4400   44.7360 C   0  0  0  0  0  0  0  0  0  0  0  0
   59.2710   35.3330   45.5320 C   0  0  0  0  0  0  0  0  0  0  0  0
   60.0400   34.8540   46.6150 C   0  0  0  0  0  0  0  0  0  0  0  0
   60.0660   33.4810   46.9210 C   0  0  0  0  0  0  0  0  0  0  0  0
   59.2940   32.6200   46.1340 C   0  0  0  0  0  0  0  0  0  0  0  0
   59.1270   31.2830   46.2000 N   0  0  0  0  0  0  0  0  0  0  0  0
   61.5339   33.8743   50.9870 H   0  0  0  0  0  0  0  0  0  0  0  0
   60.7415   34.8279   49.6872 H   0  0  0  0  0  0  0  0  0  0  0  0
   60.6207   33.0356   49.6872 H   0  0  0  0  0  0  0  0  0  0  0  0
   62.4600   34.4858   48.2176 H   0  0  0  0  0  0  0  0  0  0  0  0
   63.4052   34.0936   49.7031 H   0  0  0  0  0  0  0  0  0  0  0  0
   64.1704   31.8820   47.1179 H   0  0  0  0  0  0  0  0  0  0  0  0
   62.4403   31.8905   46.5774 H   0  0  0  0  0  0  0  0  0  0  0  0
   63.4590   34.5361   47.4542 H   0  0  0  0  0  0  0  0  0  0  0  0
   64.2840   33.8690   46.0047 H   0  0  0  0  0  0  0  0  0  0  0  0
   62.5003   34.0817   46.0047 H   0  0  0  0  0  0  0  0  0  0  0  0
   64.1906   30.8877   48.8676 H   0  0  0  0  0  0  0  0  0  0  0  0
   64.4515   32.3731   49.8534 H   0  0  0  0  0  0  0  0  0  0  0  0
   63.6499   30.4333   51.2242 H   0  0  0  0  0  0  0  0  0  0  0  0
   62.5105   31.8297   51.2501 H   0  0  0  0  0  0  0  0  0  0  0  0
   60.3269   29.7947   51.3998 H   0  0  0  0  0  0  0  0  0  0  0  0
   60.7734   31.5275   51.2387 H   0  0  0  0  0  0  0  0  0  0  0  0
   58.9124   29.9103   49.6412 H   0  0  0  0  0  0  0  0  0  0  0  0
   59.1349   31.7049   49.7101 H   0  0  0  0  0  0  0  0  0  0  0  0
   61.3170   30.8210   48.2010 H   0  0  0  0  0  0  0  0  0  0  0  0
   60.3839   28.1853   48.4794 H   0  0  0  0  0  0  0  0  0  0  0  0
   59.7753   25.8213   48.0012 H   0  0  0  0  0  0  0  0  0  0  0  0
   58.2815   25.2718   46.0888 H   0  0  0  0  0  0  0  0  0  0  0  0
   57.4056   27.0756   44.6187 H   0  0  0  0  0  0  0  0  0  0  0  0
   56.0815   29.1106   44.0702 H   0  0  0  0  0  0  0  0  0  0  0  0
   56.9734   30.3376   43.1082 H   0  0  0  0  0  0  0  0  0  0  0  0
   57.5190   28.6262   43.1082 H   0  0  0  0  0  0  0  0  0  0  0  0
   57.9403   34.7985   43.8801 H   0  0  0  0  0  0  0  0  0  0  0  0
   59.2505   36.4101   45.3096 H   0  0  0  0  0  0  0  0  0  0  0  0
   60.6234   35.5599   47.2243 H   0  0  0  0  0  0  0  0  0  0  0  0
   60.6743   33.0967   47.7530 H   0  0  0  0  0  0  0  0  0  0  0  0
  1  2  1  0
  2  3  1  0
  3  4  1  0
  4  5  1  0
  3  6  1  0
  6  7  1  0
  7  8  1  0
  8  9  1  0
  9 10  1  0
 10 11  1  0
 11 12  1  0
 12 13  2  0
 13 14  1  0
 14 15  2  0
 15 16  1  0
 16 17  2  0
 17 18  1  0
 18 19  2  0
 19 20  1  0
 19 21  1  0
 21 22  2  0
 22 23  1  0
 23 24  2  0
 24 25  1  0
 25 26  2  0
 26 27  1  0
 27 28  2  0
 28 29  1  0
 29 12  1  0
 18 13  1  0
 29 21  1  0
 28 23  1  0
  1 30  1  0
  1 31  1  0
  1 32  1  0
  2 33  1  0
  2 34  1  0
  4 35  1  0
  4 36  1  0
  5 37  1  0
  5 38  1  0
  5 39  1  0
  6 40  1  0
  6 41  1  0
  7 42  1  0
  7 43  1  0
  9 44  1  0
  9 45  1  0
 10 46  1  0
 10 47  1  0
 11 48  1  0
 14 49  1  0
 15 50  1  0
 16 51  1  0
 17 52  1  0
 20 53  1  0
 20 54  1  0
 20 55  1  0
 24 56  1  0
 25 57  1  0
 26 58  1  0
 27 59  1  0
M  CHG  1  19   1
M  END
>  <UniqueID>  (1) 
1

>  <SMILES>  (1) 
CCN(CC)CCOCCNc1c2ccccc2[n+](C)c2nc3ccccc3n12

>  <Energy>  (1) 
117.70418525290897

>  <Genealogy>  (1) 
CCN(CC)CCOCCNc1c2ccccc2[n+](C)c2nc3ccccc3n12 (3D coordinates assigned)
CCN(CC)CCOCCNc1c2ccccc2[n+](C)c2nc3ccccc3n12 (optimized conformer: 117.70418525290897 kcal/mol)

>  <smiles>  (1) 
CCN(CC)CCOCCNc1c2ccccc2[n+](C)c2nc3ccccc3n12

>  <score_type>  (1) 
oracle

>  <origin>  (1) 
adg

>  <m_score__min__energy>  (1) 
-6.2199999999999998

>  <m_primary>  (1) 
energy

$$$$
1:0
     RDKit          3D

 52 54  0  0  0  0  0  0  0  0999 V2000
   57.0500   22.9350   43.7180 C   0  0  0  0  0  0  0  0  0  0  0  0
   56.7490   24.4280   43.7910 C   0  0  0  0  0  0  0  0  0  0  0  0
   57.7720   25.1040   44.4980 O   0  0  0  0  0  0  0  0  0  0  0  0
   57.9000   26.4320   44.0390 C   0  0  0  0  0  0  0  0  0  0  0  0
   58.4910   27.2630   45.1280 C   0  0  0  0  0  0  0  0  0  0  0  0
   59.3830   28.2560   44.9230 N   0  0  0  0  0  0  0  0  0  0  0  0
   59.8190   28.8110   46.0880 C   0  0  0  0  0  0  0  0  0  0  0  0
   60.7880   29.9590   46.1180 C   0  0  0  0  0  0  0  0  0  0  0  0
   60.2660   31.0740   46.9390 N   0  0  0  0  0  0  0  0  0  0  0  0
   61.0980   32.2970   46.7620 C   0  0  0  0  0  0  0  0  0  0  0  0
   60.5440   33.5590   47.4620 C   0  0  0  0  0  0  0  0  0  0  0  0
   59.3910   34.2510   46.6970 C   0  0  0  0  0  0  0  0  0  0  0  0
   58.0770   33.6730   47.0530 N   0  0  0  0  0  0  0  0  0  0  0  0
   57.0820   33.7760   45.9640 C   0  0  0  0  0  0  0  0  0  0  0  0
   57.2970   32.7690   44.8660 C   0  0  0  0  0  0  0  0  0  0  0  0
   58.1620   32.9050   43.7960 C   0  0  0  0  0  0  0  0  0  0  0  0
   58.0390   31.7430   43.0650 C   0  0  0  0  0  0  0  0  0  0  0  0
   57.1100   30.9750   43.7380 C   0  0  0  0  0  0  0  0  0  0  0  0
   56.6220   29.6300   43.3140 C   0  0  0  0  0  0  0  0  0  0  0  0
   56.6810   31.6110   44.8030 O   0  0  0  0  0  0  0  0  0  0  0  0
   58.1510   32.3050   47.6190 C   0  0  0  0  0  0  0  0  0  0  0  0
   58.8150   31.2690   46.6880 C   0  0  0  0  0  0  0  0  0  0  0  0
   59.2770   28.2490   47.2420 C   0  0  0  0  0  0  0  0  0  0  0  0
   58.2300   27.0180   46.7700 S   0  0  0  0  0  0  0  0  0  0  0  0
   57.1322   22.5273   44.7363 H   0  0  0  0  0  0  0  0  0  0  0  0
   56.2370   22.4228   43.1825 H   0  0  0  0  0  0  0  0  0  0  0  0
   57.9979   22.7778   43.1825 H   0  0  0  0  0  0  0  0  0  0  0  0
   56.6837   24.8348   42.7711 H   0  0  0  0  0  0  0  0  0  0  0  0
   55.7947   24.5740   44.3182 H   0  0  0  0  0  0  0  0  0  0  0  0
   58.5573   26.4565   43.1573 H   0  0  0  0  0  0  0  0  0  0  0  0
   56.9120   26.8280   43.7614 H   0  0  0  0  0  0  0  0  0  0  0  0
   59.7000   28.5650   43.9780 H   0  0  0  0  0  0  0  0  0  0  0  0
   61.7412   29.6138   46.5450 H   0  0  0  0  0  0  0  0  0  0  0  0
   60.9341   30.3205   45.0894 H   0  0  0  0  0  0  0  0  0  0  0  0
   62.1000   32.0919   47.1670 H   0  0  0  0  0  0  0  0  0  0  0  0
   61.1049   32.5161   45.6841 H   0  0  0  0  0  0  0  0  0  0  0  0
   60.1734   33.2681   48.4560 H   0  0  0  0  0  0  0  0  0  0  0  0
   61.3708   34.2828   47.5119 H   0  0  0  0  0  0  0  0  0  0  0  0
   59.3892   35.3222   46.9469 H   0  0  0  0  0  0  0  0  0  0  0  0
   59.5531   34.0990   45.6197 H   0  0  0  0  0  0  0  0  0  0  0  0
   56.0800   33.6197   46.3902 H   0  0  0  0  0  0  0  0  0  0  0  0
   57.1899   34.7751   45.5165 H   0  0  0  0  0  0  0  0  0  0  0  0
   58.8135   33.7630   43.5740 H   0  0  0  0  0  0  0  0  0  0  0  0
   58.5706   31.4819   42.1380 H   0  0  0  0  0  0  0  0  0  0  0  0
   56.4016   29.0225   44.2042 H   0  0  0  0  0  0  0  0  0  0  0  0
   55.7081   29.7443   42.7126 H   0  0  0  0  0  0  0  0  0  0  0  0
   57.3966   29.1317   42.7126 H   0  0  0  0  0  0  0  0  0  0  0  0
   58.7295   32.3494   48.5535 H   0  0  0  0  0  0  0  0  0  0  0  0
   57.1144   31.9712   47.7741 H   0  0  0  0  0  0  0  0  0  0  0  0
   58.3070   30.3033   46.8270 H   0  0  0  0  0  0  0  0  0  0  0  0
   58.7183   31.6545   45.6623 H   0  0  0  0  0  0  0  0  0  0  0  0
   59.4942   28.5548   48.2761 H   0  0  0  0  0  0  0  0  0  0  0  0
  1  2  1  0
  2  3  1  0
  3  4  1  0
  4  5  1  0
  5  6  2  0
  6  7  1  0
  7  8  1  0
  8  9  1  0
  9 10  1  0
 10 11  1  0
 11 12  1  0
 12 13  1  0
 13 14  1  0
 14 15  1  0
 15 16  2  0
 16 17  1  0
 17 18  2  0
 18 19  1  0
 18 20  1  0
 13 21  1  0
 21 22  1  0
  7 23  2  0
 23 24  1  0
 24  5  1  0
 22  9  1  0
 20 15  1  0
  1 25  1  0
  1 26  1  0
  1 27  1  0
  2 28  1  0
  2 29  1  0
  4 30  1  0
  4 31  1  0
  6 32  1  0
  8 33  1  0
  8 34  1  0
 10 35  1  0
 10 36  1  0
 11 37  1  0
 11 38  1  0
 12 39  1  0
 12 40  1  0
 14 41  1  0
 14 42  1  0
 16 43  1  0
 17 44  1  0
 19 45  1  0
 19 46  1  0
 19 47  1  0
 21 48  1  0
 21 49  1  0
 22 50  1  0
 22 51  1  0
 23 52  1  0
M  CHG  1   6   1
M  END
>  <UniqueID>  (2) 
2

>  <SMILES>  (2) 
CCOCc1[nH+]c(CN2CCCN(Cc3ccc(C)o3)CC2)cs1

>  <Energy>  (2) 
122.17069178915956

>  <Genealogy>  (2) 
CCOCc1[nH+]c(CN2CCCN(Cc3ccc(C)o3)CC2)cs1 (protonated)
CCOCc1[nH+]c(CN2CCCN(Cc3ccc(C)o3)CC2)cs1 (3D coordinates assigned)
CCOCc1[nH+]c(CN2CCCN(Cc3ccc(C)o3)CC2)cs1 (nonaromatic ring conformer: 122.17069178915956 kcal/mol)

>  <smiles>  (2) 
CCOCc1nc(CN2CCCN(Cc3ccc(C)o3)CC2)cs1

>  <score_type>  (2) 
oracle

>  <origin>  (2) 
adg

>  <m_score__min__energy>  (2) 
-4.2599999999999998

>  <m_primary>  (2) 
energy

$$$$
2:0
     RDKit          3D

 50 52  0  0  0  0  0  0  0  0999 V2000
   57.5040   27.0270   46.9990 C   0  0  0  0  0  0  0  0  0  0  0  0
   57.0090   25.5900   47.1180 C   0  0  0  0  0  0  0  0  0  0  0  0
   56.4060   25.1610   45.8970 O   0  0  0  0  0  0  0  0  0  0  0  0
   56.5230   23.8810   45.3250 C   0  0  0  0  0  0  0  0  0  0  0  0
   56.2440   22.7070   46.0530 C   0  0  0  0  0  0  0  0  0  0  0  0
   56.3660   21.4540   45.4480 C   0  0  0  0  0  0  0  0  0  0  0  0
   56.7510   21.3560   44.1110 C   0  0  0  0  0  0  0  0  0  0  0  0
   57.0220   22.5100   43.3760 C   0  0  0  0  0  0  0  0  0  0  0  0
   56.9340   23.7770   43.9780 C   0  0  0  0  0  0  0  0  0  0  0  0
   57.2780   25.0200   43.1810 C   0  0  0  0  0  0  0  0  0  0  0  0
   57.6100   26.1680   44.0580 N   0  0  0  0  0  0  0  0  0  0  0  0
   58.4850   27.1680   43.4190 C   0  0  0  0  0  0  0  0  0  0  0  0
   58.4820   28.5230   44.1250 C   0  0  0  0  0  0  0  0  0  0  0  0
   57.3000   29.2680   44.0120 C   0  0  0  0  0  0  0  0  0  0  0  0
   57.1690   30.4930   44.6390 C   0  0  0  0  0  0  0  0  0  0  0  0
   56.1010   31.1470   44.4900 O   0  0  0  0  0  0  0  0  0  0  0  0
   58.2110   30.9800   45.4310 C   0  0  0  0  0  0  0  0  0  0  0  0
   58.0820   32.2180   46.0930 C   0  0  0  0  0  0  0  0  0  0  0  0
   59.1010   32.6940   46.9120 C   0  0  0  0  0  0  0  0  0  0  0  0
   58.9240   34.2350   47.7320 Cl  0  0  0  0  0  0  0  0  0  0  0  0
   60.2560   31.9400   47.0900 C   0  0  0  0  0  0  0  0  0  0  0  0
   60.4060   30.7150   46.4400 C   0  0  0  0  0  0  0  0  0  0  0  0
   59.3990   30.2080   45.5750 C   0  0  0  0  0  0  0  0  0  0  0  0
   59.5380   29.0020   44.8930 N   0  0  0  0  0  0  0  0  0  0  0  0
   60.8200   28.2520   44.9670 C   0  0  0  0  0  0  0  0  0  0  0  0
   60.7610   27.1490   46.0280 C   0  0  0  0  0  0  0  0  0  0  0  0
   57.6494   27.4492   48.0043 H   0  0  0  0  0  0  0  0  0  0  0  0
   58.4590   27.0418   46.4534 H   0  0  0  0  0  0  0  0  0  0  0  0
   56.7607   27.6269   46.4534 H   0  0  0  0  0  0  0  0  0  0  0  0
   57.8601   24.9331   47.3507 H   0  0  0  0  0  0  0  0  0  0  0  0
   56.2578   25.5401   47.9200 H   0  0  0  0  0  0  0  0  0  0  0  0
   55.9282   22.7779   47.1043 H   0  0  0  0  0  0  0  0  0  0  0  0
   56.1580   20.5424   46.0273 H   0  0  0  0  0  0  0  0  0  0  0  0
   56.8410   20.3680   43.6359 H   0  0  0  0  0  0  0  0  0  0  0  0
   57.3069   22.4279   42.3167 H   0  0  0  0  0  0  0  0  0  0  0  0
   58.1440   24.8017   42.5388 H   0  0  0  0  0  0  0  0  0  0  0  0
   56.3971   25.2939   42.5818 H   0  0  0  0  0  0  0  0  0  0  0  0
   56.7150   26.6560   44.2960 H   0  0  0  0  0  0  0  0  0  0  0  0
   58.0150   25.8560   44.9660 H   0  0  0  0  0  0  0  0  0  0  0  0
   59.5140   26.7792   43.4169 H   0  0  0  0  0  0  0  0  0  0  0  0
   58.0982   27.3328   42.4025 H   0  0  0  0  0  0  0  0  0  0  0  0
   56.4646   28.8721   43.4158 H   0  0  0  0  0  0  0  0  0  0  0  0
   57.1666   32.8135   45.9607 H   0  0  0  0  0  0  0  0  0  0  0  0
   61.0559   32.3118   47.7472 H   0  0  0  0  0  0  0  0  0  0  0  0
   61.3231   30.1291   46.6004 H   0  0  0  0  0  0  0  0  0  0  0  0
   61.0249   27.7957   43.9873 H   0  0  0  0  0  0  0  0  0  0  0  0
   61.6181   28.9566   45.2437 H   0  0  0  0  0  0  0  0  0  0  0  0
   60.7853   27.6024   47.0299 H   0  0  0  0  0  0  0  0  0  0  0  0
   59.8308   26.5742   45.9080 H   0  0  0  0  0  0  0  0  0  0  0  0
   61.6246   26.4783   45.9080 H   0  0  0  0  0  0  0  0  0  0  0  0
  1  2  1  0
  2  3  1  0
  3  4  1  0
  4  5  2  0
  5  6  1  0
  6  7  2  0
  7  8  1  0
  8  9  2  0
  9 10  1  0
 10 11  1  0
 11 12  1  0
 12 13  1  0
 13 14  2  0
 14 15  1  0
 15 16  2  0
 15 17  1  0
 17 18  2  0
 18 19  1  0
 19 20  1  0
 19 21  2  0
 21 22  1  0
 22 23  2  0
 23 24  1  0
 24 25  1  0
 25 26  1  0
  9  4  1  0
 24 13  1  0
 23 17  1  0
  1 27  1  0
  1 28  1  0
  1 29  1  0
  2 30  1  0
  2 31  1  0
  5 32  1  0
  6 33  1  0
  7 34  1  0
  8 35  1  0
 10 36  1  0
 10 37  1  0
 11 38  1  0
 11 39  1  0
 12 40  1  0
 12 41  1  0
 14 42  1  0
 18 43  1  0
 21 44  1  0
 22 45  1  0
 25 46  1  0
 25 47  1  0
 26 48  1  0
 26 49  1  0
 26 50  1  0
M  CHG  1  11   1
M  END
>  <UniqueID>  (3) 
3

>  <SMILES>  (3) 
CCOc1ccccc1C[NH2+]Cc1cc(=O)c2cc(Cl)ccc2n1CC

>  <Energy>  (3) 
64.17296269002445

>  <Genealogy>  (3) 
CCOc1ccccc1C[NH2+]Cc1cc(=O)c2cc(Cl)ccc2n1CC (protonated)
CCOc1ccccc1C[NH2+]Cc1cc(=O)c2cc(Cl)ccc2n1CC (3D coordinates assigned)
CCOc1ccccc1C[NH2+]Cc1cc(=O)c2cc(Cl)ccc2n1CC (optimized conformer: 64.17296269002445 kcal/mol)

>  <smiles>  (3) 
CCOc1ccccc1CNCc1cc(=O)c2cc(Cl)ccc2n1CC

>  <score_type>  (3) 
oracle

>  <origin>  (3) 
adg

>  <m_score__min__energy>  (3) 
-6.2400000000000002

>  <m_primary>  (3) 
energy

$$$$
3:0
     RDKit          3D

 34 36  0  0  0  0  0  0  0  0999 V2000
   57.0260   30.8580   42.9700 C   0  0  0  0  0  0  0  0  0  0  0  0
   57.5690   31.6230   44.1460 C   0  0  0  0  0  0  0  0  0  0  0  0
   57.6570   33.0230   44.0680 C   0  0  0  0  0  0  0  0  0  0  0  0
   58.1460   33.7630   45.1480 C   0  0  0  0  0  0  0  0  0  0  0  0
   58.5570   33.1140   46.3120 C   0  0  0  0  0  0  0  0  0  0  0  0
   58.4940   31.7210   46.3970 C   0  0  0  0  0  0  0  0  0  0  0  0
   58.0220   30.9660   45.3140 C   0  0  0  0  0  0  0  0  0  0  0  0
   57.9880   29.5380   45.4270 N   0  0  0  0  0  0  0  0  0  0  0  0
   56.8620   28.8550   45.6140 N   0  0  0  0  0  0  0  0  0  0  0  0
   57.2150   27.5580   45.6910 C   0  0  0  0  0  0  0  0  0  0  0  0
   56.4010   26.4500   45.8770 C   0  0  0  0  0  0  0  0  0  0  0  0
   55.1520   26.5850   45.9980 O   0  0  0  0  0  0  0  0  0  0  0  0
   56.9990   25.2110   45.9240 N   0  0  0  0  0  0  0  0  0  0  0  0
   56.1740   24.0140   46.1210 C   0  0  0  0  0  0  0  0  0  0  0  0
   58.3370   25.0850   45.7970 N   0  0  0  0  0  0  0  0  0  0  0  0
   59.1520   26.1670   45.6130 C   0  0  0  0  0  0  0  0  0  0  0  0
   58.5590   27.4160   45.5610 C   0  0  0  0  0  0  0  0  0  0  0  0
   59.0510   28.6930   45.4050 C   0  0  0  0  0  0  0  0  0  0  0  0
   60.4900   29.0780   45.2410 C   0  0  0  0  0  0  0  0  0  0  0  0
   56.4244   30.0104   43.3301 H   0  0  0  0  0  0  0  0  0  0  0  0
   56.3959   31.5220   42.3600 H   0  0  0  0  0  0  0  0  0  0  0  0
   57.8607   30.4822   42.3600 H   0  0  0  0  0  0  0  0  0  0  0  0
   57.3389   33.5401   43.1507 H   0  0  0  0  0  0  0  0  0  0  0  0
   58.2068   34.8592   45.0799 H   0  0  0  0  0  0  0  0  0  0  0  0
   58.9313   33.6998   47.1644 H   0  0  0  0  0  0  0  0  0  0  0  0
   58.8164   31.2139   47.3184 H   0  0  0  0  0  0  0  0  0  0  0  0
   56.0468   23.8295   47.1979 H   0  0  0  0  0  0  0  0  0  0  0  0
   55.1888   24.1672   45.6564 H   0  0  0  0  0  0  0  0  0  0  0  0
   56.6678   23.1478   45.6564 H   0  0  0  0  0  0  0  0  0  0  0  0
   58.7840   24.1410   45.8350 H   0  0  0  0  0  0  0  0  0  0  0  0
   60.2408   26.0488   45.5099 H   0  0  0  0  0  0  0  0  0  0  0  0
   60.9517   29.2015   46.2317 H   0  0  0  0  0  0  0  0  0  0  0  0
   61.0194   28.2899   44.6854 H   0  0  0  0  0  0  0  0  0  0  0  0
   60.5551   30.0252   44.6854 H   0  0  0  0  0  0  0  0  0  0  0  0
  1  2  1  0
  2  3  2  0
  3  4  1  0
  4  5  2  0
  5  6  1  0
  6  7  2  0
  7  8  1  0
  8  9  1  0
  9 10  2  0
 10 11  1  0
 11 12  2  0
 11 13  1  0
 13 14  1  0
 13 15  1  0
 15 16  2  0
 16 17  1  0
 17 18  2  0
 18 19  1  0
  7  2  1  0
 18  8  1  0
 17 10  1  0
  1 20  1  0
  1 21  1  0
  1 22  1  0
  3 23  1  0
  4 24  1  0
  5 25  1  0
  6 26  1  0
 14 27  1  0
 14 28  1  0
 14 29  1  0
 15 30  1  0
 16 31  1  0
 19 32  1  0
 19 33  1  0
 19 34  1  0
M  CHG  1  15   1
M  END
>  <UniqueID>  (4) 
4

>  <SMILES>  (4) 
Cc1ccccc1-n1nc2c(=O)n(C)[nH+]cc2c1C

>  <Energy>  (4) 
83.61578853780631

>  <Genealogy>  (4) 
Cc1ccccc1-n1nc2c(=O)n(C)[nH+]cc2c1C (protonated)
Cc1ccccc1-n1nc2c(=O)n(C)[nH+]cc2c1C (3D coordinates assigned)
Cc1ccccc1-n1nc2c(=O)n(C)[nH+]cc2c1C (optimized conformer: 83.61578853780631 kcal/mol)

>  <smiles>  (4) 
Cc1ccccc1-n1nc2c(=O)n(C)ncc2c1C

>  <score_type>  (4) 
oracle

>  <origin>  (4) 
adg

>  <m_score__min__energy>  (4) 
-5.5099999999999998

>  <m_primary>  (4) 
energy

$$$$
4:0
     RDKit          3D

 49 51  0  0  0  0  0  0  0  0999 V2000
   60.0000   33.8510   49.2850 C   0  0  0  0  0  0  0  0  0  0  0  0
   59.3880   33.6590   47.9000 C   0  0  0  0  0  0  0  0  0  0  0  0
   60.4430   33.5640   46.8600 N   0  0  0  0  0  0  0  0  0  0  0  0
   59.9890   34.2240   45.6100 C   0  0  0  0  0  0  0  0  0  0  0  0
   58.4650   34.2090   45.5250 C   0  0  0  0  0  0  0  0  0  0  0  0
   61.7030   34.1700   47.3550 C   0  0  0  0  0  0  0  0  0  0  0  0
   62.9120   33.8240   46.4720 C   0  0  0  0  0  0  0  0  0  0  0  0
   63.6620   32.6840   47.0020 N   0  0  0  0  0  0  0  0  0  0  0  0
   63.2990   32.0460   48.2420 C   0  0  0  0  0  0  0  0  0  0  0  0
   64.1290   32.1490   49.3770 C   0  0  0  0  0  0  0  0  0  0  0  0
   65.2620   32.9920   49.3750 C   0  0  0  0  0  0  0  0  0  0  0  0
   66.1240   33.0300   50.4670 C   0  0  0  0  0  0  0  0  0  0  0  0
   65.8770   32.2320   51.5770 C   0  0  0  0  0  0  0  0  0  0  0  0
   64.7380   31.4300   51.6230 C   0  0  0  0  0  0  0  0  0  0  0  0
   63.8100   31.4110   50.5500 C   0  0  0  0  0  0  0  0  0  0  0  0
   62.6300   30.6940   50.6200 N   0  0  0  0  0  0  0  0  0  0  0  0
   62.1700   30.1520   51.9190 C   0  0  0  0  0  0  0  0  0  0  0  0
   61.8580   30.5180   49.4880 C   0  0  0  0  0  0  0  0  0  0  0  0
   60.7750   29.6080   49.4510 C   0  0  0  0  0  0  0  0  0  0  0  0
   59.9800   29.4920   48.3150 C   0  0  0  0  0  0  0  0  0  0  0  0
   60.2630   30.2720   47.2040 C   0  0  0  0  0  0  0  0  0  0  0  0
   61.3280   31.1150   47.2120 N   0  0  0  0  0  0  0  0  0  0  0  0
   62.1490   31.2390   48.3010 C   0  0  0  0  0  0  0  0  0  0  0  0
   59.2491   33.6154   50.0535 H   0  0  0  0  0  0  0  0  0  0  0  0
   60.8648   33.1810   49.3998 H   0  0  0  0  0  0  0  0  0  0  0  0
   60.3271   34.8949   49.3998 H   0  0  0  0  0  0  0  0  0  0  0  0
   58.7935   32.7335   47.8947 H   0  0  0  0  0  0  0  0  0  0  0  0
   58.7516   34.5275   47.6749 H   0  0  0  0  0  0  0  0  0  0  0  0
   60.3425   35.2656   45.6008 H   0  0  0  0  0  0  0  0  0  0  0  0
   60.4003   33.6783   44.7480 H   0  0  0  0  0  0  0  0  0  0  0  0
   58.0412   34.2048   46.5401 H   0  0  0  0  0  0  0  0  0  0  0  0
   58.1190   35.1038   44.9868 H   0  0  0  0  0  0  0  0  0  0  0  0
   58.1366   33.3076   44.9868 H   0  0  0  0  0  0  0  0  0  0  0  0
   61.5836   35.2633   47.3761 H   0  0  0  0  0  0  0  0  0  0  0  0
   61.8963   33.7635   48.3587 H   0  0  0  0  0  0  0  0  0  0  0  0
   62.5558   33.5772   45.4610 H   0  0  0  0  0  0  0  0  0  0  0  0
   63.5825   34.6958   46.4523 H   0  0  0  0  0  0  0  0  0  0  0  0
   64.5290   32.3800   46.5060 H   0  0  0  0  0  0  0  0  0  0  0  0
   65.4657   33.6263   48.4997 H   0  0  0  0  0  0  0  0  0  0  0  0
   67.0019   33.6926   50.4512 H   0  0  0  0  0  0  0  0  0  0  0  0
   66.5819   32.2331   52.4215 H   0  0  0  0  0  0  0  0  0  0  0  0
   64.5554   30.8008   52.5066 H   0  0  0  0  0  0  0  0  0  0  0  0
   62.6448   30.7114   52.7385 H   0  0  0  0  0  0  0  0  0  0  0  0
   61.0770   30.2522   51.9917 H   0  0  0  0  0  0  0  0  0  0  0  0
   62.4465   29.0898   51.9917 H   0  0  0  0  0  0  0  0  0  0  0  0
   60.5590   28.9846   50.3312 H   0  0  0  0  0  0  0  0  0  0  0  0
   59.1349   28.7881   48.2984 H   0  0  0  0  0  0  0  0  0  0  0  0
   59.6222   30.2078   46.3122 H   0  0  0  0  0  0  0  0  0  0  0  0
   61.4970   31.6680   46.3450 H   0  0  0  0  0  0  0  0  0  0  0  0
  1  2  1  0
  2  3  1  0
  3  4  1  0
  4  5  1  0
  3  6  1  0
  6  7  1  0
  7  8  1  0
  8  9  1  0
  9 10  2  0
 10 11  1  0
 11 12  2  0
 12 13  1  0
 13 14  2  0
 14 15  1  0
 15 16  2  0
 16 17  1  0
 16 18  1  0
 18 19  2  0
 19 20  1  0
 20 21  2  0
 21 22  1  0
 22 23  2  0
 23  9  1  0
 15 10  1  0
 23 18  1  0
  1 24  1  0
  1 25  1  0
  1 26  1  0
  2 27  1  0
  2 28  1  0
  4 29  1  0
  4 30  1  0
  5 31  1  0
  5 32  1  0
  5 33  1  0
  6 34  1  0
  6 35  1  0
  7 36  1  0
  7 37  1  0
  8 38  1  0
 11 39  1  0
 12 40  1  0
 13 41  1  0
 14 42  1  0
 17 43  1  0
 17 44  1  0
 17 45  1  0
 19 46  1  0
 20 47  1  0
 21 48  1  0
 22 49  1  0
M  CHG  2  16   1  22   1
M  END
>  <UniqueID>  (5) 
5

>  <SMILES>  (5) 
CCN(CC)CCNc1c2ccccc2[n+](C)c2ccc[nH+]c12

>  <Energy>  (5) 
72.21581533665763

>  <Genealogy>  (5) 
CCN(CC)CCNc1c2ccccc2[n+](C)c2ccc[nH+]c12 (protonated)
CCN(CC)CCNc1c2ccccc2[n+](C)c2ccc[nH+]c12 (3D coordinates assigned)
CCN(CC)CCNc1c2ccccc2[n+](C)c2ccc[nH+]c12 (optimized conformer: 72.21581533665763 kcal/mol)

>  <smiles>  (5) 
CCN(CC)CCNc1c2ccccc2[n+](C)c2cccnc12

>  <score_type>  (5) 
oracle

>  <origin>  (5) 
adg

>  <m_score__min__energy>  (5) 
-3.8799999999999999

>  <m_primary>  (5) 
energy

$$$$
5:0
     RDKit          3D

 46 48  0  0  0  0  0  0  0  0999 V2000
   62.9760   31.7610   47.1960 C   0  0  0  0  0  0  0  0  0  0  0  0
   61.6020   31.3280   47.7080 C   0  0  0  0  0  0  0  0  0  0  0  0
   60.5050   32.1740   47.1710 N   0  0  0  0  0  0  0  0  0  0  0  0
   60.5070   33.5440   47.3890 C   0  0  0  0  0  0  0  0  0  0  0  0
   61.3700   34.2200   48.4420 C   0  0  0  0  0  0  0  0  0  0  0  0
   61.0310   33.7470   49.7950 N   0  0  0  0  0  0  0  0  0  0  0  0
   59.6630   34.1120   50.2090 C   0  0  0  0  0  0  0  0  0  0  0  0
   58.9270   32.9130   50.7510 C   0  0  0  0  0  0  0  0  0  0  0  0
   58.9650   31.6920   50.0620 C   0  0  0  0  0  0  0  0  0  0  0  0
   58.1950   30.6100   50.4970 C   0  0  0  0  0  0  0  0  0  0  0  0
   57.3950   30.7220   51.6390 C   0  0  0  0  0  0  0  0  0  0  0  0
   56.6030   29.6250   52.0080 O   0  0  0  0  0  0  0  0  0  0  0  0
   55.3890   29.7230   52.7470 C   0  0  0  0  0  0  0  0  0  0  0  0
   57.4080   31.9230   52.3710 C   0  0  0  0  0  0  0  0  0  0  0  0
   58.1770   33.0060   51.9340 C   0  0  0  0  0  0  0  0  0  0  0  0
   59.6270   34.3700   46.6770 C   0  0  0  0  0  0  0  0  0  0  0  0
   58.6660   33.8250   45.8420 C   0  0  0  0  0  0  0  0  0  0  0  0
   57.8740   34.5940   45.2310 O   0  0  0  0  0  0  0  0  0  0  0  0
   58.5670   32.4360   45.7130 C   0  0  0  0  0  0  0  0  0  0  0  0
   57.5440   31.8620   44.9340 C   0  0  0  0  0  0  0  0  0  0  0  0
   57.4330   30.4800   44.8170 C   0  0  0  0  0  0  0  0  0  0  0  0
   56.1370   29.7800   43.8630 Cl  0  0  0  0  0  0  0  0  0  0  0  0
   58.3470   29.6530   45.4630 C   0  0  0  0  0  0  0  0  0  0  0  0
   59.3740   30.2010   46.2330 C   0  0  0  0  0  0  0  0  0  0  0  0
   59.5070   31.6060   46.3870 C   0  0  0  0  0  0  0  0  0  0  0  0
   63.6368   31.9692   48.0504 H   0  0  0  0  0  0  0  0  0  0  0  0
   63.4099   30.9560   46.5846 H   0  0  0  0  0  0  0  0  0  0  0  0
   62.8699   32.6693   46.5846 H   0  0  0  0  0  0  0  0  0  0  0  0
   61.4247   30.2855   47.4052 H   0  0  0  0  0  0  0  0  0  0  0  0
   61.6030   31.4352   48.8028 H   0  0  0  0  0  0  0  0  0  0  0  0
   62.4271   33.9945   48.2378 H   0  0  0  0  0  0  0  0  0  0  0  0
   61.1879   35.3039   48.3970 H   0  0  0  0  0  0  0  0  0  0  0  0
   61.6930   34.2130   50.4580 H   0  0  0  0  0  0  0  0  0  0  0  0
   59.7172   34.8847   50.9900 H   0  0  0  0  0  0  0  0  0  0  0  0
   59.1193   34.4907   49.3309 H   0  0  0  0  0  0  0  0  0  0  0  0
   59.6049   31.5854   49.1737 H   0  0  0  0  0  0  0  0  0  0  0  0
   58.2182   29.6633   49.9373 H   0  0  0  0  0  0  0  0  0  0  0  0
   55.6128   29.7049   53.8238 H   0  0  0  0  0  0  0  0  0  0  0  0
   54.8807   30.6651   52.4939 H   0  0  0  0  0  0  0  0  0  0  0  0
   54.7362   28.8746   52.4939 H   0  0  0  0  0  0  0  0  0  0  0  0
   56.8110   32.0106   53.2907 H   0  0  0  0  0  0  0  0  0  0  0  0
   58.1944   33.9363   52.5207 H   0  0  0  0  0  0  0  0  0  0  0  0
   59.7003   35.4625   46.7824 H   0  0  0  0  0  0  0  0  0  0  0  0
   56.8259   32.5123   44.4131 H   0  0  0  0  0  0  0  0  0  0  0  0
   58.2595   28.5608   45.3662 H   0  0  0  0  0  0  0  0  0  0  0  0
   60.0930   29.5325   46.7292 H   0  0  0  0  0  0  0  0  0  0  0  0
  1  2  1  0
  2  3  1  0
  3  4  1  0
  4  5  1  0
  5  6  1  0
  6  7  1  0
  7  8  1  0
  8  9  2  0
  9 10  1  0
 10 11  2  0
 11 12  1  0
 12 13  1  0
 11 14  1  0
 14 15  2  0
  4 16  2  0
 16 17  1  0
 17 18  2  0
 17 19  1  0
 19 20  2  0
 20 21  1  0
 21 22  1  0
 21 23  2  0
 23 24  1  0
 24 25  2  0
 25  3  1  0
 15  8  1  0
 25 19  1  0
  1 26  1  0
  1 27  1  0
  1 28  1  0
  2 29  1  0
  2 30  1  0
  5 31  1  0
  5 32  1  0
  6 33  1  0
  7 34  1  0
  7 35  1  0
  9 36  1  0
 10 37  1  0
 13 38  1  0
 13 39  1  0
 13 40  1  0
 14 41  1  0
 15 42  1  0
 16 43  1  0
 20 44  1  0
 23 45  1  0
 24 46  1  0
M  END
>  <UniqueID>  (6) 
6

>  <SMILES>  (6) 
CCn1c(CNCc2ccc(OC)cc2)cc(=O)c2cc(Cl)ccc21

>  <Energy>  (6) 
56.33760228946085

>  <Genealogy>  (6) 
CCn1c(CNCc2ccc(OC)cc2)cc(=O)c2cc(Cl)ccc21 (3D coordinates assigned)
CCn1c(CNCc2ccc(OC)cc2)cc(=O)c2cc(Cl)ccc21 (optimized conformer: 56.33760228946085 kcal/mol)

>  <smiles>  (6) 
CCn1c(CNCc2ccc(OC)cc2)cc(=O)c2cc(Cl)ccc21

>  <score_type>  (6) 
oracle

>  <origin>  (6) 
adg

>  <m_score__min__energy>  (6) 
-7.7400000000000002

>  <m_primary>  (6) 
energy

$$$$
6:0
     RDKit          3D

 35 35  0  0  0  0  0  0  0  0999 V2000
   56.5700   29.6900   42.9460 C   0  0  0  0  0  0  0  0  0  0  0  0
   55.9660   30.4280   44.1390 C   0  0  0  0  0  0  0  0  0  0  0  0
   56.9960   30.7250   45.1600 N   0  0  0  0  0  0  0  0  0  0  0  0
   57.9050   29.5720   45.3900 C   0  0  0  0  0  0  0  0  0  0  0  0
   59.2910   30.0780   45.7750 C   0  0  0  0  0  0  0  0  0  0  0  0
   57.7440   31.9550   44.8120 C   0  0  0  0  0  0  0  0  0  0  0  0
   56.9680   33.2100   45.2370 C   0  0  0  0  0  0  0  0  0  0  0  0
   57.1270   33.4680   46.6700 N   0  0  0  0  0  0  0  0  0  0  0  0
   58.3870   33.3690   47.3590 C   0  0  0  0  0  0  0  0  0  0  0  0
   58.5310   32.5080   48.4630 C   0  0  0  0  0  0  0  0  0  0  0  0
   59.7530   32.4110   49.1320 C   0  0  0  0  0  0  0  0  0  0  0  0
   60.8450   33.1720   48.7100 C   0  0  0  0  0  0  0  0  0  0  0  0
   60.7180   34.0310   47.6170 C   0  0  0  0  0  0  0  0  0  0  0  0
   59.4950   34.1360   46.9390 C   0  0  0  0  0  0  0  0  0  0  0  0
   59.4090   35.0010   45.7870 C   0  0  0  0  0  0  0  0  0  0  0  0
   59.3400   35.6930   44.8620 N   0  0  0  0  0  0  0  0  0  0  0  0
   57.2281   28.8859   43.3072 H   0  0  0  0  0  0  0  0  0  0  0  0
   55.7634   29.2574   42.3358 H   0  0  0  0  0  0  0  0  0  0  0  0
   57.1535   30.3951   42.3358 H   0  0  0  0  0  0  0  0  0  0  0  0
   55.5232   31.3726   43.7902 H   0  0  0  0  0  0  0  0  0  0  0  0
   55.1981   29.7855   44.5945 H   0  0  0  0  0  0  0  0  0  0  0  0
   57.5051   28.9477   46.2026 H   0  0  0  0  0  0  0  0  0  0  0  0
   57.9781   28.9766   44.4680 H   0  0  0  0  0  0  0  0  0  0  0  0
   59.3783   30.1099   46.8711 H   0  0  0  0  0  0  0  0  0  0  0  0
   60.0553   29.4009   45.3658 H   0  0  0  0  0  0  0  0  0  0  0  0
   59.4392   31.0882   45.3658 H   0  0  0  0  0  0  0  0  0  0  0  0
   58.7164   31.9421   45.3260 H   0  0  0  0  0  0  0  0  0  0  0  0
   57.8848   31.9827   43.7214 H   0  0  0  0  0  0  0  0  0  0  0  0
   57.3462   34.0748   44.6721 H   0  0  0  0  0  0  0  0  0  0  0  0
   55.9003   33.0484   45.0274 H   0  0  0  0  0  0  0  0  0  0  0  0
   56.3000   33.8520   47.1830 H   0  0  0  0  0  0  0  0  0  0  0  0
   57.6743   31.9068   48.8015 H   0  0  0  0  0  0  0  0  0  0  0  0
   59.8554   31.7339   49.9929 H   0  0  0  0  0  0  0  0  0  0  0  0
   61.8062   33.0946   49.2393 H   0  0  0  0  0  0  0  0  0  0  0  0
   61.5807   34.6279   47.2862 H   0  0  0  0  0  0  0  0  0  0  0  0
  1  2  1  0
  2  3  1  0
  3  4  1  0
  4  5  1  0
  3  6  1  0
  6  7  1  0
  7  8  1  0
  8  9  1  0
  9 10  2  0
 10 11  1  0
 11 12  2  0
 12 13  1  0
 13 14  2  0
 14 15  1  0
 15 16  3  0
 14  9  1  0
  1 17  1  0
  1 18  1  0
  1 19  1  0
  2 20  1  0
  2 21  1  0
  4 22  1  0
  4 23  1  0
  5 24  1  0
  5 25  1  0
  5 26  1  0
  6 27  1  0
  6 28  1  0
  7 29  1  0
  7 30  1  0
  8 31  1  0
 10 32  1  0
 11 33  1  0
 12 34  1  0
 13 35  1  0
M  END
>  <UniqueID>  (7) 
7

>  <SMILES>  (7) 
CCN(CC)CCNc1ccccc1C#N

>  <Energy>  (7) 
30.45965981674063

>  <Genealogy>  (7) 
CCN(CC)CCNc1ccccc1C#N (3D coordinates assigned)
CCN(CC)CCNc1ccccc1C#N (optimized conformer: 30.45965981674063 kcal/mol)

>  <smiles>  (7) 
CCN(CC)CCNc1ccccc1C#N

>  <score_type>  (7) 
oracle

>  <origin>  (7) 
adg

>  <m_score__min__energy>  (7) 
-5.8300000000000001

>  <m_primary>  (7) 
energy

$$$$
7:0
     RDKit          3D

 58 60  0  0  0  0  0  0  0  0999 V2000
   59.4580   29.7270   46.0930 C   0  0  0  0  0  0  0  0  0  0  0  0
   58.8480   30.5880   44.9910 C   0  0  0  0  0  0  0  0  0  0  0  0
   57.4250   30.8820   45.2670 N   0  0  0  0  0  0  0  0  0  0  0  0
   56.4810   29.8920   44.6990 C   0  0  0  0  0  0  0  0  0  0  0  0
   56.6290   29.8560   43.1830 C   0  0  0  0  0  0  0  0  0  0  0  0
   57.0460   32.2940   45.0150 C   0  0  0  0  0  0  0  0  0  0  0  0
   58.0150   33.0950   44.1130 C   0  0  0  0  0  0  0  0  0  0  0  0
   58.9690   34.0180   44.8940 C   0  0  0  0  0  0  0  0  0  0  0  0
   58.6960   34.0710   46.4140 C   0  0  2  0  0  0  0  0  0  0  0  0
   59.3460   35.2840   47.0920 C   0  0  0  0  0  0  0  0  0  0  0  0
   59.1250   32.8270   47.0650 N   0  0  0  0  0  0  0  0  0  0  0  0
   60.0030   32.8570   48.2060 C   0  0  0  0  0  0  0  0  0  0  0  0
   61.3790   33.0940   48.0340 C   0  0  0  0  0  0  0  0  0  0  0  0
   61.9440   33.1620   46.7430 C   0  0  0  0  0  0  0  0  0  0  0  0
   63.3130   33.3570   46.5740 C   0  0  0  0  0  0  0  0  0  0  0  0
   64.1430   33.4630   47.6820 C   0  0  0  0  0  0  0  0  0  0  0  0
   63.6090   33.3920   48.9680 C   0  0  0  0  0  0  0  0  0  0  0  0
   62.2140   33.2310   49.1750 C   0  0  0  0  0  0  0  0  0  0  0  0
   61.6680   33.1870   50.4440 N   0  0  0  0  0  0  0  0  0  0  0  0
   62.4690   33.6190   51.6100 C   0  0  0  0  0  0  0  0  0  0  0  0
   60.3670   32.7540   50.6200 C   0  0  0  0  0  0  0  0  0  0  0  0
   59.8570   32.4300   51.9040 C   0  0  0  0  0  0  0  0  0  0  0  0
   58.5260   32.0520   52.0760 C   0  0  0  0  0  0  0  0  0  0  0  0
   57.6760   31.9710   50.9800 C   0  0  0  0  0  0  0  0  0  0  0  0
   58.1580   32.2400   49.7020 C   0  0  0  0  0  0  0  0  0  0  0  0
   59.5040   32.6140   49.4990 C   0  0  0  0  0  0  0  0  0  0  0  0
   59.1716   30.1313   47.0751 H   0  0  0  0  0  0  0  0  0  0  0  0
   59.0883   28.6953   45.9992 H   0  0  0  0  0  0  0  0  0  0  0  0
   60.5540   29.7337   45.9992 H   0  0  0  0  0  0  0  0  0  0  0  0
   59.4040   31.5350   44.9265 H   0  0  0  0  0  0  0  0  0  0  0  0
   58.9115   30.0352   44.0421 H   0  0  0  0  0  0  0  0  0  0  0  0
   56.7018   28.8967   45.1121 H   0  0  0  0  0  0  0  0  0  0  0  0
   55.4512   30.1783   44.9588 H   0  0  0  0  0  0  0  0  0  0  0  0
   57.6673   29.6035   42.9219 H   0  0  0  0  0  0  0  0  0  0  0  0
   55.9510   29.0966   42.7663 H   0  0  0  0  0  0  0  0  0  0  0  0
   56.3756   30.8420   42.7663 H   0  0  0  0  0  0  0  0  0  0  0  0
   56.0558   32.2984   44.5359 H   0  0  0  0  0  0  0  0  0  0  0  0
   57.0673   32.7912   45.9960 H   0  0  0  0  0  0  0  0  0  0  0  0
   58.6193   32.3817   43.5333 H   0  0  0  0  0  0  0  0  0  0  0  0
   57.3970   33.7406   43.4717 H   0  0  0  0  0  0  0  0  0  0  0  0
   59.9978   33.6601   44.7406 H   0  0  0  0  0  0  0  0  0  0  0  0
   58.8099   35.0359   44.5086 H   0  0  0  0  0  0  0  0  0  0  0  0
   57.6082   34.1819   46.5338 H   0  0  0  0  0  0  0  0  0  0  0  0
   59.2849   35.1699   48.1844 H   0  0  0  0  0  0  0  0  0  0  0  0
   60.4012   35.3517   46.7889 H   0  0  0  0  0  0  0  0  0  0  0  0
   58.8179   36.2001   46.7889 H   0  0  0  0  0  0  0  0  0  0  0  0
   58.6060   31.9430   46.8580 H   0  0  0  0  0  0  0  0  0  0  0  0
   61.2962   33.0599   45.8599 H   0  0  0  0  0  0  0  0  0  0  0  0
   63.7370   33.4271   45.5614 H   0  0  0  0  0  0  0  0  0  0  0  0
   65.2253   33.6035   47.5448 H   0  0  0  0  0  0  0  0  0  0  0  0
   64.2801   33.4619   49.8368 H   0  0  0  0  0  0  0  0  0  0  0  0
   61.9480   33.3380   52.5371 H   0  0  0  0  0  0  0  0  0  0  0  0
   63.4537   33.1296   51.5800 H   0  0  0  0  0  0  0  0  0  0  0  0
   62.6010   34.7106   51.5800 H   0  0  0  0  0  0  0  0  0  0  0  0
   60.5229   32.4779   52.7782 H   0  0  0  0  0  0  0  0  0  0  0  0
   58.1480   31.8173   53.0820 H   0  0  0  0  0  0  0  0  0  0  0  0
   56.6210   31.6940   51.1222 H   0  0  0  0  0  0  0  0  0  0  0  0
   57.4809   32.1601   48.8388 H   0  0  0  0  0  0  0  0  0  0  0  0
  1  2  1  0
  2  3  1  0
  3  4  1  0
  4  5  1  0
  3  6  1  0
  6  7  1  0
  7  8  1  0
  8  9  1  0
  9 10  1  0
  9 11  1  0
 11 12  1  0
 12 13  2  0
 13 14  1  0
 14 15  2  0
 15 16  1  0
 16 17  2  0
 17 18  1  0
 18 19  2  0
 19 20  1  0
 19 21  1  0
 21 22  2  0
 22 23  1  0
 23 24  2  0
 24 25  1  0
 25 26  2  0
 26 12  1  0
 18 13  1  0
 26 21  1  0
  1 27  1  0
  1 28  1  0
  1 29  1  0
  2 30  1  0
  2 31  1  0
  4 32  1  0
  4 33  1  0
  5 34  1  0
  5 35  1  0
  5 36  1  0
  6 37  1  0
  6 38  1  0
  7 39  1  0
  7 40  1  0
  8 41  1  0
  8 42  1  0
  9 43  1  6
 10 44  1  0
 10 45  1  0
 10 46  1  0
 11 47  1  0
 14 48  1  0
 15 49  1  0
 16 50  1  0
 17 51  1  0
 20 52  1  0
 20 53  1  0
 20 54  1  0
 22 55  1  0
 23 56  1  0
 24 57  1  0
 25 58  1  0
M  CHG  1  19   1
M  END
>  <UniqueID>  (8) 
8

>  <SMILES>  (8) 
CCN(CC)CCC[C@H](C)Nc1c2ccccc2[n+](C)c2ccccc12

>  <Energy>  (8) 
82.94291039345482

>  <Genealogy>  (8) 
CCN(CC)CCC[C@H](C)Nc1c2ccccc2[n+](C)c2ccccc12 (chirality)
CCN(CC)CCC[C@H](C)Nc1c2ccccc2[n+](C)c2ccccc12 (3D coordinates assigned)
CCN(CC)CCC[C@H](C)Nc1c2ccccc2[n+](C)c2ccccc12 (optimized conformer: 82.94291039345482 kcal/mol)

>  <smiles>  (8) 
CCN(CC)CCCC(C)Nc1c2ccccc2[n+](C)c2ccccc12

>  <score_type>  (8) 
oracle

>  <origin>  (8) 
adg

>  <m_score__min__energy>  (8) 
-6.7599999999999998

>  <m_primary>  (8) 
energy

$$$$
8:0
     RDKit          3D

 38 40  0  0  0  0  0  0  0  0999 V2000
   57.3590   31.9540   41.8670 C   0  0  0  0  0  0  0  0  0  0  0  0
   57.7920   31.4060   43.1890 C   0  0  0  0  0  0  0  0  0  0  0  0
   58.1620   32.2560   44.1830 N   0  0  0  0  0  0  0  0  0  0  0  0
   58.5790   31.8010   45.3940 C   0  0  0  0  0  0  0  0  0  0  0  0
   58.9560   32.7770   46.4490 C   0  0  0  0  0  0  0  0  0  0  0  0
   59.2490   34.1200   46.1360 C   0  0  0  0  0  0  0  0  0  0  0  0
   59.5930   35.0240   47.1460 C   0  0  0  0  0  0  0  0  0  0  0  0
   59.6440   34.6040   48.4770 C   0  0  0  0  0  0  0  0  0  0  0  0
   59.3430   33.2790   48.8010 C   0  0  0  0  0  0  0  0  0  0  0  0
   58.9980   32.3700   47.7970 C   0  0  0  0  0  0  0  0  0  0  0  0
   58.6200   30.4170   45.6210 C   0  0  0  0  0  0  0  0  0  0  0  0
   58.2550   29.5460   44.5860 C   0  0  0  0  0  0  0  0  0  0  0  0
   58.2740   28.1200   44.7940 N   0  0  0  0  0  0  0  0  0  0  0  0
   58.4430   27.5470   46.1350 C   0  0  0  0  0  0  0  0  0  0  0  0
   57.3390   26.5100   46.4230 C   0  0  0  0  0  0  0  0  0  0  0  0
   56.7920   25.8670   45.2110 N   0  0  0  0  0  0  0  0  0  0  0  0
   57.7720   25.7980   44.1190 C   0  0  0  0  0  0  0  0  0  0  0  0
   58.1530   27.2090   43.6500 C   0  0  0  0  0  0  0  0  0  0  0  0
   57.8460   30.0610   43.3920 N   0  0  0  0  0  0  0  0  0  0  0  0
   56.6843   32.8079   42.0273 H   0  0  0  0  0  0  0  0  0  0  0  0
   58.2418   32.2855   41.3006 H   0  0  0  0  0  0  0  0  0  0  0  0
   56.8324   31.1718   41.3006 H   0  0  0  0  0  0  0  0  0  0  0  0
   59.2068   34.4591   45.0904 H   0  0  0  0  0  0  0  0  0  0  0  0
   59.8241   36.0689   46.8914 H   0  0  0  0  0  0  0  0  0  0  0  0
   59.9208   35.3155   49.2689 H   0  0  0  0  0  0  0  0  0  0  0  0
   59.3776   32.9499   49.8500 H   0  0  0  0  0  0  0  0  0  0  0  0
   58.7576   31.3296   48.0612 H   0  0  0  0  0  0  0  0  0  0  0  0
   58.9344   30.0213   46.5980 H   0  0  0  0  0  0  0  0  0  0  0  0
   59.4255   27.0564   46.1977 H   0  0  0  0  0  0  0  0  0  0  0  0
   58.3742   28.3551   46.8781 H   0  0  0  0  0  0  0  0  0  0  0  0
   57.7597   25.7269   47.0708 H   0  0  0  0  0  0  0  0  0  0  0  0
   56.5087   27.0513   46.9001 H   0  0  0  0  0  0  0  0  0  0  0  0
   55.9650   26.4180   44.8790 H   0  0  0  0  0  0  0  0  0  0  0  0
   58.6742   25.2785   44.4743 H   0  0  0  0  0  0  0  0  0  0  0  0
   57.3271   25.2502   43.2752 H   0  0  0  0  0  0  0  0  0  0  0  0
   59.1156   27.1657   43.1193 H   0  0  0  0  0  0  0  0  0  0  0  0
   57.3651   27.5843   42.9804 H   0  0  0  0  0  0  0  0  0  0  0  0
   57.5790   29.4190   42.6110 H   0  0  0  0  0  0  0  0  0  0  0  0
  1  2  1  0
  2  3  2  0
  3  4  1  0
  4  5  1  0
  5  6  2  0
  6  7  1  0
  7  8  2  0
  8  9  1  0
  9 10  2  0
  4 11  2  0
 11 12  1  0
 12 13  1  0
 13 14  1  0
 14 15  1  0
 15 16  1  0
 16 17  1  0
 17 18  1  0
 12 19  2  0
 19  2  1  0
 10  5  1  0
 18 13  1  0
  1 20  1  0
  1 21  1  0
  1 22  1  0
  6 23  1  0
  7 24  1  0
  8 25  1  0
  9 26  1  0
 10 27  1  0
 11 28  1  0
 14 29  1  0
 14 30  1  0
 15 31  1  0
 15 32  1  0
 16 33  1  0
 17 34  1  0
 17 35  1  0
 18 36  1  0
 18 37  1  0
 19 38  1  0
M  CHG  1  19   1
M  END
>  <UniqueID>  (9) 
9

>  <SMILES>  (9) 
Cc1nc(-c2ccccc2)cc(N2CCNCC2)[nH+]1

>  <Energy>  (9) 
50.040140376764285

>  <Genealogy>  (9) 
Cc1nc(-c2ccccc2)cc(N2CCNCC2)[nH+]1 (protonated)
Cc1nc(-c2ccccc2)cc(N2CCNCC2)[nH+]1 (3D coordinates assigned)
Cc1nc(-c2ccccc2)cc(N2CCNCC2)[nH+]1 (nonaromatic ring conformer: 50.040140376764285 kcal/mol)

>  <smiles>  (9) 
Cc1nc(-c2ccccc2)cc(N2CCNCC2)n1

>  <score_type>  (9) 
oracle

>  <origin>  (9) 
adg

>  <m_score__min__energy>  (9) 
-5.54

>  <m_primary>  (9) 
energy

$$$$
9:0
     RDKit          3D

 57 59  0  0  1  0  0  0  0  0999 V2000
   65.1800   32.8710   49.7910 C   0  0  0  0  0  0  0  0  0  0  0  0
   63.7730   33.4250   49.7280 C   0  0  0  0  0  0  0  0  0  0  0  0
   62.9540   32.5630   48.9170 N   0  0  0  0  0  0  0  0  0  0  0  0
   63.4870   32.4350   47.5730 C   0  0  0  0  0  0  0  0  0  0  0  0
   62.9780   33.6040   46.7560 C   0  0  0  0  0  0  0  0  0  0  0  0
   62.5940   31.3270   49.5260 C   0  0  0  0  0  0  0  0  0  0  0  0
   61.2750   31.3810   50.3000 C   0  0  0  0  0  0  0  0  0  0  0  0
   60.3800   30.5600   49.6770 O   0  0  0  0  0  0  0  0  0  0  0  0
   60.9750   29.4960   49.0310 C   0  0  0  0  0  0  0  0  0  0  0  0
   60.0010   28.4460   48.5420 C   0  0  0  0  0  0  0  0  0  0  0  0
   60.3100   27.9780   47.2040 N   0  0  0  0  0  0  0  0  0  0  0  0
   59.4490   28.1500   46.0860 C   0  0  0  0  0  0  0  0  0  0  0  0
   59.2860   27.2220   45.1000 C   0  0  0  0  0  0  0  0  0  0  0  0
   58.4760   27.3680   43.9980 C   0  0  0  0  0  0  0  0  0  0  0  0
   57.7750   28.5320   43.8780 C   0  0  0  0  0  0  0  0  0  0  0  0
   56.9830   28.6550   42.7850 N   0  0  0  0  0  0  0  0  0  0  0  0
   56.2700   29.7760   42.6150 C   0  0  0  0  0  0  0  0  0  0  0  0
   56.3740   30.7340   43.5380 N   0  0  0  0  0  0  0  0  0  0  0  0
   57.1590   30.6450   44.6470 C   0  0  0  0  0  0  0  0  0  0  0  0
   57.1660   31.5810   45.4330 N   0  0  0  0  0  0  0  0  0  0  0  0
   58.0300   32.5970   45.6560 C   0  0  0  0  0  0  0  0  0  0  0  0
   58.3680   33.5290   44.6420 C   0  0  0  0  0  0  0  0  0  0  0  0
   59.1630   34.6050   44.9610 C   0  0  0  0  0  0  0  0  0  0  0  0
   59.6470   34.8110   46.2380 C   0  0  0  0  0  0  0  0  0  0  0  0
   59.3220   33.9060   47.2350 C   0  0  0  0  0  0  0  0  0  0  0  0
   60.0180   34.2450   48.9770 Br  0  0  0  0  0  0  0  0  0  0  0  0
   58.5280   32.8120   46.9650 C   0  0  0  0  0  0  0  0  0  0  0  0
   57.8920   29.5100   44.8380 C   0  0  0  0  0  0  0  0  0  0  0  0
   58.7070   29.3390   45.9230 C   0  0  0  0  0  0  0  0  0  0  0  0
   65.4807   32.7526   50.8425 H   0  0  0  0  0  0  0  0  0  0  0  0
   65.2119   31.8932   49.2882 H   0  0  0  0  0  0  0  0  0  0  0  0
   65.8700   33.5646   49.2882 H   0  0  0  0  0  0  0  0  0  0  0  0
   63.3544   33.4792   50.7438 H   0  0  0  0  0  0  0  0  0  0  0  0
   63.7949   34.4322   49.2863 H   0  0  0  0  0  0  0  0  0  0  0  0
   64.5864   32.4515   47.6040 H   0  0  0  0  0  0  0  0  0  0  0  0
   63.1653   31.4844   47.1226 H   0  0  0  0  0  0  0  0  0  0  0  0
   62.6314   34.4001   47.4314 H   0  0  0  0  0  0  0  0  0  0  0  0
   63.7899   33.9891   46.1216 H   0  0  0  0  0  0  0  0  0  0  0  0
   62.1430   33.2720   46.1216 H   0  0  0  0  0  0  0  0  0  0  0  0
   62.5025   30.5655   48.7375 H   0  0  0  0  0  0  0  0  0  0  0  0
   63.3830   31.0866   50.2538 H   0  0  0  0  0  0  0  0  0  0  0  0
   61.4357   31.0404   51.3335 H   0  0  0  0  0  0  0  0  0  0  0  0
   60.8913   32.4116   50.3247 H   0  0  0  0  0  0  0  0  0  0  0  0
   61.5283   29.8845   48.1633 H   0  0  0  0  0  0  0  0  0  0  0  0
   61.6284   29.0040   49.7665 H   0  0  0  0  0  0  0  0  0  0  0  0
   60.0318   27.5889   49.2308 H   0  0  0  0  0  0  0  0  0  0  0  0
   59.0025   28.9065   48.5115 H   0  0  0  0  0  0  0  0  0  0  0  0
   61.2370   27.4750   47.0520 H   0  0  0  0  0  0  0  0  0  0  0  0
   59.8476   26.2808   45.1936 H   0  0  0  0  0  0  0  0  0  0  0  0
   58.3963   26.5744   43.2405 H   0  0  0  0  0  0  0  0  0  0  0  0
   55.6170   29.9033   41.7390 H   0  0  0  0  0  0  0  0  0  0  0  0
   55.7910   31.6040   43.3610 H   0  0  0  0  0  0  0  0  0  0  0  0
   57.9994   33.3932   43.6145 H   0  0  0  0  0  0  0  0  0  0  0  0
   59.4222   35.3263   44.1720 H   0  0  0  0  0  0  0  0  0  0  0  0
   60.2817   35.6815   46.4602 H   0  0  0  0  0  0  0  0  0  0  0  0
   58.2801   32.1032   47.7688 H   0  0  0  0  0  0  0  0  0  0  0  0
   58.7848   30.1367   46.6764 H   0  0  0  0  0  0  0  0  0  0  0  0
  1  2  1  0
  2  3  1  0
  3  4  1  0
  4  5  1  0
  3  6  1  0
  6  7  1  0
  7  8  1  0
  8  9  1  0
  9 10  1  0
 10 11  1  0
 11 12  1  0
 12 13  2  0
 13 14  1  0
 14 15  2  0
 15 16  1  0
 16 17  2  0
 17 18  1  0
 18 19  1  0
 19 20  2  0
 20 21  1  0
 21 22  2  0
 22 23  1  0
 23 24  2  0
 24 25  1  0
 25 26  1  0
 25 27  2  0
 19 28  1  0
 28 29  2  0
 29 12  1  0
 28 15  1  0
 27 21  1  0
  1 30  1  0
  1 31  1  0
  1 32  1  0
  2 33  1  0
  2 34  1  0
  4 35  1  0
  4 36  1  0
  5 37  1  0
  5 38  1  0
  5 39  1  0
  6 40  1  0
  6 41  1  0
  7 42  1  0
  7 43  1  0
  9 44  1  0
  9 45  1  0
 10 46  1  0
 10 47  1  0
 11 48  1  0
 13 49  1  0
 14 50  1  0
 17 51  1  0
 18 52  1  0
 22 53  1  0
 23 54  1  0
 24 55  1  0
 27 56  1  0
 29 57  1  0
M  END
>  <smiles>  (10) 
CCN(CC)CCOCCNc1ccc2nc[nH]c(=Nc3cccc(Br)c3)c2c1

>  <score_type>  (10) 
oracle

>  <origin>  (10) 
adg

>  <m_score__min__energy>  (10) 
-7.6299999999999999

>  <m_primary>  (10) 
energy

$$$$
10:0
     RDKit          3D

 68 70  0  0  0  0  0  0  0  0999 V2000
   63.3940   33.8170   46.5440 C   0  0  0  0  0  0  0  0  0  0  0  0
   63.4900   33.8590   48.0670 C   0  0  0  0  0  0  0  0  0  0  0  0
   63.1570   32.5340   48.6370 N   0  0  0  0  0  0  0  0  0  0  0  0
   64.2880   31.9840   49.4200 C   0  0  0  0  0  0  0  0  0  0  0  0
   65.2820   33.0900   49.7610 C   0  0  0  0  0  0  0  0  0  0  0  0
   61.9210   32.5950   49.4520 C   0  0  0  0  0  0  0  0  0  0  0  0
   60.9070   31.5630   48.9420 C   0  0  0  0  0  0  0  0  0  0  0  0
   61.2780   31.0820   47.6000 N   0  0  0  0  0  0  0  0  0  0  0  0
   60.1470   31.1680   46.6890 C   0  0  0  0  0  0  0  0  0  0  0  0
   59.6650   32.4260   46.2440 C   0  0  0  0  0  0  0  0  0  0  0  0
   60.1270   33.6430   46.8040 C   0  0  0  0  0  0  0  0  0  0  0  0
   59.6240   34.8680   46.3730 C   0  0  0  0  0  0  0  0  0  0  0  0
   58.6430   34.9140   45.3930 C   0  0  0  0  0  0  0  0  0  0  0  0
   58.1680   33.7350   44.8260 C   0  0  0  0  0  0  0  0  0  0  0  0
   58.6820   32.4720   45.2160 C   0  0  0  0  0  0  0  0  0  0  0  0
   58.2350   31.3050   44.6320 N   0  0  0  0  0  0  0  0  0  0  0  0
   57.4860   31.3560   43.3560 C   0  0  0  0  0  0  0  0  0  0  0  0
   58.4970   30.0900   45.2310 C   0  0  0  0  0  0  0  0  0  0  0  0
   57.7900   28.9210   44.8590 C   0  0  0  0  0  0  0  0  0  0  0  0
   58.0730   27.6800   45.4320 C   0  0  0  0  0  0  0  0  0  0  0  0
   57.3310   26.5170   45.0210 N   0  0  0  0  0  0  0  0  0  0  0  0
   56.2980   25.9690   45.9110 C   0  0  0  0  0  0  0  0  0  0  0  0
   55.8410   24.6010   45.4160 C   0  0  0  0  0  0  0  0  0  0  0  0
   57.7550   25.7750   43.8280 C   0  0  0  0  0  0  0  0  0  0  0  0
   58.1300   26.7200   42.6890 C   0  0  0  0  0  0  0  0  0  0  0  0
   59.0590   27.5740   46.4170 C   0  0  0  0  0  0  0  0  0  0  0  0
   59.3240   26.3110   46.9710 O   0  0  0  0  0  0  0  0  0  0  0  0
   59.9860   25.2480   46.2940 C   0  0  0  0  0  0  0  0  0  0  0  0
   59.7480   28.7260   46.8240 C   0  0  0  0  0  0  0  0  0  0  0  0
   59.4770   29.9930   46.2520 C   0  0  0  0  0  0  0  0  0  0  0  0
   62.4230   33.3922   46.2494 H   0  0  0  0  0  0  0  0  0  0  0  0
   63.4849   34.8371   46.1426 H   0  0  0  0  0  0  0  0  0  0  0  0
   64.2049   33.1914   46.1426 H   0  0  0  0  0  0  0  0  0  0  0  0
   64.5145   34.1331   48.3591 H   0  0  0  0  0  0  0  0  0  0  0  0
   62.7779   34.6042   48.4511 H   0  0  0  0  0  0  0  0  0  0  0  0
   63.9039   31.5414   50.3509 H   0  0  0  0  0  0  0  0  0  0  0  0
   64.7986   31.2158   48.8207 H   0  0  0  0  0  0  0  0  0  0  0  0
   65.3659   33.1834   50.8538 H   0  0  0  0  0  0  0  0  0  0  0  0
   66.2664   32.8417   49.3375 H   0  0  0  0  0  0  0  0  0  0  0  0
   64.9304   34.0424   49.3375 H   0  0  0  0  0  0  0  0  0  0  0  0
   62.1656   32.3776   50.5022 H   0  0  0  0  0  0  0  0  0  0  0  0
   61.4843   33.6014   49.3722 H   0  0  0  0  0  0  0  0  0  0  0  0
   60.8809   30.7100   49.6361 H   0  0  0  0  0  0  0  0  0  0  0  0
   59.9178   32.0406   48.8837 H   0  0  0  0  0  0  0  0  0  0  0  0
   62.0950   31.6220   47.2370 H   0  0  0  0  0  0  0  0  0  0  0  0
   61.6360   30.1010   47.6410 H   0  0  0  0  0  0  0  0  0  0  0  0
   60.8948   33.6197   47.5913 H   0  0  0  0  0  0  0  0  0  0  0  0
   60.0057   35.8021   46.8109 H   0  0  0  0  0  0  0  0  0  0  0  0
   58.2402   35.8832   45.0638 H   0  0  0  0  0  0  0  0  0  0  0  0
   57.3791   33.7837   44.0610 H   0  0  0  0  0  0  0  0  0  0  0  0
   56.4087   31.4294   43.5659 H   0  0  0  0  0  0  0  0  0  0  0  0
   57.8074   32.2343   42.7770 H   0  0  0  0  0  0  0  0  0  0  0  0
   57.6854   30.4422   42.7770 H   0  0  0  0  0  0  0  0  0  0  0  0
   56.9977   28.9926   44.0993 H   0  0  0  0  0  0  0  0  0  0  0  0
   56.7103   25.8681   46.9258 H   0  0  0  0  0  0  0  0  0  0  0  0
   55.4356   26.6517   45.9195 H   0  0  0  0  0  0  0  0  0  0  0  0
   55.6244   23.9528   46.2779 H   0  0  0  0  0  0  0  0  0  0  0  0
   54.9326   24.7163   44.8065 H   0  0  0  0  0  0  0  0  0  0  0  0
   56.6363   24.1471   44.8065 H   0  0  0  0  0  0  0  0  0  0  0  0
   58.6285   25.1568   44.0826 H   0  0  0  0  0  0  0  0  0  0  0  0
   56.9161   25.1464   43.4947 H   0  0  0  0  0  0  0  0  0  0  0  0
   58.5054   27.6661   43.1061 H   0  0  0  0  0  0  0  0  0  0  0  0
   58.9122   26.2561   42.0701 H   0  0  0  0  0  0  0  0  0  0  0  0
   57.2426   26.9187   42.0701 H   0  0  0  0  0  0  0  0  0  0  0  0
   60.4172   24.5555   47.0319 H   0  0  0  0  0  0  0  0  0  0  0  0
   59.2638   24.7087   45.6635 H   0  0  0  0  0  0  0  0  0  0  0  0
   60.7885   25.6583   45.6635 H   0  0  0  0  0  0  0  0  0  0  0  0
   60.5171   28.6434   47.6061 H   0  0  0  0  0  0  0  0  0  0  0  0
  1  2  1  0
  2  3  1  0
  3  4  1  0
  4  5  1  0
  3  6  1  0
  6  7  1  0
  7  8  1  0
  8  9  1  0
  9 10  2  0
 10 11  1  0
 11 12  2  0
 12 13  1  0
 13 14  2  0
 14 15  1  0
 15 16  2  0
 16 17  1  0
 16 18  1  0
 18 19  2  0
 19 20  1  0
 20 21  1  0
 21 22  1  0
 22 23  1  0
 21 24  1  0
 24 25  1  0
 20 26  2  0
 26 27  1  0
 27 28  1  0
 26 29  1  0
 29 30  2  0
 30  9  1  0
 15 10  1  0
 30 18  1  0
  1 31  1  0
  1 32  1  0
  1 33  1  0
  2 34  1  0
  2 35  1  0
  4 36  1  0
  4 37  1  0
  5 38  1  0
  5 39  1  0
  5 40  1  0
  6 41  1  0
  6 42  1  0
  7 43  1  0
  7 44  1  0
  8 45  1  0
  8 46  1  0
 11 47  1  0
 12 48  1  0
 13 49  1  0
 14 50  1  0
 17 51  1  0
 17 52  1  0
 17 53  1  0
 19 54  1  0
 22 55  1  0
 22 56  1  0
 23 57  1  0
 23 58  1  0
 23 59  1  0
 24 60  1  0
 24 61  1  0
 25 62  1  0
 25 63  1  0
 25 64  1  0
 28 65  1  0
 28 66  1  0
 28 67  1  0
 29 68  1  0
M  CHG  2   8   1  16   1
M  END
>  <UniqueID>  (11) 
10

>  <SMILES>  (11) 
CCN(CC)CC[NH2+]c1c2ccccc2[n+](C)c2cc(N(CC)CC)c(OC)cc12

>  <Energy>  (11) 
90.46134063829253

>  <Genealogy>  (11) 
CCN(CC)CC[NH2+]c1c2ccccc2[n+](C)c2cc(N(CC)CC)c(OC)cc12 (protonated)
CCN(CC)CC[NH2+]c1c2ccccc2[n+](C)c2cc(N(CC)CC)c(OC)cc12 (3D coordinates assigned)
CCN(CC)CC[NH2+]c1c2ccccc2[n+](C)c2cc(N(CC)CC)c(OC)cc12 (optimized conformer: 90.46134063829253 kcal/mol)

>  <smiles>  (11) 
CCN(CC)CCNc1c2ccccc2[n+](C)c2cc(N(CC)CC)c(OC)cc12

>  <score_type>  (11) 
oracle

>  <origin>  (11) 
adg

>  <m_score__min__energy>  (11) 
-4.0599999999999996

>  <m_primary>  (11) 
energy

$$$$
11:0
     RDKit          3D

 52 54  0  0  0  0  0  0  0  0999 V2000
   56.1230   29.6330   42.6940 C   0  0  0  0  0  0  0  0  0  0  0  0
   56.1510   29.7200   44.1150 O   0  0  0  0  0  0  0  0  0  0  0  0
   57.1850   30.3120   44.8580 C   0  0  0  0  0  0  0  0  0  0  0  0
   57.3730   31.7010   44.8990 C   0  0  0  0  0  0  0  0  0  0  0  0
   58.4160   32.2630   45.6520 C   0  0  0  0  0  0  0  0  0  0  0  0
   58.5750   33.6480   45.6700 C   0  0  0  0  0  0  0  0  0  0  0  0
   59.5720   34.2420   46.3860 N   0  0  0  0  0  0  0  0  0  0  0  0
   59.6600   35.7130   46.3430 C   0  0  0  0  0  0  0  0  0  0  0  0
   60.4610   33.4810   47.1190 C   0  0  0  0  0  0  0  0  0  0  0  0
   61.4980   34.0920   47.8630 C   0  0  0  0  0  0  0  0  0  0  0  0
   62.4080   33.3330   48.6120 C   0  0  0  0  0  0  0  0  0  0  0  0
   63.4430   33.9240   49.3560 O   0  0  0  0  0  0  0  0  0  0  0  0
   63.4910   33.9890   50.7800 C   0  0  0  0  0  0  0  0  0  0  0  0
   64.9380   34.1460   51.2460 C   0  0  0  0  0  0  0  0  0  0  0  0
   65.7690   32.8880   50.9520 C   0  0  0  0  0  0  0  0  0  0  0  0
   65.5240   32.4050   49.5940 N   0  0  0  0  0  0  0  0  0  0  0  0
   62.2990   31.9440   48.6310 C   0  0  0  0  0  0  0  0  0  0  0  0
   63.2310   31.2190   49.3930 O   0  0  0  0  0  0  0  0  0  0  0  0
   62.9210   30.4740   50.5660 C   0  0  0  0  0  0  0  0  0  0  0  0
   61.2780   31.3140   47.9000 C   0  0  0  0  0  0  0  0  0  0  0  0
   60.3460   32.0590   47.1360 C   0  0  0  0  0  0  0  0  0  0  0  0
   59.3000   31.4410   46.3850 C   0  0  0  0  0  0  0  0  0  0  0  0
   59.0950   30.0390   46.3320 C   0  0  0  0  0  0  0  0  0  0  0  0
   58.0470   29.4790   45.5760 C   0  0  0  0  0  0  0  0  0  0  0  0
   57.8300   28.0920   45.5120 O   0  0  0  0  0  0  0  0  0  0  0  0
   58.1390   27.2700   44.3910 C   0  0  0  0  0  0  0  0  0  0  0  0
   55.7987   28.6254   42.3947 H   0  0  0  0  0  0  0  0  0  0  0  0
   55.4194   30.3783   42.2948 H   0  0  0  0  0  0  0  0  0  0  0  0
   57.1293   29.8280   42.2948 H   0  0  0  0  0  0  0  0  0  0  0  0
   56.6951   32.3581   44.3344 H   0  0  0  0  0  0  0  0  0  0  0  0
   57.8801   34.2761   45.0933 H   0  0  0  0  0  0  0  0  0  0  0  0
   59.6837   36.1091   47.3690 H   0  0  0  0  0  0  0  0  0  0  0  0
   60.5775   36.0101   45.8140 H   0  0  0  0  0  0  0  0  0  0  0  0
   58.7844   36.1174   45.8140 H   0  0  0  0  0  0  0  0  0  0  0  0
   61.5923   35.1879   47.8534 H   0  0  0  0  0  0  0  0  0  0  0  0
   62.9011   34.8507   51.1257 H   0  0  0  0  0  0  0  0  0  0  0  0
   63.0748   33.0609   51.1987 H   0  0  0  0  0  0  0  0  0  0  0  0
   65.3899   35.0020   50.7235 H   0  0  0  0  0  0  0  0  0  0  0  0
   64.9324   34.3068   52.3342 H   0  0  0  0  0  0  0  0  0  0  0  0
   66.8368   33.1284   51.0613 H   0  0  0  0  0  0  0  0  0  0  0  0
   65.4770   32.1006   51.6625 H   0  0  0  0  0  0  0  0  0  0  0  0
   65.3880   31.3670   49.6010 H   0  0  0  0  0  0  0  0  0  0  0  0
   66.3300   32.6520   48.9740 H   0  0  0  0  0  0  0  0  0  0  0  0
   64.6590   32.8570   49.2210 H   0  0  0  0  0  0  0  0  0  0  0  0
   63.1694   31.0710   51.4559 H   0  0  0  0  0  0  0  0  0  0  0  0
   61.8478   30.2327   50.5742 H   0  0  0  0  0  0  0  0  0  0  0  0
   63.5063   29.5427   50.5742 H   0  0  0  0  0  0  0  0  0  0  0  0
   61.2004   30.2169   47.9213 H   0  0  0  0  0  0  0  0  0  0  0  0
   59.7687   29.3747   46.8932 H   0  0  0  0  0  0  0  0  0  0  0  0
   58.5058   26.2941   44.7419 H   0  0  0  0  0  0  0  0  0  0  0  0
   57.2342   27.1244   43.7826 H   0  0  0  0  0  0  0  0  0  0  0  0
   58.9156   27.7565   43.7826 H   0  0  0  0  0  0  0  0  0  0  0  0
  1  2  1  0
  2  3  1  0
  3  4  2  0
  4  5  1  0
  5  6  2  0
  6  7  1  0
  7  8  1  0
  7  9  2  0
  9 10  1  0
 10 11  2  0
 11 12  1  0
 12 13  1  0
 13 14  1  0
 14 15  1  0
 15 16  1  0
 11 17  1  0
 17 18  1  0
 18 19  1  0
 17 20  2  0
 20 21  1  0
 21 22  2  0
 22 23  1  0
 23 24  2  0
 24 25  1  0
 25 26  1  0
 24  3  1  0
 22  5  1  0
 21  9  1  0
  1 27  1  0
  1 28  1  0
  1 29  1  0
  4 30  1  0
  6 31  1  0
  8 32  1  0
  8 33  1  0
  8 34  1  0
 10 35  1  0
 13 36  1  0
 13 37  1  0
 14 38  1  0
 14 39  1  0
 15 40  1  0
 15 41  1  0
 16 42  1  0
 16 43  1  0
 16 44  1  0
 19 45  1  0
 19 46  1  0
 19 47  1  0
 20 48  1  0
 23 49  1  0
 26 50  1  0
 26 51  1  0
 26 52  1  0
M  CHG  2   7   1  16   1
M  END
>  <UniqueID>  (12) 
11

>  <SMILES>  (12) 
COc1cc2c[n+](C)c3cc(OCCC[NH3+])c(OC)cc3c2cc1OC

>  <Energy>  (12) 
62.76167908346032

>  <Genealogy>  (12) 
COc1cc2c[n+](C)c3cc(OCCC[NH3+])c(OC)cc3c2cc1OC (protonated)
COc1cc2c[n+](C)c3cc(OCCC[NH3+])c(OC)cc3c2cc1OC (3D coordinates assigned)
COc1cc2c[n+](C)c3cc(OCCC[NH3+])c(OC)cc3c2cc1OC (optimized conformer: 62.76167908346032 kcal/mol)

>  <smiles>  (12) 
COc1cc2c[n+](C)c3cc(OCCCN)c(OC)cc3c2cc1OC

>  <score_type>  (12) 
oracle

>  <origin>  (12) 
adg

>  <m_score__min__energy>  (12) 
-2.6800000000000002

>  <m_primary>  (12) 
energy

$$$$
12:0
     RDKit          3D

 41 42  0  0  0  0  0  0  0  0999 V2000
   60.0490   30.5870   46.3470 C   0  0  0  0  0  0  0  0  0  0  0  0
   58.6340   31.1570   46.4040 C   0  0  0  0  0  0  0  0  0  0  0  0
   58.2520   31.7180   45.0850 N   0  0  0  0  0  0  0  0  0  0  0  0
   58.0540   30.6170   44.1060 C   0  0  0  0  0  0  0  0  0  0  0  0
   56.5800   30.4470   43.7580 C   0  0  0  0  0  0  0  0  0  0  0  0
   57.0140   32.5320   45.1850 C   0  0  0  0  0  0  0  0  0  0  0  0
   57.2390   33.9040   45.8430 C   0  0  0  0  0  0  0  0  0  0  0  0
   58.8870   34.5520   45.6050 S   0  0  0  0  0  0  0  0  0  0  0  0
   59.5550   34.1970   44.1030 O   0  0  0  0  0  0  0  0  0  0  0  0
   59.9930   34.2970   46.9440 C   0  0  0  0  0  0  0  0  0  0  0  0
   59.5310   34.4440   48.2570 C   0  0  0  0  0  0  0  0  0  0  0  0
   60.3890   34.2110   49.3360 C   0  0  0  0  0  0  0  0  0  0  0  0
   61.7210   33.8330   49.1080 C   0  0  0  0  0  0  0  0  0  0  0  0
   62.5890   33.5850   50.1830 C   0  0  0  0  0  0  0  0  0  0  0  0
   63.9140   33.2090   49.9420 C   0  0  0  0  0  0  0  0  0  0  0  0
   64.3810   33.0800   48.6310 C   0  0  0  0  0  0  0  0  0  0  0  0
   63.5270   33.3260   47.5510 C   0  0  0  0  0  0  0  0  0  0  0  0
   62.1940   33.7010   47.7800 C   0  0  0  0  0  0  0  0  0  0  0  0
   61.3250   33.9430   46.7070 C   0  0  0  0  0  0  0  0  0  0  0  0
   60.4248   30.4356   47.3697 H   0  0  0  0  0  0  0  0  0  0  0  0
   60.0353   29.6242   45.8151 H   0  0  0  0  0  0  0  0  0  0  0  0
   60.7065   31.2904   45.8151 H   0  0  0  0  0  0  0  0  0  0  0  0
   57.9306   30.3559   46.6752 H   0  0  0  0  0  0  0  0  0  0  0  0
   58.6008   31.9582   47.1570 H   0  0  0  0  0  0  0  0  0  0  0  0
   58.6150   30.8477   43.1883 H   0  0  0  0  0  0  0  0  0  0  0  0
   58.4155   29.6810   44.5568 H   0  0  0  0  0  0  0  0  0  0  0  0
   55.9901   30.3790   44.6840 H   0  0  0  0  0  0  0  0  0  0  0  0
   56.2401   31.3119   43.1694 H   0  0  0  0  0  0  0  0  0  0  0  0
   56.4459   29.5274   43.1694 H   0  0  0  0  0  0  0  0  0  0  0  0
   56.6184   32.6918   44.1711 H   0  0  0  0  0  0  0  0  0  0  0  0
   56.3098   31.9768   45.8221 H   0  0  0  0  0  0  0  0  0  0  0  0
   56.5199   34.6173   45.4139 H   0  0  0  0  0  0  0  0  0  0  0  0
   57.0997   33.7684   46.9257 H   0  0  0  0  0  0  0  0  0  0  0  0
   59.3060   33.2570   43.9240 H   0  0  0  0  0  0  0  0  0  0  0  0
   58.4888   34.7440   48.4407 H   0  0  0  0  0  0  0  0  0  0  0  0
   60.0192   34.3242   50.3658 H   0  0  0  0  0  0  0  0  0  0  0  0
   62.2263   33.6866   51.2165 H   0  0  0  0  0  0  0  0  0  0  0  0
   64.5910   33.0141   50.7868 H   0  0  0  0  0  0  0  0  0  0  0  0
   65.4244   32.7838   48.4478 H   0  0  0  0  0  0  0  0  0  0  0  0
   63.9004   33.2255   46.5212 H   0  0  0  0  0  0  0  0  0  0  0  0
   61.6924   33.8541   45.6740 H   0  0  0  0  0  0  0  0  0  0  0  0
  1  2  1  0
  2  3  1  0
  3  4  1  0
  4  5  1  0
  3  6  1  0
  6  7  1  0
  7  8  1  0
  8  9  1  6
  8 10  1  0
 10 11  2  0
 11 12  1  0
 12 13  2  0
 13 14  1  0
 14 15  2  0
 15 16  1  0
 16 17  2  0
 17 18  1  0
 18 19  2  0
 19 10  1  0
 18 13  1  0
  1 20  1  0
  1 21  1  0
  1 22  1  0
  2 23  1  0
  2 24  1  0
  4 25  1  0
  4 26  1  0
  5 27  1  0
  5 28  1  0
  5 29  1  0
  6 30  1  0
  6 31  1  0
  7 32  1  0
  7 33  1  0
  9 34  1  0
 11 35  1  0
 12 36  1  0
 14 37  1  0
 15 38  1  0
 16 39  1  0
 17 40  1  0
 19 41  1  0
M  CHG  1   8   1
M  END
>  <UniqueID>  (13) 
12

>  <SMILES>  (13) 
CCN(CC)CC[S@+](O)c1ccc2ccccc2c1

>  <Energy>  (13) 
36.10418834912709

>  <Genealogy>  (13) 
CCN(CC)CC[S+](O)c1ccc2ccccc2c1 (protonated)
CCN(CC)CC[S@+](O)c1ccc2ccccc2c1 (chirality)
CCN(CC)CC[S@+](O)c1ccc2ccccc2c1 (3D coordinates assigned)
CCN(CC)CC[S@+](O)c1ccc2ccccc2c1 (optimized conformer: 36.10418834912709 kcal/mol)

>  <smiles>  (13) 
CCN(CC)CC[S+]([O-])c1ccc2ccccc2c1

>  <score_type>  (13) 
oracle

>  <origin>  (13) 
adg

>  <m_score__min__energy>  (13) 
-5.9800000000000004

>  <m_primary>  (13) 
energy

$$$$
13:0
     RDKit          3D

 37 40  0  0  0  0  0  0  0  0999 V2000
   57.3320   31.6470   41.9240 C   0  0  0  0  0  0  0  0  0  0  0  0
   56.8980   31.5720   43.2780 O   0  0  0  0  0  0  0  0  0  0  0  0
   57.7560   31.5980   44.3880 C   0  0  0  0  0  0  0  0  0  0  0  0
   58.3120   32.7900   44.8810 C   0  0  0  0  0  0  0  0  0  0  0  0
   59.2020   32.7590   45.9530 C   0  0  0  0  0  0  0  0  0  0  0  0
   59.5270   31.5420   46.5700 C   0  0  0  0  0  0  0  0  0  0  0  0
   60.4880   31.5090   47.5820 C   0  0  0  0  0  0  0  0  0  0  0  0
   60.8760   30.2870   48.1180 C   0  0  0  0  0  0  0  0  0  0  0  0
   60.2860   29.1240   47.7160 N   0  0  0  0  0  0  0  0  0  0  0  0
   59.2260   29.1340   46.8350 C   0  0  0  0  0  0  0  0  0  0  0  0
   58.9090   30.3410   46.1460 C   0  0  0  0  0  0  0  0  0  0  0  0
   58.0690   30.3850   45.0120 C   0  0  0  0  0  0  0  0  0  0  0  0
   58.4820   27.8520   46.6280 C   0  0  0  0  0  0  0  0  0  0  0  0
   57.0910   27.8040   46.4080 C   0  0  0  0  0  0  0  0  0  0  0  0
   56.4380   26.5760   46.2480 C   0  0  0  0  0  0  0  0  0  0  0  0
   55.0690   26.5550   45.9950 O   0  0  0  0  0  0  0  0  0  0  0  0
   57.1630   25.3830   46.3530 C   0  0  0  0  0  0  0  0  0  0  0  0
   58.5230   25.4150   46.6660 C   0  0  0  0  0  0  0  0  0  0  0  0
   59.1740   26.6440   46.8440 C   0  0  0  0  0  0  0  0  0  0  0  0
   60.6020   26.6980   47.3080 C   0  0  0  0  0  0  0  0  0  0  0  0
   60.7650   27.8570   48.3000 C   0  0  0  0  0  0  0  0  0  0  0  0
   58.4156   31.8343   41.8961 H   0  0  0  0  0  0  0  0  0  0  0  0
   57.1108   30.6973   41.4149 H   0  0  0  0  0  0  0  0  0  0  0  0
   56.8049   32.4674   41.4149 H   0  0  0  0  0  0  0  0  0  0  0  0
   58.0439   33.7517   44.4192 H   0  0  0  0  0  0  0  0  0  0  0  0
   59.6521   33.6942   46.3173 H   0  0  0  0  0  0  0  0  0  0  0  0
   60.9348   32.4434   47.9524 H   0  0  0  0  0  0  0  0  0  0  0  0
   61.6708   30.2567   48.8779 H   0  0  0  0  0  0  0  0  0  0  0  0
   57.6529   29.4487   44.6116 H   0  0  0  0  0  0  0  0  0  0  0  0
   56.5135   28.7390   46.3616 H   0  0  0  0  0  0  0  0  0  0  0  0
   54.3920   26.6930   46.7360 H   0  0  0  0  0  0  0  0  0  0  0  0
   56.6600   24.4186   46.1886 H   0  0  0  0  0  0  0  0  0  0  0  0
   59.0845   24.4752   46.7731 H   0  0  0  0  0  0  0  0  0  0  0  0
   60.8647   25.7509   47.8019 H   0  0  0  0  0  0  0  0  0  0  0  0
   61.2661   26.8533   46.4449 H   0  0  0  0  0  0  0  0  0  0  0  0
   60.1846   27.6374   49.2082 H   0  0  0  0  0  0  0  0  0  0  0  0
   61.8328   27.9640   48.5415 H   0  0  0  0  0  0  0  0  0  0  0  0
  1  2  1  0
  2  3  1  0
  3  4  2  0
  4  5  1  0
  5  6  2  0
  6  7  1  0
  7  8  2  0
  8  9  1  0
  9 10  2  0
 10 11  1  0
 11 12  2  0
 10 13  1  0
 13 14  2  0
 14 15  1  0
 15 16  1  0
 15 17  2  0
 17 18  1  0
 18 19  2  0
 19 20  1  0
 20 21  1  0
 12  3  1  0
 19 13  1  0
 11  6  1  0
 21  9  1  0
  1 22  1  0
  1 23  1  0
  1 24  1  0
  4 25  1  0
  5 26  1  0
  7 27  1  0
  8 28  1  0
 12 29  1  0
 14 30  1  0
 16 31  1  0
 17 32  1  0
 18 33  1  0
 20 34  1  0
 20 35  1  0
 21 36  1  0
 21 37  1  0
M  CHG  1   9   1
M  END
>  <UniqueID>  (14) 
13

>  <SMILES>  (14) 
COc1ccc2cc[n+]3c(c2c1)-c1cc(O)ccc1CC3

>  <Energy>  (14) 
58.33688184106717

>  <Genealogy>  (14) 
COc1ccc2cc[n+]3c(c2c1)-c1cc(O)ccc1CC3 (3D coordinates assigned)
COc1ccc2cc[n+]3c(c2c1)-c1cc(O)ccc1CC3 (nonaromatic ring conformer: 58.33688184106717 kcal/mol)

>  <smiles>  (14) 
COc1ccc2cc[n+]3c(c2c1)-c1cc(O)ccc1CC3

>  <score_type>  (14) 
oracle

>  <origin>  (14) 
adg

>  <m_score__min__energy>  (14) 
-6.5700000000000003

>  <m_primary>  (14) 
energy

$$$$
14:0
     RDKit          3D

 29 30  0  0  0  0  0  0  0  0999 V2000
   54.8500   29.3510   44.9000 O   0  0  0  0  0  0  0  0  0  0  0  0
   56.2160   29.0910   44.9920 C   0  0  0  0  0  0  0  0  0  0  0  0
   57.1490   30.0490   44.5450 C   0  0  0  0  0  0  0  0  0  0  0  0
   56.7050   31.3820   43.9930 C   0  0  0  0  0  0  0  0  0  0  0  0
   57.8570   32.2730   43.7830 N   0  0  0  0  0  0  0  0  0  0  0  0
   58.0510   33.2260   44.8900 C   0  0  0  0  0  0  0  0  0  0  0  0
   59.3770   33.9680   44.7380 C   0  0  0  0  0  0  0  0  0  0  0  0
   59.8440   34.9040   46.3720 Br  0  0  0  0  0  0  0  0  0  0  0  0
   58.5220   29.7800   44.6520 C   0  0  0  0  0  0  0  0  0  0  0  0
   58.9710   28.5740   45.1890 C   0  0  0  0  0  0  0  0  0  0  0  0
   58.0510   27.6160   45.6320 C   0  0  0  0  0  0  0  0  0  0  0  0
   58.4870   26.4020   46.1760 C   0  0  0  0  0  0  0  0  0  0  0  0
   57.5540   25.4630   46.6140 C   0  0  0  0  0  0  0  0  0  0  0  0
   56.1920   25.7450   46.5040 C   0  0  0  0  0  0  0  0  0  0  0  0
   55.7730   26.9280   45.9740 N   0  0  0  0  0  0  0  0  0  0  0  0
   56.6630   27.8700   45.5350 C   0  0  0  0  0  0  0  0  0  0  0  0
   56.1937   31.2218   43.0323 H   0  0  0  0  0  0  0  0  0  0  0  0
   56.0236   31.8529   44.7168 H   0  0  0  0  0  0  0  0  0  0  0  0
   57.6650   32.8230   42.9130 H   0  0  0  0  0  0  0  0  0  0  0  0
   57.2271   33.9549   44.8874 H   0  0  0  0  0  0  0  0  0  0  0  0
   58.0647   32.6684   45.8381 H   0  0  0  0  0  0  0  0  0  0  0  0
   60.1693   33.2430   44.5002 H   0  0  0  0  0  0  0  0  0  0  0  0
   59.2737   34.7065   43.9293 H   0  0  0  0  0  0  0  0  0  0  0  0
   59.2516   30.5282   44.3087 H   0  0  0  0  0  0  0  0  0  0  0  0
   60.0502   28.3749   45.2647 H   0  0  0  0  0  0  0  0  0  0  0  0
   59.5632   26.1894   46.2577 H   0  0  0  0  0  0  0  0  0  0  0  0
   57.8892   24.5072   47.0430 H   0  0  0  0  0  0  0  0  0  0  0  0
   55.4518   25.0074   46.8474 H   0  0  0  0  0  0  0  0  0  0  0  0
   54.7440   27.0970   45.9120 H   0  0  0  0  0  0  0  0  0  0  0  0
  1  2  1  0
  2  3  2  0
  3  4  1  0
  4  5  1  0
  5  6  1  0
  6  7  1  0
  7  8  1  0
  3  9  1  0
  9 10  2  0
 10 11  1  0
 11 12  2  0
 12 13  1  0
 13 14  2  0
 14 15  1  0
 15 16  2  0
 16  2  1  0
 16 11  1  0
  4 17  1  0
  4 18  1  0
  5 19  1  0
  6 20  1  0
  6 21  1  0
  7 22  1  0
  7 23  1  0
  9 24  1  0
 10 25  1  0
 12 26  1  0
 13 27  1  0
 14 28  1  0
 15 29  1  0
M  CHG  2   1  -1  15   1
M  END
>  <UniqueID>  (15) 
14

>  <SMILES>  (15) 
[O-]c1c(CNCCBr)ccc2ccc[nH+]c12

>  <Energy>  (15) 
31.45461402119793

>  <Genealogy>  (15) 
[O-]c1c(CNCCBr)ccc2ccc[nH+]c12 (protonated)
[O-]c1c(CNCCBr)ccc2ccc[nH+]c12 (3D coordinates assigned)
[O-]c1c(CNCCBr)ccc2ccc[nH+]c12 (optimized conformer: 31.45461402119793 kcal/mol)

>  <smiles>  (15) 
Oc1c(CNCCBr)ccc2cccnc12

>  <score_type>  (15) 
oracle

>  <origin>  (15) 
adg

>  <m_score__min__energy>  (15) 
-8.25

>  <m_primary>  (15) 
energy

$$$$
15:0
     RDKit          3D

 48 49  0  0  0  0  0  0  0  0999 V2000
   60.3260   28.8640   45.8720 C   0  0  0  0  0  0  0  0  0  0  0  0
   59.6180   29.1970   44.5600 C   0  0  0  0  0  0  0  0  0  0  0  0
   58.1770   28.8720   44.6190 N   0  0  0  0  0  0  0  0  0  0  0  0
   57.8390   27.7700   43.6900 C   0  0  0  0  0  0  0  0  0  0  0  0
   58.0250   26.4230   44.3800 C   0  0  0  0  0  0  0  0  0  0  0  0
   57.1830   30.2840   44.2820 S   0  0  0  0  0  0  0  0  0  0  0  0
   57.0110   30.4460   42.7970 O   0  0  0  0  0  0  0  0  0  0  0  0
   55.8150   30.0950   44.8740 O   0  0  0  0  0  0  0  0  0  0  0  0
   57.8970   31.7670   44.9250 C   0  0  0  0  0  0  0  0  0  0  0  0
   57.7730   32.9750   44.2280 C   0  0  0  0  0  0  0  0  0  0  0  0
   58.3340   34.1450   44.7430 C   0  0  0  0  0  0  0  0  0  0  0  0
   59.0320   34.1280   45.9620 C   0  0  0  0  0  0  0  0  0  0  0  0
   59.6480   35.4040   46.4670 C   0  0  0  0  0  0  0  0  0  0  0  0
   59.1280   32.9150   46.6840 C   0  0  0  0  0  0  0  0  0  0  0  0
   59.7940   32.8450   47.9520 N   0  0  0  0  0  0  0  0  0  0  0  0
   59.0940   32.5510   49.1690 C   0  0  0  0  0  0  0  0  0  0  0  0
   57.8530   32.3310   49.1550 O   0  0  0  0  0  0  0  0  0  0  0  0
   59.8430   32.4470   50.4610 C   0  0  0  0  0  0  0  0  0  0  0  0
   61.0920   31.1180   50.3810 S   0  0  0  0  0  0  0  0  0  0  0  0
   62.1200   31.9420   49.1680 C   0  0  0  0  0  0  0  0  0  0  0  0
   62.4960   33.2340   49.3630 N   0  0  0  0  0  0  0  0  0  0  0  0
   63.2780   33.8760   48.4560 C   0  0  0  0  0  0  0  0  0  0  0  0
   63.7110   33.2060   47.3120 C   0  0  0  0  0  0  0  0  0  0  0  0
   63.3220   31.8780   47.1350 C   0  0  0  0  0  0  0  0  0  0  0  0
   62.5360   31.2720   48.0610 N   0  0  0  0  0  0  0  0  0  0  0  0
   58.5900   31.7430   46.1410 C   0  0  0  0  0  0  0  0  0  0  0  0
   59.6899   29.1632   46.7181 H   0  0  0  0  0  0  0  0  0  0  0  0
   60.5167   27.7818   45.9213 H   0  0  0  0  0  0  0  0  0  0  0  0
   61.2812   29.4073   45.9213 H   0  0  0  0  0  0  0  0  0  0  0  0
   59.7331   30.2717   44.3555 H   0  0  0  0  0  0  0  0  0  0  0  0
   60.0735   28.5930   43.7614 H   0  0  0  0  0  0  0  0  0  0  0  0
   56.7915   27.8728   43.3703 H   0  0  0  0  0  0  0  0  0  0  0  0
   58.5053   27.8204   42.8162 H   0  0  0  0  0  0  0  0  0  0  0  0
   58.0055   26.5640   45.4708 H   0  0  0  0  0  0  0  0  0  0  0  0
   57.2121   25.7438   44.0835 H   0  0  0  0  0  0  0  0  0  0  0  0
   58.9915   25.9895   44.0835 H   0  0  0  0  0  0  0  0  0  0  0  0
   57.2314   33.0022   43.2709 H   0  0  0  0  0  0  0  0  0  0  0  0
   58.2285   35.0894   44.1889 H   0  0  0  0  0  0  0  0  0  0  0  0
   59.6468   35.4015   47.5670 H   0  0  0  0  0  0  0  0  0  0  0  0
   60.6827   35.4813   46.1016 H   0  0  0  0  0  0  0  0  0  0  0  0
   59.0650   36.2623   46.1016 H   0  0  0  0  0  0  0  0  0  0  0  0
   60.8380   32.7900   47.9530 H   0  0  0  0  0  0  0  0  0  0  0  0
   60.3467   33.4036   50.6638 H   0  0  0  0  0  0  0  0  0  0  0  0
   59.1293   32.2122   51.2644 H   0  0  0  0  0  0  0  0  0  0  0  0
   63.5693   34.9233   48.6239 H   0  0  0  0  0  0  0  0  0  0  0  0
   64.3435   33.7121   46.5678 H   0  0  0  0  0  0  0  0  0  0  0  0
   63.6522   31.3220   46.2451 H   0  0  0  0  0  0  0  0  0  0  0  0
   58.7133   30.7902   46.6767 H   0  0  0  0  0  0  0  0  0  0  0  0
  1  2  1  0
  2  3  1  0
  3  4  1  0
  4  5  1  0
  3  6  1  0
  6  7  2  0
  6  8  2  0
  6  9  1  0
  9 10  2  0
 10 11  1  0
 11 12  2  0
 12 13  1  0
 12 14  1  0
 14 15  1  0
 15 16  1  0
 16 17  2  0
 16 18  1  0
 18 19  1  0
 19 20  1  0
 20 21  2  0
 21 22  1  0
 22 23  2  0
 23 24  1  0
 24 25  2  0
 14 26  2  0
 26  9  1  0
 25 20  1  0
  1 27  1  0
  1 28  1  0
  1 29  1  0
  2 30  1  0
  2 31  1  0
  4 32  1  0
  4 33  1  0
  5 34  1  0
  5 35  1  0
  5 36  1  0
 10 37  1  0
 11 38  1  0
 13 39  1  0
 13 40  1  0
 13 41  1  0
 15 42  1  0
 18 43  1  0
 18 44  1  0
 22 45  1  0
 23 46  1  0
 24 47  1  0
 26 48  1  0
M  END
>  <UniqueID>  (16) 
15

>  <SMILES>  (16) 
CCN(CC)S(=O)(=O)c1ccc(C)c(NC(=O)CSc2ncccn2)c1

>  <Energy>  (16) 
45.513767216687

>  <Genealogy>  (16) 
CCN(CC)S(=O)(=O)c1ccc(C)c(NC(=O)CSc2ncccn2)c1 (3D coordinates assigned)
CCN(CC)S(=O)(=O)c1ccc(C)c(NC(=O)CSc2ncccn2)c1 (optimized conformer: 45.513767216687 kcal/mol)

>  <smiles>  (16) 
CCN(CC)S(=O)(=O)c1ccc(C)c(NC(=O)CSc2ncccn2)c1

>  <score_type>  (16) 
oracle

>  <origin>  (16) 
adg

>  <m_score__min__energy>  (16) 
-9.1799999999999997

>  <m_primary>  (16) 
energy

$$$$
16:0
     RDKit          3D

 63 66  0  0  0  0  0  0  0  0999 V2000
   66.3690   29.5100   51.6310 C   0  0  0  0  0  0  0  0  0  0  0  0
   66.9340   30.7120   50.8740 C   0  0  0  0  0  0  0  0  0  0  0  0
   65.8730   31.6720   50.4900 N   0  0  0  0  0  0  0  0  0  0  0  0
   66.1350   33.0370   51.0000 C   0  0  0  0  0  0  0  0  0  0  0  0
   67.5230   33.4960   50.5690 C   0  0  0  0  0  0  0  0  0  0  0  0
   64.4900   31.2140   50.7790 C   0  0  0  0  0  0  0  0  0  0  0  0
   63.4630   31.5610   49.6680 C   0  0  0  0  0  0  0  0  0  0  0  0
   63.7580   32.8170   48.9310 N   0  0  0  0  0  0  0  0  0  0  0  0
   63.5770   32.6810   47.4570 C   0  0  0  0  0  0  0  0  0  0  0  0
   62.7200   33.7900   46.8470 C   0  0  0  0  0  0  0  0  0  0  0  0
   61.4890   33.9160   47.6330 N   0  0  0  0  0  0  0  0  0  0  0  0
   60.3780   34.6170   46.9500 C   0  0  0  0  0  0  0  0  0  0  0  0
   58.9680   34.0110   47.1610 C   0  0  0  0  0  0  0  0  0  0  0  0
   58.7850   32.7420   46.4380 N   0  0  0  0  0  0  0  0  0  0  0  0
   58.1300   32.7020   45.1540 C   0  0  0  0  0  0  0  0  0  0  0  0
   57.8930   33.7710   44.5270 O   0  0  0  0  0  0  0  0  0  0  0  0
   57.7490   31.4010   44.5610 C   0  0  0  0  0  0  0  0  0  0  0  0
   57.0110   31.3500   43.3640 C   0  0  0  0  0  0  0  0  0  0  0  0
   56.6500   30.1230   42.8050 C   0  0  0  0  0  0  0  0  0  0  0  0
   57.0160   28.9320   43.4300 C   0  0  0  0  0  0  0  0  0  0  0  0
   57.7510   28.9570   44.6230 C   0  0  0  0  0  0  0  0  0  0  0  0
   58.1220   27.7590   45.2500 C   0  0  0  0  0  0  0  0  0  0  0  0
   58.8570   27.7840   46.4340 C   0  0  0  0  0  0  0  0  0  0  0  0
   59.2290   29.0000   47.0080 C   0  0  0  0  0  0  0  0  0  0  0  0
   58.8660   30.2150   46.4000 C   0  0  0  0  0  0  0  0  0  0  0  0
   58.1220   30.1990   45.2000 C   0  0  0  0  0  0  0  0  0  0  0  0
   59.2490   31.5060   47.0140 C   0  0  0  0  0  0  0  0  0  0  0  0
   59.9800   31.5230   48.0420 O   0  0  0  0  0  0  0  0  0  0  0  0
   61.7160   34.3470   49.0260 C   0  0  0  0  0  0  0  0  0  0  0  0
   63.1370   34.0230   49.5420 C   0  0  0  0  0  0  0  0  0  0  0  0
   66.4520   29.6865   52.7136 H   0  0  0  0  0  0  0  0  0  0  0  0
   65.3114   29.3714   51.3621 H   0  0  0  0  0  0  0  0  0  0  0  0
   66.9371   28.6073   51.3621 H   0  0  0  0  0  0  0  0  0  0  0  0
   67.6632   31.2265   51.5171 H   0  0  0  0  0  0  0  0  0  0  0  0
   67.4085   30.3423   49.9531 H   0  0  0  0  0  0  0  0  0  0  0  0
   65.3807   33.7281   50.5957 H   0  0  0  0  0  0  0  0  0  0  0  0
   66.0820   33.0287   52.0987 H   0  0  0  0  0  0  0  0  0  0  0  0
   68.1354   33.6985   51.4601 H   0  0  0  0  0  0  0  0  0  0  0  0
   67.9997   32.7077   49.9679 H   0  0  0  0  0  0  0  0  0  0  0  0
   67.4357   34.4131   49.9679 H   0  0  0  0  0  0  0  0  0  0  0  0
   64.5070   30.1214   50.9048 H   0  0  0  0  0  0  0  0  0  0  0  0
   64.1645   31.7410   51.6880 H   0  0  0  0  0  0  0  0  0  0  0  0
   63.4462   30.7330   48.9440 H   0  0  0  0  0  0  0  0  0  0  0  0
   62.4957   31.7109   50.1699 H   0  0  0  0  0  0  0  0  0  0  0  0
   64.7890   32.9550   49.0730 H   0  0  0  0  0  0  0  0  0  0  0  0
   64.5680   32.7037   46.9802 H   0  0  0  0  0  0  0  0  0  0  0  0
   63.0528   31.7303   47.2800 H   0  0  0  0  0  0  0  0  0  0  0  0
   63.2731   34.7406   46.8697 H   0  0  0  0  0  0  0  0  0  0  0  0
   62.4756   33.5447   45.8029 H   0  0  0  0  0  0  0  0  0  0  0  0
   60.3578   35.6543   47.3156 H   0  0  0  0  0  0  0  0  0  0  0  0
   60.5843   34.5263   45.8733 H   0  0  0  0  0  0  0  0  0  0  0  0
   58.8196   33.8291   48.2357 H   0  0  0  0  0  0  0  0  0  0  0  0
   58.2337   34.7288   46.7667 H   0  0  0  0  0  0  0  0  0  0  0  0
   56.7162   32.2848   42.8647 H   0  0  0  0  0  0  0  0  0  0  0  0
   56.0746   30.0958   41.8679 H   0  0  0  0  0  0  0  0  0  0  0  0
   56.7267   27.9685   42.9850 H   0  0  0  0  0  0  0  0  0  0  0  0
   57.8318   26.7955   44.8057 H   0  0  0  0  0  0  0  0  0  0  0  0
   59.1454   26.8396   46.9186 H   0  0  0  0  0  0  0  0  0  0  0  0
   59.8099   29.0084   47.9421 H   0  0  0  0  0  0  0  0  0  0  0  0
   61.5628   35.4347   49.0844 H   0  0  0  0  0  0  0  0  0  0  0  0
   61.0056   33.7941   49.6582 H   0  0  0  0  0  0  0  0  0  0  0  0
   63.7842   34.8868   49.3300 H   0  0  0  0  0  0  0  0  0  0  0  0
   63.0376   33.8117   50.6169 H   0  0  0  0  0  0  0  0  0  0  0  0
  1  2  1  0
  2  3  1  0
  3  4  1  0
  4  5  1  0
  3  6  1  0
  6  7  1  0
  7  8  1  0
  8  9  1  0
  9 10  1  0
 10 11  1  0
 11 12  1  0
 12 13  1  0
 13 14  1  0
 14 15  1  0
 15 16  2  0
 15 17  1  0
 17 18  2  0
 18 19  1  0
 19 20  2  0
 20 21  1  0
 21 22  2  0
 22 23  1  0
 23 24  2  0
 24 25  1  0
 25 26  2  0
 25 27  1  0
 27 28  2  0
 11 29  1  0
 29 30  1  0
 30  8  1  0
 27 14  1  0
 26 17  1  0
 26 21  1  0
  1 31  1  0
  1 32  1  0
  1 33  1  0
  2 34  1  0
  2 35  1  0
  4 36  1  0
  4 37  1  0
  5 38  1  0
  5 39  1  0
  5 40  1  0
  6 41  1  0
  6 42  1  0
  7 43  1  0
  7 44  1  0
  8 45  1  0
  9 46  1  0
  9 47  1  0
 10 48  1  0
 10 49  1  0
 12 50  1  0
 12 51  1  0
 13 52  1  0
 13 53  1  0
 18 54  1  0
 19 55  1  0
 20 56  1  0
 22 57  1  0
 23 58  1  0
 24 59  1  0
 29 60  1  0
 29 61  1  0
 30 62  1  0
 30 63  1  0
M  CHG  1   8   1
M  END
>  <UniqueID>  (17) 
16

>  <SMILES>  (17) 
CCN(CC)CC[NH+]1CCN(CCN2C(=O)c3cccc4cccc(c34)C2=O)CC1

>  <Energy>  (17) 
93.28446604106509

>  <Genealogy>  (17) 
CCN(CC)CC[NH+]1CCN(CCN2C(=O)c3cccc4cccc(c34)C2=O)CC1 (protonated)
CCN(CC)CC[NH+]1CCN(CCN2C(=O)c3cccc4cccc(c34)C2=O)CC1 (3D coordinates assigned)
CCN(CC)CC[NH+]1CCN(CCN2C(=O)c3cccc4cccc(c34)C2=O)CC1 (nonaromatic ring conformer: 93.28446604106509 kcal/mol)

>  <smiles>  (17) 
CCN(CC)CCN1CCN(CCN2C(=O)c3cccc4cccc(c34)C2=O)CC1

>  <score_type>  (17) 
oracle

>  <origin>  (17) 
adg

>  <m_score__min__energy>  (17) 
-6.9199999999999999

>  <m_primary>  (17) 
energy

$$$$
17:0
     RDKit          3D

 45 45  0  0  0  0  0  0  0  0999 V2000
   63.2360   30.4230   51.2050 C   0  0  0  0  0  0  0  0  0  0  0  0
   64.5840   31.0630   50.8610 C   0  0  0  0  0  0  0  0  0  0  0  0
   64.4760   32.1230   49.8220 N   0  0  0  0  0  0  0  0  0  0  0  0
   65.6050   33.0920   49.8460 C   0  0  0  0  0  0  0  0  0  0  0  0
   66.8890   32.5560   50.4980 C   0  0  0  0  0  0  0  0  0  0  0  0
   63.1650   32.8250   49.9160 C   0  0  0  0  0  0  0  0  0  0  0  0
   63.0530   34.0220   48.9550 C   0  0  0  0  0  0  0  0  0  0  0  0
   62.8720   33.4800   47.2620 S   0  0  0  0  0  0  0  0  0  0  0  0
   63.7080   32.0610   46.9310 O   0  0  0  0  0  0  0  0  0  0  0  0
   61.1880   33.3780   46.7500 C   0  0  0  0  0  0  0  0  0  0  0  0
   60.5680   34.5740   46.3620 C   0  0  0  0  0  0  0  0  0  0  0  0
   59.2300   34.5870   45.9720 C   0  0  0  0  0  0  0  0  0  0  0  0
   58.4920   33.4060   45.9700 C   0  0  0  0  0  0  0  0  0  0  0  0
   59.0940   32.2050   46.3510 C   0  0  0  0  0  0  0  0  0  0  0  0
   60.4520   32.1620   46.7350 C   0  0  0  0  0  0  0  0  0  0  0  0
   61.0650   30.8270   47.1430 C   0  0  0  0  0  0  0  0  0  0  0  0
   60.7620   30.5150   48.6140 C   0  0  0  0  0  0  0  0  0  0  0  0
   60.5960   29.6870   46.2290 C   0  0  0  0  0  0  0  0  0  0  0  0
   63.1237   30.3697   52.2980 H   0  0  0  0  0  0  0  0  0  0  0  0
   62.4228   31.0311   50.7821 H   0  0  0  0  0  0  0  0  0  0  0  0
   63.1932   29.4085   50.7821 H   0  0  0  0  0  0  0  0  0  0  0  0
   65.0036   31.5092   51.7747 H   0  0  0  0  0  0  0  0  0  0  0  0
   65.2309   30.2705   50.4567 H   0  0  0  0  0  0  0  0  0  0  0  0
   64.5280   31.6500   48.8910 H   0  0  0  0  0  0  0  0  0  0  0  0
   65.8381   33.3742   48.8087 H   0  0  0  0  0  0  0  0  0  0  0  0
   65.2742   33.9436   50.4586 H   0  0  0  0  0  0  0  0  0  0  0  0
   66.7893   32.5976   51.5927 H   0  0  0  0  0  0  0  0  0  0  0  0
   67.0525   31.5145   50.1840 H   0  0  0  0  0  0  0  0  0  0  0  0
   67.7444   33.1722   50.1840 H   0  0  0  0  0  0  0  0  0  0  0  0
   62.3656   32.1080   49.6774 H   0  0  0  0  0  0  0  0  0  0  0  0
   63.0740   33.2159   50.9402 H   0  0  0  0  0  0  0  0  0  0  0  0
   62.1762   34.6248   49.2340 H   0  0  0  0  0  0  0  0  0  0  0  0
   63.9748   34.6172   49.0325 H   0  0  0  0  0  0  0  0  0  0  0  0
   64.5380   32.3620   46.4810 H   0  0  0  0  0  0  0  0  0  0  0  0
   61.1433   35.5116   46.3654 H   0  0  0  0  0  0  0  0  0  0  0  0
   58.7563   35.5313   45.6654 H   0  0  0  0  0  0  0  0  0  0  0  0
   57.4343   33.4192   45.6681 H   0  0  0  0  0  0  0  0  0  0  0  0
   58.5012   31.2784   46.3520 H   0  0  0  0  0  0  0  0  0  0  0  0
   62.1556   30.9121   47.0276 H   0  0  0  0  0  0  0  0  0  0  0  0
   61.3824   31.1539   49.2597 H   0  0  0  0  0  0  0  0  0  0  0  0
   59.6988   30.7094   48.8186 H   0  0  0  0  0  0  0  0  0  0  0  0
   60.9874   29.4580   48.8186 H   0  0  0  0  0  0  0  0  0  0  0  0
   60.2489   28.8434   46.8437 H   0  0  0  0  0  0  0  0  0  0  0  0
   59.7708   30.0419   45.5941 H   0  0  0  0  0  0  0  0  0  0  0  0
   61.4320   29.3585   45.5941 H   0  0  0  0  0  0  0  0  0  0  0  0
  1  2  1  0
  2  3  1  0
  3  4  1  0
  4  5  1  0
  3  6  1  0
  6  7  1  0
  7  8  1  0
  8  9  1  1
  8 10  1  0
 10 11  2  0
 11 12  1  0
 12 13  2  0
 13 14  1  0
 14 15  2  0
 15 16  1  0
 16 17  1  0
 16 18  1  0
 15 10  1  0
  1 19  1  0
  1 20  1  0
  1 21  1  0
  2 22  1  0
  2 23  1  0
  3 24  1  0
  4 25  1  0
  4 26  1  0
  5 27  1  0
  5 28  1  0
  5 29  1  0
  6 30  1  0
  6 31  1  0
  7 32  1  0
  7 33  1  0
  9 34  1  0
 11 35  1  0
 12 36  1  0
 13 37  1  0
 14 38  1  0
 16 39  1  0
 17 40  1  0
 17 41  1  0
 17 42  1  0
 18 43  1  0
 18 44  1  0
 18 45  1  0
M  CHG  2   3   1   8   1
M  END
>  <UniqueID>  (18) 
17

>  <SMILES>  (18) 
CC[NH+](CC)CC[S@@+](O)c1ccccc1C(C)C

>  <Energy>  (18) 
39.2069289766175

>  <Genealogy>  (18) 
CC[NH+](CC)CC[S+](O)c1ccccc1C(C)C (protonated)
CC[NH+](CC)CC[S@@+](O)c1ccccc1C(C)C (chirality)
CC[NH+](CC)CC[S@@+](O)c1ccccc1C(C)C (3D coordinates assigned)
CC[NH+](CC)CC[S@@+](O)c1ccccc1C(C)C (optimized conformer: 39.2069289766175 kcal/mol)

>  <smiles>  (18) 
CCN(CC)CC[S+]([O-])c1ccccc1C(C)C

>  <score_type>  (18) 
oracle

>  <origin>  (18) 
adg

>  <m_score__min__energy>  (18) 
-3.3599999999999999

>  <m_primary>  (18) 
energy

$$$$
18:0
     RDKit          3D

 29 30  0  0  0  0  0  0  0  0999 V2000
   58.1200   27.0030   42.6010 C   0  0  0  0  0  0  0  0  0  0  0  0
   58.2880   27.4950   44.0410 C   0  0  0  0  0  0  0  0  0  0  0  0
   57.1270   28.2910   44.4990 N   0  0  0  0  0  0  0  0  0  0  0  0
   56.7320   29.3440   43.5450 C   0  0  0  0  0  0  0  0  0  0  0  0
   57.2750   30.6910   43.9360 C   0  0  0  0  0  0  0  0  0  0  0  0
   57.4190   31.7120   42.9850 C   0  0  0  0  0  0  0  0  0  0  0  0
   57.9560   32.9420   43.3690 C   0  0  0  0  0  0  0  0  0  0  0  0
   58.3470   33.1480   44.6980 C   0  0  0  0  0  0  0  0  0  0  0  0
   58.8900   34.3710   45.1180 C   0  0  0  0  0  0  0  0  0  0  0  0
   59.2730   34.5440   46.4520 C   0  0  0  0  0  0  0  0  0  0  0  0
   59.1160   33.5000   47.3710 C   0  0  0  0  0  0  0  0  0  0  0  0
   59.6420   33.7450   49.1900 Br  0  0  0  0  0  0  0  0  0  0  0  0
   58.5730   32.2770   46.9590 C   0  0  0  0  0  0  0  0  0  0  0  0
   58.1870   32.0960   45.6270 C   0  0  0  0  0  0  0  0  0  0  0  0
   57.6620   30.9080   45.2240 N   0  0  0  0  0  0  0  0  0  0  0  0
   57.7646   25.9620   42.6083 H   0  0  0  0  0  0  0  0  0  0  0  0
   57.3874   27.6370   42.0800 H   0  0  0  0  0  0  0  0  0  0  0  0
   59.0873   27.0565   42.0800 H   0  0  0  0  0  0  0  0  0  0  0  0
   58.4028   26.6233   44.7021 H   0  0  0  0  0  0  0  0  0  0  0  0
   59.1762   28.1430   44.0750 H   0  0  0  0  0  0  0  0  0  0  0  0
   56.3100   27.6450   44.6000 H   0  0  0  0  0  0  0  0  0  0  0  0
   57.2980   28.7110   45.4440 H   0  0  0  0  0  0  0  0  0  0  0  0
   57.1159   29.0821   42.5480 H   0  0  0  0  0  0  0  0  0  0  0  0
   55.6338   29.4075   43.5445 H   0  0  0  0  0  0  0  0  0  0  0  0
   57.1105   31.5444   41.9425 H   0  0  0  0  0  0  0  0  0  0  0  0
   58.0718   33.7478   42.6293 H   0  0  0  0  0  0  0  0  0  0  0  0
   59.0146   35.1938   44.3986 H   0  0  0  0  0  0  0  0  0  0  0  0
   59.6990   35.5037   46.7800 H   0  0  0  0  0  0  0  0  0  0  0  0
   58.4500   31.4582   47.6832 H   0  0  0  0  0  0  0  0  0  0  0  0
  1  2  1  0
  2  3  1  0
  3  4  1  0
  4  5  1  0
  5  6  2  0
  6  7  1  0
  7  8  2  0
  8  9  1  0
  9 10  2  0
 10 11  1  0
 11 12  1  0
 11 13  2  0
 13 14  1  0
 14 15  2  0
 15  5  1  0
 14  8  1  0
  1 16  1  0
  1 17  1  0
  1 18  1  0
  2 19  1  0
  2 20  1  0
  3 21  1  0
  3 22  1  0
  4 23  1  0
  4 24  1  0
  6 25  1  0
  7 26  1  0
  9 27  1  0
 10 28  1  0
 13 29  1  0
M  CHG  1   3   1
M  END
>  <UniqueID>  (19) 
18

>  <SMILES>  (19) 
CC[NH2+]Cc1ccc2ccc(Br)cc2n1

>  <Energy>  (19) 
30.924728308214707

>  <Genealogy>  (19) 
CC[NH2+]Cc1ccc2ccc(Br)cc2n1 (protonated)
CC[NH2+]Cc1ccc2ccc(Br)cc2n1 (3D coordinates assigned)
CC[NH2+]Cc1ccc2ccc(Br)cc2n1 (optimized conformer: 30.924728308214707 kcal/mol)

>  <smiles>  (19) 
CCNCc1ccc2ccc(Br)cc2n1

>  <score_type>  (19) 
oracle

>  <origin>  (19) 
adg

>  <m_score__min__energy>  (19) 
-5.8899999999999997

>  <m_primary>  (19) 
energy

$$$$
19:0
     RDKit          3D

 41 43  0  0  1  0  0  0  0  0999 V2000
   63.6480   33.1650   47.1060 C   0  0  0  0  0  0  0  0  0  0  0  0
   62.3030   33.7890   47.4210 C   0  0  0  0  0  0  0  0  0  0  0  0
   61.2210   33.0810   46.7660 N   0  0  0  0  0  0  0  0  0  0  0  0
   60.2430   33.9670   46.2320 C   0  0  0  0  0  0  0  0  0  0  0  0
   59.3050   34.5750   47.2320 C   0  0  0  0  0  0  0  0  0  0  0  0
   60.7220   31.9820   47.5380 C   0  0  0  0  0  0  0  0  0  0  0  0
   61.4150   30.6800   47.1930 C   0  0  0  0  0  0  0  0  0  0  0  0
   60.3480   29.5820   47.3450 C   0  0  0  0  0  0  0  0  0  0  0  0
   60.0030   29.0380   46.0460 N   0  0  0  0  0  0  0  0  0  0  0  0
   58.7600   28.8780   45.7540 C   0  0  0  0  0  0  0  0  0  0  0  0
   58.2370   27.6020   45.9960 C   0  0  0  0  0  0  0  0  0  0  0  0
   58.9900   26.1280   46.6440 S   0  0  0  0  0  0  0  0  0  0  0  0
   57.4220   25.1270   46.5210 C   0  0  0  0  0  0  0  0  0  0  0  0
   56.5090   26.0320   46.0000 C   0  0  0  0  0  0  0  0  0  0  0  0
   56.9120   27.2690   45.7370 C   0  0  0  0  0  0  0  0  0  0  0  0
   56.1790   28.3140   45.2240 N   0  0  0  0  0  0  0  0  0  0  0  0
   56.6970   29.5040   45.0040 C   0  0  0  0  0  0  0  0  0  0  0  0
   56.1370   30.6250   44.5130 N   0  0  0  0  0  0  0  0  0  0  0  0
   57.0570   31.6120   44.4650 C   0  0  0  0  0  0  0  0  0  0  0  0
   58.2050   31.0960   44.9330 N   0  0  0  0  0  0  0  0  0  0  0  0
   57.9850   29.8480   45.2510 N   0  0  0  0  0  0  0  0  0  0  0  0
   64.1689   32.9234   48.0443 H   0  0  0  0  0  0  0  0  0  0  0  0
   63.4976   32.2447   46.5226 H   0  0  0  0  0  0  0  0  0  0  0  0
   64.2536   33.8741   46.5226 H   0  0  0  0  0  0  0  0  0  0  0  0
   62.1419   33.7602   48.5088 H   0  0  0  0  0  0  0  0  0  0  0  0
   62.3093   34.8255   47.0527 H   0  0  0  0  0  0  0  0  0  0  0  0
   60.7709   34.7860   45.7216 H   0  0  0  0  0  0  0  0  0  0  0  0
   59.6170   33.3571   45.5640 H   0  0  0  0  0  0  0  0  0  0  0  0
   59.6559   34.3475   48.2494 H   0  0  0  0  0  0  0  0  0  0  0  0
   59.2741   35.6654   47.0900 H   0  0  0  0  0  0  0  0  0  0  0  0
   58.2970   34.1580   47.0900 H   0  0  0  0  0  0  0  0  0  0  0  0
   60.8820   32.1968   48.6049 H   0  0  0  0  0  0  0  0  0  0  0  0
   59.6522   31.8664   47.3094 H   0  0  0  0  0  0  0  0  0  0  0  0
   61.7904   30.7084   46.1594 H   0  0  0  0  0  0  0  0  0  0  0  0
   62.2797   30.4966   47.8477 H   0  0  0  0  0  0  0  0  0  0  0  0
   60.7424   28.7775   47.9831 H   0  0  0  0  0  0  0  0  0  0  0  0
   59.4475   30.0166   47.8036 H   0  0  0  0  0  0  0  0  0  0  0  0
   57.2601   24.0741   46.7951 H   0  0  0  0  0  0  0  0  0  0  0  0
   55.4689   25.7297   45.8081 H   0  0  0  0  0  0  0  0  0  0  0  0
   55.1540   28.1810   44.9840 H   0  0  0  0  0  0  0  0  0  0  0  0
   56.8969   32.6410   44.1107 H   0  0  0  0  0  0  0  0  0  0  0  0
  1  2  1  0
  2  3  1  0
  3  4  1  0
  4  5  1  0
  3  6  1  0
  6  7  1  0
  7  8  1  0
  8  9  1  0
  9 10  2  0
 10 11  1  0
 11 12  1  0
 12 13  1  0
 13 14  2  0
 14 15  1  0
 15 16  1  0
 16 17  1  0
 17 18  2  0
 18 19  1  0
 19 20  2  0
 20 21  1  0
 21 10  1  0
 15 11  2  0
 21 17  1  0
  1 22  1  0
  1 23  1  0
  1 24  1  0
  2 25  1  0
  2 26  1  0
  4 27  1  0
  4 28  1  0
  5 29  1  0
  5 30  1  0
  5 31  1  0
  6 32  1  0
  6 33  1  0
  7 34  1  0
  7 35  1  0
  8 36  1  0
  8 37  1  0
 13 38  1  0
 14 39  1  0
 16 40  1  0
 19 41  1  0
M  END
>  <smiles>  (20) 
CCN(CC)CCCN=c1c2sccc2[nH]c2ncnn12

>  <score_type>  (20) 
oracle

>  <origin>  (20) 
adg

>  <m_score__min__energy>  (20) 
-6.5199999999999996

>  <m_primary>  (20) 
energy

$$$$
20:0
     RDKit          3D

 57 60  0  0  0  0  0  0  0  0999 V2000
   58.7530   29.6200   50.0020 C   0  0  0  0  0  0  0  0  0  0  0  0
   59.5510   30.1180   48.9350 O   0  0  0  0  0  0  0  0  0  0  0  0
   59.7990   29.4350   47.7340 C   0  0  0  0  0  0  0  0  0  0  0  0
   59.9380   28.0320   47.7000 C   0  0  0  0  0  0  0  0  0  0  0  0
   60.1790   27.3730   46.4930 C   0  0  0  0  0  0  0  0  0  0  0  0
   60.2810   28.0990   45.3070 C   0  0  0  0  0  0  0  0  0  0  0  0
   60.1460   29.4870   45.3240 C   0  0  0  0  0  0  0  0  0  0  0  0
   59.9130   30.1720   46.5310 C   0  0  0  0  0  0  0  0  0  0  0  0
   59.7610   31.6860   46.5110 C   0  0  1  0  0  0  0  0  0  0  0  0
   58.4240   32.0700   47.1960 C   0  0  0  0  0  0  0  0  0  0  0  0
   57.9430   33.5220   46.9550 C   0  0  0  0  0  0  0  0  0  0  0  0
   58.9710   34.6290   47.2270 C   0  0  0  0  0  0  0  0  0  0  0  0
   60.1970   34.5930   46.3050 C   0  0  0  0  0  0  0  0  0  0  0  0
   61.3540   33.6900   46.7660 C   0  0  0  0  0  0  0  0  0  0  0  0
   60.9600   32.3110   47.1320 N   0  0  0  0  0  0  0  0  0  0  0  0
   62.0560   31.3920   47.5080 C   0  0  0  0  0  0  0  0  0  0  0  0
   63.0790   32.0310   48.4100 C   0  0  0  0  0  0  0  0  0  0  0  0
   64.1190   32.7490   47.9320 N   0  0  0  0  0  0  0  0  0  0  0  0
   64.8090   33.1150   49.0300 C   0  0  0  0  0  0  0  0  0  0  0  0
   64.1930   32.6090   50.1510 C   0  0  0  0  0  0  0  0  0  0  0  0
   63.1040   31.9250   49.7600 N   0  0  0  0  0  0  0  0  0  0  0  0
   62.2200   31.1570   50.6390 C   0  0  0  0  0  0  0  0  0  0  0  0
   61.0400   31.9920   51.0660 C   0  0  0  0  0  0  0  0  0  0  0  0
   60.8950   32.3640   52.4100 C   0  0  0  0  0  0  0  0  0  0  0  0
   59.7960   33.1330   52.7950 C   0  0  0  0  0  0  0  0  0  0  0  0
   58.8560   33.5260   51.8420 C   0  0  0  0  0  0  0  0  0  0  0  0
   59.0340   33.1460   50.5110 C   0  0  0  0  0  0  0  0  0  0  0  0
   60.1110   32.3980   50.1490 N   0  0  0  0  0  0  0  0  0  0  0  0
   59.2073   29.9035   50.9629 H   0  0  0  0  0  0  0  0  0  0  0  0
   57.7418   30.0476   49.9341 H   0  0  0  0  0  0  0  0  0  0  0  0
   58.6928   28.5237   49.9341 H   0  0  0  0  0  0  0  0  0  0  0  0
   59.8559   27.4526   48.6314 H   0  0  0  0  0  0  0  0  0  0  0  0
   60.2887   26.2786   46.4777 H   0  0  0  0  0  0  0  0  0  0  0  0
   60.4681   27.5766   44.3572 H   0  0  0  0  0  0  0  0  0  0  0  0
   60.2225   30.0525   44.3836 H   0  0  0  0  0  0  0  0  0  0  0  0
   59.7098   32.0719   45.4822 H   0  0  0  0  0  0  0  0  0  0  0  0
   57.6447   31.3889   46.8234 H   0  0  0  0  0  0  0  0  0  0  0  0
   58.6052   31.9881   48.2779 H   0  0  0  0  0  0  0  0  0  0  0  0
   57.6329   33.6028   45.9027 H   0  0  0  0  0  0  0  0  0  0  0  0
   57.1320   33.6881   47.6793 H   0  0  0  0  0  0  0  0  0  0  0  0
   58.4723   35.6011   47.0992 H   0  0  0  0  0  0  0  0  0  0  0  0
   59.3418   34.4698   48.2503 H   0  0  0  0  0  0  0  0  0  0  0  0
   59.8663   34.2401   45.3170 H   0  0  0  0  0  0  0  0  0  0  0  0
   60.5994   35.6168   46.3022 H   0  0  0  0  0  0  0  0  0  0  0  0
   62.0876   33.6303   45.9485 H   0  0  0  0  0  0  0  0  0  0  0  0
   61.7580   34.1486   47.6806 H   0  0  0  0  0  0  0  0  0  0  0  0
   61.6230   30.5251   48.0285 H   0  0  0  0  0  0  0  0  0  0  0  0
   62.5721   31.1002   46.5814 H   0  0  0  0  0  0  0  0  0  0  0  0
   65.7245   33.7249   49.0299 H   0  0  0  0  0  0  0  0  0  0  0  0
   64.5331   32.7413   51.1887 H   0  0  0  0  0  0  0  0  0  0  0  0
   61.8582   30.2684   50.1009 H   0  0  0  0  0  0  0  0  0  0  0  0
   62.7841   30.8564   51.5342 H   0  0  0  0  0  0  0  0  0  0  0  0
   61.6417   32.0521   53.1551 H   0  0  0  0  0  0  0  0  0  0  0  0
   59.6712   33.4285   53.8472 H   0  0  0  0  0  0  0  0  0  0  0  0
   57.9842   34.1287   52.1364 H   0  0  0  0  0  0  0  0  0  0  0  0
   58.3001   33.4527   49.7512 H   0  0  0  0  0  0  0  0  0  0  0  0
   60.2180   32.1360   49.1430 H   0  0  0  0  0  0  0  0  0  0  0  0
  1  2  1  0
  2  3  1  0
  3  4  2  0
  4  5  1  0
  5  6  2  0
  6  7  1  0
  7  8  2  0
  8  9  1  0
  9 10  1  0
 10 11  1  0
 11 12  1  0
 12 13  1  0
 13 14  1  0
 14 15  1  0
 15 16  1  0
 16 17  1  0
 17 18  2  0
 18 19  1  0
 19 20  2  0
 20 21  1  0
 21 22  1  0
 22 23  1  0
 23 24  2  0
 24 25  1  0
 25 26  2  0
 26 27  1  0
 27 28  2  0
  8  3  1  0
 15  9  1  0
 21 17  1  0
 28 23  1  0
  1 29  1  0
  1 30  1  0
  1 31  1  0
  4 32  1  0
  5 33  1  0
  6 34  1  0
  7 35  1  0
  9 36  1  6
 10 37  1  0
 10 38  1  0
 11 39  1  0
 11 40  1  0
 12 41  1  0
 12 42  1  0
 13 43  1  0
 13 44  1  0
 14 45  1  0
 14 46  1  0
 16 47  1  0
 16 48  1  0
 19 49  1  0
 20 50  1  0
 22 51  1  0
 22 52  1  0
 24 53  1  0
 25 54  1  0
 26 55  1  0
 27 56  1  0
 28 57  1  0
M  CHG  1  28   1
M  END
>  <UniqueID>  (21) 
19

>  <SMILES>  (21) 
COc1ccccc1[C@H]1CCCCCN1Cc1nccn1Cc1cccc[nH+]1

>  <Energy>  (21) 
105.22994517979218

>  <Genealogy>  (21) 
COc1ccccc1C1CCCCCN1Cc1nccn1Cc1cccc[nH+]1 (protonated)
COc1ccccc1[C@H]1CCCCCN1Cc1nccn1Cc1cccc[nH+]1 (chirality)
COc1ccccc1[C@H]1CCCCCN1Cc1nccn1Cc1cccc[nH+]1 (3D coordinates assigned)
COc1ccccc1[C@H]1CCCCCN1Cc1nccn1Cc1cccc[nH+]1 (nonaromatic ring conformer: 105.22994517979218 kcal/mol)

>  <smiles>  (21) 
COc1ccccc1C1CCCCCN1Cc1nccn1Cc1ccccn1

>  <score_type>  (21) 
oracle

>  <origin>  (21) 
adg

>  <m_score__min__energy>  (21) 
-5.5700000000000003

>  <m_primary>  (21) 
energy

$$$$
21:0
     RDKit          3D

 43 45  0  0  0  0  0  0  0  0999 V2000
   58.8961   35.7979   44.1469 H   0  0  0  0  0  0  0  0  0  0  0  0
   58.8930   34.9620   44.8620 C   0  0  0  0  0  0  0  0  0  0  0  0
   59.6990   35.0160   46.0010 C   0  0  0  0  0  0  0  0  0  0  0  0
   60.3367   35.8938   46.1819 H   0  0  0  0  0  0  0  0  0  0  0  0
   59.6960   33.9570   46.9100 C   0  0  0  0  0  0  0  0  0  0  0  0
   60.3408   33.9982   47.8002 H   0  0  0  0  0  0  0  0  0  0  0  0
   58.8740   32.8390   46.6940 C   0  0  0  0  0  0  0  0  0  0  0  0
   58.9060   31.7080   47.6490 C   0  0  0  0  0  0  0  0  0  0  0  0
   58.4730   31.9460   48.9100 N   0  0  0  0  0  0  0  0  0  0  0  0
   58.4270   30.9680   49.8430 C   0  0  0  0  0  0  0  0  0  0  0  0
   58.0070   31.2750   51.0390 N   0  0  0  0  0  0  0  0  0  0  0  0
   57.2490   30.4730   51.9580 C   0  0  0  0  0  0  0  0  0  0  0  0
   57.3870   29.2210   51.9980 O   0  0  0  0  0  0  0  0  0  0  0  0
   56.2330   31.1310   52.8360 C   0  0  0  0  0  0  0  0  0  0  0  0
   56.3277   30.7362   53.8583 H   0  0  0  0  0  0  0  0  0  0  0  0
   56.4083   32.2169   52.8318 H   0  0  0  0  0  0  0  0  0  0  0  0
   54.8250   30.8560   52.3200 C   0  0  0  0  0  0  0  0  0  0  0  0
   54.1419   30.7226   53.1718 H   0  0  0  0  0  0  0  0  0  0  0  0
   54.4865   31.7050   51.7080 H   0  0  0  0  0  0  0  0  0  0  0  0
   54.8308   29.9420   51.7080 H   0  0  0  0  0  0  0  0  0  0  0  0
   58.8500   29.7160   49.5130 N   0  0  0  0  0  0  0  0  0  0  0  0
   58.8880   28.9530   50.2230 H   0  0  0  0  0  0  0  0  0  0  0  0
   59.3010   29.4510   48.2540 C   0  0  0  0  0  0  0  0  0  0  0  0
   59.7420   28.1560   47.9370 C   0  0  0  0  0  0  0  0  0  0  0  0
   59.7000   27.3586   48.6936 H   0  0  0  0  0  0  0  0  0  0  0  0
   60.2320   27.8840   46.6640 C   0  0  0  0  0  0  0  0  0  0  0  0
   60.5689   26.8689   46.4068 H   0  0  0  0  0  0  0  0  0  0  0  0
   60.2940   28.9000   45.7190 C   0  0  0  0  0  0  0  0  0  0  0  0
   60.6890   28.6964   44.7127 H   0  0  0  0  0  0  0  0  0  0  0  0
   59.8520   30.1810   46.0540 C   0  0  0  0  0  0  0  0  0  0  0  0
   59.9110   30.9873   45.3081 H   0  0  0  0  0  0  0  0  0  0  0  0
   59.3440   30.4490   47.3030 N   0  0  0  0  0  0  0  0  0  0  0  0
   58.0690   32.7730   45.5410 C   0  0  0  0  0  0  0  0  0  0  0  0
   57.2700   31.6350   45.3370 O   0  0  0  0  0  0  0  0  0  0  0  0
   57.0310   31.0280   44.0710 C   0  0  0  0  0  0  0  0  0  0  0  0
   57.9470   31.0734   43.4636 H   0  0  0  0  0  0  0  0  0  0  0  0
   56.2217   31.5642   43.5537 H   0  0  0  0  0  0  0  0  0  0  0  0
   56.6290   29.5770   44.2740 C   0  0  0  0  0  0  0  0  0  0  0  0
   56.5690   29.3604   45.3508 H   0  0  0  0  0  0  0  0  0  0  0  0
   55.6479   29.3998   43.8091 H   0  0  0  0  0  0  0  0  0  0  0  0
   57.3790   28.9202   43.8091 H   0  0  0  0  0  0  0  0  0  0  0  0
   58.0820   33.8470   44.6290 C   0  0  0  0  0  0  0  0  0  0  0  0
   57.4508   33.8081   43.7290 H   0  0  0  0  0  0  0  0  0  0  0  0
  1  2  1  0
  2  3  2  0
  3  4  1  0
  3  5  1  0
  5  6  1  0
  5  7  2  0
  7  8  1  0
  8  9  2  0
  9 10  1  0
 10 11  2  0
 11 12  1  0
 12 13  2  0
 12 14  1  0
 14 15  1  0
 14 16  1  0
 14 17  1  0
 17 18  1  0
 17 19  1  0
 17 20  1  0
 10 21  1  0
 21 22  1  0
 21 23  2  0
 23 24  1  0
 24 25  1  0
 24 26  2  0
 26 27  1  0
 26 28  1  0
 28 29  1  0
 28 30  2  0
 30 31  1  0
 30 32  1  0
  7 33  1  0
 33 34  1  0
 34 35  1  0
 35 36  1  0
 35 37  1  0
 35 38  1  0
 38 39  1  0
 38 40  1  0
 38 41  1  0
 33 42  2  0
 42 43  1  0
 42  2  1  0
 32  8  1  0
 32 23  1  0
M  CHG  1  21   1
M  END
>  <UniqueID>  (22) 
20

>  <SMILES>  (22) 
CCOc1ccccc1-c1n/c(=N/C(=O)CC)[nH+]c2ccccn12

>  <Energy>  (22) 
57.63868789230857

>  <Genealogy>  (22) 
CCOc1ccccc1-c1nc(=NC(=O)CC)[nH+]c2ccccn12 (protonated)
CCOc1ccccc1-c1n/c(=N/C(=O)CC)[nH+]c2ccccn12 (cis-trans isomerization)
CCOc1ccccc1-c1n/c(=N/C(=O)CC)[nH+]c2ccccn12 (3D coordinates assigned)
CCOc1ccccc1-c1n/c(=N/C(=O)CC)[nH+]c2ccccn12 (optimized conformer: 57.63868789230857 kcal/mol)

>  <smiles>  (22) 
CCOc1ccccc1-c1nc(=NC(=O)CC)nc2ccccn12

>  <score_type>  (22) 
oracle

>  <origin>  (22) 
adg

>  <m_score__min__energy>  (22) 
-6.1399999999999997

>  <m_primary>  (22) 
energy

$$$$
22:0
     RDKit          3D

 63 66  0  0  0  0  0  0  0  0999 V2000
   59.6450   26.1770   47.3360 O   0  0  0  0  0  0  0  0  0  0  0  0
   58.5260   26.6170   46.9670 C   0  0  0  0  0  0  0  0  0  0  0  0
   57.3960   25.7400   46.9990 N   0  0  0  0  0  0  0  0  0  0  0  0
   57.4740   24.2950   47.2010 C   0  0  0  0  0  0  0  0  0  0  0  0
   56.8120   23.5750   46.0280 C   0  0  0  0  0  0  0  0  0  0  0  0
   57.7120   23.5810   44.8520 N   0  0  0  0  0  0  0  0  0  0  0  0
   58.2350   22.2290   44.5250 C   0  0  0  0  0  0  0  0  0  0  0  0
   57.3940   21.5110   43.4470 C   0  0  0  0  0  0  0  0  0  0  0  0
   56.0510   21.9430   43.5010 O   0  0  0  0  0  0  0  0  0  0  0  0
   55.9550   23.2990   43.0880 C   0  0  0  0  0  0  0  0  0  0  0  0
   57.0770   24.1980   43.6690 C   0  0  0  0  0  0  0  0  0  0  0  0
   58.4210   28.0110   46.4840 C   0  0  0  0  0  0  0  0  0  0  0  0
   57.7540   28.2870   45.2890 C   0  0  0  0  0  0  0  0  0  0  0  0
   57.6650   29.5620   44.7930 N   0  0  0  0  0  0  0  0  0  0  0  0
   56.9460   29.7380   43.5130 C   0  0  0  0  0  0  0  0  0  0  0  0
   55.4350   29.7760   43.7400 C   0  0  0  0  0  0  0  0  0  0  0  0
   55.1450   29.3050   45.0260 O   0  0  0  0  0  0  0  0  0  0  0  0
   58.1960   30.6230   45.5010 C   0  0  0  0  0  0  0  0  0  0  0  0
   58.1000   31.9590   45.0430 C   0  0  0  0  0  0  0  0  0  0  0  0
   58.6440   33.0130   45.7760 C   0  0  0  0  0  0  0  0  0  0  0  0
   59.2980   32.7730   46.9830 C   0  0  0  0  0  0  0  0  0  0  0  0
   59.9900   34.1180   47.8960 S   0  0  0  0  0  0  0  0  0  0  0  0
   59.6710   35.4090   47.1940 O   0  0  0  0  0  0  0  0  0  0  0  0
   59.3590   34.1640   49.2600 O   0  0  0  0  0  0  0  0  0  0  0  0
   61.7220   33.9660   48.0700 N   0  0  0  0  0  0  0  0  0  0  0  0
   62.3270   33.4630   46.8270 C   0  0  0  0  0  0  0  0  0  0  0  0
   63.7960   33.0570   47.0530 C   0  0  0  0  0  0  0  0  0  0  0  0
   64.2800   33.5850   48.2720 O   0  0  0  0  0  0  0  0  0  0  0  0
   63.5900   32.9890   49.3580 C   0  0  0  0  0  0  0  0  0  0  0  0
   62.0560   33.0950   49.2070 C   0  0  0  0  0  0  0  0  0  0  0  0
   59.4090   31.4620   47.4570 C   0  0  0  0  0  0  0  0  0  0  0  0
   58.8630   30.3840   46.7350 C   0  0  0  0  0  0  0  0  0  0  0  0
   58.9710   29.0670   47.2150 C   0  0  0  0  0  0  0  0  0  0  0  0
   59.5740   28.8280   48.3000 O   0  0  0  0  0  0  0  0  0  0  0  0
   58.5292   23.9915   47.2679 H   0  0  0  0  0  0  0  0  0  0  0  0
   56.9534   24.0287   48.1327 H   0  0  0  0  0  0  0  0  0  0  0  0
   56.5956   22.5354   46.3149 H   0  0  0  0  0  0  0  0  0  0  0  0
   55.8778   24.0945   45.7683 H   0  0  0  0  0  0  0  0  0  0  0  0
   59.2668   22.3300   44.1573 H   0  0  0  0  0  0  0  0  0  0  0  0
   58.1882   21.6232   45.4420 H   0  0  0  0  0  0  0  0  0  0  0  0
   57.8080   21.7383   42.4536 H   0  0  0  0  0  0  0  0  0  0  0  0
   57.4276   20.4272   43.6320 H   0  0  0  0  0  0  0  0  0  0  0  0
   56.0125   23.3345   41.9901 H   0  0  0  0  0  0  0  0  0  0  0  0
   54.9977   23.6876   43.4657 H   0  0  0  0  0  0  0  0  0  0  0  0
   57.8427   24.3576   42.8956 H   0  0  0  0  0  0  0  0  0  0  0  0
   56.6265   25.1523   43.9794 H   0  0  0  0  0  0  0  0  0  0  0  0
   57.2883   27.4609   44.7316 H   0  0  0  0  0  0  0  0  0  0  0  0
   57.2646   30.6823   43.0473 H   0  0  0  0  0  0  0  0  0  0  0  0
   57.1826   28.8881   42.8560 H   0  0  0  0  0  0  0  0  0  0  0  0
   55.0747   30.8103   43.6383 H   0  0  0  0  0  0  0  0  0  0  0  0
   54.9358   29.1393   42.9948 H   0  0  0  0  0  0  0  0  0  0  0  0
   55.2140   30.0870   45.6310 H   0  0  0  0  0  0  0  0  0  0  0  0
   57.5875   32.1692   44.0927 H   0  0  0  0  0  0  0  0  0  0  0  0
   58.5562   34.0424   45.3985 H   0  0  0  0  0  0  0  0  0  0  0  0
   61.7606   32.5860   46.4805 H   0  0  0  0  0  0  0  0  0  0  0  0
   62.2966   34.2637   46.0734 H   0  0  0  0  0  0  0  0  0  0  0  0
   63.8667   31.9597   47.0817 H   0  0  0  0  0  0  0  0  0  0  0  0
   64.4039   33.4579   46.2285 H   0  0  0  0  0  0  0  0  0  0  0  0
   63.8675   31.9260   49.4128 H   0  0  0  0  0  0  0  0  0  0  0  0
   63.8760   33.5265   50.2741 H   0  0  0  0  0  0  0  0  0  0  0  0
   61.6368   32.0929   49.0338 H   0  0  0  0  0  0  0  0  0  0  0  0
   61.6311   33.5229   50.1270 H   0  0  0  0  0  0  0  0  0  0  0  0
   59.9299   31.2706   48.4067 H   0  0  0  0  0  0  0  0  0  0  0  0
  1  2  2  0
  2  3  1  0
  3  4  1  0
  4  5  1  0
  5  6  1  0
  6  7  1  0
  7  8  1  0
  8  9  1  0
  9 10  1  0
 10 11  1  0
  2 12  1  0
 12 13  2  0
 13 14  1  0
 14 15  1  0
 15 16  1  0
 16 17  1  0
 14 18  1  0
 18 19  2  0
 19 20  1  0
 20 21  2  0
 21 22  1  0
 22 23  2  0
 22 24  2  0
 22 25  1  0
 25 26  1  0
 26 27  1  0
 27 28  1  0
 28 29  1  0
 29 30  1  0
 21 31  1  0
 31 32  2  0
 32 33  1  0
 33 34  2  0
 11  6  1  0
 33 12  1  0
 32 18  1  0
 30 25  1  0
  4 35  1  0
  4 36  1  0
  5 37  1  0
  5 38  1  0
  7 39  1  0
  7 40  1  0
  8 41  1  0
  8 42  1  0
 10 43  1  0
 10 44  1  0
 11 45  1  0
 11 46  1  0
 13 47  1  0
 15 48  1  0
 15 49  1  0
 16 50  1  0
 16 51  1  0
 17 52  1  0
 19 53  1  0
 20 54  1  0
 26 55  1  0
 26 56  1  0
 27 57  1  0
 27 58  1  0
 29 59  1  0
 29 60  1  0
 30 61  1  0
 30 62  1  0
 31 63  1  0
M  CHG  1   3  -1
M  END
>  <UniqueID>  (23) 
21

>  <SMILES>  (23) 
O=C([N-]CCN1CCOCC1)c1cn(CCO)c2ccc(S(=O)(=O)N3CCOCC3)cc2c1=O

>  <Energy>  (23) 
94.07571115346678

>  <Genealogy>  (23) 
O=C([N-]CCN1CCOCC1)c1cn(CCO)c2ccc(S(=O)(=O)N3CCOCC3)cc2c1=O (protonated)
O=C([N-]CCN1CCOCC1)c1cn(CCO)c2ccc(S(=O)(=O)N3CCOCC3)cc2c1=O (3D coordinates assigned)
O=C([N-]CCN1CCOCC1)c1cn(CCO)c2ccc(S(=O)(=O)N3CCOCC3)cc2c1=O (nonaromatic ring conformer: 94.07571115346678 kcal/mol)

>  <smiles>  (23) 
O=C(NCCN1CCOCC1)c1cn(CCO)c2ccc(S(=O)(=O)N3CCOCC3)cc2c1=O

>  <score_type>  (23) 
oracle

>  <origin>  (23) 
adg

>  <m_score__min__energy>  (23) 
-12.08

>  <m_primary>  (23) 
energy

$$$$
23:0
     RDKit          3D

 46 47  0  0  0  0  0  0  0  0999 V2000
   55.6960   24.0240   44.5640 C   0  0  0  0  0  0  0  0  0  0  0  0
   54.8170   24.6570   45.6310 C   0  0  0  0  0  0  0  0  0  0  0  0
   55.5730   25.6060   46.3520 O   0  0  0  0  0  0  0  0  0  0  0  0
   56.9210   25.1900   46.4100 C   0  0  0  0  0  0  0  0  0  0  0  0
   57.7670   26.3210   46.9920 C   0  0  0  0  0  0  0  0  0  0  0  0
   57.8820   27.4320   46.0220 N   0  0  0  0  0  0  0  0  0  0  0  0
   57.6970   26.9680   44.6390 C   0  0  0  0  0  0  0  0  0  0  0  0
   57.5430   28.1780   43.6990 C   0  0  0  0  0  0  0  0  0  0  0  0
   58.3240   29.3690   44.1310 N   0  0  0  0  0  0  0  0  0  0  0  0
   57.4860   30.3430   44.8110 C   0  0  0  0  0  0  0  0  0  0  0  0
   56.3260   30.0220   45.1930 O   0  0  0  0  0  0  0  0  0  0  0  0
   57.9210   31.7510   44.9900 C   0  0  0  0  0  0  0  0  0  0  0  0
   57.8670   32.3140   46.2770 C   0  0  0  0  0  0  0  0  0  0  0  0
   58.2540   33.6380   46.4910 C   0  0  0  0  0  0  0  0  0  0  0  0
   58.1860   34.1700   47.7370 F   0  0  0  0  0  0  0  0  0  0  0  0
   58.7070   34.4130   45.4260 C   0  0  0  0  0  0  0  0  0  0  0  0
   58.7860   33.8660   44.1440 C   0  0  0  0  0  0  0  0  0  0  0  0
   58.4060   32.5280   43.9120 C   0  0  0  0  0  0  0  0  0  0  0  0
   58.5230   31.9440   42.6400 O   0  0  0  0  0  0  0  0  0  0  0  0
   57.7790   32.3400   41.4930 C   0  0  0  0  0  0  0  0  0  0  0  0
   59.5130   29.0160   44.9410 C   0  0  0  0  0  0  0  0  0  0  0  0
   59.1820   28.1190   46.1580 C   0  0  0  0  0  0  0  0  0  0  0  0
   56.4986   23.4460   45.0455 H   0  0  0  0  0  0  0  0  0  0  0  0
   55.0878   23.3552   43.9373 H   0  0  0  0  0  0  0  0  0  0  0  0
   56.1375   24.8128   43.9373 H   0  0  0  0  0  0  0  0  0  0  0  0
   53.9600   25.1550   45.1539 H   0  0  0  0  0  0  0  0  0  0  0  0
   54.4497   23.8791   46.3165 H   0  0  0  0  0  0  0  0  0  0  0  0
   57.0048   24.2998   47.0507 H   0  0  0  0  0  0  0  0  0  0  0  0
   57.2770   24.9426   45.3990 H   0  0  0  0  0  0  0  0  0  0  0  0
   57.2924   26.6915   47.9126 H   0  0  0  0  0  0  0  0  0  0  0  0
   58.7732   25.9357   47.2135 H   0  0  0  0  0  0  0  0  0  0  0  0
   58.5721   26.3763   44.3322 H   0  0  0  0  0  0  0  0  0  0  0  0
   56.7911   26.3466   44.5825 H   0  0  0  0  0  0  0  0  0  0  0  0
   57.8829   27.8843   42.6949 H   0  0  0  0  0  0  0  0  0  0  0  0
   56.4812   28.4651   43.7128 H   0  0  0  0  0  0  0  0  0  0  0  0
   58.6820   29.8120   43.2520 H   0  0  0  0  0  0  0  0  0  0  0  0
   57.5164   31.7053   47.1235 H   0  0  0  0  0  0  0  0  0  0  0  0
   59.0033   35.4587   45.5955 H   0  0  0  0  0  0  0  0  0  0  0  0
   59.1474   34.4835   43.3085 H   0  0  0  0  0  0  0  0  0  0  0  0
   56.8496   32.8347   41.8116 H   0  0  0  0  0  0  0  0  0  0  0  0
   58.3782   33.0385   40.8905 H   0  0  0  0  0  0  0  0  0  0  0  0
   57.5342   31.4528   40.8905 H   0  0  0  0  0  0  0  0  0  0  0  0
   60.2273   28.4814   44.2976 H   0  0  0  0  0  0  0  0  0  0  0  0
   59.9299   29.9554   45.3332 H   0  0  0  0  0  0  0  0  0  0  0  0
   59.9719   27.3605   46.2614 H   0  0  0  0  0  0  0  0  0  0  0  0
   59.1238   28.7686   47.0438 H   0  0  0  0  0  0  0  0  0  0  0  0
  1  2  1  0
  2  3  1  0
  3  4  1  0
  4  5  1  0
  5  6  1  0
  6  7  1  0
  7  8  1  0
  8  9  1  0
  9 10  1  0
 10 11  2  0
 10 12  1  0
 12 13  2  0
 13 14  1  0
 14 15  1  0
 14 16  2  0
 16 17  1  0
 17 18  2  0
 18 19  1  0
 19 20  1  0
  9 21  1  0
 21 22  1  0
 22  6  1  0
 18 12  1  0
  1 23  1  0
  1 24  1  0
  1 25  1  0
  2 26  1  0
  2 27  1  0
  4 28  1  0
  4 29  1  0
  5 30  1  0
  5 31  1  0
  7 32  1  0
  7 33  1  0
  8 34  1  0
  8 35  1  0
  9 36  1  0
 13 37  1  0
 16 38  1  0
 17 39  1  0
 20 40  1  0
 20 41  1  0
 20 42  1  0
 21 43  1  0
 21 44  1  0
 22 45  1  0
 22 46  1  0
M  CHG  1   9   1
M  END
>  <UniqueID>  (24) 
22

>  <SMILES>  (24) 
CCOCCN1CC[NH+](C(=O)c2cc(F)ccc2OC)CC1

>  <Energy>  (24) 
59.7452475518494

>  <Genealogy>  (24) 
CCOCCN1CC[NH+](C(=O)c2cc(F)ccc2OC)CC1 (protonated)
CCOCCN1CC[NH+](C(=O)c2cc(F)ccc2OC)CC1 (3D coordinates assigned)
CCOCCN1CC[NH+](C(=O)c2cc(F)ccc2OC)CC1 (nonaromatic ring conformer: 59.7452475518494 kcal/mol)

>  <smiles>  (24) 
CCOCCN1CCN(C(=O)c2cc(F)ccc2OC)CC1

>  <score_type>  (24) 
oracle

>  <origin>  (24) 
adg

>  <m_score__min__energy>  (24) 
-5.4199999999999999

>  <m_primary>  (24) 
energy

$$$$
24:0
     RDKit          3D

 60 63  0  0  0  0  0  0  0  0999 V2000
   55.4540   23.8890   44.5450 C   0  0  0  0  0  0  0  0  0  0  0  0
   55.2400   24.7930   45.6230 O   0  0  0  0  0  0  0  0  0  0  0  0
   56.1960   25.7090   46.0880 C   0  0  0  0  0  0  0  0  0  0  0  0
   57.1260   25.2710   47.0520 C   0  0  0  0  0  0  0  0  0  0  0  0
   58.1070   26.1390   47.5590 C   0  0  0  0  0  0  0  0  0  0  0  0
   58.1800   27.4430   47.0520 C   0  0  0  0  0  0  0  0  0  0  0  0
   57.2330   27.8850   46.1420 C   0  0  0  0  0  0  0  0  0  0  0  0
   56.2410   27.0470   45.6360 C   0  0  0  0  0  0  0  0  0  0  0  0
   57.4130   29.3120   45.9380 C   0  0  0  0  0  0  0  0  0  0  0  0
   56.7320   30.0500   45.1770 O   0  0  0  0  0  0  0  0  0  0  0  0
   58.5290   29.7200   46.7880 C   0  0  0  0  0  0  0  0  0  0  0  0
   59.0700   30.9830   46.9980 C   0  0  0  0  0  0  0  0  0  0  0  0
   58.4790   32.1070   46.3360 N   0  0  0  0  0  0  0  0  0  0  0  0
   58.4830   32.1910   44.8750 C   0  0  0  0  0  0  0  0  0  0  0  0
   58.2470   33.5830   44.4400 N   0  0  0  0  0  0  0  0  0  0  0  0
   59.4000   34.4360   44.7700 C   0  0  0  0  0  0  0  0  0  0  0  0
   57.0380   34.1190   45.0850 C   0  0  0  0  0  0  0  0  0  0  0  0
   60.1650   31.1060   47.8990 C   0  0  0  0  0  0  0  0  0  0  0  0
   60.7630   32.3660   48.1960 C   0  0  0  0  0  0  0  0  0  0  0  0
   60.2730   33.5200   47.5550 O   0  0  0  0  0  0  0  0  0  0  0  0
   59.6150   34.6150   48.1880 C   0  0  0  0  0  0  0  0  0  0  0  0
   61.8360   32.4270   49.1180 C   0  0  0  0  0  0  0  0  0  0  0  0
   62.5700   33.6400   49.3420 N   0  0  0  0  0  0  0  0  0  0  0  0
   63.3600   34.1800   48.2380 C   0  0  0  0  0  0  0  0  0  0  0  0
   62.9400   34.0060   50.7090 C   0  0  0  0  0  0  0  0  0  0  0  0
   62.2550   31.2740   49.7800 C   0  0  0  0  0  0  0  0  0  0  0  0
   61.6790   30.0430   49.5030 C   0  0  0  0  0  0  0  0  0  0  0  0
   60.6690   29.9130   48.5290 C   0  0  0  0  0  0  0  0  0  0  0  0
   60.1570   28.6650   48.1970 N   0  0  0  0  0  0  0  0  0  0  0  0
   60.8460   27.4230   48.5850 C   0  0  0  0  0  0  0  0  0  0  0  0
   59.0280   28.6030   47.4250 C   0  0  0  0  0  0  0  0  0  0  0  0
   55.6901   22.8916   44.9443 H   0  0  0  0  0  0  0  0  0  0  0  0
   54.5447   23.8314   43.9287 H   0  0  0  0  0  0  0  0  0  0  0  0
   56.2926   24.2452   43.9287 H   0  0  0  0  0  0  0  0  0  0  0  0
   57.0830   24.2329   47.4131 H   0  0  0  0  0  0  0  0  0  0  0  0
   58.8048   25.8013   48.3394 H   0  0  0  0  0  0  0  0  0  0  0  0
   55.5105   27.4184   44.9022 H   0  0  0  0  0  0  0  0  0  0  0  0
   58.2800   32.9570   46.9090 H   0  0  0  0  0  0  0  0  0  0  0  0
   59.4582   31.8526   44.4949 H   0  0  0  0  0  0  0  0  0  0  0  0
   57.6808   31.5516   44.4780 H   0  0  0  0  0  0  0  0  0  0  0  0
   59.5003   34.5102   45.8629 H   0  0  0  0  0  0  0  0  0  0  0  0
   60.3149   33.9956   44.3469 H   0  0  0  0  0  0  0  0  0  0  0  0
   59.2466   35.4397   44.3469 H   0  0  0  0  0  0  0  0  0  0  0  0
   57.1523   34.0683   46.1779 H   0  0  0  0  0  0  0  0  0  0  0  0
   56.8929   35.1658   44.7797 H   0  0  0  0  0  0  0  0  0  0  0  0
   56.1649   33.5236   44.7797 H   0  0  0  0  0  0  0  0  0  0  0  0
   59.6829   34.5019   49.2801 H   0  0  0  0  0  0  0  0  0  0  0  0
   60.0970   35.5566   47.8862 H   0  0  0  0  0  0  0  0  0  0  0  0
   58.5574   34.6313   47.8862 H   0  0  0  0  0  0  0  0  0  0  0  0
   64.2052   34.7578   48.6402 H   0  0  0  0  0  0  0  0  0  0  0  0
   63.7416   33.3529   47.6213 H   0  0  0  0  0  0  0  0  0  0  0  0
   62.7279   34.8359   47.6213 H   0  0  0  0  0  0  0  0  0  0  0  0
   62.3437   33.4161   51.4207 H   0  0  0  0  0  0  0  0  0  0  0  0
   64.0089   33.8000   50.8672 H   0  0  0  0  0  0  0  0  0  0  0  0
   62.7457   35.0771   50.8672 H   0  0  0  0  0  0  0  0  0  0  0  0
   63.0540   31.3414   50.5330 H   0  0  0  0  0  0  0  0  0  0  0  0
   62.0166   29.1524   50.0534 H   0  0  0  0  0  0  0  0  0  0  0  0
   60.8850   27.3527   49.6821 H   0  0  0  0  0  0  0  0  0  0  0  0
   60.2985   26.5585   48.1814 H   0  0  0  0  0  0  0  0  0  0  0  0
   61.8693   27.4299   48.1814 H   0  0  0  0  0  0  0  0  0  0  0  0
  1  2  1  0
  2  3  1  0
  3  4  2  0
  4  5  1  0
  5  6  2  0
  6  7  1  0
  7  8  2  0
  7  9  1  0
  9 10  2  0
  9 11  1  0
 11 12  2  0
 12 13  1  0
 13 14  1  0
 14 15  1  0
 15 16  1  0
 15 17  1  0
 12 18  1  0
 18 19  2  0
 19 20  1  0
 20 21  1  0
 19 22  1  0
 22 23  1  0
 23 24  1  0
 23 25  1  0
 22 26  2  0
 26 27  1  0
 27 28  2  0
 28 29  1  0
 29 30  1  0
 29 31  2  0
  8  3  1  0
 31 11  1  0
 31  6  1  0
 28 18  1  0
  1 32  1  0
  1 33  1  0
  1 34  1  0
  4 35  1  0
  5 36  1  0
  8 37  1  0
 13 38  1  0
 14 39  1  0
 14 40  1  0
 16 41  1  0
 16 42  1  0
 16 43  1  0
 17 44  1  0
 17 45  1  0
 17 46  1  0
 21 47  1  0
 21 48  1  0
 21 49  1  0
 24 50  1  0
 24 51  1  0
 24 52  1  0
 25 53  1  0
 25 54  1  0
 25 55  1  0
 26 56  1  0
 27 57  1  0
 30 58  1  0
 30 59  1  0
 30 60  1  0
M  CHG  1  29   1
M  END
>  <UniqueID>  (25) 
23

>  <SMILES>  (25) 
COc1ccc2c(c1)C(=O)c1c(NCN(C)C)c3c(OC)c(N(C)C)ccc3[n+](C)c1-2

>  <Energy>  (25) 
127.81954162156056

>  <Genealogy>  (25) 
COc1ccc2c(c1)C(=O)c1c(NCN(C)C)c3c(OC)c(N(C)C)ccc3[n+](C)c1-2 (3D coordinates assigned)
COc1ccc2c(c1)C(=O)c1c(NCN(C)C)c3c(OC)c(N(C)C)ccc3[n+](C)c1-2 (nonaromatic ring conformer: 127.81954162156056 kcal/mol)

>  <smiles>  (25) 
COc1ccc2c(c1)C(=O)c1c(NCN(C)C)c3c(OC)c(N(C)C)ccc3[n+](C)c1-2

>  <score_type>  (25) 
oracle

>  <origin>  (25) 
adg

>  <m_score__min__energy>  (25) 
-5.5300000000000002

>  <m_primary>  (25) 
energy

$$$$
25:0
     RDKit          3D

 43 45  0  0  0  0  0  0  0  0999 V2000
   57.0430   34.5650   44.8770 C   0  0  0  0  0  0  0  0  0  0  0  0
   58.0110   33.6250   45.4650 N   0  0  0  0  0  0  0  0  0  0  0  0
   58.2500   32.4440   44.6000 C   0  0  0  0  0  0  0  0  0  0  0  0
   56.9880   31.6190   44.2760 C   0  0  0  0  0  0  0  0  0  0  0  0
   56.9670   30.4210   45.0520 O   0  0  0  0  0  0  0  0  0  0  0  0
   58.0970   29.7470   45.5420 C   0  0  0  0  0  0  0  0  0  0  0  0
   58.7710   28.8740   44.6790 C   0  0  0  0  0  0  0  0  0  0  0  0
   59.9030   28.1780   45.1150 C   0  0  0  0  0  0  0  0  0  0  0  0
   60.3700   28.3470   46.4200 C   0  0  0  0  0  0  0  0  0  0  0  0
   59.7050   29.2130   47.2940 C   0  0  0  0  0  0  0  0  0  0  0  0
   60.2910   29.4260   48.9340 Cl  0  0  0  0  0  0  0  0  0  0  0  0
   58.5710   29.9110   46.8610 C   0  0  0  0  0  0  0  0  0  0  0  0
   59.2400   34.3250   45.8940 C   0  0  0  0  0  0  0  0  0  0  0  0
   59.7930   33.7290   47.1730 C   0  0  0  0  0  0  0  0  0  0  0  0
   58.8980   33.3910   48.1980 C   0  0  0  0  0  0  0  0  0  0  0  0
   59.3740   32.8610   49.3950 C   0  0  0  0  0  0  0  0  0  0  0  0
   60.7050   32.6680   49.5830 N   0  0  0  0  0  0  0  0  0  0  0  0
   61.6140   32.9820   48.6160 C   0  0  0  0  0  0  0  0  0  0  0  0
   62.9830   32.7700   48.8460 C   0  0  0  0  0  0  0  0  0  0  0  0
   63.9210   33.0890   47.8640 C   0  0  0  0  0  0  0  0  0  0  0  0
   63.5030   33.6200   46.6440 C   0  0  0  0  0  0  0  0  0  0  0  0
   62.1470   33.8370   46.3970 C   0  0  0  0  0  0  0  0  0  0  0  0
   61.1810   33.5240   47.3770 C   0  0  0  0  0  0  0  0  0  0  0  0
   56.5046   35.0878   45.6813 H   0  0  0  0  0  0  0  0  0  0  0  0
   57.5762   35.2992   44.2551 H   0  0  0  0  0  0  0  0  0  0  0  0
   56.3248   34.0105   44.2551 H   0  0  0  0  0  0  0  0  0  0  0  0
   58.6829   32.7953   43.6518 H   0  0  0  0  0  0  0  0  0  0  0  0
   58.9221   31.7779   45.1609 H   0  0  0  0  0  0  0  0  0  0  0  0
   56.0942   32.2170   44.5073 H   0  0  0  0  0  0  0  0  0  0  0  0
   56.9979   31.3539   43.2085 H   0  0  0  0  0  0  0  0  0  0  0  0
   58.4073   28.7346   43.6503 H   0  0  0  0  0  0  0  0  0  0  0  0
   60.4264   27.4962   44.4286 H   0  0  0  0  0  0  0  0  0  0  0  0
   61.2609   27.7990   46.7606 H   0  0  0  0  0  0  0  0  0  0  0  0
   58.0480   30.5893   47.5512 H   0  0  0  0  0  0  0  0  0  0  0  0
   59.9975   34.2383   45.1011 H   0  0  0  0  0  0  0  0  0  0  0  0
   58.9923   35.3804   46.0806 H   0  0  0  0  0  0  0  0  0  0  0  0
   57.8180   33.5446   48.0566 H   0  0  0  0  0  0  0  0  0  0  0  0
   58.6661   32.5967   50.1944 H   0  0  0  0  0  0  0  0  0  0  0  0
   61.0230   32.2700   50.4960 H   0  0  0  0  0  0  0  0  0  0  0  0
   63.3176   32.3500   49.8060 H   0  0  0  0  0  0  0  0  0  0  0  0
   64.9918   32.9215   48.0521 H   0  0  0  0  0  0  0  0  0  0  0  0
   64.2463   33.8691   45.8724 H   0  0  0  0  0  0  0  0  0  0  0  0
   61.8284   34.2553   45.4308 H   0  0  0  0  0  0  0  0  0  0  0  0
  1  2  1  0
  2  3  1  0
  3  4  1  0
  4  5  1  0
  5  6  1  0
  6  7  2  0
  7  8  1  0
  8  9  2  0
  9 10  1  0
 10 11  1  0
 10 12  2  0
  2 13  1  0
 13 14  1  0
 14 15  2  0
 15 16  1  0
 16 17  2  0
 17 18  1  0
 18 19  2  0
 19 20  1  0
 20 21  2  0
 21 22  1  0
 22 23  2  0
 12  6  1  0
 23 14  1  0
 23 18  1  0
  1 24  1  0
  1 25  1  0
  1 26  1  0
  3 27  1  0
  3 28  1  0
  4 29  1  0
  4 30  1  0
  7 31  1  0
  8 32  1  0
  9 33  1  0
 12 34  1  0
 13 35  1  0
 13 36  1  0
 15 37  1  0
 16 38  1  0
 17 39  1  0
 19 40  1  0
 20 41  1  0
 21 42  1  0
 22 43  1  0
M  CHG  1  17   1
M  END
>  <UniqueID>  (26) 
24

>  <SMILES>  (26) 
CN(CCOc1cccc(Cl)c1)Cc1cc[nH+]c2ccccc12

>  <Energy>  (26) 
52.94867811966308

>  <Genealogy>  (26) 
CN(CCOc1cccc(Cl)c1)Cc1cc[nH+]c2ccccc12 (protonated)
CN(CCOc1cccc(Cl)c1)Cc1cc[nH+]c2ccccc12 (3D coordinates assigned)
CN(CCOc1cccc(Cl)c1)Cc1cc[nH+]c2ccccc12 (optimized conformer: 52.94867811966308 kcal/mol)

>  <smiles>  (26) 
CN(CCOc1cccc(Cl)c1)Cc1ccnc2ccccc12

>  <score_type>  (26) 
oracle

>  <origin>  (26) 
adg

>  <m_score__min__energy>  (26) 
-6.2999999999999998

>  <m_primary>  (26) 
energy

$$$$
26:0
     RDKit          3D

 37 39  0  0  0  0  0  0  0  0999 V2000
   57.7570   32.7530   43.6240 C   0  0  0  0  0  0  0  0  0  0  0  0
   57.2800   33.8460   44.5750 C   0  0  0  0  0  0  0  0  0  0  0  0
   58.4160   34.5010   45.2220 N   0  0  0  0  0  0  0  0  0  0  0  0
   59.4320   33.8210   45.9880 C   0  0  0  0  0  0  0  0  0  0  0  0
   60.5880   34.4980   46.4680 C   0  0  0  0  0  0  0  0  0  0  0  0
   61.5520   33.8180   47.2310 C   0  0  0  0  0  0  0  0  0  0  0  0
   61.3460   32.4670   47.4930 C   0  0  0  0  0  0  0  0  0  0  0  0
   62.0860   31.5660   48.2300 C   0  0  0  0  0  0  0  0  0  0  0  0
   63.3190   31.8140   48.9250 C   0  0  0  0  0  0  0  0  0  0  0  0
   64.3130   32.0150   49.4850 N   0  0  0  0  0  0  0  0  0  0  0  0
   61.3940   30.3640   48.1820 C   0  0  0  0  0  0  0  0  0  0  0  0
   60.2710   30.5050   47.4350 N   0  0  0  0  0  0  0  0  0  0  0  0
   59.3220   29.4620   47.1500 C   0  0  0  0  0  0  0  0  0  0  0  0
   58.3320   29.6590   46.1750 C   0  0  0  0  0  0  0  0  0  0  0  0
   57.3970   28.6570   45.9040 C   0  0  0  0  0  0  0  0  0  0  0  0
   57.4270   27.4430   46.6120 C   0  0  0  0  0  0  0  0  0  0  0  0
   56.4350   26.3840   46.3220 C   0  0  0  0  0  0  0  0  0  0  0  0
   56.7640   25.1690   46.3680 O   0  0  0  0  0  0  0  0  0  0  0  0
   55.1260   26.7150   45.9940 O   0  0  0  0  0  0  0  0  0  0  0  0
   58.4100   27.2550   47.6000 C   0  0  0  0  0  0  0  0  0  0  0  0
   59.3450   28.2590   47.8690 C   0  0  0  0  0  0  0  0  0  0  0  0
   60.2460   31.7940   47.0240 C   0  0  0  0  0  0  0  0  0  0  0  0
   59.2570   32.4510   46.2850 C   0  0  0  0  0  0  0  0  0  0  0  0
   58.1303   31.8976   44.2062 H   0  0  0  0  0  0  0  0  0  0  0  0
   56.9192   32.4273   42.9900 H   0  0  0  0  0  0  0  0  0  0  0  0
   58.5655   33.1458   42.9900 H   0  0  0  0  0  0  0  0  0  0  0  0
   56.7075   34.5941   44.0070 H   0  0  0  0  0  0  0  0  0  0  0  0
   56.6474   33.3887   45.3501 H   0  0  0  0  0  0  0  0  0  0  0  0
   58.4930   35.5380   45.1100 H   0  0  0  0  0  0  0  0  0  0  0  0
   60.7283   35.5648   46.2393 H   0  0  0  0  0  0  0  0  0  0  0  0
   62.4438   34.3385   47.6103 H   0  0  0  0  0  0  0  0  0  0  0  0
   61.7099   29.4338   48.6770 H   0  0  0  0  0  0  0  0  0  0  0  0
   58.2920   30.6083   45.6207 H   0  0  0  0  0  0  0  0  0  0  0  0
   56.6316   28.8192   45.1308 H   0  0  0  0  0  0  0  0  0  0  0  0
   58.4434   26.3117   48.1649 H   0  0  0  0  0  0  0  0  0  0  0  0
   60.1038   28.1038   48.6501 H   0  0  0  0  0  0  0  0  0  0  0  0
   58.3614   31.9122   45.9421 H   0  0  0  0  0  0  0  0  0  0  0  0
  1  2  1  0
  2  3  1  0
  3  4  1  0
  4  5  2  0
  5  6  1  0
  6  7  2  0
  7  8  1  0
  8  9  1  0
  9 10  3  0
  8 11  2  0
 11 12  1  0
 12 13  1  0
 13 14  2  0
 14 15  1  0
 15 16  2  0
 16 17  1  0
 17 18  2  0
 17 19  1  0
 16 20  1  0
 20 21  2  0
 12 22  1  0
 22 23  2  0
 23  4  1  0
 22  7  1  0
 21 13  1  0
  1 24  1  0
  1 25  1  0
  1 26  1  0
  2 27  1  0
  2 28  1  0
  3 29  1  0
  5 30  1  0
  6 31  1  0
 11 32  1  0
 14 33  1  0
 15 34  1  0
 20 35  1  0
 21 36  1  0
 23 37  1  0
M  CHG  1  19  -1
M  END
>  <UniqueID>  (27) 
25

>  <SMILES>  (27) 
CCNc1ccc2c(C#N)cn(-c3ccc(C(=O)[O-])cc3)c2c1

>  <Energy>  (27) 
76.45645138684056

>  <Genealogy>  (27) 
CCNc1ccc2c(C#N)cn(-c3ccc(C(=O)[O-])cc3)c2c1 (protonated)
CCNc1ccc2c(C#N)cn(-c3ccc(C(=O)[O-])cc3)c2c1 (3D coordinates assigned)
CCNc1ccc2c(C#N)cn(-c3ccc(C(=O)[O-])cc3)c2c1 (optimized conformer: 76.45645138684056 kcal/mol)

>  <smiles>  (27) 
CCNc1ccc2c(C#N)cn(-c3ccc(C(=O)O)cc3)c2c1

>  <score_type>  (27) 
oracle

>  <origin>  (27) 
adg

>  <m_score__min__energy>  (27) 
-9.0899999999999999

>  <m_primary>  (27) 
energy

$$$$
27:0
     RDKit          3D

 59 62  0  0  0  0  0  0  0  0999 V2000
   63.9270   32.9930   49.4970 C   0  0  0  0  0  0  0  0  0  0  0  0
   63.7140   31.9950   48.3580 C   0  0  0  0  0  0  0  0  0  0  0  0
   62.9560   32.5900   47.1550 C   0  0  0  0  0  0  0  0  0  0  0  0
   62.0870   33.8440   47.4320 C   0  0  0  0  0  0  0  0  0  0  0  0
   60.6070   33.6820   47.3460 N   0  0  1  0  0  0  0  0  0  0  0  0
   59.8430   34.5380   48.3040 C   0  0  0  0  0  0  0  0  0  0  0  0
   59.9390   34.1380   49.7870 C   0  0  0  0  0  0  0  0  0  0  0  0
   60.0980   33.6660   45.9490 C   0  0  0  0  0  0  0  0  0  0  0  0
   58.6080   34.0480   45.8640 C   0  0  0  0  0  0  0  0  0  0  0  0
   57.7720   32.9370   46.3170 N   0  0  0  0  0  0  0  0  0  0  0  0
   58.1960   31.5680   46.2090 C   0  0  0  0  0  0  0  0  0  0  0  0
   57.8250   30.7570   45.1110 C   0  0  0  0  0  0  0  0  0  0  0  0
   56.9890   31.2610   44.0950 C   0  0  0  0  0  0  0  0  0  0  0  0
   56.5740   30.4430   43.0470 C   0  0  0  0  0  0  0  0  0  0  0  0
   56.9650   29.1100   43.0020 C   0  0  0  0  0  0  0  0  0  0  0  0
   57.7900   28.5810   43.9940 C   0  0  0  0  0  0  0  0  0  0  0  0
   58.2640   29.3890   45.0560 C   0  0  0  0  0  0  0  0  0  0  0  0
   59.0990   28.8810   46.0440 N   0  0  0  0  0  0  0  0  0  0  0  0
   59.7790   27.5840   45.8970 C   0  0  0  0  0  0  0  0  0  0  0  0
   59.3300   29.6580   47.1490 C   0  0  0  0  0  0  0  0  0  0  0  0
   58.9290   30.9730   47.2270 C   0  0  0  0  0  0  0  0  0  0  0  0
   59.3230   31.5280   48.3520 O   0  0  0  0  0  0  0  0  0  0  0  0
   59.9490   30.5990   49.0390 C   0  0  0  0  0  0  0  0  0  0  0  0
   60.5030   30.7350   50.3090 C   0  0  0  0  0  0  0  0  0  0  0  0
   61.0830   29.6010   50.9010 C   0  0  0  0  0  0  0  0  0  0  0  0
   61.0800   28.3620   50.2260 C   0  0  0  0  0  0  0  0  0  0  0  0
   60.5150   28.2470   48.9420 C   0  0  0  0  0  0  0  0  0  0  0  0
   59.9810   29.4000   48.3520 C   0  0  0  0  0  0  0  0  0  0  0  0
   63.8168   32.4769   50.4621 H   0  0  0  0  0  0  0  0  0  0  0  0
   64.9370   33.4225   49.4241 H   0  0  0  0  0  0  0  0  0  0  0  0
   63.1803   33.7975   49.4241 H   0  0  0  0  0  0  0  0  0  0  0  0
   64.6981   31.6461   48.0118 H   0  0  0  0  0  0  0  0  0  0  0  0
   63.0980   31.1753   48.7561 H   0  0  0  0  0  0  0  0  0  0  0  0
   63.7010   32.8622   46.3929 H   0  0  0  0  0  0  0  0  0  0  0  0
   62.2465   31.8088   46.8446 H   0  0  0  0  0  0  0  0  0  0  0  0
   62.3230   34.1918   48.4485 H   0  0  0  0  0  0  0  0  0  0  0  0
   62.3417   34.5482   46.6263 H   0  0  0  0  0  0  0  0  0  0  0  0
   60.4630   32.7020   47.6960 H   0  0  0  0  0  0  0  0  0  0  0  0
   60.2171   35.5679   48.2079 H   0  0  0  0  0  0  0  0  0  0  0  0
   58.7841   34.4178   48.0313 H   0  0  0  0  0  0  0  0  0  0  0  0
   59.7286   35.0145   50.4175 H   0  0  0  0  0  0  0  0  0  0  0  0
   59.2051   33.3472   50.0017 H   0  0  0  0  0  0  0  0  0  0  0  0
   60.9518   33.7664   50.0017 H   0  0  0  0  0  0  0  0  0  0  0  0
   60.6813   34.3825   45.3520 H   0  0  0  0  0  0  0  0  0  0  0  0
   60.2046   32.6410   45.5643 H   0  0  0  0  0  0  0  0  0  0  0  0
   58.4216   34.9254   46.5007 H   0  0  0  0  0  0  0  0  0  0  0  0
   58.3576   34.2807   44.8185 H   0  0  0  0  0  0  0  0  0  0  0  0
   56.9000   33.1560   46.8500 H   0  0  0  0  0  0  0  0  0  0  0  0
   56.6610   32.3104   44.1299 H   0  0  0  0  0  0  0  0  0  0  0  0
   55.9343   30.8535   42.2518 H   0  0  0  0  0  0  0  0  0  0  0  0
   56.6212   28.4677   42.1779 H   0  0  0  0  0  0  0  0  0  0  0  0
   58.0770   27.5200   43.9509 H   0  0  0  0  0  0  0  0  0  0  0  0
   59.9965   27.1691   46.8923 H   0  0  0  0  0  0  0  0  0  0  0  0
   59.1289   26.8897   45.3444 H   0  0  0  0  0  0  0  0  0  0  0  0
   60.7198   27.7238   45.3444 H   0  0  0  0  0  0  0  0  0  0  0  0
   60.4870   31.7019   50.8333 H   0  0  0  0  0  0  0  0  0  0  0  0
   61.5425   29.6794   51.8973 H   0  0  0  0  0  0  0  0  0  0  0  0
   61.5232   27.4779   50.7076 H   0  0  0  0  0  0  0  0  0  0  0  0
   60.4934   27.2804   48.4173 H   0  0  0  0  0  0  0  0  0  0  0  0
  1  2  1  0
  2  3  1  0
  3  4  1  0
  4  5  1  0
  5  6  1  0
  6  7  1  0
  5  8  1  0
  8  9  1  0
  9 10  1  0
 10 11  1  0
 11 12  2  0
 12 13  1  0
 13 14  2  0
 14 15  1  0
 15 16  2  0
 16 17  1  0
 17 18  2  0
 18 19  1  0
 18 20  1  0
 20 21  2  0
 21 22  1  0
 22 23  1  0
 23 24  2  0
 24 25  1  0
 25 26  2  0
 26 27  1  0
 27 28  2  0
 21 11  1  0
 28 23  1  0
 17 12  1  0
 28 20  1  0
  1 29  1  0
  1 30  1  0
  1 31  1  0
  2 32  1  0
  2 33  1  0
  3 34  1  0
  3 35  1  0
  4 36  1  0
  4 37  1  0
  5 38  1  1
  6 39  1  0
  6 40  1  0
  7 41  1  0
  7 42  1  0
  7 43  1  0
  8 44  1  0
  8 45  1  0
  9 46  1  0
  9 47  1  0
 10 48  1  0
 13 49  1  0
 14 50  1  0
 15 51  1  0
 16 52  1  0
 19 53  1  0
 19 54  1  0
 19 55  1  0
 24 56  1  0
 25 57  1  0
 26 58  1  0
 27 59  1  0
M  CHG  2   5   1  18   1
M  END
>  <UniqueID>  (28) 
26

>  <SMILES>  (28) 
CCCC[N@@H+](CC)CCNc1c2ccccc2[n+](C)c2c1oc1ccccc12

>  <Energy>  (28) 
128.6316605059176

>  <Genealogy>  (28) 
CCCC[NH+](CC)CCNc1c2ccccc2[n+](C)c2c1oc1ccccc12 (protonated)
CCCC[N@@H+](CC)CCNc1c2ccccc2[n+](C)c2c1oc1ccccc12 (chirality)
CCCC[N@@H+](CC)CCNc1c2ccccc2[n+](C)c2c1oc1ccccc12 (3D coordinates assigned)
CCCC[N@@H+](CC)CCNc1c2ccccc2[n+](C)c2c1oc1ccccc12 (optimized conformer: 128.6316605059176 kcal/mol)

>  <smiles>  (28) 
CCCCN(CC)CCNc1c2ccccc2[n+](C)c2c1oc1ccccc12

>  <score_type>  (28) 
oracle

>  <origin>  (28) 
adg

>  <m_score__min__energy>  (28) 
-4.3300000000000001

>  <m_primary>  (28) 
energy

$$$$
28:0
     RDKit          3D

 40 42  0  0  0  0  0  0  0  0999 V2000
   61.6190   29.4690   50.5260 C   0  0  0  0  0  0  0  0  0  0  0  0
   61.5600   30.9540   50.1750 C   0  0  0  0  0  0  0  0  0  0  0  0
   62.3200   31.2350   48.9500 N   0  0  0  0  0  0  0  0  0  0  0  0
   61.9760   31.0170   47.6530 C   0  0  0  0  0  0  0  0  0  0  0  0
   60.7620   30.3280   47.1740 C   0  0  0  0  0  0  0  0  0  0  0  0
   60.7040   29.7030   45.9180 C   0  0  0  0  0  0  0  0  0  0  0  0
   59.4930   29.0790   45.6600 C   0  0  0  0  0  0  0  0  0  0  0  0
   58.5080   29.2810   47.0050 S   0  0  0  0  0  0  0  0  0  0  0  0
   59.6000   30.1680   47.9240 C   0  0  0  0  0  0  0  0  0  0  0  0
   62.8680   31.5720   46.8050 N   0  0  0  0  0  0  0  0  0  0  0  0
   63.7970   32.1340   47.5580 N   0  0  0  0  0  0  0  0  0  0  0  0
   63.4660   31.9430   48.8450 C   0  0  0  0  0  0  0  0  0  0  0  0
   64.4600   32.5550   50.2160 S   0  0  0  0  0  0  0  0  0  0  0  0
   63.3700   33.9480   50.7030 C   0  0  0  0  0  0  0  0  0  0  0  0
   62.6420   34.5940   49.5230 C   0  0  0  0  0  0  0  0  0  0  0  0
   61.2760   34.1900   49.5290 O   0  0  0  0  0  0  0  0  0  0  0  0
   60.5010   33.9620   48.3850 C   0  0  0  0  0  0  0  0  0  0  0  0
   60.9830   34.2020   47.0830 C   0  0  0  0  0  0  0  0  0  0  0  0
   60.1700   33.9400   45.9760 C   0  0  0  0  0  0  0  0  0  0  0  0
   58.8750   33.4420   46.1560 C   0  0  0  0  0  0  0  0  0  0  0  0
   57.7690   33.0810   44.6410 Br  0  0  0  0  0  0  0  0  0  0  0  0
   58.3920   33.2080   47.4470 C   0  0  0  0  0  0  0  0  0  0  0  0
   59.2020   33.4710   48.5550 C   0  0  0  0  0  0  0  0  0  0  0  0
   61.6237   29.3506   51.6196 H   0  0  0  0  0  0  0  0  0  0  0  0
   60.7405   28.9577   50.1056 H   0  0  0  0  0  0  0  0  0  0  0  0
   62.5353   29.0290   50.1056 H   0  0  0  0  0  0  0  0  0  0  0  0
   60.5106   31.2463   50.0225 H   0  0  0  0  0  0  0  0  0  0  0  0
   62.0031   31.5279   51.0022 H   0  0  0  0  0  0  0  0  0  0  0  0
   61.5415   29.7080   45.2049 H   0  0  0  0  0  0  0  0  0  0  0  0
   59.2246   28.5453   44.7364 H   0  0  0  0  0  0  0  0  0  0  0  0
   59.4272   30.5542   48.9394 H   0  0  0  0  0  0  0  0  0  0  0  0
   64.6280   32.6490   47.1920 H   0  0  0  0  0  0  0  0  0  0  0  0
   62.6181   33.5705   51.4116 H   0  0  0  0  0  0  0  0  0  0  0  0
   64.0127   34.7211   51.1494 H   0  0  0  0  0  0  0  0  0  0  0  0
   62.7009   35.6889   49.6108 H   0  0  0  0  0  0  0  0  0  0  0  0
   63.1144   34.2756   48.5820 H   0  0  0  0  0  0  0  0  0  0  0  0
   61.9997   34.5958   46.9373 H   0  0  0  0  0  0  0  0  0  0  0  0
   60.5497   34.1260   44.9605 H   0  0  0  0  0  0  0  0  0  0  0  0
   57.3740   32.8167   47.5906 H   0  0  0  0  0  0  0  0  0  0  0  0
   58.8152   33.2905   49.5688 H   0  0  0  0  0  0  0  0  0  0  0  0
  1  2  1  0
  2  3  1  0
  3  4  1  0
  4  5  1  0
  5  6  1  0
  6  7  2  0
  7  8  1  0
  8  9  1  0
  4 10  2  0
 10 11  1  0
 11 12  2  0
 12 13  1  0
 13 14  1  0
 14 15  1  0
 15 16  1  0
 16 17  1  0
 17 18  2  0
 18 19  1  0
 19 20  2  0
 20 21  1  0
 20 22  1  0
 22 23  2  0
 12  3  1  0
 23 17  1  0
  9  5  2  0
  1 24  1  0
  1 25  1  0
  1 26  1  0
  2 27  1  0
  2 28  1  0
  6 29  1  0
  7 30  1  0
  9 31  1  0
 11 32  1  0
 14 33  1  0
 14 34  1  0
 15 35  1  0
 15 36  1  0
 18 37  1  0
 19 38  1  0
 22 39  1  0
 23 40  1  0
M  CHG  1  11   1
M  END
>  <UniqueID>  (29) 
27

>  <SMILES>  (29) 
CCn1c(-c2ccsc2)n[nH+]c1SCCOc1ccc(Br)cc1

>  <Energy>  (29) 
97.097055725619

>  <Genealogy>  (29) 
CCn1c(-c2ccsc2)n[nH+]c1SCCOc1ccc(Br)cc1 (protonated)
CCn1c(-c2ccsc2)n[nH+]c1SCCOc1ccc(Br)cc1 (3D coordinates assigned)
CCn1c(-c2ccsc2)n[nH+]c1SCCOc1ccc(Br)cc1 (optimized conformer: 97.097055725619 kcal/mol)

>  <smiles>  (29) 
CCn1c(SCCOc2ccc(Br)cc2)nnc1-c1ccsc1

>  <score_type>  (29) 
oracle

>  <origin>  (29) 
adg

>  <m_score__min__energy>  (29) 
-5.8700000000000001

>  <m_primary>  (29) 
energy

$$$$
29:0
     RDKit          3D

 43 44  0  0  0  0  0  0  0  0999 V2000
   57.3940   31.9430   44.1960 C   0  0  0  0  0  0  0  0  0  0  0  0
   56.7480   30.7700   44.8190 N   0  0  0  0  0  0  0  0  0  0  0  0
   55.9510   30.0770   43.7850 C   0  0  0  0  0  0  0  0  0  0  0  0
   57.7380   29.8350   45.4370 C   0  0  0  0  0  0  0  0  0  0  0  0
   57.1850   28.3980   45.5880 C   0  0  0  0  0  0  0  0  0  0  0  0
   58.2100   27.4560   46.2580 C   0  0  0  0  0  0  0  0  0  0  0  0
   59.6280   27.7480   45.9220 N   0  0  0  0  0  0  0  0  0  0  0  0
   60.3680   28.4140   47.0210 C   0  0  0  0  0  0  0  0  0  0  0  0
   59.4820   28.5680   48.2660 C   0  0  0  0  0  0  0  0  0  0  0  0
   59.6890   29.8410   48.8800 O   0  0  0  0  0  0  0  0  0  0  0  0
   59.7440   31.0740   48.2090 C   0  0  0  0  0  0  0  0  0  0  0  0
   58.5380   31.7340   47.9470 C   0  0  0  0  0  0  0  0  0  0  0  0
   58.5290   32.9630   47.2830 C   0  0  0  0  0  0  0  0  0  0  0  0
   59.7280   33.5500   46.8690 C   0  0  0  0  0  0  0  0  0  0  0  0
   59.6720   35.1000   46.0370 Cl  0  0  0  0  0  0  0  0  0  0  0  0
   60.9480   32.8970   47.1240 C   0  0  0  0  0  0  0  0  0  0  0  0
   62.2010   33.4780   46.7100 C   0  0  0  0  0  0  0  0  0  0  0  0
   63.2060   33.9450   46.3770 N   0  0  0  0  0  0  0  0  0  0  0  0
   60.9530   31.6630   47.7900 C   0  0  0  0  0  0  0  0  0  0  0  0
   59.7650   28.4310   44.6210 C   0  0  0  0  0  0  0  0  0  0  0  0
   59.0350   29.7890   44.5830 C   0  0  0  0  0  0  0  0  0  0  0  0
   57.7654   32.6174   44.9816 H   0  0  0  0  0  0  0  0  0  0  0  0
   58.2356   31.6093   43.5712 H   0  0  0  0  0  0  0  0  0  0  0  0
   56.6621   32.4759   43.5712 H   0  0  0  0  0  0  0  0  0  0  0  0
   55.2058   29.4290   44.2696 H   0  0  0  0  0  0  0  0  0  0  0  0
   55.4377   30.8209   43.1580 H   0  0  0  0  0  0  0  0  0  0  0  0
   56.6164   29.4653   43.1580 H   0  0  0  0  0  0  0  0  0  0  0  0
   57.9528   30.2226   46.4438 H   0  0  0  0  0  0  0  0  0  0  0  0
   56.2746   28.4298   46.2046 H   0  0  0  0  0  0  0  0  0  0  0  0
   56.9683   28.0077   44.5826 H   0  0  0  0  0  0  0  0  0  0  0  0
   58.0913   27.5391   47.3484 H   0  0  0  0  0  0  0  0  0  0  0  0
   58.0005   26.4452   45.8780 H   0  0  0  0  0  0  0  0  0  0  0  0
   61.2497   27.8092   47.2794 H   0  0  0  0  0  0  0  0  0  0  0  0
   60.6736   29.4149   46.6820 H   0  0  0  0  0  0  0  0  0  0  0  0
   58.4262   28.4770   47.9711 H   0  0  0  0  0  0  0  0  0  0  0  0
   59.7466   27.7808   48.9873 H   0  0  0  0  0  0  0  0  0  0  0  0
   57.5882   31.2807   48.2670 H   0  0  0  0  0  0  0  0  0  0  0  0
   57.5737   33.4712   47.0850 H   0  0  0  0  0  0  0  0  0  0  0  0
   61.9070   31.1518   47.9865 H   0  0  0  0  0  0  0  0  0  0  0  0
   60.8337   28.6001   44.4229 H   0  0  0  0  0  0  0  0  0  0  0  0
   59.3073   27.7858   43.8567 H   0  0  0  0  0  0  0  0  0  0  0  0
   59.7227   30.5617   44.9571 H   0  0  0  0  0  0  0  0  0  0  0  0
   58.7338   29.9586   43.5387 H   0  0  0  0  0  0  0  0  0  0  0  0
  1  2  1  0
  2  3  1  0
  2  4  1  0
  4  5  1  0
  5  6  1  0
  6  7  1  0
  7  8  1  0
  8  9  1  0
  9 10  1  0
 10 11  1  0
 11 12  2  0
 12 13  1  0
 13 14  2  0
 14 15  1  0
 14 16  1  0
 16 17  1  0
 17 18  3  0
 16 19  2  0
  7 20  1  0
 20 21  1  0
 21  4  1  0
 19 11  1  0
  1 22  1  0
  1 23  1  0
  1 24  1  0
  3 25  1  0
  3 26  1  0
  3 27  1  0
  4 28  1  0
  5 29  1  0
  5 30  1  0
  6 31  1  0
  6 32  1  0
  8 33  1  0
  8 34  1  0
  9 35  1  0
  9 36  1  0
 12 37  1  0
 13 38  1  0
 19 39  1  0
 20 40  1  0
 20 41  1  0
 21 42  1  0
 21 43  1  0
M  END
>  <UniqueID>  (30) 
28

>  <SMILES>  (30) 
CN(C)C1CCN(CCOc2ccc(Cl)c(C#N)c2)CC1

>  <Energy>  (30) 
57.48845510653992

>  <Genealogy>  (30) 
CN(C)C1CCN(CCOc2ccc(Cl)c(C#N)c2)CC1 (3D coordinates assigned)
CN(C)C1CCN(CCOc2ccc(Cl)c(C#N)c2)CC1 (nonaromatic ring conformer: 57.48845510653992 kcal/mol)

>  <smiles>  (30) 
CN(C)C1CCN(CCOc2ccc(Cl)c(C#N)c2)CC1

>  <score_type>  (30) 
oracle

>  <origin>  (30) 
adg

>  <m_score__min__energy>  (30) 
-7.1600000000000001

>  <m_primary>  (30) 
energy

$$$$
30:0
     RDKit          3D

 54 55  0  0  0  0  0  0  0  0999 V2000
   61.1240   30.3870   49.0440 C   0  0  0  0  0  0  0  0  0  0  0  0
   60.4910   29.5690   47.9260 C   0  0  0  0  0  0  0  0  0  0  0  0
   59.9610   30.4840   46.8810 N   0  0  0  0  0  0  0  0  0  0  0  0
   59.3830   29.7450   45.7370 C   0  0  0  0  0  0  0  0  0  0  0  0
   60.4620   28.9500   45.0030 C   0  0  0  0  0  0  0  0  0  0  0  0
   58.9810   31.4420   47.4370 C   0  0  0  0  0  0  0  0  0  0  0  0
   58.8450   32.6490   46.5350 C   0  0  0  0  0  0  0  0  0  0  0  0
   57.7090   32.7760   45.7170 C   0  0  0  0  0  0  0  0  0  0  0  0
   57.5470   33.8950   44.8980 C   0  0  0  0  0  0  0  0  0  0  0  0
   58.5140   34.9010   44.8850 C   0  0  0  0  0  0  0  0  0  0  0  0
   59.6480   34.7920   45.6920 C   0  0  0  0  0  0  0  0  0  0  0  0
   59.8250   33.6720   46.5190 C   0  0  0  0  0  0  0  0  0  0  0  0
   61.0370   33.5940   47.3600 C   0  0  0  0  0  0  0  0  0  0  0  0
   62.2550   33.2470   46.7600 C   0  0  0  0  0  0  0  0  0  0  0  0
   63.4250   33.1930   47.5170 C   0  0  0  0  0  0  0  0  0  0  0  0
   63.3970   33.4720   48.8900 C   0  0  0  0  0  0  0  0  0  0  0  0
   64.6700   33.4150   49.7090 C   0  0  0  0  0  0  0  0  0  0  0  0
   65.1920   32.0420   49.9170 N   0  0  0  0  0  0  0  0  0  0  0  0
   66.5480   32.0370   50.4950 C   0  0  0  0  0  0  0  0  0  0  0  0
   64.2800   31.2090   50.7220 C   0  0  0  0  0  0  0  0  0  0  0  0
   62.1770   33.8130   49.4960 C   0  0  0  0  0  0  0  0  0  0  0  0
   60.9910   33.8700   48.7440 C   0  0  0  0  0  0  0  0  0  0  0  0
   59.6920   34.2110   49.4260 C   0  0  0  0  0  0  0  0  0  0  0  0
   60.8105   29.9819   50.0174 H   0  0  0  0  0  0  0  0  0  0  0  0
   62.2196   30.3353   48.9610 H   0  0  0  0  0  0  0  0  0  0  0  0
   60.7990   31.4346   48.9610 H   0  0  0  0  0  0  0  0  0  0  0  0
   61.2486   28.9060   47.4828 H   0  0  0  0  0  0  0  0  0  0  0  0
   59.6683   28.9642   48.3351 H   0  0  0  0  0  0  0  0  0  0  0  0
   58.6135   29.0517   46.1074 H   0  0  0  0  0  0  0  0  0  0  0  0
   58.9412   30.4692   45.0367 H   0  0  0  0  0  0  0  0  0  0  0  0
   61.1220   28.4637   45.7365 H   0  0  0  0  0  0  0  0  0  0  0  0
   59.9876   28.1839   44.3721 H   0  0  0  0  0  0  0  0  0  0  0  0
   61.0531   29.6301   44.3721 H   0  0  0  0  0  0  0  0  0  0  0  0
   58.0030   30.9467   47.5280 H   0  0  0  0  0  0  0  0  0  0  0  0
   59.3323   31.7754   48.4247 H   0  0  0  0  0  0  0  0  0  0  0  0
   56.9418   31.9877   45.7222 H   0  0  0  0  0  0  0  0  0  0  0  0
   56.6545   33.9839   44.2611 H   0  0  0  0  0  0  0  0  0  0  0  0
   58.3826   35.7809   44.2381 H   0  0  0  0  0  0  0  0  0  0  0  0
   60.4068   35.5882   45.6796 H   0  0  0  0  0  0  0  0  0  0  0  0
   62.2884   33.0158   45.6851 H   0  0  0  0  0  0  0  0  0  0  0  0
   64.3769   32.9295   47.0328 H   0  0  0  0  0  0  0  0  0  0  0  0
   65.4414   34.0037   49.1909 H   0  0  0  0  0  0  0  0  0  0  0  0
   64.4272   33.8175   50.7035 H   0  0  0  0  0  0  0  0  0  0  0  0
   65.2590   31.5970   48.9710 H   0  0  0  0  0  0  0  0  0  0  0  0
   66.4786   32.0373   51.5928 H   0  0  0  0  0  0  0  0  0  0  0  0
   67.0853   31.1369   50.1618 H   0  0  0  0  0  0  0  0  0  0  0  0
   67.0919   32.9331   50.1618 H   0  0  0  0  0  0  0  0  0  0  0  0
   64.4713   31.3837   51.7911 H   0  0  0  0  0  0  0  0  0  0  0  0
   63.2384   31.4740   50.4878 H   0  0  0  0  0  0  0  0  0  0  0  0
   64.4498   30.1477   50.4878 H   0  0  0  0  0  0  0  0  0  0  0  0
   62.1492   34.0382   50.5723 H   0  0  0  0  0  0  0  0  0  0  0  0
   59.8300   34.1748   50.5167 H   0  0  0  0  0  0  0  0  0  0  0  0
   59.3767   35.2223   49.1297 H   0  0  0  0  0  0  0  0  0  0  0  0
   58.9206   33.4849   49.1297 H   0  0  0  0  0  0  0  0  0  0  0  0
  1  2  1  0
  2  3  1  0
  3  4  1  0
  4  5  1  0
  3  6  1  0
  6  7  1  0
  7  8  2  0
  8  9  1  0
  9 10  2  0
 10 11  1  0
 11 12  2  0
 12 13  1  0
 13 14  2  0
 14 15  1  0
 15 16  2  0
 16 17  1  0
 17 18  1  0
 18 19  1  0
 18 20  1  0
 16 21  1  0
 21 22  2  0
 22 23  1  0
 12  7  1  0
 22 13  1  0
  1 24  1  0
  1 25  1  0
  1 26  1  0
  2 27  1  0
  2 28  1  0
  4 29  1  0
  4 30  1  0
  5 31  1  0
  5 32  1  0
  5 33  1  0
  6 34  1  0
  6 35  1  0
  8 36  1  0
  9 37  1  0
 10 38  1  0
 11 39  1  0
 14 40  1  0
 15 41  1  0
 17 42  1  0
 17 43  1  0
 18 44  1  0
 19 45  1  0
 19 46  1  0
 19 47  1  0
 20 48  1  0
 20 49  1  0
 20 50  1  0
 21 51  1  0
 23 52  1  0
 23 53  1  0
 23 54  1  0
M  CHG  1  18   1
M  END
>  <UniqueID>  (31) 
29

>  <SMILES>  (31) 
CCN(CC)Cc1ccccc1-c1ccc(C[NH+](C)C)cc1C

>  <Energy>  (31) 
59.42144617220864

>  <Genealogy>  (31) 
CCN(CC)Cc1ccccc1-c1ccc(C[NH+](C)C)cc1C (protonated)
CCN(CC)Cc1ccccc1-c1ccc(C[NH+](C)C)cc1C (3D coordinates assigned)
CCN(CC)Cc1ccccc1-c1ccc(C[NH+](C)C)cc1C (optimized conformer: 59.42144617220864 kcal/mol)

>  <smiles>  (31) 
CCN(CC)Cc1ccccc1-c1ccc(CN(C)C)cc1C

>  <score_type>  (31) 
oracle

>  <origin>  (31) 
adg

>  <m_score__min__energy>  (31) 
-5.6600000000000001

>  <m_primary>  (31) 
energy

$$$$
31:0
     RDKit          3D

 55 57  0  0  0  0  0  0  0  0999 V2000
   55.2958   31.1741   43.9559 H   0  0  0  0  0  0  0  0  0  0  0  0
   56.0960   30.6160   44.4640 C   0  0  0  0  0  0  0  0  0  0  0  0
   55.9500   29.2900   44.6970 N   0  0  0  0  0  0  0  0  0  0  0  0
   56.8810   28.5700   45.3700 C   0  0  0  0  0  0  0  0  0  0  0  0
   56.6310   27.2210   45.6350 C   0  0  0  0  0  0  0  0  0  0  0  0
   55.7405   26.7393   45.2048 H   0  0  0  0  0  0  0  0  0  0  0  0
   57.4970   26.4760   46.4390 C   0  0  0  0  0  0  0  0  0  0  0  0
   57.2010   25.0900   46.6780 N   0  0  0  0  0  0  0  0  0  0  0  0
   57.8440   24.5460   47.2980 H   0  0  0  0  0  0  0  0  0  0  0  0
   56.2440   24.3280   45.8780 C   0  0  0  0  0  0  0  0  0  0  0  0
   55.3356   24.9294   45.7260 H   0  0  0  0  0  0  0  0  0  0  0  0
   55.9907   23.3975   46.4071 H   0  0  0  0  0  0  0  0  0  0  0  0
   56.8580   23.9820   44.5160 C   0  0  0  0  0  0  0  0  0  0  0  0
   57.7294   23.3297   44.6747 H   0  0  0  0  0  0  0  0  0  0  0  0
   57.1492   24.9227   44.0257 H   0  0  0  0  0  0  0  0  0  0  0  0
   55.8570   23.2590   43.6000 C   0  0  0  0  0  0  0  0  0  0  0  0
   55.9640   23.6523   42.5783 H   0  0  0  0  0  0  0  0  0  0  0  0
   54.8465   23.4399   43.9952 H   0  0  0  0  0  0  0  0  0  0  0  0
   56.0790   21.7940   43.5730 N   0  0  0  0  0  0  0  0  0  0  0  0
   57.3980   21.4770   42.9900 C   0  0  0  0  0  0  0  0  0  0  0  0
   58.1237   21.3026   43.7981 H   0  0  0  0  0  0  0  0  0  0  0  0
   57.3166   20.5728   42.3688 H   0  0  0  0  0  0  0  0  0  0  0  0
   57.7364   22.3194   42.3688 H   0  0  0  0  0  0  0  0  0  0  0  0
   55.9680   21.2210   44.9350 C   0  0  0  0  0  0  0  0  0  0  0  0
   55.0507   21.5969   45.4118 H   0  0  0  0  0  0  0  0  0  0  0  0
   56.8505   21.5209   45.5192 H   0  0  0  0  0  0  0  0  0  0  0  0
   55.9130   19.6960   44.8730 C   0  0  0  0  0  0  0  0  0  0  0  0
   55.8983   19.2878   45.8944 H   0  0  0  0  0  0  0  0  0  0  0  0
   55.0030   19.3833   44.3400 H   0  0  0  0  0  0  0  0  0  0  0  0
   56.7981   19.3185   44.3400 H   0  0  0  0  0  0  0  0  0  0  0  0
   58.6360   27.0930   46.9920 C   0  0  0  0  0  0  0  0  0  0  0  0
   59.5140   26.3270   47.7770 O   0  0  0  0  0  0  0  0  0  0  0  0
   60.5370   26.8610   48.6130 C   0  0  0  0  0  0  0  0  0  0  0  0
   60.2609   26.7169   49.6680 H   0  0  0  0  0  0  0  0  0  0  0  0
   61.4855   26.3430   48.4082 H   0  0  0  0  0  0  0  0  0  0  0  0
   60.6543   27.9354   48.4082 H   0  0  0  0  0  0  0  0  0  0  0  0
   58.8790   28.4550   46.7310 C   0  0  0  0  0  0  0  0  0  0  0  0
   59.7225   28.9561   47.2285 H   0  0  0  0  0  0  0  0  0  0  0  0
   58.0630   29.1920   45.8440 C   0  0  0  0  0  0  0  0  0  0  0  0
   58.3040   30.5560   45.4800 C   0  0  0  0  0  0  0  0  0  0  0  0
   59.4500   31.1770   45.6310 N   0  0  0  0  0  0  0  0  0  0  0  0
   59.9070   32.0310   46.6900 C   0  0  0  0  0  0  0  0  0  0  0  0
   58.9710   32.6290   47.5430 C   0  0  0  0  0  0  0  0  0  0  0  0
   57.8987   32.4201   47.4142 H   0  0  0  0  0  0  0  0  0  0  0  0
   59.3970   33.4910   48.5580 C   0  0  0  0  0  0  0  0  0  0  0  0
   58.6604   33.9447   49.2373 H   0  0  0  0  0  0  0  0  0  0  0  0
   60.7570   33.7780   48.7120 C   0  0  0  0  0  0  0  0  0  0  0  0
   61.1590   34.6120   49.7040 F   0  0  0  0  0  0  0  0  0  0  0  0
   61.6950   33.2140   47.8380 C   0  0  0  0  0  0  0  0  0  0  0  0
   63.4040   33.5770   48.0130 Cl  0  0  0  0  0  0  0  0  0  0  0  0
   61.2690   32.3550   46.8180 C   0  0  0  0  0  0  0  0  0  0  0  0
   62.0018   31.9325   46.1149 H   0  0  0  0  0  0  0  0  0  0  0  0
   57.2580   31.2780   44.8660 C   0  0  0  0  0  0  0  0  0  0  0  0
   57.3960   32.6820   44.5520 C   0  0  0  0  0  0  0  0  0  0  0  0
   57.5080   33.8060   44.2990 N   0  0  0  0  0  0  0  0  0  0  0  0
  1  2  1  0
  2  3  1  0
  3  4  1  0
  4  5  2  0
  5  6  1  0
  5  7  1  0
  7  8  1  0
  8  9  1  0
  8 10  1  0
 10 11  1  0
 10 12  1  0
 10 13  1  0
 13 14  1  0
 13 15  1  0
 13 16  1  0
 16 17  1  0
 16 18  1  0
 16 19  1  0
 19 20  1  0
 20 21  1  0
 20 22  1  0
 20 23  1  0
 19 24  1  0
 24 25  1  0
 24 26  1  0
 24 27  1  0
 27 28  1  0
 27 29  1  0
 27 30  1  0
  7 31  2  0
 31 32  1  0
 32 33  1  0
 33 34  1  0
 33 35  1  0
 33 36  1  0
 31 37  1  0
 37 38  1  0
 37 39  2  0
 39 40  1  0
 40 41  2  0
 41 42  1  0
 42 43  2  0
 43 44  1  0
 43 45  1  0
 45 46  1  0
 45 47  2  0
 47 48  1  0
 47 49  1  0
 49 50  1  0
 49 51  2  0
 51 52  1  0
 40 53  1  0
 53 54  1  0
 54 55  3  0
 53  2  2  0
 39  4  1  0
 51 42  1  0
M  CHG  1   3  -1
M  END
>  <UniqueID>  (32) 
30

>  <SMILES>  (32) 
CCN(C)CCCNc1cc2[n-]cc(C#N)/c(=N/c3ccc(F)c(Cl)c3)c2cc1OC

>  <Energy>  (32) 
80.03847009106897

>  <Genealogy>  (32) 
CCN(C)CCCNc1cc2[n-]cc(C#N)c(=Nc3ccc(F)c(Cl)c3)c2cc1OC (protonated)
CCN(C)CCCNc1cc2[n-]cc(C#N)/c(=N/c3ccc(F)c(Cl)c3)c2cc1OC (cis-trans isomerization)
CCN(C)CCCNc1cc2[n-]cc(C#N)/c(=N/c3ccc(F)c(Cl)c3)c2cc1OC (3D coordinates assigned)
CCN(C)CCCNc1cc2[n-]cc(C#N)/c(=N/c3ccc(F)c(Cl)c3)c2cc1OC (optimized conformer: 80.03847009106897 kcal/mol)

>  <smiles>  (32) 
CCN(C)CCCNc1cc2[nH]cc(C#N)c(=Nc3ccc(F)c(Cl)c3)c2cc1OC

>  <score_type>  (32) 
oracle

>  <origin>  (32) 
adg

>  <m_score__min__energy>  (32) 
-8.8499999999999996

>  <m_primary>  (32) 
energy

$$$$
