0:0
     RDKit          3D

 61 64  0  0  0  0  0  0  0  0999 V2000
   56.1090   26.0830   46.0130 C   0  0  0  0  0  0  0  0  0  0  0  0
   55.7950   27.4140   45.6180 O   0  0  0  0  0  0  0  0  0  0  0  0
   56.7440   28.4310   45.4390 C   0  0  0  0  0  0  0  0  0  0  0  0
   56.7100   29.3100   44.3400 C   0  0  0  0  0  0  0  0  0  0  0  0
   57.6780   30.3080   44.2090 C   0  0  0  0  0  0  0  0  0  0  0  0
   58.6840   30.4410   45.1680 C   0  0  0  0  0  0  0  0  0  0  0  0
   58.7310   29.5770   46.2720 C   0  0  0  0  0  0  0  0  0  0  0  0
   59.7900   29.7380   47.2910 C   0  0  0  0  0  0  0  0  0  0  0  0
   59.8850   29.0960   48.5090 C   0  0  0  0  0  0  0  0  0  0  0  0
   61.0130   29.5500   49.0830 N   0  0  0  0  0  0  0  0  0  0  0  0
   61.6070   29.0960   50.3390 C   0  0  0  0  0  0  0  0  0  0  0  0
   61.1300   29.9240   51.5440 C   0  0  0  0  0  0  0  0  0  0  0  0
   60.1420   31.0450   51.1770 C   0  0  0  0  0  0  0  0  0  0  0  0
   58.6730   30.6010   51.2450 C   0  0  0  0  0  0  0  0  0  0  0  0
   57.7520   31.6730   50.6500 C   0  0  0  0  0  0  0  0  0  0  0  0
   58.5350   32.7130   49.8410 C   0  0  0  0  0  0  0  0  0  0  0  0
   58.7980   32.2520   48.5140 O   0  0  0  0  0  0  0  0  0  0  0  0
   58.6400   33.0040   47.3350 C   0  0  0  0  0  0  0  0  0  0  0  0
   57.4160   33.0500   46.6360 C   0  0  0  0  0  0  0  0  0  0  0  0
   57.2810   33.8420   45.4940 C   0  0  0  0  0  0  0  0  0  0  0  0
   58.3610   34.5900   45.0290 C   0  0  0  0  0  0  0  0  0  0  0  0
   59.5850   34.5410   45.6970 C   0  0  0  0  0  0  0  0  0  0  0  0
   59.7420   33.7430   46.8450 C   0  0  0  0  0  0  0  0  0  0  0  0
   61.0700   33.6750   47.5020 C   0  0  0  0  0  0  0  0  0  0  0  0
   61.2080   33.9790   48.8700 C   0  0  0  0  0  0  0  0  0  0  0  0
   62.4490   33.8550   49.5000 C   0  0  0  0  0  0  0  0  0  0  0  0
   63.5610   33.4170   48.7760 C   0  0  0  0  0  0  0  0  0  0  0  0
   63.4380   33.1230   47.4160 C   0  0  0  0  0  0  0  0  0  0  0  0
   62.1990   33.2490   46.7810 C   0  0  0  0  0  0  0  0  0  0  0  0
   61.5930   30.4010   48.2530 N   0  0  0  0  0  0  0  0  0  0  0  0
   60.8660   30.5410   47.1540 N   0  0  0  0  0  0  0  0  0  0  0  0
   57.7570   28.5710   46.3960 C   0  0  0  0  0  0  0  0  0  0  0  0
   56.1238   26.0202   47.1111 H   0  0  0  0  0  0  0  0  0  0  0  0
   55.3488   25.3939   45.6166 H   0  0  0  0  0  0  0  0  0  0  0  0
   57.0971   25.8063   45.6166 H   0  0  0  0  0  0  0  0  0  0  0  0
   55.9188   29.2105   43.5823 H   0  0  0  0  0  0  0  0  0  0  0  0
   57.6478   30.9914   43.3476 H   0  0  0  0  0  0  0  0  0  0  0  0
   59.4443   31.2281   45.0571 H   0  0  0  0  0  0  0  0  0  0  0  0
   59.1804   28.3614   48.9259 H   0  0  0  0  0  0  0  0  0  0  0  0
   61.3301   28.0438   50.5011 H   0  0  0  0  0  0  0  0  0  0  0  0
   62.6973   29.2171   50.2584 H   0  0  0  0  0  0  0  0  0  0  0  0
   60.6364   29.2466   52.2564 H   0  0  0  0  0  0  0  0  0  0  0  0
   62.0201   30.4093   51.9709 H   0  0  0  0  0  0  0  0  0  0  0  0
   60.2872   31.8820   51.8758 H   0  0  0  0  0  0  0  0  0  0  0  0
   60.3484   31.3359   50.1364 H   0  0  0  0  0  0  0  0  0  0  0  0
   58.5521   29.6664   50.6777 H   0  0  0  0  0  0  0  0  0  0  0  0
   58.3997   30.4470   52.2993 H   0  0  0  0  0  0  0  0  0  0  0  0
   57.0197   31.1860   49.9893 H   0  0  0  0  0  0  0  0  0  0  0  0
   57.2520   32.1926   51.4806 H   0  0  0  0  0  0  0  0  0  0  0  0
   57.9471   33.6412   49.7874 H   0  0  0  0  0  0  0  0  0  0  0  0
   59.4977   32.8888   50.3433 H   0  0  0  0  0  0  0  0  0  0  0  0
   56.5610   32.4573   46.9933 H   0  0  0  0  0  0  0  0  0  0  0  0
   56.3199   33.8756   44.9601 H   0  0  0  0  0  0  0  0  0  0  0  0
   58.2484   35.2198   44.1342 H   0  0  0  0  0  0  0  0  0  0  0  0
   60.4344   35.1313   45.3229 H   0  0  0  0  0  0  0  0  0  0  0  0
   60.3336   34.3161   49.4461 H   0  0  0  0  0  0  0  0  0  0  0  0
   62.5507   34.1024   50.5670 H   0  0  0  0  0  0  0  0  0  0  0  0
   64.5336   33.3037   49.2772 H   0  0  0  0  0  0  0  0  0  0  0  0
   64.3173   32.7919   46.8439 H   0  0  0  0  0  0  0  0  0  0  0  0
   62.1070   33.0133   45.7105 H   0  0  0  0  0  0  0  0  0  0  0  0
   57.7909   27.8852   47.2554 H   0  0  0  0  0  0  0  0  0  0  0  0
  1  2  1  0
  2  3  1  0
  3  4  2  0
  4  5  1  0
  5  6  2  0
  6  7  1  0
  7  8  1  0
  8  9  2  0
  9 10  1  0
 10 11  1  0
 11 12  1  0
 12 13  1  0
 13 14  1  0
 14 15  1  0
 15 16  1  0
 16 17  1  0
 17 18  1  0
 18 19  2  0
 19 20  1  0
 20 21  2  0
 21 22  1  0
 22 23  2  0
 23 24  1  0
 24 25  2  0
 25 26  1  0
 26 27  2  0
 27 28  1  0
 28 29  2  0
 10 30  1  0
 30 31  2  0
  7 32  2  0
 32  3  1  0
 31  8  1  0
 23 18  1  0
 29 24  1  0
  1 33  1  0
  1 34  1  0
  1 35  1  0
  4 36  1  0
  5 37  1  0
  6 38  1  0
  9 39  1  0
 11 40  1  0
 11 41  1  0
 12 42  1  0
 12 43  1  0
 13 44  1  0
 13 45  1  0
 14 46  1  0
 14 47  1  0
 15 48  1  0
 15 49  1  0
 16 50  1  0
 16 51  1  0
 19 52  1  0
 20 53  1  0
 21 54  1  0
 22 55  1  0
 25 56  1  0
 26 57  1  0
 27 58  1  0
 28 59  1  0
 29 60  1  0
 32 61  1  0
M  END
>  <UniqueID>  (1) 
1

>  <SMILES>  (1) 
COc1cccc(-c2cn(CCCCCCOc3ccccc3-c3ccccc3)nn2)c1

>  <Energy>  (1) 
94.58683841577245

>  <Genealogy>  (1) 
COc1cccc(-c2cn(CCCCCCOc3ccccc3-c3ccccc3)nn2)c1 (3D coordinates assigned)
COc1cccc(-c2cn(CCCCCCOc3ccccc3-c3ccccc3)nn2)c1 (optimized conformer: 94.58683841577245 kcal/mol)

>  <smiles>  (1) 
COc1cccc(-c2cn(CCCCCCOc3ccccc3-c3ccccc3)nn2)c1

>  <score_type>  (1) 
oracle

>  <origin>  (1) 
adg

>  <m_score__min__energy>  (1) 
-9.9900000000000002

>  <m_primary>  (1) 
energy

$$$$
1:0
     RDKit          3D

 48 51  0  0  0  0  0  0  0  0999 V2000
   62.2960   31.9740   49.2990 C   0  0  0  0  0  0  0  0  0  0  0  0
   61.4570   31.4250   48.1930 C   0  0  0  0  0  0  0  0  0  0  0  0
   61.0230   30.1880   48.1290 O   0  0  0  0  0  0  0  0  0  0  0  0
   60.3040   30.0820   47.0320 C   0  0  0  0  0  0  0  0  0  0  0  0
   59.6350   28.8280   46.6160 C   0  0  0  0  0  0  0  0  0  0  0  0
   59.4420   27.7620   47.5170 C   0  0  0  0  0  0  0  0  0  0  0  0
   58.8160   26.5850   47.0940 C   0  0  0  0  0  0  0  0  0  0  0  0
   58.3770   26.4560   45.7740 C   0  0  0  0  0  0  0  0  0  0  0  0
   58.5630   27.5060   44.8730 C   0  0  0  0  0  0  0  0  0  0  0  0
   59.1900   28.6860   45.2880 C   0  0  0  0  0  0  0  0  0  0  0  0
   60.2560   31.2500   46.3510 N   0  0  0  0  0  0  0  0  0  0  0  0
   60.9900   32.1030   47.0870 C   0  0  0  0  0  0  0  0  0  0  0  0
   61.1890   33.5540   46.7650 C   0  0  0  0  0  0  0  0  0  0  0  0
   59.9440   34.3060   47.0220 N   0  0  0  0  0  0  0  0  0  0  0  0
   58.9300   33.4940   47.7470 C   0  0  0  0  0  0  0  0  0  0  0  0
   57.7240   33.0600   46.8890 C   0  0  0  0  0  0  0  0  0  0  0  0
   58.1240   32.8340   45.4930 N   0  0  0  0  0  0  0  0  0  0  0  0
   57.5880   31.7190   44.7500 C   0  0  0  0  0  0  0  0  0  0  0  0
   56.6470   31.0300   45.2320 O   0  0  0  0  0  0  0  0  0  0  0  0
   58.1040   31.3820   43.3760 C   0  0  0  0  0  0  0  0  0  0  0  0
   57.6980   32.3440   42.2680 C   0  0  0  0  0  0  0  0  0  0  0  0
   57.0170   30.9930   42.3850 C   0  0  0  0  0  0  0  0  0  0  0  0
   58.9100   33.8660   44.8050 C   0  0  0  0  0  0  0  0  0  0  0  0
   59.4110   34.9290   45.7940 C   0  0  0  0  0  0  0  0  0  0  0  0
   61.8591   31.6881   50.2672 H   0  0  0  0  0  0  0  0  0  0  0  0
   63.3153   31.5677   49.2224 H   0  0  0  0  0  0  0  0  0  0  0  0
   62.3318   33.0707   49.2224 H   0  0  0  0  0  0  0  0  0  0  0  0
   59.7853   27.8559   48.5578 H   0  0  0  0  0  0  0  0  0  0  0  0
   58.6687   25.7575   47.8036 H   0  0  0  0  0  0  0  0  0  0  0  0
   57.8855   25.5285   45.4451 H   0  0  0  0  0  0  0  0  0  0  0  0
   58.2157   27.4054   43.8341 H   0  0  0  0  0  0  0  0  0  0  0  0
   59.3362   29.5081   44.5719 H   0  0  0  0  0  0  0  0  0  0  0  0
   59.7670   31.4640   45.4540 H   0  0  0  0  0  0  0  0  0  0  0  0
   61.9953   33.9591   47.3942 H   0  0  0  0  0  0  0  0  0  0  0  0
   61.4573   33.6537   45.7029 H   0  0  0  0  0  0  0  0  0  0  0  0
   59.4241   32.5881   48.1280 H   0  0  0  0  0  0  0  0  0  0  0  0
   58.5300   34.1350   48.5464 H   0  0  0  0  0  0  0  0  0  0  0  0
   57.3077   32.1281   47.2991 H   0  0  0  0  0  0  0  0  0  0  0  0
   56.9712   33.8618   46.9121 H   0  0  0  0  0  0  0  0  0  0  0  0
   59.0579   30.9496   43.7123 H   0  0  0  0  0  0  0  0  0  0  0  0
   57.1438   33.2621   42.5127 H   0  0  0  0  0  0  0  0  0  0  0  0
   58.2317   32.8789   41.4686 H   0  0  0  0  0  0  0  0  0  0  0  0
   55.9692   30.9323   42.7143 H   0  0  0  0  0  0  0  0  0  0  0  0
   56.8530   30.1440   41.7051 H   0  0  0  0  0  0  0  0  0  0  0  0
   59.7749   33.3932   44.3168 H   0  0  0  0  0  0  0  0  0  0  0  0
   58.2667   34.3569   44.0599 H   0  0  0  0  0  0  0  0  0  0  0  0
   60.2075   35.5175   45.3153 H   0  0  0  0  0  0  0  0  0  0  0  0
   58.5644   35.5749   46.0700 H   0  0  0  0  0  0  0  0  0  0  0  0
  1  2  1  0
  2  3  1  0
  3  4  1  0
  4  5  1  0
  5  6  2  0
  6  7  1  0
  7  8  2  0
  8  9  1  0
  9 10  2  0
  4 11  2  0
 11 12  1  0
 12 13  1  0
 13 14  1  0
 14 15  1  0
 15 16  1  0
 16 17  1  0
 17 18  1  0
 18 19  2  0
 18 20  1  0
 20 21  1  0
 21 22  1  0
 17 23  1  0
 23 24  1  0
 12  2  2  0
 24 14  1  0
 10  5  1  0
 22 20  1  0
  1 25  1  0
  1 26  1  0
  1 27  1  0
  6 28  1  0
  7 29  1  0
  8 30  1  0
  9 31  1  0
 10 32  1  0
 11 33  1  0
 13 34  1  0
 13 35  1  0
 15 36  1  0
 15 37  1  0
 16 38  1  0
 16 39  1  0
 20 40  1  0
 21 41  1  0
 21 42  1  0
 22 43  1  0
 22 44  1  0
 23 45  1  0
 23 46  1  0
 24 47  1  0
 24 48  1  0
M  CHG  1  11   1
M  END
>  <UniqueID>  (2) 
2

>  <SMILES>  (2) 
Cc1oc(-c2ccccc2)[nH+]c1CN1CCN(C(=O)C2CC2)CC1

>  <Energy>  (2) 
350.5493747418596

>  <Genealogy>  (2) 
Cc1oc(-c2ccccc2)[nH+]c1CN1CCN(C(=O)C2CC2)CC1 (protonated)
Cc1oc(-c2ccccc2)[nH+]c1CN1CCN(C(=O)C2CC2)CC1 (3D coordinates assigned)
Cc1oc(-c2ccccc2)[nH+]c1CN1CCN(C(=O)C2CC2)CC1 (nonaromatic ring conformer: 350.5493747418596 kcal/mol)

>  <smiles>  (2) 
Cc1oc(-c2ccccc2)nc1CN1CCN(C(=O)C2CC2)CC1

>  <score_type>  (2) 
oracle

>  <origin>  (2) 
adg

>  <m_score__min__energy>  (2) 
-6.4699999999999998

>  <m_primary>  (2) 
energy

$$$$
2:0
     RDKit          3D

 30 30  0  0  0  0  0  0  0  0999 V2000
   57.7880   26.1990   44.0060 C   0  0  0  0  0  0  0  0  0  0  0  0
   57.8350   27.2830   44.9070 O   0  0  0  0  0  0  0  0  0  0  0  0
   59.1450   27.4440   45.4210 C   0  0  0  0  0  0  0  0  0  0  0  0
   59.7180   28.8010   45.0180 C   0  0  0  0  0  0  0  0  0  0  0  0
   58.9130   29.3630   44.0010 O   0  0  0  0  0  0  0  0  0  0  0  0
   58.4800   30.6630   44.3660 C   0  0  1  0  0  0  0  0  0  0  0  0
   58.1480   31.4640   43.1290 C   0  0  0  0  0  0  0  0  0  0  0  0
   57.0150   31.2180   42.4600 C   0  0  0  0  0  0  0  0  0  0  0  0
   56.1020   30.0990   42.9010 C   0  0  1  0  0  0  0  0  0  0  0  0
   56.6240   28.8710   42.4630 O   0  0  0  0  0  0  0  0  0  0  0  0
   55.9320   30.0840   44.4500 C   0  0  1  0  0  0  0  0  0  0  0  0
   55.5350   28.8060   44.8780 O   0  0  0  0  0  0  0  0  0  0  0  0
   57.2040   30.5640   45.2360 C   0  0  1  0  0  0  0  0  0  0  0  0
   57.4330   29.7990   46.3950 O   0  0  0  0  0  0  0  0  0  0  0  0
   57.7471   25.2553   44.5696 H   0  0  0  0  0  0  0  0  0  0  0  0
   56.8928   26.2870   43.3728 H   0  0  0  0  0  0  0  0  0  0  0  0
   58.6874   26.2092   43.3728 H   0  0  0  0  0  0  0  0  0  0  0  0
   59.1135   27.3765   46.5185 H   0  0  0  0  0  0  0  0  0  0  0  0
   59.7872   26.6516   45.0091 H   0  0  0  0  0  0  0  0  0  0  0  0
   59.7277   29.4700   45.8911 H   0  0  0  0  0  0  0  0  0  0  0  0
   60.7454   28.6723   44.6467 H   0  0  0  0  0  0  0  0  0  0  0  0
   59.2875   31.1553   44.9278 H   0  0  0  0  0  0  0  0  0  0  0  0
   58.8358   32.2477   42.7788 H   0  0  0  0  0  0  0  0  0  0  0  0
   56.7485   31.8322   41.5872 H   0  0  0  0  0  0  0  0  0  0  0  0
   55.1100   30.2626   42.4548 H   0  0  0  0  0  0  0  0  0  0  0  0
   57.0030   28.4180   43.2600 H   0  0  0  0  0  0  0  0  0  0  0  0
   55.1463   30.8177   44.6831 H   0  0  0  0  0  0  0  0  0  0  0  0
   56.1730   28.1570   44.4780 H   0  0  0  0  0  0  0  0  0  0  0  0
   56.9718   31.5925   45.5494 H   0  0  0  0  0  0  0  0  0  0  0  0
   57.2800   28.8450   46.1680 H   0  0  0  0  0  0  0  0  0  0  0  0
  1  2  1  0
  2  3  1  0
  3  4  1  0
  4  5  1  0
  5  6  1  0
  6  7  1  0
  7  8  2  0
  8  9  1  0
  9 10  1  0
  9 11  1  0
 11 12  1  0
 11 13  1  0
 13 14  1  0
 13  6  1  0
  1 15  1  0
  1 16  1  0
  1 17  1  0
  3 18  1  0
  3 19  1  0
  4 20  1  0
  4 21  1  0
  6 22  1  1
  7 23  1  0
  8 24  1  0
  9 25  1  6
 10 26  1  0
 11 27  1  6
 12 28  1  0
 13 29  1  1
 14 30  1  0
M  END
>  <UniqueID>  (3) 
3

>  <SMILES>  (3) 
COCCO[C@H]1C=C[C@@H](O)C(O)C1O

>  <Energy>  (3) 
35.856086235080134

>  <Genealogy>  (3) 
COCCO[C@H]1C=C[C@@H](O)C(O)C1O (chirality)
COCCO[C@H]1C=C[C@@H](O)C(O)C1O (3D coordinates assigned)
COCCO[C@H]1C=C[C@@H](O)C(O)C1O (nonaromatic ring conformer: 35.856086235080134 kcal/mol)

>  <smiles>  (3) 
COCCOC1C=CC(O)C(O)C1O

>  <score_type>  (3) 
oracle

>  <origin>  (3) 
adg

>  <m_score__min__energy>  (3) 
-5.9199999999999999

>  <m_primary>  (3) 
energy

$$$$
3:0
     RDKit          3D

 46 49  0  0  0  0  0  0  0  0999 V2000
   59.2610   35.3140   44.8670 C   0  0  0  0  0  0  0  0  0  0  0  0
   59.1340   34.5900   46.1760 C   0  0  0  0  0  0  0  0  0  0  0  0
   59.7760   35.1070   47.2610 N   0  0  0  0  0  0  0  0  0  0  0  0
   59.7280   34.5160   48.4830 C   0  0  0  0  0  0  0  0  0  0  0  0
   59.0070   33.3370   48.6590 C   0  0  0  0  0  0  0  0  0  0  0  0
   58.3380   32.7780   47.5730 C   0  0  0  0  0  0  0  0  0  0  0  0
   58.3810   33.3980   46.3130 C   0  0  0  0  0  0  0  0  0  0  0  0
   57.6300   32.7550   45.1660 C   0  0  0  0  0  0  0  0  0  0  0  0
   57.4210   31.3170   45.4220 N   0  0  0  0  0  0  0  0  0  0  0  0
   58.6950   30.5760   45.5040 C   0  0  0  0  0  0  0  0  0  0  0  0
   58.6370   29.4550   44.4680 C   0  0  1  0  0  0  0  0  0  0  0  0
   59.4120   28.1750   44.8460 C   0  0  0  0  0  0  0  0  0  0  0  0
   58.6770   27.3090   45.8700 C   0  0  0  0  0  0  0  0  0  0  0  0
   57.2920   27.1000   45.4360 N   0  0  0  0  0  0  0  0  0  0  0  0
   56.7080   25.7790   45.3780 C   0  0  0  0  0  0  0  0  0  0  0  0
   57.3120   24.7870   44.6660 N   0  0  0  0  0  0  0  0  0  0  0  0
   56.7780   23.5400   44.5960 C   0  0  0  0  0  0  0  0  0  0  0  0
   55.5890   23.2570   45.2620 C   0  0  0  0  0  0  0  0  0  0  0  0
   54.9760   24.2760   45.9880 C   0  0  0  0  0  0  0  0  0  0  0  0
   55.5430   25.5100   46.0320 N   0  0  0  0  0  0  0  0  0  0  0  0
   56.4820   28.3070   45.2440 C   0  0  0  0  0  0  0  0  0  0  0  0
   57.1480   29.2520   44.2180 C   0  0  1  0  0  0  0  0  0  0  0  0
   56.6130   30.6700   44.3720 C   0  0  0  0  0  0  0  0  0  0  0  0
   59.4483   36.3815   45.0551 H   0  0  0  0  0  0  0  0  0  0  0  0
   60.0985   34.8903   44.2934 H   0  0  0  0  0  0  0  0  0  0  0  0
   58.3293   35.2007   44.2934 H   0  0  0  0  0  0  0  0  0  0  0  0
   60.2585   34.9684   49.3338 H   0  0  0  0  0  0  0  0  0  0  0  0
   58.9665   32.8525   49.6457 H   0  0  0  0  0  0  0  0  0  0  0  0
   57.7716   31.8440   47.7027 H   0  0  0  0  0  0  0  0  0  0  0  0
   56.6530   33.2475   45.0526 H   0  0  0  0  0  0  0  0  0  0  0  0
   58.2230   32.8685   44.2465 H   0  0  0  0  0  0  0  0  0  0  0  0
   59.5366   31.2491   45.2834 H   0  0  0  0  0  0  0  0  0  0  0  0
   58.8419   30.1653   46.5138 H   0  0  0  0  0  0  0  0  0  0  0  0
   59.1683   29.7329   43.5458 H   0  0  0  0  0  0  0  0  0  0  0  0
   59.5713   27.5802   43.9345 H   0  0  0  0  0  0  0  0  0  0  0  0
   60.3615   28.4896   45.3037 H   0  0  0  0  0  0  0  0  0  0  0  0
   59.1836   26.3365   45.9575 H   0  0  0  0  0  0  0  0  0  0  0  0
   58.6807   27.8161   46.8461 H   0  0  0  0  0  0  0  0  0  0  0  0
   57.2841   22.7555   44.0142 H   0  0  0  0  0  0  0  0  0  0  0  0
   55.1437   22.2522   45.2162 H   0  0  0  0  0  0  0  0  0  0  0  0
   54.0354   24.0820   46.5242 H   0  0  0  0  0  0  0  0  0  0  0  0
   55.4858   28.0192   44.8768 H   0  0  0  0  0  0  0  0  0  0  0  0
   56.3957   28.8328   46.2063 H   0  0  0  0  0  0  0  0  0  0  0  0
   56.9437   28.7785   43.2464 H   0  0  0  0  0  0  0  0  0  0  0  0
   56.7145   31.2184   43.4239 H   0  0  0  0  0  0  0  0  0  0  0  0
   55.5466   30.6630   44.6419 H   0  0  0  0  0  0  0  0  0  0  0  0
  1  2  1  0
  2  3  2  0
  3  4  1  0
  4  5  2  0
  5  6  1  0
  6  7  2  0
  7  8  1  0
  8  9  1  0
  9 10  1  0
 10 11  1  0
 11 12  1  0
 12 13  1  0
 13 14  1  0
 14 15  1  0
 15 16  2  0
 16 17  1  0
 17 18  2  0
 18 19  1  0
 19 20  2  0
 14 21  1  0
 21 22  1  0
 22 23  1  0
  7  2  1  0
 23  9  1  0
 22 11  1  0
 20 15  1  0
  1 24  1  0
  1 25  1  0
  1 26  1  0
  4 27  1  0
  5 28  1  0
  6 29  1  0
  8 30  1  0
  8 31  1  0
 10 32  1  0
 10 33  1  0
 11 34  1  6
 12 35  1  0
 12 36  1  0
 13 37  1  0
 13 38  1  0
 17 39  1  0
 18 40  1  0
 19 41  1  0
 21 42  1  0
 21 43  1  0
 22 44  1  6
 23 45  1  0
 23 46  1  0
M  END
>  <UniqueID>  (4) 
4

>  <SMILES>  (4) 
Cc1ncccc1CN1C[C@H]2CCN(c3ncccn3)C[C@H]2C1

>  <Energy>  (4) 
57.87936750266035

>  <Genealogy>  (4) 
Cc1ncccc1CN1C[C@H]2CCN(c3ncccn3)C[C@H]2C1 (chirality)
Cc1ncccc1CN1C[C@H]2CCN(c3ncccn3)C[C@H]2C1 (3D coordinates assigned)
Cc1ncccc1CN1C[C@H]2CCN(c3ncccn3)C[C@H]2C1 (nonaromatic ring conformer: 57.87936750266035 kcal/mol)

>  <smiles>  (4) 
Cc1ncccc1CN1CC2CCN(c3ncccn3)CC2C1

>  <score_type>  (4) 
oracle

>  <origin>  (4) 
adg

>  <m_score__min__energy>  (4) 
-8.0500000000000007

>  <m_primary>  (4) 
energy

$$$$
4:0
     RDKit          3D

 55 58  0  0  0  0  0  0  0  0999 V2000
   59.1440   33.6720   48.1930 C   0  0  0  0  0  0  0  0  0  0  0  0
   58.7900   33.3850   46.7640 C   0  0  0  0  0  0  0  0  0  0  0  0
   59.1390   34.3050   45.7430 C   0  0  0  0  0  0  0  0  0  0  0  0
   58.8250   34.0400   44.4000 C   0  0  0  0  0  0  0  0  0  0  0  0
   58.1780   32.8420   44.1030 C   0  0  0  0  0  0  0  0  0  0  0  0
   57.7710   32.4180   42.8950 N   0  0  0  0  0  0  0  0  0  0  0  0
   57.1860   31.2170   43.0970 C   0  0  0  0  0  0  0  0  0  0  0  0
   57.2270   30.8750   44.4490 C   0  0  0  0  0  0  0  0  0  0  0  0
   56.7270   29.6270   45.0550 C   0  0  0  0  0  0  0  0  0  0  0  0
   55.5280   29.2840   44.8730 O   0  0  0  0  0  0  0  0  0  0  0  0
   57.6030   28.7840   45.9420 C   0  0  0  0  0  0  0  0  0  0  0  0
   57.8230   27.4410   45.3630 N   0  0  0  0  0  0  0  0  0  0  0  0
   56.6840   26.5300   45.6570 C   0  0  0  0  0  0  0  0  0  0  0  0
   56.9550   25.6020   46.8530 C   0  0  0  0  0  0  0  0  0  0  0  0
   58.2060   24.7200   46.6200 C   0  0  0  0  0  0  0  0  0  0  0  0
   57.8250   23.3320   46.1400 C   0  0  0  0  0  0  0  0  0  0  0  0
   57.3920   22.5200   46.9490 O   0  0  0  0  0  0  0  0  0  0  0  0
   57.9680   22.9570   44.7440 N   0  0  0  0  0  0  0  0  0  0  0  0
   57.0760   23.7750   43.8770 C   0  0  0  0  0  0  0  0  0  0  0  0
   55.8680   22.9690   43.3730 C   0  0  0  0  0  0  0  0  0  0  0  0
   56.2490   21.8290   42.6190 O   0  0  0  0  0  0  0  0  0  0  0  0
   57.3930   21.1510   43.1330 C   0  0  0  0  0  0  0  0  0  0  0  0
   57.7460   21.5010   44.5920 C   0  0  0  0  0  0  0  0  0  0  0  0
   59.2000   25.3680   45.6310 C   0  0  0  0  0  0  0  0  0  0  0  0
   59.1520   26.8940   45.7550 C   0  0  0  0  0  0  0  0  0  0  0  0
   57.8680   31.9290   45.0790 C   0  0  0  0  0  0  0  0  0  0  0  0
   58.1540   32.1700   46.4250 C   0  0  0  0  0  0  0  0  0  0  0  0
   58.4630   33.1199   48.8574 H   0  0  0  0  0  0  0  0  0  0  0  0
   60.1799   33.3556   48.3848 H   0  0  0  0  0  0  0  0  0  0  0  0
   59.0487   34.7510   48.3848 H   0  0  0  0  0  0  0  0  0  0  0  0
   59.6615   35.2366   46.0058 H   0  0  0  0  0  0  0  0  0  0  0  0
   59.0821   34.7568   43.6062 H   0  0  0  0  0  0  0  0  0  0  0  0
   57.8800   32.9140   41.9830 H   0  0  0  0  0  0  0  0  0  0  0  0
   56.7399   30.5959   42.3063 H   0  0  0  0  0  0  0  0  0  0  0  0
   58.5748   29.2844   46.0651 H   0  0  0  0  0  0  0  0  0  0  0  0
   57.1000   28.6645   46.9129 H   0  0  0  0  0  0  0  0  0  0  0  0
   55.7954   27.1391   45.8793 H   0  0  0  0  0  0  0  0  0  0  0  0
   56.5325   25.8938   44.7725 H   0  0  0  0  0  0  0  0  0  0  0  0
   57.1137   26.2158   47.7519 H   0  0  0  0  0  0  0  0  0  0  0  0
   56.0859   24.9393   46.9773 H   0  0  0  0  0  0  0  0  0  0  0  0
   58.7084   24.6301   47.5944 H   0  0  0  0  0  0  0  0  0  0  0  0
   58.9520   23.1540   44.4400 H   0  0  0  0  0  0  0  0  0  0  0  0
   56.7118   24.6372   44.4549 H   0  0  0  0  0  0  0  0  0  0  0  0
   57.6572   24.1005   43.0016 H   0  0  0  0  0  0  0  0  0  0  0  0
   55.2793   22.6368   44.2408 H   0  0  0  0  0  0  0  0  0  0  0  0
   55.2820   23.6249   42.7123 H   0  0  0  0  0  0  0  0  0  0  0  0
   57.2045   20.0688   43.0760 H   0  0  0  0  0  0  0  0  0  0  0  0
   58.2475   21.4737   42.5200 H   0  0  0  0  0  0  0  0  0  0  0  0
   56.9184   21.1919   45.2474 H   0  0  0  0  0  0  0  0  0  0  0  0
   58.6705   20.9725   44.8678 H   0  0  0  0  0  0  0  0  0  0  0  0
   60.2178   25.0171   45.8568 H   0  0  0  0  0  0  0  0  0  0  0  0
   58.9228   25.0827   44.6054 H   0  0  0  0  0  0  0  0  0  0  0  0
   59.3575   27.1727   46.7991 H   0  0  0  0  0  0  0  0  0  0  0  0
   59.9081   27.3154   45.0762 H   0  0  0  0  0  0  0  0  0  0  0  0
   57.8913   31.4342   47.1993 H   0  0  0  0  0  0  0  0  0  0  0  0
  1  2  1  0
  2  3  2  0
  3  4  1  0
  4  5  2  0
  5  6  1  0
  6  7  1  0
  7  8  2  0
  8  9  1  0
  9 10  2  0
  9 11  1  0
 11 12  1  0
 12 13  1  0
 13 14  1  0
 14 15  1  0
 15 16  1  0
 16 17  2  0
 16 18  1  0
 18 19  1  0
 19 20  1  0
 20 21  1  0
 21 22  1  0
 22 23  1  0
 15 24  1  0
 24 25  1  0
  8 26  1  0
 26 27  2  0
 27  2  1  0
 26  5  1  0
 25 12  1  0
 23 18  1  0
  1 28  1  0
  1 29  1  0
  1 30  1  0
  3 31  1  0
  4 32  1  0
  6 33  1  0
  7 34  1  0
 11 35  1  0
 11 36  1  0
 13 37  1  0
 13 38  1  0
 14 39  1  0
 14 40  1  0
 15 41  1  0
 18 42  1  0
 19 43  1  0
 19 44  1  0
 20 45  1  0
 20 46  1  0
 22 47  1  0
 22 48  1  0
 23 49  1  0
 23 50  1  0
 24 51  1  0
 24 52  1  0
 25 53  1  0
 25 54  1  0
 27 55  1  0
M  CHG  1  18   1
M  END
>  <UniqueID>  (5) 
5

>  <SMILES>  (5) 
Cc1ccc2[nH]cc(C(=O)CN3CCC(C(=O)[NH+]4CCOCC4)CC3)c2c1

>  <Energy>  (5) 
112.97518600653834

>  <Genealogy>  (5) 
Cc1ccc2[nH]cc(C(=O)CN3CCC(C(=O)[NH+]4CCOCC4)CC3)c2c1 (protonated)
Cc1ccc2[nH]cc(C(=O)CN3CCC(C(=O)[NH+]4CCOCC4)CC3)c2c1 (3D coordinates assigned)
Cc1ccc2[nH]cc(C(=O)CN3CCC(C(=O)[NH+]4CCOCC4)CC3)c2c1 (nonaromatic ring conformer: 112.97518600653834 kcal/mol)

>  <smiles>  (5) 
Cc1ccc2[nH]cc(C(=O)CN3CCC(C(=O)N4CCOCC4)CC3)c2c1

>  <score_type>  (5) 
oracle

>  <origin>  (5) 
adg

>  <m_score__min__energy>  (5) 
-7.9500000000000002

>  <m_primary>  (5) 
energy

$$$$
5:0
     RDKit          3D

 56 59  0  0  0  0  0  0  0  0999 V2000
   65.9870   32.3870   50.1090 C   0  0  0  0  0  0  0  0  0  0  0  0
   64.5850   31.9500   50.5640 C   0  0  0  0  0  0  0  0  0  0  0  0
   63.6730   33.0760   50.8960 N   0  0  2  0  0  0  0  0  0  0  0  0
   62.3990   32.5970   51.5200 C   0  0  0  0  0  0  0  0  0  0  0  0
   61.1500   33.3620   51.0580 C   0  0  0  0  0  0  0  0  0  0  0  0
   61.1120   33.3910   49.5490 C   0  0  0  0  0  0  0  0  0  0  0  0
   62.3140   33.7330   48.9140 C   0  0  0  0  0  0  0  0  0  0  0  0
   62.3680   33.8500   47.5220 C   0  0  0  0  0  0  0  0  0  0  0  0
   61.2240   33.6360   46.7600 C   0  0  0  0  0  0  0  0  0  0  0  0
   60.0050   33.3080   47.3700 C   0  0  0  0  0  0  0  0  0  0  0  0
   58.8420   33.1840   46.5380 N   0  0  0  0  0  0  0  0  0  0  0  0
   58.1290   34.1980   46.0030 C   0  0  0  0  0  0  0  0  0  0  0  0
   57.1700   33.6680   45.1650 C   0  0  0  0  0  0  0  0  0  0  0  0
   57.3870   32.3080   45.2270 C   0  0  0  0  0  0  0  0  0  0  0  0
   56.6680   31.3480   44.5100 O   0  0  0  0  0  0  0  0  0  0  0  0
   57.2900   30.2460   43.8530 C   0  0  0  0  0  0  0  0  0  0  0  0
   57.5750   29.1410   44.8350 C   0  0  0  0  0  0  0  0  0  0  0  0
   58.8510   29.0030   45.4050 C   0  0  0  0  0  0  0  0  0  0  0  0
   59.1170   27.9520   46.2850 C   0  0  0  0  0  0  0  0  0  0  0  0
   58.1160   27.0310   46.6020 C   0  0  0  0  0  0  0  0  0  0  0  0
   56.8390   27.1490   46.0400 C   0  0  0  0  0  0  0  0  0  0  0  0
   55.8700   26.1960   46.3860 O   0  0  0  0  0  0  0  0  0  0  0  0
   55.5770   25.0310   45.6210 C   0  0  0  0  0  0  0  0  0  0  0  0
   56.5730   28.2100   45.1520 C   0  0  0  0  0  0  0  0  0  0  0  0
   58.4090   32.0290   46.0580 N   0  0  0  0  0  0  0  0  0  0  0  0
   59.9470   33.1330   48.7790 C   0  0  0  0  0  0  0  0  0  0  0  0
   58.6830   32.6440   49.4480 C   0  0  0  0  0  0  0  0  0  0  0  0
   63.5210   34.0360   49.7660 C   0  0  0  0  0  0  0  0  0  0  0  0
   66.6144   32.5826   50.9911 H   0  0  0  0  0  0  0  0  0  0  0  0
   66.4421   31.5881   49.5052 H   0  0  0  0  0  0  0  0  0  0  0  0
   65.9076   33.3030   49.5052 H   0  0  0  0  0  0  0  0  0  0  0  0
   64.1272   31.3626   49.7544 H   0  0  0  0  0  0  0  0  0  0  0  0
   64.7197   31.3695   51.4886 H   0  0  0  0  0  0  0  0  0  0  0  0
   64.1740   33.6130   51.6460 H   0  0  0  0  0  0  0  0  0  0  0  0
   62.2676   31.5348   51.2659 H   0  0  0  0  0  0  0  0  0  0  0  0
   62.4925   32.7655   52.6030 H   0  0  0  0  0  0  0  0  0  0  0  0
   60.2491   32.8585   51.4386 H   0  0  0  0  0  0  0  0  0  0  0  0
   61.1840   34.3909   51.4454 H   0  0  0  0  0  0  0  0  0  0  0  0
   63.3158   34.1115   47.0288 H   0  0  0  0  0  0  0  0  0  0  0  0
   61.2765   33.7253   45.6649 H   0  0  0  0  0  0  0  0  0  0  0  0
   58.2865   35.2683   46.2021 H   0  0  0  0  0  0  0  0  0  0  0  0
   56.4081   34.2062   44.5820 H   0  0  0  0  0  0  0  0  0  0  0  0
   56.6201   29.8680   43.0667 H   0  0  0  0  0  0  0  0  0  0  0  0
   58.2391   30.5839   43.4114 H   0  0  0  0  0  0  0  0  0  0  0  0
   59.6432   29.7249   45.1575 H   0  0  0  0  0  0  0  0  0  0  0  0
   60.1178   27.8491   46.7298 H   0  0  0  0  0  0  0  0  0  0  0  0
   58.3324   26.2072   47.2981 H   0  0  0  0  0  0  0  0  0  0  0  0
   55.3657   24.1908   46.2988 H   0  0  0  0  0  0  0  0  0  0  0  0
   54.6985   25.2202   44.9867 H   0  0  0  0  0  0  0  0  0  0  0  0
   56.4405   24.7821   44.9867 H   0  0  0  0  0  0  0  0  0  0  0  0
   55.5733   28.3097   44.7039 H   0  0  0  0  0  0  0  0  0  0  0  0
   58.8045   32.6910   50.5403 H   0  0  0  0  0  0  0  0  0  0  0  0
   57.8382   33.2802   49.1453 H   0  0  0  0  0  0  0  0  0  0  0  0
   58.4863   31.6049   49.1453 H   0  0  0  0  0  0  0  0  0  0  0  0
   64.4207   33.9848   49.1352 H   0  0  0  0  0  0  0  0  0  0  0  0
   63.3863   35.0402   50.1943 H   0  0  0  0  0  0  0  0  0  0  0  0
  1  2  1  0
  2  3  1  0
  3  4  1  0
  4  5  1  0
  5  6  1  0
  6  7  2  0
  7  8  1  0
  8  9  2  0
  9 10  1  0
 10 11  1  0
 11 12  1  0
 12 13  2  0
 13 14  1  0
 14 15  1  0
 15 16  1  0
 16 17  1  0
 17 18  2  0
 18 19  1  0
 19 20  2  0
 20 21  1  0
 21 22  1  0
 22 23  1  0
 21 24  2  0
 14 25  2  0
 10 26  2  0
 26 27  1  0
  7 28  1  0
 28  3  1  0
 26  6  1  0
 25 11  1  0
 24 17  1  0
  1 29  1  0
  1 30  1  0
  1 31  1  0
  2 32  1  0
  2 33  1  0
  3 34  1  1
  4 35  1  0
  4 36  1  0
  5 37  1  0
  5 38  1  0
  8 39  1  0
  9 40  1  0
 12 41  1  0
 13 42  1  0
 16 43  1  0
 16 44  1  0
 18 45  1  0
 19 46  1  0
 20 47  1  0
 23 48  1  0
 23 49  1  0
 23 50  1  0
 24 51  1  0
 27 52  1  0
 27 53  1  0
 27 54  1  0
 28 55  1  0
 28 56  1  0
M  CHG  1   3   1
M  END
>  <UniqueID>  (6) 
6

>  <SMILES>  (6) 
CC[N@@H+]1CCc2c(ccc(-n3ccc(OCc4cccc(OC)c4)n3)c2C)C1

>  <Energy>  (6) 
107.3977196778536

>  <Genealogy>  (6) 
CC[NH+]1CCc2c(ccc(-n3ccc(OCc4cccc(OC)c4)n3)c2C)C1 (protonated)
CC[N@@H+]1CCc2c(ccc(-n3ccc(OCc4cccc(OC)c4)n3)c2C)C1 (chirality)
CC[N@@H+]1CCc2c(ccc(-n3ccc(OCc4cccc(OC)c4)n3)c2C)C1 (3D coordinates assigned)
CC[N@@H+]1CCc2c(ccc(-n3ccc(OCc4cccc(OC)c4)n3)c2C)C1 (nonaromatic ring conformer: 107.3977196778536 kcal/mol)

>  <smiles>  (6) 
CCN1CCc2c(ccc(-n3ccc(OCc4cccc(OC)c4)n3)c2C)C1

>  <score_type>  (6) 
oracle

>  <origin>  (6) 
adg

>  <m_score__min__energy>  (6) 
-7.71

>  <m_primary>  (6) 
energy

$$$$
6:0
     RDKit          3D

 36 38  0  0  0  0  0  0  0  0999 V2000
   55.8900   19.5010   44.1060 C   0  0  0  0  0  0  0  0  0  0  0  0
   56.0820   20.6870   43.3430 O   0  0  0  0  0  0  0  0  0  0  0  0
   56.2200   21.9700   43.8930 C   0  0  0  0  0  0  0  0  0  0  0  0
   56.7470   23.0520   43.1610 C   0  0  0  0  0  0  0  0  0  0  0  0
   56.8610   24.3130   43.7550 C   0  0  0  0  0  0  0  0  0  0  0  0
   56.4510   24.5100   45.0790 C   0  0  0  0  0  0  0  0  0  0  0  0
   56.5840   26.1040   45.8140 S   0  0  0  0  0  0  0  0  0  0  0  0
   57.2580   25.9690   47.1500 O   0  0  0  0  0  0  0  0  0  0  0  0
   55.2240   26.7150   46.0100 O   0  0  0  0  0  0  0  0  0  0  0  0
   57.5320   27.1490   44.8050 N   0  0  0  0  0  0  0  0  0  0  0  0
   57.4680   28.5810   44.8060 C   0  0  0  0  0  0  0  0  0  0  0  0
   56.7260   29.2970   43.8480 C   0  0  0  0  0  0  0  0  0  0  0  0
   56.6940   30.6930   43.8760 C   0  0  0  0  0  0  0  0  0  0  0  0
   57.4010   31.3960   44.8620 C   0  0  0  0  0  0  0  0  0  0  0  0
   57.3760   32.7990   44.8980 C   0  0  0  0  0  0  0  0  0  0  0  0
   58.0850   33.4880   45.8860 C   0  0  0  0  0  0  0  0  0  0  0  0
   58.8210   32.7850   46.8440 C   0  0  0  0  0  0  0  0  0  0  0  0
   58.8540   31.3870   46.8180 C   0  0  0  0  0  0  0  0  0  0  0  0
   58.1460   30.6830   45.8300 C   0  0  0  0  0  0  0  0  0  0  0  0
   58.1720   29.2810   45.7940 C   0  0  0  0  0  0  0  0  0  0  0  0
   55.9320   23.4350   45.8100 C   0  0  0  0  0  0  0  0  0  0  0  0
   55.8160   22.1730   45.2180 C   0  0  0  0  0  0  0  0  0  0  0  0
   55.9294   19.7443   45.1780 H   0  0  0  0  0  0  0  0  0  0  0  0
   54.9095   19.0646   43.8648 H   0  0  0  0  0  0  0  0  0  0  0  0
   56.6827   18.7775   43.8648 H   0  0  0  0  0  0  0  0  0  0  0  0
   57.0696   22.9048   42.1197 H   0  0  0  0  0  0  0  0  0  0  0  0
   57.2748   25.1540   43.1792 H   0  0  0  0  0  0  0  0  0  0  0  0
   56.1674   28.7533   43.0718 H   0  0  0  0  0  0  0  0  0  0  0  0
   56.1120   31.2430   43.1218 H   0  0  0  0  0  0  0  0  0  0  0  0
   56.7974   33.3572   44.1473 H   0  0  0  0  0  0  0  0  0  0  0  0
   58.0637   34.5875   45.9097 H   0  0  0  0  0  0  0  0  0  0  0  0
   59.3756   33.3326   47.6203 H   0  0  0  0  0  0  0  0  0  0  0  0
   59.4357   30.8376   47.5729 H   0  0  0  0  0  0  0  0  0  0  0  0
   58.7501   28.7267   46.5480 H   0  0  0  0  0  0  0  0  0  0  0  0
   55.6145   23.5830   46.8527 H   0  0  0  0  0  0  0  0  0  0  0  0
   55.4043   21.3338   45.7978 H   0  0  0  0  0  0  0  0  0  0  0  0
  1  2  1  0
  2  3  1  0
  3  4  2  0
  4  5  1  0
  5  6  2  0
  6  7  1  0
  7  8  2  0
  7  9  2  0
  7 10  1  0
 10 11  1  0
 11 12  2  0
 12 13  1  0
 13 14  2  0
 14 15  1  0
 15 16  2  0
 16 17  1  0
 17 18  2  0
 18 19  1  0
 19 20  2  0
  6 21  1  0
 21 22  2  0
 22  3  1  0
 20 11  1  0
 19 14  1  0
  1 23  1  0
  1 24  1  0
  1 25  1  0
  4 26  1  0
  5 27  1  0
 12 28  1  0
 13 29  1  0
 15 30  1  0
 16 31  1  0
 17 32  1  0
 18 33  1  0
 20 34  1  0
 21 35  1  0
 22 36  1  0
M  CHG  1  10  -1
M  END
>  <UniqueID>  (7) 
7

>  <SMILES>  (7) 
COc1ccc(S(=O)(=O)[N-]c2ccc3ccccc3c2)cc1

>  <Energy>  (7) 
43.979290219434276

>  <Genealogy>  (7) 
COc1ccc(S(=O)(=O)[N-]c2ccc3ccccc3c2)cc1 (protonated)
COc1ccc(S(=O)(=O)[N-]c2ccc3ccccc3c2)cc1 (3D coordinates assigned)
COc1ccc(S(=O)(=O)[N-]c2ccc3ccccc3c2)cc1 (optimized conformer: 43.979290219434276 kcal/mol)

>  <smiles>  (7) 
COc1ccc(S(=O)(=O)Nc2ccc3ccccc3c2)cc1

>  <score_type>  (7) 
oracle

>  <origin>  (7) 
adg

>  <m_score__min__energy>  (7) 
-9.1199999999999992

>  <m_primary>  (7) 
energy

$$$$
7:0
     RDKit          3D

 37 40  0  0  0  0  0  0  0  0999 V2000
   57.8760   22.6980   46.0290 F   0  0  0  0  0  0  0  0  0  0  0  0
   57.9970   24.0460   46.0980 C   0  0  0  0  0  0  0  0  0  0  0  0
   59.2580   24.6410   45.9970 C   0  0  0  0  0  0  0  0  0  0  0  0
   59.3850   26.0320   46.0680 C   0  0  0  0  0  0  0  0  0  0  0  0
   58.2470   26.8400   46.2300 C   0  0  0  0  0  0  0  0  0  0  0  0
   58.3700   28.3100   46.3280 C   0  0  0  0  0  0  0  0  0  0  0  0
   59.2370   28.9990   47.1610 C   0  0  0  0  0  0  0  0  0  0  0  0
   59.1040   30.3310   46.9630 N   0  0  0  0  0  0  0  0  0  0  0  0
   58.1410   30.4220   46.0220 C   0  0  0  0  0  0  0  0  0  0  0  0
   57.6230   31.6010   45.4630 C   0  0  0  0  0  0  0  0  0  0  0  0
   58.0810   32.9140   45.8470 N   0  0  0  0  0  0  0  0  0  0  0  0
   58.2250   33.2410   47.2690 C   0  0  0  0  0  0  0  0  0  0  0  0
   59.3690   34.2410   47.4620 C   0  0  0  0  0  0  0  0  0  0  0  0
   59.2070   35.3590   46.6080 O   0  0  0  0  0  0  0  0  0  0  0  0
   59.3230   34.9490   45.2590 C   0  0  0  0  0  0  0  0  0  0  0  0
   58.1780   34.0080   44.8750 C   0  0  0  0  0  0  0  0  0  0  0  0
   56.6480   31.4720   44.5140 N   0  0  0  0  0  0  0  0  0  0  0  0
   56.1690   30.2540   44.1260 C   0  0  0  0  0  0  0  0  0  0  0  0
   56.6890   29.0880   44.7000 C   0  0  0  0  0  0  0  0  0  0  0  0
   57.6820   29.2250   45.6170 N   0  0  0  0  0  0  0  0  0  0  0  0
   56.9860   26.2330   46.3510 C   0  0  0  0  0  0  0  0  0  0  0  0
   56.8620   24.8420   46.2780 C   0  0  0  0  0  0  0  0  0  0  0  0
   60.1517   24.0142   45.8615 H   0  0  0  0  0  0  0  0  0  0  0  0
   60.3801   26.4954   45.9967 H   0  0  0  0  0  0  0  0  0  0  0  0
   59.9301   28.5326   47.8766 H   0  0  0  0  0  0  0  0  0  0  0  0
   57.2879   33.6835   47.6380 H   0  0  0  0  0  0  0  0  0  0  0  0
   58.4494   32.3221   47.8305 H   0  0  0  0  0  0  0  0  0  0  0  0
   59.3766   34.5834   48.5073 H   0  0  0  0  0  0  0  0  0  0  0  0
   60.3186   33.7432   47.2161 H   0  0  0  0  0  0  0  0  0  0  0  0
   59.2940   35.8359   44.6090 H   0  0  0  0  0  0  0  0  0  0  0  0
   60.2757   34.4133   45.1346 H   0  0  0  0  0  0  0  0  0  0  0  0
   57.2326   34.5702   44.8636 H   0  0  0  0  0  0  0  0  0  0  0  0
   58.3743   33.5885   43.8773 H   0  0  0  0  0  0  0  0  0  0  0  0
   55.3773   30.1891   43.3651 H   0  0  0  0  0  0  0  0  0  0  0  0
   56.3070   28.0956   44.4185 H   0  0  0  0  0  0  0  0  0  0  0  0
   56.0917   26.8549   46.5039 H   0  0  0  0  0  0  0  0  0  0  0  0
   55.8703   24.3737   46.3623 H   0  0  0  0  0  0  0  0  0  0  0  0
  1  2  1  0
  2  3  2  0
  3  4  1  0
  4  5  2  0
  5  6  1  0
  6  7  2  0
  7  8  1  0
  8  9  2  0
  9 10  1  0
 10 11  1  0
 11 12  1  0
 12 13  1  0
 13 14  1  0
 14 15  1  0
 15 16  1  0
 10 17  2  0
 17 18  1  0
 18 19  2  0
 19 20  1  0
  5 21  1  0
 21 22  2  0
 22  2  1  0
 20  6  1  0
 20  9  1  0
 16 11  1  0
  3 23  1  0
  4 24  1  0
  7 25  1  0
 12 26  1  0
 12 27  1  0
 13 28  1  0
 13 29  1  0
 15 30  1  0
 15 31  1  0
 16 32  1  0
 16 33  1  0
 18 34  1  0
 19 35  1  0
 21 36  1  0
 22 37  1  0
M  END
>  <UniqueID>  (8) 
8

>  <SMILES>  (8) 
Fc1ccc(-c2cnc3c(N4CCOCC4)nccn23)cc1

>  <Energy>  (8) 
87.72541619848147

>  <Genealogy>  (8) 
Fc1ccc(-c2cnc3c(N4CCOCC4)nccn23)cc1 (3D coordinates assigned)
Fc1ccc(-c2cnc3c(N4CCOCC4)nccn23)cc1 (nonaromatic ring conformer: 87.72541619848147 kcal/mol)

>  <smiles>  (8) 
Fc1ccc(-c2cnc3c(N4CCOCC4)nccn23)cc1

>  <score_type>  (8) 
oracle

>  <origin>  (8) 
adg

>  <m_score__min__energy>  (8) 
-6.5300000000000002

>  <m_primary>  (8) 
energy

$$$$
8:0
     RDKit          3D

 51 54  0  0  0  0  0  0  0  0999 V2000
   60.2880   28.2060   49.0020 C   0  0  0  0  0  0  0  0  0  0  0  0
   60.4040   27.3680   47.7300 C   0  0  0  0  0  0  0  0  0  0  0  0
   59.3790   27.7450   46.7290 N   0  0  0  0  0  0  0  0  0  0  0  0
   58.2400   26.7970   46.6440 C   0  0  0  0  0  0  0  0  0  0  0  0
   57.1130   27.2510   45.7040 C   0  0  0  0  0  0  0  0  0  0  0  0
   59.9820   28.0150   45.4040 C   0  0  0  0  0  0  0  0  0  0  0  0
   59.4960   29.3640   44.8680 C   0  0  0  0  0  0  0  0  0  0  0  0
   58.7640   30.0860   45.9070 N   0  0  0  0  0  0  0  0  0  0  0  0
   58.4700   31.4810   45.7660 C   0  0  0  0  0  0  0  0  0  0  0  0
   57.3970   31.9090   44.9530 C   0  0  0  0  0  0  0  0  0  0  0  0
   56.4050   30.7560   44.0730 Cl  0  0  0  0  0  0  0  0  0  0  0  0
   57.0930   33.2820   44.8610 C   0  0  0  0  0  0  0  0  0  0  0  0
   57.8320   34.2050   45.5380 N   0  0  0  0  0  0  0  0  0  0  0  0
   58.8730   33.8010   46.3040 C   0  0  0  0  0  0  0  0  0  0  0  0
   59.9190   34.8000   47.1740 S   0  0  0  0  0  0  0  0  0  0  0  0
   60.8600   33.5050   47.7180 C   0  0  0  0  0  0  0  0  0  0  0  0
   61.9940   33.5170   48.5200 C   0  0  0  0  0  0  0  0  0  0  0  0
   62.4270   34.6070   48.9850 O   0  0  0  0  0  0  0  0  0  0  0  0
   62.6160   32.3240   48.8030 N   0  0  0  0  0  0  0  0  0  0  0  0
   63.8000   32.2800   49.6250 C   0  0  0  0  0  0  0  0  0  0  0  0
   64.9070   33.0910   49.3180 C   0  0  0  0  0  0  0  0  0  0  0  0
   66.0520   33.0550   50.1200 C   0  0  0  0  0  0  0  0  0  0  0  0
   66.1000   32.2140   51.2350 C   0  0  0  0  0  0  0  0  0  0  0  0
   65.0020   31.4080   51.5520 C   0  0  0  0  0  0  0  0  0  0  0  0
   63.8550   31.4410   50.7530 C   0  0  0  0  0  0  0  0  0  0  0  0
   62.1120   31.1470   48.2980 C   0  0  0  0  0  0  0  0  0  0  0  0
   60.9990   31.1420   47.5120 N   0  0  0  0  0  0  0  0  0  0  0  0
   60.3690   32.3070   47.2290 C   0  0  0  0  0  0  0  0  0  0  0  0
   59.2260   32.4630   46.4310 C   0  0  0  0  0  0  0  0  0  0  0  0
   60.3786   27.5518   49.8816 H   0  0  0  0  0  0  0  0  0  0  0  0
   61.0906   28.9580   49.0201 H   0  0  0  0  0  0  0  0  0  0  0  0
   59.3113   28.7117   49.0201 H   0  0  0  0  0  0  0  0  0  0  0  0
   61.4019   27.5202   47.2928 H   0  0  0  0  0  0  0  0  0  0  0  0
   60.2478   26.3130   47.9995 H   0  0  0  0  0  0  0  0  0  0  0  0
   58.6217   25.8303   46.2836 H   0  0  0  0  0  0  0  0  0  0  0  0
   57.8049   26.7337   47.6523 H   0  0  0  0  0  0  0  0  0  0  0  0
   56.2554   27.5965   46.2999 H   0  0  0  0  0  0  0  0  0  0  0  0
   57.4739   28.0739   45.0695 H   0  0  0  0  0  0  0  0  0  0  0  0
   56.8027   26.4077   45.0695 H   0  0  0  0  0  0  0  0  0  0  0  0
   61.0776   28.0356   45.5006 H   0  0  0  0  0  0  0  0  0  0  0  0
   59.6820   27.2211   44.7042 H   0  0  0  0  0  0  0  0  0  0  0  0
   60.3627   29.9628   44.5514 H   0  0  0  0  0  0  0  0  0  0  0  0
   58.8268   29.1902   44.0124 H   0  0  0  0  0  0  0  0  0  0  0  0
   58.7830   29.6840   46.8720 H   0  0  0  0  0  0  0  0  0  0  0  0
   56.2501   33.6120   44.2360 H   0  0  0  0  0  0  0  0  0  0  0  0
   64.8721   33.7567   48.4430 H   0  0  0  0  0  0  0  0  0  0  0  0
   66.9159   33.6895   49.8729 H   0  0  0  0  0  0  0  0  0  0  0  0
   67.0021   32.1860   51.8638 H   0  0  0  0  0  0  0  0  0  0  0  0
   65.0407   30.7474   52.4307 H   0  0  0  0  0  0  0  0  0  0  0  0
   62.9919   30.8082   51.0075 H   0  0  0  0  0  0  0  0  0  0  0  0
   62.6148   30.1971   48.5322 H   0  0  0  0  0  0  0  0  0  0  0  0
  1  2  1  0
  2  3  1  0
  3  4  1  0
  4  5  1  0
  3  6  1  0
  6  7  1  0
  7  8  1  0
  8  9  1  0
  9 10  2  0
 10 11  1  0
 10 12  1  0
 12 13  2  0
 13 14  1  0
 14 15  1  0
 15 16  1  0
 16 17  1  0
 17 18  2  0
 17 19  1  0
 19 20  1  0
 20 21  2  0
 21 22  1  0
 22 23  2  0
 23 24  1  0
 24 25  2  0
 19 26  1  0
 26 27  2  0
 27 28  1  0
 28 29  1  0
 29  9  1  0
 29 14  2  0
 28 16  2  0
 25 20  1  0
  1 30  1  0
  1 31  1  0
  1 32  1  0
  2 33  1  0
  2 34  1  0
  4 35  1  0
  4 36  1  0
  5 37  1  0
  5 38  1  0
  5 39  1  0
  6 40  1  0
  6 41  1  0
  7 42  1  0
  7 43  1  0
  8 44  1  0
 12 45  1  0
 21 46  1  0
 22 47  1  0
 23 48  1  0
 24 49  1  0
 25 50  1  0
 26 51  1  0
M  END
>  <UniqueID>  (9) 
9

>  <SMILES>  (9) 
CCN(CC)CCNc1c(Cl)cnc2sc3c(=O)n(-c4ccccc4)cnc3c12

>  <Energy>  (9) 
108.10361926290297

>  <Genealogy>  (9) 
CCN(CC)CCNc1c(Cl)cnc2sc3c(=O)n(-c4ccccc4)cnc3c12 (3D coordinates assigned)
CCN(CC)CCNc1c(Cl)cnc2sc3c(=O)n(-c4ccccc4)cnc3c12 (optimized conformer: 108.10361926290297 kcal/mol)

>  <smiles>  (9) 
CCN(CC)CCNc1c(Cl)cnc2sc3c(=O)n(-c4ccccc4)cnc3c12

>  <score_type>  (9) 
oracle

>  <origin>  (9) 
adg

>  <m_score__min__energy>  (9) 
-7.3899999999999997

>  <m_primary>  (9) 
energy

$$$$
9:0
     RDKit          3D

 29 28  0  0  0  0  0  0  0  0999 V2000
   56.6640   29.4120   44.8780 C   0  0  0  0  0  0  0  0  0  0  0  0
   56.2140   30.7580   44.8610 O   0  0  0  0  0  0  0  0  0  0  0  0
   57.2670   31.6450   44.8020 N   0  0  0  0  0  0  0  0  0  0  0  0
   57.7490   31.9010   43.4320 C   0  0  0  0  0  0  0  0  0  0  0  0
   57.0420   32.8580   45.6180 C   0  0  0  0  0  0  0  0  0  0  0  0
   58.1140   33.0020   46.7260 C   0  0  0  0  0  0  0  0  0  0  0  0
   59.2510   33.9290   46.4270 N   0  0  0  0  0  0  0  0  0  0  0  0
   60.5510   33.2140   46.4430 C   0  0  0  0  0  0  0  0  0  0  0  0
   59.0740   34.6110   45.1230 C   0  0  0  0  0  0  0  0  0  0  0  0
   59.2840   34.9640   47.4900 C   0  0  0  0  0  0  0  0  0  0  0  0
   56.7763   29.0761   45.9194 H   0  0  0  0  0  0  0  0  0  0  0  0
   55.9304   28.7736   44.3639 H   0  0  0  0  0  0  0  0  0  0  0  0
   57.6340   29.3432   44.3639 H   0  0  0  0  0  0  0  0  0  0  0  0
   58.7197   32.4166   43.4752 H   0  0  0  0  0  0  0  0  0  0  0  0
   57.8647   30.9455   42.8995 H   0  0  0  0  0  0  0  0  0  0  0  0
   57.0221   32.5319   42.8995 H   0  0  0  0  0  0  0  0  0  0  0  0
   57.0826   33.7416   44.9641 H   0  0  0  0  0  0  0  0  0  0  0  0
   56.0566   32.7728   46.0994 H   0  0  0  0  0  0  0  0  0  0  0  0
   57.6119   33.3681   47.6337 H   0  0  0  0  0  0  0  0  0  0  0  0
   58.5661   32.0047   46.8307 H   0  0  0  0  0  0  0  0  0  0  0  0
   60.8625   33.0427   47.4840 H   0  0  0  0  0  0  0  0  0  0  0  0
   60.4443   32.2476   45.9284 H   0  0  0  0  0  0  0  0  0  0  0  0
   61.3100   33.8216   45.9284 H   0  0  0  0  0  0  0  0  0  0  0  0
   58.8010   35.6629   45.2934 H   0  0  0  0  0  0  0  0  0  0  0  0
   60.0142   34.5638   44.5539 H   0  0  0  0  0  0  0  0  0  0  0  0
   58.2755   34.1125   44.5539 H   0  0  0  0  0  0  0  0  0  0  0  0
   59.2685   34.4772   48.4763 H   0  0  0  0  0  0  0  0  0  0  0  0
   60.2017   35.5624   47.3908 H   0  0  0  0  0  0  0  0  0  0  0  0
   58.4063   35.6196   47.3908 H   0  0  0  0  0  0  0  0  0  0  0  0
  1  2  1  0
  2  3  1  0
  3  4  1  0
  3  5  1  0
  5  6  1  0
  6  7  1  0
  7  8  1  0
  7  9  1  0
  7 10  1  0
  1 11  1  0
  1 12  1  0
  1 13  1  0
  4 14  1  0
  4 15  1  0
  4 16  1  0
  5 17  1  0
  5 18  1  0
  6 19  1  0
  6 20  1  0
  8 21  1  0
  8 22  1  0
  8 23  1  0
  9 24  1  0
  9 25  1  0
  9 26  1  0
 10 27  1  0
 10 28  1  0
 10 29  1  0
M  CHG  1   7   1
M  END
>  <UniqueID>  (10) 
10

>  <SMILES>  (10) 
CON(C)CC[N+](C)(C)C

>  <Energy>  (10) 
42.875310520442795

>  <Genealogy>  (10) 
CON(C)CC[N+](C)(C)C (3D coordinates assigned)
CON(C)CC[N+](C)(C)C (optimized conformer: 42.875310520442795 kcal/mol)

>  <smiles>  (10) 
CON(C)CC[N+](C)(C)C

>  <score_type>  (10) 
oracle

>  <origin>  (10) 
adg

>  <m_score__min__energy>  (10) 
-2.79

>  <m_primary>  (10) 
energy

$$$$
10:0
     RDKit          3D

 46 49  0  0  0  0  0  0  0  0999 V2000
   59.5110   28.5030   48.6780 C   0  0  0  0  0  0  0  0  0  0  0  0
   59.0310   27.3520   47.8990 N   0  0  0  0  0  0  0  0  0  0  0  0
   60.1160   26.7680   47.0710 C   0  0  0  0  0  0  0  0  0  0  0  0
   60.0210   27.1960   45.6000 C   0  0  0  0  0  0  0  0  0  0  0  0
   58.7390   26.7640   44.9880 N   0  0  0  0  0  0  0  0  0  0  0  0
   58.4220   27.5630   43.7840 C   0  0  0  0  0  0  0  0  0  0  0  0
   57.8910   28.9230   44.1630 C   0  0  0  0  0  0  0  0  0  0  0  0
   56.6240   29.3390   43.7340 C   0  0  0  0  0  0  0  0  0  0  0  0
   56.1420   30.5850   44.1300 C   0  0  0  0  0  0  0  0  0  0  0  0
   56.8980   31.3890   44.9230 N   0  0  0  0  0  0  0  0  0  0  0  0
   58.1360   31.0240   45.3580 C   0  0  0  0  0  0  0  0  0  0  0  0
   58.9010   31.9520   46.2320 C   0  0  0  0  0  0  0  0  0  0  0  0
   58.3290   33.1420   46.7210 C   0  0  0  0  0  0  0  0  0  0  0  0
   59.0450   33.9710   47.5260 N   0  0  0  0  0  0  0  0  0  0  0  0
   60.3240   33.6920   47.8890 C   0  0  0  0  0  0  0  0  0  0  0  0
   61.0280   34.5750   48.7170 C   0  0  0  0  0  0  0  0  0  0  0  0
   62.3430   34.2810   49.0920 C   0  0  0  0  0  0  0  0  0  0  0  0
   62.9580   33.1080   48.6430 C   0  0  0  0  0  0  0  0  0  0  0  0
   62.2610   32.2200   47.8160 C   0  0  0  0  0  0  0  0  0  0  0  0
   60.9410   32.5080   47.4360 C   0  0  0  0  0  0  0  0  0  0  0  0
   60.2180   31.6390   46.6080 C   0  0  0  0  0  0  0  0  0  0  0  0
   58.6490   29.7680   44.9860 C   0  0  0  0  0  0  0  0  0  0  0  0
   57.6050   26.7560   45.9480 C   0  0  0  0  0  0  0  0  0  0  0  0
   57.8280   27.7220   47.1200 C   0  0  0  0  0  0  0  0  0  0  0  0
   59.4192   28.2829   49.7518 H   0  0  0  0  0  0  0  0  0  0  0  0
   60.5654   28.6979   48.4325 H   0  0  0  0  0  0  0  0  0  0  0  0
   58.9075   29.3893   48.4325 H   0  0  0  0  0  0  0  0  0  0  0  0
   61.0850   27.0982   47.4736 H   0  0  0  0  0  0  0  0  0  0  0  0
   60.0168   25.6732   47.1099 H   0  0  0  0  0  0  0  0  0  0  0  0
   60.0933   28.2921   45.5415 H   0  0  0  0  0  0  0  0  0  0  0  0
   60.8443   26.7186   45.0484 H   0  0  0  0  0  0  0  0  0  0  0  0
   59.3356   27.6878   43.1841 H   0  0  0  0  0  0  0  0  0  0  0  0
   57.6505   27.0341   43.2051 H   0  0  0  0  0  0  0  0  0  0  0  0
   56.0148   28.6876   43.0901 H   0  0  0  0  0  0  0  0  0  0  0  0
   55.1471   30.9186   43.7999 H   0  0  0  0  0  0  0  0  0  0  0  0
   57.2954   33.4027   46.4497 H   0  0  0  0  0  0  0  0  0  0  0  0
   60.5475   35.4986   49.0720 H   0  0  0  0  0  0  0  0  0  0  0  0
   62.8955   34.9750   49.7425 H   0  0  0  0  0  0  0  0  0  0  0  0
   63.9927   32.8827   48.9408 H   0  0  0  0  0  0  0  0  0  0  0  0
   62.7468   31.2979   47.4644 H   0  0  0  0  0  0  0  0  0  0  0  0
   60.6833   30.7083   46.2511 H   0  0  0  0  0  0  0  0  0  0  0  0
   59.6410   29.4501   45.3394 H   0  0  0  0  0  0  0  0  0  0  0  0
   56.6887   27.0510   45.4157 H   0  0  0  0  0  0  0  0  0  0  0  0
   57.5201   25.7398   46.3605 H   0  0  0  0  0  0  0  0  0  0  0  0
   57.9557   28.7409   46.7255 H   0  0  0  0  0  0  0  0  0  0  0  0
   56.9534   27.6695   47.7851 H   0  0  0  0  0  0  0  0  0  0  0  0
  1  2  1  0
  2  3  1  0
  3  4  1  0
  4  5  1  0
  5  6  1  0
  6  7  1  0
  7  8  2  0
  8  9  1  0
  9 10  2  0
 10 11  1  0
 11 12  1  0
 12 13  2  0
 13 14  1  0
 14 15  2  0
 15 16  1  0
 16 17  2  0
 17 18  1  0
 18 19  2  0
 19 20  1  0
 20 21  2  0
 11 22  2  0
  5 23  1  0
 23 24  1  0
 24  2  1  0
 22  7  1  0
 21 12  1  0
 20 15  1  0
  1 25  1  0
  1 26  1  0
  1 27  1  0
  3 28  1  0
  3 29  1  0
  4 30  1  0
  4 31  1  0
  6 32  1  0
  6 33  1  0
  8 34  1  0
  9 35  1  0
 13 36  1  0
 16 37  1  0
 17 38  1  0
 18 39  1  0
 19 40  1  0
 21 41  1  0
 22 42  1  0
 23 43  1  0
 23 44  1  0
 24 45  1  0
 24 46  1  0
M  END
>  <UniqueID>  (11) 
11

>  <SMILES>  (11) 
CN1CCN(Cc2ccnc(-c3cnc4ccccc4c3)c2)CC1

>  <Energy>  (11) 
69.27245443382105

>  <Genealogy>  (11) 
CN1CCN(Cc2ccnc(-c3cnc4ccccc4c3)c2)CC1 (3D coordinates assigned)
CN1CCN(Cc2ccnc(-c3cnc4ccccc4c3)c2)CC1 (nonaromatic ring conformer: 69.27245443382105 kcal/mol)

>  <smiles>  (11) 
CN1CCN(Cc2ccnc(-c3cnc4ccccc4c3)c2)CC1

>  <score_type>  (11) 
oracle

>  <origin>  (11) 
adg

>  <m_score__min__energy>  (11) 
-8.3499999999999996

>  <m_primary>  (11) 
energy

$$$$
11:0
     RDKit          3D

 34 35  0  0  0  0  0  0  0  0999 V2000
   55.1480   29.3420   44.8000 O   0  0  0  0  0  0  0  0  0  0  0  0
   56.3900   29.3390   45.0030 C   0  0  0  0  0  0  0  0  0  0  0  0
   57.1430   28.0380   44.8850 C   0  0  0  0  0  0  0  0  0  0  0  0
   56.8440   27.1130   46.0690 C   0  0  0  0  0  0  0  0  0  0  0  0
   55.4810   26.5960   46.0000 N   0  0  0  0  0  0  0  0  0  0  0  0
   55.1670   25.2280   45.7240 C   0  0  0  0  0  0  0  0  0  0  0  0
   54.0150   24.7760   45.9680 O   0  0  0  0  0  0  0  0  0  0  0  0
   56.1800   24.3480   45.1330 C   0  0  0  0  0  0  0  0  0  0  0  0
   56.1190   23.7630   43.8840 C   0  0  0  0  0  0  0  0  0  0  0  0
   57.2700   23.0150   43.7680 C   0  0  0  0  0  0  0  0  0  0  0  0
   57.9620   23.1900   44.9500 C   0  0  0  0  0  0  0  0  0  0  0  0
   57.2860   23.9910   45.7430 O   0  0  0  0  0  0  0  0  0  0  0  0
   57.0280   30.5670   45.3770 N   0  0  0  0  0  0  0  0  0  0  0  0
   58.4280   30.7020   45.7610 C   0  0  0  0  0  0  0  0  0  0  0  0
   58.7500   32.1570   45.9760 C   0  0  0  0  0  0  0  0  0  0  0  0
   59.1700   32.5920   47.2460 C   0  0  0  0  0  0  0  0  0  0  0  0
   59.4520   33.9400   47.4760 C   0  0  0  0  0  0  0  0  0  0  0  0
   59.3110   34.8700   46.4450 C   0  0  0  0  0  0  0  0  0  0  0  0
   58.8830   34.4540   45.1820 C   0  0  0  0  0  0  0  0  0  0  0  0
   58.5970   33.1040   44.9400 C   0  0  0  0  0  0  0  0  0  0  0  0
   58.0430   32.6400   43.3350 Cl  0  0  0  0  0  0  0  0  0  0  0  0
   56.8455   27.5349   43.9531 H   0  0  0  0  0  0  0  0  0  0  0  0
   58.2205   28.2594   44.8806 H   0  0  0  0  0  0  0  0  0  0  0  0
   57.5496   26.2693   46.0530 H   0  0  0  0  0  0  0  0  0  0  0  0
   56.9525   27.6898   46.9994 H   0  0  0  0  0  0  0  0  0  0  0  0
   55.3185   23.8715   43.1374 H   0  0  0  0  0  0  0  0  0  0  0  0
   57.5760   22.4020   42.9074 H   0  0  0  0  0  0  0  0  0  0  0  0
   58.9313   22.7293   45.1912 H   0  0  0  0  0  0  0  0  0  0  0  0
   58.6084   30.1448   46.6921 H   0  0  0  0  0  0  0  0  0  0  0  0
   59.0683   30.2982   44.9629 H   0  0  0  0  0  0  0  0  0  0  0  0
   59.2771   31.8646   48.0642 H   0  0  0  0  0  0  0  0  0  0  0  0
   59.7857   34.2694   48.4711 H   0  0  0  0  0  0  0  0  0  0  0  0
   59.5370   35.9310   46.6270 H   0  0  0  0  0  0  0  0  0  0  0  0
   58.7699   35.1906   44.3729 H   0  0  0  0  0  0  0  0  0  0  0  0
  1  2  2  0
  2  3  1  0
  3  4  1  0
  4  5  1  0
  5  6  1  0
  6  7  2  0
  6  8  1  0
  8  9  2  0
  9 10  1  0
 10 11  2  0
 11 12  1  0
  2 13  1  0
 13 14  1  0
 14 15  1  0
 15 16  2  0
 16 17  1  0
 17 18  2  0
 18 19  1  0
 19 20  2  0
 20 21  1  0
 12  8  1  0
 20 15  1  0
  3 22  1  0
  3 23  1  0
  4 24  1  0
  4 25  1  0
  9 26  1  0
 10 27  1  0
 11 28  1  0
 14 29  1  0
 14 30  1  0
 16 31  1  0
 17 32  1  0
 18 33  1  0
 19 34  1  0
M  CHG  2   5  -1  13  -1
M  END
>  <UniqueID>  (12) 
12

>  <SMILES>  (12) 
O=C(CC[N-]C(=O)c1ccco1)[N-]Cc1ccccc1Cl

>  <Energy>  (12) 
51.8230758769045

>  <Genealogy>  (12) 
O=C(CC[N-]C(=O)c1ccco1)[N-]Cc1ccccc1Cl (protonated)
O=C(CC[N-]C(=O)c1ccco1)[N-]Cc1ccccc1Cl (3D coordinates assigned)
O=C(CC[N-]C(=O)c1ccco1)[N-]Cc1ccccc1Cl (optimized conformer: 51.8230758769045 kcal/mol)

>  <smiles>  (12) 
O=C(CCNC(=O)c1ccco1)NCc1ccccc1Cl

>  <score_type>  (12) 
oracle

>  <origin>  (12) 
adg

>  <m_score__min__energy>  (12) 
-11.31

>  <m_primary>  (12) 
energy

$$$$
12:0
     RDKit          3D

 31 31  0  0  0  0  0  0  0  0999 V2000
   58.7210   22.5980   44.8670 C   0  0  0  0  0  0  0  0  0  0  0  0
   57.3560   22.8350   44.2150 C   0  0  0  0  0  0  0  0  0  0  0  0
   56.3060   23.1470   45.1990 N   0  0  0  0  0  0  0  0  0  0  0  0
   55.3390   24.1250   44.6870 C   0  0  0  0  0  0  0  0  0  0  0  0
   55.1830   25.2350   45.6760 C   0  0  0  0  0  0  0  0  0  0  0  0
   54.1580   25.9660   45.6400 O   0  0  0  0  0  0  0  0  0  0  0  0
   56.1760   25.4240   46.6900 N   0  0  0  0  0  0  0  0  0  0  0  0
   57.5820   25.6830   46.4030 C   0  0  0  0  0  0  0  0  0  0  0  0
   57.8090   27.1530   46.1780 C   0  0  0  0  0  0  0  0  0  0  0  0
   58.8010   27.8380   46.8890 C   0  0  0  0  0  0  0  0  0  0  0  0
   58.9880   29.2080   46.6930 C   0  0  0  0  0  0  0  0  0  0  0  0
   58.1930   29.9110   45.7810 C   0  0  0  0  0  0  0  0  0  0  0  0
   58.4720   31.8060   45.6510 Br  0  0  0  0  0  0  0  0  0  0  0  0
   57.1920   29.2310   45.0480 C   0  0  0  0  0  0  0  0  0  0  0  0
   56.3570   29.9080   44.0920 N   0  0  0  0  0  0  0  0  0  0  0  0
   56.6120   29.8560   42.8720 O   0  0  0  0  0  0  0  0  0  0  0  0
   55.1700   30.4750   44.4950 O   0  0  0  0  0  0  0  0  0  0  0  0
   57.0040   27.8540   45.2670 C   0  0  0  0  0  0  0  0  0  0  0  0
   58.6128   22.6168   45.9615 H   0  0  0  0  0  0  0  0  0  0  0  0
   59.1118   21.6186   44.5539 H   0  0  0  0  0  0  0  0  0  0  0  0
   59.4191   23.3884   44.5539 H   0  0  0  0  0  0  0  0  0  0  0  0
   57.4423   23.6772   43.5126 H   0  0  0  0  0  0  0  0  0  0  0  0
   57.0662   21.9067   43.7009 H   0  0  0  0  0  0  0  0  0  0  0  0
   56.7490   23.5250   46.0690 H   0  0  0  0  0  0  0  0  0  0  0  0
   55.7008   24.5330   43.7317 H   0  0  0  0  0  0  0  0  0  0  0  0
   54.3675   23.6334   44.5308 H   0  0  0  0  0  0  0  0  0  0  0  0
   58.1933   25.3479   47.2539 H   0  0  0  0  0  0  0  0  0  0  0  0
   57.8675   25.1345   45.4933 H   0  0  0  0  0  0  0  0  0  0  0  0
   59.4358   27.2952   47.6049 H   0  0  0  0  0  0  0  0  0  0  0  0
   59.7667   29.7389   47.2603 H   0  0  0  0  0  0  0  0  0  0  0  0
   56.2155   27.3197   44.7168 H   0  0  0  0  0  0  0  0  0  0  0  0
  1  2  1  0
  2  3  1  0
  3  4  1  0
  4  5  1  0
  5  6  2  0
  5  7  1  0
  7  8  1  0
  8  9  1  0
  9 10  2  0
 10 11  1  0
 11 12  2  0
 12 13  1  0
 12 14  1  0
 14 15  1  0
 15 16  2  0
 15 17  1  0
 14 18  2  0
 18  9  1  0
  1 19  1  0
  1 20  1  0
  1 21  1  0
  2 22  1  0
  2 23  1  0
  3 24  1  0
  4 25  1  0
  4 26  1  0
  8 27  1  0
  8 28  1  0
 10 29  1  0
 11 30  1  0
 18 31  1  0
M  CHG  3   7  -1  15   1  17  -1
M  END
>  <UniqueID>  (13) 
13

>  <SMILES>  (13) 
CCNCC(=O)[N-]Cc1ccc(Br)c([N+](=O)[O-])c1

>  <Energy>  (13) 
28.178104978889067

>  <Genealogy>  (13) 
CCNCC(=O)[N-]Cc1ccc(Br)c([N+](=O)[O-])c1 (protonated)
CCNCC(=O)[N-]Cc1ccc(Br)c([N+](=O)[O-])c1 (3D coordinates assigned)
CCNCC(=O)[N-]Cc1ccc(Br)c([N+](=O)[O-])c1 (optimized conformer: 28.178104978889067 kcal/mol)

>  <smiles>  (13) 
CCNCC(=O)NCc1ccc(Br)c([N+](=O)[O-])c1

>  <score_type>  (13) 
oracle

>  <origin>  (13) 
adg

>  <m_score__min__energy>  (13) 
-8.6400000000000006

>  <m_primary>  (13) 
energy

$$$$
13:0
     RDKit          3D

 47 49  0  0  0  0  0  0  0  0999 V2000
   60.6200   28.1280   47.8060 O   0  0  0  0  0  0  0  0  0  0  0  0
   59.9550   29.0950   47.3400 C   0  0  0  0  0  0  0  0  0  0  0  0
   60.1440   30.4150   47.8670 N   0  0  0  0  0  0  0  0  0  0  0  0
   61.1140   30.6810   48.9300 C   0  0  0  0  0  0  0  0  0  0  0  0
   62.0130   31.8330   48.5540 C   0  0  0  0  0  0  0  0  0  0  0  0
   62.9460   31.6720   47.5150 C   0  0  0  0  0  0  0  0  0  0  0  0
   63.7720   32.7340   47.1350 C   0  0  0  0  0  0  0  0  0  0  0  0
   63.6680   33.9660   47.7790 C   0  0  0  0  0  0  0  0  0  0  0  0
   62.7350   34.1450   48.8030 C   0  0  0  0  0  0  0  0  0  0  0  0
   61.9020   33.0880   49.1920 C   0  0  0  0  0  0  0  0  0  0  0  0
   60.7260   33.3750   50.4700 Cl  0  0  0  0  0  0  0  0  0  0  0  0
   58.9200   28.8500   46.2710 C   0  0  2  0  0  0  0  0  0  0  0  0
   58.8060   27.3410   45.9630 C   0  0  0  0  0  0  0  0  0  0  0  0
   58.2450   27.0670   44.5550 C   0  0  0  0  0  0  0  0  0  0  0  0
   57.3920   28.2370   44.0570 C   0  0  0  0  0  0  0  0  0  0  0  0
   58.1880   29.4810   43.9410 N   0  0  0  0  0  0  0  0  0  0  0  0
   57.1230   30.8660   43.8910 S   0  0  0  0  0  0  0  0  0  0  0  0
   56.8910   31.2850   42.4660 O   0  0  0  0  0  0  0  0  0  0  0  0
   55.8000   30.5070   44.5070 O   0  0  0  0  0  0  0  0  0  0  0  0
   57.8270   32.2000   44.8030 C   0  0  0  0  0  0  0  0  0  0  0  0
   58.3960   33.2860   44.1220 C   0  0  0  0  0  0  0  0  0  0  0  0
   58.9380   34.3580   44.8370 C   0  0  0  0  0  0  0  0  0  0  0  0
   58.9110   34.3520   46.2350 C   0  0  0  0  0  0  0  0  0  0  0  0
   58.3370   33.2760   46.9190 C   0  0  0  0  0  0  0  0  0  0  0  0
   58.3050   33.2730   48.2750 F   0  0  0  0  0  0  0  0  0  0  0  0
   57.7950   32.2010   46.2050 C   0  0  0  0  0  0  0  0  0  0  0  0
   59.2300   29.6470   44.9870 C   0  0  0  0  0  0  0  0  0  0  0  0
   59.5660   31.1980   47.4840 H   0  0  0  0  0  0  0  0  0  0  0  0
   60.5756   30.9302   49.8563 H   0  0  0  0  0  0  0  0  0  0  0  0
   61.7320   29.7832   49.0783 H   0  0  0  0  0  0  0  0  0  0  0  0
   63.0267   30.7045   46.9978 H   0  0  0  0  0  0  0  0  0  0  0  0
   64.5052   32.5972   46.3265 H   0  0  0  0  0  0  0  0  0  0  0  0
   64.3218   34.7986   47.4802 H   0  0  0  0  0  0  0  0  0  0  0  0
   62.6540   35.1199   49.3060 H   0  0  0  0  0  0  0  0  0  0  0  0
   57.9522   29.2046   46.6551 H   0  0  0  0  0  0  0  0  0  0  0  0
   59.8060   26.8891   46.0383 H   0  0  0  0  0  0  0  0  0  0  0  0
   58.1082   26.9030   46.6918 H   0  0  0  0  0  0  0  0  0  0  0  0
   59.0831   26.9133   43.8593 H   0  0  0  0  0  0  0  0  0  0  0  0
   57.6092   26.1706   44.6036 H   0  0  0  0  0  0  0  0  0  0  0  0
   56.9799   27.9834   43.0692 H   0  0  0  0  0  0  0  0  0  0  0  0
   56.5864   28.4104   44.7857 H   0  0  0  0  0  0  0  0  0  0  0  0
   58.4158   33.2943   43.0222 H   0  0  0  0  0  0  0  0  0  0  0  0
   59.3860   35.2068   44.2995 H   0  0  0  0  0  0  0  0  0  0  0  0
   59.3415   35.1940   46.7969 H   0  0  0  0  0  0  0  0  0  0  0  0
   57.3432   31.3555   46.7445 H   0  0  0  0  0  0  0  0  0  0  0  0
   60.1926   29.3010   44.5823 H   0  0  0  0  0  0  0  0  0  0  0  0
   59.2608   30.7127   45.2578 H   0  0  0  0  0  0  0  0  0  0  0  0
  1  2  2  0
  2  3  1  0
  3  4  1  0
  4  5  1  0
  5  6  2  0
  6  7  1  0
  7  8  2  0
  8  9  1  0
  9 10  2  0
 10 11  1  0
  2 12  1  0
 12 13  1  0
 13 14  1  0
 14 15  1  0
 15 16  1  0
 16 17  1  0
 17 18  2  0
 17 19  2  0
 17 20  1  0
 20 21  2  0
 21 22  1  0
 22 23  2  0
 23 24  1  0
 24 25  1  0
 24 26  2  0
 16 27  1  0
 10  5  1  0
 27 12  1  0
 26 20  1  0
  3 28  1  0
  4 29  1  0
  4 30  1  0
  6 31  1  0
  7 32  1  0
  8 33  1  0
  9 34  1  0
 12 35  1  1
 13 36  1  0
 13 37  1  0
 14 38  1  0
 14 39  1  0
 15 40  1  0
 15 41  1  0
 21 42  1  0
 22 43  1  0
 23 44  1  0
 26 45  1  0
 27 46  1  0
 27 47  1  0
M  END
>  <UniqueID>  (14) 
14

>  <SMILES>  (14) 
O=C(NCc1ccccc1Cl)[C@@H]1CCCN(S(=O)(=O)c2cccc(F)c2)C1

>  <Energy>  (14) 
52.692341414719344

>  <Genealogy>  (14) 
O=C(NCc1ccccc1Cl)[C@@H]1CCCN(S(=O)(=O)c2cccc(F)c2)C1 (chirality)
O=C(NCc1ccccc1Cl)[C@@H]1CCCN(S(=O)(=O)c2cccc(F)c2)C1 (3D coordinates assigned)
O=C(NCc1ccccc1Cl)[C@@H]1CCCN(S(=O)(=O)c2cccc(F)c2)C1 (nonaromatic ring conformer: 52.692341414719344 kcal/mol)

>  <smiles>  (14) 
O=C(NCc1ccccc1Cl)C1CCCN(S(=O)(=O)c2cccc(F)c2)C1

>  <score_type>  (14) 
oracle

>  <origin>  (14) 
adg

>  <m_score__min__energy>  (14) 
-9.0099999999999998

>  <m_primary>  (14) 
energy

$$$$
14:0
     RDKit          3D

 57 60  0  0  0  0  0  0  0  0999 V2000
   57.3800   32.3420   44.7290 C   0  0  0  0  0  0  0  0  0  0  0  0
   56.9600   31.0610   45.1850 O   0  0  0  0  0  0  0  0  0  0  0  0
   57.5880   29.8500   44.8440 C   0  0  0  0  0  0  0  0  0  0  0  0
   57.1120   29.0290   43.8020 C   0  0  0  0  0  0  0  0  0  0  0  0
   57.7770   27.8430   43.4780 C   0  0  0  0  0  0  0  0  0  0  0  0
   58.9190   27.4640   44.1840 C   0  0  0  0  0  0  0  0  0  0  0  0
   59.3990   28.2680   45.2200 C   0  0  0  0  0  0  0  0  0  0  0  0
   58.7350   29.4560   45.5610 C   0  0  0  0  0  0  0  0  0  0  0  0
   59.2240   30.2510   46.6520 N   0  0  0  0  0  0  0  0  0  0  0  0
   58.5280   30.1970   47.9440 C   0  0  0  0  0  0  0  0  0  0  0  0
   59.2580   31.0150   49.0170 C   0  0  0  0  0  0  0  0  0  0  0  0
   60.7070   30.7430   48.9810 N   0  0  0  0  0  0  0  0  0  0  0  0
   61.4870   30.6350   50.1930 C   0  0  0  0  0  0  0  0  0  0  0  0
   62.6540   30.1520   50.1360 O   0  0  0  0  0  0  0  0  0  0  0  0
   60.9180   31.0360   51.5340 C   0  0  0  0  0  0  0  0  0  0  0  0
   61.3610   32.4360   51.9790 C   0  0  0  0  0  0  0  0  0  0  0  0
   60.8700   33.4620   51.0000 C   0  0  0  0  0  0  0  0  0  0  0  0
   59.8630   34.1610   51.2900 O   0  0  0  0  0  0  0  0  0  0  0  0
   61.5780   33.7060   49.7730 N   0  0  0  0  0  0  0  0  0  0  0  0
   63.0430   33.8290   49.7950 C   0  0  0  0  0  0  0  0  0  0  0  0
   63.6400   33.1880   48.5390 C   0  0  0  0  0  0  0  0  0  0  0  0
   63.0020   33.6960   47.3680 O   0  0  0  0  0  0  0  0  0  0  0  0
   61.6250   33.9400   47.3300 C   0  0  0  0  0  0  0  0  0  0  0  0
   60.9990   34.2140   46.1110 C   0  0  0  0  0  0  0  0  0  0  0  0
   59.6250   34.4690   46.0700 C   0  0  0  0  0  0  0  0  0  0  0  0
   58.8770   34.4610   47.2500 C   0  0  0  0  0  0  0  0  0  0  0  0
   59.4980   34.1950   48.4750 C   0  0  0  0  0  0  0  0  0  0  0  0
   60.8820   33.9280   48.5250 C   0  0  0  0  0  0  0  0  0  0  0  0
   61.4070   30.6610   47.6870 C   0  0  0  0  0  0  0  0  0  0  0  0
   60.4790   30.9950   46.5160 C   0  0  0  0  0  0  0  0  0  0  0  0
   57.5917   32.9878   45.5939 H   0  0  0  0  0  0  0  0  0  0  0  0
   58.2899   32.2343   44.1203 H   0  0  0  0  0  0  0  0  0  0  0  0
   56.5830   32.7940   44.1203 H   0  0  0  0  0  0  0  0  0  0  0  0
   56.2127   29.3230   43.2409 H   0  0  0  0  0  0  0  0  0  0  0  0
   57.3989   27.2068   42.6642 H   0  0  0  0  0  0  0  0  0  0  0  0
   59.4416   26.5315   43.9245 H   0  0  0  0  0  0  0  0  0  0  0  0
   60.3023   27.9684   45.7716 H   0  0  0  0  0  0  0  0  0  0  0  0
   57.5121   30.5997   47.8186 H   0  0  0  0  0  0  0  0  0  0  0  0
   58.4986   29.1480   48.2738 H   0  0  0  0  0  0  0  0  0  0  0  0
   59.0866   32.0860   48.8339 H   0  0  0  0  0  0  0  0  0  0  0  0
   58.8684   30.7307   50.0056 H   0  0  0  0  0  0  0  0  0  0  0  0
   59.8201   31.0203   51.4677 H   0  0  0  0  0  0  0  0  0  0  0  0
   61.2948   30.3195   52.2788 H   0  0  0  0  0  0  0  0  0  0  0  0
   60.9436   32.6517   52.9736 H   0  0  0  0  0  0  0  0  0  0  0  0
   62.4596   32.4720   52.0211 H   0  0  0  0  0  0  0  0  0  0  0  0
   63.3190   34.8933   49.8274 H   0  0  0  0  0  0  0  0  0  0  0  0
   63.4357   33.3151   50.6848 H   0  0  0  0  0  0  0  0  0  0  0  0
   64.7154   33.4149   48.4928 H   0  0  0  0  0  0  0  0  0  0  0  0
   63.4840   32.1001   48.5860 H   0  0  0  0  0  0  0  0  0  0  0  0
   61.5883   34.2291   45.1823 H   0  0  0  0  0  0  0  0  0  0  0  0
   59.1327   34.6760   45.1084 H   0  0  0  0  0  0  0  0  0  0  0  0
   57.7965   34.6645   47.2157 H   0  0  0  0  0  0  0  0  0  0  0  0
   58.9053   34.1941   49.4017 H   0  0  0  0  0  0  0  0  0  0  0  0
   62.2460   31.3724   47.6904 H   0  0  0  0  0  0  0  0  0  0  0  0
   61.7641   29.6288   47.5564 H   0  0  0  0  0  0  0  0  0  0  0  0
   60.2659   32.0742   46.5147 H   0  0  0  0  0  0  0  0  0  0  0  0
   60.9685   30.7138   45.5719 H   0  0  0  0  0  0  0  0  0  0  0  0
  1  2  1  0
  2  3  1  0
  3  4  2  0
  4  5  1  0
  5  6  2  0
  6  7  1  0
  7  8  2  0
  8  9  1  0
  9 10  1  0
 10 11  1  0
 11 12  1  0
 12 13  1  0
 13 14  2  0
 13 15  1  0
 15 16  1  0
 16 17  1  0
 17 18  2  0
 17 19  1  0
 19 20  1  0
 20 21  1  0
 21 22  1  0
 22 23  1  0
 23 24  2  0
 24 25  1  0
 25 26  2  0
 26 27  1  0
 27 28  2  0
 12 29  1  0
 29 30  1  0
  8  3  1  0
 30  9  1  0
 28 19  1  0
 28 23  1  0
  1 31  1  0
  1 32  1  0
  1 33  1  0
  4 34  1  0
  5 35  1  0
  6 36  1  0
  7 37  1  0
 10 38  1  0
 10 39  1  0
 11 40  1  0
 11 41  1  0
 15 42  1  0
 15 43  1  0
 16 44  1  0
 16 45  1  0
 20 46  1  0
 20 47  1  0
 21 48  1  0
 21 49  1  0
 24 50  1  0
 25 51  1  0
 26 52  1  0
 27 53  1  0
 29 54  1  0
 29 55  1  0
 30 56  1  0
 30 57  1  0
M  END
>  <UniqueID>  (15) 
15

>  <SMILES>  (15) 
COc1ccccc1N1CCN(C(=O)CCC(=O)N2CCOc3ccccc32)CC1

>  <Energy>  (15) 
69.210642491668

>  <Genealogy>  (15) 
COc1ccccc1N1CCN(C(=O)CCC(=O)N2CCOc3ccccc32)CC1 (3D coordinates assigned)
COc1ccccc1N1CCN(C(=O)CCC(=O)N2CCOc3ccccc32)CC1 (nonaromatic ring conformer: 69.210642491668 kcal/mol)

>  <smiles>  (15) 
COc1ccccc1N1CCN(C(=O)CCC(=O)N2CCOc3ccccc32)CC1

>  <score_type>  (15) 
oracle

>  <origin>  (15) 
adg

>  <m_score__min__energy>  (15) 
-8.4600000000000009

>  <m_primary>  (15) 
energy

$$$$
15:0
     RDKit          3D

 50 53  0  0  0  0  0  0  0  0999 V2000
   60.6440   31.5560   47.0270 C   0  0  0  0  0  0  0  0  0  0  0  0
   59.4370   32.2150   46.3920 C   0  0  0  0  0  0  0  0  0  0  0  0
   59.3020   33.6230   46.4850 C   0  0  0  0  0  0  0  0  0  0  0  0
   60.2920   34.3620   47.1620 O   0  0  0  0  0  0  0  0  0  0  0  0
   60.3830   34.5510   48.5740 C   0  0  0  0  0  0  0  0  0  0  0  0
   61.4470   33.6390   49.1940 C   0  0  0  0  0  0  0  0  0  0  0  0
   62.8020   34.1120   48.8220 N   0  0  0  0  0  0  0  0  0  0  0  0
   63.1110   33.8970   47.3890 C   0  0  0  0  0  0  0  0  0  0  0  0
   63.7560   32.5200   47.1260 C   0  0  0  0  0  0  0  0  0  0  0  0
   63.4400   31.6130   48.1620 O   0  0  0  0  0  0  0  0  0  0  0  0
   64.0620   32.0220   49.3680 C   0  0  0  0  0  0  0  0  0  0  0  0
   63.8550   33.5250   49.6720 C   0  0  0  0  0  0  0  0  0  0  0  0
   58.1910   34.2560   45.9040 C   0  0  0  0  0  0  0  0  0  0  0  0
   57.2180   33.5190   45.2440 C   0  0  0  0  0  0  0  0  0  0  0  0
   57.3250   32.1350   45.1460 C   0  0  0  0  0  0  0  0  0  0  0  0
   56.3680   31.4720   44.5060 O   0  0  0  0  0  0  0  0  0  0  0  0
   56.3750   30.1570   44.3570 C   0  0  0  0  0  0  0  0  0  0  0  0
   57.4150   29.3840   44.8800 C   0  0  0  0  0  0  0  0  0  0  0  0
   57.4020   27.9110   44.6930 C   0  0  0  0  0  0  0  0  0  0  0  0
   57.7810   27.3490   43.4590 C   0  0  0  0  0  0  0  0  0  0  0  0
   57.7770   25.9630   43.2840 C   0  0  0  0  0  0  0  0  0  0  0  0
   57.4030   25.1230   44.3370 C   0  0  0  0  0  0  0  0  0  0  0  0
   57.0330   25.6700   45.5670 C   0  0  0  0  0  0  0  0  0  0  0  0
   57.0330   27.0580   45.7480 C   0  0  0  0  0  0  0  0  0  0  0  0
   58.4490   30.0370   45.5800 C   0  0  0  0  0  0  0  0  0  0  0  0
   59.3660   29.3420   46.0950 O   0  0  0  0  0  0  0  0  0  0  0  0
   58.4290   31.4520   45.7160 C   0  0  0  0  0  0  0  0  0  0  0  0
   60.5546   31.6048   48.1223 H   0  0  0  0  0  0  0  0  0  0  0  0
   60.6966   30.5040   46.7099 H   0  0  0  0  0  0  0  0  0  0  0  0
   61.5574   32.0806   46.7099 H   0  0  0  0  0  0  0  0  0  0  0  0
   60.6472   35.5991   48.7783 H   0  0  0  0  0  0  0  0  0  0  0  0
   59.4095   34.2992   49.0199 H   0  0  0  0  0  0  0  0  0  0  0  0
   61.3447   33.6526   50.2891 H   0  0  0  0  0  0  0  0  0  0  0  0
   61.3071   32.6147   48.8181 H   0  0  0  0  0  0  0  0  0  0  0  0
   62.1769   33.9654   46.8122 H   0  0  0  0  0  0  0  0  0  0  0  0
   63.8320   34.6690   47.0821 H   0  0  0  0  0  0  0  0  0  0  0  0
   63.3810   32.1223   46.1714 H   0  0  0  0  0  0  0  0  0  0  0  0
   64.8483   32.6437   47.0860 H   0  0  0  0  0  0  0  0  0  0  0  0
   63.6404   31.4348   50.1971 H   0  0  0  0  0  0  0  0  0  0  0  0
   65.1432   31.8535   49.2557 H   0  0  0  0  0  0  0  0  0  0  0  0
   63.5665   33.6391   50.7273 H   0  0  0  0  0  0  0  0  0  0  0  0
   64.7982   34.0509   49.4629 H   0  0  0  0  0  0  0  0  0  0  0  0
   58.0910   35.3493   45.9730 H   0  0  0  0  0  0  0  0  0  0  0  0
   56.3553   34.0328   44.7947 H   0  0  0  0  0  0  0  0  0  0  0  0
   55.5527   29.6669   43.8152 H   0  0  0  0  0  0  0  0  0  0  0  0
   58.0818   28.0046   42.6285 H   0  0  0  0  0  0  0  0  0  0  0  0
   58.0689   25.5315   42.3152 H   0  0  0  0  0  0  0  0  0  0  0  0
   57.4002   24.0320   44.1965 H   0  0  0  0  0  0  0  0  0  0  0  0
   56.7408   25.0086   46.3959 H   0  0  0  0  0  0  0  0  0  0  0  0
   56.7430   27.4834   46.7201 H   0  0  0  0  0  0  0  0  0  0  0  0
  1  2  1  0
  2  3  2  0
  3  4  1  0
  4  5  1  0
  5  6  1  0
  6  7  1  0
  7  8  1  0
  8  9  1  0
  9 10  1  0
 10 11  1  0
 11 12  1  0
  3 13  1  0
 13 14  2  0
 14 15  1  0
 15 16  1  0
 16 17  1  0
 17 18  2  0
 18 19  1  0
 19 20  2  0
 20 21  1  0
 21 22  2  0
 22 23  1  0
 23 24  2  0
 18 25  1  0
 25 26  2  0
 25 27  1  0
 27  2  1  0
 12  7  1  0
 27 15  2  0
 24 19  1  0
  1 28  1  0
  1 29  1  0
  1 30  1  0
  5 31  1  0
  5 32  1  0
  6 33  1  0
  6 34  1  0
  8 35  1  0
  8 36  1  0
  9 37  1  0
  9 38  1  0
 11 39  1  0
 11 40  1  0
 12 41  1  0
 12 42  1  0
 13 43  1  0
 14 44  1  0
 17 45  1  0
 20 46  1  0
 21 47  1  0
 22 48  1  0
 23 49  1  0
 24 50  1  0
M  END
>  <UniqueID>  (16) 
16

>  <SMILES>  (16) 
Cc1c(OCCN2CCOCC2)ccc2occ(-c3ccccc3)c(=O)c12

>  <Energy>  (16) 
82.49666972857524

>  <Genealogy>  (16) 
Cc1c(OCCN2CCOCC2)ccc2occ(-c3ccccc3)c(=O)c12 (3D coordinates assigned)
Cc1c(OCCN2CCOCC2)ccc2occ(-c3ccccc3)c(=O)c12 (nonaromatic ring conformer: 82.49666972857524 kcal/mol)

>  <smiles>  (16) 
Cc1c(OCCN2CCOCC2)ccc2occ(-c3ccccc3)c(=O)c12

>  <score_type>  (16) 
oracle

>  <origin>  (16) 
adg

>  <m_score__min__energy>  (16) 
-7.9800000000000004

>  <m_primary>  (16) 
energy

$$$$
16:0
     RDKit          3D

 43 44  0  0  0  0  0  0  0  0999 V2000
   60.3611   34.3416   51.7332 H   0  0  0  0  0  0  0  0  0  0  0  0
   59.9220   33.8300   50.8640 C   0  0  0  0  0  0  0  0  0  0  0  0
   60.3210   34.0870   49.5890 N   0  0  0  0  0  0  0  0  0  0  0  0
   59.6390   33.3470   48.6860 C   0  0  0  0  0  0  0  0  0  0  0  0
   59.8730   33.4070   47.2310 C   0  0  0  0  0  0  0  0  0  0  0  0
   60.8390   34.1500   46.7810 N   0  0  0  0  0  0  0  0  0  0  0  0
   61.9500   33.6090   46.1730 O   0  0  0  0  0  0  0  0  0  0  0  0
   63.2420   34.1490   46.4020 C   0  0  0  0  0  0  0  0  0  0  0  0
   63.1602   35.2298   46.5894 H   0  0  0  0  0  0  0  0  0  0  0  0
   63.8739   33.9781   45.5180 H   0  0  0  0  0  0  0  0  0  0  0  0
   63.8710   33.4640   47.6220 C   0  0  0  0  0  0  0  0  0  0  0  0
   64.3674   34.2273   48.2393 H   0  0  0  0  0  0  0  0  0  0  0  0
   64.5882   32.7152   47.2546 H   0  0  0  0  0  0  0  0  0  0  0  0
   62.8570   32.7530   48.4600 N   0  0  0  0  0  0  0  0  0  0  0  0
   61.9270   33.2300   48.3640 H   0  0  0  0  0  0  0  0  0  0  0  0
   62.6190   31.3670   47.9800 C   0  0  0  0  0  0  0  0  0  0  0  0
   63.5646   30.8097   48.0521 H   0  0  0  0  0  0  0  0  0  0  0  0
   62.2506   31.4490   46.9468 H   0  0  0  0  0  0  0  0  0  0  0  0
   61.5470   30.6020   48.7720 C   0  0  0  0  0  0  0  0  0  0  0  0
   61.7263   30.7299   49.8497 H   0  0  0  0  0  0  0  0  0  0  0  0
   60.5520   30.9953   48.5166 H   0  0  0  0  0  0  0  0  0  0  0  0
   61.5954   29.5332   48.5166 H   0  0  0  0  0  0  0  0  0  0  0  0
   63.1990   32.7730   49.9050 C   0  0  0  0  0  0  0  0  0  0  0  0
   62.3844   32.2934   50.4674 H   0  0  0  0  0  0  0  0  0  0  0  0
   64.1491   32.2334   50.0320 H   0  0  0  0  0  0  0  0  0  0  0  0
   63.3950   34.1960   50.4400 C   0  0  0  0  0  0  0  0  0  0  0  0
   63.3925   34.1778   51.5398 H   0  0  0  0  0  0  0  0  0  0  0  0
   64.3563   34.5931   50.0820 H   0  0  0  0  0  0  0  0  0  0  0  0
   62.5768   34.8382   50.0820 H   0  0  0  0  0  0  0  0  0  0  0  0
   59.0280   32.6130   46.3050 C   0  0  0  0  0  0  0  0  0  0  0  0
   59.3330   31.2680   46.0350 C   0  0  0  0  0  0  0  0  0  0  0  0
   60.2152   30.8029   46.4990 H   0  0  0  0  0  0  0  0  0  0  0  0
   58.5200   30.5180   45.1790 C   0  0  0  0  0  0  0  0  0  0  0  0
   58.7610   29.4639   44.9768 H   0  0  0  0  0  0  0  0  0  0  0  0
   57.4020   31.1050   44.5800 C   0  0  0  0  0  0  0  0  0  0  0  0
   56.2920   30.0780   43.4130 Br  0  0  0  0  0  0  0  0  0  0  0  0
   57.0970   32.4460   44.8370 C   0  0  0  0  0  0  0  0  0  0  0  0
   56.2191   32.9095   44.3633 H   0  0  0  0  0  0  0  0  0  0  0  0
   57.9050   33.1980   45.6940 C   0  0  0  0  0  0  0  0  0  0  0  0
   57.6613   34.2523   45.8914 H   0  0  0  0  0  0  0  0  0  0  0  0
   58.5240   32.3400   49.4470 S   0  0  0  0  0  0  0  0  0  0  0  0
   58.9210   32.8760   50.9900 C   0  0  0  0  0  0  0  0  0  0  0  0
   58.4684   32.5322   51.9318 H   0  0  0  0  0  0  0  0  0  0  0  0
  1  2  1  0
  2  3  1  0
  3  4  2  0
  4  5  1  0
  5  6  2  0
  6  7  1  0
  7  8  1  0
  8  9  1  0
  8 10  1  0
  8 11  1  0
 11 12  1  0
 11 13  1  0
 11 14  1  0
 14 15  1  0
 14 16  1  0
 16 17  1  0
 16 18  1  0
 16 19  1  0
 19 20  1  0
 19 21  1  0
 19 22  1  0
 14 23  1  0
 23 24  1  0
 23 25  1  0
 23 26  1  0
 26 27  1  0
 26 28  1  0
 26 29  1  0
  5 30  1  0
 30 31  2  0
 31 32  1  0
 31 33  1  0
 33 34  1  0
 33 35  2  0
 35 36  1  0
 35 37  1  0
 37 38  1  0
 37 39  2  0
 39 40  1  0
  4 41  1  0
 41 42  1  0
 42 43  1  0
 42  2  2  0
 39 30  1  0
M  CHG  1  14   1
M  END
>  <UniqueID>  (17) 
17

>  <SMILES>  (17) 
CC[NH+](CC)CCO/N=C(\c1ccc(Br)cc1)c1nccs1

>  <Energy>  (17) 
75.34974396373318

>  <Genealogy>  (17) 
CC[NH+](CC)CCON=C(c1ccc(Br)cc1)c1nccs1 (protonated)
CC[NH+](CC)CCO/N=C(\c1ccc(Br)cc1)c1nccs1 (cis-trans isomerization)
CC[NH+](CC)CCO/N=C(\c1ccc(Br)cc1)c1nccs1 (3D coordinates assigned)
CC[NH+](CC)CCO/N=C(\c1ccc(Br)cc1)c1nccs1 (optimized conformer: 75.34974396373318 kcal/mol)

>  <smiles>  (17) 
CCN(CC)CCON=C(c1ccc(Br)cc1)c1nccs1

>  <score_type>  (17) 
oracle

>  <origin>  (17) 
adg

>  <m_score__min__energy>  (17) 
-4.29

>  <m_primary>  (17) 
energy

$$$$
17:0
     RDKit          3D

 60 64  0  0  0  0  0  0  0  0999 V2000
   60.0870   28.7760   46.0120 C   0  0  0  0  0  0  0  0  0  0  0  0
   58.9030   29.6810   45.7340 C   0  0  0  0  0  0  0  0  0  0  0  0
   57.7370   29.1830   45.0950 C   0  0  0  0  0  0  0  0  0  0  0  0
   57.6170   27.7660   44.6930 C   0  0  0  0  0  0  0  0  0  0  0  0
   57.8570   27.3890   43.3640 C   0  0  0  0  0  0  0  0  0  0  0  0
   57.7680   26.0460   42.9890 C   0  0  0  0  0  0  0  0  0  0  0  0
   57.4370   25.0730   43.9370 C   0  0  0  0  0  0  0  0  0  0  0  0
   57.1850   25.4410   45.2690 C   0  0  0  0  0  0  0  0  0  0  0  0
   56.8280   24.3990   46.2970 C   0  0  0  0  0  0  0  0  0  0  0  0
   55.4110   24.5280   46.7030 N   0  0  0  0  0  0  0  0  0  0  0  0
   54.8870   23.3140   47.3680 C   0  0  0  0  0  0  0  0  0  0  0  0
   54.5390   22.2050   46.3600 C   0  0  0  0  0  0  0  0  0  0  0  0
   53.6420   22.6770   45.3740 O   0  0  0  0  0  0  0  0  0  0  0  0
   54.2450   23.7290   44.6500 C   0  0  0  0  0  0  0  0  0  0  0  0
   54.5420   24.9200   45.5740 C   0  0  0  0  0  0  0  0  0  0  0  0
   57.2740   26.7910   45.6410 C   0  0  0  0  0  0  0  0  0  0  0  0
   56.6680   30.0570   44.8340 C   0  0  0  0  0  0  0  0  0  0  0  0
   55.6220   29.6400   44.2650 O   0  0  0  0  0  0  0  0  0  0  0  0
   56.7460   31.3600   45.1950 N   0  0  0  0  0  0  0  0  0  0  0  0
   57.8380   31.8770   45.8120 C   0  0  0  0  0  0  0  0  0  0  0  0
   57.8550   33.2310   46.1500 C   0  0  0  0  0  0  0  0  0  0  0  0
   58.9730   33.7900   46.7680 C   0  0  0  0  0  0  0  0  0  0  0  0
   60.0930   33.0000   47.0710 C   0  0  0  0  0  0  0  0  0  0  0  0
   61.2630   33.5790   47.6910 N   0  0  0  0  0  0  0  0  0  0  0  0
   61.1150   34.5410   48.7860 C   0  0  0  0  0  0  0  0  0  0  0  0
   62.5430   33.5000   47.0470 C   0  0  0  0  0  0  0  0  0  0  0  0
   62.7660   34.1970   46.0200 O   0  0  0  0  0  0  0  0  0  0  0  0
   63.6310   32.6100   47.5730 C   0  0  0  0  0  0  0  0  0  0  0  0
   64.2450   33.0980   48.8770 C   0  0  0  0  0  0  0  0  0  0  0  0
   63.3170   31.8990   48.8820 C   0  0  0  0  0  0  0  0  0  0  0  0
   60.0690   31.6310   46.7370 C   0  0  0  0  0  0  0  0  0  0  0  0
   58.9500   31.0530   46.1000 C   0  0  0  0  0  0  0  0  0  0  0  0
   60.2223   28.6726   47.0987 H   0  0  0  0  0  0  0  0  0  0  0  0
   59.9035   27.7858   45.5695 H   0  0  0  0  0  0  0  0  0  0  0  0
   60.9943   29.2129   45.5695 H   0  0  0  0  0  0  0  0  0  0  0  0
   58.1158   28.1520   42.6152 H   0  0  0  0  0  0  0  0  0  0  0  0
   57.9587   25.7536   41.9459 H   0  0  0  0  0  0  0  0  0  0  0  0
   57.3737   24.0161   43.6388 H   0  0  0  0  0  0  0  0  0  0  0  0
   56.9913   23.3989   45.8691 H   0  0  0  0  0  0  0  0  0  0  0  0
   57.4640   24.5439   47.1827 H   0  0  0  0  0  0  0  0  0  0  0  0
   55.6494   22.9340   48.0639 H   0  0  0  0  0  0  0  0  0  0  0  0
   53.9640   23.5907   47.8985 H   0  0  0  0  0  0  0  0  0  0  0  0
   55.4624   21.8614   45.8708 H   0  0  0  0  0  0  0  0  0  0  0  0
   54.0583   21.3777   46.9026 H   0  0  0  0  0  0  0  0  0  0  0  0
   55.1864   23.3707   44.2081 H   0  0  0  0  0  0  0  0  0  0  0  0
   53.5543   24.0570   43.8592 H   0  0  0  0  0  0  0  0  0  0  0  0
   55.0452   25.7065   44.9924 H   0  0  0  0  0  0  0  0  0  0  0  0
   53.5883   25.2843   45.9837 H   0  0  0  0  0  0  0  0  0  0  0  0
   57.0737   27.0862   46.6816 H   0  0  0  0  0  0  0  0  0  0  0  0
   56.9812   33.8610   45.9275 H   0  0  0  0  0  0  0  0  0  0  0  0
   58.9773   34.8606   47.0206 H   0  0  0  0  0  0  0  0  0  0  0  0
   61.1958   34.0156   49.7490 H   0  0  0  0  0  0  0  0  0  0  0  0
   61.9067   35.3014   48.7156 H   0  0  0  0  0  0  0  0  0  0  0  0
   60.1313   35.0283   48.7156 H   0  0  0  0  0  0  0  0  0  0  0  0
   64.0101   32.2891   46.5915 H   0  0  0  0  0  0  0  0  0  0  0  0
   65.3205   32.9613   49.0631 H   0  0  0  0  0  0  0  0  0  0  0  0
   64.2745   34.0599   49.4098 H   0  0  0  0  0  0  0  0  0  0  0  0
   63.7196   30.8930   49.0715 H   0  0  0  0  0  0  0  0  0  0  0  0
   62.3953   31.6318   49.4197 H   0  0  0  0  0  0  0  0  0  0  0  0
   60.9384   31.0014   46.9772 H   0  0  0  0  0  0  0  0  0  0  0  0
  1  2  1  0
  2  3  2  0
  3  4  1  0
  4  5  2  0
  5  6  1  0
  6  7  2  0
  7  8  1  0
  8  9  1  0
  9 10  1  0
 10 11  1  0
 11 12  1  0
 12 13  1  0
 13 14  1  0
 14 15  1  0
  8 16  2  0
  3 17  1  0
 17 18  2  0
 17 19  1  0
 19 20  1  0
 20 21  2  0
 21 22  1  0
 22 23  2  0
 23 24  1  0
 24 25  1  0
 24 26  1  0
 26 27  2  0
 26 28  1  0
 28 29  1  0
 29 30  1  0
 23 31  1  0
 31 32  2  0
 32  2  1  0
 16  4  1  0
 32 20  1  0
 15 10  1  0
 30 28  1  0
  1 33  1  0
  1 34  1  0
  1 35  1  0
  5 36  1  0
  6 37  1  0
  7 38  1  0
  9 39  1  0
  9 40  1  0
 11 41  1  0
 11 42  1  0
 12 43  1  0
 12 44  1  0
 14 45  1  0
 14 46  1  0
 15 47  1  0
 15 48  1  0
 16 49  1  0
 21 50  1  0
 22 51  1  0
 25 52  1  0
 25 53  1  0
 25 54  1  0
 28 55  1  0
 29 56  1  0
 29 57  1  0
 30 58  1  0
 30 59  1  0
 31 60  1  0
M  CHG  1  19  -1
M  END
>  <UniqueID>  (18) 
18

>  <SMILES>  (18) 
Cc1c(-c2cccc(CN3CCOCC3)c2)c(=O)[n-]c2ccc(N(C)C(=O)C3CC3)cc12

>  <Energy>  (18) 
357.474746798616

>  <Genealogy>  (18) 
Cc1c(-c2cccc(CN3CCOCC3)c2)c(=O)[n-]c2ccc(N(C)C(=O)C3CC3)cc12 (protonated)
Cc1c(-c2cccc(CN3CCOCC3)c2)c(=O)[n-]c2ccc(N(C)C(=O)C3CC3)cc12 (3D coordinates assigned)
Cc1c(-c2cccc(CN3CCOCC3)c2)c(=O)[n-]c2ccc(N(C)C(=O)C3CC3)cc12 (nonaromatic ring conformer: 357.474746798616 kcal/mol)

>  <smiles>  (18) 
Cc1c(-c2cccc(CN3CCOCC3)c2)c(=O)[nH]c2ccc(N(C)C(=O)C3CC3)cc12

>  <score_type>  (18) 
oracle

>  <origin>  (18) 
adg

>  <m_score__min__energy>  (18) 
-11.529999999999999

>  <m_primary>  (18) 
energy

$$$$
18:0
     RDKit          3D

 63 66  0  0  0  0  0  0  0  0999 V2000
   57.1580   23.9570   44.0930 C   0  0  0  0  0  0  0  0  0  0  0  0
   57.6340   24.8650   45.0810 O   0  0  0  0  0  0  0  0  0  0  0  0
   57.6440   26.2600   44.9390 C   0  0  0  0  0  0  0  0  0  0  0  0
   57.8490   26.8900   43.6990 C   0  0  0  0  0  0  0  0  0  0  0  0
   57.8520   28.2850   43.6110 C   0  0  0  0  0  0  0  0  0  0  0  0
   57.6360   29.0780   44.7510 C   0  0  0  0  0  0  0  0  0  0  0  0
   57.6290   30.5570   44.6330 C   0  0  0  0  0  0  0  0  0  0  0  0
   57.7940   31.2010   43.4000 C   0  0  0  0  0  0  0  0  0  0  0  0
   57.8230   32.5910   43.3560 C   0  0  0  0  0  0  0  0  0  0  0  0
   57.6870   33.3170   44.5380 C   0  0  0  0  0  0  0  0  0  0  0  0
   57.7400   34.5740   44.4980 O   0  0  0  0  0  0  0  0  0  0  0  0
   57.5070   32.6550   45.7240 N   0  0  0  0  0  0  0  0  0  0  0  0
   57.3920   33.3740   46.9980 C   0  0  0  0  0  0  0  0  0  0  0  0
   58.7840   33.7500   47.5150 C   0  0  0  0  0  0  0  0  0  0  0  0
   59.8720   32.8550   46.8920 C   0  0  0  0  0  0  0  0  0  0  0  0
   59.6980   31.4130   47.2110 N   0  0  0  0  0  0  0  0  0  0  0  0
   59.5020   31.2170   48.6740 C   0  0  0  0  0  0  0  0  0  0  0  0
   60.8030   30.9160   49.4580 C   0  0  0  0  0  0  0  0  0  0  0  0
   62.0030   31.3120   48.7100 N   0  0  0  0  0  0  0  0  0  0  0  0
   63.1650   31.7750   49.4210 C   0  0  0  0  0  0  0  0  0  0  0  0
   63.8150   32.9490   49.0030 C   0  0  0  0  0  0  0  0  0  0  0  0
   64.9380   33.4170   49.6850 C   0  0  0  0  0  0  0  0  0  0  0  0
   65.4210   32.7200   50.7930 C   0  0  0  0  0  0  0  0  0  0  0  0
   64.7950   31.5430   51.2110 C   0  0  0  0  0  0  0  0  0  0  0  0
   63.6670   31.0530   50.5240 C   0  0  0  0  0  0  0  0  0  0  0  0
   63.0370   29.8560   50.8980 O   0  0  0  0  0  0  0  0  0  0  0  0
   63.1400   29.2530   52.1830 C   0  0  0  0  0  0  0  0  0  0  0  0
   62.1430   30.9090   47.3070 C   0  0  0  0  0  0  0  0  0  0  0  0
   60.7830   30.5390   46.7030 C   0  0  0  0  0  0  0  0  0  0  0  0
   57.4980   31.3190   45.7540 N   0  0  0  0  0  0  0  0  0  0  0  0
   57.4400   28.4420   45.9880 C   0  0  0  0  0  0  0  0  0  0  0  0
   57.4440   27.0470   46.0770 C   0  0  0  0  0  0  0  0  0  0  0  0
   56.7013   23.0858   44.5853 H   0  0  0  0  0  0  0  0  0  0  0  0
   56.4070   24.4589   43.4652 H   0  0  0  0  0  0  0  0  0  0  0  0
   57.9980   23.6249   43.4652 H   0  0  0  0  0  0  0  0  0  0  0  0
   58.0075   26.2832   42.7953 H   0  0  0  0  0  0  0  0  0  0  0  0
   58.0255   28.7678   42.6380 H   0  0  0  0  0  0  0  0  0  0  0  0
   57.8995   30.6135   42.4760 H   0  0  0  0  0  0  0  0  0  0  0  0
   57.9522   33.1129   42.3963 H   0  0  0  0  0  0  0  0  0  0  0  0
   56.7999   34.2888   46.8478 H   0  0  0  0  0  0  0  0  0  0  0  0
   56.8961   32.7254   47.7351 H   0  0  0  0  0  0  0  0  0  0  0  0
   58.9912   34.7989   47.2564 H   0  0  0  0  0  0  0  0  0  0  0  0
   58.7997   33.6081   48.6057 H   0  0  0  0  0  0  0  0  0  0  0  0
   59.8419   32.9774   45.7992 H   0  0  0  0  0  0  0  0  0  0  0  0
   60.8367   33.1696   47.3167 H   0  0  0  0  0  0  0  0  0  0  0  0
   58.8120   31.1060   46.7420 H   0  0  0  0  0  0  0  0  0  0  0  0
   59.0552   32.1333   49.0873 H   0  0  0  0  0  0  0  0  0  0  0  0
   58.8545   30.3353   48.7891 H   0  0  0  0  0  0  0  0  0  0  0  0
   60.7797   31.4681   50.4091 H   0  0  0  0  0  0  0  0  0  0  0  0
   60.8526   29.8303   49.6277 H   0  0  0  0  0  0  0  0  0  0  0  0
   63.4353   33.5027   48.1317 H   0  0  0  0  0  0  0  0  0  0  0  0
   65.4426   34.3351   49.3496 H   0  0  0  0  0  0  0  0  0  0  0  0
   66.2976   33.0985   51.3392 H   0  0  0  0  0  0  0  0  0  0  0  0
   65.1852   30.9957   52.0817 H   0  0  0  0  0  0  0  0  0  0  0  0
   63.0089   30.0207   52.9598 H   0  0  0  0  0  0  0  0  0  0  0  0
   62.3600   28.4849   52.2912 H   0  0  0  0  0  0  0  0  0  0  0  0
   64.1307   28.7874   52.2912 H   0  0  0  0  0  0  0  0  0  0  0  0
   62.5759   31.7428   46.7348 H   0  0  0  0  0  0  0  0  0  0  0  0
   62.7990   30.0273   47.2595 H   0  0  0  0  0  0  0  0  0  0  0  0
   60.8397   30.6411   45.6092 H   0  0  0  0  0  0  0  0  0  0  0  0
   60.5511   29.5033   46.9922 H   0  0  0  0  0  0  0  0  0  0  0  0
   57.2822   29.0463   46.8935 H   0  0  0  0  0  0  0  0  0  0  0  0
   57.2882   26.5634   47.0526 H   0  0  0  0  0  0  0  0  0  0  0  0
  1  2  1  0
  2  3  1  0
  3  4  2  0
  4  5  1  0
  5  6  2  0
  6  7  1  0
  7  8  1  0
  8  9  2  0
  9 10  1  0
 10 11  2  0
 10 12  1  0
 12 13  1  0
 13 14  1  0
 14 15  1  0
 15 16  1  0
 16 17  1  0
 17 18  1  0
 18 19  1  0
 19 20  1  0
 20 21  2  0
 21 22  1  0
 22 23  2  0
 23 24  1  0
 24 25  2  0
 25 26  1  0
 26 27  1  0
 19 28  1  0
 28 29  1  0
 12 30  1  0
  6 31  1  0
 31 32  2  0
 32  3  1  0
 30  7  2  0
 29 16  1  0
 25 20  1  0
  1 33  1  0
  1 34  1  0
  1 35  1  0
  4 36  1  0
  5 37  1  0
  8 38  1  0
  9 39  1  0
 13 40  1  0
 13 41  1  0
 14 42  1  0
 14 43  1  0
 15 44  1  0
 15 45  1  0
 16 46  1  0
 17 47  1  0
 17 48  1  0
 18 49  1  0
 18 50  1  0
 21 51  1  0
 22 52  1  0
 23 53  1  0
 24 54  1  0
 27 55  1  0
 27 56  1  0
 27 57  1  0
 28 58  1  0
 28 59  1  0
 29 60  1  0
 29 61  1  0
 31 62  1  0
 32 63  1  0
M  CHG  1  16   1
M  END
>  <UniqueID>  (19) 
19

>  <SMILES>  (19) 
COc1ccc(-c2ccc(=O)n(CCC[NH+]3CCN(c4ccccc4OC)CC3)n2)cc1

>  <Energy>  (19) 
80.88003414248365

>  <Genealogy>  (19) 
COc1ccc(-c2ccc(=O)n(CCC[NH+]3CCN(c4ccccc4OC)CC3)n2)cc1 (protonated)
COc1ccc(-c2ccc(=O)n(CCC[NH+]3CCN(c4ccccc4OC)CC3)n2)cc1 (3D coordinates assigned)
COc1ccc(-c2ccc(=O)n(CCC[NH+]3CCN(c4ccccc4OC)CC3)n2)cc1 (nonaromatic ring conformer: 80.88003414248365 kcal/mol)

>  <smiles>  (19) 
COc1ccc(-c2ccc(=O)n(CCCN3CCN(c4ccccc4OC)CC3)n2)cc1

>  <score_type>  (19) 
oracle

>  <origin>  (19) 
adg

>  <m_score__min__energy>  (19) 
-6.6799999999999997

>  <m_primary>  (19) 
energy

$$$$
19:0
     RDKit          3D

 43 45  0  0  0  0  0  0  0  0999 V2000
   64.5040   32.9830   49.6680 C   0  0  0  0  0  0  0  0  0  0  0  0
   63.4370   33.3530   48.6740 C   0  0  0  0  0  0  0  0  0  0  0  0
   63.7620   33.4400   47.3110 C   0  0  0  0  0  0  0  0  0  0  0  0
   62.7860   33.7710   46.3730 C   0  0  0  0  0  0  0  0  0  0  0  0
   61.4780   34.0260   46.7810 C   0  0  0  0  0  0  0  0  0  0  0  0
   61.1260   33.9580   48.1380 C   0  0  0  0  0  0  0  0  0  0  0  0
   59.6950   34.2570   48.5480 C   0  0  0  0  0  0  0  0  0  0  0  0
   58.7950   33.0930   48.3380 N   0  0  0  0  0  0  0  0  0  0  0  0
   57.9200   33.2760   47.1390 C   0  0  0  0  0  0  0  0  0  0  0  0
   58.3490   32.4310   45.9310 C   0  0  0  0  0  0  0  0  0  0  0  0
   58.4250   31.0170   46.3140 N   0  0  0  0  0  0  0  0  0  0  0  0
   58.2420   29.9820   45.3240 C   0  0  0  0  0  0  0  0  0  0  0  0
   59.1520   28.9110   45.2450 C   0  0  0  0  0  0  0  0  0  0  0  0
   58.9780   27.9000   44.2950 C   0  0  0  0  0  0  0  0  0  0  0  0
   57.8980   27.9460   43.4130 C   0  0  0  0  0  0  0  0  0  0  0  0
   56.9900   29.0060   43.4770 C   0  0  0  0  0  0  0  0  0  0  0  0
   57.1560   30.0200   44.4250 C   0  0  0  0  0  0  0  0  0  0  0  0
   56.2760   31.0520   44.4380 F   0  0  0  0  0  0  0  0  0  0  0  0
   58.8270   30.6760   47.6840 C   0  0  0  0  0  0  0  0  0  0  0  0
   59.5990   31.8430   48.3090 C   0  0  0  0  0  0  0  0  0  0  0  0
   62.1120   33.6080   49.0920 C   0  0  0  0  0  0  0  0  0  0  0  0
   61.6920   33.4630   50.8050 Cl  0  0  0  0  0  0  0  0  0  0  0  0
   64.1167   33.1173   50.6887 H   0  0  0  0  0  0  0  0  0  0  0  0
   64.7935   31.9320   49.5210 H   0  0  0  0  0  0  0  0  0  0  0  0
   65.3820   33.6292   49.5210 H   0  0  0  0  0  0  0  0  0  0  0  0
   64.7933   33.2457   46.9815 H   0  0  0  0  0  0  0  0  0  0  0  0
   63.0489   33.8312   45.3066 H   0  0  0  0  0  0  0  0  0  0  0  0
   60.7142   34.2830   46.0323 H   0  0  0  0  0  0  0  0  0  0  0  0
   59.6813   34.5274   49.6142 H   0  0  0  0  0  0  0  0  0  0  0  0
   59.3299   35.0832   47.9203 H   0  0  0  0  0  0  0  0  0  0  0  0
   58.1630   33.0150   49.1710 H   0  0  0  0  0  0  0  0  0  0  0  0
   56.8921   32.9954   47.4124 H   0  0  0  0  0  0  0  0  0  0  0  0
   57.9996   34.3314   46.8393 H   0  0  0  0  0  0  0  0  0  0  0  0
   57.6134   32.5509   45.1220 H   0  0  0  0  0  0  0  0  0  0  0  0
   59.3381   32.7670   45.5863 H   0  0  0  0  0  0  0  0  0  0  0  0
   60.0068   28.8691   45.9361 H   0  0  0  0  0  0  0  0  0  0  0  0
   59.6941   27.0666   44.2429 H   0  0  0  0  0  0  0  0  0  0  0  0
   57.7615   27.1484   42.6679 H   0  0  0  0  0  0  0  0  0  0  0  0
   56.1410   29.0428   42.7786 H   0  0  0  0  0  0  0  0  0  0  0  0
   57.9300   30.4685   48.2860 H   0  0  0  0  0  0  0  0  0  0  0  0
   59.4738   29.7866   47.6599 H   0  0  0  0  0  0  0  0  0  0  0  0
   59.8748   31.5746   49.3395 H   0  0  0  0  0  0  0  0  0  0  0  0
   60.4911   32.0280   47.6927 H   0  0  0  0  0  0  0  0  0  0  0  0
  1  2  1  0
  2  3  2  0
  3  4  1  0
  4  5  2  0
  5  6  1  0
  6  7  1  0
  7  8  1  0
  8  9  1  0
  9 10  1  0
 10 11  1  0
 11 12  1  0
 12 13  2  0
 13 14  1  0
 14 15  2  0
 15 16  1  0
 16 17  2  0
 17 18  1  0
 11 19  1  0
 19 20  1  0
  6 21  2  0
 21 22  1  0
 21  2  1  0
 20  8  1  0
 17 12  1  0
  1 23  1  0
  1 24  1  0
  1 25  1  0
  3 26  1  0
  4 27  1  0
  5 28  1  0
  7 29  1  0
  7 30  1  0
  8 31  1  0
  9 32  1  0
  9 33  1  0
 10 34  1  0
 10 35  1  0
 13 36  1  0
 14 37  1  0
 15 38  1  0
 16 39  1  0
 19 40  1  0
 19 41  1  0
 20 42  1  0
 20 43  1  0
M  CHG  1   8   1
M  END
>  <UniqueID>  (20) 
20

>  <SMILES>  (20) 
Cc1cccc(C[NH+]2CCN(c3ccccc3F)CC2)c1Cl

>  <Energy>  (20) 
59.3772701699707

>  <Genealogy>  (20) 
Cc1cccc(C[NH+]2CCN(c3ccccc3F)CC2)c1Cl (protonated)
Cc1cccc(C[NH+]2CCN(c3ccccc3F)CC2)c1Cl (3D coordinates assigned)
Cc1cccc(C[NH+]2CCN(c3ccccc3F)CC2)c1Cl (nonaromatic ring conformer: 59.3772701699707 kcal/mol)

>  <smiles>  (20) 
Cc1cccc(CN2CCN(c3ccccc3F)CC2)c1Cl

>  <score_type>  (20) 
oracle

>  <origin>  (20) 
adg

>  <m_score__min__energy>  (20) 
-5.6200000000000001

>  <m_primary>  (20) 
energy

$$$$
20:0
     RDKit          3D

 30 31  0  0  0  0  0  0  0  0999 V2000
   64.0410   32.1560   48.8180 F   0  0  0  0  0  0  0  0  0  0  0  0
   63.3680   32.3950   47.6320 C   0  0  0  0  0  0  0  0  0  0  0  0
   63.8570   33.5530   47.0580 F   0  0  0  0  0  0  0  0  0  0  0  0
   63.5940   31.3390   46.7680 F   0  0  0  0  0  0  0  0  0  0  0  0
   61.8680   32.5170   47.9040 C   0  0  0  0  0  0  0  0  0  0  0  0
   61.3620   33.8310   47.4380 N   0  0  0  0  0  0  0  0  0  0  0  0
   60.4020   34.4090   48.4120 C   0  0  0  0  0  0  0  0  0  0  0  0
   59.2700   33.4520   48.8290 C   0  0  0  0  0  0  0  0  0  0  0  0
   58.1200   33.4520   47.8130 C   0  0  0  0  0  0  0  0  0  0  0  0
   58.6130   33.1270   46.4700 N   0  0  0  0  0  0  0  0  0  0  0  0
   58.0800   32.0100   45.7240 C   0  0  0  0  0  0  0  0  0  0  0  0
   56.8300   31.9870   45.2090 N   0  0  0  0  0  0  0  0  0  0  0  0
   56.5430   30.8590   44.5620 N   0  0  0  0  0  0  0  0  0  0  0  0
   57.5560   29.9650   44.5530 C   0  0  0  0  0  0  0  0  0  0  0  0
   58.8920   30.5700   45.3780 S   0  0  0  0  0  0  0  0  0  0  0  0
   59.4480   34.1210   45.7850 C   0  0  0  0  0  0  0  0  0  0  0  0
   60.9330   33.7940   46.0140 C   0  0  0  0  0  0  0  0  0  0  0  0
   61.3368   31.7146   47.3711 H   0  0  0  0  0  0  0  0  0  0  0  0
   61.6942   32.4319   48.9868 H   0  0  0  0  0  0  0  0  0  0  0  0
   60.9594   34.6978   49.3153 H   0  0  0  0  0  0  0  0  0  0  0  0
   59.9237   35.2649   47.9133 H   0  0  0  0  0  0  0  0  0  0  0  0
   59.6762   32.4327   48.9069 H   0  0  0  0  0  0  0  0  0  0  0  0
   58.8720   33.7942   49.7957 H   0  0  0  0  0  0  0  0  0  0  0  0
   57.3725   32.7032   48.1140 H   0  0  0  0  0  0  0  0  0  0  0  0
   57.6688   34.4549   47.7904 H   0  0  0  0  0  0  0  0  0  0  0  0
   57.5132   28.9766   44.0721 H   0  0  0  0  0  0  0  0  0  0  0  0
   59.2309   34.1008   44.7068 H   0  0  0  0  0  0  0  0  0  0  0  0
   59.2283   35.1213   46.1865 H   0  0  0  0  0  0  0  0  0  0  0  0
   61.1263   32.7840   45.6234 H   0  0  0  0  0  0  0  0  0  0  0  0
   61.5082   34.5745   45.4944 H   0  0  0  0  0  0  0  0  0  0  0  0
  1  2  1  0
  2  3  1  0
  2  4  1  0
  2  5  1  0
  5  6  1  0
  6  7  1  0
  7  8  1  0
  8  9  1  0
  9 10  1  0
 10 11  1  0
 11 12  2  0
 12 13  1  0
 13 14  2  0
 14 15  1  0
 10 16  1  0
 16 17  1  0
 17  6  1  0
 15 11  1  0
  5 18  1  0
  5 19  1  0
  7 20  1  0
  7 21  1  0
  8 22  1  0
  8 23  1  0
  9 24  1  0
  9 25  1  0
 14 26  1  0
 16 27  1  0
 16 28  1  0
 17 29  1  0
 17 30  1  0
M  END
>  <UniqueID>  (21) 
21

>  <SMILES>  (21) 
FC(F)(F)CN1CCCN(c2nncs2)CC1

>  <Energy>  (21) 
72.99597485102181

>  <Genealogy>  (21) 
FC(F)(F)CN1CCCN(c2nncs2)CC1 (3D coordinates assigned)
FC(F)(F)CN1CCCN(c2nncs2)CC1 (nonaromatic ring conformer: 72.99597485102181 kcal/mol)

>  <smiles>  (21) 
FC(F)(F)CN1CCCN(c2nncs2)CC1

>  <score_type>  (21) 
oracle

>  <origin>  (21) 
adg

>  <m_score__min__energy>  (21) 
-3.6899999999999999

>  <m_primary>  (21) 
energy

$$$$
21:0
     RDKit          3D

 41 43  0  0  0  0  0  0  0  0999 V2000
   58.5152   32.6415   41.3115 H   0  0  0  0  0  0  0  0  0  0  0  0
   57.8240   32.3390   42.1120 C   0  0  0  0  0  0  0  0  0  0  0  0
   56.8624   31.8683   41.8596 H   0  0  0  0  0  0  0  0  0  0  0  0
   58.1520   32.5430   43.3890 C   0  0  0  0  0  0  0  0  0  0  0  0
   59.1178   33.0150   43.6222 H   0  0  0  0  0  0  0  0  0  0  0  0
   57.2430   32.1480   44.5190 C   0  0  0  0  0  0  0  0  0  0  0  0
   57.4208   32.8110   45.3785 H   0  0  0  0  0  0  0  0  0  0  0  0
   56.1973   32.2371   44.1895 H   0  0  0  0  0  0  0  0  0  0  0  0
   57.5080   30.7570   44.9140 N   0  0  0  0  0  0  0  0  0  0  0  0
   58.2780   30.3620   45.9540 C   0  0  0  0  0  0  0  0  0  0  0  0
   58.9650   31.2860   46.9130 C   0  0  0  0  0  0  0  0  0  0  0  0
   58.7371   30.9795   47.9445 H   0  0  0  0  0  0  0  0  0  0  0  0
   60.0519   31.2425   46.7492 H   0  0  0  0  0  0  0  0  0  0  0  0
   58.6104   32.3143   46.7492 H   0  0  0  0  0  0  0  0  0  0  0  0
   58.3520   28.9850   46.0070 C   0  0  0  0  0  0  0  0  0  0  0  0
   58.8967   28.3849   46.7508 H   0  0  0  0  0  0  0  0  0  0  0  0
   57.6060   28.5040   44.9400 C   0  0  0  0  0  0  0  0  0  0  0  0
   57.4520   27.2120   44.5940 C   0  0  0  0  0  0  0  0  0  0  0  0
   57.5729   26.9420   43.5345 H   0  0  0  0  0  0  0  0  0  0  0  0
   57.1310   26.1380   45.5510 C   0  0  0  0  0  0  0  0  0  0  0  0
   58.1730   24.8800   45.9480 S   0  0  0  0  0  0  0  0  0  0  0  0
   57.0330   24.1120   46.9300 C   0  0  0  0  0  0  0  0  0  0  0  0
   57.2250   23.0360   47.6350 N   0  0  0  0  0  0  0  0  0  0  0  0
   56.4250   22.5820   48.7370 C   0  0  0  0  0  0  0  0  0  0  0  0
   57.0030   22.2020   49.9630 C   0  0  0  0  0  0  0  0  0  0  0  0
   58.0909   22.2821   50.1042 H   0  0  0  0  0  0  0  0  0  0  0  0
   56.1990   21.7230   51.0020 C   0  0  0  0  0  0  0  0  0  0  0  0
   56.6535   21.4426   51.9637 H   0  0  0  0  0  0  0  0  0  0  0  0
   54.8180   21.6000   50.8200 C   0  0  0  0  0  0  0  0  0  0  0  0
   53.7220   20.9440   52.2390 Br  0  0  0  0  0  0  0  0  0  0  0  0
   54.2430   21.9450   49.5930 C   0  0  0  0  0  0  0  0  0  0  0  0
   53.1578   21.8411   49.4463 H   0  0  0  0  0  0  0  0  0  0  0  0
   55.0460   22.4220   48.5520 C   0  0  0  0  0  0  0  0  0  0  0  0
   54.5918   22.6730   47.5821 H   0  0  0  0  0  0  0  0  0  0  0  0
   55.8620   24.7850   46.9580 N   0  0  0  0  0  0  0  0  0  0  0  0
   55.9070   25.8980   46.1790 C   0  0  0  0  0  0  0  0  0  0  0  0
   54.7890   26.7030   46.0020 O   0  0  0  0  0  0  0  0  0  0  0  0
   57.1090   29.6280   44.2720 C   0  0  0  0  0  0  0  0  0  0  0  0
   56.3540   29.6200   43.1610 C   0  0  0  0  0  0  0  0  0  0  0  0
   56.0168   30.5689   42.7183 H   0  0  0  0  0  0  0  0  0  0  0  0
   56.0729   28.6646   42.6939 H   0  0  0  0  0  0  0  0  0  0  0  0
  1  2  1  0
  2  3  1  0
  2  4  2  0
  4  5  1  0
  4  6  1  0
  6  7  1  0
  6  8  1  0
  6  9  1  0
  9 10  1  0
 10 11  1  0
 11 12  1  0
 11 13  1  0
 11 14  1  0
 10 15  2  0
 15 16  1  0
 15 17  1  0
 17 18  2  3
 18 19  1  0
 18 20  1  0
 20 21  1  0
 21 22  1  0
 22 23  2  0
 23 24  1  0
 24 25  2  0
 25 26  1  0
 25 27  1  0
 27 28  1  0
 27 29  2  0
 29 30  1  0
 29 31  1  0
 31 32  1  0
 31 33  2  0
 33 34  1  0
 22 35  1  0
 35 36  1  0
 36 37  1  0
 17 38  1  0
 38 39  2  0
 39 40  1  0
 39 41  1  0
 38  9  1  0
 36 20  2  0
 33 24  1  0
M  CHG  2  35  -1  37  -1
M  END
>  <UniqueID>  (22) 
22

>  <SMILES>  (22) 
C=CCn1c(C)cc(=Cc2s/c(=N\c3ccc(Br)cc3)[n-]c2[O-])c1=C

>  <Energy>  (22) 
113.69284448001544

>  <Genealogy>  (22) 
C=CCn1c(C)cc(=Cc2sc(=Nc3ccc(Br)cc3)[n-]c2[O-])c1=C (protonated)
C=CCn1c(C)cc(=Cc2s/c(=N\c3ccc(Br)cc3)[n-]c2[O-])c1=C (cis-trans isomerization)
C=CCn1c(C)cc(=Cc2s/c(=N\c3ccc(Br)cc3)[n-]c2[O-])c1=C (3D coordinates assigned)
C=CCn1c(C)cc(=Cc2s/c(=N\c3ccc(Br)cc3)[n-]c2[O-])c1=C (optimized conformer: 113.69284448001544 kcal/mol)

>  <smiles>  (22) 
C=CCn1c(C)cc(=Cc2sc(=Nc3ccc(Br)cc3)[nH]c2O)c1=C

>  <score_type>  (22) 
oracle

>  <origin>  (22) 
adg

>  <m_score__min__energy>  (22) 
-13.34

>  <m_primary>  (22) 
energy

$$$$
22:0
     RDKit          3D

 70 71  0  0  0  0  0  0  0  0999 V2000
   60.1970   27.1090   48.2430 C   0  0  0  0  0  0  0  0  0  0  0  0
   60.0450   26.7010   46.7740 C   0  0  0  0  0  0  0  0  0  0  0  0
   58.6690   26.9230   46.2570 N   0  0  0  0  0  0  0  0  0  0  0  0
   57.7220   25.8780   46.7600 C   0  0  0  0  0  0  0  0  0  0  0  0
   56.2910   26.1120   46.2720 C   0  0  0  0  0  0  0  0  0  0  0  0
   58.6960   26.9440   44.7710 C   0  0  0  0  0  0  0  0  0  0  0  0
   57.8740   28.1110   44.1740 C   0  0  0  0  0  0  0  0  0  0  0  0
   58.4690   29.4230   44.4750 N   0  0  0  0  0  0  0  0  0  0  0  0
   59.8640   29.4890   44.9490 C   0  0  0  0  0  0  0  0  0  0  0  0
   59.9460   30.0760   46.3420 C   0  0  0  0  0  0  0  0  0  0  0  0
   61.0990   30.7710   46.7420 C   0  0  0  0  0  0  0  0  0  0  0  0
   61.1170   31.4690   47.9560 C   0  0  0  0  0  0  0  0  0  0  0  0
   62.2220   32.2520   48.3190 C   0  0  0  0  0  0  0  0  0  0  0  0
   62.1900   33.0090   49.4970 C   0  0  0  0  0  0  0  0  0  0  0  0
   63.3700   33.8480   49.8850 C   0  0  0  0  0  0  0  0  0  0  0  0
   61.0700   32.9410   50.3390 C   0  0  0  0  0  0  0  0  0  0  0  0
   59.9650   32.1460   49.9990 C   0  0  0  0  0  0  0  0  0  0  0  0
   58.7540   32.1270   50.8910 C   0  0  0  0  0  0  0  0  0  0  0  0
   59.9830   31.4180   48.7940 C   0  0  0  0  0  0  0  0  0  0  0  0
   58.9000   30.6840   48.4140 N   0  0  0  0  0  0  0  0  0  0  0  0
   58.8520   30.0200   47.2290 C   0  0  0  0  0  0  0  0  0  0  0  0
   57.8120   29.3760   46.9300 O   0  0  0  0  0  0  0  0  0  0  0  0
   57.8370   30.6220   43.9810 C   0  0  0  0  0  0  0  0  0  0  0  0
   56.6490   30.5110   42.8590 S   0  0  0  0  0  0  0  0  0  0  0  0
   58.0890   31.8750   44.6290 N   0  0  0  0  0  0  0  0  0  0  0  0
   57.0100   32.6590   45.2300 C   0  0  0  0  0  0  0  0  0  0  0  0
   57.2670   34.1610   45.0990 C   0  0  0  0  0  0  0  0  0  0  0  0
   58.7740   34.4620   45.0440 C   0  0  0  0  0  0  0  0  0  0  0  0
   59.4930   33.8420   46.1810 N   0  0  0  0  0  0  0  0  0  0  0  0
   60.9160   34.2170   46.1560 C   0  0  0  0  0  0  0  0  0  0  0  0
   58.9000   34.2430   47.4670 C   0  0  0  0  0  0  0  0  0  0  0  0
   59.8862   26.2749   48.8893 H   0  0  0  0  0  0  0  0  0  0  0  0
   61.2486   27.3590   48.4472 H   0  0  0  0  0  0  0  0  0  0  0  0
   59.5653   27.9861   48.4472 H   0  0  0  0  0  0  0  0  0  0  0  0
   60.7479   27.2931   46.1696 H   0  0  0  0  0  0  0  0  0  0  0  0
   60.2566   25.6238   46.7045 H   0  0  0  0  0  0  0  0  0  0  0  0
   58.3740   27.8720   46.5800 H   0  0  0  0  0  0  0  0  0  0  0  0
   58.0605   24.8931   46.4058 H   0  0  0  0  0  0  0  0  0  0  0  0
   57.7165   25.9280   47.8588 H   0  0  0  0  0  0  0  0  0  0  0  0
   55.6216   26.2215   47.1380 H   0  0  0  0  0  0  0  0  0  0  0  0
   56.2562   27.0278   45.6636 H   0  0  0  0  0  0  0  0  0  0  0  0
   55.9663   25.2550   45.6636 H   0  0  0  0  0  0  0  0  0  0  0  0
   59.7401   27.0437   44.4396 H   0  0  0  0  0  0  0  0  0  0  0  0
   58.2442   26.0053   44.4177 H   0  0  0  0  0  0  0  0  0  0  0  0
   57.8245   27.9869   43.0821 H   0  0  0  0  0  0  0  0  0  0  0  0
   56.8718   28.0835   44.6266 H   0  0  0  0  0  0  0  0  0  0  0  0
   60.2858   28.4732   44.9631 H   0  0  0  0  0  0  0  0  0  0  0  0
   60.4319   30.1375   44.2657 H   0  0  0  0  0  0  0  0  0  0  0  0
   61.9916   30.7671   46.0991 H   0  0  0  0  0  0  0  0  0  0  0  0
   63.1154   32.2718   47.6776 H   0  0  0  0  0  0  0  0  0  0  0  0
   63.4399   33.8977   50.9817 H   0  0  0  0  0  0  0  0  0  0  0  0
   64.2885   33.3990   49.4790 H   0  0  0  0  0  0  0  0  0  0  0  0
   63.2476   34.8630   49.4790 H   0  0  0  0  0  0  0  0  0  0  0  0
   61.0580   33.5172   51.2759 H   0  0  0  0  0  0  0  0  0  0  0  0
   59.0737   32.1320   51.9435 H   0  0  0  0  0  0  0  0  0  0  0  0
   58.1372   33.0156   50.6909 H   0  0  0  0  0  0  0  0  0  0  0  0
   58.1654   31.2195   50.6909 H   0  0  0  0  0  0  0  0  0  0  0  0
   59.0610   32.0570   44.9660 H   0  0  0  0  0  0  0  0  0  0  0  0
   56.0649   32.4128   44.7239 H   0  0  0  0  0  0  0  0  0  0  0  0
   56.9581   32.4103   46.3002 H   0  0  0  0  0  0  0  0  0  0  0  0
   56.7935   34.5274   44.1762 H   0  0  0  0  0  0  0  0  0  0  0  0
   56.8416   34.6663   45.9786 H   0  0  0  0  0  0  0  0  0  0  0  0
   59.1836   34.0657   44.1032 H   0  0  0  0  0  0  0  0  0  0  0  0
   58.9107   35.5519   45.1021 H   0  0  0  0  0  0  0  0  0  0  0  0
   61.2875   34.3149   47.1867 H   0  0  0  0  0  0  0  0  0  0  0  0
   61.4909   33.4397   45.6313 H   0  0  0  0  0  0  0  0  0  0  0  0
   61.0331   35.1767   45.6313 H   0  0  0  0  0  0  0  0  0  0  0  0
   59.5029   33.8353   48.2918 H   0  0  0  0  0  0  0  0  0  0  0  0
   58.8801   35.3407   47.5352 H   0  0  0  0  0  0  0  0  0  0  0  0
   57.8738   33.8527   47.5352 H   0  0  0  0  0  0  0  0  0  0  0  0
  1  2  1  0
  2  3  1  0
  3  4  1  0
  4  5  1  0
  3  6  1  0
  6  7  1  0
  7  8  1  0
  8  9  1  0
  9 10  1  0
 10 11  2  0
 11 12  1  0
 12 13  2  0
 13 14  1  0
 14 15  1  0
 14 16  2  0
 16 17  1  0
 17 18  1  0
 17 19  2  0
 19 20  1  0
 20 21  1  0
 21 22  2  0
  8 23  1  0
 23 24  2  0
 23 25  1  0
 25 26  1  0
 26 27  1  0
 27 28  1  0
 28 29  1  0
 29 30  1  0
 29 31  1  0
 21 10  1  0
 19 12  1  0
  1 32  1  0
  1 33  1  0
  1 34  1  0
  2 35  1  0
  2 36  1  0
  3 37  1  0
  4 38  1  0
  4 39  1  0
  5 40  1  0
  5 41  1  0
  5 42  1  0
  6 43  1  0
  6 44  1  0
  7 45  1  0
  7 46  1  0
  9 47  1  0
  9 48  1  0
 11 49  1  0
 13 50  1  0
 15 51  1  0
 15 52  1  0
 15 53  1  0
 16 54  1  0
 18 55  1  0
 18 56  1  0
 18 57  1  0
 25 58  1  0
 26 59  1  0
 26 60  1  0
 27 61  1  0
 27 62  1  0
 28 63  1  0
 28 64  1  0
 30 65  1  0
 30 66  1  0
 30 67  1  0
 31 68  1  0
 31 69  1  0
 31 70  1  0
M  CHG  2   3   1  20  -1
M  END
>  <UniqueID>  (23) 
23

>  <SMILES>  (23) 
CC[NH+](CC)CCN(Cc1cc2cc(C)cc(C)c2[n-]c1=O)C(=S)NCCCN(C)C

>  <Energy>  (23) 
72.95939668578893

>  <Genealogy>  (23) 
CC[NH+](CC)CCN(Cc1cc2cc(C)cc(C)c2[n-]c1=O)C(=S)NCCCN(C)C (protonated)
CC[NH+](CC)CCN(Cc1cc2cc(C)cc(C)c2[n-]c1=O)C(=S)NCCCN(C)C (3D coordinates assigned)
CC[NH+](CC)CCN(Cc1cc2cc(C)cc(C)c2[n-]c1=O)C(=S)NCCCN(C)C (optimized conformer: 72.95939668578893 kcal/mol)

>  <smiles>  (23) 
CCN(CC)CCN(Cc1cc2cc(C)cc(C)c2[nH]c1=O)C(=S)NCCCN(C)C

>  <score_type>  (23) 
oracle

>  <origin>  (23) 
adg

>  <m_score__min__energy>  (23) 
-6.6399999999999997

>  <m_primary>  (23) 
energy

$$$$
23:0
     RDKit          3D

 62 63  0  0  0  0  0  0  0  0999 V2000
   60.7100   29.0360   45.2080 C   0  0  0  0  0  0  0  0  0  0  0  0
   60.2630   29.0550   46.6750 C   0  0  0  0  0  0  0  0  0  0  0  0
   59.7580   27.7490   47.1740 N   0  0  0  0  0  0  0  0  0  0  0  0
   60.2270   27.4100   48.5400 C   0  0  0  0  0  0  0  0  0  0  0  0
   60.5050   28.6640   49.3670 C   0  0  0  0  0  0  0  0  0  0  0  0
   60.0050   26.6420   46.2200 C   0  0  0  0  0  0  0  0  0  0  0  0
   58.7230   25.8170   46.0350 C   0  0  0  0  0  0  0  0  0  0  0  0
   57.8250   26.3730   44.9230 C   0  0  0  0  0  0  0  0  0  0  0  0
   56.9630   27.4510   45.4260 N   0  0  0  0  0  0  0  0  0  0  0  0
   57.4520   28.7440   44.9280 C   0  0  0  0  0  0  0  0  0  0  0  0
   56.3310   29.7310   44.7270 C   0  0  0  0  0  0  0  0  0  0  0  0
   55.1460   29.3250   44.8760 O   0  0  0  0  0  0  0  0  0  0  0  0
   56.5350   31.1120   44.3920 N   0  0  0  0  0  0  0  0  0  0  0  0
   57.4030   32.0770   45.0020 C   0  0  0  0  0  0  0  0  0  0  0  0
   57.6500   33.3300   44.4300 C   0  0  0  0  0  0  0  0  0  0  0  0
   58.4930   34.2380   45.0690 C   0  0  0  0  0  0  0  0  0  0  0  0
   59.0900   33.9250   46.3030 C   0  0  0  0  0  0  0  0  0  0  0  0
   59.9740   34.9560   46.9470 C   0  0  0  0  0  0  0  0  0  0  0  0
   58.8010   32.6740   46.9130 C   0  0  0  0  0  0  0  0  0  0  0  0
   59.4540   32.1590   48.4870 S   0  0  0  0  0  0  0  0  0  0  0  0
   59.3660   33.2570   49.5100 O   0  0  0  0  0  0  0  0  0  0  0  0
   58.6110   31.0190   48.9920 O   0  0  0  0  0  0  0  0  0  0  0  0
   61.1300   31.6550   48.3770 N   0  0  0  0  0  0  0  0  0  0  0  0
   61.7770   32.0050   47.0900 C   0  0  0  0  0  0  0  0  0  0  0  0
   62.9360   32.9940   47.2620 C   0  0  0  0  0  0  0  0  0  0  0  0
   62.5670   33.9990   48.1750 O   0  0  0  0  0  0  0  0  0  0  0  0
   62.4850   33.4710   49.4880 C   0  0  0  0  0  0  0  0  0  0  0  0
   61.9120   32.0320   49.5700 C   0  0  0  0  0  0  0  0  0  0  0  0
   57.9440   31.7790   46.2540 C   0  0  0  0  0  0  0  0  0  0  0  0
   61.8080   28.9893   45.1598 H   0  0  0  0  0  0  0  0  0  0  0  0
   60.2832   28.1552   44.7060 H   0  0  0  0  0  0  0  0  0  0  0  0
   60.3595   29.9499   44.7060 H   0  0  0  0  0  0  0  0  0  0  0  0
   61.1225   29.3520   47.2939 H   0  0  0  0  0  0  0  0  0  0  0  0
   59.4252   29.7647   46.7415 H   0  0  0  0  0  0  0  0  0  0  0  0
   59.4531   26.8136   49.0453 H   0  0  0  0  0  0  0  0  0  0  0  0
   61.1649   26.8422   48.4505 H   0  0  0  0  0  0  0  0  0  0  0  0
   60.4502   28.4169   50.4375 H   0  0  0  0  0  0  0  0  0  0  0  0
   61.5093   29.0447   49.1295 H   0  0  0  0  0  0  0  0  0  0  0  0
   59.7556   29.4334   49.1295 H   0  0  0  0  0  0  0  0  0  0  0  0
   60.3142   27.0584   45.2499 H   0  0  0  0  0  0  0  0  0  0  0  0
   60.8000   25.9929   46.6158 H   0  0  0  0  0  0  0  0  0  0  0  0
   59.0016   24.7837   45.7805 H   0  0  0  0  0  0  0  0  0  0  0  0
   58.1567   25.8616   46.9770 H   0  0  0  0  0  0  0  0  0  0  0  0
   58.4578   26.7673   44.1142 H   0  0  0  0  0  0  0  0  0  0  0  0
   57.1847   25.5590   44.5524 H   0  0  0  0  0  0  0  0  0  0  0  0
   56.0020   27.2970   45.0380 H   0  0  0  0  0  0  0  0  0  0  0  0
   58.1644   29.1589   45.6563 H   0  0  0  0  0  0  0  0  0  0  0  0
   57.9337   28.5733   43.9539 H   0  0  0  0  0  0  0  0  0  0  0  0
   57.1778   33.5992   43.4737 H   0  0  0  0  0  0  0  0  0  0  0  0
   58.6940   35.2131   44.6012 H   0  0  0  0  0  0  0  0  0  0  0  0
   59.9004   34.8702   48.0412 H   0  0  0  0  0  0  0  0  0  0  0  0
   61.0161   34.7916   46.6356 H   0  0  0  0  0  0  0  0  0  0  0  0
   59.6524   35.9608   46.6356 H   0  0  0  0  0  0  0  0  0  0  0  0
   62.1648   31.0846   46.6290 H   0  0  0  0  0  0  0  0  0  0  0  0
   61.0184   32.4879   46.4564 H   0  0  0  0  0  0  0  0  0  0  0  0
   63.8194   32.4602   47.6424 H   0  0  0  0  0  0  0  0  0  0  0  0
   63.1728   33.4520   46.2903 H   0  0  0  0  0  0  0  0  0  0  0  0
   63.4973   33.4624   49.9183 H   0  0  0  0  0  0  0  0  0  0  0  0
   61.7870   34.1168   50.0410 H   0  0  0  0  0  0  0  0  0  0  0  0
   62.7492   31.3267   49.6778 H   0  0  0  0  0  0  0  0  0  0  0  0
   61.2323   31.9968   50.4341 H   0  0  0  0  0  0  0  0  0  0  0  0
   57.6931   30.8218   46.7345 H   0  0  0  0  0  0  0  0  0  0  0  0
  1  2  1  0
  2  3  1  0
  3  4  1  0
  4  5  1  0
  3  6  1  0
  6  7  1  0
  7  8  1  0
  8  9  1  0
  9 10  1  0
 10 11  1  0
 11 12  2  0
 11 13  1  0
 13 14  1  0
 14 15  2  0
 15 16  1  0
 16 17  2  0
 17 18  1  0
 17 19  1  0
 19 20  1  0
 20 21  2  0
 20 22  2  0
 20 23  1  0
 23 24  1  0
 24 25  1  0
 25 26  1  0
 26 27  1  0
 27 28  1  0
 19 29  2  0
 29 14  1  0
 28 23  1  0
  1 30  1  0
  1 31  1  0
  1 32  1  0
  2 33  1  0
  2 34  1  0
  4 35  1  0
  4 36  1  0
  5 37  1  0
  5 38  1  0
  5 39  1  0
  6 40  1  0
  6 41  1  0
  7 42  1  0
  7 43  1  0
  8 44  1  0
  8 45  1  0
  9 46  1  0
 10 47  1  0
 10 48  1  0
 15 49  1  0
 16 50  1  0
 18 51  1  0
 18 52  1  0
 18 53  1  0
 24 54  1  0
 24 55  1  0
 25 56  1  0
 25 57  1  0
 27 58  1  0
 27 59  1  0
 28 60  1  0
 28 61  1  0
 29 62  1  0
M  CHG  1  13  -1
M  END
>  <UniqueID>  (24) 
24

>  <SMILES>  (24) 
CCN(CC)CCCNCC(=O)[N-]c1ccc(C)c(S(=O)(=O)N2CCOCC2)c1

>  <Energy>  (24) 
72.14184665575914

>  <Genealogy>  (24) 
CCN(CC)CCCNCC(=O)[N-]c1ccc(C)c(S(=O)(=O)N2CCOCC2)c1 (protonated)
CCN(CC)CCCNCC(=O)[N-]c1ccc(C)c(S(=O)(=O)N2CCOCC2)c1 (3D coordinates assigned)
CCN(CC)CCCNCC(=O)[N-]c1ccc(C)c(S(=O)(=O)N2CCOCC2)c1 (nonaromatic ring conformer: 72.14184665575914 kcal/mol)

>  <smiles>  (24) 
CCN(CC)CCCNCC(=O)Nc1ccc(C)c(S(=O)(=O)N2CCOCC2)c1

>  <score_type>  (24) 
oracle

>  <origin>  (24) 
adg

>  <m_score__min__energy>  (24) 
-10.109999999999999

>  <m_primary>  (24) 
energy

$$$$
24:0
     RDKit          3D

 42 43  0  0  0  0  0  0  0  0999 V2000
   58.1140   32.1130   41.7390 C   0  0  0  0  0  0  0  0  0  0  0  0
   57.0190   31.1850   42.2580 C   0  0  0  0  0  0  0  0  0  0  0  0
   57.5630   30.2810   43.2730 N   0  0  0  0  0  0  0  0  0  0  0  0
   57.1010   30.8320   44.8560 S   0  0  0  0  0  0  0  0  0  0  0  0
   55.6470   31.2160   44.8290 O   0  0  0  0  0  0  0  0  0  0  0  0
   57.2640   29.7110   45.8430 O   0  0  0  0  0  0  0  0  0  0  0  0
   58.0870   32.2200   45.3600 C   0  0  0  0  0  0  0  0  0  0  0  0
   58.0830   33.3750   44.5580 C   0  0  0  0  0  0  0  0  0  0  0  0
   58.8780   34.4740   44.8870 C   0  0  0  0  0  0  0  0  0  0  0  0
   59.6910   34.4360   46.0190 C   0  0  0  0  0  0  0  0  0  0  0  0
   59.7100   33.2980   46.8260 C   0  0  0  0  0  0  0  0  0  0  0  0
   58.9170   32.1840   46.5100 C   0  0  0  0  0  0  0  0  0  0  0  0
   58.9740   31.0110   47.4070 C   0  0  0  0  0  0  0  0  0  0  0  0
   58.5180   31.1210   48.5770 O   0  0  0  0  0  0  0  0  0  0  0  0
   59.5670   29.7650   46.9780 N   0  0  0  0  0  0  0  0  0  0  0  0
   59.3560   28.5370   47.7660 C   0  0  0  0  0  0  0  0  0  0  0  0
   60.4110   27.4760   47.4430 C   0  0  0  0  0  0  0  0  0  0  0  0
   60.4610   27.1770   45.9380 C   0  0  0  0  0  0  0  0  0  0  0  0
   60.3800   28.4480   45.0440 C   0  0  1  0  0  0  0  0  0  0  0  0
   59.1340   28.4750   44.2720 N   0  0  0  0  0  0  0  0  0  0  0  0
   60.5130   29.7520   45.8510 C   0  0  0  0  0  0  0  0  0  0  0  0
   58.6461   32.5639   42.5896 H   0  0  0  0  0  0  0  0  0  0  0  0
   58.8232   31.5368   41.1267 H   0  0  0  0  0  0  0  0  0  0  0  0
   57.6619   32.9071   41.1267 H   0  0  0  0  0  0  0  0  0  0  0  0
   56.2125   31.7870   42.7020 H   0  0  0  0  0  0  0  0  0  0  0  0
   56.6254   30.5901   41.4207 H   0  0  0  0  0  0  0  0  0  0  0  0
   58.6060   30.3110   43.2240 H   0  0  0  0  0  0  0  0  0  0  0  0
   57.4465   33.4128   43.6617 H   0  0  0  0  0  0  0  0  0  0  0  0
   58.8631   35.3720   44.2519 H   0  0  0  0  0  0  0  0  0  0  0  0
   60.3173   35.3030   46.2758 H   0  0  0  0  0  0  0  0  0  0  0  0
   60.3526   33.2737   47.7184 H   0  0  0  0  0  0  0  0  0  0  0  0
   59.4138   28.7845   48.8362 H   0  0  0  0  0  0  0  0  0  0  0  0
   58.3666   28.1291   47.5117 H   0  0  0  0  0  0  0  0  0  0  0  0
   61.3965   27.8403   47.7686 H   0  0  0  0  0  0  0  0  0  0  0  0
   60.1437   26.5492   47.9718 H   0  0  0  0  0  0  0  0  0  0  0  0
   61.4055   26.6578   45.7184 H   0  0  0  0  0  0  0  0  0  0  0  0
   59.5794   26.5625   45.7032 H   0  0  0  0  0  0  0  0  0  0  0  0
   61.2359   28.3893   44.3556 H   0  0  0  0  0  0  0  0  0  0  0  0
   58.4130   29.0020   44.8170 H   0  0  0  0  0  0  0  0  0  0  0  0
   59.2900   28.9920   43.3760 H   0  0  0  0  0  0  0  0  0  0  0  0
   61.5388   29.8331   46.2397 H   0  0  0  0  0  0  0  0  0  0  0  0
   60.2871   30.6016   45.1899 H   0  0  0  0  0  0  0  0  0  0  0  0
  1  2  1  0
  2  3  1  0
  3  4  1  0
  4  5  2  0
  4  6  2  0
  4  7  1  0
  7  8  2  0
  8  9  1  0
  9 10  2  0
 10 11  1  0
 11 12  2  0
 12 13  1  0
 13 14  2  0
 13 15  1  0
 15 16  1  0
 16 17  1  0
 17 18  1  0
 18 19  1  0
 19 20  1  0
 19 21  1  0
 12  7  1  0
 21 15  1  0
  1 22  1  0
  1 23  1  0
  1 24  1  0
  2 25  1  0
  2 26  1  0
  3 27  1  0
  8 28  1  0
  9 29  1  0
 10 30  1  0
 11 31  1  0
 16 32  1  0
 16 33  1  0
 17 34  1  0
 17 35  1  0
 18 36  1  0
 18 37  1  0
 19 38  1  6
 20 39  1  0
 20 40  1  0
 21 41  1  0
 21 42  1  0
M  END
>  <UniqueID>  (25) 
25

>  <SMILES>  (25) 
CCNS(=O)(=O)c1ccccc1C(=O)N1CCC[C@@H](N)C1

>  <Energy>  (25) 
43.75792241629529

>  <Genealogy>  (25) 
CCNS(=O)(=O)c1ccccc1C(=O)N1CCC[C@@H](N)C1 (chirality)
CCNS(=O)(=O)c1ccccc1C(=O)N1CCC[C@@H](N)C1 (3D coordinates assigned)
CCNS(=O)(=O)c1ccccc1C(=O)N1CCC[C@@H](N)C1 (nonaromatic ring conformer: 43.75792241629529 kcal/mol)

>  <smiles>  (25) 
CCNS(=O)(=O)c1ccccc1C(=O)N1CCCC(N)C1

>  <score_type>  (25) 
oracle

>  <origin>  (25) 
adg

>  <m_score__min__energy>  (25) 
-8.0700000000000003

>  <m_primary>  (25) 
energy

$$$$
25:0
     RDKit          3D

 47 50  0  0  0  0  0  0  0  0999 V2000
   59.6760   30.2580   48.8490 C   0  0  0  0  0  0  0  0  0  0  0  0
   60.2670   31.0410   47.8180 O   0  0  0  0  0  0  0  0  0  0  0  0
   61.4550   31.7740   47.9570 C   0  0  0  0  0  0  0  0  0  0  0  0
   62.6290   31.2020   48.4880 C   0  0  0  0  0  0  0  0  0  0  0  0
   63.7860   31.9730   48.6320 C   0  0  0  0  0  0  0  0  0  0  0  0
   63.7850   33.3160   48.2550 C   0  0  0  0  0  0  0  0  0  0  0  0
   62.6280   33.8940   47.7280 C   0  0  0  0  0  0  0  0  0  0  0  0
   61.4650   33.1270   47.5680 C   0  0  0  0  0  0  0  0  0  0  0  0
   60.2810   33.7340   47.0350 N   0  0  0  0  0  0  0  0  0  0  0  0
   58.9870   33.4540   47.6620 C   0  0  0  0  0  0  0  0  0  0  0  0
   57.8430   34.1830   46.9390 C   0  0  0  0  0  0  0  0  0  0  0  0
   57.9220   34.0720   45.4620 N   0  0  0  0  0  0  0  0  0  0  0  0
   57.0610   33.0250   44.8710 C   0  0  0  0  0  0  0  0  0  0  0  0
   57.6920   31.6580   44.8870 C   0  0  0  0  0  0  0  0  0  0  0  0
   57.1840   30.5260   44.2460 C   0  0  0  0  0  0  0  0  0  0  0  0
   58.1040   29.5340   44.4970 C   0  0  0  0  0  0  0  0  0  0  0  0
   58.1530   28.2020   44.1030 C   0  0  0  0  0  0  0  0  0  0  0  0
   59.2590   27.4440   44.5230 C   0  0  0  0  0  0  0  0  0  0  0  0
   60.2640   28.0460   45.3160 C   0  0  0  0  0  0  0  0  0  0  0  0
   60.1670   29.3620   45.6780 N   0  0  0  0  0  0  0  0  0  0  0  0
   59.0930   30.0810   45.2650 C   0  0  0  0  0  0  0  0  0  0  0  0
   58.8560   31.3760   45.5200 N   0  0  0  0  0  0  0  0  0  0  0  0
   59.2750   34.1530   44.8560 C   0  0  0  0  0  0  0  0  0  0  0  0
   60.3500   34.5900   45.8520 C   0  0  0  0  0  0  0  0  0  0  0  0
   59.9764   30.6559   49.8295 H   0  0  0  0  0  0  0  0  0  0  0  0
   58.5805   30.2975   48.7572 H   0  0  0  0  0  0  0  0  0  0  0  0
   60.0143   29.2153   48.7572 H   0  0  0  0  0  0  0  0  0  0  0  0
   62.6346   30.1444   48.7903 H   0  0  0  0  0  0  0  0  0  0  0  0
   64.6997   31.5195   49.0437 H   0  0  0  0  0  0  0  0  0  0  0  0
   64.6965   33.9204   48.3729 H   0  0  0  0  0  0  0  0  0  0  0  0
   62.6290   34.9549   47.4373 H   0  0  0  0  0  0  0  0  0  0  0  0
   58.7995   32.3707   47.6270 H   0  0  0  0  0  0  0  0  0  0  0  0
   59.0221   33.8111   48.7018 H   0  0  0  0  0  0  0  0  0  0  0  0
   56.8876   33.7512   47.2716 H   0  0  0  0  0  0  0  0  0  0  0  0
   57.9236   35.2505   47.1918 H   0  0  0  0  0  0  0  0  0  0  0  0
   56.1211   32.9827   45.4409 H   0  0  0  0  0  0  0  0  0  0  0  0
   56.8944   33.2954   43.8178 H   0  0  0  0  0  0  0  0  0  0  0  0
   56.2522   30.4451   43.6671 H   0  0  0  0  0  0  0  0  0  0  0  0
   57.3571   27.7586   43.4865 H   0  0  0  0  0  0  0  0  0  0  0  0
   59.3432   26.3854   44.2360 H   0  0  0  0  0  0  0  0  0  0  0  0
   61.1297   27.4519   45.6440 H   0  0  0  0  0  0  0  0  0  0  0  0
   60.9120   29.8040   46.2610 H   0  0  0  0  0  0  0  0  0  0  0  0
   59.4540   32.0290   46.0760 H   0  0  0  0  0  0  0  0  0  0  0  0
   59.5433   33.1611   44.4633 H   0  0  0  0  0  0  0  0  0  0  0  0
   59.2348   34.9120   44.0608 H   0  0  0  0  0  0  0  0  0  0  0  0
   61.3426   34.4970   45.3872 H   0  0  0  0  0  0  0  0  0  0  0  0
   60.1831   35.6379   46.1420 H   0  0  0  0  0  0  0  0  0  0  0  0
  1  2  1  0
  2  3  1  0
  3  4  2  0
  4  5  1  0
  5  6  2  0
  6  7  1  0
  7  8  2  0
  8  9  1  0
  9 10  1  0
 10 11  1  0
 11 12  1  0
 12 13  1  0
 13 14  1  0
 14 15  2  0
 15 16  1  0
 16 17  2  0
 17 18  1  0
 18 19  2  0
 19 20  1  0
 20 21  2  0
 21 22  1  0
 12 23  1  0
 23 24  1  0
  8  3  1  0
 24  9  1  0
 22 14  1  0
 21 16  1  0
  1 25  1  0
  1 26  1  0
  1 27  1  0
  4 28  1  0
  5 29  1  0
  6 30  1  0
  7 31  1  0
 10 32  1  0
 10 33  1  0
 11 34  1  0
 11 35  1  0
 13 36  1  0
 13 37  1  0
 15 38  1  0
 17 39  1  0
 18 40  1  0
 19 41  1  0
 20 42  1  0
 22 43  1  0
 23 44  1  0
 23 45  1  0
 24 46  1  0
 24 47  1  0
M  CHG  1  20   1
M  END
>  <UniqueID>  (26) 
26

>  <SMILES>  (26) 
COc1ccccc1N1CCN(Cc2cc3ccc[nH+]c3[nH]2)CC1

>  <Energy>  (26) 
94.8312972642759

>  <Genealogy>  (26) 
COc1ccccc1N1CCN(Cc2cc3ccc[nH+]c3[nH]2)CC1 (protonated)
COc1ccccc1N1CCN(Cc2cc3ccc[nH+]c3[nH]2)CC1 (3D coordinates assigned)
COc1ccccc1N1CCN(Cc2cc3ccc[nH+]c3[nH]2)CC1 (nonaromatic ring conformer: 94.8312972642759 kcal/mol)

>  <smiles>  (26) 
COc1ccccc1N1CCN(Cc2cc3cccnc3[nH]2)CC1

>  <score_type>  (26) 
oracle

>  <origin>  (26) 
adg

>  <m_score__min__energy>  (26) 
-4.9299999999999997

>  <m_primary>  (26) 
energy

$$$$
26:0
     RDKit          3D

 40 43  0  0  0  0  0  0  0  0999 V2000
   60.0270   35.7010   46.4240 O   0  0  0  0  0  0  0  0  0  0  0  0
   60.1280   34.4640   46.6480 C   0  0  0  0  0  0  0  0  0  0  0  0
   61.2850   33.9720   47.4340 C   0  0  0  0  0  0  0  0  0  0  0  0
   62.4300   33.4580   46.8020 C   0  0  0  0  0  0  0  0  0  0  0  0
   63.5090   32.9910   47.5570 C   0  0  0  0  0  0  0  0  0  0  0  0
   63.4640   33.0180   48.9620 C   0  0  0  0  0  0  0  0  0  0  0  0
   64.5790   32.5380   49.7420 N   0  0  0  0  0  0  0  0  0  0  0  0
   64.5920   31.4890   50.5870 C   0  0  0  0  0  0  0  0  0  0  0  0
   65.8550   31.3860   51.1220 C   0  0  0  0  0  0  0  0  0  0  0  0
   66.6400   32.3600   50.6200 N   0  0  0  0  0  0  0  0  0  0  0  0
   65.8310   33.0440   49.7840 C   0  0  0  0  0  0  0  0  0  0  0  0
   62.3100   33.5150   49.5930 C   0  0  0  0  0  0  0  0  0  0  0  0
   61.2310   33.9810   48.8380 C   0  0  0  0  0  0  0  0  0  0  0  0
   59.1090   33.5420   46.0920 C   0  0  0  0  0  0  0  0  0  0  0  0
   57.9410   34.0300   45.4980 C   0  0  0  0  0  0  0  0  0  0  0  0
   57.0250   33.1320   44.9610 C   0  0  0  0  0  0  0  0  0  0  0  0
   57.2890   31.7640   45.0210 C   0  0  0  0  0  0  0  0  0  0  0  0
   56.4710   30.9520   44.5060 O   0  0  0  0  0  0  0  0  0  0  0  0
   58.4410   31.3210   45.6190 N   0  0  0  0  0  0  0  0  0  0  0  0
   58.7520   29.9190   45.7200 C   0  0  0  0  0  0  0  0  0  0  0  0
   58.9930   29.1550   44.5640 C   0  0  0  0  0  0  0  0  0  0  0  0
   59.2660   27.7870   44.6650 C   0  0  0  0  0  0  0  0  0  0  0  0
   59.2920   27.1690   45.9170 C   0  0  0  0  0  0  0  0  0  0  0  0
   59.0420   27.9160   47.0710 C   0  0  0  0  0  0  0  0  0  0  0  0
   58.7670   29.2850   46.9760 C   0  0  0  0  0  0  0  0  0  0  0  0
   58.5360   29.9960   48.1090 F   0  0  0  0  0  0  0  0  0  0  0  0
   59.3160   32.1980   46.1220 N   0  0  0  0  0  0  0  0  0  0  0  0
   62.4773   33.4230   45.7036 H   0  0  0  0  0  0  0  0  0  0  0  0
   64.4016   32.5988   47.0476 H   0  0  0  0  0  0  0  0  0  0  0  0
   63.7405   30.8294   50.8104 H   0  0  0  0  0  0  0  0  0  0  0  0
   66.1755   30.6249   51.8486 H   0  0  0  0  0  0  0  0  0  0  0  0
   66.1555   33.9181   49.2004 H   0  0  0  0  0  0  0  0  0  0  0  0
   62.2563   33.5371   50.6915 H   0  0  0  0  0  0  0  0  0  0  0  0
   60.3316   34.3581   49.3469 H   0  0  0  0  0  0  0  0  0  0  0  0
   57.7489   35.1123   45.4560 H   0  0  0  0  0  0  0  0  0  0  0  0
   56.0994   33.4979   44.4926 H   0  0  0  0  0  0  0  0  0  0  0  0
   58.9666   29.6360   43.5751 H   0  0  0  0  0  0  0  0  0  0  0  0
   59.4605   27.1972   43.7571 H   0  0  0  0  0  0  0  0  0  0  0  0
   59.5094   26.0935   45.9947 H   0  0  0  0  0  0  0  0  0  0  0  0
   59.0614   27.4271   48.0562 H   0  0  0  0  0  0  0  0  0  0  0  0
  1  2  2  0
  2  3  1  0
  3  4  2  0
  4  5  1  0
  5  6  2  0
  6  7  1  0
  7  8  1  0
  8  9  2  0
  9 10  1  0
 10 11  2  0
  6 12  1  0
 12 13  2  0
  2 14  1  0
 14 15  1  0
 15 16  2  0
 16 17  1  0
 17 18  2  0
 17 19  1  0
 19 20  1  0
 20 21  2  0
 21 22  1  0
 22 23  2  0
 23 24  1  0
 24 25  2  0
 25 26  1  0
 19 27  1  0
 13  3  1  0
 27 14  2  0
 11  7  1  0
 25 20  1  0
  4 28  1  0
  5 29  1  0
  8 30  1  0
  9 31  1  0
 11 32  1  0
 12 33  1  0
 13 34  1  0
 15 35  1  0
 16 36  1  0
 21 37  1  0
 22 38  1  0
 23 39  1  0
 24 40  1  0
M  END
>  <UniqueID>  (27) 
27

>  <SMILES>  (27) 
O=C(c1ccc(-n2ccnc2)cc1)c1ccc(=O)n(-c2ccccc2F)n1

>  <Energy>  (27) 
90.31195083046265

>  <Genealogy>  (27) 
O=C(c1ccc(-n2ccnc2)cc1)c1ccc(=O)n(-c2ccccc2F)n1 (3D coordinates assigned)
O=C(c1ccc(-n2ccnc2)cc1)c1ccc(=O)n(-c2ccccc2F)n1 (optimized conformer: 90.31195083046265 kcal/mol)

>  <smiles>  (27) 
O=C(c1ccc(-n2ccnc2)cc1)c1ccc(=O)n(-c2ccccc2F)n1

>  <score_type>  (27) 
oracle

>  <origin>  (27) 
adg

>  <m_score__min__energy>  (27) 
-8.3399999999999999

>  <m_primary>  (27) 
energy

$$$$
27:0
     RDKit          3D

 50 53  0  0  0  0  0  0  0  0999 V2000
   60.7710   27.0320   49.9600 C   0  0  0  0  0  0  0  0  0  0  0  0
   60.9400   26.7440   48.5770 O   0  0  0  0  0  0  0  0  0  0  0  0
   60.0100   27.0850   47.5840 C   0  0  0  0  0  0  0  0  0  0  0  0
   59.4590   26.1440   46.6850 C   0  0  0  0  0  0  0  0  0  0  0  0
   58.5330   26.5500   45.7070 C   0  0  0  0  0  0  0  0  0  0  0  0
   58.1540   27.8960   45.6240 C   0  0  0  0  0  0  0  0  0  0  0  0
   58.7030   28.7720   46.5050 N   0  0  0  0  0  0  0  0  0  0  0  0
   59.5960   28.4120   47.4560 C   0  0  0  0  0  0  0  0  0  0  0  0
   60.0230   29.4440   48.2250 N   0  0  0  0  0  0  0  0  0  0  0  0
   59.3430   30.4900   47.7030 C   0  0  0  0  0  0  0  0  0  0  0  0
   58.5490   30.0960   46.6720 C   0  0  0  0  0  0  0  0  0  0  0  0
   57.7750   31.0200   45.9850 C   0  0  0  0  0  0  0  0  0  0  0  0
   57.0480   30.6570   45.0210 O   0  0  0  0  0  0  0  0  0  0  0  0
   57.8340   32.3400   46.3780 N   0  0  0  0  0  0  0  0  0  0  0  0
   57.0490   33.3650   45.6570 C   0  0  0  0  0  0  0  0  0  0  0  0
   57.8440   33.9570   44.4710 C   0  0  0  0  0  0  0  0  0  0  0  0
   58.1520   32.8630   43.4420 C   0  0  0  0  0  0  0  0  0  0  0  0
   59.1450   34.6230   44.9370 C   0  0  0  0  0  0  0  0  0  0  0  0
   58.6490   32.7180   47.4340 C   0  0  0  0  0  0  0  0  0  0  0  0
   58.6910   33.9310   47.7860 O   0  0  0  0  0  0  0  0  0  0  0  0
   59.4130   31.7880   48.1090 N   0  0  0  0  0  0  0  0  0  0  0  0
   60.3290   32.1790   49.1950 C   0  0  0  0  0  0  0  0  0  0  0  0
   61.6420   32.6480   48.6270 C   0  0  0  0  0  0  0  0  0  0  0  0
   61.6770   33.3780   47.4270 C   0  0  0  0  0  0  0  0  0  0  0  0
   62.8990   33.7780   46.8800 C   0  0  0  0  0  0  0  0  0  0  0  0
   64.0950   33.4500   47.5220 C   0  0  0  0  0  0  0  0  0  0  0  0
   64.0720   32.7190   48.7130 C   0  0  0  0  0  0  0  0  0  0  0  0
   62.8510   32.3170   49.2630 C   0  0  0  0  0  0  0  0  0  0  0  0
   61.2377   26.2367   50.5598 H   0  0  0  0  0  0  0  0  0  0  0  0
   61.2470   27.9955   50.1947 H   0  0  0  0  0  0  0  0  0  0  0  0
   59.6977   27.0864   50.1947 H   0  0  0  0  0  0  0  0  0  0  0  0
   59.7562   25.0869   46.7505 H   0  0  0  0  0  0  0  0  0  0  0  0
   58.1079   25.8130   45.0098 H   0  0  0  0  0  0  0  0  0  0  0  0
   57.4318   28.2342   44.8663 H   0  0  0  0  0  0  0  0  0  0  0  0
   56.1261   32.9047   45.2744 H   0  0  0  0  0  0  0  0  0  0  0  0
   56.8184   34.1799   46.3589 H   0  0  0  0  0  0  0  0  0  0  0  0
   57.2187   34.7318   44.0033 H   0  0  0  0  0  0  0  0  0  0  0  0
   58.4143   31.9313   43.9647 H   0  0  0  0  0  0  0  0  0  0  0  0
   57.2668   32.6930   42.8115 H   0  0  0  0  0  0  0  0  0  0  0  0
   58.9959   33.1798   42.8115 H   0  0  0  0  0  0  0  0  0  0  0  0
   59.1755   34.6386   46.0365 H   0  0  0  0  0  0  0  0  0  0  0  0
   60.0054   34.0545   44.5543 H   0  0  0  0  0  0  0  0  0  0  0  0
   59.1869   35.6534   44.5543 H   0  0  0  0  0  0  0  0  0  0  0  0
   59.8741   32.9934   49.7780 H   0  0  0  0  0  0  0  0  0  0  0  0
   60.5095   31.3080   49.8421 H   0  0  0  0  0  0  0  0  0  0  0  0
   60.7378   33.6359   46.9156 H   0  0  0  0  0  0  0  0  0  0  0  0
   62.9189   34.3523   45.9420 H   0  0  0  0  0  0  0  0  0  0  0  0
   65.0557   33.7671   47.0901 H   0  0  0  0  0  0  0  0  0  0  0  0
   65.0145   32.4599   49.2177 H   0  0  0  0  0  0  0  0  0  0  0  0
   62.8365   31.7386   50.1985 H   0  0  0  0  0  0  0  0  0  0  0  0
  1  2  1  0
  2  3  1  0
  3  4  2  0
  4  5  1  0
  5  6  2  0
  6  7  1  0
  7  8  1  0
  8  9  2  0
  9 10  1  0
 10 11  2  0
 11 12  1  0
 12 13  2  0
 12 14  1  0
 14 15  1  0
 15 16  1  0
 16 17  1  0
 16 18  1  0
 14 19  1  0
 19 20  2  0
 19 21  1  0
 21 22  1  0
 22 23  1  0
 23 24  2  0
 24 25  1  0
 25 26  2  0
 26 27  1  0
 27 28  2  0
  8  3  1  0
 21 10  1  0
 28 23  1  0
 11  7  1  0
  1 29  1  0
  1 30  1  0
  1 31  1  0
  4 32  1  0
  5 33  1  0
  6 34  1  0
 15 35  1  0
 15 36  1  0
 16 37  1  0
 17 38  1  0
 17 39  1  0
 17 40  1  0
 18 41  1  0
 18 42  1  0
 18 43  1  0
 22 44  1  0
 22 45  1  0
 24 46  1  0
 25 47  1  0
 26 48  1  0
 27 49  1  0
 28 50  1  0
M  END
>  <UniqueID>  (28) 
28

>  <SMILES>  (28) 
COc1cccn2c1nc1c2c(=O)n(CC(C)C)c(=O)n1Cc1ccccc1

>  <Energy>  (28) 
97.87389791958734

>  <Genealogy>  (28) 
COc1cccn2c1nc1c2c(=O)n(CC(C)C)c(=O)n1Cc1ccccc1 (3D coordinates assigned)
COc1cccn2c1nc1c2c(=O)n(CC(C)C)c(=O)n1Cc1ccccc1 (optimized conformer: 97.87389791958734 kcal/mol)

>  <smiles>  (28) 
COc1cccn2c1nc1c2c(=O)n(CC(C)C)c(=O)n1Cc1ccccc1

>  <score_type>  (28) 
oracle

>  <origin>  (28) 
adg

>  <m_score__min__energy>  (28) 
-7.7199999999999998

>  <m_primary>  (28) 
energy

$$$$
28:0
     RDKit          3D

 39 41  0  0  0  0  0  0  0  0999 V2000
   57.2990   28.5210   44.9730 C   0  0  0  0  0  0  0  0  0  0  0  0
   56.8260   29.8140   45.3330 O   0  0  0  0  0  0  0  0  0  0  0  0
   57.3840   31.0190   44.8750 C   0  0  0  0  0  0  0  0  0  0  0  0
   57.7670   31.9740   45.8220 C   0  0  0  0  0  0  0  0  0  0  0  0
   58.3220   33.1960   45.4210 C   0  0  0  0  0  0  0  0  0  0  0  0
   58.7730   34.1970   46.4490 C   0  0  0  0  0  0  0  0  0  0  0  0
   60.1670   33.9520   46.7970 N   0  0  0  0  0  0  0  0  0  0  0  0
   60.6830   33.8800   48.0390 C   0  0  0  0  0  0  0  0  0  0  0  0
   62.0500   33.7230   47.8880 C   0  0  0  0  0  0  0  0  0  0  0  0
   63.0670   33.6050   48.9620 C   0  0  0  0  0  0  0  0  0  0  0  0
   64.2230   32.8260   48.7790 C   0  0  0  0  0  0  0  0  0  0  0  0
   65.1710   32.7220   49.7990 C   0  0  0  0  0  0  0  0  0  0  0  0
   64.9610   33.4000   50.9990 C   0  0  0  0  0  0  0  0  0  0  0  0
   63.8430   34.1530   51.1660 N   0  0  0  0  0  0  0  0  0  0  0  0
   62.9030   34.2690   50.1910 C   0  0  0  0  0  0  0  0  0  0  0  0
   62.3030   33.7160   46.5610 N   0  0  0  0  0  0  0  0  0  0  0  0
   61.1540   33.8660   45.9210 N   0  0  0  0  0  0  0  0  0  0  0  0
   58.5190   33.4520   44.0560 C   0  0  0  0  0  0  0  0  0  0  0  0
   58.1400   32.5000   43.0910 C   0  0  0  0  0  0  0  0  0  0  0  0
   58.3160   32.7140   41.7160 O   0  0  0  0  0  0  0  0  0  0  0  0
   57.3540   32.3810   40.7190 C   0  0  0  0  0  0  0  0  0  0  0  0
   57.5710   31.2910   43.5080 C   0  0  0  0  0  0  0  0  0  0  0  0
   57.5110   27.9415   45.8836 H   0  0  0  0  0  0  0  0  0  0  0  0
   56.5323   28.0025   44.3786 H   0  0  0  0  0  0  0  0  0  0  0  0
   58.2193   28.6196   44.3786 H   0  0  0  0  0  0  0  0  0  0  0  0
   57.6310   31.7634   46.8930 H   0  0  0  0  0  0  0  0  0  0  0  0
   58.6719   35.2127   46.0389 H   0  0  0  0  0  0  0  0  0  0  0  0
   58.1504   34.0981   47.3504 H   0  0  0  0  0  0  0  0  0  0  0  0
   60.1275   33.9351   48.9868 H   0  0  0  0  0  0  0  0  0  0  0  0
   64.3814   32.2961   47.8281 H   0  0  0  0  0  0  0  0  0  0  0  0
   66.0747   32.1111   49.6571 H   0  0  0  0  0  0  0  0  0  0  0  0
   65.7003   33.3251   51.8101 H   0  0  0  0  0  0  0  0  0  0  0  0
   62.0088   34.8858   50.3642 H   0  0  0  0  0  0  0  0  0  0  0  0
   63.2290   33.6400   46.0850 H   0  0  0  0  0  0  0  0  0  0  0  0
   58.9724   34.4024   43.7378 H   0  0  0  0  0  0  0  0  0  0  0  0
   56.4207   32.0579   41.2034 H   0  0  0  0  0  0  0  0  0  0  0  0
   57.1555   33.2627   40.0920 H   0  0  0  0  0  0  0  0  0  0  0  0
   57.7431   31.5653   40.0920 H   0  0  0  0  0  0  0  0  0  0  0  0
   57.2669   30.5457   42.7584 H   0  0  0  0  0  0  0  0  0  0  0  0
  1  2  1  0
  2  3  1  0
  3  4  2  0
  4  5  1  0
  5  6  1  0
  6  7  1  0
  7  8  1  0
  8  9  2  0
  9 10  1  0
 10 11  2  0
 11 12  1  0
 12 13  2  0
 13 14  1  0
 14 15  2  0
  9 16  1  0
 16 17  2  0
  5 18  2  0
 18 19  1  0
 19 20  1  0
 20 21  1  0
 19 22  2  0
 22  3  1  0
 17  7  1  0
 15 10  1  0
  1 23  1  0
  1 24  1  0
  1 25  1  0
  4 26  1  0
  6 27  1  0
  6 28  1  0
  8 29  1  0
 11 30  1  0
 12 31  1  0
 13 32  1  0
 15 33  1  0
 16 34  1  0
 18 35  1  0
 21 36  1  0
 21 37  1  0
 21 38  1  0
 22 39  1  0
M  CHG  1  16   1
M  END
>  <UniqueID>  (29) 
29

>  <SMILES>  (29) 
COc1cc(Cn2cc(-c3cccnc3)[nH+]n2)cc(OC)c1

>  <Energy>  (29) 
76.56333233327305

>  <Genealogy>  (29) 
COc1cc(Cn2cc(-c3cccnc3)[nH+]n2)cc(OC)c1 (protonated)
COc1cc(Cn2cc(-c3cccnc3)[nH+]n2)cc(OC)c1 (3D coordinates assigned)
COc1cc(Cn2cc(-c3cccnc3)[nH+]n2)cc(OC)c1 (optimized conformer: 76.56333233327305 kcal/mol)

>  <smiles>  (29) 
COc1cc(Cn2cc(-c3cccnc3)nn2)cc(OC)c1

>  <score_type>  (29) 
oracle

>  <origin>  (29) 
adg

>  <m_score__min__energy>  (29) 
-5.4800000000000004

>  <m_primary>  (29) 
energy

$$$$
29:0
     RDKit          3D

 53 56  0  0  0  0  0  0  0  0999 V2000
   61.0070   34.2060   48.9760 C   0  0  0  0  0  0  0  0  0  0  0  0
   60.0690   33.9510   47.8320 C   0  0  0  0  0  0  0  0  0  0  0  0
   60.4710   34.2510   46.5220 C   0  0  0  0  0  0  0  0  0  0  0  0
   59.6160   33.9900   45.4460 C   0  0  0  0  0  0  0  0  0  0  0  0
   58.3480   33.4260   45.6670 C   0  0  0  0  0  0  0  0  0  0  0  0
   57.4350   33.1530   44.5060 C   0  0  0  0  0  0  0  0  0  0  0  0
   56.5580   32.0330   44.8240 N   0  0  0  0  0  0  0  0  0  0  0  0
   56.8040   30.6980   44.3740 C   0  0  0  0  0  0  0  0  0  0  0  0
   56.5320   30.3720   43.1860 O   0  0  0  0  0  0  0  0  0  0  0  0
   57.3640   29.6910   45.2950 C   0  0  0  0  0  0  0  0  0  0  0  0
   58.3470   30.0310   46.2360 C   0  0  0  0  0  0  0  0  0  0  0  0
   58.8400   29.0530   47.1150 C   0  0  0  0  0  0  0  0  0  0  0  0
   59.8680   29.4010   48.1300 C   0  0  0  0  0  0  0  0  0  0  0  0
   59.9520   28.6840   49.3390 C   0  0  0  0  0  0  0  0  0  0  0  0
   60.9150   29.0200   50.2970 C   0  0  0  0  0  0  0  0  0  0  0  0
   61.8020   30.0740   50.0600 C   0  0  0  0  0  0  0  0  0  0  0  0
   61.7300   30.7900   48.8630 C   0  0  0  0  0  0  0  0  0  0  0  0
   60.7690   30.4590   47.9030 C   0  0  0  0  0  0  0  0  0  0  0  0
   58.3350   27.7460   47.0280 C   0  0  0  0  0  0  0  0  0  0  0  0
   57.3550   27.4340   46.0720 C   0  0  0  0  0  0  0  0  0  0  0  0
   56.8140   26.0980   45.9880 N   0  0  0  0  0  0  0  0  0  0  0  0
   55.5130   25.8450   45.9950 N   0  0  0  0  0  0  0  0  0  0  0  0
   55.3510   24.5120   45.8850 C   0  0  0  0  0  0  0  0  0  0  0  0
   54.0240   23.8280   45.9150 C   0  0  0  0  0  0  0  0  0  0  0  0
   56.5800   23.8880   45.8290 C   0  0  0  0  0  0  0  0  0  0  0  0
   57.4890   24.9260   45.8890 C   0  0  0  0  0  0  0  0  0  0  0  0
   58.9790   24.7590   45.8710 C   0  0  0  0  0  0  0  0  0  0  0  0
   56.9030   28.4140   45.2440 N   0  0  0  0  0  0  0  0  0  0  0  0
   57.9530   33.1160   46.9780 C   0  0  0  0  0  0  0  0  0  0  0  0
   58.8110   33.3710   48.0520 C   0  0  0  0  0  0  0  0  0  0  0  0
   60.4735   34.0610   49.9269 H   0  0  0  0  0  0  0  0  0  0  0  0
   61.8530   33.5053   48.9197 H   0  0  0  0  0  0  0  0  0  0  0  0
   61.3818   35.2386   48.9197 H   0  0  0  0  0  0  0  0  0  0  0  0
   61.4618   34.6929   46.3402 H   0  0  0  0  0  0  0  0  0  0  0  0
   59.9380   34.2275   44.4214 H   0  0  0  0  0  0  0  0  0  0  0  0
   56.8272   34.0466   44.3007 H   0  0  0  0  0  0  0  0  0  0  0  0
   58.0370   32.9043   43.6196 H   0  0  0  0  0  0  0  0  0  0  0  0
   58.7307   31.0607   46.2853 H   0  0  0  0  0  0  0  0  0  0  0  0
   59.2560   27.8543   49.5316 H   0  0  0  0  0  0  0  0  0  0  0  0
   60.9741   28.4537   51.2382 H   0  0  0  0  0  0  0  0  0  0  0  0
   62.5561   30.3393   50.8156 H   0  0  0  0  0  0  0  0  0  0  0  0
   62.4312   31.6165   48.6751 H   0  0  0  0  0  0  0  0  0  0  0  0
   60.7164   31.0291   46.9637 H   0  0  0  0  0  0  0  0  0  0  0  0
   58.7071   26.9662   47.7088 H   0  0  0  0  0  0  0  0  0  0  0  0
   53.7167   23.6696   46.9593 H   0  0  0  0  0  0  0  0  0  0  0  0
   53.2774   24.4536   45.4039 H   0  0  0  0  0  0  0  0  0  0  0  0
   54.1004   22.8569   45.4039 H   0  0  0  0  0  0  0  0  0  0  0  0
   56.7883   22.8105   45.7538 H   0  0  0  0  0  0  0  0  0  0  0  0
   59.3557   24.7168   46.9036 H   0  0  0  0  0  0  0  0  0  0  0  0
   59.2371   23.8263   45.3481 H   0  0  0  0  0  0  0  0  0  0  0  0
   59.4372   25.6114   45.3481 H   0  0  0  0  0  0  0  0  0  0  0  0
   56.9640   32.6705   47.1610 H   0  0  0  0  0  0  0  0  0  0  0  0
   58.4978   33.1154   49.0750 H   0  0  0  0  0  0  0  0  0  0  0  0
  1  2  1  0
  2  3  2  0
  3  4  1  0
  4  5  2  0
  5  6  1  0
  6  7  1  0
  7  8  1  0
  8  9  2  0
  8 10  1  0
 10 11  2  0
 11 12  1  0
 12 13  1  0
 13 14  2  0
 14 15  1  0
 15 16  2  0
 16 17  1  0
 17 18  2  0
 12 19  2  0
 19 20  1  0
 20 21  1  0
 21 22  1  0
 22 23  2  0
 23 24  1  0
 23 25  1  0
 25 26  2  0
 26 27  1  0
 20 28  2  0
  5 29  1  0
 29 30  2  0
 30  2  1  0
 28 10  1  0
 18 13  1  0
 26 21  1  0
  1 31  1  0
  1 32  1  0
  1 33  1  0
  3 34  1  0
  4 35  1  0
  6 36  1  0
  6 37  1  0
 11 38  1  0
 14 39  1  0
 15 40  1  0
 16 41  1  0
 17 42  1  0
 18 43  1  0
 19 44  1  0
 24 45  1  0
 24 46  1  0
 24 47  1  0
 25 48  1  0
 27 49  1  0
 27 50  1  0
 27 51  1  0
 29 52  1  0
 30 53  1  0
M  CHG  1   7  -1
M  END
>  <UniqueID>  (30) 
30

>  <SMILES>  (30) 
Cc1ccc(C[N-]C(=O)c2cc(-c3ccccc3)cc(-n3nc(C)cc3C)n2)cc1

>  <Energy>  (30) 
89.2851214886282

>  <Genealogy>  (30) 
Cc1ccc(C[N-]C(=O)c2cc(-c3ccccc3)cc(-n3nc(C)cc3C)n2)cc1 (protonated)
Cc1ccc(C[N-]C(=O)c2cc(-c3ccccc3)cc(-n3nc(C)cc3C)n2)cc1 (3D coordinates assigned)
Cc1ccc(C[N-]C(=O)c2cc(-c3ccccc3)cc(-n3nc(C)cc3C)n2)cc1 (optimized conformer: 89.2851214886282 kcal/mol)

>  <smiles>  (30) 
Cc1ccc(CNC(=O)c2cc(-c3ccccc3)cc(-n3nc(C)cc3C)n2)cc1

>  <score_type>  (30) 
oracle

>  <origin>  (30) 
adg

>  <m_score__min__energy>  (30) 
-10.31

>  <m_primary>  (30) 
energy

$$$$
30:0
     RDKit          3D

 45 47  0  0  0  0  0  0  0  0999 V2000
   58.3270   30.0260   51.6730 H   0  0  0  0  0  0  0  0  0  0  0  0
   58.6020   29.3200   50.9540 N   0  0  0  0  0  0  0  0  0  0  0  0
   58.9330   29.6600   49.7490 C   0  0  0  0  0  0  0  0  0  0  0  0
   58.2390   29.1050   48.6740 O   0  0  0  0  0  0  0  0  0  0  0  0
   58.6680   29.2420   47.3520 C   0  0  0  0  0  0  0  0  0  0  0  0
   57.8740   28.7180   46.3280 C   0  0  0  0  0  0  0  0  0  0  0  0
   56.8981   28.2715   46.5696 H   0  0  0  0  0  0  0  0  0  0  0  0
   58.3100   28.7560   44.9940 C   0  0  0  0  0  0  0  0  0  0  0  0
   57.4660   28.2620   43.9310 N   0  0  0  0  0  0  0  0  0  0  0  0
   58.0190   27.5860   43.3540 H   0  0  0  0  0  0  0  0  0  0  0  0
   56.6480   27.7350   44.3170 H   0  0  0  0  0  0  0  0  0  0  0  0
   56.9930   29.3490   43.0550 C   0  0  0  0  0  0  0  0  0  0  0  0
   57.7950   30.0956   42.9584 H   0  0  0  0  0  0  0  0  0  0  0  0
   56.7312   28.9002   42.0854 H   0  0  0  0  0  0  0  0  0  0  0  0
   55.7320   30.0500   43.5940 C   0  0  0  0  0  0  0  0  0  0  0  0
   55.9860   31.0840   43.8703 H   0  0  0  0  0  0  0  0  0  0  0  0
   54.9624   30.0380   42.8081 H   0  0  0  0  0  0  0  0  0  0  0  0
   55.2070   29.3570   44.7690 N   0  0  0  0  0  0  0  0  0  0  0  0
   54.2740   28.9610   44.5150 H   0  0  0  0  0  0  0  0  0  0  0  0
   55.0390   30.0640   45.5200 H   0  0  0  0  0  0  0  0  0  0  0  0
   59.5780   29.2850   44.7050 C   0  0  0  0  0  0  0  0  0  0  0  0
   59.9484   29.2833   43.6692 H   0  0  0  0  0  0  0  0  0  0  0  0
   60.3710   29.8130   45.7250 C   0  0  0  0  0  0  0  0  0  0  0  0
   61.3772   30.1919   45.4925 H   0  0  0  0  0  0  0  0  0  0  0  0
   59.8950   29.8650   47.0480 C   0  0  0  0  0  0  0  0  0  0  0  0
   60.7590   30.4270   48.1670 C   0  0  1  0  0  0  0  0  0  0  0  0
   61.4520   29.5970   48.3691 H   0  0  0  0  0  0  0  0  0  0  0  0
   61.6360   31.6210   47.7630 C   0  0  0  0  0  0  0  0  0  0  0  0
   62.9720   31.6140   48.2180 C   0  0  0  0  0  0  0  0  0  0  0  0
   63.3341   30.7658   48.8176 H   0  0  0  0  0  0  0  0  0  0  0  0
   63.8410   32.6630   47.9210 C   0  0  0  0  0  0  0  0  0  0  0  0
   64.8798   32.6338   48.2817 H   0  0  0  0  0  0  0  0  0  0  0  0
   63.3980   33.7460   47.1700 C   0  0  0  0  0  0  0  0  0  0  0  0
   64.0892   34.5670   46.9286 H   0  0  0  0  0  0  0  0  0  0  0  0
   62.0790   33.7920   46.7230 C   0  0  0  0  0  0  0  0  0  0  0  0
   61.7394   34.6513   46.1261 H   0  0  0  0  0  0  0  0  0  0  0  0
   61.1750   32.7570   47.0230 C   0  0  0  0  0  0  0  0  0  0  0  0
   59.7760   32.8980   46.4690 C   0  0  0  0  0  0  0  0  0  0  0  0
   59.0583   32.9703   47.2995 H   0  0  0  0  0  0  0  0  0  0  0  0
   59.7158   33.8068   45.8521 H   0  0  0  0  0  0  0  0  0  0  0  0
   59.5356   32.0195   45.8521 H   0  0  0  0  0  0  0  0  0  0  0  0
   60.0030   30.6900   49.5050 C   0  0  1  0  0  0  0  0  0  0  0  0
   60.7847   30.6284   50.2764 H   0  0  0  0  0  0  0  0  0  0  0  0
   59.3790   32.0220   49.5860 C   0  0  0  0  0  0  0  0  0  0  0  0
   58.8800   33.0650   49.6480 N   0  0  0  0  0  0  0  0  0  0  0  0
  1  2  1  0
  2  3  2  0
  3  4  1  0
  4  5  1  0
  5  6  2  0
  6  7  1  0
  6  8  1  0
  8  9  1  0
  9 10  1  0
  9 11  1  0
  9 12  1  0
 12 13  1  0
 12 14  1  0
 12 15  1  0
 15 16  1  0
 15 17  1  0
 15 18  1  0
 18 19  1  0
 18 20  1  0
  8 21  2  0
 21 22  1  0
 21 23  1  0
 23 24  1  0
 23 25  2  0
 25 26  1  0
 26 27  1  1
 26 28  1  0
 28 29  2  0
 29 30  1  0
 29 31  1  0
 31 32  1  0
 31 33  2  0
 33 34  1  0
 33 35  1  0
 35 36  1  0
 35 37  2  0
 37 38  1  0
 38 39  1  0
 38 40  1  0
 38 41  1  0
 26 42  1  0
 42 43  1  1
 42 44  1  0
 44 45  3  0
 42  3  1  0
 25  5  1  0
 37 28  1  0
M  CHG  1   9   1
M  END
>  <UniqueID>  (31) 
31

>  <SMILES>  (31) 
[H]/N=C1/Oc2cc([NH2+]CCN)ccc2[C@@H](c2ccccc2C)[C@H]1C#N

>  <Energy>  (31) 
55.72123221504567

>  <Genealogy>  (31) 
Cc1ccccc1C1c2ccc([NH2+]CCN)cc2OC(=N)C1C#N (protonated)
Cc1ccccc1[C@@H]1c2ccc([NH2+]CCN)cc2OC(=N)[C@@H]1C#N (chirality)
[H]/N=C1/Oc2cc([NH2+]CCN)ccc2[C@@H](c2ccccc2C)[C@H]1C#N (cis-trans isomerization)
[H]/N=C1/Oc2cc([NH2+]CCN)ccc2[C@@H](c2ccccc2C)[C@H]1C#N (3D coordinates assigned)
[H]/N=C1/Oc2cc([NH2+]CCN)ccc2[C@@H](c2ccccc2C)[C@H]1C#N (nonaromatic ring conformer: 55.72123221504567 kcal/mol)

>  <smiles>  (31) 
Cc1ccccc1C1c2ccc(NCCN)cc2OC(=N)C1C#N

>  <score_type>  (31) 
oracle

>  <origin>  (31) 
adg

>  <m_score__min__energy>  (31) 
-6.1299999999999999

>  <m_primary>  (31) 
energy

$$$$
31:0
     RDKit          3D

 46 48  0  0  0  0  0  0  0  0999 V2000
   66.9610   29.7680   52.1140 C   0  0  0  0  0  0  0  0  0  0  0  0
   65.7870   30.5520   52.2970 O   0  0  0  0  0  0  0  0  0  0  0  0
   65.0560   31.1390   51.2540 C   0  0  0  0  0  0  0  0  0  0  0  0
   63.7280   30.7740   50.9650 C   0  0  0  0  0  0  0  0  0  0  0  0
   63.0390   31.3870   49.9150 C   0  0  0  0  0  0  0  0  0  0  0  0
   63.6590   32.3760   49.1350 C   0  0  0  0  0  0  0  0  0  0  0  0
   62.9100   33.0100   48.0270 C   0  0  0  0  0  0  0  0  0  0  0  0
   63.3570   33.3040   46.7540 C   0  0  0  0  0  0  0  0  0  0  0  0
   62.3520   33.8670   46.0560 N   0  0  0  0  0  0  0  0  0  0  0  0
   61.3320   33.8930   46.9400 C   0  0  0  0  0  0  0  0  0  0  0  0
   59.9620   34.4180   46.6120 C   0  0  0  0  0  0  0  0  0  0  0  0
   58.8930   33.4160   46.8100 N   0  0  0  0  0  0  0  0  0  0  0  0
   57.5870   33.8080   46.2250 C   0  0  0  0  0  0  0  0  0  0  0  0
   57.2330   32.9670   44.9920 C   0  0  0  0  0  0  0  0  0  0  0  0
   57.1450   31.5270   45.3270 N   0  0  0  0  0  0  0  0  0  0  0  0
   57.2190   30.7010   44.1030 C   0  0  0  0  0  0  0  0  0  0  0  0
   56.5400   29.3470   44.3290 C   0  0  0  0  0  0  0  0  0  0  0  0
   55.3030   29.5260   44.9660 O   0  0  0  0  0  0  0  0  0  0  0  0
   58.1250   31.0960   46.3610 C   0  0  0  0  0  0  0  0  0  0  0  0
   59.3270   32.0440   46.4640 C   0  0  0  0  0  0  0  0  0  0  0  0
   61.6580   33.3890   48.1080 O   0  0  0  0  0  0  0  0  0  0  0  0
   64.9870   32.7390   49.4260 C   0  0  0  0  0  0  0  0  0  0  0  0
   65.6760   32.1250   50.4760 C   0  0  0  0  0  0  0  0  0  0  0  0
   66.9550   32.4910   50.7410 F   0  0  0  0  0  0  0  0  0  0  0  0
   67.3743   29.4920   53.0953 H   0  0  0  0  0  0  0  0  0  0  0  0
   66.7092   28.8562   51.5526 H   0  0  0  0  0  0  0  0  0  0  0  0
   67.7067   30.3500   51.5526 H   0  0  0  0  0  0  0  0  0  0  0  0
   63.2294   30.0017   51.5691 H   0  0  0  0  0  0  0  0  0  0  0  0
   62.0018   31.0920   49.6978 H   0  0  0  0  0  0  0  0  0  0  0  0
   64.3700   33.1098   46.3718 H   0  0  0  0  0  0  0  0  0  0  0  0
   59.7547   35.2832   47.2589 H   0  0  0  0  0  0  0  0  0  0  0  0
   59.9622   34.6905   45.5463 H   0  0  0  0  0  0  0  0  0  0  0  0
   56.8028   33.6722   46.9844 H   0  0  0  0  0  0  0  0  0  0  0  0
   57.6583   34.8594   45.9096 H   0  0  0  0  0  0  0  0  0  0  0  0
   56.2629   33.3024   44.5966 H   0  0  0  0  0  0  0  0  0  0  0  0
   58.0271   33.1001   44.2426 H   0  0  0  0  0  0  0  0  0  0  0  0
   56.7131   31.2270   43.2800 H   0  0  0  0  0  0  0  0  0  0  0  0
   58.2763   30.5316   43.8510 H   0  0  0  0  0  0  0  0  0  0  0  0
   56.3811   28.8537   43.3587 H   0  0  0  0  0  0  0  0  0  0  0  0
   57.1850   28.7237   44.9659 H   0  0  0  0  0  0  0  0  0  0  0  0
   55.2660   30.4760   45.2510 H   0  0  0  0  0  0  0  0  0  0  0  0
   57.6172   31.0633   47.3362 H   0  0  0  0  0  0  0  0  0  0  0  0
   58.5048   30.1059   46.0688 H   0  0  0  0  0  0  0  0  0  0  0  0
   60.0099   31.6755   47.2437 H   0  0  0  0  0  0  0  0  0  0  0  0
   59.8349   32.0728   45.4887 H   0  0  0  0  0  0  0  0  0  0  0  0
   65.4866   33.5115   48.8229 H   0  0  0  0  0  0  0  0  0  0  0  0
  1  2  1  0
  2  3  1  0
  3  4  2  0
  4  5  1  0
  5  6  2  0
  6  7  1  0
  7  8  2  0
  8  9  1  0
  9 10  2  0
 10 11  1  0
 11 12  1  0
 12 13  1  0
 13 14  1  0
 14 15  1  0
 15 16  1  0
 16 17  1  0
 17 18  1  0
 15 19  1  0
 19 20  1  0
 10 21  1  0
  6 22  1  0
 22 23  2  0
 23 24  1  0
 23  3  1  0
 21  7  1  0
 20 12  1  0
  1 25  1  0
  1 26  1  0
  1 27  1  0
  4 28  1  0
  5 29  1  0
  8 30  1  0
 11 31  1  0
 11 32  1  0
 13 33  1  0
 13 34  1  0
 14 35  1  0
 14 36  1  0
 16 37  1  0
 16 38  1  0
 17 39  1  0
 17 40  1  0
 18 41  1  0
 19 42  1  0
 19 43  1  0
 20 44  1  0
 20 45  1  0
 22 46  1  0
M  END
>  <UniqueID>  (32) 
32

>  <SMILES>  (32) 
COc1ccc(-c2cnc(CN3CCN(CCO)CC3)o2)cc1F

>  <Energy>  (32) 
88.46621630411343

>  <Genealogy>  (32) 
COc1ccc(-c2cnc(CN3CCN(CCO)CC3)o2)cc1F (3D coordinates assigned)
COc1ccc(-c2cnc(CN3CCN(CCO)CC3)o2)cc1F (nonaromatic ring conformer: 88.46621630411343 kcal/mol)

>  <smiles>  (32) 
COc1ccc(-c2cnc(CN3CCN(CCO)CC3)o2)cc1F

>  <score_type>  (32) 
oracle

>  <origin>  (32) 
adg

>  <m_score__min__energy>  (32) 
-7.4800000000000004

>  <m_primary>  (32) 
energy

$$$$
32:0
     RDKit          3D

 53 55  0  0  0  0  0  0  0  0999 V2000
   56.2310   19.9600   44.8090 C   0  0  0  0  0  0  0  0  0  0  0  0
   55.5540   21.1310   44.3630 O   0  0  0  0  0  0  0  0  0  0  0  0
   56.0700   22.4310   44.4650 C   0  0  0  0  0  0  0  0  0  0  0  0
   56.5610   23.1390   43.3520 C   0  0  0  0  0  0  0  0  0  0  0  0
   57.0630   24.4350   43.5040 C   0  0  0  0  0  0  0  0  0  0  0  0
   57.0860   25.0410   44.7710 C   0  0  0  0  0  0  0  0  0  0  0  0
   57.5940   26.3780   44.9310 N   0  0  0  0  0  0  0  0  0  0  0  0
   57.0690   27.2350   45.9970 C   0  0  0  0  0  0  0  0  0  0  0  0
   57.0100   28.6770   45.4970 C   0  0  0  0  0  0  0  0  0  0  0  0
   58.3460   29.1910   45.0960 N   0  0  0  0  0  0  0  0  0  0  0  0
   58.2420   30.3110   44.1370 C   0  0  0  0  0  0  0  0  0  0  0  0
   57.5080   31.4730   44.7460 C   0  0  0  0  0  0  0  0  0  0  0  0
   56.2530   31.5330   44.6400 O   0  0  0  0  0  0  0  0  0  0  0  0
   58.2190   32.5190   45.4330 N   0  0  0  0  0  0  0  0  0  0  0  0
   57.7160   33.8970   45.3780 C   0  0  0  0  0  0  0  0  0  0  0  0
   58.8870   34.8830   45.3010 C   0  0  0  0  0  0  0  0  0  0  0  0
   59.9010   34.6190   46.4200 C   0  0  0  0  0  0  0  0  0  0  0  0
   60.3940   33.1670   46.3790 C   0  0  0  0  0  0  0  0  0  0  0  0
   59.2160   32.1920   46.4620 C   0  0  0  0  0  0  0  0  0  0  0  0
   59.3140   28.1540   44.6500 C   0  0  0  0  0  0  0  0  0  0  0  0
   58.6680   26.8770   44.0580 C   0  0  2  0  0  0  0  0  0  0  0  0
   58.1350   27.1070   42.6390 C   0  0  0  0  0  0  0  0  0  0  0  0
   56.5990   24.3340   45.8790 C   0  0  0  0  0  0  0  0  0  0  0  0
   56.0940   23.0410   45.7250 C   0  0  0  0  0  0  0  0  0  0  0  0
   56.2427   19.9397   45.9087 H   0  0  0  0  0  0  0  0  0  0  0  0
   55.7090   19.0684   44.4314 H   0  0  0  0  0  0  0  0  0  0  0  0
   57.2641   19.9675   44.4314 H   0  0  0  0  0  0  0  0  0  0  0  0
   56.5497   22.6700   42.3570 H   0  0  0  0  0  0  0  0  0  0  0  0
   57.4414   24.9822   42.6280 H   0  0  0  0  0  0  0  0  0  0  0  0
   56.0587   26.9000   46.2747 H   0  0  0  0  0  0  0  0  0  0  0  0
   57.7258   27.1751   46.8774 H   0  0  0  0  0  0  0  0  0  0  0  0
   56.3380   28.7225   44.6273 H   0  0  0  0  0  0  0  0  0  0  0  0
   56.6424   29.3043   46.3225 H   0  0  0  0  0  0  0  0  0  0  0  0
   59.2535   30.6345   43.8501 H   0  0  0  0  0  0  0  0  0  0  0  0
   57.6836   29.9666   43.2541 H   0  0  0  0  0  0  0  0  0  0  0  0
   57.0804   34.0170   44.4883 H   0  0  0  0  0  0  0  0  0  0  0  0
   57.1312   34.1031   46.2866 H   0  0  0  0  0  0  0  0  0  0  0  0
   59.3878   34.7717   44.3280 H   0  0  0  0  0  0  0  0  0  0  0  0
   58.4942   35.9039   45.4173 H   0  0  0  0  0  0  0  0  0  0  0  0
   60.7598   35.2948   46.2949 H   0  0  0  0  0  0  0  0  0  0  0  0
   59.4107   34.7970   47.3885 H   0  0  0  0  0  0  0  0  0  0  0  0
   60.9377   32.9969   45.4380 H   0  0  0  0  0  0  0  0  0  0  0  0
   61.0568   32.9945   47.2398 H   0  0  0  0  0  0  0  0  0  0  0  0
   59.5803   31.1663   46.3032 H   0  0  0  0  0  0  0  0  0  0  0  0
   58.7497   32.2730   47.4550 H   0  0  0  0  0  0  0  0  0  0  0  0
   59.9618   28.5986   43.8802 H   0  0  0  0  0  0  0  0  0  0  0  0
   59.8641   27.8360   45.5480 H   0  0  0  0  0  0  0  0  0  0  0  0
   59.4596   26.1155   43.9980 H   0  0  0  0  0  0  0  0  0  0  0  0
   57.1262   27.5423   42.6923 H   0  0  0  0  0  0  0  0  0  0  0  0
   58.8040   27.7965   42.1033 H   0  0  0  0  0  0  0  0  0  0  0  0
   58.0923   26.1472   42.1033 H   0  0  0  0  0  0  0  0  0  0  0  0
   56.6146   24.8001   46.8753 H   0  0  0  0  0  0  0  0  0  0  0  0
   55.7117   22.4971   46.6014 H   0  0  0  0  0  0  0  0  0  0  0  0
  1  2  1  0
  2  3  1  0
  3  4  2  0
  4  5  1  0
  5  6  2  0
  6  7  1  0
  7  8  1  0
  8  9  1  0
  9 10  1  0
 10 11  1  0
 11 12  1  0
 12 13  2  0
 12 14  1  0
 14 15  1  0
 15 16  1  0
 16 17  1  0
 17 18  1  0
 18 19  1  0
 10 20  1  0
 20 21  1  0
 21 22  1  0
  6 23  1  0
 23 24  2  0
 24  3  1  0
 21  7  1  0
 19 14  1  0
  1 25  1  0
  1 26  1  0
  1 27  1  0
  4 28  1  0
  5 29  1  0
  8 30  1  0
  8 31  1  0
  9 32  1  0
  9 33  1  0
 11 34  1  0
 11 35  1  0
 15 36  1  0
 15 37  1  0
 16 38  1  0
 16 39  1  0
 17 40  1  0
 17 41  1  0
 18 42  1  0
 18 43  1  0
 19 44  1  0
 19 45  1  0
 20 46  1  0
 20 47  1  0
 21 48  1  6
 22 49  1  0
 22 50  1  0
 22 51  1  0
 23 52  1  0
 24 53  1  0
M  END
>  <UniqueID>  (33) 
33

>  <SMILES>  (33) 
COc1ccc(N2CCN(CC(=O)N3CCCCC3)C[C@@H]2C)cc1

>  <Energy>  (33) 
60.6845418143818

>  <Genealogy>  (33) 
COc1ccc(N2CCN(CC(=O)N3CCCCC3)C[C@@H]2C)cc1 (chirality)
COc1ccc(N2CCN(CC(=O)N3CCCCC3)C[C@@H]2C)cc1 (3D coordinates assigned)
COc1ccc(N2CCN(CC(=O)N3CCCCC3)C[C@@H]2C)cc1 (nonaromatic ring conformer: 60.6845418143818 kcal/mol)

>  <smiles>  (33) 
COc1ccc(N2CCN(CC(=O)N3CCCCC3)CC2C)cc1

>  <score_type>  (33) 
oracle

>  <origin>  (33) 
adg

>  <m_score__min__energy>  (33) 
-7.6399999999999997

>  <m_primary>  (33) 
energy

$$$$
33:0
     RDKit          3D

 40 43  0  0  0  0  0  0  0  0999 V2000
   59.7960   26.9380   47.8110 C   0  0  0  0  0  0  0  0  0  0  0  0
   58.7090   27.8140   47.5320 O   0  0  0  0  0  0  0  0  0  0  0  0
   58.8510   29.1560   47.1490 C   0  0  0  0  0  0  0  0  0  0  0  0
   59.1500   30.1020   48.1370 C   0  0  0  0  0  0  0  0  0  0  0  0
   59.3010   31.4510   47.8060 C   0  0  0  0  0  0  0  0  0  0  0  0
   59.1580   31.8750   46.4760 C   0  0  0  0  0  0  0  0  0  0  0  0
   59.3210   33.3020   46.1270 C   0  0  0  0  0  0  0  0  0  0  0  0
   60.3390   34.1750   46.4920 C   0  0  0  0  0  0  0  0  0  0  0  0
   61.6010   33.8570   47.1970 C   0  0  0  0  0  0  0  0  0  0  0  0
   62.7520   33.4670   46.4870 C   0  0  0  0  0  0  0  0  0  0  0  0
   63.9400   33.1760   47.1630 C   0  0  0  0  0  0  0  0  0  0  0  0
   63.9990   33.2860   48.5580 C   0  0  0  0  0  0  0  0  0  0  0  0
   65.1460   33.0060   49.2390 N   0  0  0  0  0  0  0  0  0  0  0  0
   65.1990   33.1190   50.5940 C   0  0  0  0  0  0  0  0  0  0  0  0
   64.0640   33.5250   51.3010 C   0  0  0  0  0  0  0  0  0  0  0  0
   62.9180   33.8050   50.6270 N   0  0  0  0  0  0  0  0  0  0  0  0
   62.8550   33.6960   49.2740 C   0  0  0  0  0  0  0  0  0  0  0  0
   61.6670   33.9850   48.5940 C   0  0  0  0  0  0  0  0  0  0  0  0
   60.0300   35.4150   46.0620 N   0  0  0  0  0  0  0  0  0  0  0  0
   58.8800   35.3420   45.4570 O   0  0  0  0  0  0  0  0  0  0  0  0
   58.4120   34.1160   45.4720 C   0  0  0  0  0  0  0  0  0  0  0  0
   57.1020   33.7180   44.8740 C   0  0  0  0  0  0  0  0  0  0  0  0
   58.8550   30.9310   45.4830 C   0  0  0  0  0  0  0  0  0  0  0  0
   58.7030   29.5810   45.8150 C   0  0  0  0  0  0  0  0  0  0  0  0
   59.9177   26.8399   48.8998 H   0  0  0  0  0  0  0  0  0  0  0  0
   59.5915   25.9493   47.3744 H   0  0  0  0  0  0  0  0  0  0  0  0
   60.7187   27.3479   47.3744 H   0  0  0  0  0  0  0  0  0  0  0  0
   59.2670   29.7805   49.1824 H   0  0  0  0  0  0  0  0  0  0  0  0
   59.5332   32.1845   48.5921 H   0  0  0  0  0  0  0  0  0  0  0  0
   62.7161   33.3906   45.3902 H   0  0  0  0  0  0  0  0  0  0  0  0
   64.8299   32.8602   46.5988 H   0  0  0  0  0  0  0  0  0  0  0  0
   66.0050   32.7020   48.7270 H   0  0  0  0  0  0  0  0  0  0  0  0
   66.1318   32.8916   51.1309 H   0  0  0  0  0  0  0  0  0  0  0  0
   64.0982   33.6173   52.3966 H   0  0  0  0  0  0  0  0  0  0  0  0
   60.7806   34.3140   49.1561 H   0  0  0  0  0  0  0  0  0  0  0  0
   56.3833   33.4996   45.6776 H   0  0  0  0  0  0  0  0  0  0  0  0
   56.7180   34.5400   44.2520 H   0  0  0  0  0  0  0  0  0  0  0  0
   57.2402   32.8213   44.2520 H   0  0  0  0  0  0  0  0  0  0  0  0
   58.7364   31.2544   44.4383 H   0  0  0  0  0  0  0  0  0  0  0  0
   58.4666   28.8476   45.0300 H   0  0  0  0  0  0  0  0  0  0  0  0
  1  2  1  0
  2  3  1  0
  3  4  2  0
  4  5  1  0
  5  6  2  0
  6  7  1  0
  7  8  1  0
  8  9  1  0
  9 10  2  0
 10 11  1  0
 11 12  2  0
 12 13  1  0
 13 14  2  0
 14 15  1  0
 15 16  2  0
 16 17  1  0
 17 18  2  0
  8 19  2  0
 19 20  1  0
 20 21  1  0
 21 22  1  0
  6 23  1  0
 23 24  2  0
 24  3  1  0
 21  7  2  0
 18  9  1  0
 17 12  1  0
  1 25  1  0
  1 26  1  0
  1 27  1  0
  4 28  1  0
  5 29  1  0
 10 30  1  0
 11 31  1  0
 13 32  1  0
 14 33  1  0
 15 34  1  0
 18 35  1  0
 22 36  1  0
 22 37  1  0
 22 38  1  0
 23 39  1  0
 24 40  1  0
M  CHG  1  13   1
M  END
>  <UniqueID>  (34) 
34

>  <SMILES>  (34) 
COc1ccc(-c2c(-c3ccc4[nH+]ccnc4c3)noc2C)cc1

>  <Energy>  (34) 
85.65021252483905

>  <Genealogy>  (34) 
COc1ccc(-c2c(-c3ccc4[nH+]ccnc4c3)noc2C)cc1 (protonated)
COc1ccc(-c2c(-c3ccc4[nH+]ccnc4c3)noc2C)cc1 (3D coordinates assigned)
COc1ccc(-c2c(-c3ccc4[nH+]ccnc4c3)noc2C)cc1 (optimized conformer: 85.65021252483905 kcal/mol)

>  <smiles>  (34) 
COc1ccc(-c2c(-c3ccc4nccnc4c3)noc2C)cc1

>  <score_type>  (34) 
oracle

>  <origin>  (34) 
adg

>  <m_score__min__energy>  (34) 
-6.2400000000000002

>  <m_primary>  (34) 
energy

$$$$
34:0
     RDKit          3D

 40 42  0  0  0  0  0  0  0  0999 V2000
   56.2690   30.4770   43.3450 C   0  0  0  0  0  0  0  0  0  0  0  0
   56.2830   31.1150   44.6180 O   0  0  0  0  0  0  0  0  0  0  0  0
   57.3850   31.8000   45.1540 C   0  0  0  0  0  0  0  0  0  0  0  0
   57.4230   33.2080   45.2250 C   0  0  0  0  0  0  0  0  0  0  0  0
   58.5230   33.8580   45.7870 C   0  0  0  0  0  0  0  0  0  0  0  0
   59.5960   33.1180   46.2840 C   0  0  0  0  0  0  0  0  0  0  0  0
   59.5740   31.7230   46.2170 C   0  0  0  0  0  0  0  0  0  0  0  0
   58.4760   31.0550   45.6480 C   0  0  0  0  0  0  0  0  0  0  0  0
   58.4780   29.6180   45.5800 N   0  0  0  0  0  0  0  0  0  0  0  0
   58.8040   28.9590   44.3110 C   0  0  0  0  0  0  0  0  0  0  0  0
   58.7920   27.4350   44.4690 C   0  0  0  0  0  0  0  0  0  0  0  0
   57.5680   27.0040   45.1770 N   0  0  0  0  0  0  0  0  0  0  0  0
   57.4680   25.5560   45.2110 C   0  0  0  0  0  0  0  0  0  0  0  0
   58.5260   24.8710   45.2580 O   0  0  0  0  0  0  0  0  0  0  0  0
   56.1780   24.8230   45.2170 C   0  0  0  0  0  0  0  0  0  0  0  0
   55.9020   23.5730   44.6830 C   0  0  0  0  0  0  0  0  0  0  0  0
   54.5710   23.3360   44.9530 C   0  0  0  0  0  0  0  0  0  0  0  0
   54.1140   24.4440   45.6320 C   0  0  0  0  0  0  0  0  0  0  0  0
   55.0920   25.3080   45.7750 O   0  0  0  0  0  0  0  0  0  0  0  0
   57.3850   27.6100   46.5260 C   0  0  0  0  0  0  0  0  0  0  0  0
   58.3030   28.8170   46.7960 C   0  0  0  0  0  0  0  0  0  0  0  0
   56.2451   29.3858   43.4820 H   0  0  0  0  0  0  0  0  0  0  0  0
   55.3776   30.7959   42.7848 H   0  0  0  0  0  0  0  0  0  0  0  0
   57.1735   30.7565   42.7848 H   0  0  0  0  0  0  0  0  0  0  0  0
   56.5803   33.7978   44.8350 H   0  0  0  0  0  0  0  0  0  0  0  0
   58.5438   34.9566   45.8381 H   0  0  0  0  0  0  0  0  0  0  0  0
   60.4600   33.6334   46.7289 H   0  0  0  0  0  0  0  0  0  0  0  0
   60.4214   31.1435   46.6121 H   0  0  0  0  0  0  0  0  0  0  0  0
   58.0611   29.2486   43.5532 H   0  0  0  0  0  0  0  0  0  0  0  0
   59.8114   29.2727   44.0000 H   0  0  0  0  0  0  0  0  0  0  0  0
   58.8202   26.9665   43.4742 H   0  0  0  0  0  0  0  0  0  0  0  0
   59.6715   27.1282   45.0541 H   0  0  0  0  0  0  0  0  0  0  0  0
   56.7680   27.3450   44.5880 H   0  0  0  0  0  0  0  0  0  0  0  0
   56.6005   22.9083   44.1536 H   0  0  0  0  0  0  0  0  0  0  0  0
   53.9907   22.4420   44.6810 H   0  0  0  0  0  0  0  0  0  0  0  0
   53.0863   24.5836   45.9985 H   0  0  0  0  0  0  0  0  0  0  0  0
   56.3402   27.9416   46.6182 H   0  0  0  0  0  0  0  0  0  0  0  0
   57.6483   26.8366   47.2626 H   0  0  0  0  0  0  0  0  0  0  0  0
   57.8535   29.4442   47.5799 H   0  0  0  0  0  0  0  0  0  0  0  0
   59.2869   28.4472   47.1203 H   0  0  0  0  0  0  0  0  0  0  0  0
  1  2  1  0
  2  3  1  0
  3  4  2  0
  4  5  1  0
  5  6  2  0
  6  7  1  0
  7  8  2  0
  8  9  1  0
  9 10  1  0
 10 11  1  0
 11 12  1  0
 12 13  1  0
 13 14  2  0
 13 15  1  0
 15 16  2  0
 16 17  1  0
 17 18  2  0
 18 19  1  0
 12 20  1  0
 20 21  1  0
  8  3  1  0
 21  9  1  0
 19 15  1  0
  1 22  1  0
  1 23  1  0
  1 24  1  0
  4 25  1  0
  5 26  1  0
  6 27  1  0
  7 28  1  0
 10 29  1  0
 10 30  1  0
 11 31  1  0
 11 32  1  0
 12 33  1  0
 16 34  1  0
 17 35  1  0
 18 36  1  0
 20 37  1  0
 20 38  1  0
 21 39  1  0
 21 40  1  0
M  CHG  1  12   1
M  END
>  <UniqueID>  (35) 
35

>  <SMILES>  (35) 
COc1ccccc1N1CC[NH+](C(=O)c2ccco2)CC1

>  <Energy>  (35) 
81.05872155782453

>  <Genealogy>  (35) 
COc1ccccc1N1CC[NH+](C(=O)c2ccco2)CC1 (protonated)
COc1ccccc1N1CC[NH+](C(=O)c2ccco2)CC1 (3D coordinates assigned)
COc1ccccc1N1CC[NH+](C(=O)c2ccco2)CC1 (nonaromatic ring conformer: 81.05872155782453 kcal/mol)

>  <smiles>  (35) 
COc1ccccc1N1CCN(C(=O)c2ccco2)CC1

>  <score_type>  (35) 
oracle

>  <origin>  (35) 
adg

>  <m_score__min__energy>  (35) 
-5.0899999999999999

>  <m_primary>  (35) 
energy

$$$$
35:0
     RDKit          3D

 44 46  0  0  0  0  0  0  0  0999 V2000
   56.0130   27.5170   44.8890 H   0  0  0  0  0  0  0  0  0  0  0  0
   55.5520   27.0710   45.6450 O   0  0  0  0  0  0  0  0  0  0  0  0
   56.5230   26.2960   46.2910 C   0  0  0  0  0  0  0  0  0  0  0  0
   56.1780   25.2529   46.3462 H   0  0  0  0  0  0  0  0  0  0  0  0
   56.6831   26.6922   47.3046 H   0  0  0  0  0  0  0  0  0  0  0  0
   57.8410   26.3520   45.5190 C   0  0  0  0  0  0  0  0  0  0  0  0
   57.8874   25.5015   44.8229 H   0  0  0  0  0  0  0  0  0  0  0  0
   58.6724   26.3050   46.2378 H   0  0  0  0  0  0  0  0  0  0  0  0
   57.9450   27.5700   44.7780 O   0  0  0  0  0  0  0  0  0  0  0  0
   58.3810   28.7780   45.3360 C   0  0  0  0  0  0  0  0  0  0  0  0
   57.4900   29.8620   45.3600 C   0  0  0  0  0  0  0  0  0  0  0  0
   56.2000   29.6760   44.8390 O   0  0  0  0  0  0  0  0  0  0  0  0
   55.8720   29.7430   43.4560 C   0  0  0  0  0  0  0  0  0  0  0  0
   54.7999   29.9620   43.3436 H   0  0  0  0  0  0  0  0  0  0  0  0
   56.4610   30.5394   42.9776 H   0  0  0  0  0  0  0  0  0  0  0  0
   56.1015   28.7794   42.9776 H   0  0  0  0  0  0  0  0  0  0  0  0
   57.9160   31.0960   45.8800 C   0  0  0  0  0  0  0  0  0  0  0  0
   57.2155   31.9432   45.9192 H   0  0  0  0  0  0  0  0  0  0  0  0
   59.2270   31.2550   46.3490 C   0  0  0  0  0  0  0  0  0  0  0  0
   59.6720   32.5470   46.8940 C   0  0  0  0  0  0  0  0  0  0  0  0
   58.9068   33.3094   47.1022 H   0  0  0  0  0  0  0  0  0  0  0  0
   60.9510   32.8540   47.1530 C   0  0  0  0  0  0  0  0  0  0  0  0
   61.7470   33.8100   46.3680 C   0  0  0  0  0  0  0  0  0  0  0  0
   61.3680   34.4111   45.5284 H   0  0  0  0  0  0  0  0  0  0  0  0
   62.9950   33.8370   46.8280 C   0  0  0  0  0  0  0  0  0  0  0  0
   63.8175   34.4424   46.4193 H   0  0  0  0  0  0  0  0  0  0  0  0
   63.0890   32.9300   47.9640 C   0  0  0  0  0  0  0  0  0  0  0  0
   64.1780   32.6940   48.8020 C   0  0  0  0  0  0  0  0  0  0  0  0
   65.1533   33.1631   48.6051 H   0  0  0  0  0  0  0  0  0  0  0  0
   63.9980   31.8420   49.9040 C   0  0  0  0  0  0  0  0  0  0  0  0
   64.8460   31.6175   50.5677 H   0  0  0  0  0  0  0  0  0  0  0  0
   62.7350   31.2740   50.1620 C   0  0  0  0  0  0  0  0  0  0  0  0
   62.5987   30.6203   51.0361 H   0  0  0  0  0  0  0  0  0  0  0  0
   61.6490   31.5360   49.3120 C   0  0  0  0  0  0  0  0  0  0  0  0
   60.6541   31.1177   49.5247 H   0  0  0  0  0  0  0  0  0  0  0  0
   61.8620   32.3430   48.1860 C   0  0  0  0  0  0  0  0  0  0  0  0
   60.0900   30.1560   46.3770 C   0  0  0  0  0  0  0  0  0  0  0  0
   61.1014   30.2674   46.7949 H   0  0  0  0  0  0  0  0  0  0  0  0
   59.6760   28.9080   45.8750 C   0  0  0  0  0  0  0  0  0  0  0  0
   60.5110   27.7810   45.9150 O   0  0  0  0  0  0  0  0  0  0  0  0
   60.6890   26.9460   47.0550 C   0  0  0  0  0  0  0  0  0  0  0  0
   60.5618   27.5429   47.9702 H   0  0  0  0  0  0  0  0  0  0  0  0
   59.9429   26.1378   47.0376 H   0  0  0  0  0  0  0  0  0  0  0  0
   61.6998   26.5124   47.0376 H   0  0  0  0  0  0  0  0  0  0  0  0
  1  2  1  0
  2  3  1  0
  3  4  1  0
  3  5  1  0
  3  6  1  0
  6  7  1  0
  6  8  1  0
  6  9  1  0
  9 10  1  0
 10 11  2  0
 11 12  1  0
 12 13  1  0
 13 14  1  0
 13 15  1  0
 13 16  1  0
 11 17  1  0
 17 18  1  0
 17 19  2  0
 19 20  1  0
 20 21  1  0
 20 22  2  0
 22 23  1  0
 23 24  1  0
 23 25  2  0
 25 26  1  0
 25 27  1  0
 27 28  2  0
 28 29  1  0
 28 30  1  0
 30 31  1  0
 30 32  2  0
 32 33  1  0
 32 34  1  0
 34 35  1  0
 34 36  2  0
 19 37  1  0
 37 38  1  0
 37 39  2  0
 39 40  1  0
 40 41  1  0
 41 42  1  0
 41 43  1  0
 41 44  1  0
 39 10  1  0
 36 22  1  0
 36 27  1  0
M  END
>  <UniqueID>  (36) 
36

>  <SMILES>  (36) 
COc1cc(/C=C2/C=Cc3ccccc32)cc(OC)c1OCCO

>  <Energy>  (36) 
81.82585932718992

>  <Genealogy>  (36) 
COc1cc(/C=C2/C=Cc3ccccc32)cc(OC)c1OCCO (cis-trans isomerization)
COc1cc(/C=C2/C=Cc3ccccc32)cc(OC)c1OCCO (3D coordinates assigned)
COc1cc(/C=C2/C=Cc3ccccc32)cc(OC)c1OCCO (nonaromatic ring conformer: 81.82585932718992 kcal/mol)

>  <smiles>  (36) 
COc1cc(C=C2C=Cc3ccccc32)cc(OC)c1OCCO

>  <score_type>  (36) 
oracle

>  <origin>  (36) 
adg

>  <m_score__min__energy>  (36) 
-8.0199999999999996

>  <m_primary>  (36) 
energy

$$$$
36:0
     RDKit          3D

 48 50  0  0  0  0  0  0  0  0999 V2000
   60.3164   35.5917   47.9013 H   0  0  0  0  0  0  0  0  0  0  0  0
   59.8590   34.9070   47.1720 C   0  0  0  0  0  0  0  0  0  0  0  0
   59.6150   35.3370   45.8700 C   0  0  0  0  0  0  0  0  0  0  0  0
   59.8810   36.3625   45.5740 H   0  0  0  0  0  0  0  0  0  0  0  0
   59.0340   34.4730   44.9370 C   0  0  0  0  0  0  0  0  0  0  0  0
   58.8457   34.8262   43.9124 H   0  0  0  0  0  0  0  0  0  0  0  0
   58.6850   33.1480   45.2960 C   0  0  0  0  0  0  0  0  0  0  0  0
   58.9430   32.7320   46.6260 C   0  0  0  0  0  0  0  0  0  0  0  0
   58.6380   31.4740   47.0220 N   0  0  0  0  0  0  0  0  0  0  0  0
   58.0790   30.5530   46.1980 C   0  0  0  0  0  0  0  0  0  0  0  0
   57.8190   29.3530   46.6370 N   0  0  0  0  0  0  0  0  0  0  0  0
   58.5470   28.1310   46.2850 C   0  0  0  0  0  0  0  0  0  0  0  0
   59.4041   28.3911   45.6465 H   0  0  0  0  0  0  0  0  0  0  0  0
   57.8671   27.4532   45.7481 H   0  0  0  0  0  0  0  0  0  0  0  0
   59.0550   27.4260   47.5510 C   0  0  0  0  0  0  0  0  0  0  0  0
   59.4392   26.4362   47.2633 H   0  0  0  0  0  0  0  0  0  0  0  0
   58.2021   27.3694   48.2433 H   0  0  0  0  0  0  0  0  0  0  0  0
   60.1790   28.1840   48.2950 C   0  0  0  0  0  0  0  0  0  0  0  0
   61.0685   28.1984   47.6480 H   0  0  0  0  0  0  0  0  0  0  0  0
   60.3401   27.6479   49.2419 H   0  0  0  0  0  0  0  0  0  0  0  0
   59.8480   29.5910   48.6600 N   0  0  0  0  0  0  0  0  0  0  0  0
   59.2650   29.9980   47.8940 H   0  0  0  0  0  0  0  0  0  0  0  0
   61.0880   30.4100   48.7590 C   0  0  0  0  0  0  0  0  0  0  0  0
   61.8589   29.8212   49.2777 H   0  0  0  0  0  0  0  0  0  0  0  0
   60.8386   31.3275   49.3121 H   0  0  0  0  0  0  0  0  0  0  0  0
   61.6290   30.8270   47.3860 C   0  0  0  0  0  0  0  0  0  0  0  0
   62.4938   31.4936   47.5197 H   0  0  0  0  0  0  0  0  0  0  0  0
   61.9390   29.9319   46.8267 H   0  0  0  0  0  0  0  0  0  0  0  0
   60.8423   31.3546   46.8267 H   0  0  0  0  0  0  0  0  0  0  0  0
   59.0310   29.7100   49.8970 C   0  0  0  0  0  0  0  0  0  0  0  0
   58.1396   29.0758   49.7823 H   0  0  0  0  0  0  0  0  0  0  0  0
   59.6774   29.3968   50.7301 H   0  0  0  0  0  0  0  0  0  0  0  0
   58.5660   31.1370   50.2180 C   0  0  0  0  0  0  0  0  0  0  0  0
   58.5221   31.2717   51.3088 H   0  0  0  0  0  0  0  0  0  0  0  0
   59.2753   31.8593   49.7876 H   0  0  0  0  0  0  0  0  0  0  0  0
   57.5674   31.3028   49.7876 H   0  0  0  0  0  0  0  0  0  0  0  0
   57.7860   30.9020   44.8630 C   0  0  0  0  0  0  0  0  0  0  0  0
   57.2020   29.9680   43.9820 C   0  0  0  0  0  0  0  0  0  0  0  0
   56.9675   28.9550   44.3408 H   0  0  0  0  0  0  0  0  0  0  0  0
   56.9190   30.3140   42.6630 C   0  0  0  0  0  0  0  0  0  0  0  0
   56.4644   29.5755   41.9863 H   0  0  0  0  0  0  0  0  0  0  0  0
   57.2110   31.5930   42.2010 C   0  0  0  0  0  0  0  0  0  0  0  0
   56.9847   31.8626   41.1588 H   0  0  0  0  0  0  0  0  0  0  0  0
   57.7890   32.5360   43.0510 C   0  0  0  0  0  0  0  0  0  0  0  0
   58.0129   33.5435   42.6704 H   0  0  0  0  0  0  0  0  0  0  0  0
   58.0920   32.2150   44.3980 C   0  0  0  0  0  0  0  0  0  0  0  0
   59.5230   33.6080   47.5500 C   0  0  0  0  0  0  0  0  0  0  0  0
   59.7147   33.2702   48.5792 H   0  0  0  0  0  0  0  0  0  0  0  0
  1  2  1  0
  2  3  2  0
  3  4  1  0
  3  5  1  0
  5  6  1  0
  5  7  2  0
  7  8  1  0
  8  9  1  0
  9 10  1  0
 10 11  2  0
 11 12  1  0
 12 13  1  0
 12 14  1  0
 12 15  1  0
 15 16  1  0
 15 17  1  0
 15 18  1  0
 18 19  1  0
 18 20  1  0
 18 21  1  0
 21 22  1  0
 21 23  1  0
 23 24  1  0
 23 25  1  0
 23 26  1  0
 26 27  1  0
 26 28  1  0
 26 29  1  0
 21 30  1  0
 30 31  1  0
 30 32  1  0
 30 33  1  0
 33 34  1  0
 33 35  1  0
 33 36  1  0
 10 37  1  0
 37 38  2  0
 38 39  1  0
 38 40  1  0
 40 41  1  0
 40 42  2  0
 42 43  1  0
 42 44  1  0
 44 45  1  0
 44 46  2  0
  8 47  2  0
 47 48  1  0
 47  2  1  0
 46  7  1  0
 46 37  1  0
M  CHG  2   9  -1  21   1
M  END
>  <UniqueID>  (37) 
37

>  <SMILES>  (37) 
CC[NH+](CC)CCC/N=c1\[n-]c2ccccc2c2ccccc12

>  <Energy>  (37) 
62.85058079548576

>  <Genealogy>  (37) 
CC[NH+](CC)CCCN=c1[n-]c2ccccc2c2ccccc12 (protonated)
CC[NH+](CC)CCC/N=c1\[n-]c2ccccc2c2ccccc12 (cis-trans isomerization)
CC[NH+](CC)CCC/N=c1\[n-]c2ccccc2c2ccccc12 (3D coordinates assigned)
CC[NH+](CC)CCC/N=c1\[n-]c2ccccc2c2ccccc12 (optimized conformer: 62.85058079548576 kcal/mol)

>  <smiles>  (37) 
CCN(CC)CCCN=c1[nH]c2ccccc2c2ccccc12

>  <score_type>  (37) 
oracle

>  <origin>  (37) 
adg

>  <m_score__min__energy>  (37) 
-6.2699999999999996

>  <m_primary>  (37) 
energy

$$$$
37:0
     RDKit          3D

 40 41  0  0  0  0  0  0  0  0999 V2000
   56.5540   26.2480   46.0320 C   0  0  0  0  0  0  0  0  0  0  0  0
   55.9500   27.4710   45.6230 O   0  0  0  0  0  0  0  0  0  0  0  0
   56.6570   28.6590   45.3800 C   0  0  0  0  0  0  0  0  0  0  0  0
   57.8400   28.8860   46.0920 C   0  0  0  0  0  0  0  0  0  0  0  0
   58.5800   30.0540   45.8870 C   0  0  0  0  0  0  0  0  0  0  0  0
   58.1420   31.0180   44.9600 C   0  0  0  0  0  0  0  0  0  0  0  0
   58.8480   32.2040   44.7160 O   0  0  0  0  0  0  0  0  0  0  0  0
   58.3330   33.3180   43.9910 C   0  0  0  0  0  0  0  0  0  0  0  0
   57.3950   34.1360   44.8810 C   0  0  0  0  0  0  0  0  0  0  0  0
   57.8360   34.1530   46.3520 C   0  0  0  0  0  0  0  0  0  0  0  0
   59.2730   34.4440   46.4840 N   0  0  0  0  0  0  0  0  0  0  0  0
   59.7620   34.3080   47.8660 C   0  0  0  0  0  0  0  0  0  0  0  0
   61.2010   33.8660   47.9180 C   0  0  0  0  0  0  0  0  0  0  0  0
   61.8940   33.8240   49.1370 C   0  0  0  0  0  0  0  0  0  0  0  0
   63.2320   33.4250   49.1510 C   0  0  0  0  0  0  0  0  0  0  0  0
   63.8650   33.0760   47.9570 C   0  0  0  0  0  0  0  0  0  0  0  0
   63.1460   33.1310   46.7610 C   0  0  0  0  0  0  0  0  0  0  0  0
   61.8440   33.5220   46.7670 N   0  0  0  0  0  0  0  0  0  0  0  0
   56.9590   30.7900   44.2480 C   0  0  0  0  0  0  0  0  0  0  0  0
   56.2190   29.6220   44.4520 C   0  0  0  0  0  0  0  0  0  0  0  0
   56.5776   26.2002   47.1307 H   0  0  0  0  0  0  0  0  0  0  0  0
   55.9702   25.4018   45.6406 H   0  0  0  0  0  0  0  0  0  0  0  0
   57.5808   26.1973   45.6406 H   0  0  0  0  0  0  0  0  0  0  0  0
   58.1906   28.1389   46.8193 H   0  0  0  0  0  0  0  0  0  0  0  0
   59.5086   30.2204   46.4527 H   0  0  0  0  0  0  0  0  0  0  0  0
   59.1673   33.9540   43.6602 H   0  0  0  0  0  0  0  0  0  0  0  0
   57.7728   32.9517   43.1181 H   0  0  0  0  0  0  0  0  0  0  0  0
   57.3712   35.1710   44.5091 H   0  0  0  0  0  0  0  0  0  0  0  0
   56.4022   33.6644   44.8380 H   0  0  0  0  0  0  0  0  0  0  0  0
   57.2647   34.9260   46.8870 H   0  0  0  0  0  0  0  0  0  0  0  0
   57.6461   33.1574   46.7795 H   0  0  0  0  0  0  0  0  0  0  0  0
   59.8100   33.7940   45.8620 H   0  0  0  0  0  0  0  0  0  0  0  0
   59.6715   35.2808   48.3714 H   0  0  0  0  0  0  0  0  0  0  0  0
   59.1539   33.5398   48.3660 H   0  0  0  0  0  0  0  0  0  0  0  0
   61.3880   34.1028   50.0731 H   0  0  0  0  0  0  0  0  0  0  0  0
   63.7858   33.3858   50.1006 H   0  0  0  0  0  0  0  0  0  0  0  0
   64.9189   32.7610   47.9580 H   0  0  0  0  0  0  0  0  0  0  0  0
   63.6335   32.8578   45.8135 H   0  0  0  0  0  0  0  0  0  0  0  0
   56.6082   31.5371   43.5209 H   0  0  0  0  0  0  0  0  0  0  0  0
   55.2911   29.4549   43.8853 H   0  0  0  0  0  0  0  0  0  0  0  0
  1  2  1  0
  2  3  1  0
  3  4  2  0
  4  5  1  0
  5  6  2  0
  6  7  1  0
  7  8  1  0
  8  9  1  0
  9 10  1  0
 10 11  1  0
 11 12  1  0
 12 13  1  0
 13 14  2  0
 14 15  1  0
 15 16  2  0
 16 17  1  0
 17 18  2  0
  6 19  1  0
 19 20  2  0
 20  3  1  0
 18 13  1  0
  1 21  1  0
  1 22  1  0
  1 23  1  0
  4 24  1  0
  5 25  1  0
  8 26  1  0
  8 27  1  0
  9 28  1  0
  9 29  1  0
 10 30  1  0
 10 31  1  0
 11 32  1  0
 12 33  1  0
 12 34  1  0
 14 35  1  0
 15 36  1  0
 16 37  1  0
 17 38  1  0
 19 39  1  0
 20 40  1  0
M  END
>  <UniqueID>  (38) 
38

>  <SMILES>  (38) 
COc1ccc(OCCCNCc2ccccn2)cc1

>  <Energy>  (38) 
36.57645555751879

>  <Genealogy>  (38) 
COc1ccc(OCCCNCc2ccccn2)cc1 (3D coordinates assigned)
COc1ccc(OCCCNCc2ccccn2)cc1 (optimized conformer: 36.57645555751879 kcal/mol)

>  <smiles>  (38) 
COc1ccc(OCCCNCc2ccccn2)cc1

>  <score_type>  (38) 
oracle

>  <origin>  (38) 
adg

>  <m_score__min__energy>  (38) 
-6.8799999999999999

>  <m_primary>  (38) 
energy

$$$$
38:0
     RDKit          3D

 48 48  0  0  0  0  0  0  0  0999 V2000
   56.4490   29.3600   42.7440 C   0  0  0  0  0  0  0  0  0  0  0  0
   56.2850   30.7280   43.4090 C   0  0  0  0  0  0  0  0  0  0  0  0
   57.4120   31.6740   42.9660 C   0  0  0  0  0  0  0  0  0  0  0  0
   56.2710   30.5460   44.8720 N   0  0  0  0  0  0  0  0  0  0  0  0
   57.0250   29.3560   45.2940 C   0  0  0  0  0  0  0  0  0  0  0  0
   58.5250   29.6660   45.3700 C   0  0  0  0  0  0  0  0  0  0  0  0
   58.8150   30.7400   46.3890 C   0  0  0  0  0  0  0  0  0  0  0  0
   59.0350   32.0600   45.9790 C   0  0  0  0  0  0  0  0  0  0  0  0
   59.3490   33.0630   46.9040 C   0  0  0  0  0  0  0  0  0  0  0  0
   59.6220   34.8060   46.1420 Br  0  0  0  0  0  0  0  0  0  0  0  0
   59.4450   32.7360   48.2890 C   0  0  0  0  0  0  0  0  0  0  0  0
   59.7430   33.6470   49.3230 O   0  0  0  0  0  0  0  0  0  0  0  0
   61.0020   34.2090   49.6630 C   0  0  0  0  0  0  0  0  0  0  0  0
   62.0850   33.1310   49.5630 C   0  0  0  0  0  0  0  0  0  0  0  0
   63.3590   33.6260   48.8330 C   0  0  0  0  0  0  0  0  0  0  0  0
   63.6040   32.9120   47.5570 N   0  0  0  0  0  0  0  0  0  0  0  0
   63.3040   33.8000   46.4160 C   0  0  0  0  0  0  0  0  0  0  0  0
   62.7900   31.6860   47.4540 C   0  0  0  0  0  0  0  0  0  0  0  0
   59.2290   31.4030   48.6840 C   0  0  0  0  0  0  0  0  0  0  0  0
   59.3510   30.9000   50.5270 Br  0  0  0  0  0  0  0  0  0  0  0  0
   58.9270   30.4160   47.7430 C   0  0  0  0  0  0  0  0  0  0  0  0
   56.5420   28.5845   43.5186 H   0  0  0  0  0  0  0  0  0  0  0  0
   55.5697   29.1490   42.1176 H   0  0  0  0  0  0  0  0  0  0  0  0
   57.3532   29.3628   42.1176 H   0  0  0  0  0  0  0  0  0  0  0  0
   55.3344   31.1878   43.1009 H   0  0  0  0  0  0  0  0  0  0  0  0
   57.9099   32.0919   43.8534 H   0  0  0  0  0  0  0  0  0  0  0  0
   58.1439   31.1157   42.3638 H   0  0  0  0  0  0  0  0  0  0  0  0
   56.9890   32.4915   42.3638 H   0  0  0  0  0  0  0  0  0  0  0  0
   55.2840   30.4660   45.2140 H   0  0  0  0  0  0  0  0  0  0  0  0
   56.6712   29.0367   46.2854 H   0  0  0  0  0  0  0  0  0  0  0  0
   56.8654   28.5553   44.5568 H   0  0  0  0  0  0  0  0  0  0  0  0
   59.0657   28.7504   45.6515 H   0  0  0  0  0  0  0  0  0  0  0  0
   58.8540   30.0266   44.3843 H   0  0  0  0  0  0  0  0  0  0  0  0
   58.9599   32.3139   44.9113 H   0  0  0  0  0  0  0  0  0  0  0  0
   61.2365   35.0300   48.9695 H   0  0  0  0  0  0  0  0  0  0  0  0
   60.9648   34.5976   50.6914 H   0  0  0  0  0  0  0  0  0  0  0  0
   62.3625   32.8161   50.5798 H   0  0  0  0  0  0  0  0  0  0  0  0
   61.6700   32.2978   48.9769 H   0  0  0  0  0  0  0  0  0  0  0  0
   63.2470   34.6992   48.6193 H   0  0  0  0  0  0  0  0  0  0  0  0
   64.2166   33.4286   49.4929 H   0  0  0  0  0  0  0  0  0  0  0  0
   64.6190   32.6480   47.4950 H   0  0  0  0  0  0  0  0  0  0  0  0
   62.9730   34.7797   46.7910 H   0  0  0  0  0  0  0  0  0  0  0  0
   64.2086   33.9284   45.8035 H   0  0  0  0  0  0  0  0  0  0  0  0
   62.5069   33.3534   45.8035 H   0  0  0  0  0  0  0  0  0  0  0  0
   62.5476   31.3210   48.4630 H   0  0  0  0  0  0  0  0  0  0  0  0
   61.8595   31.9082   46.9111 H   0  0  0  0  0  0  0  0  0  0  0  0
   63.3559   30.9146   46.9111 H   0  0  0  0  0  0  0  0  0  0  0  0
   58.7764   29.3767   48.0704 H   0  0  0  0  0  0  0  0  0  0  0  0
  1  2  1  0
  2  3  1  0
  2  4  1  0
  4  5  1  0
  5  6  1  0
  6  7  1  0
  7  8  2  0
  8  9  1  0
  9 10  1  0
  9 11  2  0
 11 12  1  0
 12 13  1  0
 13 14  1  0
 14 15  1  0
 15 16  1  0
 16 17  1  0
 16 18  1  0
 11 19  1  0
 19 20  1  0
 19 21  2  0
 21  7  1  0
  1 22  1  0
  1 23  1  0
  1 24  1  0
  2 25  1  0
  3 26  1  0
  3 27  1  0
  3 28  1  0
  4 29  1  0
  5 30  1  0
  5 31  1  0
  6 32  1  0
  6 33  1  0
  8 34  1  0
 13 35  1  0
 13 36  1  0
 14 37  1  0
 14 38  1  0
 15 39  1  0
 15 40  1  0
 16 41  1  0
 17 42  1  0
 17 43  1  0
 17 44  1  0
 18 45  1  0
 18 46  1  0
 18 47  1  0
 21 48  1  0
M  CHG  1  16   1
M  END
>  <UniqueID>  (39) 
39

>  <SMILES>  (39) 
CC(C)NCCc1cc(Br)c(OCCC[NH+](C)C)c(Br)c1

>  <Energy>  (39) 
45.1787877490135

>  <Genealogy>  (39) 
CC(C)NCCc1cc(Br)c(OCCC[NH+](C)C)c(Br)c1 (protonated)
CC(C)NCCc1cc(Br)c(OCCC[NH+](C)C)c(Br)c1 (3D coordinates assigned)
CC(C)NCCc1cc(Br)c(OCCC[NH+](C)C)c(Br)c1 (optimized conformer: 45.1787877490135 kcal/mol)

>  <smiles>  (39) 
CC(C)NCCc1cc(Br)c(OCCCN(C)C)c(Br)c1

>  <score_type>  (39) 
oracle

>  <origin>  (39) 
adg

>  <m_score__min__energy>  (39) 
-5.7800000000000002

>  <m_primary>  (39) 
energy

$$$$
39:0
     RDKit          3D

 41 43  0  0  0  0  0  0  0  0999 V2000
   54.0590   26.7170   46.7850 H   0  0  0  0  0  0  0  0  0  0  0  0
   54.4600   26.2730   45.9690 O   0  0  0  0  0  0  0  0  0  0  0  0
   55.0800   25.0510   46.0850 N   0  0  0  0  0  0  0  0  0  0  0  0
   56.2660   24.8390   45.6010 C   0  0  0  0  0  0  0  0  0  0  0  0
   57.3070   25.8920   45.7040 C   0  0  0  0  0  0  0  0  0  0  0  0
   57.9150   26.4170   44.5510 C   0  0  0  0  0  0  0  0  0  0  0  0
   57.6165   26.0466   43.5592 H   0  0  0  0  0  0  0  0  0  0  0  0
   58.8690   27.3790   44.6530 N   0  0  0  0  0  0  0  0  0  0  0  0
   59.2690   27.8790   45.8520 C   0  0  0  0  0  0  0  0  0  0  0  0
   60.2710   28.8600   45.8740 O   0  0  0  0  0  0  0  0  0  0  0  0
   60.0680   30.2250   46.1230 C   0  0  0  0  0  0  0  0  0  0  0  0
   58.8900   30.8250   45.6610 C   0  0  0  0  0  0  0  0  0  0  0  0
   58.1534   30.2269   45.1046 H   0  0  0  0  0  0  0  0  0  0  0  0
   58.6450   32.1800   45.9030 C   0  0  0  0  0  0  0  0  0  0  0  0
   57.7229   32.6470   45.5268 H   0  0  0  0  0  0  0  0  0  0  0  0
   59.5710   32.9430   46.6230 C   0  0  0  0  0  0  0  0  0  0  0  0
   59.2610   34.6420   46.9270 Cl  0  0  0  0  0  0  0  0  0  0  0  0
   60.7400   32.3460   47.1060 C   0  0  0  0  0  0  0  0  0  0  0  0
   61.4660   32.9432   47.6772 H   0  0  0  0  0  0  0  0  0  0  0  0
   60.9870   30.9920   46.8640 C   0  0  0  0  0  0  0  0  0  0  0  0
   61.9028   30.5238   47.2539 H   0  0  0  0  0  0  0  0  0  0  0  0
   58.7080   27.3670   47.0320 C   0  0  0  0  0  0  0  0  0  0  0  0
   59.0397   27.7423   48.0114 H   0  0  0  0  0  0  0  0  0  0  0  0
   57.7260   26.3780   46.9540 C   0  0  0  0  0  0  0  0  0  0  0  0
   57.2781   25.9773   47.8753 H   0  0  0  0  0  0  0  0  0  0  0  0
   56.5680   23.5860   44.9680 N   0  0  0  0  0  0  0  0  0  0  0  0
   56.6290   22.3580   45.7670 C   0  0  0  0  0  0  0  0  0  0  0  0
   56.7084   22.6233   46.8316 H   0  0  0  0  0  0  0  0  0  0  0  0
   55.7151   21.7729   45.5869 H   0  0  0  0  0  0  0  0  0  0  0  0
   57.8470   21.5090   45.3660 C   0  0  0  0  0  0  0  0  0  0  0  0
   58.7285   21.8933   45.9001 H   0  0  0  0  0  0  0  0  0  0  0  0
   57.6136   20.4678   45.6331 H   0  0  0  0  0  0  0  0  0  0  0  0
   58.1490   21.5280   43.8500 C   0  0  0  0  0  0  0  0  0  0  0  0
   59.0535   22.1306   43.6805 H   0  0  0  0  0  0  0  0  0  0  0  0
   58.2838   20.4846   43.5288 H   0  0  0  0  0  0  0  0  0  0  0  0
   57.0060   22.1190   43.0180 C   0  0  0  0  0  0  0  0  0  0  0  0
   57.3096   22.1602   41.9615 H   0  0  0  0  0  0  0  0  0  0  0  0
   56.1157   21.4826   43.1292 H   0  0  0  0  0  0  0  0  0  0  0  0
   56.6720   23.5340   43.5040 C   0  0  0  0  0  0  0  0  0  0  0  0
   57.4657   24.2217   43.1767 H   0  0  0  0  0  0  0  0  0  0  0  0
   55.7016   23.8272   43.0769 H   0  0  0  0  0  0  0  0  0  0  0  0
  1  2  1  0
  2  3  1  0
  3  4  2  0
  4  5  1  0
  5  6  2  0
  6  7  1  0
  6  8  1  0
  8  9  2  0
  9 10  1  0
 10 11  1  0
 11 12  2  0
 12 13  1  0
 12 14  1  0
 14 15  1  0
 14 16  2  0
 16 17  1  0
 16 18  1  0
 18 19  1  0
 18 20  2  0
 20 21  1  0
  9 22  1  0
 22 23  1  0
 22 24  2  0
 24 25  1  0
  4 26  1  0
 26 27  1  0
 27 28  1  0
 27 29  1  0
 27 30  1  0
 30 31  1  0
 30 32  1  0
 30 33  1  0
 33 34  1  0
 33 35  1  0
 33 36  1  0
 36 37  1  0
 36 38  1  0
 36 39  1  0
 39 40  1  0
 39 41  1  0
 24  5  1  0
 39 26  1  0
 20 11  1  0
M  END
>  <UniqueID>  (40) 
40

>  <SMILES>  (40) 
O/N=C(/c1ccc(Oc2ccc(Cl)cc2)nc1)N1CCCCC1

>  <Energy>  (40) 
55.34998293488794

>  <Genealogy>  (40) 
O/N=C(/c1ccc(Oc2ccc(Cl)cc2)nc1)N1CCCCC1 (cis-trans isomerization)
O/N=C(/c1ccc(Oc2ccc(Cl)cc2)nc1)N1CCCCC1 (3D coordinates assigned)
O/N=C(/c1ccc(Oc2ccc(Cl)cc2)nc1)N1CCCCC1 (nonaromatic ring conformer: 55.34998293488794 kcal/mol)

>  <smiles>  (40) 
ON=C(c1ccc(Oc2ccc(Cl)cc2)nc1)N1CCCCC1

>  <score_type>  (40) 
oracle

>  <origin>  (40) 
adg

>  <m_score__min__energy>  (40) 
-8.6099999999999994

>  <m_primary>  (40) 
energy

$$$$
40:0
     RDKit          3D

 45 46  0  0  0  0  0  0  0  0999 V2000
   56.7340   30.8410   43.4530 C   0  0  0  0  0  0  0  0  0  0  0  0
   55.6240   29.9370   43.9700 C   0  0  0  0  0  0  0  0  0  0  0  0
   56.0430   29.3070   45.2160 N   0  0  0  0  0  0  0  0  0  0  0  0
   56.6450   28.0100   45.2630 C   0  0  0  0  0  0  0  0  0  0  0  0
   56.1510   27.1030   45.9880 O   0  0  0  0  0  0  0  0  0  0  0  0
   57.8570   27.7210   44.4310 C   0  0  0  0  0  0  0  0  0  0  0  0
   59.0820   28.1270   45.1470 N   0  0  0  0  0  0  0  0  0  0  0  0
   59.2680   27.3770   46.4180 C   0  0  0  0  0  0  0  0  0  0  0  0
   58.8500   28.1980   47.6490 C   0  0  0  0  0  0  0  0  0  0  0  0
   59.6320   29.4580   47.7720 N   0  0  0  0  0  0  0  0  0  0  0  0
   58.9140   30.4760   48.5800 C   0  0  0  0  0  0  0  0  0  0  0  0
   59.7290   31.7720   48.7490 C   0  0  1  0  0  0  0  0  0  0  0  0
   61.1040   31.4880   48.7950 O   0  0  0  0  0  0  0  0  0  0  0  0
   59.4030   32.7680   47.6520 C   0  0  0  0  0  0  0  0  0  0  0  0
   60.3480   33.7160   47.2190 C   0  0  0  0  0  0  0  0  0  0  0  0
   60.0440   34.5910   46.1710 C   0  0  0  0  0  0  0  0  0  0  0  0
   58.7970   34.5240   45.5420 C   0  0  0  0  0  0  0  0  0  0  0  0
   58.5040   35.3720   44.5250 F   0  0  0  0  0  0  0  0  0  0  0  0
   57.8560   33.5800   45.9580 C   0  0  0  0  0  0  0  0  0  0  0  0
   58.1570   32.7020   47.0030 C   0  0  0  0  0  0  0  0  0  0  0  0
   60.0740   29.9960   46.4580 C   0  0  0  0  0  0  0  0  0  0  0  0
   59.1180   29.5980   45.3260 C   0  0  0  0  0  0  0  0  0  0  0  0
   57.2746   31.2812   44.3039 H   0  0  0  0  0  0  0  0  0  0  0  0
   57.4320   30.2511   42.8407 H   0  0  0  0  0  0  0  0  0  0  0  0
   56.2977   31.6440   42.8407 H   0  0  0  0  0  0  0  0  0  0  0  0
   54.7188   30.5357   44.1494 H   0  0  0  0  0  0  0  0  0  0  0  0
   55.4104   29.1588   43.2225 H   0  0  0  0  0  0  0  0  0  0  0  0
   57.9020   26.6426   44.2186 H   0  0  0  0  0  0  0  0  0  0  0  0
   57.7883   28.2890   43.4915 H   0  0  0  0  0  0  0  0  0  0  0  0
   58.6592   26.4616   46.3804 H   0  0  0  0  0  0  0  0  0  0  0  0
   60.3387   27.1449   46.5171 H   0  0  0  0  0  0  0  0  0  0  0  0
   57.7827   28.4497   47.5620 H   0  0  0  0  0  0  0  0  0  0  0  0
   59.0442   27.5894   48.5445 H   0  0  0  0  0  0  0  0  0  0  0  0
   57.9644   30.7183   48.0804 H   0  0  0  0  0  0  0  0  0  0  0  0
   58.7456   30.0523   49.5811 H   0  0  0  0  0  0  0  0  0  0  0  0
   59.4480   32.2352   49.7064 H   0  0  0  0  0  0  0  0  0  0  0  0
   61.2030   30.5160   48.6170 H   0  0  0  0  0  0  0  0  0  0  0  0
   61.3321   33.7694   47.7077 H   0  0  0  0  0  0  0  0  0  0  0  0
   60.7866   35.3325   45.8413 H   0  0  0  0  0  0  0  0  0  0  0  0
   56.8755   33.5272   45.4621 H   0  0  0  0  0  0  0  0  0  0  0  0
   57.4147   31.9546   47.3198 H   0  0  0  0  0  0  0  0  0  0  0  0
   60.1157   31.0935   46.5189 H   0  0  0  0  0  0  0  0  0  0  0  0
   61.0642   29.5735   46.2323 H   0  0  0  0  0  0  0  0  0  0  0  0
   58.1062   29.9548   45.5688 H   0  0  0  0  0  0  0  0  0  0  0  0
   59.4761   30.0539   44.3912 H   0  0  0  0  0  0  0  0  0  0  0  0
  1  2  1  0
  2  3  1  0
  3  4  1  0
  4  5  2  0
  4  6  1  0
  6  7  1  0
  7  8  1  0
  8  9  1  0
  9 10  1  0
 10 11  1  0
 11 12  1  0
 12 13  1  0
 12 14  1  0
 14 15  2  0
 15 16  1  0
 16 17  2  0
 17 18  1  0
 17 19  1  0
 19 20  2  0
 10 21  1  0
 21 22  1  0
 22  7  1  0
 20 14  1  0
  1 23  1  0
  1 24  1  0
  1 25  1  0
  2 26  1  0
  2 27  1  0
  6 28  1  0
  6 29  1  0
  8 30  1  0
  8 31  1  0
  9 32  1  0
  9 33  1  0
 11 34  1  0
 11 35  1  0
 12 36  1  1
 13 37  1  0
 15 38  1  0
 16 39  1  0
 19 40  1  0
 20 41  1  0
 21 42  1  0
 21 43  1  0
 22 44  1  0
 22 45  1  0
M  CHG  1   3  -1
M  END
>  <UniqueID>  (41) 
41

>  <SMILES>  (41) 
CC[N-]C(=O)CN1CCN(C[C@@H](O)c2ccc(F)cc2)CC1

>  <Energy>  (41) 
51.97760963316279

>  <Genealogy>  (41) 
CC[N-]C(=O)CN1CCN(CC(O)c2ccc(F)cc2)CC1 (protonated)
CC[N-]C(=O)CN1CCN(C[C@@H](O)c2ccc(F)cc2)CC1 (chirality)
CC[N-]C(=O)CN1CCN(C[C@@H](O)c2ccc(F)cc2)CC1 (3D coordinates assigned)
CC[N-]C(=O)CN1CCN(C[C@@H](O)c2ccc(F)cc2)CC1 (nonaromatic ring conformer: 51.97760963316279 kcal/mol)

>  <smiles>  (41) 
CCNC(=O)CN1CCN(CC(O)c2ccc(F)cc2)CC1

>  <score_type>  (41) 
oracle

>  <origin>  (41) 
adg

>  <m_score__min__energy>  (41) 
-8.9000000000000004

>  <m_primary>  (41) 
energy

$$$$
41:0
     RDKit          3D

 47 50  0  0  0  0  0  0  0  0999 V2000
   56.1800   29.6420   44.1190 C   0  0  0  0  0  0  0  0  0  0  0  0
   55.7670   28.6160   45.0170 O   0  0  0  0  0  0  0  0  0  0  0  0
   56.6410   27.7580   45.7030 C   0  0  0  0  0  0  0  0  0  0  0  0
   57.9400   28.1570   46.0770 C   0  0  0  0  0  0  0  0  0  0  0  0
   58.7870   27.2780   46.7660 C   0  0  0  0  0  0  0  0  0  0  0  0
   60.1900   27.7080   47.1300 C   0  0  2  0  0  0  0  0  0  0  0  0
   60.3450   27.9910   48.6380 C   0  0  0  0  0  0  0  0  0  0  0  0
   60.7590   29.3860   48.7070 N   0  0  0  0  0  0  0  0  0  0  0  0
   60.8320   29.8650   47.5130 C   0  0  0  0  0  0  0  0  0  0  0  0
   61.2190   31.2560   47.2340 C   0  0  0  0  0  0  0  0  0  0  0  0
   60.2600   32.1980   46.8310 C   0  0  0  0  0  0  0  0  0  0  0  0
   60.6570   33.5120   46.5760 C   0  0  0  0  0  0  0  0  0  0  0  0
   61.9970   33.8750   46.7240 C   0  0  0  0  0  0  0  0  0  0  0  0
   62.9240   32.9130   47.1270 C   0  0  0  0  0  0  0  0  0  0  0  0
   62.5190   31.6380   47.3720 N   0  0  0  0  0  0  0  0  0  0  0  0
   60.5090   28.9510   46.5280 O   0  0  0  0  0  0  0  0  0  0  0  0
   58.3360   25.9830   47.0640 C   0  0  0  0  0  0  0  0  0  0  0  0
   57.0500   25.5810   46.6990 C   0  0  0  0  0  0  0  0  0  0  0  0
   56.1950   26.4640   46.0140 C   0  0  0  0  0  0  0  0  0  0  0  0
   54.8960   26.0980   45.6240 O   0  0  0  0  0  0  0  0  0  0  0  0
   54.3710   24.7700   45.6330 C   0  0  0  0  0  0  0  0  0  0  0  0
   55.3080   23.8190   44.9370 C   0  0  0  0  0  0  0  0  0  0  0  0
   55.7720   22.6720   45.6030 C   0  0  0  0  0  0  0  0  0  0  0  0
   56.6490   21.7920   44.9620 C   0  0  0  0  0  0  0  0  0  0  0  0
   57.0760   22.0550   43.6570 C   0  0  0  0  0  0  0  0  0  0  0  0
   56.6290   23.1990   42.9920 C   0  0  0  0  0  0  0  0  0  0  0  0
   55.7520   24.0820   43.6290 C   0  0  0  0  0  0  0  0  0  0  0  0
   56.5304   30.5125   44.6930 H   0  0  0  0  0  0  0  0  0  0  0  0
   56.9974   29.2675   43.4853 H   0  0  0  0  0  0  0  0  0  0  0  0
   55.3311   29.9382   43.4853 H   0  0  0  0  0  0  0  0  0  0  0  0
   58.2926   29.1682   45.8257 H   0  0  0  0  0  0  0  0  0  0  0  0
   60.8328   26.8799   46.7966 H   0  0  0  0  0  0  0  0  0  0  0  0
   59.3890   27.8428   49.1616 H   0  0  0  0  0  0  0  0  0  0  0  0
   61.0687   27.3158   49.1179 H   0  0  0  0  0  0  0  0  0  0  0  0
   59.2061   31.9041   46.7172 H   0  0  0  0  0  0  0  0  0  0  0  0
   59.9153   34.2600   46.2590 H   0  0  0  0  0  0  0  0  0  0  0  0
   62.3185   34.9080   46.5251 H   0  0  0  0  0  0  0  0  0  0  0  0
   63.9828   33.1860   47.2466 H   0  0  0  0  0  0  0  0  0  0  0  0
   59.0000   25.2802   47.5885 H   0  0  0  0  0  0  0  0  0  0  0  0
   56.7028   24.5675   46.9485 H   0  0  0  0  0  0  0  0  0  0  0  0
   54.2341   24.4436   46.6745 H   0  0  0  0  0  0  0  0  0  0  0  0
   53.4082   24.7683   45.1010 H   0  0  0  0  0  0  0  0  0  0  0  0
   55.4440   22.4658   46.6325 H   0  0  0  0  0  0  0  0  0  0  0  0
   57.0035   20.8916   45.4851 H   0  0  0  0  0  0  0  0  0  0  0  0
   57.7645   21.3604   43.1536 H   0  0  0  0  0  0  0  0  0  0  0  0
   56.9674   23.4055   41.9659 H   0  0  0  0  0  0  0  0  0  0  0  0
   55.4080   24.9859   43.1050 H   0  0  0  0  0  0  0  0  0  0  0  0
  1  2  1  0
  2  3  1  0
  3  4  2  0
  4  5  1  0
  5  6  1  0
  6  7  1  0
  7  8  1  0
  8  9  2  0
  9 10  1  0
 10 11  2  0
 11 12  1  0
 12 13  2  0
 13 14  1  0
 14 15  2  0
  9 16  1  0
  5 17  2  0
 17 18  1  0
 18 19  2  0
 19 20  1  0
 20 21  1  0
 21 22  1  0
 22 23  2  0
 23 24  1  0
 24 25  2  0
 25 26  1  0
 26 27  2  0
 19  3  1  0
 27 22  1  0
 16  6  1  0
 15 10  1  0
  1 28  1  0
  1 29  1  0
  1 30  1  0
  4 31  1  0
  6 32  1  6
  7 33  1  0
  7 34  1  0
 11 35  1  0
 12 36  1  0
 13 37  1  0
 14 38  1  0
 17 39  1  0
 18 40  1  0
 21 41  1  0
 21 42  1  0
 23 43  1  0
 24 44  1  0
 25 45  1  0
 26 46  1  0
 27 47  1  0
M  END
>  <UniqueID>  (42) 
42

>  <SMILES>  (42) 
COc1cc([C@@H]2CN=C(c3ccccn3)O2)ccc1OCc1ccccc1

>  <Energy>  (42) 
64.49601402924549

>  <Genealogy>  (42) 
COc1cc([C@@H]2CN=C(c3ccccn3)O2)ccc1OCc1ccccc1 (chirality)
COc1cc([C@@H]2CN=C(c3ccccn3)O2)ccc1OCc1ccccc1 (3D coordinates assigned)
COc1cc([C@@H]2CN=C(c3ccccn3)O2)ccc1OCc1ccccc1 (nonaromatic ring conformer: 64.49601402924549 kcal/mol)

>  <smiles>  (42) 
COc1cc(C2CN=C(c3ccccn3)O2)ccc1OCc1ccccc1

>  <score_type>  (42) 
oracle

>  <origin>  (42) 
adg

>  <m_score__min__energy>  (42) 
-8.3499999999999996

>  <m_primary>  (42) 
energy

$$$$
42:0
     RDKit          3D

 38 40  0  0  0  0  0  0  0  0999 V2000
   56.2930   25.5370   44.3400 H   0  0  0  0  0  0  0  0  0  0  0  0
   56.6760   24.7930   43.7720 O   0  0  0  0  0  0  0  0  0  0  0  0
   56.5020   23.4390   44.0680 C   0  0  0  0  0  0  0  0  0  0  0  0
   57.0190   22.4960   43.1710 C   0  0  0  0  0  0  0  0  0  0  0  0
   57.5138   22.8340   42.2485 H   0  0  0  0  0  0  0  0  0  0  0  0
   56.9110   21.1300   43.4390 C   0  0  0  0  0  0  0  0  0  0  0  0
   57.3240   20.3968   42.7306 H   0  0  0  0  0  0  0  0  0  0  0  0
   56.2800   20.6940   44.6040 C   0  0  0  0  0  0  0  0  0  0  0  0
   56.2013   19.6176   44.8165 H   0  0  0  0  0  0  0  0  0  0  0  0
   55.7480   21.6230   45.5010 C   0  0  0  0  0  0  0  0  0  0  0  0
   55.2457   21.2727   46.4148 H   0  0  0  0  0  0  0  0  0  0  0  0
   55.8490   23.0030   45.2460 C   0  0  0  0  0  0  0  0  0  0  0  0
   55.2310   23.9570   46.1940 C   0  0  0  0  0  0  0  0  0  0  0  0
   54.1230   23.6760   46.7240 O   0  0  0  0  0  0  0  0  0  0  0  0
   55.8730   25.1850   46.5510 N   0  0  0  0  0  0  0  0  0  0  0  0
   55.5700   26.2860   45.9920 N   0  0  0  0  0  0  0  0  0  0  0  0
   56.5630   27.2630   45.6740 C   0  0  0  0  0  0  0  0  0  0  0  0
   56.3730   28.5420   45.1640 C   0  0  0  0  0  0  0  0  0  0  0  0
   55.1420   29.1130   44.8590 O   0  0  0  0  0  0  0  0  0  0  0  0
   57.5610   29.1730   45.0050 N   0  0  0  0  0  0  0  0  0  0  0  0
   57.7670   30.5450   44.5370 C   0  0  0  0  0  0  0  0  0  0  0  0
   56.8706   30.8811   43.9953 H   0  0  0  0  0  0  0  0  0  0  0  0
   58.6425   30.5662   43.8714 H   0  0  0  0  0  0  0  0  0  0  0  0
   58.0170   31.4650   45.6980 C   0  0  0  0  0  0  0  0  0  0  0  0
   58.4618   31.0592   46.6186 H   0  0  0  0  0  0  0  0  0  0  0  0
   57.7120   32.7640   45.6390 C   0  0  0  0  0  0  0  0  0  0  0  0
   57.9061   33.4144   46.5046 H   0  0  0  0  0  0  0  0  0  0  0  0
   57.2667   33.1834   44.7248 H   0  0  0  0  0  0  0  0  0  0  0  0
   58.5020   28.2980   45.4290 C   0  0  0  0  0  0  0  0  0  0  0  0
   59.8860   28.4830   45.4880 C   0  0  0  0  0  0  0  0  0  0  0  0
   60.3464   29.4271   45.1615 H   0  0  0  0  0  0  0  0  0  0  0  0
   60.6720   27.4240   45.9780 C   0  0  0  0  0  0  0  0  0  0  0  0
   61.7647   27.5374   46.0347 H   0  0  0  0  0  0  0  0  0  0  0  0
   60.0710   26.2160   46.3980 C   0  0  0  0  0  0  0  0  0  0  0  0
   60.6984   25.3962   46.7780 H   0  0  0  0  0  0  0  0  0  0  0  0
   58.6760   26.0560   46.3330 C   0  0  0  0  0  0  0  0  0  0  0  0
   58.1952   25.1223   46.6602 H   0  0  0  0  0  0  0  0  0  0  0  0
   57.9220   27.1200   45.8400 C   0  0  0  0  0  0  0  0  0  0  0  0
  1  2  1  0
  2  3  1  0
  3  4  2  0
  4  5  1  0
  4  6  1  0
  6  7  1  0
  6  8  2  0
  8  9  1  0
  8 10  1  0
 10 11  1  0
 10 12  2  0
 12 13  1  0
 13 14  2  0
 13 15  1  0
 15 16  2  0
 16 17  1  0
 17 18  2  0
 18 19  1  0
 18 20  1  0
 20 21  1  0
 21 22  1  0
 21 23  1  0
 21 24  1  0
 24 25  1  0
 24 26  2  0
 26 27  1  0
 26 28  1  0
 20 29  1  0
 29 30  2  0
 30 31  1  0
 30 32  1  0
 32 33  1  0
 32 34  2  0
 34 35  1  0
 34 36  1  0
 36 37  1  0
 36 38  2  0
 12  3  1  0
 38 17  1  0
 38 29  1  0
M  CHG  1  19  -1
M  END
>  <UniqueID>  (43) 
43

>  <SMILES>  (43) 
C=CCn1c([O-])c(/N=N/C(=O)c2ccccc2O)c2ccccc21

>  <Energy>  (43) 
78.8503531019248

>  <Genealogy>  (43) 
C=CCn1c([O-])c(N=NC(=O)c2ccccc2O)c2ccccc21 (protonated)
C=CCn1c([O-])c(/N=N/C(=O)c2ccccc2O)c2ccccc21 (cis-trans isomerization)
C=CCn1c([O-])c(/N=N/C(=O)c2ccccc2O)c2ccccc21 (3D coordinates assigned)
C=CCn1c([O-])c(/N=N/C(=O)c2ccccc2O)c2ccccc21 (optimized conformer: 78.8503531019248 kcal/mol)

>  <smiles>  (43) 
C=CCn1c(O)c(N=NC(=O)c2ccccc2O)c2ccccc21

>  <score_type>  (43) 
oracle

>  <origin>  (43) 
adg

>  <m_score__min__energy>  (43) 
-11.57

>  <m_primary>  (43) 
energy

$$$$
43:0
     RDKit          3D

 59 63  0  0  1  0  0  0  0  0999 V2000
   55.6950   29.9050   43.8430 C   0  0  0  0  0  0  0  0  0  0  0  0
   56.7800   29.9940   44.7340 O   0  0  0  0  0  0  0  0  0  0  0  0
   57.4570   31.1760   44.9880 C   0  0  0  0  0  0  0  0  0  0  0  0
   57.7620   31.6240   46.2540 C   0  0  0  0  0  0  0  0  0  0  0  0
   58.4430   32.8180   46.4820 C   0  0  0  0  0  0  0  0  0  0  0  0
   58.8350   33.5950   45.4060 C   0  0  0  0  0  0  0  0  0  0  0  0
   59.5670   34.8830   45.5890 C   0  0  0  0  0  0  0  0  0  0  0  0
   60.7170   34.6930   46.5880 C   0  0  0  0  0  0  0  0  0  0  0  0
   61.4030   33.5060   46.1820 N   0  0  0  0  0  0  0  0  0  0  0  0
   61.5420   32.5150   47.0030 C   0  0  0  0  0  0  0  0  0  0  0  0
   60.9010   31.3430   46.8290 N   0  0  0  0  0  0  0  0  0  0  0  0
   61.0670   30.3280   47.7010 C   0  0  0  0  0  0  0  0  0  0  0  0
   60.3810   29.0970   47.5030 N   0  0  0  0  0  0  0  0  0  0  0  0
   60.1650   28.2490   48.5200 N   0  0  0  0  0  0  0  0  0  0  0  0
   59.4980   27.1630   48.0650 C   0  0  0  0  0  0  0  0  0  0  0  0
   59.3060   27.3610   46.7300 C   0  0  0  0  0  0  0  0  0  0  0  0
   58.7010   26.6040   45.7780 C   0  0  0  0  0  0  0  0  0  0  0  0
   58.6330   27.0340   44.4590 C   0  0  0  0  0  0  0  0  0  0  0  0
   59.1990   28.2580   44.1350 C   0  0  0  0  0  0  0  0  0  0  0  0
   59.8250   29.0570   45.0820 C   0  0  0  0  0  0  0  0  0  0  0  0
   59.8610   28.5760   46.3780 C   0  0  0  0  0  0  0  0  0  0  0  0
   61.8770   30.4290   48.7860 N   0  0  0  0  0  0  0  0  0  0  0  0
   62.5340   31.5870   48.9900 C   0  0  0  0  0  0  0  0  0  0  0  0
   62.3710   32.6320   48.1020 C   0  0  0  0  0  0  0  0  0  0  0  0
   63.1290   33.8820   48.3920 C   0  0  0  0  0  0  0  0  0  0  0  0
   64.5230   33.3860   48.7980 C   0  0  0  0  0  0  0  0  0  0  0  0
   64.3560   32.8190   50.1810 C   0  0  0  0  0  0  0  0  0  0  0  0
   63.4100   31.6610   50.1840 C   0  0  0  0  0  0  0  0  0  0  0  0
   58.5190   33.1290   44.1450 C   0  0  0  0  0  0  0  0  0  0  0  0
   57.8460   31.9510   43.9200 C   0  0  0  0  0  0  0  0  0  0  0  0
   57.5540   31.5290   42.6430 O   0  0  0  0  0  0  0  0  0  0  0  0
   57.8780   32.3350   41.5150 C   0  0  0  0  0  0  0  0  0  0  0  0
   54.7575   29.8281   44.4133 H   0  0  0  0  0  0  0  0  0  0  0  0
   55.6661   30.8038   43.2095 H   0  0  0  0  0  0  0  0  0  0  0  0
   55.8130   29.0135   43.2095 H   0  0  0  0  0  0  0  0  0  0  0  0
   57.4563   31.0160   47.1182 H   0  0  0  0  0  0  0  0  0  0  0  0
   58.6673   33.1406   47.5094 H   0  0  0  0  0  0  0  0  0  0  0  0
   59.9748   35.2114   44.6216 H   0  0  0  0  0  0  0  0  0  0  0  0
   58.8722   35.6425   45.9768 H   0  0  0  0  0  0  0  0  0  0  0  0
   61.3972   35.5569   46.5559 H   0  0  0  0  0  0  0  0  0  0  0  0
   60.3436   34.6085   47.6192 H   0  0  0  0  0  0  0  0  0  0  0  0
   59.1748   26.2929   48.6554 H   0  0  0  0  0  0  0  0  0  0  0  0
   58.2584   25.6361   46.0558 H   0  0  0  0  0  0  0  0  0  0  0  0
   58.1423   26.4189   43.6903 H   0  0  0  0  0  0  0  0  0  0  0  0
   59.1503   28.6073   43.0931 H   0  0  0  0  0  0  0  0  0  0  0  0
   60.2710   30.0262   44.8143 H   0  0  0  0  0  0  0  0  0  0  0  0
   61.9710   29.6270   49.4230 H   0  0  0  0  0  0  0  0  0  0  0  0
   63.1863   34.5206   47.4982 H   0  0  0  0  0  0  0  0  0  0  0  0
   62.6535   34.4936   49.1730 H   0  0  0  0  0  0  0  0  0  0  0  0
   64.8729   32.6087   48.1027 H   0  0  0  0  0  0  0  0  0  0  0  0
   65.2687   34.1943   48.7737 H   0  0  0  0  0  0  0  0  0  0  0  0
   65.3357   32.4820   50.5506 H   0  0  0  0  0  0  0  0  0  0  0  0
   63.9438   33.6052   50.8306 H   0  0  0  0  0  0  0  0  0  0  0  0
   64.0000   30.7341   50.2367 H   0  0  0  0  0  0  0  0  0  0  0  0
   62.7487   31.7961   51.0526 H   0  0  0  0  0  0  0  0  0  0  0  0
   58.8213   33.7312   43.2755 H   0  0  0  0  0  0  0  0  0  0  0  0
   58.2679   33.3050   41.8573 H   0  0  0  0  0  0  0  0  0  0  0  0
   58.6415   31.8264   40.9081 H   0  0  0  0  0  0  0  0  0  0  0  0
   56.9749   32.4964   40.9081 H   0  0  0  0  0  0  0  0  0  0  0  0
  1  2  1  0
  2  3  1  0
  3  4  2  0
  4  5  1  0
  5  6  2  0
  6  7  1  0
  7  8  1  0
  8  9  1  0
  9 10  2  0
 10 11  1  0
 11 12  2  0
 12 13  1  0
 13 14  1  0
 14 15  2  0
 15 16  1  0
 16 17  2  0
 17 18  1  0
 18 19  2  0
 19 20  1  0
 20 21  2  0
 12 22  1  0
 22 23  1  0
 23 24  2  0
 24 25  1  0
 25 26  1  0
 26 27  1  0
 27 28  1  0
  6 29  1  0
 29 30  2  0
 30 31  1  0
 31 32  1  0
 30  3  1  0
 24 10  1  0
 21 13  1  0
 28 23  1  0
 21 16  1  0
  1 33  1  0
  1 34  1  0
  1 35  1  0
  4 36  1  0
  5 37  1  0
  7 38  1  0
  7 39  1  0
  8 40  1  0
  8 41  1  0
 15 42  1  0
 17 43  1  0
 18 44  1  0
 19 45  1  0
 20 46  1  0
 22 47  1  0
 25 48  1  0
 25 49  1  0
 26 50  1  0
 26 51  1  0
 27 52  1  0
 27 53  1  0
 28 54  1  0
 28 55  1  0
 29 56  1  0
 32 57  1  0
 32 58  1  0
 32 59  1  0
M  END
>  <smiles>  (44) 
COc1ccc(CCN=c2nc(-n3ncc4ccccc43)[nH]c3c2CCCC3)cc1OC

>  <score_type>  (44) 
oracle

>  <origin>  (44) 
adg

>  <m_score__min__energy>  (44) 
-9.6799999999999997

>  <m_primary>  (44) 
energy

$$$$
44:0
     RDKit          3D

 50 52  0  0  0  0  0  0  0  0999 V2000
   57.8450   26.3150   43.2390 C   0  0  0  0  0  0  0  0  0  0  0  0
   58.1400   26.3500   44.6320 O   0  0  0  0  0  0  0  0  0  0  0  0
   58.8650   27.3720   45.2620 C   0  0  0  0  0  0  0  0  0  0  0  0
   59.6730   28.2770   44.5470 C   0  0  0  0  0  0  0  0  0  0  0  0
   60.3750   29.2790   45.2230 C   0  0  0  0  0  0  0  0  0  0  0  0
   60.2850   29.3900   46.6170 C   0  0  0  0  0  0  0  0  0  0  0  0
   61.1810   30.6480   47.4730 S   0  0  0  0  0  0  0  0  0  0  0  0
   62.5100   30.8490   46.8010 O   0  0  0  0  0  0  0  0  0  0  0  0
   61.4370   30.2020   48.8860 O   0  0  0  0  0  0  0  0  0  0  0  0
   60.3100   32.1610   47.4900 N   0  0  0  0  0  0  0  0  0  0  0  0
   58.9590   31.9720   48.0300 C   0  0  0  0  0  0  0  0  0  0  0  0
   58.1320   33.2600   47.8440 C   0  0  0  0  0  0  0  0  0  0  0  0
   58.9620   34.4880   47.7630 N   0  0  0  0  0  0  0  0  0  0  0  0
   59.2780   34.8740   46.3690 C   0  0  0  0  0  0  0  0  0  0  0  0
   58.4530   34.0790   45.4000 C   0  0  0  0  0  0  0  0  0  0  0  0
   57.4870   34.6320   44.8080 O   0  0  0  0  0  0  0  0  0  0  0  0
   58.7940   32.7130   45.1240 N   0  0  0  0  0  0  0  0  0  0  0  0
   57.9640   31.8280   44.3560 C   0  0  0  0  0  0  0  0  0  0  0  0
   57.8030   32.0600   42.9810 C   0  0  0  0  0  0  0  0  0  0  0  0
   57.0130   31.2060   42.2070 C   0  0  0  0  0  0  0  0  0  0  0  0
   56.3900   30.1030   42.7960 C   0  0  0  0  0  0  0  0  0  0  0  0
   56.5650   29.8480   44.1580 C   0  0  0  0  0  0  0  0  0  0  0  0
   57.3540   30.6990   44.9400 C   0  0  0  0  0  0  0  0  0  0  0  0
   57.5610   30.3920   46.2440 F   0  0  0  0  0  0  0  0  0  0  0  0
   60.1650   34.3910   48.6180 C   0  0  0  0  0  0  0  0  0  0  0  0
   61.0470   33.1700   48.2710 C   0  0  0  0  0  0  0  0  0  0  0  0
   59.4790   28.4910   47.3290 C   0  0  0  0  0  0  0  0  0  0  0  0
   58.7750   27.4900   46.6550 C   0  0  0  0  0  0  0  0  0  0  0  0
   56.7618   26.1865   43.0967 H   0  0  0  0  0  0  0  0  0  0  0  0
   58.1669   27.2576   42.7722 H   0  0  0  0  0  0  0  0  0  0  0  0
   58.3785   25.4739   42.7722 H   0  0  0  0  0  0  0  0  0  0  0  0
   59.7520   28.1951   43.4529 H   0  0  0  0  0  0  0  0  0  0  0  0
   61.0016   29.9844   44.6575 H   0  0  0  0  0  0  0  0  0  0  0  0
   58.4672   31.1434   47.4993 H   0  0  0  0  0  0  0  0  0  0  0  0
   59.0282   31.7390   49.1028 H   0  0  0  0  0  0  0  0  0  0  0  0
   57.5511   33.1700   46.9142 H   0  0  0  0  0  0  0  0  0  0  0  0
   57.4872   33.3621   48.7294 H   0  0  0  0  0  0  0  0  0  0  0  0
   59.0636   35.9443   46.2330 H   0  0  0  0  0  0  0  0  0  0  0  0
   60.3421   34.6713   46.1778 H   0  0  0  0  0  0  0  0  0  0  0  0
   59.7490   32.3830   45.3950 H   0  0  0  0  0  0  0  0  0  0  0  0
   58.3020   32.9196   42.5098 H   0  0  0  0  0  0  0  0  0  0  0  0
   56.8815   31.4024   41.1327 H   0  0  0  0  0  0  0  0  0  0  0  0
   55.7620   29.4357   42.1874 H   0  0  0  0  0  0  0  0  0  0  0  0
   56.0804   28.9742   44.6181 H   0  0  0  0  0  0  0  0  0  0  0  0
   60.7631   35.3051   48.4889 H   0  0  0  0  0  0  0  0  0  0  0  0
   59.8250   34.2705   49.6572 H   0  0  0  0  0  0  0  0  0  0  0  0
   61.9117   33.5120   47.6833 H   0  0  0  0  0  0  0  0  0  0  0  0
   61.3668   32.7027   49.2141 H   0  0  0  0  0  0  0  0  0  0  0  0
   59.4004   28.5740   48.4230 H   0  0  0  0  0  0  0  0  0  0  0  0
   58.1452   26.7891   47.2225 H   0  0  0  0  0  0  0  0  0  0  0  0
  1  2  1  0
  2  3  1  0
  3  4  2  0
  4  5  1  0
  5  6  2  0
  6  7  1  0
  7  8  2  0
  7  9  2  0
  7 10  1  0
 10 11  1  0
 11 12  1  0
 12 13  1  0
 13 14  1  0
 14 15  1  0
 15 16  2  0
 15 17  1  0
 17 18  1  0
 18 19  2  0
 19 20  1  0
 20 21  2  0
 21 22  1  0
 22 23  2  0
 23 24  1  0
 13 25  1  0
 25 26  1  0
  6 27  1  0
 27 28  2  0
 28  3  1  0
 26 10  1  0
 23 18  1  0
  1 29  1  0
  1 30  1  0
  1 31  1  0
  4 32  1  0
  5 33  1  0
 11 34  1  0
 11 35  1  0
 12 36  1  0
 12 37  1  0
 14 38  1  0
 14 39  1  0
 17 40  1  0
 19 41  1  0
 20 42  1  0
 21 43  1  0
 22 44  1  0
 25 45  1  0
 25 46  1  0
 26 47  1  0
 26 48  1  0
 27 49  1  0
 28 50  1  0
M  END
>  <UniqueID>  (45) 
44

>  <SMILES>  (45) 
COc1ccc(S(=O)(=O)N2CCN(CC(=O)Nc3ccccc3F)CC2)cc1

>  <Energy>  (45) 
63.820776337043036

>  <Genealogy>  (45) 
COc1ccc(S(=O)(=O)N2CCN(CC(=O)Nc3ccccc3F)CC2)cc1 (3D coordinates assigned)
COc1ccc(S(=O)(=O)N2CCN(CC(=O)Nc3ccccc3F)CC2)cc1 (nonaromatic ring conformer: 63.820776337043036 kcal/mol)

>  <smiles>  (45) 
COc1ccc(S(=O)(=O)N2CCN(CC(=O)Nc3ccccc3F)CC2)cc1

>  <score_type>  (45) 
oracle

>  <origin>  (45) 
adg

>  <m_score__min__energy>  (45) 
-8.4700000000000006

>  <m_primary>  (45) 
energy

$$$$
45:0
     RDKit          3D

 36 38  0  0  0  0  0  0  0  0999 V2000
   59.3650   34.6921   45.2706 H   0  0  0  0  0  0  0  0  0  0  0  0
   58.8450   33.7350   45.1170 C   0  0  0  0  0  0  0  0  0  0  0  0
   58.4120   33.3760   43.8390 C   0  0  0  0  0  0  0  0  0  0  0  0
   58.5953   34.0525   42.9912 H   0  0  0  0  0  0  0  0  0  0  0  0
   57.7430   32.1560   43.6260 C   0  0  0  0  0  0  0  0  0  0  0  0
   57.2940   31.7680   42.3530 O   0  0  0  0  0  0  0  0  0  0  0  0
   57.7420   32.3420   41.1290 C   0  0  0  0  0  0  0  0  0  0  0  0
   58.4057   33.1924   41.3441 H   0  0  0  0  0  0  0  0  0  0  0  0
   58.2912   31.5859   40.5488 H   0  0  0  0  0  0  0  0  0  0  0  0
   56.8751   32.6911   40.5488 H   0  0  0  0  0  0  0  0  0  0  0  0
   57.5150   31.3000   44.7180 C   0  0  0  0  0  0  0  0  0  0  0  0
   56.6560   29.7730   44.4880 S   0  0  0  0  0  0  0  0  0  0  0  0
   57.0480   29.1300   43.1870 O   0  0  0  0  0  0  0  0  0  0  0  0
   55.1780   30.0440   44.4720 O   0  0  0  0  0  0  0  0  0  0  0  0
   57.0240   28.6840   45.7870 N   0  0  0  0  0  0  0  0  0  0  0  0
   56.7630   27.4140   45.7430 C   0  0  0  0  0  0  0  0  0  0  0  0
   57.7210   26.4480   45.7720 N   0  0  0  0  0  0  0  0  0  0  0  0
   56.9780   25.3310   45.7150 C   0  0  0  0  0  0  0  0  0  0  0  0
   57.4190   24.0090   45.7150 C   0  0  0  0  0  0  0  0  0  0  0  0
   58.4906   23.7656   45.7639 H   0  0  0  0  0  0  0  0  0  0  0  0
   56.4420   22.9950   45.6500 C   0  0  0  0  0  0  0  0  0  0  0  0
   56.7497   21.9389   45.6490 H   0  0  0  0  0  0  0  0  0  0  0  0
   55.0680   23.3270   45.5860 C   0  0  0  0  0  0  0  0  0  0  0  0
   54.3142   22.5276   45.5336 H   0  0  0  0  0  0  0  0  0  0  0  0
   54.6600   24.6750   45.5890 C   0  0  0  0  0  0  0  0  0  0  0  0
   53.5957   24.9490   45.5417 H   0  0  0  0  0  0  0  0  0  0  0  0
   55.6530   25.6470   45.6540 C   0  0  0  0  0  0  0  0  0  0  0  0
   55.5290   26.9470   45.6720 O   0  0  0  0  0  0  0  0  0  0  0  0
   57.9560   31.6650   45.9990 C   0  0  0  0  0  0  0  0  0  0  0  0
   57.7781   30.9891   46.8484 H   0  0  0  0  0  0  0  0  0  0  0  0
   58.6190   32.8780   46.2080 C   0  0  0  0  0  0  0  0  0  0  0  0
   59.0350   33.1940   47.5100 O   0  0  0  0  0  0  0  0  0  0  0  0
   59.6310   34.4300   47.8880 C   0  0  0  0  0  0  0  0  0  0  0  0
   59.6649   34.5003   48.9852 H   0  0  0  0  0  0  0  0  0  0  0  0
   60.6534   34.4824   47.4855 H   0  0  0  0  0  0  0  0  0  0  0  0
   59.0354   35.2626   47.4855 H   0  0  0  0  0  0  0  0  0  0  0  0
  1  2  1  0
  2  3  2  0
  3  4  1  0
  3  5  1  0
  5  6  1  0
  6  7  1  0
  7  8  1  0
  7  9  1  0
  7 10  1  0
  5 11  2  0
 11 12  1  0
 12 13  2  0
 12 14  2  0
 12 15  1  0
 15 16  2  0
 16 17  1  0
 17 18  1  0
 18 19  2  0
 19 20  1  0
 19 21  1  0
 21 22  1  0
 21 23  2  0
 23 24  1  0
 23 25  1  0
 25 26  1  0
 25 27  2  0
 27 28  1  0
 11 29  1  0
 29 30  1  0
 29 31  2  0
 31 32  1  0
 32 33  1  0
 33 34  1  0
 33 35  1  0
 33 36  1  0
 31  2  1  0
 28 16  1  0
 27 18  1  0
M  CHG  1  17  -1
M  END
>  <UniqueID>  (46) 
45

>  <SMILES>  (46) 
COc1ccc(OC)c(S(=O)(=O)/N=c2\[n-]c3ccccc3o2)c1

>  <Energy>  (46) 
77.90759223356653

>  <Genealogy>  (46) 
COc1ccc(OC)c(S(=O)(=O)N=c2[n-]c3ccccc3o2)c1 (protonated)
COc1ccc(OC)c(S(=O)(=O)/N=c2\[n-]c3ccccc3o2)c1 (cis-trans isomerization)
COc1ccc(OC)c(S(=O)(=O)/N=c2\[n-]c3ccccc3o2)c1 (3D coordinates assigned)
COc1ccc(OC)c(S(=O)(=O)/N=c2\[n-]c3ccccc3o2)c1 (optimized conformer: 77.90759223356653 kcal/mol)

>  <smiles>  (46) 
COc1ccc(OC)c(S(=O)(=O)N=c2[nH]c3ccccc3o2)c1

>  <score_type>  (46) 
oracle

>  <origin>  (46) 
adg

>  <m_score__min__energy>  (46) 
-8.6699999999999999

>  <m_primary>  (46) 
energy

$$$$
46:0
     RDKit          3D

 40 41  0  0  0  0  0  0  0  0999 V2000
   55.9050   30.1660   44.1000 C   0  0  0  0  0  0  0  0  0  0  0  0
   56.9760   30.8150   44.8740 N   0  0  0  0  0  0  0  0  0  0  0  0
   58.1150   29.8870   45.0830 C   0  0  0  0  0  0  0  0  0  0  0  0
   57.6460   28.6750   45.8920 C   0  0  0  0  0  0  0  0  0  0  0  0
   58.7940   28.0820   46.7120 C   0  0  0  0  0  0  0  0  0  0  0  0
   58.7670   28.7000   48.4310 S   0  0  0  0  0  0  0  0  0  0  0  0
   59.9410   30.0310   48.1510 C   0  0  0  0  0  0  0  0  0  0  0  0
   60.0510   31.0760   49.0770 C   0  0  0  0  0  0  0  0  0  0  0  0
   60.9860   32.0960   48.8750 C   0  0  0  0  0  0  0  0  0  0  0  0
   61.8090   32.0780   47.7450 C   0  0  0  0  0  0  0  0  0  0  0  0
   63.0810   33.4750   47.4640 Br  0  0  0  0  0  0  0  0  0  0  0  0
   61.7030   31.0330   46.8210 C   0  0  0  0  0  0  0  0  0  0  0  0
   60.7750   30.0070   47.0270 C   0  0  0  0  0  0  0  0  0  0  0  0
   57.3930   32.0670   44.2070 C   0  0  0  0  0  0  0  0  0  0  0  0
   58.0600   32.9990   45.1850 C   0  0  0  0  0  0  0  0  0  0  0  0
   57.8150   32.8860   46.5650 C   0  0  0  0  0  0  0  0  0  0  0  0
   58.4320   33.7620   47.4620 C   0  0  0  0  0  0  0  0  0  0  0  0
   59.2950   34.7540   46.9910 C   0  0  0  0  0  0  0  0  0  0  0  0
   59.5280   34.8850   45.6200 C   0  0  0  0  0  0  0  0  0  0  0  0
   58.9110   34.0130   44.7180 C   0  0  0  0  0  0  0  0  0  0  0  0
   55.1719   29.7218   44.7894 H   0  0  0  0  0  0  0  0  0  0  0  0
   55.4059   30.9138   43.4661 H   0  0  0  0  0  0  0  0  0  0  0  0
   56.3369   29.3775   43.4661 H   0  0  0  0  0  0  0  0  0  0  0  0
   58.4974   29.5509   44.1079 H   0  0  0  0  0  0  0  0  0  0  0  0
   58.9143   30.4064   45.6320 H   0  0  0  0  0  0  0  0  0  0  0  0
   56.8416   28.9878   46.5740 H   0  0  0  0  0  0  0  0  0  0  0  0
   57.2834   27.9073   45.1926 H   0  0  0  0  0  0  0  0  0  0  0  0
   58.6981   26.9862   46.7232 H   0  0  0  0  0  0  0  0  0  0  0  0
   59.7449   28.3837   46.2485 H   0  0  0  0  0  0  0  0  0  0  0  0
   59.4011   31.0944   49.9643 H   0  0  0  0  0  0  0  0  0  0  0  0
   61.0740   32.9133   49.6059 H   0  0  0  0  0  0  0  0  0  0  0  0
   62.3501   31.0182   45.9316 H   0  0  0  0  0  0  0  0  0  0  0  0
   60.7005   29.1804   46.3050 H   0  0  0  0  0  0  0  0  0  0  0  0
   58.0995   31.8268   43.3988 H   0  0  0  0  0  0  0  0  0  0  0  0
   56.4997   32.5637   43.8004 H   0  0  0  0  0  0  0  0  0  0  0  0
   57.1358   32.1059   46.9395 H   0  0  0  0  0  0  0  0  0  0  0  0
   58.2377   33.6701   48.5408 H   0  0  0  0  0  0  0  0  0  0  0  0
   59.7915   35.4326   47.7002 H   0  0  0  0  0  0  0  0  0  0  0  0
   60.1977   35.6751   45.2496 H   0  0  0  0  0  0  0  0  0  0  0  0
   59.0930   34.1219   43.6386 H   0  0  0  0  0  0  0  0  0  0  0  0
  1  2  1  0
  2  3  1  0
  3  4  1  0
  4  5  1  0
  5  6  1  0
  6  7  1  0
  7  8  2  0
  8  9  1  0
  9 10  2  0
 10 11  1  0
 10 12  1  0
 12 13  2  0
  2 14  1  0
 14 15  1  0
 15 16  2  0
 16 17  1  0
 17 18  2  0
 18 19  1  0
 19 20  2  0
 13  7  1  0
 20 15  1  0
  1 21  1  0
  1 22  1  0
  1 23  1  0
  3 24  1  0
  3 25  1  0
  4 26  1  0
  4 27  1  0
  5 28  1  0
  5 29  1  0
  8 30  1  0
  9 31  1  0
 12 32  1  0
 13 33  1  0
 14 34  1  0
 14 35  1  0
 16 36  1  0
 17 37  1  0
 18 38  1  0
 19 39  1  0
 20 40  1  0
M  END
>  <UniqueID>  (47) 
46

>  <SMILES>  (47) 
CN(CCCSc1ccc(Br)cc1)Cc1ccccc1

>  <Energy>  (47) 
30.70447561560396

>  <Genealogy>  (47) 
CN(CCCSc1ccc(Br)cc1)Cc1ccccc1 (3D coordinates assigned)
CN(CCCSc1ccc(Br)cc1)Cc1ccccc1 (optimized conformer: 30.70447561560396 kcal/mol)

>  <smiles>  (47) 
CN(CCCSc1ccc(Br)cc1)Cc1ccccc1

>  <score_type>  (47) 
oracle

>  <origin>  (47) 
adg

>  <m_score__min__energy>  (47) 
-7.2300000000000004

>  <m_primary>  (47) 
energy

$$$$
47:0
     RDKit          3D

 34 36  0  0  0  0  0  0  0  0999 V2000
   59.6790   28.2640   48.4540 F   0  0  0  0  0  0  0  0  0  0  0  0
   59.8060   27.1030   47.7120 C   0  0  0  0  0  0  0  0  0  0  0  0
   61.1490   26.7910   47.5960 F   0  0  0  0  0  0  0  0  0  0  0  0
   59.1550   26.0730   48.3660 F   0  0  0  0  0  0  0  0  0  0  0  0
   59.2010   27.2890   46.3560 C   0  0  0  0  0  0  0  0  0  0  0  0
   59.8560   28.0150   45.4110 N   0  0  0  0  0  0  0  0  0  0  0  0
   59.3090   28.2340   44.1890 C   0  0  0  0  0  0  0  0  0  0  0  0
   58.0400   27.7190   43.8850 C   0  0  0  0  0  0  0  0  0  0  0  0
   57.4200   27.9700   42.6060 N   0  0  0  0  0  0  0  0  0  0  0  0
   56.4390   29.0640   42.6900 C   0  0  0  0  0  0  0  0  0  0  0  0
   56.9720   30.2370   43.4780 C   0  0  0  0  0  0  0  0  0  0  0  0
   57.6370   31.2890   42.8390 C   0  0  0  0  0  0  0  0  0  0  0  0
   58.1450   32.3160   43.5690 N   0  0  0  0  0  0  0  0  0  0  0  0
   58.0260   32.3430   44.9240 C   0  0  0  0  0  0  0  0  0  0  0  0
   58.5870   33.4680   45.6960 C   0  0  0  0  0  0  0  0  0  0  0  0
   59.2080   34.5810   45.1010 C   0  0  0  0  0  0  0  0  0  0  0  0
   59.6630   35.5200   46.0170 C   0  0  0  0  0  0  0  0  0  0  0  0
   59.2940   34.9670   47.5590 S   0  0  0  0  0  0  0  0  0  0  0  0
   58.5550   33.5340   47.0870 C   0  0  0  0  0  0  0  0  0  0  0  0
   57.3880   31.3240   45.5620 N   0  0  0  0  0  0  0  0  0  0  0  0
   56.8650   30.2790   44.8730 C   0  0  0  0  0  0  0  0  0  0  0  0
   57.3720   26.9950   44.8820 C   0  0  0  0  0  0  0  0  0  0  0  0
   57.9600   26.8000   46.0900 N   0  0  0  0  0  0  0  0  0  0  0  0
   59.8609   28.8158   43.4360 H   0  0  0  0  0  0  0  0  0  0  0  0
   58.1460   28.1940   41.8840 H   0  0  0  0  0  0  0  0  0  0  0  0
   56.9270   27.1030   42.2910 H   0  0  0  0  0  0  0  0  0  0  0  0
   56.1937   29.4010   41.6720 H   0  0  0  0  0  0  0  0  0  0  0  0
   55.5458   28.6829   43.2067 H   0  0  0  0  0  0  0  0  0  0  0  0
   57.7486   31.2846   41.7447 H   0  0  0  0  0  0  0  0  0  0  0  0
   59.3223   34.6965   44.0131 H   0  0  0  0  0  0  0  0  0  0  0  0
   60.1760   36.4624   45.7747 H   0  0  0  0  0  0  0  0  0  0  0  0
   58.1213   32.7792   47.7594 H   0  0  0  0  0  0  0  0  0  0  0  0
   56.3569   29.4648   45.4105 H   0  0  0  0  0  0  0  0  0  0  0  0
   56.3706   26.5845   44.6855 H   0  0  0  0  0  0  0  0  0  0  0  0
  1  2  1  0
  2  3  1  0
  2  4  1  0
  2  5  1  0
  5  6  2  0
  6  7  1  0
  7  8  2  0
  8  9  1  0
  9 10  1  0
 10 11  1  0
 11 12  2  0
 12 13  1  0
 13 14  2  0
 14 15  1  0
 15 16  1  0
 16 17  2  0
 17 18  1  0
 18 19  1  0
 14 20  1  0
 20 21  2  0
  8 22  1  0
 22 23  2  0
 23  5  1  0
 21 11  1  0
 19 15  2  0
  7 24  1  0
  9 25  1  0
  9 26  1  0
 10 27  1  0
 10 28  1  0
 12 29  1  0
 16 30  1  0
 17 31  1  0
 19 32  1  0
 21 33  1  0
 22 34  1  0
M  CHG  1   9   1
M  END
>  <UniqueID>  (48) 
47

>  <SMILES>  (48) 
FC(F)(F)c1ncc([NH2+]Cc2cnc(-c3ccsc3)nc2)cn1

>  <Energy>  (48) 
63.5186134519477

>  <Genealogy>  (48) 
FC(F)(F)c1ncc([NH2+]Cc2cnc(-c3ccsc3)nc2)cn1 (protonated)
FC(F)(F)c1ncc([NH2+]Cc2cnc(-c3ccsc3)nc2)cn1 (3D coordinates assigned)
FC(F)(F)c1ncc([NH2+]Cc2cnc(-c3ccsc3)nc2)cn1 (optimized conformer: 63.5186134519477 kcal/mol)

>  <smiles>  (48) 
FC(F)(F)c1ncc(NCc2cnc(-c3ccsc3)nc2)cn1

>  <score_type>  (48) 
oracle

>  <origin>  (48) 
adg

>  <m_score__min__energy>  (48) 
-5.1299999999999999

>  <m_primary>  (48) 
energy

$$$$
