0:0
     RDKit          3D

 26 28  0  0  0  0  0  0  0  0999 V2000
   59.1290   34.5870   46.5540 C   0  0  0  0  0  0  0  0  0  0  0  0
   59.0190   34.0330   45.2470 O   0  0  0  0  0  0  0  0  0  0  0  0
   58.4900   32.7630   44.9700 C   0  0  0  0  0  0  0  0  0  0  0  0
   57.9490   32.5310   43.6830 C   0  0  0  0  0  0  0  0  0  0  0  0
   57.4030   31.2800   43.3440 C   0  0  0  0  0  0  0  0  0  0  0  0
   57.4140   30.2830   44.3140 C   0  0  0  0  0  0  0  0  0  0  0  0
   56.9570   28.9830   44.2680 C   0  0  0  0  0  0  0  0  0  0  0  0
   57.2350   28.4610   45.5300 C   0  0  0  0  0  0  0  0  0  0  0  0
   56.9310   27.0930   45.9750 C   0  0  0  0  0  0  0  0  0  0  0  0
   57.8780   26.1750   46.2730 N   0  0  0  0  0  0  0  0  0  0  0  0
   57.1130   25.1190   46.6160 C   0  0  0  0  0  0  0  0  0  0  0  0
   57.5830   24.0090   46.9760 O   0  0  0  0  0  0  0  0  0  0  0  0
   55.8320   25.3750   46.5330 O   0  0  0  0  0  0  0  0  0  0  0  0
   55.6870   26.6000   46.1350 N   0  0  0  0  0  0  0  0  0  0  0  0
   57.8310   29.3880   46.3170 N   0  0  0  0  0  0  0  0  0  0  0  0
   57.9350   30.4940   45.5620 C   0  0  0  0  0  0  0  0  0  0  0  0
   58.4820   31.7220   45.9300 C   0  0  0  0  0  0  0  0  0  0  0  0
   58.9719   33.7959   47.3020 H   0  0  0  0  0  0  0  0  0  0  0  0
   60.1310   35.0216   46.6849 H   0  0  0  0  0  0  0  0  0  0  0  0
   58.3691   35.3715   46.6849 H   0  0  0  0  0  0  0  0  0  0  0  0
   57.9556   33.3400   42.9377 H   0  0  0  0  0  0  0  0  0  0  0  0
   56.9812   31.0960   42.3449 H   0  0  0  0  0  0  0  0  0  0  0  0
   56.4780   28.4702   43.4209 H   0  0  0  0  0  0  0  0  0  0  0  0
   54.7740   27.0810   45.9790 H   0  0  0  0  0  0  0  0  0  0  0  0
   58.1470   29.2710   47.3060 H   0  0  0  0  0  0  0  0  0  0  0  0
   58.8956   31.8781   46.9373 H   0  0  0  0  0  0  0  0  0  0  0  0
  1  2  1  0
  2  3  1  0
  3  4  2  0
  4  5  1  0
  5  6  2  0
  6  7  1  0
  7  8  2  0
  8  9  1  0
  9 10  2  0
 10 11  1  0
 11 12  2  0
 11 13  1  0
 13 14  1  0
  8 15  1  0
 15 16  1  0
 16 17  2  0
 17  3  1  0
 16  6  1  0
 14  9  1  0
  1 18  1  0
  1 19  1  0
  1 20  1  0
  4 21  1  0
  5 22  1  0
  7 23  1  0
 14 24  1  0
 15 25  1  0
 17 26  1  0
M  END
>  <UniqueID>  (1) 
1

>  <SMILES>  (1) 
COc1ccc2cc(-c3nc(=O)o[nH]3)[nH]c2c1

>  <Energy>  (1) 
94.78686912261516

>  <Genealogy>  (1) 
COc1ccc2cc(-c3nc(=O)o[nH]3)[nH]c2c1 (3D coordinates assigned)
COc1ccc2cc(-c3nc(=O)o[nH]3)[nH]c2c1 (optimized conformer: 94.78686912261516 kcal/mol)

>  <smiles>  (1) 
COc1ccc2cc(-c3nc(=O)o[nH]3)[nH]c2c1

>  <score_type>  (1) 
oracle

>  <origin>  (1) 
adg

>  <m_score__min__energy>  (1) 
-6.4199999999999999

>  <m_primary>  (1) 
energy

$$$$
1:0
     RDKit          3D

 36 38  0  0  0  0  0  0  0  0999 V2000
   63.3280   33.8220   46.7290 C   0  0  0  0  0  0  0  0  0  0  0  0
   62.7700   32.6860   47.5340 C   0  0  0  0  0  0  0  0  0  0  0  0
   63.2500   32.4330   48.8250 C   0  0  0  0  0  0  0  0  0  0  0  0
   62.7020   31.3870   49.5680 C   0  0  0  0  0  0  0  0  0  0  0  0
   61.6970   30.6360   49.0480 N   0  0  0  0  0  0  0  0  0  0  0  0
   61.1830   30.8670   47.8060 C   0  0  0  0  0  0  0  0  0  0  0  0
   60.1170   30.0270   47.3120 N   0  0  0  0  0  0  0  0  0  0  0  0
   59.1670   29.3960   48.2520 C   0  0  0  0  0  0  0  0  0  0  0  0
   58.6960   28.0310   47.7420 C   0  0  0  0  0  0  0  0  0  0  0  0
   58.2970   28.1440   46.3460 N   0  0  0  0  0  0  0  0  0  0  0  0
   57.4630   27.3680   45.6250 C   0  0  0  0  0  0  0  0  0  0  0  0
   56.6300   26.2480   46.1690 C   0  0  0  0  0  0  0  0  0  0  0  0
   55.2140   26.5640   46.0200 N   0  0  0  0  0  0  0  0  0  0  0  0
   57.4770   27.8150   44.3160 C   0  0  0  0  0  0  0  0  0  0  0  0
   58.3440   28.8450   44.2260 N   0  0  0  0  0  0  0  0  0  0  0  0
   58.8280   29.0130   45.4720 C   0  0  0  0  0  0  0  0  0  0  0  0
   59.8790   30.0090   45.8550 C   0  0  0  0  0  0  0  0  0  0  0  0
   61.7230   31.9050   47.0260 C   0  0  0  0  0  0  0  0  0  0  0  0
   63.7098   34.5993   47.4073 H   0  0  0  0  0  0  0  0  0  0  0  0
   64.1479   33.4539   46.0947 H   0  0  0  0  0  0  0  0  0  0  0  0
   62.5356   34.2459   46.0947 H   0  0  0  0  0  0  0  0  0  0  0  0
   64.0525   33.0539   49.2498 H   0  0  0  0  0  0  0  0  0  0  0  0
   63.0845   31.1703   50.5763 H   0  0  0  0  0  0  0  0  0  0  0  0
   59.6624   29.2625   49.2250 H   0  0  0  0  0  0  0  0  0  0  0  0
   58.2884   30.0511   48.3465 H   0  0  0  0  0  0  0  0  0  0  0  0
   59.5164   27.3037   47.8309 H   0  0  0  0  0  0  0  0  0  0  0  0
   57.8382   27.6923   48.3416 H   0  0  0  0  0  0  0  0  0  0  0  0
   56.8572   25.3236   45.6178 H   0  0  0  0  0  0  0  0  0  0  0  0
   56.8599   26.1112   47.2360 H   0  0  0  0  0  0  0  0  0  0  0  0
   54.8100   26.7160   46.9740 H   0  0  0  0  0  0  0  0  0  0  0  0
   55.1440   27.4790   45.5180 H   0  0  0  0  0  0  0  0  0  0  0  0
   56.8821   27.4009   43.4886 H   0  0  0  0  0  0  0  0  0  0  0  0
   58.5960   29.3830   43.3670 H   0  0  0  0  0  0  0  0  0  0  0  0
   60.8181   29.7488   45.3447 H   0  0  0  0  0  0  0  0  0  0  0  0
   59.5275   31.0072   45.5551 H   0  0  0  0  0  0  0  0  0  0  0  0
   61.3248   32.1034   46.0200 H   0  0  0  0  0  0  0  0  0  0  0  0
  1  2  1  0
  2  3  2  0
  3  4  1  0
  4  5  2  0
  5  6  1  0
  6  7  1  0
  7  8  1  0
  8  9  1  0
  9 10  1  0
 10 11  1  0
 11 12  1  0
 12 13  1  0
 11 14  2  0
 14 15  1  0
 15 16  2  0
 16 17  1  0
  6 18  2  0
 18  2  1  0
 17  7  1  0
 16 10  1  0
  1 19  1  0
  1 20  1  0
  1 21  1  0
  3 22  1  0
  4 23  1  0
  8 24  1  0
  8 25  1  0
  9 26  1  0
  9 27  1  0
 12 28  1  0
 12 29  1  0
 13 30  1  0
 13 31  1  0
 14 32  1  0
 15 33  1  0
 17 34  1  0
 17 35  1  0
 18 36  1  0
M  CHG  1  15   1
M  END
>  <UniqueID>  (2) 
2

>  <SMILES>  (2) 
Cc1ccnc(N2CCn3c(CN)c[nH+]c3C2)c1

>  <Energy>  (2) 
69.94862672822866

>  <Genealogy>  (2) 
Cc1ccnc(N2CCn3c(CN)c[nH+]c3C2)c1 (protonated)
Cc1ccnc(N2CCn3c(CN)c[nH+]c3C2)c1 (3D coordinates assigned)
Cc1ccnc(N2CCn3c(CN)c[nH+]c3C2)c1 (nonaromatic ring conformer: 69.94862672822866 kcal/mol)

>  <smiles>  (2) 
Cc1ccnc(N2CCn3c(CN)cnc3C2)c1

>  <score_type>  (2) 
oracle

>  <origin>  (2) 
adg

>  <m_score__min__energy>  (2) 
-4.9500000000000002

>  <m_primary>  (2) 
energy

$$$$
2:0
     RDKit          3D

 38 40  0  0  0  0  0  0  0  0999 V2000
   55.1500   29.6090   45.2410 O   0  0  0  0  0  0  0  0  0  0  0  0
   56.3500   29.5630   44.8620 C   0  0  0  0  0  0  0  0  0  0  0  0
   56.9380   30.7370   44.2870 N   0  0  0  0  0  0  0  0  0  0  0  0
   57.4930   31.8390   45.0190 C   0  0  0  0  0  0  0  0  0  0  0  0
   57.4440   33.1550   44.5240 C   0  0  0  0  0  0  0  0  0  0  0  0
   58.0080   34.2040   45.2570 C   0  0  0  0  0  0  0  0  0  0  0  0
   58.6370   33.9450   46.4790 C   0  0  0  0  0  0  0  0  0  0  0  0
   58.7070   32.6370   46.9650 C   0  0  0  0  0  0  0  0  0  0  0  0
   58.1430   31.5860   46.2340 C   0  0  0  0  0  0  0  0  0  0  0  0
   57.0810   28.3270   44.9550 N   0  0  0  0  0  0  0  0  0  0  0  0
   56.8950   27.4470   46.1140 C   0  0  0  0  0  0  0  0  0  0  0  0
   56.5430   26.0360   45.6400 C   0  0  0  0  0  0  0  0  0  0  0  0
   57.4760   25.5620   44.6010 N   0  0  0  0  0  0  0  0  0  0  0  0
   57.5150   24.1610   44.2430 C   0  0  0  0  0  0  0  0  0  0  0  0
   56.6040   23.6120   43.3200 C   0  0  0  0  0  0  0  0  0  0  0  0
   56.6750   22.2530   43.0050 C   0  0  0  0  0  0  0  0  0  0  0  0
   57.6460   21.4490   43.6020 C   0  0  0  0  0  0  0  0  0  0  0  0
   58.5370   22.0200   44.5120 C   0  0  0  0  0  0  0  0  0  0  0  0
   58.4530   23.3450   44.8070 N   0  0  0  0  0  0  0  0  0  0  0  0
   58.4900   26.4810   44.0580 C   0  0  0  0  0  0  0  0  0  0  0  0
   57.8890   27.8720   43.8130 C   0  0  0  0  0  0  0  0  0  0  0  0
   56.9605   33.3595   43.5573 H   0  0  0  0  0  0  0  0  0  0  0  0
   57.9569   35.2333   44.8723 H   0  0  0  0  0  0  0  0  0  0  0  0
   59.0765   34.7710   47.0574 H   0  0  0  0  0  0  0  0  0  0  0  0
   59.2063   32.4333   47.9238 H   0  0  0  0  0  0  0  0  0  0  0  0
   58.2102   30.5563   46.6149 H   0  0  0  0  0  0  0  0  0  0  0  0
   57.8248   27.4141   46.7008 H   0  0  0  0  0  0  0  0  0  0  0  0
   56.0771   27.8357   46.7384 H   0  0  0  0  0  0  0  0  0  0  0  0
   56.5870   25.3499   46.4987 H   0  0  0  0  0  0  0  0  0  0  0  0
   55.5318   26.0613   45.2077 H   0  0  0  0  0  0  0  0  0  0  0  0
   55.8409   24.2497   42.8498 H   0  0  0  0  0  0  0  0  0  0  0  0
   55.9654   21.8170   42.2864 H   0  0  0  0  0  0  0  0  0  0  0  0
   57.7087   20.3781   43.3586 H   0  0  0  0  0  0  0  0  0  0  0  0
   59.3076   21.3980   44.9909 H   0  0  0  0  0  0  0  0  0  0  0  0
   59.3194   26.5677   44.7754 H   0  0  0  0  0  0  0  0  0  0  0  0
   58.8528   26.0798   43.1002 H   0  0  0  0  0  0  0  0  0  0  0  0
   58.7066   28.5889   43.6472 H   0  0  0  0  0  0  0  0  0  0  0  0
   57.2324   27.8105   42.9326 H   0  0  0  0  0  0  0  0  0  0  0  0
  1  2  2  0
  2  3  1  0
  3  4  1  0
  4  5  2  0
  5  6  1  0
  6  7  2  0
  7  8  1  0
  8  9  2  0
  2 10  1  0
 10 11  1  0
 11 12  1  0
 12 13  1  0
 13 14  1  0
 14 15  2  0
 15 16  1  0
 16 17  2  0
 17 18  1  0
 18 19  2  0
 13 20  1  0
 20 21  1  0
  9  4  1  0
 21 10  1  0
 19 14  1  0
  5 22  1  0
  6 23  1  0
  7 24  1  0
  8 25  1  0
  9 26  1  0
 11 27  1  0
 11 28  1  0
 12 29  1  0
 12 30  1  0
 15 31  1  0
 16 32  1  0
 17 33  1  0
 18 34  1  0
 20 35  1  0
 20 36  1  0
 21 37  1  0
 21 38  1  0
M  CHG  1   3  -1
M  END
>  <UniqueID>  (3) 
3

>  <SMILES>  (3) 
O=C([N-]c1ccccc1)N1CCN(c2ccccn2)CC1

>  <Energy>  (3) 
48.78278578540724

>  <Genealogy>  (3) 
O=C([N-]c1ccccc1)N1CCN(c2ccccn2)CC1 (protonated)
O=C([N-]c1ccccc1)N1CCN(c2ccccn2)CC1 (3D coordinates assigned)
O=C([N-]c1ccccc1)N1CCN(c2ccccn2)CC1 (nonaromatic ring conformer: 48.78278578540724 kcal/mol)

>  <smiles>  (3) 
O=C(Nc1ccccc1)N1CCN(c2ccccn2)CC1

>  <score_type>  (3) 
oracle

>  <origin>  (3) 
adg

>  <m_score__min__energy>  (3) 
-8.7100000000000009

>  <m_primary>  (3) 
energy

$$$$
3:0
     RDKit          3D

 42 44  0  0  0  0  0  0  0  0999 V2000
   58.1020   26.5720   45.2990 C   0  0  0  0  0  0  0  0  0  0  0  0
   57.1390   27.7140   45.3910 C   0  0  0  0  0  0  0  0  0  0  0  0
   55.9270   27.4620   45.6280 O   0  0  0  0  0  0  0  0  0  0  0  0
   57.5670   29.1180   45.1960 C   0  0  0  0  0  0  0  0  0  0  0  0
   58.3470   29.8580   46.0750 C   0  0  0  0  0  0  0  0  0  0  0  0
   58.9210   29.3760   47.3710 C   0  0  0  0  0  0  0  0  0  0  0  0
   58.5140   31.1100   45.6110 N   0  0  0  0  0  0  0  0  0  0  0  0
   57.8500   31.1960   44.4420 C   0  0  0  0  0  0  0  0  0  0  0  0
   57.7720   32.4420   43.6550 C   0  0  0  0  0  0  0  0  0  0  0  0
   58.2850   32.4800   42.5030 O   0  0  0  0  0  0  0  0  0  0  0  0
   57.1590   33.5800   44.1920 O   0  0  0  0  0  0  0  0  0  0  0  0
   57.8690   34.5900   44.9060 C   0  0  0  0  0  0  0  0  0  0  0  0
   58.6350   33.9820   46.0330 C   0  0  0  0  0  0  0  0  0  0  0  0
   58.0710   33.4860   47.1500 N   0  0  0  0  0  0  0  0  0  0  0  0
   59.0690   33.0710   47.9150 N   0  0  0  0  0  0  0  0  0  0  0  0
   60.2040   33.3350   47.2370 C   0  0  0  0  0  0  0  0  0  0  0  0
   61.5620   33.0360   47.7300 C   0  0  0  0  0  0  0  0  0  0  0  0
   61.7530   32.0650   48.7280 C   0  0  0  0  0  0  0  0  0  0  0  0
   63.0390   31.7780   49.1980 C   0  0  0  0  0  0  0  0  0  0  0  0
   64.1420   32.4570   48.6760 C   0  0  0  0  0  0  0  0  0  0  0  0
   63.9630   33.4240   47.6830 C   0  0  0  0  0  0  0  0  0  0  0  0
   62.6800   33.7140   47.2110 C   0  0  0  0  0  0  0  0  0  0  0  0
   59.9430   33.8970   46.0800 O   0  0  0  0  0  0  0  0  0  0  0  0
   57.2670   29.9700   44.1340 C   0  0  0  0  0  0  0  0  0  0  0  0
   56.5150   29.6270   42.8810 C   0  0  0  0  0  0  0  0  0  0  0  0
   58.3790   26.2435   46.3116 H   0  0  0  0  0  0  0  0  0  0  0  0
   57.6308   25.7376   44.7589 H   0  0  0  0  0  0  0  0  0  0  0  0
   59.0040   26.8956   44.7589 H   0  0  0  0  0  0  0  0  0  0  0  0
   58.3741   29.8353   48.2076 H   0  0  0  0  0  0  0  0  0  0  0  0
   58.8278   28.2815   47.4288 H   0  0  0  0  0  0  0  0  0  0  0  0
   59.9829   29.6571   47.4288 H   0  0  0  0  0  0  0  0  0  0  0  0
   59.0440   31.8770   46.0830 H   0  0  0  0  0  0  0  0  0  0  0  0
   58.5674   35.0952   44.2227 H   0  0  0  0  0  0  0  0  0  0  0  0
   57.1493   35.3163   45.3116 H   0  0  0  0  0  0  0  0  0  0  0  0
   60.8868   31.5279   49.1417 H   0  0  0  0  0  0  0  0  0  0  0  0
   63.1815   31.0169   49.9793 H   0  0  0  0  0  0  0  0  0  0  0  0
   65.1526   32.2305   49.0467 H   0  0  0  0  0  0  0  0  0  0  0  0
   64.8330   33.9575   47.2725 H   0  0  0  0  0  0  0  0  0  0  0  0
   62.5436   34.4762   46.4297 H   0  0  0  0  0  0  0  0  0  0  0  0
   55.5437   29.1840   43.1460 H   0  0  0  0  0  0  0  0  0  0  0  0
   56.3524   30.5400   42.2894 H   0  0  0  0  0  0  0  0  0  0  0  0
   57.0978   28.9057   42.2894 H   0  0  0  0  0  0  0  0  0  0  0  0
  1  2  1  0
  2  3  2  0
  2  4  1  0
  4  5  2  0
  5  6  1  0
  5  7  1  0
  7  8  1  0
  8  9  1  0
  9 10  2  0
  9 11  1  0
 11 12  1  0
 12 13  1  0
 13 14  2  0
 14 15  1  0
 15 16  2  0
 16 17  1  0
 17 18  2  0
 18 19  1  0
 19 20  2  0
 20 21  1  0
 21 22  2  0
 16 23  1  0
  8 24  2  0
 24 25  1  0
 24  4  1  0
 23 13  1  0
 22 17  1  0
  1 26  1  0
  1 27  1  0
  1 28  1  0
  6 29  1  0
  6 30  1  0
  6 31  1  0
  7 32  1  0
 12 33  1  0
 12 34  1  0
 18 35  1  0
 19 36  1  0
 20 37  1  0
 21 38  1  0
 22 39  1  0
 25 40  1  0
 25 41  1  0
 25 42  1  0
M  END
>  <UniqueID>  (4) 
4

>  <SMILES>  (4) 
CC(=O)c1c(C)[nH]c(C(=O)OCc2nnc(-c3ccccc3)o2)c1C

>  <Energy>  (4) 
103.30007362781902

>  <Genealogy>  (4) 
CC(=O)c1c(C)[nH]c(C(=O)OCc2nnc(-c3ccccc3)o2)c1C (3D coordinates assigned)
CC(=O)c1c(C)[nH]c(C(=O)OCc2nnc(-c3ccccc3)o2)c1C (optimized conformer: 103.30007362781902 kcal/mol)

>  <smiles>  (4) 
CC(=O)c1c(C)[nH]c(C(=O)OCc2nnc(-c3ccccc3)o2)c1C

>  <score_type>  (4) 
oracle

>  <origin>  (4) 
adg

>  <m_score__min__energy>  (4) 
-9.0700000000000003

>  <m_primary>  (4) 
energy

$$$$
4:0
     RDKit          3D

 42 44  0  0  0  0  0  0  0  0999 V2000
   60.2590   28.3090   49.3900 C   0  0  0  0  0  0  0  0  0  0  0  0
   59.8040   28.1310   47.9790 C   0  0  0  0  0  0  0  0  0  0  0  0
   60.4640   27.3910   47.1990 O   0  0  0  0  0  0  0  0  0  0  0  0
   58.6070   28.7750   47.5270 N   0  0  0  0  0  0  0  0  0  0  0  0
   58.1380   28.6410   46.1480 C   0  0  0  0  0  0  0  0  0  0  0  0
   57.6360   29.9570   45.6370 C   0  0  0  0  0  0  0  0  0  0  0  0
   56.4810   30.1080   44.9610 N   0  0  0  0  0  0  0  0  0  0  0  0
   56.3090   31.3870   44.7810 O   0  0  0  0  0  0  0  0  0  0  0  0
   57.2860   32.0800   45.3190 C   0  0  0  0  0  0  0  0  0  0  0  0
   58.1870   31.2010   45.8770 C   0  0  0  0  0  0  0  0  0  0  0  0
   59.4300   31.5500   46.6310 C   0  0  0  0  0  0  0  0  0  0  0  0
   60.0530   32.8660   46.1350 C   0  0  0  0  0  0  0  0  0  0  0  0
   59.4450   34.1090   46.6840 N   0  0  0  0  0  0  0  0  0  0  0  0
   60.0280   34.5610   47.9640 C   0  0  0  0  0  0  0  0  0  0  0  0
   61.3180   33.8390   48.2300 C   0  0  0  0  0  0  0  0  0  0  0  0
   61.4260   32.9170   49.2810 C   0  0  0  0  0  0  0  0  0  0  0  0
   62.6350   32.2490   49.4840 C   0  0  0  0  0  0  0  0  0  0  0  0
   63.7190   32.5030   48.6430 C   0  0  0  0  0  0  0  0  0  0  0  0
   63.5760   33.4250   47.6040 C   0  0  0  0  0  0  0  0  0  0  0  0
   62.3900   34.0650   47.4200 N   0  0  0  0  0  0  0  0  0  0  0  0
   57.9670   34.1990   46.6100 C   0  0  0  0  0  0  0  0  0  0  0  0
   57.3390   33.5800   45.3350 C   0  0  0  0  0  0  0  0  0  0  0  0
   59.4581   27.9957   50.0758 H   0  0  0  0  0  0  0  0  0  0  0  0
   61.1543   27.6948   49.5668 H   0  0  0  0  0  0  0  0  0  0  0  0
   60.4998   29.3676   49.5668 H   0  0  0  0  0  0  0  0  0  0  0  0
   58.0680   29.3560   48.2100 H   0  0  0  0  0  0  0  0  0  0  0  0
   58.9694   28.2993   45.5140 H   0  0  0  0  0  0  0  0  0  0  0  0
   57.3162   27.9103   46.1199 H   0  0  0  0  0  0  0  0  0  0  0  0
   59.1813   31.6543   47.6974 H   0  0  0  0  0  0  0  0  0  0  0  0
   60.1625   30.7451   46.4708 H   0  0  0  0  0  0  0  0  0  0  0  0
   61.1186   32.8607   46.4079 H   0  0  0  0  0  0  0  0  0  0  0  0
   59.8737   32.8954   45.0501 H   0  0  0  0  0  0  0  0  0  0  0  0
   60.2208   35.6428   47.9136 H   0  0  0  0  0  0  0  0  0  0  0  0
   59.3204   34.3432   48.7775 H   0  0  0  0  0  0  0  0  0  0  0  0
   60.5665   32.7219   49.9391 H   0  0  0  0  0  0  0  0  0  0  0  0
   62.7328   31.5239   50.3053 H   0  0  0  0  0  0  0  0  0  0  0  0
   64.6759   31.9826   48.7968 H   0  0  0  0  0  0  0  0  0  0  0  0
   64.4230   33.6338   46.9340 H   0  0  0  0  0  0  0  0  0  0  0  0
   57.5487   33.6787   47.4842 H   0  0  0  0  0  0  0  0  0  0  0  0
   57.7239   35.2715   46.5845 H   0  0  0  0  0  0  0  0  0  0  0  0
   56.3105   33.9589   45.2425 H   0  0  0  0  0  0  0  0  0  0  0  0
   57.9892   33.8739   44.4978 H   0  0  0  0  0  0  0  0  0  0  0  0
  1  2  1  0
  2  3  2  0
  2  4  1  0
  4  5  1  0
  5  6  1  0
  6  7  2  0
  7  8  1  0
  8  9  1  0
  9 10  2  0
 10 11  1  0
 11 12  1  0
 12 13  1  0
 13 14  1  0
 14 15  1  0
 15 16  2  0
 16 17  1  0
 17 18  2  0
 18 19  1  0
 19 20  2  0
 13 21  1  0
 21 22  1  0
 10  6  1  0
 20 15  1  0
 22  9  1  0
  1 23  1  0
  1 24  1  0
  1 25  1  0
  4 26  1  0
  5 27  1  0
  5 28  1  0
 11 29  1  0
 11 30  1  0
 12 31  1  0
 12 32  1  0
 14 33  1  0
 14 34  1  0
 16 35  1  0
 17 36  1  0
 18 37  1  0
 19 38  1  0
 21 39  1  0
 21 40  1  0
 22 41  1  0
 22 42  1  0
M  END
>  <UniqueID>  (5) 
5

>  <SMILES>  (5) 
CC(=O)NCc1noc2c1CCN(Cc1ccccn1)CC2

>  <Energy>  (5) 
82.0364587021148

>  <Genealogy>  (5) 
CC(=O)NCc1noc2c1CCN(Cc1ccccn1)CC2 (3D coordinates assigned)
CC(=O)NCc1noc2c1CCN(Cc1ccccn1)CC2 (nonaromatic ring conformer: 82.0364587021148 kcal/mol)

>  <smiles>  (5) 
CC(=O)NCc1noc2c1CCN(Cc1ccccn1)CC2

>  <score_type>  (5) 
oracle

>  <origin>  (5) 
adg

>  <m_score__min__energy>  (5) 
-6.7000000000000002

>  <m_primary>  (5) 
energy

$$$$
5:0
     RDKit          3D

 57 58  0  0  0  0  0  0  0  0999 V2000
   60.8340   33.4300   50.7550 C   0  0  0  0  0  0  0  0  0  0  0  0
   59.3250   33.5240   50.5870 C   0  0  0  0  0  0  0  0  0  0  0  0
   58.7990   32.7270   49.3750 C   0  0  0  0  0  0  0  0  0  0  0  0
   59.3800   33.1550   48.0870 N   0  0  0  0  0  0  0  0  0  0  0  0
   59.2630   34.5370   47.5830 C   0  0  0  0  0  0  0  0  0  0  0  0
   59.3230   34.6880   46.0470 C   0  0  0  0  0  0  0  0  0  0  0  0
   58.0700   34.2080   45.3200 C   0  0  0  0  0  0  0  0  0  0  0  0
   60.1690   32.2090   47.3360 C   0  0  0  0  0  0  0  0  0  0  0  0
   61.5510   32.0000   47.4330 C   0  0  0  0  0  0  0  0  0  0  0  0
   62.5870   32.8680   48.0860 C   0  0  0  0  0  0  0  0  0  0  0  0
   63.3870   33.6680   47.0620 C   0  0  0  0  0  0  0  0  0  0  0  0
   61.8680   30.8620   46.7740 N   0  0  0  0  0  0  0  0  0  0  0  0
   60.6990   30.3990   46.2980 C   0  0  0  0  0  0  0  0  0  0  0  0
   60.5160   29.2240   45.5740 C   0  0  0  0  0  0  0  0  0  0  0  0
   59.2100   28.8850   45.2020 C   0  0  0  0  0  0  0  0  0  0  0  0
   58.1260   29.7190   45.5540 C   0  0  0  0  0  0  0  0  0  0  0  0
   56.7360   29.3600   45.2100 C   0  0  0  0  0  0  0  0  0  0  0  0
   55.9550   30.2640   44.8220 O   0  0  0  0  0  0  0  0  0  0  0  0
   56.2230   28.0300   45.3810 N   0  0  0  0  0  0  0  0  0  0  0  0
   56.8200   26.9790   46.2020 C   0  0  0  0  0  0  0  0  0  0  0  0
   55.8820   25.8280   46.3730 C   0  0  0  0  0  0  0  0  0  0  0  0
   56.2690   24.7880   46.9650 O   0  0  0  0  0  0  0  0  0  0  0  0
   54.5880   25.9110   45.8560 O   0  0  0  0  0  0  0  0  0  0  0  0
   53.8710   24.7760   45.3800 C   0  0  0  0  0  0  0  0  0  0  0  0
   54.8100   23.8730   44.5880 C   0  0  0  0  0  0  0  0  0  0  0  0
   58.3860   30.9190   46.2400 C   0  0  0  0  0  0  0  0  0  0  0  0
   59.6600   31.1910   46.6130 N   0  0  0  0  0  0  0  0  0  0  0  0
   61.0834   33.4145   51.8262 H   0  0  0  0  0  0  0  0  0  0  0  0
   61.1990   32.5074   50.2801 H   0  0  0  0  0  0  0  0  0  0  0  0
   61.3107   34.3002   50.2801 H   0  0  0  0  0  0  0  0  0  0  0  0
   58.8466   33.1331   51.4971 H   0  0  0  0  0  0  0  0  0  0  0  0
   59.0800   34.5824   50.4143 H   0  0  0  0  0  0  0  0  0  0  0  0
   59.0379   31.6642   49.5279 H   0  0  0  0  0  0  0  0  0  0  0  0
   57.7158   32.9089   49.3157 H   0  0  0  0  0  0  0  0  0  0  0  0
   58.3005   34.9435   47.9269 H   0  0  0  0  0  0  0  0  0  0  0  0
   60.1364   35.0784   47.9757 H   0  0  0  0  0  0  0  0  0  0  0  0
   59.4722   35.7520   45.8109 H   0  0  0  0  0  0  0  0  0  0  0  0
   60.1516   34.0532   45.6999 H   0  0  0  0  0  0  0  0  0  0  0  0
   57.3076   33.9159   46.0572 H   0  0  0  0  0  0  0  0  0  0  0  0
   57.6783   35.0198   44.6894 H   0  0  0  0  0  0  0  0  0  0  0  0
   58.3209   33.3423   44.6894 H   0  0  0  0  0  0  0  0  0  0  0  0
   62.0847   33.5678   48.7701 H   0  0  0  0  0  0  0  0  0  0  0  0
   63.2856   32.2147   48.6293 H   0  0  0  0  0  0  0  0  0  0  0  0
   64.0713   34.3523   47.5849 H   0  0  0  0  0  0  0  0  0  0  0  0
   63.9683   32.9791   46.4315 H   0  0  0  0  0  0  0  0  0  0  0  0
   62.6981   34.2493   46.4315 H   0  0  0  0  0  0  0  0  0  0  0  0
   62.8140   30.4340   46.6610 H   0  0  0  0  0  0  0  0  0  0  0  0
   61.3687   28.5839   45.3036 H   0  0  0  0  0  0  0  0  0  0  0  0
   59.0266   27.9626   44.6315 H   0  0  0  0  0  0  0  0  0  0  0  0
   57.7400   26.6228   45.7155 H   0  0  0  0  0  0  0  0  0  0  0  0
   57.0429   27.3970   47.1948 H   0  0  0  0  0  0  0  0  0  0  0  0
   53.4603   24.2178   46.2342 H   0  0  0  0  0  0  0  0  0  0  0  0
   53.0496   25.1096   44.7289 H   0  0  0  0  0  0  0  0  0  0  0  0
   55.4242   23.2824   45.2837 H   0  0  0  0  0  0  0  0  0  0  0  0
   54.2191   23.1952   43.9544 H   0  0  0  0  0  0  0  0  0  0  0  0
   55.4642   24.4899   43.9544 H   0  0  0  0  0  0  0  0  0  0  0  0
   57.5718   31.6223   46.4690 H   0  0  0  0  0  0  0  0  0  0  0  0
  1  2  1  0
  2  3  1  0
  3  4  1  0
  4  5  1  0
  5  6  1  0
  6  7  1  0
  4  8  1  0
  8  9  2  0
  9 10  1  0
 10 11  1  0
  9 12  1  0
 12 13  2  0
 13 14  1  0
 14 15  2  0
 15 16  1  0
 16 17  1  0
 17 18  2  0
 17 19  1  0
 19 20  1  0
 20 21  1  0
 21 22  2  0
 21 23  1  0
 23 24  1  0
 24 25  1  0
 16 26  2  0
 26 27  1  0
 27  8  1  0
 27 13  1  0
  1 28  1  0
  1 29  1  0
  1 30  1  0
  2 31  1  0
  2 32  1  0
  3 33  1  0
  3 34  1  0
  5 35  1  0
  5 36  1  0
  6 37  1  0
  6 38  1  0
  7 39  1  0
  7 40  1  0
  7 41  1  0
 10 42  1  0
 10 43  1  0
 11 44  1  0
 11 45  1  0
 11 46  1  0
 12 47  1  0
 14 48  1  0
 15 49  1  0
 20 50  1  0
 20 51  1  0
 24 52  1  0
 24 53  1  0
 25 54  1  0
 25 55  1  0
 25 56  1  0
 26 57  1  0
M  CHG  2  12   1  19  -1
M  END
>  <UniqueID>  (6) 
6

>  <SMILES>  (6) 
CCCN(CCC)c1c(CC)[nH+]c2ccc(C(=O)[N-]CC(=O)OCC)cn12

>  <Energy>  (6) 
85.60012418233887

>  <Genealogy>  (6) 
CCCN(CCC)c1c(CC)[nH+]c2ccc(C(=O)[N-]CC(=O)OCC)cn12 (protonated)
CCCN(CCC)c1c(CC)[nH+]c2ccc(C(=O)[N-]CC(=O)OCC)cn12 (3D coordinates assigned)
CCCN(CCC)c1c(CC)[nH+]c2ccc(C(=O)[N-]CC(=O)OCC)cn12 (optimized conformer: 85.60012418233887 kcal/mol)

>  <smiles>  (6) 
CCCN(CCC)c1c(CC)nc2ccc(C(=O)NCC(=O)OCC)cn12

>  <score_type>  (6) 
oracle

>  <origin>  (6) 
adg

>  <m_score__min__energy>  (6) 
-8.7400000000000002

>  <m_primary>  (6) 
energy

$$$$
6:0
     RDKit          3D

 41 44  0  0  0  0  0  0  0  0999 V2000
   61.5910   33.8680   49.0210 C   0  0  0  0  0  0  0  0  0  0  0  0
   60.8250   32.8580   48.2190 C   0  0  0  0  0  0  0  0  0  0  0  0
   59.4440   33.0080   48.0270 C   0  0  0  0  0  0  0  0  0  0  0  0
   58.7360   32.0880   47.2490 C   0  0  0  0  0  0  0  0  0  0  0  0
   59.4010   31.0070   46.6500 C   0  0  0  0  0  0  0  0  0  0  0  0
   58.6530   30.0470   45.8070 C   0  0  0  0  0  0  0  0  0  0  0  0
   58.5490   28.7210   46.2450 C   0  0  0  0  0  0  0  0  0  0  0  0
   57.8190   27.7820   45.5010 C   0  0  0  0  0  0  0  0  0  0  0  0
   57.7110   26.3780   45.9690 C   0  0  0  0  0  0  0  0  0  0  0  0
   56.6140   25.9740   46.7530 C   0  0  0  0  0  0  0  0  0  0  0  0
   56.5100   24.6520   47.1970 C   0  0  0  0  0  0  0  0  0  0  0  0
   57.4970   23.7200   46.8630 C   0  0  0  0  0  0  0  0  0  0  0  0
   57.3900   22.4070   47.3050 O   0  0  0  0  0  0  0  0  0  0  0  0
   58.5890   24.1100   46.0860 C   0  0  0  0  0  0  0  0  0  0  0  0
   58.6980   25.4310   45.6400 C   0  0  0  0  0  0  0  0  0  0  0  0
   57.2110   28.1690   44.3420 N   0  0  0  0  0  0  0  0  0  0  0  0
   57.2990   29.4470   43.8720 C   0  0  0  0  0  0  0  0  0  0  0  0
   56.6670   29.7980   42.6670 C   0  0  0  0  0  0  0  0  0  0  0  0
   56.7710   31.0960   42.1680 C   0  0  0  0  0  0  0  0  0  0  0  0
   57.5100   32.0560   42.8590 C   0  0  0  0  0  0  0  0  0  0  0  0
   58.1430   31.7260   44.0610 C   0  0  0  0  0  0  0  0  0  0  0  0
   58.0330   30.4240   44.5930 C   0  0  0  0  0  0  0  0  0  0  0  0
   60.7890   30.8750   46.8170 C   0  0  0  0  0  0  0  0  0  0  0  0
   61.4960   31.7960   47.5940 C   0  0  0  0  0  0  0  0  0  0  0  0
   61.4432   33.6731   50.0935 H   0  0  0  0  0  0  0  0  0  0  0  0
   62.6614   33.7931   48.7788 H   0  0  0  0  0  0  0  0  0  0  0  0
   61.2302   34.8785   48.7788 H   0  0  0  0  0  0  0  0  0  0  0  0
   58.9155   33.8538   48.4910 H   0  0  0  0  0  0  0  0  0  0  0  0
   57.6524   32.2117   47.1054 H   0  0  0  0  0  0  0  0  0  0  0  0
   59.0429   28.4136   47.1786 H   0  0  0  0  0  0  0  0  0  0  0  0
   55.8337   26.7026   47.0181 H   0  0  0  0  0  0  0  0  0  0  0  0
   55.6500   24.3449   47.8102 H   0  0  0  0  0  0  0  0  0  0  0  0
   59.3657   23.3765   45.8238 H   0  0  0  0  0  0  0  0  0  0  0  0
   59.5611   25.7316   45.0279 H   0  0  0  0  0  0  0  0  0  0  0  0
   56.6470   27.4710   43.8060 H   0  0  0  0  0  0  0  0  0  0  0  0
   56.0869   29.0445   42.1141 H   0  0  0  0  0  0  0  0  0  0  0  0
   56.2687   31.3635   41.2266 H   0  0  0  0  0  0  0  0  0  0  0  0
   57.5951   33.0763   42.4568 H   0  0  0  0  0  0  0  0  0  0  0  0
   58.7308   32.4867   44.5956 H   0  0  0  0  0  0  0  0  0  0  0  0
   61.3220   30.0428   46.3339 H   0  0  0  0  0  0  0  0  0  0  0  0
   62.5838   31.6881   47.7164 H   0  0  0  0  0  0  0  0  0  0  0  0
  1  2  1  0
  2  3  2  0
  3  4  1  0
  4  5  2  0
  5  6  1  0
  6  7  2  0
  7  8  1  0
  8  9  1  0
  9 10  2  0
 10 11  1  0
 11 12  2  0
 12 13  1  0
 12 14  1  0
 14 15  2  0
  8 16  2  0
 16 17  1  0
 17 18  2  0
 18 19  1  0
 19 20  2  0
 20 21  1  0
 21 22  2  0
  5 23  1  0
 23 24  2  0
 24  2  1  0
 22  6  1  0
 15  9  1  0
 22 17  1  0
  1 25  1  0
  1 26  1  0
  1 27  1  0
  3 28  1  0
  4 29  1  0
  7 30  1  0
 10 31  1  0
 11 32  1  0
 14 33  1  0
 15 34  1  0
 16 35  1  0
 18 36  1  0
 19 37  1  0
 20 38  1  0
 21 39  1  0
 23 40  1  0
 24 41  1  0
M  CHG  2  13  -1  16   1
M  END
>  <UniqueID>  (7) 
7

>  <SMILES>  (7) 
Cc1ccc(-c2cc(-c3ccc([O-])cc3)[nH+]c3ccccc23)cc1

>  <Energy>  (7) 
61.97078048288722

>  <Genealogy>  (7) 
Cc1ccc(-c2cc(-c3ccc([O-])cc3)[nH+]c3ccccc23)cc1 (protonated)
Cc1ccc(-c2cc(-c3ccc([O-])cc3)[nH+]c3ccccc23)cc1 (3D coordinates assigned)
Cc1ccc(-c2cc(-c3ccc([O-])cc3)[nH+]c3ccccc23)cc1 (optimized conformer: 61.97078048288722 kcal/mol)

>  <smiles>  (7) 
Cc1ccc(-c2cc(-c3ccc(O)cc3)nc3ccccc23)cc1

>  <score_type>  (7) 
oracle

>  <origin>  (7) 
adg

>  <m_score__min__energy>  (7) 
-8.9800000000000004

>  <m_primary>  (7) 
energy

$$$$
7:0
     RDKit          3D

 42 44  0  0  0  0  0  0  0  0999 V2000
   56.7250   30.4420   43.3050 C   0  0  0  0  0  0  0  0  0  0  0  0
   56.4820   31.1090   44.5390 O   0  0  0  0  0  0  0  0  0  0  0  0
   57.3350   32.0720   45.1000 C   0  0  0  0  0  0  0  0  0  0  0  0
   57.4070   33.3920   44.6130 C   0  0  0  0  0  0  0  0  0  0  0  0
   58.2740   34.3140   45.2070 C   0  0  0  0  0  0  0  0  0  0  0  0
   59.0750   33.9380   46.2960 C   0  0  0  0  0  0  0  0  0  0  0  0
   60.0380   34.9180   46.9110 C   0  0  0  0  0  0  0  0  0  0  0  0
   60.9690   34.2180   47.8120 N   0  0  0  0  0  0  0  0  0  0  0  0
   60.6200   34.0410   49.1190 C   0  0  0  0  0  0  0  0  0  0  0  0
   61.4660   33.3480   49.9850 C   0  0  0  0  0  0  0  0  0  0  0  0
   62.6510   32.8430   49.5330 N   0  0  0  0  0  0  0  0  0  0  0  0
   63.5050   32.0830   50.4600 C   0  0  0  0  0  0  0  0  0  0  0  0
   64.8230   32.7850   50.6490 C   0  0  0  0  0  0  0  0  0  0  0  0
   64.8940   33.9590   51.4160 C   0  0  0  0  0  0  0  0  0  0  0  0
   66.1220   34.5940   51.6250 C   0  0  0  0  0  0  0  0  0  0  0  0
   67.2900   34.0570   51.0740 C   0  0  0  0  0  0  0  0  0  0  0  0
   68.8310   34.8520   51.3390 Cl  0  0  0  0  0  0  0  0  0  0  0  0
   67.2290   32.8830   50.3150 C   0  0  0  0  0  0  0  0  0  0  0  0
   66.0010   32.2470   50.1050 C   0  0  0  0  0  0  0  0  0  0  0  0
   63.0020   33.0050   48.2180 C   0  0  0  0  0  0  0  0  0  0  0  0
   64.0870   32.5300   47.7800 O   0  0  0  0  0  0  0  0  0  0  0  0
   62.1510   33.7010   47.3460 C   0  0  0  0  0  0  0  0  0  0  0  0
   62.4810   33.8430   46.1360 O   0  0  0  0  0  0  0  0  0  0  0  0
   59.0060   32.6200   46.7750 C   0  0  0  0  0  0  0  0  0  0  0  0
   58.1400   31.6980   46.1810 C   0  0  0  0  0  0  0  0  0  0  0  0
   57.0953   29.4256   43.5043 H   0  0  0  0  0  0  0  0  0  0  0  0
   55.7898   30.3851   42.7286 H   0  0  0  0  0  0  0  0  0  0  0  0
   57.4776   31.0000   42.7286 H   0  0  0  0  0  0  0  0  0  0  0  0
   56.7794   33.6981   43.7631 H   0  0  0  0  0  0  0  0  0  0  0  0
   58.3286   35.3414   44.8179 H   0  0  0  0  0  0  0  0  0  0  0  0
   60.6091   35.4156   46.1134 H   0  0  0  0  0  0  0  0  0  0  0  0
   59.4718   35.6637   47.4883 H   0  0  0  0  0  0  0  0  0  0  0  0
   59.6676   34.4464   49.4914 H   0  0  0  0  0  0  0  0  0  0  0  0
   61.1769   33.2078   51.0370 H   0  0  0  0  0  0  0  0  0  0  0  0
   62.9976   31.9954   51.4321 H   0  0  0  0  0  0  0  0  0  0  0  0
   63.6886   31.0831   50.0399 H   0  0  0  0  0  0  0  0  0  0  0  0
   63.9782   34.3816   51.8550 H   0  0  0  0  0  0  0  0  0  0  0  0
   66.1695   35.5161   52.2229 H   0  0  0  0  0  0  0  0  0  0  0  0
   68.1478   32.4598   49.8830 H   0  0  0  0  0  0  0  0  0  0  0  0
   65.9576   31.3219   49.5115 H   0  0  0  0  0  0  0  0  0  0  0  0
   59.6366   32.3117   47.6219 H   0  0  0  0  0  0  0  0  0  0  0  0
   58.0910   30.6691   46.5669 H   0  0  0  0  0  0  0  0  0  0  0  0
  1  2  1  0
  2  3  1  0
  3  4  2  0
  4  5  1  0
  5  6  2  0
  6  7  1  0
  7  8  1  0
  8  9  1  0
  9 10  2  0
 10 11  1  0
 11 12  1  0
 12 13  1  0
 13 14  2  0
 14 15  1  0
 15 16  2  0
 16 17  1  0
 16 18  1  0
 18 19  2  0
 11 20  1  0
 20 21  2  0
 20 22  1  0
 22 23  2  0
  6 24  1  0
 24 25  2  0
 25  3  1  0
 22  8  1  0
 19 13  1  0
  1 26  1  0
  1 27  1  0
  1 28  1  0
  4 29  1  0
  5 30  1  0
  7 31  1  0
  7 32  1  0
  9 33  1  0
 10 34  1  0
 12 35  1  0
 12 36  1  0
 14 37  1  0
 15 38  1  0
 18 39  1  0
 19 40  1  0
 24 41  1  0
 25 42  1  0
M  END
>  <UniqueID>  (8) 
8

>  <SMILES>  (8) 
COc1ccc(Cn2ccn(Cc3ccc(Cl)cc3)c(=O)c2=O)cc1

>  <Energy>  (8) 
47.388098655809024

>  <Genealogy>  (8) 
COc1ccc(Cn2ccn(Cc3ccc(Cl)cc3)c(=O)c2=O)cc1 (3D coordinates assigned)
COc1ccc(Cn2ccn(Cc3ccc(Cl)cc3)c(=O)c2=O)cc1 (optimized conformer: 47.388098655809024 kcal/mol)

>  <smiles>  (8) 
COc1ccc(Cn2ccn(Cc3ccc(Cl)cc3)c(=O)c2=O)cc1

>  <score_type>  (8) 
oracle

>  <origin>  (8) 
adg

>  <m_score__min__energy>  (8) 
-8.4199999999999999

>  <m_primary>  (8) 
energy

$$$$
8:0
     RDKit          3D

 46 49  0  0  0  0  0  0  0  0999 V2000
   59.9475   27.6595   49.6969 H   0  0  0  0  0  0  0  0  0  0  0  0
   59.9200   27.6200   48.5980 C   0  0  0  0  0  0  0  0  0  0  0  0
   59.0920   28.4470   47.9080 N   0  0  0  0  0  0  0  0  0  0  0  0
   59.0590   28.4290   46.5480 C   0  0  0  0  0  0  0  0  0  0  0  0
   58.1100   29.2870   45.8170 C   0  0  0  0  0  0  0  0  0  0  0  0
   56.8500   28.8170   45.3290 C   0  0  0  0  0  0  0  0  0  0  0  0
   56.4850   27.5620   45.2550 N   0  0  0  0  0  0  0  0  0  0  0  0
   56.7210   26.4050   46.1200 C   0  0  0  0  0  0  0  0  0  0  0  0
   57.2229   26.7394   47.0399 H   0  0  0  0  0  0  0  0  0  0  0  0
   55.7526   25.9406   46.3579 H   0  0  0  0  0  0  0  0  0  0  0  0
   57.6040   25.3650   45.4150 C   0  0  0  0  0  0  0  0  0  0  0  0
   57.7660   25.6827   44.3744 H   0  0  0  0  0  0  0  0  0  0  0  0
   58.5560   25.2989   45.9620 H   0  0  0  0  0  0  0  0  0  0  0  0
   56.9810   24.0220   45.4140 N   0  0  0  0  0  0  0  0  0  0  0  0
   55.6390   24.0440   44.7800 C   0  0  0  0  0  0  0  0  0  0  0  0
   54.9625   23.3955   45.3560 H   0  0  0  0  0  0  0  0  0  0  0  0
   55.2806   25.0840   44.7745 H   0  0  0  0  0  0  0  0  0  0  0  0
   55.6860   23.5470   43.3250 C   0  0  0  0  0  0  0  0  0  0  0  0
   54.6674   23.5869   42.9116 H   0  0  0  0  0  0  0  0  0  0  0  0
   56.3850   24.2022   42.7845 H   0  0  0  0  0  0  0  0  0  0  0  0
   56.1740   22.2170   43.1890 O   0  0  0  0  0  0  0  0  0  0  0  0
   57.0660   21.8290   44.2240 C   0  0  0  0  0  0  0  0  0  0  0  0
   56.4808   21.3684   45.0336 H   0  0  0  0  0  0  0  0  0  0  0  0
   57.7897   21.1284   43.7819 H   0  0  0  0  0  0  0  0  0  0  0  0
   57.8710   23.0010   44.8110 C   0  0  0  0  0  0  0  0  0  0  0  0
   58.5500   22.6159   45.5860 H   0  0  0  0  0  0  0  0  0  0  0  0
   58.4371   23.4744   43.9952 H   0  0  0  0  0  0  0  0  0  0  0  0
   55.9550   29.7290   44.8660 N   0  0  0  0  0  0  0  0  0  0  0  0
   56.2150   31.0310   44.8020 N   0  0  0  0  0  0  0  0  0  0  0  0
   57.4020   31.5360   45.2020 C   0  0  0  0  0  0  0  0  0  0  0  0
   57.6280   32.8730   45.1120 N   0  0  0  0  0  0  0  0  0  0  0  0
   58.7970   33.4360   45.5190 C   0  0  0  0  0  0  0  0  0  0  0  0
   58.9890   34.9150   45.4120 C   0  0  0  0  0  0  0  0  0  0  0  0
   59.0456   35.3513   46.4202 H   0  0  0  0  0  0  0  0  0  0  0  0
   59.9220   35.1253   44.8685 H   0  0  0  0  0  0  0  0  0  0  0  0
   58.1406   35.3565   44.8685 H   0  0  0  0  0  0  0  0  0  0  0  0
   59.7990   32.6290   46.0660 C   0  0  0  0  0  0  0  0  0  0  0  0
   60.7433   33.0761   46.4100 H   0  0  0  0  0  0  0  0  0  0  0  0
   59.5940   31.2530   46.1730 C   0  0  0  0  0  0  0  0  0  0  0  0
   60.3786   30.6146   46.6053 H   0  0  0  0  0  0  0  0  0  0  0  0
   58.3840   30.6760   45.7290 C   0  0  0  0  0  0  0  0  0  0  0  0
   59.8280   27.5380   45.8650 N   0  0  0  0  0  0  0  0  0  0  0  0
   60.6670   26.6930   46.5180 C   0  0  0  0  0  0  0  0  0  0  0  0
   61.2916   25.9881   45.9497 H   0  0  0  0  0  0  0  0  0  0  0  0
   60.7350   26.7210   47.9110 C   0  0  0  0  0  0  0  0  0  0  0  0
   61.4157   26.0495   48.4549 H   0  0  0  0  0  0  0  0  0  0  0  0
  1  2  1  0
  2  3  2  0
  3  4  1  0
  4  5  1  0
  5  6  1  0
  6  7  2  0
  7  8  1  0
  8  9  1  0
  8 10  1  0
  8 11  1  0
 11 12  1  0
 11 13  1  0
 11 14  1  0
 14 15  1  0
 15 16  1  0
 15 17  1  0
 15 18  1  0
 18 19  1  0
 18 20  1  0
 18 21  1  0
 21 22  1  0
 22 23  1  0
 22 24  1  0
 22 25  1  0
 25 26  1  0
 25 27  1  0
  6 28  1  0
 28 29  1  0
 29 30  2  0
 30 31  1  0
 31 32  2  0
 32 33  1  0
 33 34  1  0
 33 35  1  0
 33 36  1  0
 32 37  1  0
 37 38  1  0
 37 39  2  0
 39 40  1  0
 39 41  1  0
  4 42  2  0
 42 43  1  0
 43 44  1  0
 43 45  2  0
 45 46  1  0
 45  2  1  0
 41  5  2  0
 25 14  1  0
 41 30  1  0
M  CHG  1  28  -1
M  END
>  <UniqueID>  (9) 
9

>  <SMILES>  (9) 
Cc1ccc2c(-c3ncccn3)/c(=N\CCN3CCOCC3)[n-]nc2n1

>  <Energy>  (9) 
87.64332450193398

>  <Genealogy>  (9) 
Cc1ccc2c(-c3ncccn3)c(=NCCN3CCOCC3)[n-]nc2n1 (protonated)
Cc1ccc2c(-c3ncccn3)/c(=N\CCN3CCOCC3)[n-]nc2n1 (cis-trans isomerization)
Cc1ccc2c(-c3ncccn3)/c(=N\CCN3CCOCC3)[n-]nc2n1 (3D coordinates assigned)
Cc1ccc2c(-c3ncccn3)/c(=N\CCN3CCOCC3)[n-]nc2n1 (nonaromatic ring conformer: 87.64332450193398 kcal/mol)

>  <smiles>  (9) 
Cc1ccc2c(-c3ncccn3)c(=NCCN3CCOCC3)[nH]nc2n1

>  <score_type>  (9) 
oracle

>  <origin>  (9) 
adg

>  <m_score__min__energy>  (9) 
-10.02

>  <m_primary>  (9) 
energy

$$$$
9:0
     RDKit          3D

 40 42  0  0  0  0  0  0  0  0999 V2000
   56.4180   25.2300   47.0750 O   0  0  0  0  0  0  0  0  0  0  0  0
   56.0700   26.2320   46.3950 C   0  0  0  0  0  0  0  0  0  0  0  0
   54.7450   26.3440   45.9910 O   0  0  0  0  0  0  0  0  0  0  0  0
   57.0550   27.2750   46.0330 C   0  0  0  0  0  0  0  0  0  0  0  0
   58.3780   27.1930   46.4990 C   0  0  0  0  0  0  0  0  0  0  0  0
   59.3100   28.1760   46.1590 C   0  0  0  0  0  0  0  0  0  0  0  0
   58.9330   29.2550   45.3560 C   0  0  0  0  0  0  0  0  0  0  0  0
   57.6170   29.3550   44.8880 C   0  0  0  0  0  0  0  0  0  0  0  0
   57.1320   30.7550   43.9360 S   0  0  0  0  0  0  0  0  0  0  0  0
   56.8400   30.3100   42.5300 O   0  0  0  0  0  0  0  0  0  0  0  0
   55.8950   31.3830   44.5130 O   0  0  0  0  0  0  0  0  0  0  0  0
   58.4030   31.9390   43.9110 N   0  0  0  0  0  0  0  0  0  0  0  0
   58.6700   32.8340   45.0060 C   0  0  0  0  0  0  0  0  0  0  0  0
   59.1760   34.1160   44.7410 C   0  0  0  0  0  0  0  0  0  0  0  0
   59.4470   35.0000   45.7890 C   0  0  0  0  0  0  0  0  0  0  0  0
   59.2210   34.6100   47.1110 C   0  0  0  0  0  0  0  0  0  0  0  0
   58.7220   33.3370   47.3980 C   0  0  0  0  0  0  0  0  0  0  0  0
   58.5470   32.9660   48.7410 O   0  0  0  0  0  0  0  0  0  0  0  0
   58.9490   31.7450   49.3040 C   0  0  0  0  0  0  0  0  0  0  0  0
   58.3620   31.3290   50.5060 C   0  0  0  0  0  0  0  0  0  0  0  0
   58.7450   30.1210   51.0990 C   0  0  0  0  0  0  0  0  0  0  0  0
   59.7060   29.3140   50.4850 C   0  0  0  0  0  0  0  0  0  0  0  0
   60.2790   29.7090   49.2730 C   0  0  0  0  0  0  0  0  0  0  0  0
   59.8970   30.9150   48.6770 C   0  0  0  0  0  0  0  0  0  0  0  0
   58.4600   32.4470   46.3400 C   0  0  0  0  0  0  0  0  0  0  0  0
   56.6820   28.3630   45.2220 C   0  0  0  0  0  0  0  0  0  0  0  0
   58.6817   26.3490   47.1358 H   0  0  0  0  0  0  0  0  0  0  0  0
   60.3446   28.1003   46.5249 H   0  0  0  0  0  0  0  0  0  0  0  0
   59.6706   30.0269   45.0910 H   0  0  0  0  0  0  0  0  0  0  0  0
   58.8900   32.0940   43.0000 H   0  0  0  0  0  0  0  0  0  0  0  0
   59.3604   34.4269   43.7021 H   0  0  0  0  0  0  0  0  0  0  0  0
   59.8390   36.0047   45.5723 H   0  0  0  0  0  0  0  0  0  0  0  0
   59.4373   35.3098   47.9316 H   0  0  0  0  0  0  0  0  0  0  0  0
   57.5958   31.9554   50.9862 H   0  0  0  0  0  0  0  0  0  0  0  0
   58.2891   29.8064   52.0494 H   0  0  0  0  0  0  0  0  0  0  0  0
   60.0116   28.3678   50.9554 H   0  0  0  0  0  0  0  0  0  0  0  0
   61.0315   29.0704   48.7872 H   0  0  0  0  0  0  0  0  0  0  0  0
   60.3387   31.2157   47.7155 H   0  0  0  0  0  0  0  0  0  0  0  0
   58.0863   31.4361   46.5602 H   0  0  0  0  0  0  0  0  0  0  0  0
   55.6504   28.4364   44.8473 H   0  0  0  0  0  0  0  0  0  0  0  0
  1  2  2  0
  2  3  1  0
  2  4  1  0
  4  5  2  0
  5  6  1  0
  6  7  2  0
  7  8  1  0
  8  9  1  0
  9 10  2  0
  9 11  2  0
  9 12  1  0
 12 13  1  0
 13 14  2  0
 14 15  1  0
 15 16  2  0
 16 17  1  0
 17 18  1  0
 18 19  1  0
 19 20  2  0
 20 21  1  0
 21 22  2  0
 22 23  1  0
 23 24  2  0
 17 25  2  0
  8 26  2  0
 26  4  1  0
 25 13  1  0
 24 19  1  0
  5 27  1  0
  6 28  1  0
  7 29  1  0
 12 30  1  0
 14 31  1  0
 15 32  1  0
 16 33  1  0
 20 34  1  0
 21 35  1  0
 22 36  1  0
 23 37  1  0
 24 38  1  0
 25 39  1  0
 26 40  1  0
M  CHG  1   3  -1
M  END
>  <UniqueID>  (10) 
10

>  <SMILES>  (10) 
O=C([O-])c1cccc(S(=O)(=O)Nc2cccc(Oc3ccccc3)c2)c1

>  <Energy>  (10) 
50.282911203444385

>  <Genealogy>  (10) 
O=C([O-])c1cccc(S(=O)(=O)Nc2cccc(Oc3ccccc3)c2)c1 (protonated)
O=C([O-])c1cccc(S(=O)(=O)Nc2cccc(Oc3ccccc3)c2)c1 (3D coordinates assigned)
O=C([O-])c1cccc(S(=O)(=O)Nc2cccc(Oc3ccccc3)c2)c1 (optimized conformer: 50.282911203444385 kcal/mol)

>  <smiles>  (10) 
O=C(O)c1cccc(S(=O)(=O)Nc2cccc(Oc3ccccc3)c2)c1

>  <score_type>  (10) 
oracle

>  <origin>  (10) 
adg

>  <m_score__min__energy>  (10) 
-12.69

>  <m_primary>  (10) 
energy

$$$$
10:0
     RDKit          3D

 32 33  0  0  0  0  0  0  0  0999 V2000
   59.2560   33.4860   51.2580 C   0  0  0  0  0  0  0  0  0  0  0  0
   60.2340   33.5370   50.1220 C   0  0  0  0  0  0  0  0  0  0  0  0
   61.5190   33.0040   50.2740 C   0  0  0  0  0  0  0  0  0  0  0  0
   62.4350   33.0740   49.2160 C   0  0  0  0  0  0  0  0  0  0  0  0
   63.8130   32.4900   49.3850 C   0  0  0  0  0  0  0  0  0  0  0  0
   62.0450   33.6880   48.0080 C   0  0  0  0  0  0  0  0  0  0  0  0
   62.9630   33.7660   46.8920 C   0  0  0  0  0  0  0  0  0  0  0  0
   63.6970   33.8290   46.0010 N   0  0  0  0  0  0  0  0  0  0  0  0
   60.7470   34.2200   47.8980 C   0  0  0  0  0  0  0  0  0  0  0  0
   60.1760   34.9930   46.3710 S   0  0  0  0  0  0  0  0  0  0  0  0
   58.4290   34.5010   46.5870 C   0  0  0  0  0  0  0  0  0  0  0  0
   58.0990   33.2910   45.7560 C   0  0  0  0  0  0  0  0  0  0  0  0
   58.0520   33.3810   44.3580 C   0  0  0  0  0  0  0  0  0  0  0  0
   57.6930   32.2660   43.5980 C   0  0  0  0  0  0  0  0  0  0  0  0
   57.3810   31.0680   44.2460 C   0  0  0  0  0  0  0  0  0  0  0  0
   56.9190   29.6560   43.3180 Cl  0  0  0  0  0  0  0  0  0  0  0  0
   57.4290   30.9960   45.6030 N   0  0  0  0  0  0  0  0  0  0  0  0
   57.7790   32.0660   46.3640 C   0  0  0  0  0  0  0  0  0  0  0  0
   59.8900   34.1510   48.9550 N   0  0  0  0  0  0  0  0  0  0  0  0
   59.8013   33.5144   52.2129 H   0  0  0  0  0  0  0  0  0  0  0  0
   58.5779   34.3500   51.1971 H   0  0  0  0  0  0  0  0  0  0  0  0
   58.6715   32.5562   51.1971 H   0  0  0  0  0  0  0  0  0  0  0  0
   61.8097   32.5305   51.2233 H   0  0  0  0  0  0  0  0  0  0  0  0
   64.0413   32.3932   50.4567 H   0  0  0  0  0  0  0  0  0  0  0  0
   63.8516   31.4982   48.9109 H   0  0  0  0  0  0  0  0  0  0  0  0
   64.5525   33.1521   48.9109 H   0  0  0  0  0  0  0  0  0  0  0  0
   58.2500   34.2682   47.6471 H   0  0  0  0  0  0  0  0  0  0  0  0
   57.7891   35.3338   46.2600 H   0  0  0  0  0  0  0  0  0  0  0  0
   58.2980   34.3302   43.8595 H   0  0  0  0  0  0  0  0  0  0  0  0
   57.6562   32.3301   42.5005 H   0  0  0  0  0  0  0  0  0  0  0  0
   57.8118   31.9725   47.4595 H   0  0  0  0  0  0  0  0  0  0  0  0
   58.9360   34.5650   48.8570 H   0  0  0  0  0  0  0  0  0  0  0  0
  1  2  1  0
  2  3  2  0
  3  4  1  0
  4  5  1  0
  4  6  2  0
  6  7  1  0
  7  8  3  0
  6  9  1  0
  9 10  1  0
 10 11  1  0
 11 12  1  0
 12 13  2  0
 13 14  1  0
 14 15  2  0
 15 16  1  0
 15 17  1  0
 17 18  2  0
  9 19  2  0
 19  2  1  0
 18 12  1  0
  1 20  1  0
  1 21  1  0
  1 22  1  0
  3 23  1  0
  5 24  1  0
  5 25  1  0
  5 26  1  0
 11 27  1  0
 11 28  1  0
 13 29  1  0
 14 30  1  0
 18 31  1  0
 19 32  1  0
M  CHG  1  19   1
M  END
>  <UniqueID>  (11) 
11

>  <SMILES>  (11) 
Cc1cc(C)c(C#N)c(SCc2ccc(Cl)nc2)[nH+]1

>  <Energy>  (11) 
27.29416055847714

>  <Genealogy>  (11) 
Cc1cc(C)c(C#N)c(SCc2ccc(Cl)nc2)[nH+]1 (protonated)
Cc1cc(C)c(C#N)c(SCc2ccc(Cl)nc2)[nH+]1 (3D coordinates assigned)
Cc1cc(C)c(C#N)c(SCc2ccc(Cl)nc2)[nH+]1 (optimized conformer: 27.29416055847714 kcal/mol)

>  <smiles>  (11) 
Cc1cc(C)c(C#N)c(SCc2ccc(Cl)nc2)n1

>  <score_type>  (11) 
oracle

>  <origin>  (11) 
adg

>  <m_score__min__energy>  (11) 
-5.7000000000000002

>  <m_primary>  (11) 
energy

$$$$
11:0
     RDKit          3D

 38 40  0  0  0  0  0  0  0  0999 V2000
   55.5030   26.6190   45.9280 O   0  0  0  0  0  0  0  0  0  0  0  0
   56.2600   27.5770   45.6180 C   0  0  0  0  0  0  0  0  0  0  0  0
   55.6980   28.6970   44.9210 N   0  0  0  0  0  0  0  0  0  0  0  0
   56.4260   29.7940   44.3500 C   0  0  0  0  0  0  0  0  0  0  0  0
   56.2790   30.0670   42.9870 C   0  0  0  0  0  0  0  0  0  0  0  0
   56.9680   31.1310   42.4030 C   0  0  0  0  0  0  0  0  0  0  0  0
   57.8080   31.9360   43.1770 C   0  0  0  0  0  0  0  0  0  0  0  0
   57.9620   31.6870   44.5530 C   0  0  0  0  0  0  0  0  0  0  0  0
   58.8380   32.5320   45.3990 C   0  0  0  0  0  0  0  0  0  0  0  0
   58.6490   33.7790   45.4170 O   0  0  0  0  0  0  0  0  0  0  0  0
   59.8940   31.9550   46.1910 N   0  0  0  0  0  0  0  0  0  0  0  0
   60.6730   32.6930   47.1470 C   0  0  0  0  0  0  0  0  0  0  0  0
   60.0700   33.4770   48.1440 C   0  0  0  0  0  0  0  0  0  0  0  0
   60.8620   34.1560   49.0730 C   0  0  0  0  0  0  0  0  0  0  0  0
   62.2500   34.0360   49.0050 C   0  0  0  0  0  0  0  0  0  0  0  0
   62.8200   33.2550   48.0500 N   0  0  0  0  0  0  0  0  0  0  0  0
   62.0710   32.5840   47.1350 C   0  0  0  0  0  0  0  0  0  0  0  0
   57.2460   30.6250   45.1360 C   0  0  0  0  0  0  0  0  0  0  0  0
   57.7060   27.4910   45.9340 C   0  0  0  0  0  0  0  0  0  0  0  0
   58.6770   27.7300   44.9440 C   0  0  0  0  0  0  0  0  0  0  0  0
   60.0380   27.6530   45.2550 C   0  0  0  0  0  0  0  0  0  0  0  0
   60.4420   27.3240   46.5520 C   0  0  0  0  0  0  0  0  0  0  0  0
   59.4860   27.0670   47.5370 C   0  0  0  0  0  0  0  0  0  0  0  0
   58.1240   27.1440   47.2310 C   0  0  0  0  0  0  0  0  0  0  0  0
   55.6170   29.4401   42.3716 H   0  0  0  0  0  0  0  0  0  0  0  0
   56.8493   31.3368   41.3290 H   0  0  0  0  0  0  0  0  0  0  0  0
   58.3519   32.7691   42.7077 H   0  0  0  0  0  0  0  0  0  0  0  0
   60.1500   30.9530   46.0480 H   0  0  0  0  0  0  0  0  0  0  0  0
   58.9740   33.5564   48.1934 H   0  0  0  0  0  0  0  0  0  0  0  0
   60.3957   34.7791   49.8504 H   0  0  0  0  0  0  0  0  0  0  0  0
   62.8839   34.5741   49.7251 H   0  0  0  0  0  0  0  0  0  0  0  0
   62.5642   31.9524   46.3814 H   0  0  0  0  0  0  0  0  0  0  0  0
   57.3281   30.4424   46.2176 H   0  0  0  0  0  0  0  0  0  0  0  0
   58.3635   27.9789   43.9194 H   0  0  0  0  0  0  0  0  0  0  0  0
   60.7913   27.8515   44.4784 H   0  0  0  0  0  0  0  0  0  0  0  0
   61.5129   27.2675   46.7968 H   0  0  0  0  0  0  0  0  0  0  0  0
   59.8054   26.8034   48.5561 H   0  0  0  0  0  0  0  0  0  0  0  0
   57.3756   26.9321   48.0088 H   0  0  0  0  0  0  0  0  0  0  0  0
  1  2  2  0
  2  3  1  0
  3  4  1  0
  4  5  2  0
  5  6  1  0
  6  7  2  0
  7  8  1  0
  8  9  1  0
  9 10  2  0
  9 11  1  0
 11 12  1  0
 12 13  2  0
 13 14  1  0
 14 15  2  0
 15 16  1  0
 16 17  2  0
  8 18  2  0
  2 19  1  0
 19 20  2  0
 20 21  1  0
 21 22  2  0
 22 23  1  0
 23 24  2  0
 18  4  1  0
 24 19  1  0
 17 12  1  0
  5 25  1  0
  6 26  1  0
  7 27  1  0
 11 28  1  0
 13 29  1  0
 14 30  1  0
 15 31  1  0
 17 32  1  0
 18 33  1  0
 20 34  1  0
 21 35  1  0
 22 36  1  0
 23 37  1  0
 24 38  1  0
M  CHG  1   3  -1
M  END
>  <UniqueID>  (12) 
12

>  <SMILES>  (12) 
O=C([N-]c1cccc(C(=O)Nc2cccnc2)c1)c1ccccc1

>  <Energy>  (12) 
55.32161051256444

>  <Genealogy>  (12) 
O=C([N-]c1cccc(C(=O)Nc2cccnc2)c1)c1ccccc1 (protonated)
O=C([N-]c1cccc(C(=O)Nc2cccnc2)c1)c1ccccc1 (3D coordinates assigned)
O=C([N-]c1cccc(C(=O)Nc2cccnc2)c1)c1ccccc1 (optimized conformer: 55.32161051256444 kcal/mol)

>  <smiles>  (12) 
O=C(Nc1cccc(C(=O)Nc2cccnc2)c1)c1ccccc1

>  <score_type>  (12) 
oracle

>  <origin>  (12) 
adg

>  <m_score__min__energy>  (12) 
-10.039999999999999

>  <m_primary>  (12) 
energy

$$$$
12:0
     RDKit          3D

 38 41  0  0  0  0  0  0  0  0999 V2000
   59.9180   35.1730   45.6160 O   0  0  0  0  0  0  0  0  0  0  0  0
   59.8780   34.4740   46.6680 C   0  0  0  0  0  0  0  0  0  0  0  0
   61.1630   34.0390   47.2730 C   0  0  0  0  0  0  0  0  0  0  0  0
   61.3930   34.2450   48.6470 C   0  0  0  0  0  0  0  0  0  0  0  0
   62.5980   33.8490   49.2320 C   0  0  0  0  0  0  0  0  0  0  0  0
   63.5920   33.2510   48.4540 C   0  0  0  0  0  0  0  0  0  0  0  0
   63.3830   33.0530   47.0870 C   0  0  0  0  0  0  0  0  0  0  0  0
   62.1780   33.4460   46.4970 C   0  0  0  0  0  0  0  0  0  0  0  0
   58.5980   34.0790   47.2300 N   0  0  1  0  0  0  0  0  0  0  0  0
   57.5540   33.8730   46.1850 C   0  0  0  0  0  0  0  0  0  0  0  0
   57.7640   32.6170   45.3030 C   0  0  0  0  0  0  0  0  0  0  0  0
   58.2980   31.4870   46.1170 C   0  0  0  0  0  0  0  0  0  0  0  0
   58.8110   31.6290   47.3880 C   0  0  0  0  0  0  0  0  0  0  0  0
   59.2720   30.4500   47.8660 N   0  0  0  0  0  0  0  0  0  0  0  0
   59.0760   29.5660   46.8690 C   0  0  0  0  0  0  0  0  0  0  0  0
   59.4050   28.2110   46.8630 C   0  0  0  0  0  0  0  0  0  0  0  0
   59.1190   27.4690   45.7030 C   0  0  0  0  0  0  0  0  0  0  0  0
   58.5180   28.0890   44.5830 C   0  0  0  0  0  0  0  0  0  0  0  0
   58.1410   27.0640   43.0170 Br  0  0  0  0  0  0  0  0  0  0  0  0
   58.1950   29.4600   44.6150 C   0  0  0  0  0  0  0  0  0  0  0  0
   58.4880   30.1660   45.7800 C   0  0  0  0  0  0  0  0  0  0  0  0
   58.7470   32.9180   48.1440 C   0  0  0  0  0  0  0  0  0  0  0  0
   60.6174   34.7216   49.2645 H   0  0  0  0  0  0  0  0  0  0  0  0
   62.7645   34.0084   50.3076 H   0  0  0  0  0  0  0  0  0  0  0  0
   64.5387   32.9362   48.9173 H   0  0  0  0  0  0  0  0  0  0  0  0
   64.1682   32.5869   46.4736 H   0  0  0  0  0  0  0  0  0  0  0  0
   62.0215   33.2910   45.4193 H   0  0  0  0  0  0  0  0  0  0  0  0
   58.2410   34.8740   47.8100 H   0  0  0  0  0  0  0  0  0  0  0  0
   56.5795   33.7808   46.6869 H   0  0  0  0  0  0  0  0  0  0  0  0
   57.6117   34.7405   45.5112 H   0  0  0  0  0  0  0  0  0  0  0  0
   56.8013   32.3207   44.8609 H   0  0  0  0  0  0  0  0  0  0  0  0
   58.4887   32.8570   44.5111 H   0  0  0  0  0  0  0  0  0  0  0  0
   59.6900   30.2680   48.8050 H   0  0  0  0  0  0  0  0  0  0  0  0
   59.8736   27.7372   47.7382 H   0  0  0  0  0  0  0  0  0  0  0  0
   59.3648   26.3974   45.6666 H   0  0  0  0  0  0  0  0  0  0  0  0
   57.7281   29.9555   43.7510 H   0  0  0  0  0  0  0  0  0  0  0  0
   57.8859   32.8888   48.8278 H   0  0  0  0  0  0  0  0  0  0  0  0
   59.6871   33.0372   48.7025 H   0  0  0  0  0  0  0  0  0  0  0  0
  1  2  2  0
  2  3  1  0
  3  4  2  0
  4  5  1  0
  5  6  2  0
  6  7  1  0
  7  8  2  0
  2  9  1  0
  9 10  1  0
 10 11  1  0
 11 12  1  0
 12 13  2  0
 13 14  1  0
 14 15  1  0
 15 16  2  0
 16 17  1  0
 17 18  2  0
 18 19  1  0
 18 20  1  0
 20 21  2  0
 13 22  1  0
  8  3  1  0
 22  9  1  0
 21 12  1  0
 21 15  1  0
  4 23  1  0
  5 24  1  0
  6 25  1  0
  7 26  1  0
  8 27  1  0
  9 28  1  1
 10 29  1  0
 10 30  1  0
 11 31  1  0
 11 32  1  0
 14 33  1  0
 16 34  1  0
 17 35  1  0
 20 36  1  0
 22 37  1  0
 22 38  1  0
M  CHG  1   9   1
M  END
>  <UniqueID>  (13) 
13

>  <SMILES>  (13) 
O=C(c1ccccc1)[N@H+]1CCc2c([nH]c3ccc(Br)cc23)C1

>  <Energy>  (13) 
87.45532848582444

>  <Genealogy>  (13) 
O=C(c1ccccc1)[NH+]1CCc2c([nH]c3ccc(Br)cc23)C1 (protonated)
O=C(c1ccccc1)[N@H+]1CCc2c([nH]c3ccc(Br)cc23)C1 (chirality)
O=C(c1ccccc1)[N@H+]1CCc2c([nH]c3ccc(Br)cc23)C1 (3D coordinates assigned)
O=C(c1ccccc1)[N@H+]1CCc2c([nH]c3ccc(Br)cc23)C1 (nonaromatic ring conformer: 87.45532848582444 kcal/mol)

>  <smiles>  (13) 
O=C(c1ccccc1)N1CCc2c([nH]c3ccc(Br)cc23)C1

>  <score_type>  (13) 
oracle

>  <origin>  (13) 
adg

>  <m_score__min__energy>  (13) 
-6.75

>  <m_primary>  (13) 
energy

$$$$
13:0
     RDKit          3D

 43 46  0  0  0  0  0  0  0  0999 V2000
   60.1400   27.0430   46.5040 C   0  0  0  0  0  0  0  0  0  0  0  0
   58.8480   27.5930   45.9780 C   0  0  0  0  0  0  0  0  0  0  0  0
   57.6620   26.8210   46.0590 C   0  0  0  0  0  0  0  0  0  0  0  0
   56.4390   27.3410   45.6010 C   0  0  0  0  0  0  0  0  0  0  0  0
   56.4290   28.6320   45.0820 C   0  0  0  0  0  0  0  0  0  0  0  0
   55.3710   29.2950   44.5880 N   0  0  0  0  0  0  0  0  0  0  0  0
   55.8340   30.5000   44.1930 C   0  0  0  0  0  0  0  0  0  0  0  0
   57.1970   30.6140   44.4520 C   0  0  0  0  0  0  0  0  0  0  0  0
   58.0440   31.7950   44.0520 C   0  0  0  0  0  0  0  0  0  0  0  0
   58.0550   32.8820   45.0880 C   0  0  0  0  0  0  0  0  0  0  0  0
   57.1050   33.7100   45.0890 O   0  0  0  0  0  0  0  0  0  0  0  0
   59.1480   33.0610   46.0130 N   0  0  0  0  0  0  0  0  0  0  0  0
   59.6230   32.1470   47.0000 C   0  0  0  0  0  0  0  0  0  0  0  0
   58.9030   31.1360   47.6540 C   0  0  0  0  0  0  0  0  0  0  0  0
   59.5460   30.3900   48.6540 C   0  0  0  0  0  0  0  0  0  0  0  0
   60.8770   30.6800   49.0080 C   0  0  0  0  0  0  0  0  0  0  0  0
   61.5630   31.7260   48.3760 C   0  0  0  0  0  0  0  0  0  0  0  0
   60.9030   32.4520   47.3820 C   0  0  0  0  0  0  0  0  0  0  0  0
   61.4060   33.6380   46.6420 C   0  0  0  0  0  0  0  0  0  0  0  0
   60.1600   34.1130   45.8450 C   0  0  2  0  0  0  0  0  0  0  0  0
   59.6340   35.4480   46.3850 C   0  0  0  0  0  0  0  0  0  0  0  0
   57.5690   29.3960   45.0120 C   0  0  0  0  0  0  0  0  0  0  0  0
   58.7990   28.9050   45.4620 C   0  0  0  0  0  0  0  0  0  0  0  0
   60.1212   27.0510   47.6038 H   0  0  0  0  0  0  0  0  0  0  0  0
   60.2715   26.0109   46.1470 H   0  0  0  0  0  0  0  0  0  0  0  0
   60.9751   27.6636   46.1470 H   0  0  0  0  0  0  0  0  0  0  0  0
   57.6990   25.8069   46.4836 H   0  0  0  0  0  0  0  0  0  0  0  0
   55.5162   26.7444   45.6514 H   0  0  0  0  0  0  0  0  0  0  0  0
   54.3890   28.9460   44.5110 H   0  0  0  0  0  0  0  0  0  0  0  0
   55.2181   31.2849   43.7296 H   0  0  0  0  0  0  0  0  0  0  0  0
   59.0764   31.4495   43.8944 H   0  0  0  0  0  0  0  0  0  0  0  0
   57.6098   32.2175   43.1339 H   0  0  0  0  0  0  0  0  0  0  0  0
   57.8552   30.9320   47.3883 H   0  0  0  0  0  0  0  0  0  0  0  0
   59.0081   29.5763   49.1625 H   0  0  0  0  0  0  0  0  0  0  0  0
   61.3804   30.0837   49.7832 H   0  0  0  0  0  0  0  0  0  0  0  0
   62.5983   31.9698   48.6566 H   0  0  0  0  0  0  0  0  0  0  0  0
   61.7517   34.4185   47.3358 H   0  0  0  0  0  0  0  0  0  0  0  0
   62.2691   33.4113   45.9988 H   0  0  0  0  0  0  0  0  0  0  0  0
   60.4084   34.2762   44.7859 H   0  0  0  0  0  0  0  0  0  0  0  0
   59.6421   35.4274   47.4848 H   0  0  0  0  0  0  0  0  0  0  0  0
   60.2769   36.2665   46.0288 H   0  0  0  0  0  0  0  0  0  0  0  0
   58.6056   35.6080   46.0288 H   0  0  0  0  0  0  0  0  0  0  0  0
   59.7054   29.5264   45.4147 H   0  0  0  0  0  0  0  0  0  0  0  0
  1  2  1  0
  2  3  2  0
  3  4  1  0
  4  5  2  0
  5  6  1  0
  6  7  1  0
  7  8  2  0
  8  9  1  0
  9 10  1  0
 10 11  2  0
 10 12  1  0
 12 13  1  0
 13 14  2  0
 14 15  1  0
 15 16  2  0
 16 17  1  0
 17 18  2  0
 18 19  1  0
 19 20  1  0
 20 21  1  0
  8 22  1  0
 22 23  2  0
 23  2  1  0
 22  5  1  0
 20 12  1  0
 18 13  1  0
  1 24  1  0
  1 25  1  0
  1 26  1  0
  3 27  1  0
  4 28  1  0
  6 29  1  0
  7 30  1  0
  9 31  1  0
  9 32  1  0
 14 33  1  0
 15 34  1  0
 16 35  1  0
 17 36  1  0
 19 37  1  0
 19 38  1  0
 20 39  1  6
 21 40  1  0
 21 41  1  0
 21 42  1  0
 23 43  1  0
M  END
>  <UniqueID>  (14) 
14

>  <SMILES>  (14) 
Cc1ccc2[nH]cc(CC(=O)N3c4ccccc4C[C@@H]3C)c2c1

>  <Energy>  (14) 
95.95328644351706

>  <Genealogy>  (14) 
Cc1ccc2[nH]cc(CC(=O)N3c4ccccc4C[C@@H]3C)c2c1 (chirality)
Cc1ccc2[nH]cc(CC(=O)N3c4ccccc4C[C@@H]3C)c2c1 (3D coordinates assigned)
Cc1ccc2[nH]cc(CC(=O)N3c4ccccc4C[C@@H]3C)c2c1 (nonaromatic ring conformer: 95.95328644351706 kcal/mol)

>  <smiles>  (14) 
Cc1ccc2[nH]cc(CC(=O)N3c4ccccc4CC3C)c2c1

>  <score_type>  (14) 
oracle

>  <origin>  (14) 
adg

>  <m_score__min__energy>  (14) 
-8.4700000000000006

>  <m_primary>  (14) 
energy

$$$$
14:0
     RDKit          3D

 32 33  0  0  0  0  0  0  0  0999 V2000
   56.6961   32.8677   43.8945 H   0  0  0  0  0  0  0  0  0  0  0  0
   57.4060   32.7060   44.7190 C   0  0  0  0  0  0  0  0  0  0  0  0
   58.2250   33.7570   45.1430 C   0  0  0  0  0  0  0  0  0  0  0  0
   58.1546   34.7374   44.6492 H   0  0  0  0  0  0  0  0  0  0  0  0
   59.1380   33.5700   46.1960 C   0  0  0  0  0  0  0  0  0  0  0  0
   60.0080   34.6830   46.6460 C   0  0  0  0  0  0  0  0  0  0  0  0
   60.0420   35.7530   45.9800 O   0  0  0  0  0  0  0  0  0  0  0  0
   60.7990   34.5330   47.8390 N   0  0  0  0  0  0  0  0  0  0  0  0
   61.9680   33.9740   47.9700 C   0  0  0  0  0  0  0  0  0  0  0  0
   62.6780   33.5720   46.9420 O   0  0  0  0  0  0  0  0  0  0  0  0
   63.8010   33.0570   47.3430 N   0  0  0  0  0  0  0  0  0  0  0  0
   64.5440   32.6790   46.7160 H   0  0  0  0  0  0  0  0  0  0  0  0
   63.8280   33.1150   48.6890 C   0  0  0  0  0  0  0  0  0  0  0  0
   64.9860   32.6910   49.5290 C   0  0  0  0  0  0  0  0  0  0  0  0
   64.7223   32.7876   50.5926 H   0  0  0  0  0  0  0  0  0  0  0  0
   65.2359   31.6430   49.3069 H   0  0  0  0  0  0  0  0  0  0  0  0
   65.8535   33.3298   49.3069 H   0  0  0  0  0  0  0  0  0  0  0  0
   62.6670   33.7130   49.1420 C   0  0  0  0  0  0  0  0  0  0  0  0
   62.3690   33.9296   50.1785 H   0  0  0  0  0  0  0  0  0  0  0  0
   59.2130   32.3070   46.8120 C   0  0  0  0  0  0  0  0  0  0  0  0
   59.9232   32.1437   47.6360 H   0  0  0  0  0  0  0  0  0  0  0  0
   58.3930   31.2580   46.3860 C   0  0  0  0  0  0  0  0  0  0  0  0
   58.4615   30.2760   46.8768 H   0  0  0  0  0  0  0  0  0  0  0  0
   57.4800   31.4520   45.3320 C   0  0  0  0  0  0  0  0  0  0  0  0
   56.6380   30.4320   44.8680 O   0  0  0  0  0  0  0  0  0  0  0  0
   57.0090   29.4650   43.8880 C   0  0  0  0  0  0  0  0  0  0  0  0
   56.7199   28.4620   44.2350 H   0  0  0  0  0  0  0  0  0  0  0  0
   58.0974   29.5000   43.7325 H   0  0  0  0  0  0  0  0  0  0  0  0
   56.3000   29.7720   42.5780 C   0  0  0  0  0  0  0  0  0  0  0  0
   55.3093   30.2010   42.7890 H   0  0  0  0  0  0  0  0  0  0  0  0
   56.8958   30.4927   41.9987 H   0  0  0  0  0  0  0  0  0  0  0  0
   56.1821   28.8443   41.9987 H   0  0  0  0  0  0  0  0  0  0  0  0
  1  2  1  0
  2  3  2  0
  3  4  1  0
  3  5  1  0
  5  6  1  0
  6  7  2  0
  6  8  1  0
  8  9  2  0
  9 10  1  0
 10 11  1  0
 11 12  1  0
 11 13  1  0
 13 14  1  0
 14 15  1  0
 14 16  1  0
 14 17  1  0
 13 18  2  0
 18 19  1  0
  5 20  2  0
 20 21  1  0
 20 22  1  0
 22 23  1  0
 22 24  2  0
 24 25  1  0
 25 26  1  0
 26 27  1  0
 26 28  1  0
 26 29  1  0
 29 30  1  0
 29 31  1  0
 29 32  1  0
 24  2  1  0
 18  9  1  0
M  END
>  <UniqueID>  (15) 
15

>  <SMILES>  (15) 
CCOc1ccc(C(=O)/N=c2\cc(C)[nH]o2)cc1

>  <Energy>  (15) 
64.13364322620815

>  <Genealogy>  (15) 
CCOc1ccc(C(=O)/N=c2\cc(C)[nH]o2)cc1 (cis-trans isomerization)
CCOc1ccc(C(=O)/N=c2\cc(C)[nH]o2)cc1 (3D coordinates assigned)
CCOc1ccc(C(=O)/N=c2\cc(C)[nH]o2)cc1 (optimized conformer: 64.13364322620815 kcal/mol)

>  <smiles>  (15) 
CCOc1ccc(C(=O)N=c2cc(C)[nH]o2)cc1

>  <score_type>  (15) 
oracle

>  <origin>  (15) 
adg

>  <m_score__min__energy>  (15) 
-7.0099999999999998

>  <m_primary>  (15) 
energy

$$$$
15:0
     RDKit          3D

 35 37  0  0  0  0  0  0  0  0999 V2000
   58.3355   26.6969   42.5016 H   0  0  0  0  0  0  0  0  0  0  0  0
   58.0740   27.1440   43.4720 C   0  0  0  0  0  0  0  0  0  0  0  0
   57.5650   28.4440   43.5250 C   0  0  0  0  0  0  0  0  0  0  0  0
   57.4361   29.0192   42.5963 H   0  0  0  0  0  0  0  0  0  0  0  0
   57.2180   29.0190   44.7540 C   0  0  0  0  0  0  0  0  0  0  0  0
   56.7250   30.3700   44.7680 N   0  0  0  0  0  0  0  0  0  0  0  0
   57.4200   31.4530   44.9850 C   0  0  0  0  0  0  0  0  0  0  0  0
   57.7770   31.8090   46.2510 N   0  0  0  0  0  0  0  0  0  0  0  0
   58.4840   32.9370   46.5250 C   0  0  0  0  0  0  0  0  0  0  0  0
   58.8400   33.2520   47.8520 C   0  0  0  0  0  0  0  0  0  0  0  0
   58.4540   32.3400   48.9850 C   0  0  0  0  0  0  0  0  0  0  0  0
   58.6643   32.8369   49.9436 H   0  0  0  0  0  0  0  0  0  0  0  0
   57.3807   32.1083   48.9198 H   0  0  0  0  0  0  0  0  0  0  0  0
   59.0349   31.4082   48.9198 H   0  0  0  0  0  0  0  0  0  0  0  0
   59.5730   34.4220   48.1070 C   0  0  0  0  0  0  0  0  0  0  0  0
   59.8574   34.6739   49.1393 H   0  0  0  0  0  0  0  0  0  0  0  0
   59.9440   35.2690   47.0590 C   0  0  0  0  0  0  0  0  0  0  0  0
   60.5166   36.1840   47.2711 H   0  0  0  0  0  0  0  0  0  0  0  0
   59.5910   34.9590   45.7430 C   0  0  0  0  0  0  0  0  0  0  0  0
   59.8854   35.6294   44.9221 H   0  0  0  0  0  0  0  0  0  0  0  0
   58.8620   33.7940   45.4690 C   0  0  0  0  0  0  0  0  0  0  0  0
   58.4970   33.4610   44.1590 C   0  0  0  0  0  0  0  0  0  0  0  0
   58.7803   34.1203   43.3253 H   0  0  0  0  0  0  0  0  0  0  0  0
   57.7720   32.2900   43.9090 C   0  0  0  0  0  0  0  0  0  0  0  0
   57.4020   31.9650   42.5520 C   0  0  0  0  0  0  0  0  0  0  0  0
   57.1050   31.7030   41.4640 N   0  0  0  0  0  0  0  0  0  0  0  0
   57.4350   28.2910   45.9400 C   0  0  0  0  0  0  0  0  0  0  0  0
   57.2199   28.7558   46.9135 H   0  0  0  0  0  0  0  0  0  0  0  0
   57.9240   26.9760   45.8880 C   0  0  0  0  0  0  0  0  0  0  0  0
   58.1710   26.2140   47.1550 C   0  0  0  0  0  0  0  0  0  0  0  0
   57.9611   26.8615   48.0191 H   0  0  0  0  0  0  0  0  0  0  0  0
   57.5122   25.3337   47.1878 H   0  0  0  0  0  0  0  0  0  0  0  0
   59.2210   25.8876   47.1878 H   0  0  0  0  0  0  0  0  0  0  0  0
   58.2520   26.4100   44.6470 C   0  0  0  0  0  0  0  0  0  0  0  0
   58.6503   25.3858   44.5991 H   0  0  0  0  0  0  0  0  0  0  0  0
  1  2  1  0
  2  3  2  0
  3  4  1  0
  3  5  1  0
  5  6  1  0
  6  7  2  0
  7  8  1  0
  8  9  1  0
  9 10  2  0
 10 11  1  0
 11 12  1  0
 11 13  1  0
 11 14  1  0
 10 15  1  0
 15 16  1  0
 15 17  2  0
 17 18  1  0
 17 19  1  0
 19 20  1  0
 19 21  2  0
 21 22  1  0
 22 23  1  0
 22 24  2  0
 24 25  1  0
 25 26  3  0
  5 27  2  0
 27 28  1  0
 27 29  1  0
 29 30  1  0
 30 31  1  0
 30 32  1  0
 30 33  1  0
 29 34  2  0
 34 35  1  0
 34  2  1  0
 24  7  1  0
 21  9  1  0
M  CHG  1   8  -1
M  END
>  <UniqueID>  (16) 
16

>  <SMILES>  (16) 
Cc1cccc(/N=c2\[n-]c3c(C)cccc3cc2C#N)c1

>  <Energy>  (16) 
45.619686363871836

>  <Genealogy>  (16) 
Cc1cccc(N=c2[n-]c3c(C)cccc3cc2C#N)c1 (protonated)
Cc1cccc(/N=c2\[n-]c3c(C)cccc3cc2C#N)c1 (cis-trans isomerization)
Cc1cccc(/N=c2\[n-]c3c(C)cccc3cc2C#N)c1 (3D coordinates assigned)
Cc1cccc(/N=c2\[n-]c3c(C)cccc3cc2C#N)c1 (optimized conformer: 45.619686363871836 kcal/mol)

>  <smiles>  (16) 
Cc1cccc(N=c2[nH]c3c(C)cccc3cc2C#N)c1

>  <score_type>  (16) 
oracle

>  <origin>  (16) 
adg

>  <m_score__min__energy>  (16) 
-9.2200000000000006

>  <m_primary>  (16) 
energy

$$$$
16:0
     RDKit          3D

 35 37  0  0  0  0  0  0  0  0999 V2000
   58.0400   32.3410   41.6670 C   0  0  0  0  0  0  0  0  0  0  0  0
   57.7030   31.8970   43.0670 C   0  0  0  0  0  0  0  0  0  0  0  0
   56.9620   30.7220   43.2560 C   0  0  0  0  0  0  0  0  0  0  0  0
   56.6470   30.3090   44.5520 C   0  0  0  0  0  0  0  0  0  0  0  0
   55.9830   29.2550   44.7310 O   0  0  0  0  0  0  0  0  0  0  0  0
   57.0450   31.0190   45.6010 O   0  0  0  0  0  0  0  0  0  0  0  0
   57.7500   32.1410   45.4830 C   0  0  0  0  0  0  0  0  0  0  0  0
   58.1320   32.8340   46.6350 C   0  0  0  0  0  0  0  0  0  0  0  0
   58.8860   34.0090   46.5440 C   0  0  0  0  0  0  0  0  0  0  0  0
   59.2350   34.6710   47.7300 O   0  0  0  0  0  0  0  0  0  0  0  0
   60.0850   34.1650   48.7240 C   0  0  0  0  0  0  0  0  0  0  0  0
   59.6950   34.0920   49.9220 O   0  0  0  0  0  0  0  0  0  0  0  0
   61.4680   33.7700   48.3730 C   0  0  0  0  0  0  0  0  0  0  0  0
   61.9200   33.8470   47.0440 C   0  0  0  0  0  0  0  0  0  0  0  0
   63.2260   33.4750   46.7200 C   0  0  0  0  0  0  0  0  0  0  0  0
   64.0950   33.0210   47.7130 C   0  0  0  0  0  0  0  0  0  0  0  0
   63.6670   32.9350   49.0490 C   0  0  0  0  0  0  0  0  0  0  0  0
   64.5610   32.4680   50.0770 N   0  0  0  0  0  0  0  0  0  0  0  0
   64.3470   31.3890   50.6660 O   0  0  0  0  0  0  0  0  0  0  0  0
   65.6710   33.2040   50.4270 O   0  0  0  0  0  0  0  0  0  0  0  0
   62.3510   33.3120   49.3700 C   0  0  0  0  0  0  0  0  0  0  0  0
   59.2300   34.5090   45.2750 C   0  0  0  0  0  0  0  0  0  0  0  0
   58.8510   33.8260   44.1170 C   0  0  0  0  0  0  0  0  0  0  0  0
   58.1110   32.6300   44.2050 C   0  0  0  0  0  0  0  0  0  0  0  0
   58.7045   33.2165   41.7100 H   0  0  0  0  0  0  0  0  0  0  0  0
   58.5461   31.5223   41.1345 H   0  0  0  0  0  0  0  0  0  0  0  0
   57.1153   32.6083   41.1345 H   0  0  0  0  0  0  0  0  0  0  0  0
   56.6313   30.1300   42.3899 H   0  0  0  0  0  0  0  0  0  0  0  0
   57.8368   32.4517   47.6233 H   0  0  0  0  0  0  0  0  0  0  0  0
   61.2408   34.2023   46.2550 H   0  0  0  0  0  0  0  0  0  0  0  0
   63.5715   33.5400   45.6777 H   0  0  0  0  0  0  0  0  0  0  0  0
   65.1218   32.7285   47.4484 H   0  0  0  0  0  0  0  0  0  0  0  0
   62.0068   33.2484   50.4128 H   0  0  0  0  0  0  0  0  0  0  0  0
   59.8019   35.4451   45.1940 H   0  0  0  0  0  0  0  0  0  0  0  0
   59.1318   34.2240   43.1307 H   0  0  0  0  0  0  0  0  0  0  0  0
  1  2  1  0
  2  3  2  0
  3  4  1  0
  4  5  2  0
  4  6  1  0
  6  7  1  0
  7  8  2  0
  8  9  1  0
  9 10  1  0
 10 11  1  0
 11 12  2  0
 11 13  1  0
 13 14  2  0
 14 15  1  0
 15 16  2  0
 16 17  1  0
 17 18  1  0
 18 19  2  0
 18 20  1  0
 17 21  2  0
  9 22  2  0
 22 23  1  0
 23 24  2  0
 24  2  1  0
 24  7  1  0
 21 13  1  0
  1 25  1  0
  1 26  1  0
  1 27  1  0
  3 28  1  0
  8 29  1  0
 14 30  1  0
 15 31  1  0
 16 32  1  0
 21 33  1  0
 22 34  1  0
 23 35  1  0
M  CHG  2  18   1  20  -1
M  END
>  <UniqueID>  (17) 
17

>  <SMILES>  (17) 
Cc1cc(=O)oc2cc(OC(=O)c3cccc([N+](=O)[O-])c3)ccc12

>  <Energy>  (17) 
49.60582961241507

>  <Genealogy>  (17) 
Cc1cc(=O)oc2cc(OC(=O)c3cccc([N+](=O)[O-])c3)ccc12 (3D coordinates assigned)
Cc1cc(=O)oc2cc(OC(=O)c3cccc([N+](=O)[O-])c3)ccc12 (optimized conformer: 49.60582961241507 kcal/mol)

>  <smiles>  (17) 
Cc1cc(=O)oc2cc(OC(=O)c3cccc([N+](=O)[O-])c3)ccc12

>  <score_type>  (17) 
oracle

>  <origin>  (17) 
adg

>  <m_score__min__energy>  (17) 
-8.8000000000000007

>  <m_primary>  (17) 
energy

$$$$
17:0
     RDKit          3D

 40 42  0  0  0  0  0  0  0  0999 V2000
   59.6320   33.4900   50.0040 C   0  0  0  0  0  0  0  0  0  0  0  0
   58.8880   32.2800   49.4480 C   0  0  0  0  0  0  0  0  0  0  0  0
   59.3230   31.9880   48.0780 N   0  0  0  0  0  0  0  0  0  0  0  0
   58.9780   32.8630   46.9910 C   0  0  0  0  0  0  0  0  0  0  0  0
   57.7530   32.7190   46.3180 C   0  0  0  0  0  0  0  0  0  0  0  0
   57.4200   33.5820   45.2690 C   0  0  0  0  0  0  0  0  0  0  0  0
   58.3030   34.5960   44.8870 C   0  0  0  0  0  0  0  0  0  0  0  0
   59.5210   34.7480   45.5530 C   0  0  0  0  0  0  0  0  0  0  0  0
   59.8590   33.8860   46.6010 C   0  0  0  0  0  0  0  0  0  0  0  0
   60.2790   30.5650   47.7790 S   0  0  0  0  0  0  0  0  0  0  0  0
   60.9630   30.1620   49.0540 O   0  0  0  0  0  0  0  0  0  0  0  0
   61.3170   30.8450   46.7290 O   0  0  0  0  0  0  0  0  0  0  0  0
   59.2390   29.2690   47.1970 C   0  0  0  0  0  0  0  0  0  0  0  0
   58.3790   29.4770   46.1120 C   0  0  0  0  0  0  0  0  0  0  0  0
   57.5580   28.4400   45.6560 C   0  0  0  0  0  0  0  0  0  0  0  0
   57.5860   27.1780   46.2790 C   0  0  0  0  0  0  0  0  0  0  0  0
   56.7460   26.0980   45.8230 N   0  0  0  0  0  0  0  0  0  0  0  0
   57.0850   25.1030   44.9760 C   0  0  0  0  0  0  0  0  0  0  0  0
   55.9960   24.2750   44.8140 C   0  0  0  0  0  0  0  0  0  0  0  0
   55.0110   24.8300   45.6050 C   0  0  0  0  0  0  0  0  0  0  0  0
   55.4890   25.9340   46.2090 N   0  0  0  0  0  0  0  0  0  0  0  0
   58.4460   26.9840   47.3760 C   0  0  0  0  0  0  0  0  0  0  0  0
   59.2650   28.0220   47.8290 C   0  0  0  0  0  0  0  0  0  0  0  0
   59.6128   33.4588   51.1034 H   0  0  0  0  0  0  0  0  0  0  0  0
   60.6749   33.4714   49.6548 H   0  0  0  0  0  0  0  0  0  0  0  0
   59.1448   34.4123   49.6548 H   0  0  0  0  0  0  0  0  0  0  0  0
   59.0916   31.4068   50.0853 H   0  0  0  0  0  0  0  0  0  0  0  0
   57.8107   32.5018   49.4371 H   0  0  0  0  0  0  0  0  0  0  0  0
   57.0534   31.9247   46.6173 H   0  0  0  0  0  0  0  0  0  0  0  0
   56.4611   33.4625   44.7434 H   0  0  0  0  0  0  0  0  0  0  0  0
   58.0386   35.2740   44.0621 H   0  0  0  0  0  0  0  0  0  0  0  0
   60.2153   35.5467   45.2529 H   0  0  0  0  0  0  0  0  0  0  0  0
   60.8195   34.0094   47.1228 H   0  0  0  0  0  0  0  0  0  0  0  0
   58.3487   30.4587   45.6166 H   0  0  0  0  0  0  0  0  0  0  0  0
   56.8848   28.6123   44.8033 H   0  0  0  0  0  0  0  0  0  0  0  0
   58.0663   24.9749   44.4957 H   0  0  0  0  0  0  0  0  0  0  0  0
   55.9269   23.3708   44.1914 H   0  0  0  0  0  0  0  0  0  0  0  0
   53.9925   24.4318   45.7237 H   0  0  0  0  0  0  0  0  0  0  0  0
   58.4738   26.0072   47.8811 H   0  0  0  0  0  0  0  0  0  0  0  0
   59.9334   27.8571   48.6870 H   0  0  0  0  0  0  0  0  0  0  0  0
  1  2  1  0
  2  3  1  0
  3  4  1  0
  4  5  2  0
  5  6  1  0
  6  7  2  0
  7  8  1  0
  8  9  2  0
  3 10  1  0
 10 11  2  0
 10 12  2  0
 10 13  1  0
 13 14  2  0
 14 15  1  0
 15 16  2  0
 16 17  1  0
 17 18  1  0
 18 19  2  0
 19 20  1  0
 20 21  2  0
 16 22  1  0
 22 23  2  0
  9  4  1  0
 23 13  1  0
 21 17  1  0
  1 24  1  0
  1 25  1  0
  1 26  1  0
  2 27  1  0
  2 28  1  0
  5 29  1  0
  6 30  1  0
  7 31  1  0
  8 32  1  0
  9 33  1  0
 14 34  1  0
 15 35  1  0
 18 36  1  0
 19 37  1  0
 20 38  1  0
 22 39  1  0
 23 40  1  0
M  END
>  <UniqueID>  (18) 
18

>  <SMILES>  (18) 
CCN(c1ccccc1)S(=O)(=O)c1ccc(-n2cccn2)cc1

>  <Energy>  (18) 
76.39637821106103

>  <Genealogy>  (18) 
CCN(c1ccccc1)S(=O)(=O)c1ccc(-n2cccn2)cc1 (3D coordinates assigned)
CCN(c1ccccc1)S(=O)(=O)c1ccc(-n2cccn2)cc1 (optimized conformer: 76.39637821106103 kcal/mol)

>  <smiles>  (18) 
CCN(c1ccccc1)S(=O)(=O)c1ccc(-n2cccn2)cc1

>  <score_type>  (18) 
oracle

>  <origin>  (18) 
adg

>  <m_score__min__energy>  (18) 
-7.7300000000000004

>  <m_primary>  (18) 
energy

$$$$
18:0
     RDKit          3D

 55 57  0  0  0  0  0  0  0  0999 V2000
   58.2040   21.5070   45.3620 C   0  0  0  0  0  0  0  0  0  0  0  0
   57.0340   20.6550   44.8830 C   0  0  0  0  0  0  0  0  0  0  0  0
   55.9310   21.4750   44.4980 O   0  0  0  0  0  0  0  0  0  0  0  0
   56.0500   22.5890   43.6560 C   0  0  0  0  0  0  0  0  0  0  0  0
   55.8890   22.4600   42.4110 O   0  0  0  0  0  0  0  0  0  0  0  0
   56.3840   23.9120   44.2290 C   0  0  0  0  0  0  0  0  0  0  0  0
   55.6930   24.4040   45.3510 C   0  0  0  0  0  0  0  0  0  0  0  0
   55.9930   25.6670   45.8710 C   0  0  0  0  0  0  0  0  0  0  0  0
   56.9740   26.4710   45.2620 C   0  0  0  0  0  0  0  0  0  0  0  0
   57.3040   27.7830   45.7430 N   0  0  0  0  0  0  0  0  0  0  0  0
   56.7160   29.0350   45.3560 C   0  0  0  0  0  0  0  0  0  0  0  0
   55.5600   29.0650   44.8590 O   0  0  0  0  0  0  0  0  0  0  0  0
   57.4730   30.2560   45.4810 N   0  0  0  0  0  0  0  0  0  0  0  0
   57.0580   31.4420   44.7150 C   0  0  0  0  0  0  0  0  0  0  0  0
   57.5390   32.7250   45.3970 C   0  0  0  0  0  0  0  0  0  0  0  0
   58.9800   32.6390   45.6740 N   0  0  0  0  0  0  0  0  0  0  0  0
   59.5460   34.1520   46.3360 S   0  0  0  0  0  0  0  0  0  0  0  0
   59.6610   35.1660   45.2330 O   0  0  0  0  0  0  0  0  0  0  0  0
   58.5490   34.6650   47.3370 O   0  0  0  0  0  0  0  0  0  0  0  0
   61.1150   33.9680   47.1230 C   0  0  0  0  0  0  0  0  0  0  0  0
   62.2720   33.7700   46.3560 C   0  0  0  0  0  0  0  0  0  0  0  0
   63.5100   33.6000   46.9810 C   0  0  0  0  0  0  0  0  0  0  0  0
   63.6070   33.6300   48.3850 C   0  0  0  0  0  0  0  0  0  0  0  0
   64.8240   33.4620   49.0590 O   0  0  0  0  0  0  0  0  0  0  0  0
   65.1050   32.3910   49.9510 C   0  0  0  0  0  0  0  0  0  0  0  0
   62.4470   33.8330   49.1450 C   0  0  0  0  0  0  0  0  0  0  0  0
   61.2100   34.0020   48.5210 C   0  0  0  0  0  0  0  0  0  0  0  0
   59.2390   31.5470   46.6250 C   0  0  0  0  0  0  0  0  0  0  0  0
   58.8450   30.2060   46.0080 C   0  0  0  0  0  0  0  0  0  0  0  0
   57.6860   25.9660   44.1700 C   0  0  0  0  0  0  0  0  0  0  0  0
   57.3930   24.7000   43.6520 C   0  0  0  0  0  0  0  0  0  0  0  0
   58.2220   21.5201   46.4618 H   0  0  0  0  0  0  0  0  0  0  0  0
   59.1458   21.0818   44.9849 H   0  0  0  0  0  0  0  0  0  0  0  0
   58.0884   22.5339   44.9849 H   0  0  0  0  0  0  0  0  0  0  0  0
   57.3555   20.0548   44.0190 H   0  0  0  0  0  0  0  0  0  0  0  0
   56.7147   20.0008   45.7077 H   0  0  0  0  0  0  0  0  0  0  0  0
   54.9110   23.7909   45.8228 H   0  0  0  0  0  0  0  0  0  0  0  0
   55.4595   26.0336   46.7604 H   0  0  0  0  0  0  0  0  0  0  0  0
   57.4888   31.3875   43.7043 H   0  0  0  0  0  0  0  0  0  0  0  0
   55.9594   31.4612   44.6624 H   0  0  0  0  0  0  0  0  0  0  0  0
   57.3459   33.5829   44.7361 H   0  0  0  0  0  0  0  0  0  0  0  0
   56.9968   32.8542   46.3453 H   0  0  0  0  0  0  0  0  0  0  0  0
   62.2047   33.7484   45.2583 H   0  0  0  0  0  0  0  0  0  0  0  0
   64.4130   33.4420   46.3731 H   0  0  0  0  0  0  0  0  0  0  0  0
   65.0123   32.7441   50.9886 H   0  0  0  0  0  0  0  0  0  0  0  0
   64.3913   31.5722   49.7772 H   0  0  0  0  0  0  0  0  0  0  0  0
   66.1288   32.0281   49.7772 H   0  0  0  0  0  0  0  0  0  0  0  0
   62.5120   33.8594   50.2428 H   0  0  0  0  0  0  0  0  0  0  0  0
   60.3069   34.1624   49.1282 H   0  0  0  0  0  0  0  0  0  0  0  0
   60.3097   31.5306   46.8768 H   0  0  0  0  0  0  0  0  0  0  0  0
   58.6422   31.7133   47.5339 H   0  0  0  0  0  0  0  0  0  0  0  0
   59.5381   29.9692   45.1873 H   0  0  0  0  0  0  0  0  0  0  0  0
   58.8951   29.4313   46.7873 H   0  0  0  0  0  0  0  0  0  0  0  0
   58.4842   26.5699   43.7138 H   0  0  0  0  0  0  0  0  0  0  0  0
   57.9565   24.3194   42.7873 H   0  0  0  0  0  0  0  0  0  0  0  0
  1  2  1  0
  2  3  1  0
  3  4  1  0
  4  5  2  0
  4  6  1  0
  6  7  2  0
  7  8  1  0
  8  9  2  0
  9 10  1  0
 10 11  1  0
 11 12  2  0
 11 13  1  0
 13 14  1  0
 14 15  1  0
 15 16  1  0
 16 17  1  0
 17 18  2  0
 17 19  2  0
 17 20  1  0
 20 21  2  0
 21 22  1  0
 22 23  2  0
 23 24  1  0
 24 25  1  0
 23 26  1  0
 26 27  2  0
 16 28  1  0
 28 29  1  0
  9 30  1  0
 30 31  2  0
 31  6  1  0
 29 13  1  0
 27 20  1  0
  1 32  1  0
  1 33  1  0
  1 34  1  0
  2 35  1  0
  2 36  1  0
  7 37  1  0
  8 38  1  0
 14 39  1  0
 14 40  1  0
 15 41  1  0
 15 42  1  0
 21 43  1  0
 22 44  1  0
 25 45  1  0
 25 46  1  0
 25 47  1  0
 26 48  1  0
 27 49  1  0
 28 50  1  0
 28 51  1  0
 29 52  1  0
 29 53  1  0
 30 54  1  0
 31 55  1  0
M  CHG  1  10  -1
M  END
>  <UniqueID>  (19) 
19

>  <SMILES>  (19) 
CCOC(=O)c1ccc([N-]C(=O)N2CCN(S(=O)(=O)c3ccc(OC)cc3)CC2)cc1

>  <Energy>  (19) 
53.659144588930474

>  <Genealogy>  (19) 
CCOC(=O)c1ccc([N-]C(=O)N2CCN(S(=O)(=O)c3ccc(OC)cc3)CC2)cc1 (protonated)
CCOC(=O)c1ccc([N-]C(=O)N2CCN(S(=O)(=O)c3ccc(OC)cc3)CC2)cc1 (3D coordinates assigned)
CCOC(=O)c1ccc([N-]C(=O)N2CCN(S(=O)(=O)c3ccc(OC)cc3)CC2)cc1 (nonaromatic ring conformer: 53.659144588930474 kcal/mol)

>  <smiles>  (19) 
CCOC(=O)c1ccc(NC(=O)N2CCN(S(=O)(=O)c3ccc(OC)cc3)CC2)cc1

>  <score_type>  (19) 
oracle

>  <origin>  (19) 
adg

>  <m_score__min__energy>  (19) 
-10.92

>  <m_primary>  (19) 
energy

$$$$
19:0
     RDKit          3D

 31 33  0  0  0  0  0  0  0  0999 V2000
   55.1940   29.3490   44.8900 O   0  0  0  0  0  0  0  0  0  0  0  0
   56.3790   29.7710   44.7900 C   0  0  0  0  0  0  0  0  0  0  0  0
   56.6320   31.0740   44.3330 O   0  0  0  0  0  0  0  0  0  0  0  0
   57.3910   32.0390   45.0110 C   0  0  0  0  0  0  0  0  0  0  0  0
   57.7280   33.2750   44.4290 C   0  0  0  0  0  0  0  0  0  0  0  0
   58.4740   34.2150   45.1430 C   0  0  0  0  0  0  0  0  0  0  0  0
   58.8890   33.9390   46.4540 C   0  0  0  0  0  0  0  0  0  0  0  0
   59.6410   34.8740   47.1800 C   0  0  0  0  0  0  0  0  0  0  0  0
   60.0430   34.5890   48.4880 C   0  0  0  0  0  0  0  0  0  0  0  0
   59.6960   33.3710   49.0790 C   0  0  0  0  0  0  0  0  0  0  0  0
   58.9470   32.4310   48.3680 C   0  0  0  0  0  0  0  0  0  0  0  0
   58.5390   32.7050   47.0520 C   0  0  0  0  0  0  0  0  0  0  0  0
   57.7860   31.7690   46.3270 C   0  0  0  0  0  0  0  0  0  0  0  0
   57.5130   28.8710   45.0960 C   0  0  0  0  0  0  0  0  0  0  0  0
   58.7870   29.1070   44.5470 C   0  0  0  0  0  0  0  0  0  0  0  0
   59.8530   28.2500   44.8400 C   0  0  0  0  0  0  0  0  0  0  0  0
   59.6590   27.1530   45.6820 C   0  0  0  0  0  0  0  0  0  0  0  0
   58.3990   26.9090   46.2310 C   0  0  0  0  0  0  0  0  0  0  0  0
   57.3290   27.7620   45.9420 C   0  0  0  0  0  0  0  0  0  0  0  0
   57.4012   33.5025   43.4036 H   0  0  0  0  0  0  0  0  0  0  0  0
   58.7371   35.1754   44.6756 H   0  0  0  0  0  0  0  0  0  0  0  0
   59.9152   35.8343   46.7188 H   0  0  0  0  0  0  0  0  0  0  0  0
   60.6337   35.3249   49.0533 H   0  0  0  0  0  0  0  0  0  0  0  0
   60.0143   33.1518   50.1089 H   0  0  0  0  0  0  0  0  0  0  0  0
   58.6761   31.4746   48.8391 H   0  0  0  0  0  0  0  0  0  0  0  0
   57.5036   30.8151   46.7964 H   0  0  0  0  0  0  0  0  0  0  0  0
   58.9455   29.9702   43.8838 H   0  0  0  0  0  0  0  0  0  0  0  0
   60.8458   28.4405   44.4064 H   0  0  0  0  0  0  0  0  0  0  0  0
   60.4990   26.4812   45.9126 H   0  0  0  0  0  0  0  0  0  0  0  0
   58.2472   26.0435   46.8927 H   0  0  0  0  0  0  0  0  0  0  0  0
   56.3387   27.5649   46.3783 H   0  0  0  0  0  0  0  0  0  0  0  0
  1  2  2  0
  2  3  1  0
  3  4  1  0
  4  5  2  0
  5  6  1  0
  6  7  2  0
  7  8  1  0
  8  9  2  0
  9 10  1  0
 10 11  2  0
 11 12  1  0
 12 13  2  0
  2 14  1  0
 14 15  2  0
 15 16  1  0
 16 17  2  0
 17 18  1  0
 18 19  2  0
 13  4  1  0
 19 14  1  0
 12  7  1  0
  5 20  1  0
  6 21  1  0
  8 22  1  0
  9 23  1  0
 10 24  1  0
 11 25  1  0
 13 26  1  0
 15 27  1  0
 16 28  1  0
 17 29  1  0
 18 30  1  0
 19 31  1  0
M  END
>  <UniqueID>  (20) 
20

>  <SMILES>  (20) 
O=C(Oc1ccc2ccccc2c1)c1ccccc1

>  <Energy>  (20) 
42.04805821978904

>  <Genealogy>  (20) 
O=C(Oc1ccc2ccccc2c1)c1ccccc1 (3D coordinates assigned)
O=C(Oc1ccc2ccccc2c1)c1ccccc1 (optimized conformer: 42.04805821978904 kcal/mol)

>  <smiles>  (20) 
O=C(Oc1ccc2ccccc2c1)c1ccccc1

>  <score_type>  (20) 
oracle

>  <origin>  (20) 
adg

>  <m_score__min__energy>  (20) 
-7.6900000000000004

>  <m_primary>  (20) 
energy

$$$$
20:0
     RDKit          3D

 25 26  0  0  0  0  0  0  0  0999 V2000
   52.4870   23.8170   44.4340 H   0  0  0  0  0  0  0  0  0  0  0  0
   53.3090   23.3790   44.9060 N   0  0  0  0  0  0  0  0  0  0  0  0
   54.2380   24.1040   45.4390 C   0  0  0  0  0  0  0  0  0  0  0  0
   54.1160   25.4350   45.6200 N   0  0  0  0  0  0  0  0  0  0  0  0
   55.1930   25.9770   46.1840 N   0  0  0  0  0  0  0  0  0  0  0  0
   56.1650   25.0760   46.4470 C   0  0  0  0  0  0  0  0  0  0  0  0
   57.7290   25.5010   47.2040 S   0  0  0  0  0  0  0  0  0  0  0  0
   58.5790   25.7070   45.6070 C   0  0  0  0  0  0  0  0  0  0  0  0
   59.6023   25.3107   45.6826 H   0  0  0  0  0  0  0  0  0  0  0  0
   58.0302   25.1595   44.8265 H   0  0  0  0  0  0  0  0  0  0  0  0
   58.6320   27.1650   45.2520 C   0  0  0  0  0  0  0  0  0  0  0  0
   59.8570   27.8490   45.2600 C   0  0  0  0  0  0  0  0  0  0  0  0
   60.7752   27.3249   45.5637 H   0  0  0  0  0  0  0  0  0  0  0  0
   59.9150   29.1920   44.8840 C   0  0  0  0  0  0  0  0  0  0  0  0
   60.8783   29.7230   44.8930 H   0  0  0  0  0  0  0  0  0  0  0  0
   58.7520   29.8640   44.4960 C   0  0  0  0  0  0  0  0  0  0  0  0
   58.8063   30.9193   44.1905 H   0  0  0  0  0  0  0  0  0  0  0  0
   57.5140   29.1990   44.4940 C   0  0  0  0  0  0  0  0  0  0  0  0
   56.2680   29.9050   44.0200 C   0  0  0  0  0  0  0  0  0  0  0  0
   55.1380   29.3270   44.5740 F   0  0  0  0  0  0  0  0  0  0  0  0
   56.1600   29.8300   42.6420 F   0  0  0  0  0  0  0  0  0  0  0  0
   56.3260   31.2320   44.3970 F   0  0  0  0  0  0  0  0  0  0  0  0
   57.4690   27.8390   44.8490 C   0  0  0  0  0  0  0  0  0  0  0  0
   56.5121   27.2978   44.8104 H   0  0  0  0  0  0  0  0  0  0  0  0
   55.7210   23.5170   45.9810 S   0  0  0  0  0  0  0  0  0  0  0  0
  1  2  1  0
  2  3  2  0
  3  4  1  0
  4  5  1  0
  5  6  2  0
  6  7  1  0
  7  8  1  0
  8  9  1  0
  8 10  1  0
  8 11  1  0
 11 12  2  0
 12 13  1  0
 12 14  1  0
 14 15  1  0
 14 16  2  0
 16 17  1  0
 16 18  1  0
 18 19  1  0
 19 20  1  0
 19 21  1  0
 19 22  1  0
 18 23  2  0
 23 24  1  0
  6 25  1  0
 25  3  1  0
 23 11  1  0
M  CHG  1   4  -1
M  END
>  <UniqueID>  (21) 
21

>  <SMILES>  (21) 
[H]/N=c1/[n-]nc(SCc2cccc(C(F)(F)F)c2)s1

>  <Energy>  (21) 
55.83894286070302

>  <Genealogy>  (21) 
N=c1[n-]nc(SCc2cccc(C(F)(F)F)c2)s1 (protonated)
[H]/N=c1/[n-]nc(SCc2cccc(C(F)(F)F)c2)s1 (cis-trans isomerization)
[H]/N=c1/[n-]nc(SCc2cccc(C(F)(F)F)c2)s1 (3D coordinates assigned)
[H]/N=c1/[n-]nc(SCc2cccc(C(F)(F)F)c2)s1 (optimized conformer: 55.83894286070302 kcal/mol)

>  <smiles>  (21) 
N=c1[nH]nc(SCc2cccc(C(F)(F)F)c2)s1

>  <score_type>  (21) 
oracle

>  <origin>  (21) 
adg

>  <m_score__min__energy>  (21) 
-8.8900000000000006

>  <m_primary>  (21) 
energy

$$$$
21:0
     RDKit          3D

 20 22  0  0  0  0  0  0  0  0999 V2000
   57.2880   29.4440   51.9920 O   0  0  0  0  0  0  0  0  0  0  0  0
   56.0910   29.5800   52.3590 C   0  0  0  0  0  0  0  0  0  0  0  0
   55.2810   30.4910   51.7470 N   0  0  0  0  0  0  0  0  0  0  0  0
   53.9790   30.6580   52.1260 C   0  0  0  0  0  0  0  0  0  0  0  0
   53.1690   31.5990   51.4820 C   0  0  0  0  0  0  0  0  0  0  0  0
   51.8350   31.7620   51.8770 C   0  0  0  0  0  0  0  0  0  0  0  0
   51.0330   32.6980   51.2370 O   0  0  0  0  0  0  0  0  0  0  0  0
   51.3090   30.9860   52.9170 C   0  0  0  0  0  0  0  0  0  0  0  0
   52.1080   30.0400   53.5680 C   0  0  0  0  0  0  0  0  0  0  0  0
   53.4470   29.8700   53.1780 C   0  0  0  0  0  0  0  0  0  0  0  0
   54.2810   28.9680   53.7700 N   0  0  0  0  0  0  0  0  0  0  0  0
   54.0860   28.0940   54.7710 C   0  0  0  0  0  0  0  0  0  0  0  0
   55.2790   27.4210   54.9690 C   0  0  0  0  0  0  0  0  0  0  0  0
   56.2170   27.8680   54.1010 N   0  0  0  0  0  0  0  0  0  0  0  0
   55.5610   28.8090   53.3930 C   0  0  0  0  0  0  0  0  0  0  0  0
   53.5795   32.2110   50.6654 H   0  0  0  0  0  0  0  0  0  0  0  0
   50.2614   31.1210   53.2240 H   0  0  0  0  0  0  0  0  0  0  0  0
   51.6892   29.4311   54.3828 H   0  0  0  0  0  0  0  0  0  0  0  0
   53.1510   27.9413   55.3300 H   0  0  0  0  0  0  0  0  0  0  0  0
   55.4416   26.6364   55.7226 H   0  0  0  0  0  0  0  0  0  0  0  0
  1  2  2  0
  2  3  1  0
  3  4  1  0
  4  5  2  0
  5  6  1  0
  6  7  1  0
  6  8  2  0
  8  9  1  0
  9 10  2  0
 10 11  1  0
 11 12  1  0
 12 13  2  0
 13 14  1  0
 14 15  2  0
 15  2  1  0
 10  4  1  0
 15 11  1  0
  5 16  1  0
  8 17  1  0
  9 18  1  0
 12 19  1  0
 13 20  1  0
M  CHG  2   3  -1   7  -1
M  END
>  <UniqueID>  (22) 
22

>  <SMILES>  (22) 
O=c1[n-]c2cc([O-])ccc2n2ccnc12

>  <Energy>  (22) 
62.98002113914432

>  <Genealogy>  (22) 
O=c1[n-]c2cc([O-])ccc2n2ccnc12 (protonated)
O=c1[n-]c2cc([O-])ccc2n2ccnc12 (3D coordinates assigned)
O=c1[n-]c2cc([O-])ccc2n2ccnc12 (optimized conformer: 62.98002113914432 kcal/mol)

>  <smiles>  (22) 
O=c1[nH]c2cc(O)ccc2n2ccnc12

>  <score_type>  (22) 
oracle

>  <origin>  (22) 
adg

>  <m_score__min__energy>  (22) 
-10.44

>  <m_primary>  (22) 
energy

$$$$
22:0
     RDKit          3D

 39 41  0  0  1  0  0  0  0  0999 V2000
   58.5730   32.3520   50.3350 C   0  0  0  0  0  0  0  0  0  0  0  0
   59.2160   31.7550   49.2090 O   0  0  0  0  0  0  0  0  0  0  0  0
   60.4410   32.2730   48.7990 C   0  0  0  0  0  0  0  0  0  0  0  0
   61.1550   33.1750   49.5960 C   0  0  0  0  0  0  0  0  0  0  0  0
   62.3800   33.6720   49.1500 C   0  0  0  0  0  0  0  0  0  0  0  0
   62.9060   33.2880   47.9310 C   0  0  0  0  0  0  0  0  0  0  0  0
   62.2060   32.3990   47.1430 C   0  0  0  0  0  0  0  0  0  0  0  0
   60.9930   31.9100   47.5880 C   0  0  0  0  0  0  0  0  0  0  0  0
   60.2670   30.9700   46.7390 C   0  0  0  0  0  0  0  0  0  0  0  0
   60.7850   29.9820   45.9850 N   0  0  0  0  0  0  0  0  0  0  0  0
   59.8260   29.3400   45.3550 N   0  0  0  0  0  0  0  0  0  0  0  0
   58.6730   29.9170   45.7070 C   0  0  0  0  0  0  0  0  0  0  0  0
   57.4950   29.5610   45.2890 N   0  0  0  0  0  0  0  0  0  0  0  0
   56.7820   30.4460   44.4030 C   0  0  0  0  0  0  0  0  0  0  0  0
   55.5490   30.4180   44.5510 O   0  0  0  0  0  0  0  0  0  0  0  0
   57.5840   31.2120   43.4980 C   0  0  0  0  0  0  0  0  0  0  0  0
   57.8140   32.4930   43.5120 C   0  0  0  0  0  0  0  0  0  0  0  0
   58.2030   33.3090   44.6220 C   0  0  0  0  0  0  0  0  0  0  0  0
   57.4310   33.1670   45.7830 C   0  0  0  0  0  0  0  0  0  0  0  0
   57.7460   33.8250   46.9400 C   0  0  0  0  0  0  0  0  0  0  0  0
   58.8290   34.6670   47.0510 C   0  0  0  0  0  0  0  0  0  0  0  0
   59.6020   34.8180   45.9210 C   0  0  0  0  0  0  0  0  0  0  0  0
   59.2810   34.1400   44.7280 C   0  0  0  0  0  0  0  0  0  0  0  0
   58.9700   30.9010   46.5450 O   0  0  0  0  0  0  0  0  0  0  0  0
   59.0073   31.9487   51.2617 H   0  0  0  0  0  0  0  0  0  0  0  0
   58.7192   33.4418   50.3055 H   0  0  0  0  0  0  0  0  0  0  0  0
   57.4970   32.1255   50.3055 H   0  0  0  0  0  0  0  0  0  0  0  0
   60.7522   33.4907   50.5697 H   0  0  0  0  0  0  0  0  0  0  0  0
   62.9368   34.3818   49.7795 H   0  0  0  0  0  0  0  0  0  0  0  0
   63.8734   33.6876   47.5928 H   0  0  0  0  0  0  0  0  0  0  0  0
   62.6094   32.0823   46.1698 H   0  0  0  0  0  0  0  0  0  0  0  0
   59.8720   28.5310   44.6970 H   0  0  0  0  0  0  0  0  0  0  0  0
   58.0673   30.6462   42.6879 H   0  0  0  0  0  0  0  0  0  0  0  0
   57.6945   33.0138   42.5505 H   0  0  0  0  0  0  0  0  0  0  0  0
   56.5493   32.5096   45.7633 H   0  0  0  0  0  0  0  0  0  0  0  0
   57.1050   33.6745   47.8212 H   0  0  0  0  0  0  0  0  0  0  0  0
   59.0641   35.1901   47.9896 H   0  0  0  0  0  0  0  0  0  0  0  0
   60.4822   35.4771   45.9502 H   0  0  0  0  0  0  0  0  0  0  0  0
   59.9242   34.2861   43.8477 H   0  0  0  0  0  0  0  0  0  0  0  0
  1  2  1  0
  2  3  1  0
  3  4  2  0
  4  5  1  0
  5  6  2  0
  6  7  1  0
  7  8  2  0
  8  9  1  0
  9 10  2  0
 10 11  1  0
 11 12  1  0
 12 13  2  0
 13 14  1  0
 14 15  2  0
 14 16  1  0
 16 17  2  0
 17 18  1  0
 18 19  2  0
 19 20  1  0
 20 21  2  0
 21 22  1  0
 22 23  2  0
 12 24  1  0
  8  3  1  0
 24  9  1  0
 23 18  1  0
  1 25  1  0
  1 26  1  0
  1 27  1  0
  4 28  1  0
  5 29  1  0
  6 30  1  0
  7 31  1  0
 11 32  1  0
 16 33  1  0
 17 34  1  0
 19 35  1  0
 20 36  1  0
 21 37  1  0
 22 38  1  0
 23 39  1  0
M  END
>  <smiles>  (23) 
COc1ccccc1-c1n[nH]c(=NC(=O)C=Cc2ccccc2)o1

>  <score_type>  (23) 
oracle

>  <origin>  (23) 
adg

>  <m_score__min__energy>  (23) 
-8.7100000000000009

>  <m_primary>  (23) 
energy

$$$$
23:0
     RDKit          3D

 35 37  0  0  0  0  0  0  0  0999 V2000
   58.4760   26.0680   47.4900 C   0  0  0  0  0  0  0  0  0  0  0  0
   57.8180   27.1160   46.7060 N   0  0  0  0  0  0  0  0  0  0  0  0
   58.4370   28.4500   46.6450 C   0  0  0  0  0  0  0  0  0  0  0  0
   57.8040   29.3760   45.6280 C   0  0  0  0  0  0  0  0  0  0  0  0
   58.4350   30.5940   45.3310 C   0  0  0  0  0  0  0  0  0  0  0  0
   57.8580   31.5040   44.4300 C   0  0  0  0  0  0  0  0  0  0  0  0
   58.5460   32.7370   44.1450 N   0  0  0  0  0  0  0  0  0  0  0  0
   58.4000   34.1740   45.1060 S   0  0  0  0  0  0  0  0  0  0  0  0
   59.2530   35.2560   44.5050 O   0  0  0  0  0  0  0  0  0  0  0  0
   56.9670   34.6240   45.1070 O   0  0  0  0  0  0  0  0  0  0  0  0
   58.8910   33.8460   46.7650 C   0  0  0  0  0  0  0  0  0  0  0  0
   60.0160   34.4780   47.3060 C   0  0  0  0  0  0  0  0  0  0  0  0
   60.3930   34.2180   48.6250 C   0  0  0  0  0  0  0  0  0  0  0  0
   59.6400   33.3220   49.3870 C   0  0  0  0  0  0  0  0  0  0  0  0
   58.5530   32.7120   48.8450 N   0  0  0  0  0  0  0  0  0  0  0  0
   58.1660   32.9500   47.5620 C   0  0  0  0  0  0  0  0  0  0  0  0
   56.6210   31.1880   43.8420 C   0  0  0  0  0  0  0  0  0  0  0  0
   55.9840   29.9830   44.1400 C   0  0  0  0  0  0  0  0  0  0  0  0
   56.5690   29.0760   45.0290 C   0  0  0  0  0  0  0  0  0  0  0  0
   55.9090   27.8450   45.3080 N   0  0  0  0  0  0  0  0  0  0  0  0
   56.5270   26.8610   46.1300 C   0  0  0  0  0  0  0  0  0  0  0  0
   55.9360   25.7670   46.3320 O   0  0  0  0  0  0  0  0  0  0  0  0
   58.3456   26.2758   48.5623 H   0  0  0  0  0  0  0  0  0  0  0  0
   58.0276   25.0931   47.2482 H   0  0  0  0  0  0  0  0  0  0  0  0
   59.5489   26.0482   47.2482 H   0  0  0  0  0  0  0  0  0  0  0  0
   58.3523   28.9165   47.6376 H   0  0  0  0  0  0  0  0  0  0  0  0
   59.4819   28.3024   46.3345 H   0  0  0  0  0  0  0  0  0  0  0  0
   59.3943   30.8392   45.8103 H   0  0  0  0  0  0  0  0  0  0  0  0
   59.1160   32.8090   43.2730 H   0  0  0  0  0  0  0  0  0  0  0  0
   60.6024   35.1785   46.6932 H   0  0  0  0  0  0  0  0  0  0  0  0
   61.2737   34.7136   49.0594 H   0  0  0  0  0  0  0  0  0  0  0  0
   59.9271   33.1096   50.4274 H   0  0  0  0  0  0  0  0  0  0  0  0
   57.2834   32.4386   47.1504 H   0  0  0  0  0  0  0  0  0  0  0  0
   56.1521   31.8954   43.1423 H   0  0  0  0  0  0  0  0  0  0  0  0
   55.0167   29.7453   43.6732 H   0  0  0  0  0  0  0  0  0  0  0  0
  1  2  1  0
  2  3  1  0
  3  4  1  0
  4  5  2  0
  5  6  1  0
  6  7  1  0
  7  8  1  0
  8  9  2  0
  8 10  2  0
  8 11  1  0
 11 12  2  0
 12 13  1  0
 13 14  2  0
 14 15  1  0
 15 16  2  0
  6 17  2  0
 17 18  1  0
 18 19  2  0
 19 20  1  0
 20 21  1  0
 21 22  2  0
 21  2  1  0
 19  4  1  0
 16 11  1  0
  1 23  1  0
  1 24  1  0
  1 25  1  0
  3 26  1  0
  3 27  1  0
  5 28  1  0
  7 29  1  0
 12 30  1  0
 13 31  1  0
 14 32  1  0
 16 33  1  0
 17 34  1  0
 18 35  1  0
M  CHG  1  20  -1
M  END
>  <UniqueID>  (24) 
23

>  <SMILES>  (24) 
CN1Cc2cc(NS(=O)(=O)c3cccnc3)ccc2[N-]C1=O

>  <Energy>  (24) 
40.54627714359041

>  <Genealogy>  (24) 
CN1Cc2cc(NS(=O)(=O)c3cccnc3)ccc2[N-]C1=O (protonated)
CN1Cc2cc(NS(=O)(=O)c3cccnc3)ccc2[N-]C1=O (3D coordinates assigned)
CN1Cc2cc(NS(=O)(=O)c3cccnc3)ccc2[N-]C1=O (nonaromatic ring conformer: 40.54627714359041 kcal/mol)

>  <smiles>  (24) 
CN1Cc2cc(NS(=O)(=O)c3cccnc3)ccc2NC1=O

>  <score_type>  (24) 
oracle

>  <origin>  (24) 
adg

>  <m_score__min__energy>  (24) 
-9.4499999999999993

>  <m_primary>  (24) 
energy

$$$$
24:0
     RDKit          3D

 33 35  0  0  0  0  0  0  0  0999 V2000
   59.5720   31.4110   47.2480 O   0  0  0  0  0  0  0  0  0  0  0  0
   58.6610   31.4670   46.3750 C   0  0  0  0  0  0  0  0  0  0  0  0
   58.3850   30.3380   45.5830 C   0  0  0  0  0  0  0  0  0  0  0  0
   59.0920   29.1290   45.7210 C   0  0  0  0  0  0  0  0  0  0  0  0
   58.7770   28.0360   44.9060 C   0  0  0  0  0  0  0  0  0  0  0  0
   57.7620   28.1400   43.9530 C   0  0  0  0  0  0  0  0  0  0  0  0
   57.0540   29.3370   43.8070 C   0  0  0  0  0  0  0  0  0  0  0  0
   57.3630   30.4360   44.6180 C   0  0  0  0  0  0  0  0  0  0  0  0
   56.6800   31.5970   44.4750 N   0  0  0  0  0  0  0  0  0  0  0  0
   56.9590   32.6770   45.2470 C   0  0  0  0  0  0  0  0  0  0  0  0
   57.9410   32.6230   46.1980 N   0  0  0  0  0  0  0  0  0  0  0  0
   58.2260   33.8330   46.9870 C   0  0  0  0  0  0  0  0  0  0  0  0
   59.2690   34.7100   46.2850 C   0  0  0  0  0  0  0  0  0  0  0  0
   60.4230   33.9520   45.9250 O   0  0  0  0  0  0  0  0  0  0  0  0
   61.4700   33.6670   46.8100 C   0  0  0  0  0  0  0  0  0  0  0  0
   62.7680   33.7920   46.4190 N   0  0  0  0  0  0  0  0  0  0  0  0
   63.7880   33.5240   47.2750 C   0  0  0  0  0  0  0  0  0  0  0  0
   63.5090   33.1120   48.5770 C   0  0  0  0  0  0  0  0  0  0  0  0
   64.9230   32.7290   49.8040 Br  0  0  0  0  0  0  0  0  0  0  0  0
   62.1760   32.9850   48.9640 C   0  0  0  0  0  0  0  0  0  0  0  0
   61.1820   33.2620   48.0770 N   0  0  0  0  0  0  0  0  0  0  0  0
   59.8929   29.0432   46.4701 H   0  0  0  0  0  0  0  0  0  0  0  0
   59.3308   27.0920   45.0165 H   0  0  0  0  0  0  0  0  0  0  0  0
   57.5185   27.2776   43.3150 H   0  0  0  0  0  0  0  0  0  0  0  0
   56.2547   29.4153   43.0554 H   0  0  0  0  0  0  0  0  0  0  0  0
   56.3889   33.6072   45.1067 H   0  0  0  0  0  0  0  0  0  0  0  0
   57.2970   34.4085   47.1123 H   0  0  0  0  0  0  0  0  0  0  0  0
   58.6241   33.5287   47.9662 H   0  0  0  0  0  0  0  0  0  0  0  0
   58.8234   35.1388   45.3753 H   0  0  0  0  0  0  0  0  0  0  0  0
   59.5778   35.5062   46.9783 H   0  0  0  0  0  0  0  0  0  0  0  0
   64.8308   33.6317   46.9418 H   0  0  0  0  0  0  0  0  0  0  0  0
   61.9278   32.6611   49.9855 H   0  0  0  0  0  0  0  0  0  0  0  0
   60.1860   33.1660   48.3770 H   0  0  0  0  0  0  0  0  0  0  0  0
  1  2  2  0
  2  3  1  0
  3  4  2  0
  4  5  1  0
  5  6  2  0
  6  7  1  0
  7  8  2  0
  8  9  1  0
  9 10  2  0
 10 11  1  0
 11 12  1  0
 12 13  1  0
 13 14  1  0
 14 15  1  0
 15 16  2  0
 16 17  1  0
 17 18  2  0
 18 19  1  0
 18 20  1  0
 20 21  2  0
 11  2  1  0
 21 15  1  0
  8  3  1  0
  4 22  1  0
  5 23  1  0
  6 24  1  0
  7 25  1  0
 10 26  1  0
 12 27  1  0
 12 28  1  0
 13 29  1  0
 13 30  1  0
 17 31  1  0
 20 32  1  0
 21 33  1  0
M  CHG  1  21   1
M  END
>  <UniqueID>  (25) 
24

>  <SMILES>  (25) 
O=c1c2ccccc2ncn1CCOc1ncc(Br)c[nH+]1

>  <Energy>  (25) 
38.63056351018402

>  <Genealogy>  (25) 
O=c1c2ccccc2ncn1CCOc1ncc(Br)c[nH+]1 (protonated)
O=c1c2ccccc2ncn1CCOc1ncc(Br)c[nH+]1 (3D coordinates assigned)
O=c1c2ccccc2ncn1CCOc1ncc(Br)c[nH+]1 (optimized conformer: 38.63056351018402 kcal/mol)

>  <smiles>  (25) 
O=c1c2ccccc2ncn1CCOc1ncc(Br)cn1

>  <score_type>  (25) 
oracle

>  <origin>  (25) 
adg

>  <m_score__min__energy>  (25) 
-5.4100000000000001

>  <m_primary>  (25) 
energy

$$$$
25:0
     RDKit          3D

 34 34  0  0  0  0  0  0  0  0999 V2000
   59.1890   30.5420   47.5830 C   0  0  0  0  0  0  0  0  0  0  0  0
   59.4860   30.8420   46.1170 C   0  0  0  0  0  0  0  0  0  0  0  0
   58.7520   29.8750   45.2070 C   0  0  0  0  0  0  0  0  0  0  0  0
   59.2740   28.5880   44.9200 C   0  0  0  0  0  0  0  0  0  0  0  0
   60.5600   28.0910   45.5280 C   0  0  0  0  0  0  0  0  0  0  0  0
   58.5510   27.7390   44.0710 C   0  0  0  0  0  0  0  0  0  0  0  0
   57.3860   28.1500   43.5110 N   0  0  0  0  0  0  0  0  0  0  0  0
   56.8760   29.3870   43.7460 C   0  0  0  0  0  0  0  0  0  0  0  0
   57.5450   30.2840   44.5990 C   0  0  0  0  0  0  0  0  0  0  0  0
   57.0610   31.5810   44.8630 O   0  0  0  0  0  0  0  0  0  0  0  0
   57.4930   32.8020   44.2590 C   0  0  0  0  0  0  0  0  0  0  0  0
   57.6390   33.9240   45.3070 C   0  0  0  0  0  0  0  0  0  0  0  0
   57.3600   33.3750   46.7120 C   0  0  0  0  0  0  0  0  0  0  0  0
   59.0250   34.5770   45.2660 C   0  0  0  0  0  0  0  0  0  0  0  0
   59.8188   31.1781   48.2223 H   0  0  0  0  0  0  0  0  0  0  0  0
   58.1288   30.7477   47.7919 H   0  0  0  0  0  0  0  0  0  0  0  0
   59.4053   29.4839   47.7919 H   0  0  0  0  0  0  0  0  0  0  0  0
   59.1637   31.8682   45.8869 H   0  0  0  0  0  0  0  0  0  0  0  0
   60.5673   30.7319   45.9478 H   0  0  0  0  0  0  0  0  0  0  0  0
   60.4826   28.1209   46.6249 H   0  0  0  0  0  0  0  0  0  0  0  0
   60.7443   27.0569   45.2015 H   0  0  0  0  0  0  0  0  0  0  0  0
   61.3919   28.7324   45.2015 H   0  0  0  0  0  0  0  0  0  0  0  0
   58.9320   26.7296   43.8567 H   0  0  0  0  0  0  0  0  0  0  0  0
   56.8690   27.5000   42.8780 H   0  0  0  0  0  0  0  0  0  0  0  0
   55.9335   29.6895   43.2661 H   0  0  0  0  0  0  0  0  0  0  0  0
   58.4658   32.6368   43.7729 H   0  0  0  0  0  0  0  0  0  0  0  0
   56.7374   33.1113   43.5218 H   0  0  0  0  0  0  0  0  0  0  0  0
   56.8998   34.7003   45.0602 H   0  0  0  0  0  0  0  0  0  0  0  0
   57.7236   34.0906   47.4642 H   0  0  0  0  0  0  0  0  0  0  0  0
   56.2775   33.2273   46.8397 H   0  0  0  0  0  0  0  0  0  0  0  0
   57.8788   32.4135   46.8397 H   0  0  0  0  0  0  0  0  0  0  0  0
   59.3817   34.7450   46.2929 H   0  0  0  0  0  0  0  0  0  0  0  0
   59.7268   33.9148   44.7378 H   0  0  0  0  0  0  0  0  0  0  0  0
   58.9612   35.5398   44.7378 H   0  0  0  0  0  0  0  0  0  0  0  0
  1  2  1  0
  2  3  1  0
  3  4  2  0
  4  5  1  0
  4  6  1  0
  6  7  2  0
  7  8  1  0
  8  9  2  0
  9 10  1  0
 10 11  1  0
 11 12  1  0
 12 13  1  0
 12 14  1  0
  9  3  1  0
  1 15  1  0
  1 16  1  0
  1 17  1  0
  2 18  1  0
  2 19  1  0
  5 20  1  0
  5 21  1  0
  5 22  1  0
  6 23  1  0
  7 24  1  0
  8 25  1  0
 11 26  1  0
 11 27  1  0
 12 28  1  0
 13 29  1  0
 13 30  1  0
 13 31  1  0
 14 32  1  0
 14 33  1  0
 14 34  1  0
M  CHG  1   7   1
M  END
>  <UniqueID>  (26) 
25

>  <SMILES>  (26) 
CCc1c(C)c[nH+]cc1OCC(C)C

>  <Energy>  (26) 
26.805422791354076

>  <Genealogy>  (26) 
CCc1c(C)c[nH+]cc1OCC(C)C (protonated)
CCc1c(C)c[nH+]cc1OCC(C)C (3D coordinates assigned)
CCc1c(C)c[nH+]cc1OCC(C)C (optimized conformer: 26.805422791354076 kcal/mol)

>  <smiles>  (26) 
CCc1c(C)cncc1OCC(C)C

>  <score_type>  (26) 
oracle

>  <origin>  (26) 
adg

>  <m_score__min__energy>  (26) 
-4.3200000000000003

>  <m_primary>  (26) 
energy

$$$$
26:0
     RDKit          3D

 57 60  0  0  0  0  0  0  0  0999 V2000
   53.1810   21.9490   48.8700 C   0  0  0  0  0  0  0  0  0  0  0  0
   53.2760   22.5530   47.5830 O   0  0  0  0  0  0  0  0  0  0  0  0
   54.4580   23.0700   47.0330 C   0  0  0  0  0  0  0  0  0  0  0  0
   55.5960   23.3310   47.8200 C   0  0  0  0  0  0  0  0  0  0  0  0
   56.7550   23.8460   47.2370 C   0  0  0  0  0  0  0  0  0  0  0  0
   56.7980   24.1120   45.8620 C   0  0  0  0  0  0  0  0  0  0  0  0
   58.0690   24.6130   45.2240 C   0  0  0  0  0  0  0  0  0  0  0  0
   58.6860   25.7640   46.0290 C   0  0  0  0  0  0  0  0  0  0  0  0
   57.9790   27.0180   45.7740 N   0  0  0  0  0  0  0  0  0  0  0  0
   56.6640   27.1470   45.5080 C   0  0  0  0  0  0  0  0  0  0  0  0
   56.3920   28.4680   45.2330 C   0  0  0  0  0  0  0  0  0  0  0  0
   55.1490   28.9730   44.8730 O   0  0  0  0  0  0  0  0  0  0  0  0
   57.5780   29.1770   45.3340 C   0  0  0  0  0  0  0  0  0  0  0  0
   57.7970   30.6240   45.1010 C   0  0  0  0  0  0  0  0  0  0  0  0
   57.6220   31.1850   43.8290 C   0  0  0  0  0  0  0  0  0  0  0  0
   57.8170   32.5500   43.6350 C   0  0  0  0  0  0  0  0  0  0  0  0
   58.1880   33.3560   44.7130 C   0  0  0  0  0  0  0  0  0  0  0  0
   58.3530   34.5930   44.5210 O   0  0  0  0  0  0  0  0  0  0  0  0
   58.3670   32.8090   45.9590 N   0  0  0  0  0  0  0  0  0  0  0  0
   58.7250   33.6530   47.1120 C   0  0  0  0  0  0  0  0  0  0  0  0
   60.2080   33.5850   47.3660 C   0  0  0  0  0  0  0  0  0  0  0  0
   60.6990   33.1120   48.5940 C   0  0  0  0  0  0  0  0  0  0  0  0
   62.0760   33.0170   48.8120 C   0  0  0  0  0  0  0  0  0  0  0  0
   62.9730   33.3850   47.8050 C   0  0  0  0  0  0  0  0  0  0  0  0
   62.4920   33.8480   46.5770 C   0  0  0  0  0  0  0  0  0  0  0  0
   61.1150   33.9450   46.3550 C   0  0  0  0  0  0  0  0  0  0  0  0
   58.1680   31.4680   46.1600 C   0  0  0  0  0  0  0  0  0  0  0  0
   58.5450   28.2390   45.6640 C   0  0  0  0  0  0  0  0  0  0  0  0
   55.6700   23.8460   45.0720 C   0  0  0  0  0  0  0  0  0  0  0  0
   54.4960   23.3270   45.6530 C   0  0  0  0  0  0  0  0  0  0  0  0
   53.3480   23.0510   44.8940 O   0  0  0  0  0  0  0  0  0  0  0  0
   52.2240   23.9190   44.7870 C   0  0  0  0  0  0  0  0  0  0  0  0
   53.3021   22.7189   49.6462 H   0  0  0  0  0  0  0  0  0  0  0  0
   52.1965   21.4704   48.9787 H   0  0  0  0  0  0  0  0  0  0  0  0
   53.9710   21.1913   48.9787 H   0  0  0  0  0  0  0  0  0  0  0  0
   55.5715   23.1278   48.9008 H   0  0  0  0  0  0  0  0  0  0  0  0
   57.6394   24.0441   47.8604 H   0  0  0  0  0  0  0  0  0  0  0  0
   58.7924   23.7860   45.1707 H   0  0  0  0  0  0  0  0  0  0  0  0
   57.8265   24.9863   44.2181 H   0  0  0  0  0  0  0  0  0  0  0  0
   58.6236   25.5272   47.1014 H   0  0  0  0  0  0  0  0  0  0  0  0
   59.7354   25.8840   45.7220 H   0  0  0  0  0  0  0  0  0  0  0  0
   55.9279   26.3296   45.5103 H   0  0  0  0  0  0  0  0  0  0  0  0
   57.3301   30.5461   42.9824 H   0  0  0  0  0  0  0  0  0  0  0  0
   57.6794   32.9914   42.6369 H   0  0  0  0  0  0  0  0  0  0  0  0
   58.4397   34.6945   46.9024 H   0  0  0  0  0  0  0  0  0  0  0  0
   58.1913   33.2893   48.0024 H   0  0  0  0  0  0  0  0  0  0  0  0
   59.9969   32.8152   49.3871 H   0  0  0  0  0  0  0  0  0  0  0  0
   62.4549   32.6519   49.7780 H   0  0  0  0  0  0  0  0  0  0  0  0
   64.0566   33.3103   47.9789 H   0  0  0  0  0  0  0  0  0  0  0  0
   63.1978   34.1365   45.7841 H   0  0  0  0  0  0  0  0  0  0  0  0
   60.7403   34.3045   45.3853 H   0  0  0  0  0  0  0  0  0  0  0  0
   58.3011   31.0461   47.1671 H   0  0  0  0  0  0  0  0  0  0  0  0
   59.6127   28.4571   45.8136 H   0  0  0  0  0  0  0  0  0  0  0  0
   55.7021   24.0441   43.9905 H   0  0  0  0  0  0  0  0  0  0  0  0
   51.8729   24.1901   45.7936 H   0  0  0  0  0  0  0  0  0  0  0  0
   52.5144   24.8295   44.2424 H   0  0  0  0  0  0  0  0  0  0  0  0
   51.4165   23.4078   44.2424 H   0  0  0  0  0  0  0  0  0  0  0  0
  1  2  1  0
  2  3  1  0
  3  4  2  0
  4  5  1  0
  5  6  2  0
  6  7  1  0
  7  8  1  0
  8  9  1  0
  9 10  1  0
 10 11  2  0
 11 12  1  0
 11 13  1  0
 13 14  1  0
 14 15  1  0
 15 16  2  0
 16 17  1  0
 17 18  2  0
 17 19  1  0
 19 20  1  0
 20 21  1  0
 21 22  2  0
 22 23  1  0
 23 24  2  0
 24 25  1  0
 25 26  2  0
 19 27  1  0
 13 28  2  0
  6 29  1  0
 29 30  2  0
 30 31  1  0
 31 32  1  0
 30  3  1  0
 28  9  1  0
 27 14  2  0
 26 21  1  0
  1 33  1  0
  1 34  1  0
  1 35  1  0
  4 36  1  0
  5 37  1  0
  7 38  1  0
  7 39  1  0
  8 40  1  0
  8 41  1  0
 10 42  1  0
 15 43  1  0
 16 44  1  0
 20 45  1  0
 20 46  1  0
 22 47  1  0
 23 48  1  0
 24 49  1  0
 25 50  1  0
 26 51  1  0
 27 52  1  0
 28 53  1  0
 29 54  1  0
 32 55  1  0
 32 56  1  0
 32 57  1  0
M  CHG  1  12  -1
M  END
>  <UniqueID>  (27) 
26

>  <SMILES>  (27) 
COc1ccc(CCn2cc([O-])c(-c3ccc(=O)n(Cc4ccccc4)c3)c2)cc1OC

>  <Energy>  (27) 
87.68122565243922

>  <Genealogy>  (27) 
COc1ccc(CCn2cc([O-])c(-c3ccc(=O)n(Cc4ccccc4)c3)c2)cc1OC (protonated)
COc1ccc(CCn2cc([O-])c(-c3ccc(=O)n(Cc4ccccc4)c3)c2)cc1OC (3D coordinates assigned)
COc1ccc(CCn2cc([O-])c(-c3ccc(=O)n(Cc4ccccc4)c3)c2)cc1OC (optimized conformer: 87.68122565243922 kcal/mol)

>  <smiles>  (27) 
COc1ccc(CCn2cc(O)c(-c3ccc(=O)n(Cc4ccccc4)c3)c2)cc1OC

>  <score_type>  (27) 
oracle

>  <origin>  (27) 
adg

>  <m_score__min__energy>  (27) 
-12.449999999999999

>  <m_primary>  (27) 
energy

$$$$
27:0
     RDKit          3D

 59 62  0  0  0  0  0  0  0  0999 V2000
   58.8759   34.1008   54.1296 H   0  0  0  0  0  0  0  0  0  0  0  0
   59.2120   33.6610   53.1790 C   0  0  0  0  0  0  0  0  0  0  0  0
   59.8950   32.5060   53.0590 N   0  0  0  0  0  0  0  0  0  0  0  0
   60.1290   32.2910   51.7710 N   0  0  0  0  0  0  0  0  0  0  0  0
   60.8520   31.0910   51.3050 C   0  0  1  0  0  0  0  0  0  0  0  0
   61.1453   30.5223   52.1998 H   0  0  0  0  0  0  0  0  0  0  0  0
   59.9540   30.1170   50.5000 C   0  0  0  0  0  0  0  0  0  0  0  0
   59.7518   29.2287   51.1165 H   0  0  0  0  0  0  0  0  0  0  0  0
   59.0232   30.6449   50.2454 H   0  0  0  0  0  0  0  0  0  0  0  0
   60.6200   29.6700   49.1890 C   0  0  0  0  0  0  0  0  0  0  0  0
   61.5112   29.0693   49.4233 H   0  0  0  0  0  0  0  0  0  0  0  0
   59.8986   29.0734   48.6114 H   0  0  0  0  0  0  0  0  0  0  0  0
   61.0230   30.8420   48.3810 N   0  0  2  0  0  0  0  0  0  0  0  0
   60.1440   31.3840   48.2090 H   0  0  0  0  0  0  0  0  0  0  0  0
   61.4870   30.4650   47.0200 C   0  0  0  0  0  0  0  0  0  0  0  0
   62.2747   29.7043   47.1237 H   0  0  0  0  0  0  0  0  0  0  0  0
   61.8434   31.3898   46.5429 H   0  0  0  0  0  0  0  0  0  0  0  0
   60.4010   29.9040   46.1190 C   0  0  0  0  0  0  0  0  0  0  0  0
   60.6480   28.7620   45.3380 C   0  0  0  0  0  0  0  0  0  0  0  0
   61.6339   28.2758   45.3768 H   0  0  0  0  0  0  0  0  0  0  0  0
   59.6490   28.2410   44.5130 C   0  0  0  0  0  0  0  0  0  0  0  0
   59.8557   27.3558   43.8936 H   0  0  0  0  0  0  0  0  0  0  0  0
   58.3890   28.8400   44.4720 C   0  0  0  0  0  0  0  0  0  0  0  0
   57.6096   28.4289   43.8136 H   0  0  0  0  0  0  0  0  0  0  0  0
   58.1110   29.9600   45.2630 C   0  0  0  0  0  0  0  0  0  0  0  0
   56.8220   30.5130   45.2050 O   0  0  0  0  0  0  0  0  0  0  0  0
   55.9600   30.4260   44.0730 C   0  0  0  0  0  0  0  0  0  0  0  0
   54.9189   30.3209   44.4121 H   0  0  0  0  0  0  0  0  0  0  0  0
   56.0578   31.3386   43.4667 H   0  0  0  0  0  0  0  0  0  0  0  0
   56.2382   29.5514   43.4667 H   0  0  0  0  0  0  0  0  0  0  0  0
   59.1220   30.4850   46.0920 C   0  0  0  0  0  0  0  0  0  0  0  0
   58.9078   31.3589   46.7247 H   0  0  0  0  0  0  0  0  0  0  0  0
   61.9680   31.7640   49.0820 C   0  0  0  0  0  0  0  0  0  0  0  0
   62.9488   31.6896   48.5896 H   0  0  0  0  0  0  0  0  0  0  0  0
   61.5282   32.7701   49.0170 H   0  0  0  0  0  0  0  0  0  0  0  0
   62.1590   31.4670   50.5800 C   0  0  0  0  0  0  0  0  0  0  0  0
   62.8662   30.6306   50.6815 H   0  0  0  0  0  0  0  0  0  0  0  0
   62.5335   32.3898   51.0471 H   0  0  0  0  0  0  0  0  0  0  0  0
   59.5980   33.3150   51.0610 C   0  0  0  0  0  0  0  0  0  0  0  0
   59.6530   33.4070   49.7630 N   0  0  0  0  0  0  0  0  0  0  0  0
   58.7610   32.8180   48.8030 C   0  0  0  0  0  0  0  0  0  0  0  0
   58.1730   31.7290   49.0460 O   0  0  0  0  0  0  0  0  0  0  0  0
   58.6450   33.4160   47.4620 C   0  0  0  0  0  0  0  0  0  0  0  0
   57.3810   33.5110   46.8620 C   0  0  0  0  0  0  0  0  0  0  0  0
   56.4885   33.1786   47.4124 H   0  0  0  0  0  0  0  0  0  0  0  0
   57.2480   34.0250   45.5700 C   0  0  0  0  0  0  0  0  0  0  0  0
   56.2536   34.0923   45.1045 H   0  0  0  0  0  0  0  0  0  0  0  0
   58.3760   34.4530   44.8700 C   0  0  0  0  0  0  0  0  0  0  0  0
   58.2715   34.8441   43.8472 H   0  0  0  0  0  0  0  0  0  0  0  0
   59.6380   34.3860   45.4650 C   0  0  0  0  0  0  0  0  0  0  0  0
   60.5229   34.7302   44.9096 H   0  0  0  0  0  0  0  0  0  0  0  0
   59.7850   33.8800   46.7730 C   0  0  0  0  0  0  0  0  0  0  0  0
   61.0310   33.8500   47.4180 O   0  0  0  0  0  0  0  0  0  0  0  0
   62.2890   33.8650   46.7490 C   0  0  0  0  0  0  0  0  0  0  0  0
   63.0996   33.8747   47.4925 H   0  0  0  0  0  0  0  0  0  0  0  0
   62.3800   32.9679   46.1190 H   0  0  0  0  0  0  0  0  0  0  0  0
   62.3586   34.7640   46.1190 H   0  0  0  0  0  0  0  0  0  0  0  0
   58.9970   34.2100   51.9310 C   0  0  0  0  0  0  0  0  0  0  0  0
   58.4698   35.1433   51.6841 H   0  0  0  0  0  0  0  0  0  0  0  0
  1  2  1  0
  2  3  1  0
  3  4  1  0
  4  5  1  0
  5  6  1  1
  5  7  1  0
  7  8  1  0
  7  9  1  0
  7 10  1  0
 10 11  1  0
 10 12  1  0
 10 13  1  0
 13 14  1  6
 13 15  1  0
 15 16  1  0
 15 17  1  0
 15 18  1  0
 18 19  2  0
 19 20  1  0
 19 21  1  0
 21 22  1  0
 21 23  2  0
 23 24  1  0
 23 25  1  0
 25 26  1  0
 26 27  1  0
 27 28  1  0
 27 29  1  0
 27 30  1  0
 25 31  2  0
 31 32  1  0
 13 33  1  0
 33 34  1  0
 33 35  1  0
 33 36  1  0
 36 37  1  0
 36 38  1  0
  4 39  1  0
 39 40  2  0
 40 41  1  0
 41 42  2  0
 41 43  1  0
 43 44  2  0
 44 45  1  0
 44 46  1  0
 46 47  1  0
 46 48  2  0
 48 49  1  0
 48 50  1  0
 50 51  1  0
 50 52  2  0
 52 53  1  0
 53 54  1  0
 54 55  1  0
 54 56  1  0
 54 57  1  0
 39 58  1  0
 58 59  1  0
 58  2  2  0
 36  5  1  0
 52 43  1  0
 31 18  1  0
M  CHG  2   3  -1  13   1
M  END
>  <UniqueID>  (28) 
27

>  <SMILES>  (28) 
COc1cccc(C[NH+]2CCC(n3[n-]cc/c3=N\C(=O)c3ccccc3OC)CC2)c1

>  <Energy>  (28) 
113.74134622975433

>  <Genealogy>  (28) 
COc1cccc(C[NH+]2CCC(n3[n-]ccc3=NC(=O)c3ccccc3OC)CC2)c1 (protonated)
COc1cccc(C[NH+]2CCC(n3[n-]cc/c3=N\C(=O)c3ccccc3OC)CC2)c1 (cis-trans isomerization)
COc1cccc(C[NH+]2CCC(n3[n-]cc/c3=N\C(=O)c3ccccc3OC)CC2)c1 (3D coordinates assigned)
COc1cccc(C[NH+]2CCC(n3[n-]cc/c3=N\C(=O)c3ccccc3OC)CC2)c1 (nonaromatic ring conformer: 113.74134622975433 kcal/mol)

>  <smiles>  (28) 
COc1cccc(CN2CCC(n3[nH]ccc3=NC(=O)c3ccccc3OC)CC2)c1

>  <score_type>  (28) 
oracle

>  <origin>  (28) 
adg

>  <m_score__min__energy>  (28) 
-8.2300000000000004

>  <m_primary>  (28) 
energy

$$$$
28:0
     RDKit          3D

 39 40  0  0  1  0  0  0  0  0999 V2000
   58.9160   30.1580   49.3750 C   0  0  0  0  0  0  0  0  0  0  0  0
   59.3160   31.1790   48.3070 C   0  0  2  0  0  0  0  0  0  0  0  0
   58.2740   32.2450   48.1480 C   0  0  0  0  0  0  0  0  0  0  0  0
   58.4880   33.1580   47.0240 C   0  0  0  0  0  0  0  0  0  0  0  0
   59.6150   33.9880   46.9980 C   0  0  0  0  0  0  0  0  0  0  0  0
   59.8460   34.8550   45.9580 C   0  0  0  0  0  0  0  0  0  0  0  0
   58.9750   34.9460   44.8940 C   0  0  0  0  0  0  0  0  0  0  0  0
   57.8610   34.1350   44.9090 C   0  0  0  0  0  0  0  0  0  0  0  0
   57.6220   33.2600   45.9510 C   0  0  0  0  0  0  0  0  0  0  0  0
   59.6140   30.4310   47.1300 N   0  0  0  0  0  0  0  0  0  0  0  0
   58.7330   29.7190   46.5380 C   0  0  0  0  0  0  0  0  0  0  0  0
   58.0670   30.2380   45.4700 N   0  0  0  0  0  0  0  0  0  0  0  0
   57.1440   29.4620   44.8670 C   0  0  0  0  0  0  0  0  0  0  0  0
   56.2650   30.0870   43.4920 Cl  0  0  0  0  0  0  0  0  0  0  0  0
   56.8550   28.2110   45.2710 N   0  0  0  0  0  0  0  0  0  0  0  0
   57.5510   27.7530   46.3380 C   0  0  0  0  0  0  0  0  0  0  0  0
   57.2910   26.5580   46.7430 N   0  0  0  0  0  0  0  0  0  0  0  0
   57.2880   25.3930   45.8790 C   0  0  0  0  0  0  0  0  0  0  0  0
   55.8120   25.1500   45.5430 C   0  0  0  0  0  0  0  0  0  0  0  0
   55.0400   26.2230   46.0350 O   0  0  0  0  0  0  0  0  0  0  0  0
   58.4770   28.4700   46.9800 N   0  0  0  0  0  0  0  0  0  0  0  0
   59.0841   30.5872   50.3738 H   0  0  0  0  0  0  0  0  0  0  0  0
   57.8519   29.9042   49.2594 H   0  0  0  0  0  0  0  0  0  0  0  0
   59.5245   29.2489   49.2594 H   0  0  0  0  0  0  0  0  0  0  0  0
   60.2109   31.7542   48.5868 H   0  0  0  0  0  0  0  0  0  0  0  0
   57.3008   31.7522   48.0065 H   0  0  0  0  0  0  0  0  0  0  0  0
   58.3240   32.8612   49.0578 H   0  0  0  0  0  0  0  0  0  0  0  0
   60.3328   33.9448   47.8304 H   0  0  0  0  0  0  0  0  0  0  0  0
   60.7444   35.4895   45.9748 H   0  0  0  0  0  0  0  0  0  0  0  0
   59.1623   35.6412   44.0624 H   0  0  0  0  0  0  0  0  0  0  0  0
   57.1470   34.1854   44.0737 H   0  0  0  0  0  0  0  0  0  0  0  0
   56.7211   32.6293   45.9264 H   0  0  0  0  0  0  0  0  0  0  0  0
   56.1430   27.6230   44.8000 H   0  0  0  0  0  0  0  0  0  0  0  0
   57.8654   25.5894   44.9635 H   0  0  0  0  0  0  0  0  0  0  0  0
   57.7503   24.5197   46.3624 H   0  0  0  0  0  0  0  0  0  0  0  0
   55.6901   25.0793   44.4521 H   0  0  0  0  0  0  0  0  0  0  0  0
   55.4775   24.2111   46.0084 H   0  0  0  0  0  0  0  0  0  0  0  0
   55.1480   26.3410   47.0150 H   0  0  0  0  0  0  0  0  0  0  0  0
   58.9800   28.0790   47.7860 H   0  0  0  0  0  0  0  0  0  0  0  0
  1  2  1  0
  2  3  1  0
  3  4  1  0
  4  5  2  0
  5  6  1  0
  6  7  2  0
  7  8  1  0
  8  9  2  0
  2 10  1  0
 10 11  2  0
 11 12  1  0
 12 13  2  0
 13 14  1  0
 13 15  1  0
 15 16  1  0
 16 17  2  0
 17 18  1  0
 18 19  1  0
 19 20  1  0
 16 21  1  0
  9  4  1  0
 21 11  1  0
  1 22  1  0
  1 23  1  0
  1 24  1  0
  2 25  1  1
  3 26  1  0
  3 27  1  0
  5 28  1  0
  6 29  1  0
  7 30  1  0
  8 31  1  0
  9 32  1  0
 15 33  1  0
 18 34  1  0
 18 35  1  0
 19 36  1  0
 19 37  1  0
 20 38  1  0
 21 39  1  0
M  END
>  <smiles>  (29) 
CC(Cc1ccccc1)N=c1nc(Cl)[nH]c(=NCCO)[nH]1

>  <score_type>  (29) 
oracle

>  <origin>  (29) 
adg

>  <m_score__min__energy>  (29) 
-8.2599999999999998

>  <m_primary>  (29) 
energy

$$$$
29:0
     RDKit          3D

 19 19  0  0  0  0  0  0  0  0999 V2000
   55.4500   29.6490   44.8140 N   0  0  0  0  0  0  0  0  0  0  0  0
   56.3380   29.7110   43.6590 C   0  0  0  0  0  0  0  0  0  0  0  0
   57.7330   29.2140   44.0390 C   0  0  0  0  0  0  0  0  0  0  0  0
   58.0600   29.4760   45.8170 S   0  0  0  0  0  0  0  0  0  0  0  0
   58.1140   31.2630   45.7060 C   0  0  0  0  0  0  0  0  0  0  0  0
   59.2580   31.9270   46.0200 N   0  0  0  0  0  0  0  0  0  0  0  0
   59.3230   33.2810   45.9370 C   0  0  0  0  0  0  0  0  0  0  0  0
   58.2070   34.0070   45.5200 C   0  0  0  0  0  0  0  0  0  0  0  0
   57.0440   33.3080   45.1960 C   0  0  0  0  0  0  0  0  0  0  0  0
   57.0190   31.9530   45.2910 N   0  0  0  0  0  0  0  0  0  0  0  0
   54.6140   30.2470   44.6180 H   0  0  0  0  0  0  0  0  0  0  0  0
   55.9470   30.0900   45.6220 H   0  0  0  0  0  0  0  0  0  0  0  0
   55.9333   29.0786   42.8551 H   0  0  0  0  0  0  0  0  0  0  0  0
   56.4092   30.7538   43.3163 H   0  0  0  0  0  0  0  0  0  0  0  0
   57.8055   28.1396   43.8145 H   0  0  0  0  0  0  0  0  0  0  0  0
   58.4766   29.7802   43.4589 H   0  0  0  0  0  0  0  0  0  0  0  0
   60.2544   33.8046   46.1982 H   0  0  0  0  0  0  0  0  0  0  0  0
   58.2432   35.1041   45.4484 H   0  0  0  0  0  0  0  0  0  0  0  0
   56.1482   33.8533   44.8640 H   0  0  0  0  0  0  0  0  0  0  0  0
  1  2  1  0
  2  3  1  0
  3  4  1  0
  4  5  1  0
  5  6  2  0
  6  7  1  0
  7  8  2  0
  8  9  1  0
  9 10  2  0
 10  5  1  0
  1 11  1  0
  1 12  1  0
  2 13  1  0
  2 14  1  0
  3 15  1  0
  3 16  1  0
  7 17  1  0
  8 18  1  0
  9 19  1  0
M  END
>  <UniqueID>  (30) 
28

>  <SMILES>  (30) 
NCCSc1ncccn1

>  <Energy>  (30) 
11.38111705141462

>  <Genealogy>  (30) 
NCCSc1ncccn1 (3D coordinates assigned)
NCCSc1ncccn1 (optimized conformer: 11.38111705141462 kcal/mol)

>  <smiles>  (30) 
NCCSc1ncccn1

>  <score_type>  (30) 
oracle

>  <origin>  (30) 
adg

>  <m_score__min__energy>  (30) 
-4.8600000000000003

>  <m_primary>  (30) 
energy

$$$$
30:0
     RDKit          3D

 31 32  0  0  0  0  0  0  0  0999 V2000
   65.2210   32.7850   49.4320 C   0  0  0  0  0  0  0  0  0  0  0  0
   63.9020   33.1500   48.8310 C   0  0  0  0  0  0  0  0  0  0  0  0
   62.8810   33.5500   49.6340 N   0  0  0  0  0  0  0  0  0  0  0  0
   61.6650   33.8670   49.1210 C   0  0  0  0  0  0  0  0  0  0  0  0
   61.4430   33.7870   47.7400 C   0  0  0  0  0  0  0  0  0  0  0  0
   60.1570   34.1040   47.1740 N   0  0  0  0  0  0  0  0  0  0  0  0
   58.9320   33.5620   47.7730 C   0  0  0  0  0  0  0  0  0  0  0  0
   57.7640   33.6180   46.7740 C   0  0  0  0  0  0  0  0  0  0  0  0
   58.2040   33.3120   45.3950 N   0  0  0  0  0  0  0  0  0  0  0  0
   58.6170   31.9040   45.2520 C   0  0  0  0  0  0  0  0  0  0  0  0
   59.2420   34.2460   44.8860 C   0  0  0  0  0  0  0  0  0  0  0  0
   60.0330   34.9660   45.9950 C   0  0  0  0  0  0  0  0  0  0  0  0
   62.5040   33.3540   46.9330 C   0  0  0  0  0  0  0  0  0  0  0  0
   63.7050   33.0440   47.4880 N   0  0  0  0  0  0  0  0  0  0  0  0
   65.1427   32.8067   50.5290 H   0  0  0  0  0  0  0  0  0  0  0  0
   65.5060   31.7742   49.1046 H   0  0  0  0  0  0  0  0  0  0  0  0
   65.9850   33.5055   49.1046 H   0  0  0  0  0  0  0  0  0  0  0  0
   60.8529   34.1871   49.7903 H   0  0  0  0  0  0  0  0  0  0  0  0
   59.1061   32.5161   48.0659 H   0  0  0  0  0  0  0  0  0  0  0  0
   58.6721   34.1682   48.6533 H   0  0  0  0  0  0  0  0  0  0  0  0
   57.0023   32.8840   47.0756 H   0  0  0  0  0  0  0  0  0  0  0  0
   57.3554   34.6392   46.7833 H   0  0  0  0  0  0  0  0  0  0  0  0
   58.7480   31.4573   46.2486 H   0  0  0  0  0  0  0  0  0  0  0  0
   57.8437   31.3493   44.7003 H   0  0  0  0  0  0  0  0  0  0  0  0
   59.5674   31.8549   44.7003 H   0  0  0  0  0  0  0  0  0  0  0  0
   59.9515   33.6731   44.2709 H   0  0  0  0  0  0  0  0  0  0  0  0
   58.7172   35.0240   44.3121 H   0  0  0  0  0  0  0  0  0  0  0  0
   61.0369   35.2155   45.6209 H   0  0  0  0  0  0  0  0  0  0  0  0
   59.4970   35.8839   46.2781 H   0  0  0  0  0  0  0  0  0  0  0  0
   62.3639   33.2647   45.8456 H   0  0  0  0  0  0  0  0  0  0  0  0
   64.4820   32.7160   46.8690 H   0  0  0  0  0  0  0  0  0  0  0  0
  1  2  1  0
  2  3  2  0
  3  4  1  0
  4  5  2  0
  5  6  1  0
  6  7  1  0
  7  8  1  0
  8  9  1  0
  9 10  1  0
  9 11  1  0
 11 12  1  0
  5 13  1  0
 13 14  2  0
 14  2  1  0
 12  6  1  0
  1 15  1  0
  1 16  1  0
  1 17  1  0
  4 18  1  0
  7 19  1  0
  7 20  1  0
  8 21  1  0
  8 22  1  0
 10 23  1  0
 10 24  1  0
 10 25  1  0
 11 26  1  0
 11 27  1  0
 12 28  1  0
 12 29  1  0
 13 30  1  0
 14 31  1  0
M  CHG  1  14   1
M  END
>  <UniqueID>  (31) 
29

>  <SMILES>  (31) 
Cc1ncc(N2CCN(C)CC2)c[nH+]1

>  <Energy>  (31) 
40.34856613566287

>  <Genealogy>  (31) 
Cc1ncc(N2CCN(C)CC2)c[nH+]1 (protonated)
Cc1ncc(N2CCN(C)CC2)c[nH+]1 (3D coordinates assigned)
Cc1ncc(N2CCN(C)CC2)c[nH+]1 (nonaromatic ring conformer: 40.34856613566287 kcal/mol)

>  <smiles>  (31) 
Cc1ncc(N2CCN(C)CC2)cn1

>  <score_type>  (31) 
oracle

>  <origin>  (31) 
adg

>  <m_score__min__energy>  (31) 
-4.2400000000000002

>  <m_primary>  (31) 
energy

$$$$
31:0
     RDKit          3D

 52 54  0  0  0  0  0  0  0  0999 V2000
   58.7990   26.9690   44.9700 C   0  0  0  0  0  0  0  0  0  0  0  0
   59.3140   28.0620   45.8590 C   0  0  0  0  0  0  0  0  0  0  0  0
   58.9060   28.1360   47.1980 C   0  0  0  0  0  0  0  0  0  0  0  0
   59.4140   29.1320   48.0370 C   0  0  0  0  0  0  0  0  0  0  0  0
   60.3580   30.0590   47.5590 C   0  0  0  0  0  0  0  0  0  0  0  0
   60.8830   31.1110   48.4650 C   0  0  0  0  0  0  0  0  0  0  0  0
   61.8840   30.8490   49.1890 O   0  0  0  0  0  0  0  0  0  0  0  0
   60.2230   32.4720   48.5830 C   0  0  0  0  0  0  0  0  0  0  0  0
   61.2220   33.6050   48.2460 C   0  0  0  0  0  0  0  0  0  0  0  0
   60.9590   34.1940   46.8560 C   0  0  0  0  0  0  0  0  0  0  0  0
   59.6030   34.7870   46.7630 N   0  0  0  0  0  0  0  0  0  0  0  0
   59.2460   35.0360   45.3520 C   0  0  0  0  0  0  0  0  0  0  0  0
   58.2970   33.9820   44.8610 C   0  0  0  0  0  0  0  0  0  0  0  0
   57.0940   34.2900   44.6460 O   0  0  0  0  0  0  0  0  0  0  0  0
   58.7450   32.6300   44.6780 N   0  0  0  0  0  0  0  0  0  0  0  0
   57.8590   31.5820   44.2660 C   0  0  0  0  0  0  0  0  0  0  0  0
   57.4000   30.6710   45.2290 C   0  0  0  0  0  0  0  0  0  0  0  0
   56.5180   29.6480   44.8730 C   0  0  0  0  0  0  0  0  0  0  0  0
   56.0920   29.5230   43.5500 C   0  0  0  0  0  0  0  0  0  0  0  0
   56.5610   30.4080   42.5750 C   0  0  0  0  0  0  0  0  0  0  0  0
   57.4660   31.4280   42.9150 C   0  0  0  0  0  0  0  0  0  0  0  0
   57.9800   32.3380   41.8320 C   0  0  0  0  0  0  0  0  0  0  0  0
   58.5490   34.0170   47.4830 C   0  0  0  0  0  0  0  0  0  0  0  0
   58.9390   32.5520   47.7260 C   0  0  0  0  0  0  0  0  0  0  0  0
   60.7690   29.9760   46.2150 C   0  0  0  0  0  0  0  0  0  0  0  0
   60.2580   28.9800   45.3760 C   0  0  0  0  0  0  0  0  0  0  0  0
   58.4111   26.1458   45.5880 H   0  0  0  0  0  0  0  0  0  0  0  0
   57.9916   27.3627   44.3350 H   0  0  0  0  0  0  0  0  0  0  0  0
   59.6166   26.5970   44.3350 H   0  0  0  0  0  0  0  0  0  0  0  0
   58.1823   27.4065   47.5906 H   0  0  0  0  0  0  0  0  0  0  0  0
   59.0724   29.1915   49.0809 H   0  0  0  0  0  0  0  0  0  0  0  0
   59.9152   32.6115   49.6298 H   0  0  0  0  0  0  0  0  0  0  0  0
   61.1230   34.4031   48.9965 H   0  0  0  0  0  0  0  0  0  0  0  0
   62.2374   33.1820   48.2539 H   0  0  0  0  0  0  0  0  0  0  0  0
   61.7055   34.9759   46.6524 H   0  0  0  0  0  0  0  0  0  0  0  0
   61.0308   33.3812   46.1183 H   0  0  0  0  0  0  0  0  0  0  0  0
   58.7676   36.0229   45.2675 H   0  0  0  0  0  0  0  0  0  0  0  0
   60.1603   35.0069   44.7411 H   0  0  0  0  0  0  0  0  0  0  0  0
   59.6830   32.3600   45.0530 H   0  0  0  0  0  0  0  0  0  0  0  0
   57.7371   30.7629   46.2720 H   0  0  0  0  0  0  0  0  0  0  0  0
   56.1592   28.9410   45.6355 H   0  0  0  0  0  0  0  0  0  0  0  0
   55.3856   28.7263   43.2738 H   0  0  0  0  0  0  0  0  0  0  0  0
   56.2194   30.3054   41.5344 H   0  0  0  0  0  0  0  0  0  0  0  0
   58.4722   33.2095   42.2883 H   0  0  0  0  0  0  0  0  0  0  0  0
   58.7037   31.7931   41.2081 H   0  0  0  0  0  0  0  0  0  0  0  0
   57.1397   32.6765   41.2081 H   0  0  0  0  0  0  0  0  0  0  0  0
   58.3663   34.4973   48.4556 H   0  0  0  0  0  0  0  0  0  0  0  0
   57.6494   34.0181   46.8499 H   0  0  0  0  0  0  0  0  0  0  0  0
   58.1193   32.0411   48.2524 H   0  0  0  0  0  0  0  0  0  0  0  0
   59.1258   32.0667   46.7567 H   0  0  0  0  0  0  0  0  0  0  0  0
   61.4977   30.7000   45.8215 H   0  0  0  0  0  0  0  0  0  0  0  0
   60.5984   28.9165   44.3319 H   0  0  0  0  0  0  0  0  0  0  0  0
  1  2  1  0
  2  3  2  0
  3  4  1  0
  4  5  2  0
  5  6  1  0
  6  7  2  0
  6  8  1  0
  8  9  1  0
  9 10  1  0
 10 11  1  0
 11 12  1  0
 12 13  1  0
 13 14  2  0
 13 15  1  0
 15 16  1  0
 16 17  2  0
 17 18  1  0
 18 19  2  0
 19 20  1  0
 20 21  2  0
 21 22  1  0
 11 23  1  0
 23 24  1  0
  5 25  1  0
 25 26  2  0
 26  2  1  0
 24  8  1  0
 21 16  1  0
  1 27  1  0
  1 28  1  0
  1 29  1  0
  3 30  1  0
  4 31  1  0
  8 32  1  0
  9 33  1  0
  9 34  1  0
 10 35  1  0
 10 36  1  0
 12 37  1  0
 12 38  1  0
 15 39  1  0
 17 40  1  0
 18 41  1  0
 19 42  1  0
 20 43  1  0
 22 44  1  0
 22 45  1  0
 22 46  1  0
 23 47  1  0
 23 48  1  0
 24 49  1  0
 24 50  1  0
 25 51  1  0
 26 52  1  0
M  END
>  <UniqueID>  (32) 
30

>  <SMILES>  (32) 
Cc1ccc(C(=O)C2CCN(CC(=O)Nc3ccccc3C)CC2)cc1

>  <Energy>  (32) 
68.53871197712427

>  <Genealogy>  (32) 
Cc1ccc(C(=O)C2CCN(CC(=O)Nc3ccccc3C)CC2)cc1 (3D coordinates assigned)
Cc1ccc(C(=O)C2CCN(CC(=O)Nc3ccccc3C)CC2)cc1 (nonaromatic ring conformer: 68.53871197712427 kcal/mol)

>  <smiles>  (32) 
Cc1ccc(C(=O)C2CCN(CC(=O)Nc3ccccc3C)CC2)cc1

>  <score_type>  (32) 
oracle

>  <origin>  (32) 
adg

>  <m_score__min__energy>  (32) 
-9.5999999999999996

>  <m_primary>  (32) 
energy

$$$$
32:0
     RDKit          3D

 47 49  0  0  0  0  0  0  0  0999 V2000
   59.2180   25.4230   45.9530 C   0  0  0  0  0  0  0  0  0  0  0  0
   58.6230   26.7730   45.6870 C   0  0  0  0  0  0  0  0  0  0  0  0
   57.2420   26.9090   45.4820 C   0  0  0  0  0  0  0  0  0  0  0  0
   56.6800   28.1720   45.2720 C   0  0  0  0  0  0  0  0  0  0  0  0
   57.4950   29.3180   45.2640 C   0  0  0  0  0  0  0  0  0  0  0  0
   56.9560   30.6340   45.0770 N   0  0  0  0  0  0  0  0  0  0  0  0
   57.5610   31.7080   44.3420 C   0  0  0  0  0  0  0  0  0  0  0  0
   57.2680   31.8920   43.1280 O   0  0  0  0  0  0  0  0  0  0  0  0
   58.5350   32.5550   44.9910 N   0  0  1  0  0  0  0  0  0  0  0  0
   58.1350   33.9710   44.8810 C   0  0  0  0  0  0  0  0  0  0  0  0
   59.2600   34.8970   45.3800 C   0  0  0  0  0  0  0  0  0  0  0  0
   59.9870   34.3560   46.6430 C   0  0  2  0  0  0  0  0  0  0  0  0
   61.4160   33.8370   46.3440 C   0  0  0  0  0  0  0  0  0  0  0  0
   62.2200   33.6250   47.6040 C   0  0  0  0  0  0  0  0  0  0  0  0
   63.3830   32.8380   47.5760 C   0  0  0  0  0  0  0  0  0  0  0  0
   64.1240   32.6330   48.7440 C   0  0  0  0  0  0  0  0  0  0  0  0
   63.7110   33.2120   49.9470 C   0  0  0  0  0  0  0  0  0  0  0  0
   62.5560   33.9980   49.9840 C   0  0  0  0  0  0  0  0  0  0  0  0
   61.8120   34.2060   48.8180 C   0  0  0  0  0  0  0  0  0  0  0  0
   59.1450   33.2750   47.3460 C   0  0  0  0  0  0  0  0  0  0  0  0
   58.7360   32.1240   46.4000 C   0  0  0  0  0  0  0  0  0  0  0  0
   58.8670   29.1830   45.5140 C   0  0  0  0  0  0  0  0  0  0  0  0
   59.4280   27.9210   45.7220 C   0  0  0  0  0  0  0  0  0  0  0  0
   59.2893   25.2612   47.0387 H   0  0  0  0  0  0  0  0  0  0  0  0
   58.5788   24.6464   45.5077 H   0  0  0  0  0  0  0  0  0  0  0  0
   60.2225   25.3708   45.5077 H   0  0  0  0  0  0  0  0  0  0  0  0
   56.5978   26.0174   45.4865 H   0  0  0  0  0  0  0  0  0  0  0  0
   55.5960   28.2696   45.1124 H   0  0  0  0  0  0  0  0  0  0  0  0
   59.4400   32.4390   44.4760 H   0  0  0  0  0  0  0  0  0  0  0  0
   57.2333   34.1393   45.4882 H   0  0  0  0  0  0  0  0  0  0  0  0
   57.9328   34.1994   43.8241 H   0  0  0  0  0  0  0  0  0  0  0  0
   58.8238   35.8775   45.6214 H   0  0  0  0  0  0  0  0  0  0  0  0
   60.0083   34.9627   44.5765 H   0  0  0  0  0  0  0  0  0  0  0  0
   60.1015   35.2116   47.3248 H   0  0  0  0  0  0  0  0  0  0  0  0
   61.3403   32.8802   45.8067 H   0  0  0  0  0  0  0  0  0  0  0  0
   61.9315   34.5964   45.7378 H   0  0  0  0  0  0  0  0  0  0  0  0
   63.7123   32.3809   46.6312 H   0  0  0  0  0  0  0  0  0  0  0  0
   65.0335   32.0150   48.7159 H   0  0  0  0  0  0  0  0  0  0  0  0
   64.2950   33.0491   50.8648 H   0  0  0  0  0  0  0  0  0  0  0  0
   62.2317   34.4536   50.9312 H   0  0  0  0  0  0  0  0  0  0  0  0
   60.9042   34.8264   48.8507 H   0  0  0  0  0  0  0  0  0  0  0  0
   58.2328   33.7437   47.7437 H   0  0  0  0  0  0  0  0  0  0  0  0
   59.7638   32.8418   48.1457 H   0  0  0  0  0  0  0  0  0  0  0  0
   57.7953   31.6888   46.7682 H   0  0  0  0  0  0  0  0  0  0  0  0
   59.5615   31.3970   46.4005 H   0  0  0  0  0  0  0  0  0  0  0  0
   59.5068   30.0772   45.5467 H   0  0  0  0  0  0  0  0  0  0  0  0
   60.5070   27.8269   45.9143 H   0  0  0  0  0  0  0  0  0  0  0  0
  1  2  1  0
  2  3  2  0
  3  4  1  0
  4  5  2  0
  5  6  1  0
  6  7  1  0
  7  8  2  0
  7  9  1  0
  9 10  1  0
 10 11  1  0
 11 12  1  0
 12 13  1  0
 13 14  1  0
 14 15  2  0
 15 16  1  0
 16 17  2  0
 17 18  1  0
 18 19  2  0
 12 20  1  0
 20 21  1  0
  5 22  1  0
 22 23  2  0
 23  2  1  0
 21  9  1  0
 19 14  1  0
  1 24  1  0
  1 25  1  0
  1 26  1  0
  3 27  1  0
  4 28  1  0
  9 29  1  6
 10 30  1  0
 10 31  1  0
 11 32  1  0
 11 33  1  0
 12 34  1  1
 13 35  1  0
 13 36  1  0
 15 37  1  0
 16 38  1  0
 17 39  1  0
 18 40  1  0
 19 41  1  0
 20 42  1  0
 20 43  1  0
 21 44  1  0
 21 45  1  0
 22 46  1  0
 23 47  1  0
M  CHG  2   6  -1   9   1
M  END
>  <UniqueID>  (33) 
31

>  <SMILES>  (33) 
Cc1ccc([N-]C(=O)[NH+]2CCC(Cc3ccccc3)CC2)cc1

>  <Energy>  (33) 
58.80286849100334

>  <Genealogy>  (33) 
Cc1ccc([N-]C(=O)[NH+]2CCC(Cc3ccccc3)CC2)cc1 (protonated)
Cc1ccc([N-]C(=O)[NH+]2CCC(Cc3ccccc3)CC2)cc1 (3D coordinates assigned)
Cc1ccc([N-]C(=O)[NH+]2CCC(Cc3ccccc3)CC2)cc1 (nonaromatic ring conformer: 58.80286849100334 kcal/mol)

>  <smiles>  (33) 
Cc1ccc(NC(=O)N2CCC(Cc3ccccc3)CC2)cc1

>  <score_type>  (33) 
oracle

>  <origin>  (33) 
adg

>  <m_score__min__energy>  (33) 
-7.9800000000000004

>  <m_primary>  (33) 
energy

$$$$
33:0
     RDKit          3D

 48 51  0  0  0  0  0  0  0  0999 V2000
   61.1250   30.1240   46.2170 O   0  0  0  0  0  0  0  0  0  0  0  0
   60.4340   30.3280   47.2520 C   0  0  0  0  0  0  0  0  0  0  0  0
   61.0730   30.1570   48.6010 C   0  0  0  0  0  0  0  0  0  0  0  0
   61.0270   31.7230   49.5380 S   0  0  0  0  0  0  0  0  0  0  0  0
   61.9010   32.6700   48.2840 C   0  0  0  0  0  0  0  0  0  0  0  0
   61.5140   32.7460   47.0020 N   0  0  0  0  0  0  0  0  0  0  0  0
   62.4420   33.4100   46.3290 N   0  0  0  0  0  0  0  0  0  0  0  0
   63.3950   33.7400   47.2220 C   0  0  0  0  0  0  0  0  0  0  0  0
   63.0810   33.2990   48.4590 N   0  0  0  0  0  0  0  0  0  0  0  0
   63.8750   33.4180   49.6500 C   0  0  0  0  0  0  0  0  0  0  0  0
   63.4040   34.1720   50.7420 C   0  0  0  0  0  0  0  0  0  0  0  0
   64.1770   34.2950   51.9000 C   0  0  0  0  0  0  0  0  0  0  0  0
   65.4180   33.6550   51.9840 C   0  0  0  0  0  0  0  0  0  0  0  0
   65.8850   32.8920   50.9120 C   0  0  0  0  0  0  0  0  0  0  0  0
   65.1200   32.7740   49.7450 C   0  0  0  0  0  0  0  0  0  0  0  0
   59.1060   30.8570   47.1120 N   0  0  0  0  0  0  0  0  0  0  0  0
   58.3290   30.8520   45.9100 C   0  0  0  0  0  0  0  0  0  0  0  0
   57.9000   29.6370   45.3470 C   0  0  0  0  0  0  0  0  0  0  0  0
   57.2160   29.6280   44.1320 C   0  0  0  0  0  0  0  0  0  0  0  0
   56.9740   30.8240   43.4560 C   0  0  0  0  0  0  0  0  0  0  0  0
   57.4190   32.0320   43.9930 C   0  0  0  0  0  0  0  0  0  0  0  0
   58.1030   32.0580   45.2170 C   0  0  0  0  0  0  0  0  0  0  0  0
   58.5320   33.3100   45.7690 N   0  0  0  0  0  0  0  0  0  0  0  0
   59.4020   34.2260   45.0540 C   0  0  0  0  0  0  0  0  0  0  0  0
   59.6640   35.3770   46.0150 C   0  0  0  0  0  0  0  0  0  0  0  0
   59.2480   34.8780   47.3960 C   0  0  0  0  0  0  0  0  0  0  0  0
   58.3270   33.6880   47.1560 C   0  0  0  0  0  0  0  0  0  0  0  0
   60.5291   29.3835   49.1630 H   0  0  0  0  0  0  0  0  0  0  0  0
   62.1225   29.8588   48.4607 H   0  0  0  0  0  0  0  0  0  0  0  0
   60.6590   32.3280   46.5780 H   0  0  0  0  0  0  0  0  0  0  0  0
   64.3109   34.2969   46.9753 H   0  0  0  0  0  0  0  0  0  0  0  0
   62.4232   34.6665   50.6834 H   0  0  0  0  0  0  0  0  0  0  0  0
   63.8094   34.8952   52.7454 H   0  0  0  0  0  0  0  0  0  0  0  0
   66.0264   33.7529   52.8952 H   0  0  0  0  0  0  0  0  0  0  0  0
   66.8569   32.3820   50.9844 H   0  0  0  0  0  0  0  0  0  0  0  0
   65.4946   32.1760   48.9011 H   0  0  0  0  0  0  0  0  0  0  0  0
   58.1049   28.6897   45.8673 H   0  0  0  0  0  0  0  0  0  0  0  0
   56.8666   28.6761   43.7057 H   0  0  0  0  0  0  0  0  0  0  0  0
   56.4319   30.8145   42.4989 H   0  0  0  0  0  0  0  0  0  0  0  0
   57.2320   32.9715   43.4522 H   0  0  0  0  0  0  0  0  0  0  0  0
   60.3453   33.7283   44.7849 H   0  0  0  0  0  0  0  0  0  0  0  0
   58.9434   34.5748   44.1170 H   0  0  0  0  0  0  0  0  0  0  0  0
   60.7314   35.6426   46.0106 H   0  0  0  0  0  0  0  0  0  0  0  0
   59.1016   36.2773   45.7267 H   0  0  0  0  0  0  0  0  0  0  0  0
   60.1321   34.5664   47.9716 H   0  0  0  0  0  0  0  0  0  0  0  0
   58.7431   35.6668   47.9729 H   0  0  0  0  0  0  0  0  0  0  0  0
   58.5928   32.8557   47.8243 H   0  0  0  0  0  0  0  0  0  0  0  0
   57.2754   33.9394   47.3585 H   0  0  0  0  0  0  0  0  0  0  0  0
  1  2  2  0
  2  3  1  0
  3  4  1  0
  4  5  1  0
  5  6  2  0
  6  7  1  0
  7  8  2  0
  8  9  1  0
  9 10  1  0
 10 11  2  0
 11 12  1  0
 12 13  2  0
 13 14  1  0
 14 15  2  0
  2 16  1  0
 16 17  1  0
 17 18  2  0
 18 19  1  0
 19 20  2  0
 20 21  1  0
 21 22  2  0
 22 23  1  0
 23 24  1  0
 24 25  1  0
 25 26  1  0
 26 27  1  0
  9  5  1  0
 15 10  1  0
 22 17  1  0
 27 23  1  0
  3 28  1  0
  3 29  1  0
  6 30  1  0
  8 31  1  0
 11 32  1  0
 12 33  1  0
 13 34  1  0
 14 35  1  0
 15 36  1  0
 18 37  1  0
 19 38  1  0
 20 39  1  0
 21 40  1  0
 24 41  1  0
 24 42  1  0
 25 43  1  0
 25 44  1  0
 26 45  1  0
 26 46  1  0
 27 47  1  0
 27 48  1  0
M  CHG  2   6   1  16  -1
M  END
>  <UniqueID>  (34) 
32

>  <SMILES>  (34) 
O=C(CSc1[nH+]ncn1-c1ccccc1)[N-]c1ccccc1N1CCCC1

>  <Energy>  (34) 
96.71228580409895

>  <Genealogy>  (34) 
O=C(CSc1[nH+]ncn1-c1ccccc1)[N-]c1ccccc1N1CCCC1 (protonated)
O=C(CSc1[nH+]ncn1-c1ccccc1)[N-]c1ccccc1N1CCCC1 (3D coordinates assigned)
O=C(CSc1[nH+]ncn1-c1ccccc1)[N-]c1ccccc1N1CCCC1 (nonaromatic ring conformer: 96.71228580409895 kcal/mol)

>  <smiles>  (34) 
O=C(CSc1nncn1-c1ccccc1)Nc1ccccc1N1CCCC1

>  <score_type>  (34) 
oracle

>  <origin>  (34) 
adg

>  <m_score__min__energy>  (34) 
-8.6899999999999995

>  <m_primary>  (34) 
energy

$$$$
34:0
     RDKit          3D

 45 47  0  0  0  0  0  0  0  0999 V2000
   55.5230   30.1000   44.1330 C   0  0  0  0  0  0  0  0  0  0  0  0
   56.8920   30.4550   44.5530 N   0  0  0  0  0  0  0  0  0  0  0  0
   57.3710   31.6780   43.8760 C   0  0  0  0  0  0  0  0  0  0  0  0
   57.8370   32.6880   44.8840 C   0  0  0  0  0  0  0  0  0  0  0  0
   58.7330   33.7030   44.5150 C   0  0  0  0  0  0  0  0  0  0  0  0
   59.1650   34.6170   45.4780 C   0  0  0  0  0  0  0  0  0  0  0  0
   58.7080   34.5090   46.7930 C   0  0  0  0  0  0  0  0  0  0  0  0
   57.8220   33.4820   47.1260 C   0  0  0  0  0  0  0  0  0  0  0  0
   57.4120   32.6010   46.1750 N   0  0  0  0  0  0  0  0  0  0  0  0
   57.8280   29.3210   44.3840 C   0  0  0  0  0  0  0  0  0  0  0  0
   59.1250   29.5110   45.1210 C   0  0  0  0  0  0  0  0  0  0  0  0
   59.2770   30.2810   46.2110 N   0  0  0  0  0  0  0  0  0  0  0  0
   60.5730   30.0930   46.5220 C   0  0  0  0  0  0  0  0  0  0  0  0
   61.2700   30.7510   47.6800 C   0  0  1  0  0  0  0  0  0  0  0  0
   62.2690   31.8030   47.1890 C   0  0  0  0  0  0  0  0  0  0  0  0
   62.0710   33.0170   48.0890 C   0  0  0  0  0  0  0  0  0  0  0  0
   60.6800   32.8710   48.6880 C   0  0  0  0  0  0  0  0  0  0  0  0
   60.3240   31.4710   48.5290 N   0  0  0  0  0  0  0  0  0  0  0  0
   59.1870   30.8980   49.2110 C   0  0  0  0  0  0  0  0  0  0  0  0
   58.5530   29.9570   48.6600 O   0  0  0  0  0  0  0  0  0  0  0  0
   58.7400   31.3670   50.5700 C   0  0  0  0  0  0  0  0  0  0  0  0
   57.7650   30.5190   51.0640 F   0  0  0  0  0  0  0  0  0  0  0  0
   59.8090   31.3620   51.4450 F   0  0  0  0  0  0  0  0  0  0  0  0
   58.2090   32.6400   50.4950 F   0  0  0  0  0  0  0  0  0  0  0  0
   61.1820   29.2650   45.6510 N   0  0  0  0  0  0  0  0  0  0  0  0
   60.2540   28.9220   44.8050 O   0  0  0  0  0  0  0  0  0  0  0  0
   54.8970   29.9377   45.0228 H   0  0  0  0  0  0  0  0  0  0  0  0
   55.1002   30.9182   43.5315 H   0  0  0  0  0  0  0  0  0  0  0  0
   55.5511   29.1794   43.5315 H   0  0  0  0  0  0  0  0  0  0  0  0
   58.2070   31.4192   43.2096 H   0  0  0  0  0  0  0  0  0  0  0  0
   56.5432   32.1107   43.2950 H   0  0  0  0  0  0  0  0  0  0  0  0
   59.0913   33.7778   43.4777 H   0  0  0  0  0  0  0  0  0  0  0  0
   59.8637   35.4203   45.2014 H   0  0  0  0  0  0  0  0  0  0  0  0
   59.0422   35.2250   47.5583 H   0  0  0  0  0  0  0  0  0  0  0  0
   57.4555   33.3858   48.1587 H   0  0  0  0  0  0  0  0  0  0  0  0
   57.3428   28.4078   44.7592 H   0  0  0  0  0  0  0  0  0  0  0  0
   58.0671   29.2503   43.3126 H   0  0  0  0  0  0  0  0  0  0  0  0
   58.5650   30.8660   46.7010 H   0  0  0  0  0  0  0  0  0  0  0  0
   61.7696   29.9433   48.2349 H   0  0  0  0  0  0  0  0  0  0  0  0
   63.2980   31.4245   47.2775 H   0  0  0  0  0  0  0  0  0  0  0  0
   62.1053   32.0533   46.1304 H   0  0  0  0  0  0  0  0  0  0  0  0
   62.8304   33.0311   48.8846 H   0  0  0  0  0  0  0  0  0  0  0  0
   62.1713   33.9569   47.5264 H   0  0  0  0  0  0  0  0  0  0  0  0
   60.6913   33.1445   49.7534 H   0  0  0  0  0  0  0  0  0  0  0  0
   59.9544   33.5317   48.1910 H   0  0  0  0  0  0  0  0  0  0  0  0
  1  2  1  0
  2  3  1  0
  3  4  1  0
  4  5  2  0
  5  6  1  0
  6  7  2  0
  7  8  1  0
  8  9  2  0
  2 10  1  0
 10 11  1  0
 11 12  2  0
 12 13  1  0
 13 14  1  0
 14 15  1  0
 15 16  1  0
 16 17  1  0
 17 18  1  0
 18 19  1  0
 19 20  2  0
 19 21  1  0
 21 22  1  0
 21 23  1  0
 21 24  1  0
 13 25  2  0
 25 26  1  0
  9  4  1  0
 26 11  1  0
 18 14  1  0
  1 27  1  0
  1 28  1  0
  1 29  1  0
  3 30  1  0
  3 31  1  0
  5 32  1  0
  6 33  1  0
  7 34  1  0
  8 35  1  0
 10 36  1  0
 10 37  1  0
 12 38  1  0
 14 39  1  1
 15 40  1  0
 15 41  1  0
 16 42  1  0
 16 43  1  0
 17 44  1  0
 17 45  1  0
M  CHG  1  12   1
M  END
>  <UniqueID>  (35) 
33

>  <SMILES>  (35) 
CN(Cc1ccccn1)Cc1[nH+]c([C@H]2CCCN2C(=O)C(F)(F)F)no1

>  <Energy>  (35) 
81.3549481215291

>  <Genealogy>  (35) 
CN(Cc1ccccn1)Cc1[nH+]c(C2CCCN2C(=O)C(F)(F)F)no1 (protonated)
CN(Cc1ccccn1)Cc1[nH+]c([C@H]2CCCN2C(=O)C(F)(F)F)no1 (chirality)
CN(Cc1ccccn1)Cc1[nH+]c([C@H]2CCCN2C(=O)C(F)(F)F)no1 (3D coordinates assigned)
CN(Cc1ccccn1)Cc1[nH+]c([C@H]2CCCN2C(=O)C(F)(F)F)no1 (nonaromatic ring conformer: 81.3549481215291 kcal/mol)

>  <smiles>  (35) 
CN(Cc1ccccn1)Cc1nc(C2CCCN2C(=O)C(F)(F)F)no1

>  <score_type>  (35) 
oracle

>  <origin>  (35) 
adg

>  <m_score__min__energy>  (35) 
-4.8600000000000003

>  <m_primary>  (35) 
energy

$$$$
35:0
     RDKit          3D

 56 60  0  0  0  0  0  0  0  0999 V2000
   59.0380   29.3660   48.5320 C   0  0  0  0  0  0  0  0  0  0  0  0
   59.1540   30.4500   49.5540 C   0  0  0  0  0  0  0  0  0  0  0  0
   59.5140   30.2360   50.7980 O   0  0  0  0  0  0  0  0  0  0  0  0
   59.5370   31.3820   51.4350 C   0  0  0  0  0  0  0  0  0  0  0  0
   59.1800   32.4030   50.5780 C   0  0  0  0  0  0  0  0  0  0  0  0
   58.9240   31.8040   49.3570 C   0  0  0  0  0  0  0  0  0  0  0  0
   58.5730   32.4570   48.0730 C   0  0  0  0  0  0  0  0  0  0  0  0
   57.3950   33.0870   47.8870 N   0  0  0  0  0  0  0  0  0  0  0  0
   57.4150   33.6130   46.6750 N   0  0  0  0  0  0  0  0  0  0  0  0
   58.6080   33.3070   46.1360 C   0  0  0  0  0  0  0  0  0  0  0  0
   59.1210   33.8910   44.5150 S   0  0  0  0  0  0  0  0  0  0  0  0
   57.7690   33.0590   43.6090 C   0  0  0  0  0  0  0  0  0  0  0  0
   57.5290   31.6790   44.1400 C   0  0  0  0  0  0  0  0  0  0  0  0
   56.5050   31.4570   44.8400 O   0  0  0  0  0  0  0  0  0  0  0  0
   58.4370   30.6140   43.8160 N   0  0  0  0  0  0  0  0  0  0  0  0
   58.4880   29.3580   44.5140 C   0  0  0  0  0  0  0  0  0  0  0  0
   59.7240   28.8830   44.9860 C   0  0  0  0  0  0  0  0  0  0  0  0
   59.8010   27.6750   45.6860 C   0  0  0  0  0  0  0  0  0  0  0  0
   58.6400   26.9390   45.9310 C   0  0  0  0  0  0  0  0  0  0  0  0
   57.3970   27.4260   45.5100 C   0  0  0  0  0  0  0  0  0  0  0  0
   57.3180   28.6250   44.7960 C   0  0  0  0  0  0  0  0  0  0  0  0
   56.2420   26.7010   45.8190 O   0  0  0  0  0  0  0  0  0  0  0  0
   56.2720   25.6350   46.7720 C   0  0  0  0  0  0  0  0  0  0  0  0
   57.5710   24.8320   46.6290 C   0  0  0  0  0  0  0  0  0  0  0  0
   58.6980   25.7130   46.6030 O   0  0  0  0  0  0  0  0  0  0  0  0
   59.3630   32.5690   46.9770 N   0  0  0  0  0  0  0  0  0  0  0  0
   60.7420   32.1110   46.7660 C   0  0  0  0  0  0  0  0  0  0  0  0
   61.7660   33.2550   46.9110 C   0  0  2  0  0  0  0  0  0  0  0  0
   63.2070   32.7830   47.1320 C   0  0  0  0  0  0  0  0  0  0  0  0
   63.6580   33.5540   48.3370 C   0  0  0  0  0  0  0  0  0  0  0  0
   62.3570   33.9640   48.9840 C   0  0  0  0  0  0  0  0  0  0  0  0
   61.3800   34.0900   47.9810 O   0  0  0  0  0  0  0  0  0  0  0  0
   58.9341   28.3948   49.0378 H   0  0  0  0  0  0  0  0  0  0  0  0
   58.1542   29.5482   47.9029 H   0  0  0  0  0  0  0  0  0  0  0  0
   59.9403   29.3571   47.9029 H   0  0  0  0  0  0  0  0  0  0  0  0
   59.8015   31.5104   52.4950 H   0  0  0  0  0  0  0  0  0  0  0  0
   59.1126   33.4747   50.8168 H   0  0  0  0  0  0  0  0  0  0  0  0
   56.8477   33.6502   43.7173 H   0  0  0  0  0  0  0  0  0  0  0  0
   58.0570   32.9793   42.5504 H   0  0  0  0  0  0  0  0  0  0  0  0
   59.0680   30.7490   42.9930 H   0  0  0  0  0  0  0  0  0  0  0  0
   60.6383   29.4666   44.8031 H   0  0  0  0  0  0  0  0  0  0  0  0
   60.7737   27.3055   46.0428 H   0  0  0  0  0  0  0  0  0  0  0  0
   56.3410   28.9970   44.4537 H   0  0  0  0  0  0  0  0  0  0  0  0
   56.2139   26.0539   47.7875 H   0  0  0  0  0  0  0  0  0  0  0  0
   55.4163   24.9679   46.5909 H   0  0  0  0  0  0  0  0  0  0  0  0
   57.6679   24.1436   47.4814 H   0  0  0  0  0  0  0  0  0  0  0  0
   57.5389   24.2635   45.6878 H   0  0  0  0  0  0  0  0  0  0  0  0
   60.9738   31.3324   47.5076 H   0  0  0  0  0  0  0  0  0  0  0  0
   60.8146   31.7218   45.7397 H   0  0  0  0  0  0  0  0  0  0  0  0
   61.7626   33.7973   45.9539 H   0  0  0  0  0  0  0  0  0  0  0  0
   63.2390   31.7006   47.3253 H   0  0  0  0  0  0  0  0  0  0  0  0
   63.8485   32.9532   46.2548 H   0  0  0  0  0  0  0  0  0  0  0  0
   64.2528   32.9208   49.0117 H   0  0  0  0  0  0  0  0  0  0  0  0
   64.3063   34.4071   48.0882 H   0  0  0  0  0  0  0  0  0  0  0  0
   62.0465   33.1985   49.7104 H   0  0  0  0  0  0  0  0  0  0  0  0
   62.4831   34.9220   49.5097 H   0  0  0  0  0  0  0  0  0  0  0  0
  1  2  1  0
  2  3  1  0
  3  4  1  0
  4  5  2  0
  5  6  1  0
  6  7  1  0
  7  8  2  0
  8  9  1  0
  9 10  2  0
 10 11  1  0
 11 12  1  0
 12 13  1  0
 13 14  2  0
 13 15  1  0
 15 16  1  0
 16 17  2  0
 17 18  1  0
 18 19  2  0
 19 20  1  0
 20 21  2  0
 20 22  1  0
 22 23  1  0
 23 24  1  0
 24 25  1  0
 10 26  1  0
 26 27  1  0
 27 28  1  0
 28 29  1  0
 29 30  1  0
 30 31  1  0
 31 32  1  0
  6  2  2  0
 26  7  1  0
 32 28  1  0
 21 16  1  0
 25 19  1  0
  1 33  1  0
  1 34  1  0
  1 35  1  0
  4 36  1  0
  5 37  1  0
 12 38  1  0
 12 39  1  0
 15 40  1  0
 17 41  1  0
 18 42  1  0
 21 43  1  0
 23 44  1  0
 23 45  1  0
 24 46  1  0
 24 47  1  0
 27 48  1  0
 27 49  1  0
 28 50  1  6
 29 51  1  0
 29 52  1  0
 30 53  1  0
 30 54  1  0
 31 55  1  0
 31 56  1  0
M  END
>  <UniqueID>  (36) 
34

>  <SMILES>  (36) 
Cc1occc1-c1nnc(SCC(=O)Nc2ccc3c(c2)OCCO3)n1C[C@@H]1CCCO1

>  <Energy>  (36) 
122.14523264969868

>  <Genealogy>  (36) 
Cc1occc1-c1nnc(SCC(=O)Nc2ccc3c(c2)OCCO3)n1C[C@@H]1CCCO1 (chirality)
Cc1occc1-c1nnc(SCC(=O)Nc2ccc3c(c2)OCCO3)n1C[C@@H]1CCCO1 (3D coordinates assigned)
Cc1occc1-c1nnc(SCC(=O)Nc2ccc3c(c2)OCCO3)n1C[C@@H]1CCCO1 (nonaromatic ring conformer: 122.14523264969868 kcal/mol)

>  <smiles>  (36) 
Cc1occc1-c1nnc(SCC(=O)Nc2ccc3c(c2)OCCO3)n1CC1CCCO1

>  <score_type>  (36) 
oracle

>  <origin>  (36) 
adg

>  <m_score__min__energy>  (36) 
-9.1199999999999992

>  <m_primary>  (36) 
energy

$$$$
36:0
     RDKit          3D

 21 22  0  0  0  0  0  0  0  0999 V2000
   58.1150   33.8550   46.5580 C   0  0  0  0  0  0  0  0  0  0  0  0
   57.4270   33.7280   44.8790 S   0  0  0  0  0  0  0  0  0  0  0  0
   57.4770   31.9380   44.8760 C   0  0  0  0  0  0  0  0  0  0  0  0
   58.6570   31.2860   45.0550 N   0  0  0  0  0  0  0  0  0  0  0  0
   58.6970   29.9260   45.0570 C   0  0  0  0  0  0  0  0  0  0  0  0
   59.9080   29.2430   45.2430 C   0  0  0  0  0  0  0  0  0  0  0  0
   59.9320   27.8450   45.2420 C   0  0  0  0  0  0  0  0  0  0  0  0
   58.7510   27.1210   45.0550 C   0  0  0  0  0  0  0  0  0  0  0  0
   57.5380   27.7910   44.8670 C   0  0  0  0  0  0  0  0  0  0  0  0
   57.5040   29.1970   44.8670 C   0  0  0  0  0  0  0  0  0  0  0  0
   56.3200   29.9280   44.6850 C   0  0  0  0  0  0  0  0  0  0  0  0
   55.2180   29.3400   44.5110 O   0  0  0  0  0  0  0  0  0  0  0  0
   56.3510   31.2550   44.6950 O   0  0  0  0  0  0  0  0  0  0  0  0
   57.3123   33.7068   47.2954 H   0  0  0  0  0  0  0  0  0  0  0  0
   58.8874   33.0843   46.6970 H   0  0  0  0  0  0  0  0  0  0  0  0
   58.5614   34.8507   46.6970 H   0  0  0  0  0  0  0  0  0  0  0  0
   59.5320   31.8410   45.1950 H   0  0  0  0  0  0  0  0  0  0  0  0
   60.8402   29.8081   45.3899 H   0  0  0  0  0  0  0  0  0  0  0  0
   60.8836   27.3131   45.3889 H   0  0  0  0  0  0  0  0  0  0  0  0
   58.7758   26.0213   45.0557 H   0  0  0  0  0  0  0  0  0  0  0  0
   56.6105   27.2184   44.7191 H   0  0  0  0  0  0  0  0  0  0  0  0
  1  2  1  0
  2  3  1  0
  3  4  2  0
  4  5  1  0
  5  6  2  0
  6  7  1  0
  7  8  2  0
  8  9  1  0
  9 10  2  0
 10 11  1  0
 11 12  2  0
 11 13  1  0
 13  3  1  0
 10  5  1  0
  1 14  1  0
  1 15  1  0
  1 16  1  0
  4 17  1  0
  6 18  1  0
  7 19  1  0
  8 20  1  0
  9 21  1  0
M  CHG  1   4   1
M  END
>  <UniqueID>  (37) 
35

>  <SMILES>  (37) 
CSc1[nH+]c2ccccc2c(=O)o1

>  <Energy>  (37) 
22.35262120229098

>  <Genealogy>  (37) 
CSc1[nH+]c2ccccc2c(=O)o1 (protonated)
CSc1[nH+]c2ccccc2c(=O)o1 (3D coordinates assigned)
CSc1[nH+]c2ccccc2c(=O)o1 (optimized conformer: 22.35262120229098 kcal/mol)

>  <smiles>  (37) 
CSc1nc2ccccc2c(=O)o1

>  <score_type>  (37) 
oracle

>  <origin>  (37) 
adg

>  <m_score__min__energy>  (37) 
-4.2999999999999998

>  <m_primary>  (37) 
energy

$$$$
37:0
     RDKit          3D

 56 58  0  0  0  0  0  0  0  0999 V2000
   63.8059   34.1271   45.8420 H   0  0  0  0  0  0  0  0  0  0  0  0
   63.2980   33.8480   46.7770 C   0  0  0  0  0  0  0  0  0  0  0  0
   62.4443   34.4408   47.1373 H   0  0  0  0  0  0  0  0  0  0  0  0
   63.7180   32.7890   47.4750 C   0  0  0  0  0  0  0  0  0  0  0  0
   64.5729   32.2060   47.1020 H   0  0  0  0  0  0  0  0  0  0  0  0
   63.0520   32.3740   48.7570 C   0  0  0  0  0  0  0  0  0  0  0  0
   63.8044   31.9349   49.4286 H   0  0  0  0  0  0  0  0  0  0  0  0
   62.5961   33.2611   49.2208 H   0  0  0  0  0  0  0  0  0  0  0  0
   61.9690   31.3550   48.4930 C   0  0  0  0  0  0  0  0  0  0  0  0
   61.7920   30.8540   47.1930 C   0  0  0  0  0  0  0  0  0  0  0  0
   62.4496   31.2032   46.3833 H   0  0  0  0  0  0  0  0  0  0  0  0
   60.7880   29.9140   46.9120 C   0  0  0  0  0  0  0  0  0  0  0  0
   60.6440   29.4230   45.5190 C   0  0  0  0  0  0  0  0  0  0  0  0
   61.4389   29.6641   44.7979 H   0  0  0  0  0  0  0  0  0  0  0  0
   59.5970   28.7010   45.0910 C   0  0  0  0  0  0  0  0  0  0  0  0
   59.7258   27.6136   44.9862 H   0  0  0  0  0  0  0  0  0  0  0  0
   58.2760   29.2840   44.7510 C   0  0  0  0  0  0  0  0  0  0  0  0
   58.2390   30.4580   43.9770 C   0  0  0  0  0  0  0  0  0  0  0  0
   59.1793   30.9146   43.6344 H   0  0  0  0  0  0  0  0  0  0  0  0
   57.0180   31.0500   43.6390 C   0  0  0  0  0  0  0  0  0  0  0  0
   57.0012   31.9632   43.0260 H   0  0  0  0  0  0  0  0  0  0  0  0
   55.8200   30.4830   44.0790 C   0  0  0  0  0  0  0  0  0  0  0  0
   54.8599   30.9464   43.8079 H   0  0  0  0  0  0  0  0  0  0  0  0
   55.8410   29.3280   44.8630 C   0  0  0  0  0  0  0  0  0  0  0  0
   54.8967   28.8861   45.2136 H   0  0  0  0  0  0  0  0  0  0  0  0
   57.0590   28.7310   45.2040 C   0  0  0  0  0  0  0  0  0  0  0  0
   57.0685   27.8256   45.8286 H   0  0  0  0  0  0  0  0  0  0  0  0
   59.9320   29.5050   47.9490 C   0  0  0  0  0  0  0  0  0  0  0  0
   59.1292   28.7824   47.7411 H   0  0  0  0  0  0  0  0  0  0  0  0
   60.0930   30.0090   49.2410 C   0  0  0  0  0  0  0  0  0  0  0  0
   59.4160   29.6780   50.0423 H   0  0  0  0  0  0  0  0  0  0  0  0
   61.1110   30.9350   49.5290 C   0  0  0  0  0  0  0  0  0  0  0  0
   61.2940   31.4720   50.8160 O   0  0  0  0  0  0  0  0  0  0  0  0
   60.4180   32.3890   51.4730 C   0  0  0  0  0  0  0  0  0  0  0  0
   59.3768   32.0711   51.3155 H   0  0  0  0  0  0  0  0  0  0  0  0
   60.6532   32.3980   52.5475 H   0  0  0  0  0  0  0  0  0  0  0  0
   60.6040   33.8060   50.9120 C   0  0  0  0  0  0  0  0  0  0  0  0
   60.4159   34.5308   51.7178 H   0  0  0  0  0  0  0  0  0  0  0  0
   61.6330   33.8794   50.5302 H   0  0  0  0  0  0  0  0  0  0  0  0
   59.6500   34.1130   49.7400 C   0  0  0  0  0  0  0  0  0  0  0  0
   58.9230   33.2913   49.6605 H   0  0  0  0  0  0  0  0  0  0  0  0
   59.1720   35.0788   49.9610 H   0  0  0  0  0  0  0  0  0  0  0  0
   60.3600   34.2650   48.3840 C   0  0  0  0  0  0  0  0  0  0  0  0
   60.8267   35.2602   48.3415 H   0  0  0  0  0  0  0  0  0  0  0  0
   61.1061   33.4602   48.3094 H   0  0  0  0  0  0  0  0  0  0  0  0
   59.4220   34.1230   47.2130 C   0  0  0  0  0  0  0  0  0  0  0  0
   58.2250   33.3990   47.3470 C   0  0  0  0  0  0  0  0  0  0  0  0
   57.9796   32.9192   48.3059 H   0  0  0  0  0  0  0  0  0  0  0  0
   57.3450   33.2860   46.2670 C   0  0  0  0  0  0  0  0  0  0  0  0
   56.4090   32.7191   46.3787 H   0  0  0  0  0  0  0  0  0  0  0  0
   57.6520   33.8920   45.0450 C   0  0  0  0  0  0  0  0  0  0  0  0
   56.9555   33.8070   44.1979 H   0  0  0  0  0  0  0  0  0  0  0  0
   58.8450   34.6060   44.9010 C   0  0  0  0  0  0  0  0  0  0  0  0
   59.0886   35.0798   43.9386 H   0  0  0  0  0  0  0  0  0  0  0  0
   59.7290   34.7190   45.9780 C   0  0  0  0  0  0  0  0  0  0  0  0
   60.6693   35.2771   45.8582 H   0  0  0  0  0  0  0  0  0  0  0  0
  1  2  1  0
  2  3  1  0
  2  4  2  0
  4  5  1  0
  4  6  1  0
  6  7  1  0
  6  8  1  0
  6  9  1  0
  9 10  2  0
 10 11  1  0
 10 12  1  0
 12 13  1  0
 13 14  1  0
 13 15  2  0
 15 16  1  0
 15 17  1  0
 17 18  2  0
 18 19  1  0
 18 20  1  0
 20 21  1  0
 20 22  2  0
 22 23  1  0
 22 24  1  0
 24 25  1  0
 24 26  2  0
 26 27  1  0
 12 28  2  0
 28 29  1  0
 28 30  1  0
 30 31  1  0
 30 32  2  0
 32 33  1  0
 33 34  1  0
 34 35  1  0
 34 36  1  0
 34 37  1  0
 37 38  1  0
 37 39  1  0
 37 40  1  0
 40 41  1  0
 40 42  1  0
 40 43  1  0
 43 44  1  0
 43 45  1  0
 43 46  1  0
 46 47  2  0
 47 48  1  0
 47 49  1  0
 49 50  1  0
 49 51  2  0
 51 52  1  0
 51 53  1  0
 53 54  1  0
 53 55  2  0
 55 56  1  0
 32  9  1  0
 55 46  1  0
 26 17  1  0
M  END
>  <UniqueID>  (38) 
36

>  <SMILES>  (38) 
C=CCc1cc(/C=C/c2ccccc2)ccc1OCCCCc1ccccc1

>  <Energy>  (38) 
55.358525564245866

>  <Genealogy>  (38) 
C=CCc1cc(/C=C/c2ccccc2)ccc1OCCCCc1ccccc1 (cis-trans isomerization)
C=CCc1cc(/C=C/c2ccccc2)ccc1OCCCCc1ccccc1 (3D coordinates assigned)
C=CCc1cc(/C=C/c2ccccc2)ccc1OCCCCc1ccccc1 (optimized conformer: 55.358525564245866 kcal/mol)

>  <smiles>  (38) 
C=CCc1cc(C=Cc2ccccc2)ccc1OCCCCc1ccccc1

>  <score_type>  (38) 
oracle

>  <origin>  (38) 
adg

>  <m_score__min__energy>  (38) 
-8.4700000000000006

>  <m_primary>  (38) 
energy

$$$$
38:0
     RDKit          3D

 34 37  0  0  0  0  0  0  0  0999 V2000
   59.2760   35.3440   45.2450 S   0  0  0  0  0  0  0  0  0  0  0  0
   59.7020   33.9010   45.8400 C   0  0  0  0  0  0  0  0  0  0  0  0
   60.7450   33.7610   46.6680 N   0  0  0  0  0  0  0  0  0  0  0  0
   61.0140   32.5050   47.1080 C   0  0  0  0  0  0  0  0  0  0  0  0
   62.1500   32.3710   48.0070 C   0  0  0  0  0  0  0  0  0  0  0  0
   63.2640   33.2000   47.8190 C   0  0  0  0  0  0  0  0  0  0  0  0
   64.3630   33.1290   48.6230 C   0  0  0  0  0  0  0  0  0  0  0  0
   64.4350   32.2270   49.6720 C   0  0  0  0  0  0  0  0  0  0  0  0
   63.3610   31.4120   49.8690 C   0  0  0  0  0  0  0  0  0  0  0  0
   62.2350   31.4870   49.0430 C   0  0  0  0  0  0  0  0  0  0  0  0
   60.3100   31.4280   46.7660 N   0  0  0  0  0  0  0  0  0  0  0  0
   59.2190   31.5150   45.9120 C   0  0  0  0  0  0  0  0  0  0  0  0
   58.9680   32.7850   45.4830 C   0  0  0  0  0  0  0  0  0  0  0  0
   57.5730   32.6700   44.4320 S   0  0  0  0  0  0  0  0  0  0  0  0
   57.4320   30.8180   44.6660 C   0  0  0  0  0  0  0  0  0  0  0  0
   56.3250   29.9030   43.9850 S   0  0  0  0  0  0  0  0  0  0  0  0
   58.4730   30.5290   45.5210 N   0  0  0  0  0  0  0  0  0  0  0  0
   58.6200   29.1260   45.8930 C   0  0  0  0  0  0  0  0  0  0  0  0
   58.5500   28.7870   47.2300 C   0  0  0  0  0  0  0  0  0  0  0  0
   58.6870   27.4650   47.6100 C   0  0  0  0  0  0  0  0  0  0  0  0
   58.8910   26.5180   46.6190 C   0  0  0  0  0  0  0  0  0  0  0  0
   58.9580   26.8770   45.2750 C   0  0  0  0  0  0  0  0  0  0  0  0
   58.8240   28.1880   44.8920 C   0  0  0  0  0  0  0  0  0  0  0  0
   63.2515   33.9309   46.9971 H   0  0  0  0  0  0  0  0  0  0  0  0
   65.2115   33.8031   48.4344 H   0  0  0  0  0  0  0  0  0  0  0  0
   65.3227   32.1711   50.3192 H   0  0  0  0  0  0  0  0  0  0  0  0
   63.3799   30.6824   50.6920 H   0  0  0  0  0  0  0  0  0  0  0  0
   61.3892   30.8104   49.2350 H   0  0  0  0  0  0  0  0  0  0  0  0
   60.6020   30.5140   47.1610 H   0  0  0  0  0  0  0  0  0  0  0  0
   58.3859   29.5658   47.9894 H   0  0  0  0  0  0  0  0  0  0  0  0
   58.6355   27.1729   48.6693 H   0  0  0  0  0  0  0  0  0  0  0  0
   59.0024   25.4603   46.8999 H   0  0  0  0  0  0  0  0  0  0  0  0
   59.1201   26.1013   44.5122 H   0  0  0  0  0  0  0  0  0  0  0  0
   58.8763   28.4830   43.8336 H   0  0  0  0  0  0  0  0  0  0  0  0
  1  2  2  0
  2  3  1  0
  3  4  2  0
  4  5  1  0
  5  6  2  0
  6  7  1  0
  7  8  2  0
  8  9  1  0
  9 10  2  0
  4 11  1  0
 11 12  1  0
 12 13  2  0
 13 14  1  0
 14 15  1  0
 15 16  2  0
 15 17  1  0
 17 18  1  0
 18 19  2  0
 19 20  1  0
 20 21  2  0
 21 22  1  0
 22 23  2  0
 13  2  1  0
 23 18  1  0
 10  5  1  0
 17 12  1  0
  6 24  1  0
  7 25  1  0
  8 26  1  0
  9 27  1  0
 10 28  1  0
 11 29  1  0
 19 30  1  0
 20 31  1  0
 21 32  1  0
 22 33  1  0
 23 34  1  0
M  END
>  <smiles>  (39) 
S=c1nc(-c2ccccc2)[nH]c2c1sc(=S)n2-c1ccccc1

>  <score_type>  (39) 
oracle

>  <origin>  (39) 
adg

>  <m_score__min__energy>  (39) 
-7.6200000000000001

>  <m_primary>  (39) 
energy

$$$$
39:0
     RDKit          3D

 30 32  0  0  0  0  0  0  0  0999 V2000
   59.2730   34.2640   47.8730 C   0  0  0  0  0  0  0  0  0  0  0  0
   58.8430   33.6800   46.5570 C   0  0  0  0  0  0  0  0  0  0  0  0
   58.2650   32.4000   46.5040 C   0  0  0  0  0  0  0  0  0  0  0  0
   57.8830   31.8330   45.2740 C   0  0  0  0  0  0  0  0  0  0  0  0
   57.2670   30.4820   45.2430 C   0  0  0  0  0  0  0  0  0  0  0  0
   57.8700   29.2820   45.5770 C   0  0  0  0  0  0  0  0  0  0  0  0
   56.8780   28.3360   45.3780 C   0  0  0  0  0  0  0  0  0  0  0  0
   56.9830   26.8710   45.5880 C   0  0  0  0  0  0  0  0  0  0  0  0
   58.2010   26.2130   45.3460 C   0  0  0  0  0  0  0  0  0  0  0  0
   58.2950   24.8340   45.5460 C   0  0  0  0  0  0  0  0  0  0  0  0
   57.2150   24.1310   45.9720 N   0  0  0  0  0  0  0  0  0  0  0  0
   56.0240   24.7350   46.2160 C   0  0  0  0  0  0  0  0  0  0  0  0
   55.8840   26.1130   46.0300 C   0  0  0  0  0  0  0  0  0  0  0  0
   55.7570   28.9510   44.9520 N   0  0  0  0  0  0  0  0  0  0  0  0
   55.9930   30.2510   44.8700 N   0  0  0  0  0  0  0  0  0  0  0  0
   58.1000   32.5650   44.0920 C   0  0  0  0  0  0  0  0  0  0  0  0
   58.6880   33.8300   44.1410 C   0  0  0  0  0  0  0  0  0  0  0  0
   59.0640   34.3870   45.3650 C   0  0  0  0  0  0  0  0  0  0  0  0
   59.6440   35.6140   45.3880 F   0  0  0  0  0  0  0  0  0  0  0  0
   58.8394   33.6751   48.6947 H   0  0  0  0  0  0  0  0  0  0  0  0
   60.3704   34.2397   47.9439 H   0  0  0  0  0  0  0  0  0  0  0  0
   58.9240   35.3047   47.9439 H   0  0  0  0  0  0  0  0  0  0  0  0
   58.1094   31.8348   47.4348 H   0  0  0  0  0  0  0  0  0  0  0  0
   58.9015   29.1171   45.9218 H   0  0  0  0  0  0  0  0  0  0  0  0
   59.0768   26.7818   45.0004 H   0  0  0  0  0  0  0  0  0  0  0  0
   59.2470   24.3162   45.3577 H   0  0  0  0  0  0  0  0  0  0  0  0
   55.1668   24.1382   46.5610 H   0  0  0  0  0  0  0  0  0  0  0  0
   54.9190   26.6023   46.2283 H   0  0  0  0  0  0  0  0  0  0  0  0
   57.8042   32.1374   43.1227 H   0  0  0  0  0  0  0  0  0  0  0  0
   58.8561   34.3913   43.2101 H   0  0  0  0  0  0  0  0  0  0  0  0
  1  2  1  0
  2  3  2  0
  3  4  1  0
  4  5  1  0
  5  6  1  0
  6  7  2  0
  7  8  1  0
  8  9  2  0
  9 10  1  0
 10 11  2  0
 11 12  1  0
 12 13  2  0
  7 14  1  0
 14 15  1  0
  4 16  2  0
 16 17  1  0
 17 18  2  0
 18 19  1  0
 18  2  1  0
 15  5  2  0
 13  8  1  0
  1 20  1  0
  1 21  1  0
  1 22  1  0
  3 23  1  0
  6 24  1  0
  9 25  1  0
 10 26  1  0
 12 27  1  0
 13 28  1  0
 16 29  1  0
 17 30  1  0
M  CHG  1  14  -1
M  END
>  <UniqueID>  (40) 
37

>  <SMILES>  (40) 
Cc1cc(-c2cc(-c3ccncc3)[n-]n2)ccc1F

>  <Energy>  (40) 
65.55177170611675

>  <Genealogy>  (40) 
Cc1cc(-c2cc(-c3ccncc3)[n-]n2)ccc1F (protonated)
Cc1cc(-c2cc(-c3ccncc3)[n-]n2)ccc1F (3D coordinates assigned)
Cc1cc(-c2cc(-c3ccncc3)[n-]n2)ccc1F (optimized conformer: 65.55177170611675 kcal/mol)

>  <smiles>  (40) 
Cc1cc(-c2cc(-c3ccncc3)[nH]n2)ccc1F

>  <score_type>  (40) 
oracle

>  <origin>  (40) 
adg

>  <m_score__min__energy>  (40) 
-8.9900000000000002

>  <m_primary>  (40) 
energy

$$$$
40:0
     RDKit          3D

 39 41  0  0  0  0  0  0  0  0999 V2000
   63.7710   33.4770   50.0560 C   0  0  0  0  0  0  0  0  0  0  0  0
   64.4930   32.9440   48.9870 C   0  0  0  0  0  0  0  0  0  0  0  0
   63.9630   32.9550   47.7340 N   0  0  0  0  0  0  0  0  0  0  0  0
   62.7290   33.4720   47.4870 C   0  0  0  0  0  0  0  0  0  0  0  0
   61.9610   34.0070   48.5330 C   0  0  0  0  0  0  0  0  0  0  0  0
   60.5870   34.5880   48.2690 C   0  0  0  0  0  0  0  0  0  0  0  0
   59.8280   33.8810   47.2120 N   0  0  0  0  0  0  0  0  0  0  0  0
   58.7110   33.0730   47.7320 C   0  0  0  0  0  0  0  0  0  0  0  0
   58.2290   32.0720   46.6620 C   0  0  0  0  0  0  0  0  0  0  0  0
   58.6220   32.5050   45.2310 C   0  0  0  0  0  0  0  0  0  0  0  0
   57.8020   31.7780   44.1810 C   0  0  0  0  0  0  0  0  0  0  0  0
   57.7960   32.2340   42.8520 C   0  0  0  0  0  0  0  0  0  0  0  0
   57.0410   31.5580   41.8920 C   0  0  0  0  0  0  0  0  0  0  0  0
   56.3170   30.4610   42.2390 N   0  0  0  0  0  0  0  0  0  0  0  0
   56.3040   29.9920   43.5140 C   0  0  0  0  0  0  0  0  0  0  0  0
   57.0440   30.6380   44.5070 C   0  0  0  0  0  0  0  0  0  0  0  0
   58.5240   34.0340   45.0720 C   0  0  0  0  0  0  0  0  0  0  0  0
   59.3930   34.7750   46.1140 C   0  0  0  0  0  0  0  0  0  0  0  0
   62.5030   34.0140   49.8260 C   0  0  0  0  0  0  0  0  0  0  0  0
   64.1970   33.4740   51.0701 H   0  0  0  0  0  0  0  0  0  0  0  0
   65.4913   32.5147   49.1577 H   0  0  0  0  0  0  0  0  0  0  0  0
   64.5180   32.5560   46.9430 H   0  0  0  0  0  0  0  0  0  0  0  0
   62.3309   33.4707   46.4616 H   0  0  0  0  0  0  0  0  0  0  0  0
   60.0064   34.5412   49.2021 H   0  0  0  0  0  0  0  0  0  0  0  0
   60.7392   35.6189   47.9166 H   0  0  0  0  0  0  0  0  0  0  0  0
   59.0470   32.5195   48.6212 H   0  0  0  0  0  0  0  0  0  0  0  0
   57.8787   33.7420   47.9960 H   0  0  0  0  0  0  0  0  0  0  0  0
   58.6778   31.0894   46.8697 H   0  0  0  0  0  0  0  0  0  0  0  0
   57.1308   32.0316   46.7107 H   0  0  0  0  0  0  0  0  0  0  0  0
   59.6721   32.2193   45.0711 H   0  0  0  0  0  0  0  0  0  0  0  0
   58.3837   33.1198   42.5693 H   0  0  0  0  0  0  0  0  0  0  0  0
   57.0319   31.9141   40.8513 H   0  0  0  0  0  0  0  0  0  0  0  0
   55.7092   29.1013   43.7649 H   0  0  0  0  0  0  0  0  0  0  0  0
   57.0343   30.2574   45.5390 H   0  0  0  0  0  0  0  0  0  0  0  0
   58.8646   34.3099   44.0631 H   0  0  0  0  0  0  0  0  0  0  0  0
   57.4757   34.3282   45.2288 H   0  0  0  0  0  0  0  0  0  0  0  0
   60.2840   35.1783   45.6106 H   0  0  0  0  0  0  0  0  0  0  0  0
   58.7845   35.5796   46.5526 H   0  0  0  0  0  0  0  0  0  0  0  0
   61.9285   34.4431   50.6602 H   0  0  0  0  0  0  0  0  0  0  0  0
  1  2  2  0
  2  3  1  0
  3  4  2  0
  4  5  1  0
  5  6  1  0
  6  7  1  0
  7  8  1  0
  8  9  1  0
  9 10  1  0
 10 11  1  0
 11 12  2  0
 12 13  1  0
 13 14  2  0
 14 15  1  0
 15 16  2  0
 10 17  1  0
 17 18  1  0
  5 19  2  0
 19  1  1  0
 18  7  1  0
 16 11  1  0
  1 20  1  0
  2 21  1  0
  3 22  1  0
  4 23  1  0
  6 24  1  0
  6 25  1  0
  8 26  1  0
  8 27  1  0
  9 28  1  0
  9 29  1  0
 10 30  1  0
 12 31  1  0
 13 32  1  0
 15 33  1  0
 16 34  1  0
 17 35  1  0
 17 36  1  0
 18 37  1  0
 18 38  1  0
 19 39  1  0
M  CHG  1   3   1
M  END
>  <UniqueID>  (41) 
38

>  <SMILES>  (41) 
c1c[nH+]cc(CN2CCC(c3ccncc3)CC2)c1

>  <Energy>  (41) 
50.470030752674525

>  <Genealogy>  (41) 
c1c[nH+]cc(CN2CCC(c3ccncc3)CC2)c1 (protonated)
c1c[nH+]cc(CN2CCC(c3ccncc3)CC2)c1 (3D coordinates assigned)
c1c[nH+]cc(CN2CCC(c3ccncc3)CC2)c1 (nonaromatic ring conformer: 50.470030752674525 kcal/mol)

>  <smiles>  (41) 
c1cncc(CN2CCC(c3ccncc3)CC2)c1

>  <score_type>  (41) 
oracle

>  <origin>  (41) 
adg

>  <m_score__min__energy>  (41) 
-6.2400000000000002

>  <m_primary>  (41) 
energy

$$$$
41:0
     RDKit          3D

 42 45  0  0  0  0  0  0  0  0999 V2000
   59.1048   23.4315   46.4564 H   0  0  0  0  0  0  0  0  0  0  0  0
   58.4860   23.4360   45.5470 C   0  0  0  0  0  0  0  0  0  0  0  0
   58.0460   22.3390   44.9010 N   0  0  0  0  0  0  0  0  0  0  0  0
   57.3240   22.7460   43.8690 N   0  0  0  0  0  0  0  0  0  0  0  0
   56.7260   21.8480   42.8920 C   0  0  0  0  0  0  0  0  0  0  0  0
   56.1895   21.0424   43.4146 H   0  0  0  0  0  0  0  0  0  0  0  0
   56.0207   22.4093   42.2615 H   0  0  0  0  0  0  0  0  0  0  0  0
   57.5158   21.4137   42.2615 H   0  0  0  0  0  0  0  0  0  0  0  0
   57.3050   24.0900   43.8180 C   0  0  0  0  0  0  0  0  0  0  0  0
   56.7950   24.6994   43.0573 H   0  0  0  0  0  0  0  0  0  0  0  0
   58.0380   24.5740   44.8880 C   0  0  0  0  0  0  0  0  0  0  0  0
   58.2960   25.9920   45.2450 C   0  0  0  0  0  0  0  0  0  0  0  0
   59.4410   26.3480   45.9810 C   0  0  0  0  0  0  0  0  0  0  0  0
   60.1504   25.5675   46.2934 H   0  0  0  0  0  0  0  0  0  0  0  0
   59.6880   27.6810   46.3200 C   0  0  0  0  0  0  0  0  0  0  0  0
   60.5865   27.9415   46.8986 H   0  0  0  0  0  0  0  0  0  0  0  0
   58.7960   28.6870   45.9260 C   0  0  0  0  0  0  0  0  0  0  0  0
   59.0320   30.0280   46.2600 C   0  0  0  0  0  0  0  0  0  0  0  0
   59.9225   30.3048   46.8434 H   0  0  0  0  0  0  0  0  0  0  0  0
   58.1200   31.0200   45.8430 C   0  0  0  0  0  0  0  0  0  0  0  0
   58.2770   32.2830   46.1280 N   0  0  0  0  0  0  0  0  0  0  0  0
   59.2910   32.8760   46.9560 C   0  0  0  0  0  0  0  0  0  0  0  0
   59.0850   33.0710   48.3320 C   0  0  0  0  0  0  0  0  0  0  0  0
   58.1179   32.8065   48.7844 H   0  0  0  0  0  0  0  0  0  0  0  0
   60.1050   33.6000   49.1280 C   0  0  0  0  0  0  0  0  0  0  0  0
   59.9340   33.7651   50.2020 H   0  0  0  0  0  0  0  0  0  0  0  0
   61.3440   33.9200   48.5600 C   0  0  0  0  0  0  0  0  0  0  0  0
   62.6540   34.5970   49.5810 S   0  0  0  0  0  0  0  0  0  0  0  0
   63.8970   33.4100   48.9850 C   0  0  0  0  0  0  0  0  0  0  0  0
   64.3933   32.9361   49.8447 H   0  0  0  0  0  0  0  0  0  0  0  0
   63.4044   32.6385   48.3749 H   0  0  0  0  0  0  0  0  0  0  0  0
   64.6450   33.9376   48.3749 H   0  0  0  0  0  0  0  0  0  0  0  0
   61.5650   33.6900   47.1960 C   0  0  0  0  0  0  0  0  0  0  0  0
   62.5427   33.9260   46.7506 H   0  0  0  0  0  0  0  0  0  0  0  0
   60.5450   33.1610   46.4000 C   0  0  0  0  0  0  0  0  0  0  0  0
   60.7276   32.9677   45.3326 H   0  0  0  0  0  0  0  0  0  0  0  0
   57.0110   30.6490   45.1480 N   0  0  0  0  0  0  0  0  0  0  0  0
   56.7550   29.3580   44.8130 C   0  0  0  0  0  0  0  0  0  0  0  0
   55.8472   29.1084   44.2442 H   0  0  0  0  0  0  0  0  0  0  0  0
   57.6440   28.3440   45.1900 C   0  0  0  0  0  0  0  0  0  0  0  0
   57.3990   27.0050   44.8530 C   0  0  0  0  0  0  0  0  0  0  0  0
   56.4987   26.7434   44.2776 H   0  0  0  0  0  0  0  0  0  0  0  0
  1  2  1  0
  2  3  2  0
  3  4  1  0
  4  5  1  0
  5  6  1  0
  5  7  1  0
  5  8  1  0
  4  9  1  0
  9 10  1  0
  9 11  2  0
 11 12  1  0
 12 13  1  0
 13 14  1  0
 13 15  2  0
 15 16  1  0
 15 17  1  0
 17 18  2  0
 18 19  1  0
 18 20  1  0
 20 21  2  0
 21 22  1  0
 22 23  2  0
 23 24  1  0
 23 25  1  0
 25 26  1  0
 25 27  2  0
 27 28  1  0
 28 29  1  0
 29 30  1  0
 29 31  1  0
 29 32  1  0
 27 33  1  0
 33 34  1  0
 33 35  2  0
 35 36  1  0
 20 37  1  0
 37 38  1  0
 38 39  1  0
 38 40  2  0
 40 41  1  0
 41 42  1  0
 11  2  1  0
 41 12  2  0
 40 17  1  0
 35 22  1  0
M  CHG  1  37  -1
M  END
>  <UniqueID>  (42) 
39

>  <SMILES>  (42) 
CSc1ccc(/N=c2\cc3ccc(-c4cnn(C)c4)cc3c[n-]2)cc1

>  <Energy>  (42) 
86.56770899842033

>  <Genealogy>  (42) 
CSc1ccc(N=c2cc3ccc(-c4cnn(C)c4)cc3c[n-]2)cc1 (protonated)
CSc1ccc(/N=c2\cc3ccc(-c4cnn(C)c4)cc3c[n-]2)cc1 (cis-trans isomerization)
CSc1ccc(/N=c2\cc3ccc(-c4cnn(C)c4)cc3c[n-]2)cc1 (3D coordinates assigned)
CSc1ccc(/N=c2\cc3ccc(-c4cnn(C)c4)cc3c[n-]2)cc1 (optimized conformer: 86.56770899842033 kcal/mol)

>  <smiles>  (42) 
CSc1ccc(N=c2cc3ccc(-c4cnn(C)c4)cc3c[nH]2)cc1

>  <score_type>  (42) 
oracle

>  <origin>  (42) 
adg

>  <m_score__min__energy>  (42) 
-9.3499999999999996

>  <m_primary>  (42) 
energy

$$$$
42:0
     RDKit          3D

 29 32  0  0  0  0  0  0  0  0999 V2000
   56.2650   29.3490   42.5620 C   0  0  0  0  0  0  0  0  0  0  0  0
   56.8520   30.0530   43.7370 C   0  0  0  0  0  0  0  0  0  0  0  0
   57.1550   31.4120   43.7990 C   0  0  0  0  0  0  0  0  0  0  0  0
   57.7550   31.7860   44.9630 N   0  0  0  0  0  0  0  0  0  0  0  0
   58.1630   33.0420   45.3010 C   0  0  0  0  0  0  0  0  0  0  0  0
   57.9950   34.0060   44.5020 O   0  0  0  0  0  0  0  0  0  0  0  0
   58.7920   33.2430   46.5450 C   0  0  0  0  0  0  0  0  0  0  0  0
   58.9310   32.1330   47.4080 C   0  0  0  0  0  0  0  0  0  0  0  0
   58.5170   30.8980   47.0160 N   0  0  0  0  0  0  0  0  0  0  0  0
   57.9410   30.7430   45.8010 C   0  0  0  0  0  0  0  0  0  0  0  0
   57.3780   29.2970   45.1590 S   0  0  0  0  0  0  0  0  0  0  0  0
   59.6160   32.3450   49.0430 S   0  0  0  0  0  0  0  0  0  0  0  0
   61.2390   32.6400   48.3560 C   0  0  0  0  0  0  0  0  0  0  0  0
   62.2500   31.6910   48.5500 C   0  0  0  0  0  0  0  0  0  0  0  0
   63.5460   31.9440   48.0950 C   0  0  0  0  0  0  0  0  0  0  0  0
   63.8370   33.1470   47.4470 C   0  0  0  0  0  0  0  0  0  0  0  0
   62.8280   34.0890   47.2350 C   0  0  0  0  0  0  0  0  0  0  0  0
   61.5170   33.8340   47.6570 C   0  0  0  0  0  0  0  0  0  0  0  0
   60.4990   34.8100   47.3710 N   0  0  0  0  0  0  0  0  0  0  0  0
   59.2920   34.5880   46.9260 C   0  0  0  0  0  0  0  0  0  0  0  0
   55.5969   28.5478   42.9108 H   0  0  0  0  0  0  0  0  0  0  0  0
   55.6926   30.0650   41.9539 H   0  0  0  0  0  0  0  0  0  0  0  0
   57.0722   28.9146   41.9539 H   0  0  0  0  0  0  0  0  0  0  0  0
   56.9306   32.1163   42.9844 H   0  0  0  0  0  0  0  0  0  0  0  0
   62.0231   30.7442   49.0619 H   0  0  0  0  0  0  0  0  0  0  0  0
   64.3379   31.1958   48.2469 H   0  0  0  0  0  0  0  0  0  0  0  0
   64.8616   33.3524   47.1035 H   0  0  0  0  0  0  0  0  0  0  0  0
   63.0647   35.0386   46.7327 H   0  0  0  0  0  0  0  0  0  0  0  0
   58.6082   35.4440   46.8280 H   0  0  0  0  0  0  0  0  0  0  0  0
  1  2  1  0
  2  3  2  0
  3  4  1  0
  4  5  1  0
  5  6  2  0
  5  7  1  0
  7  8  2  0
  8  9  1  0
  9 10  2  0
 10 11  1  0
  8 12  1  0
 12 13  1  0
 13 14  2  0
 14 15  1  0
 15 16  2  0
 16 17  1  0
 17 18  2  0
 18 19  1  0
 19 20  2  0
 11  2  1  0
 18 13  1  0
 10  4  1  0
 20  7  1  0
  1 21  1  0
  1 22  1  0
  1 23  1  0
  3 24  1  0
 14 25  1  0
 15 26  1  0
 16 27  1  0
 17 28  1  0
 20 29  1  0
M  END
>  <UniqueID>  (43) 
40

>  <SMILES>  (43) 
Cc1cn2c(=O)c3c(nc2s1)Sc1ccccc1N=C3

>  <Energy>  (43) 
82.39609763145526

>  <Genealogy>  (43) 
Cc1cn2c(=O)c3c(nc2s1)Sc1ccccc1N=C3 (3D coordinates assigned)
Cc1cn2c(=O)c3c(nc2s1)Sc1ccccc1N=C3 (nonaromatic ring conformer: 82.39609763145526 kcal/mol)

>  <smiles>  (43) 
Cc1cn2c(=O)c3c(nc2s1)Sc1ccccc1N=C3

>  <score_type>  (43) 
oracle

>  <origin>  (43) 
adg

>  <m_score__min__energy>  (43) 
-7.4100000000000001

>  <m_primary>  (43) 
energy

$$$$
43:0
     RDKit          3D

 42 44  0  0  0  0  0  0  0  0999 V2000
   57.7490   34.2750   46.1360 O   0  0  0  0  0  0  0  0  0  0  0  0
   58.0280   33.1770   46.6940 C   0  0  0  0  0  0  0  0  0  0  0  0
   58.5920   33.1830   48.0820 C   0  0  0  0  0  0  0  0  0  0  0  0
   60.0840   33.3630   48.0230 C   0  0  0  0  0  0  0  0  0  0  0  0
   60.8140   33.6450   49.1910 C   0  0  0  0  0  0  0  0  0  0  0  0
   62.1940   33.8590   49.1230 C   0  0  0  0  0  0  0  0  0  0  0  0
   62.8520   33.8070   47.8900 C   0  0  0  0  0  0  0  0  0  0  0  0
   62.1310   33.5380   46.7220 C   0  0  0  0  0  0  0  0  0  0  0  0
   60.7520   33.3180   46.7850 C   0  0  0  0  0  0  0  0  0  0  0  0
   57.8370   31.9360   46.0010 N   0  0  0  0  0  0  0  0  0  0  0  0
   57.6260   31.8430   44.5810 C   0  0  0  0  0  0  0  0  0  0  0  0
   58.1820   32.8040   43.7160 C   0  0  0  0  0  0  0  0  0  0  0  0
   58.0350   32.6830   42.3320 C   0  0  0  0  0  0  0  0  0  0  0  0
   57.3420   31.5970   41.7940 C   0  0  0  0  0  0  0  0  0  0  0  0
   56.8000   30.6260   42.6390 C   0  0  0  0  0  0  0  0  0  0  0  0
   56.9440   30.7340   44.0310 C   0  0  0  0  0  0  0  0  0  0  0  0
   56.3490   29.7000   44.8970 C   0  0  0  0  0  0  0  0  0  0  0  0
   55.1570   29.3450   44.6980 O   0  0  0  0  0  0  0  0  0  0  0  0
   57.0890   29.0940   45.9660 N   0  0  0  0  0  0  0  0  0  0  0  0
   58.5140   28.7830   45.9140 C   0  0  0  0  0  0  0  0  0  0  0  0
   59.2140   29.3380   47.1150 C   0  0  0  0  0  0  0  0  0  0  0  0
   60.5810   29.3980   47.2950 C   0  0  0  0  0  0  0  0  0  0  0  0
   60.7650   29.9540   48.5420 C   0  0  0  0  0  0  0  0  0  0  0  0
   59.5020   30.1950   49.0460 C   0  0  0  0  0  0  0  0  0  0  0  0
   58.5980   29.8180   48.1700 O   0  0  0  0  0  0  0  0  0  0  0  0
   58.1464   34.0102   48.6540 H   0  0  0  0  0  0  0  0  0  0  0  0
   58.3600   32.2265   48.5733 H   0  0  0  0  0  0  0  0  0  0  0  0
   60.2980   33.6974   50.1610 H   0  0  0  0  0  0  0  0  0  0  0  0
   62.7631   34.0686   50.0407 H   0  0  0  0  0  0  0  0  0  0  0  0
   63.9375   33.9778   47.8387 H   0  0  0  0  0  0  0  0  0  0  0  0
   62.6497   33.4995   45.7528 H   0  0  0  0  0  0  0  0  0  0  0  0
   60.1873   33.1091   45.8644 H   0  0  0  0  0  0  0  0  0  0  0  0
   57.8310   31.0550   46.5640 H   0  0  0  0  0  0  0  0  0  0  0  0
   58.7368   33.6573   44.1331 H   0  0  0  0  0  0  0  0  0  0  0  0
   58.4659   33.4444   41.6652 H   0  0  0  0  0  0  0  0  0  0  0  0
   57.2228   31.5061   40.7043 H   0  0  0  0  0  0  0  0  0  0  0  0
   56.2566   29.7708   42.2107 H   0  0  0  0  0  0  0  0  0  0  0  0
   58.6459   27.6912   45.8901 H   0  0  0  0  0  0  0  0  0  0  0  0
   58.9450   29.2361   45.0090 H   0  0  0  0  0  0  0  0  0  0  0  0
   61.3600   29.0707   46.5907 H   0  0  0  0  0  0  0  0  0  0  0  0
   61.7248   30.1638   49.0367 H   0  0  0  0  0  0  0  0  0  0  0  0
   59.2858   30.6354   50.0305 H   0  0  0  0  0  0  0  0  0  0  0  0
  1  2  2  0
  2  3  1  0
  3  4  1  0
  4  5  2  0
  5  6  1  0
  6  7  2  0
  7  8  1  0
  8  9  2  0
  2 10  1  0
 10 11  1  0
 11 12  2  0
 12 13  1  0
 13 14  2  0
 14 15  1  0
 15 16  2  0
 16 17  1  0
 17 18  2  0
 17 19  1  0
 19 20  1  0
 20 21  1  0
 21 22  2  0
 22 23  1  0
 23 24  2  0
 24 25  1  0
  9  4  1  0
 16 11  1  0
 25 21  1  0
  3 26  1  0
  3 27  1  0
  5 28  1  0
  6 29  1  0
  7 30  1  0
  8 31  1  0
  9 32  1  0
 10 33  1  0
 12 34  1  0
 13 35  1  0
 14 36  1  0
 15 37  1  0
 20 38  1  0
 20 39  1  0
 22 40  1  0
 23 41  1  0
 24 42  1  0
M  CHG  1  19  -1
M  END
>  <UniqueID>  (44) 
41

>  <SMILES>  (44) 
O=C(Cc1ccccc1)Nc1ccccc1C(=O)[N-]Cc1ccco1

>  <Energy>  (44) 
72.87838889859756

>  <Genealogy>  (44) 
O=C(Cc1ccccc1)Nc1ccccc1C(=O)[N-]Cc1ccco1 (protonated)
O=C(Cc1ccccc1)Nc1ccccc1C(=O)[N-]Cc1ccco1 (3D coordinates assigned)
O=C(Cc1ccccc1)Nc1ccccc1C(=O)[N-]Cc1ccco1 (optimized conformer: 72.87838889859756 kcal/mol)

>  <smiles>  (44) 
O=C(Cc1ccccc1)Nc1ccccc1C(=O)NCc1ccco1

>  <score_type>  (44) 
oracle

>  <origin>  (44) 
adg

>  <m_score__min__energy>  (44) 
-10.17

>  <m_primary>  (44) 
energy

$$$$
44:0
     RDKit          3D

 47 49  0  0  0  0  0  0  0  0999 V2000
   56.4850   24.7360   47.0770 C   0  0  0  0  0  0  0  0  0  0  0  0
   56.9970   25.7580   46.1160 C   0  0  0  0  0  0  0  0  0  0  0  0
   57.0530   27.0770   46.3860 N   0  0  0  0  0  0  0  0  0  0  0  0
   57.5320   27.6920   45.3130 N   0  0  0  0  0  0  0  0  0  0  0  0
   57.7200   29.1150   45.2540 C   0  0  0  0  0  0  0  0  0  0  0  0
   58.8370   29.6980   45.8720 C   0  0  0  0  0  0  0  0  0  0  0  0
   59.0400   31.0790   45.8090 C   0  0  0  0  0  0  0  0  0  0  0  0
   58.1340   31.8960   45.1180 C   0  0  0  0  0  0  0  0  0  0  0  0
   58.3780   33.6440   45.0590 S   0  0  0  0  0  0  0  0  0  0  0  0
   57.0480   34.3210   44.8700 O   0  0  0  0  0  0  0  0  0  0  0  0
   59.2420   33.9810   43.8750 O   0  0  0  0  0  0  0  0  0  0  0  0
   59.1360   34.2410   46.5200 N   0  0  0  0  0  0  0  0  0  0  0  0
   58.6720   33.4550   47.6900 C   0  0  0  0  0  0  0  0  0  0  0  0
   59.6060   33.6310   48.8920 C   0  0  0  0  0  0  0  0  0  0  0  0
   61.0220   33.1190   48.5730 C   0  0  0  0  0  0  0  0  0  0  0  0
   61.3410   33.1460   47.0690 C   0  0  0  0  0  0  0  0  0  0  0  0
   60.6160   34.3080   46.3720 C   0  0  0  0  0  0  0  0  0  0  0  0
   57.0350   31.3140   44.4730 C   0  0  0  0  0  0  0  0  0  0  0  0
   56.8310   29.9330   44.5360 C   0  0  0  0  0  0  0  0  0  0  0  0
   57.7620   26.7820   44.3360 C   0  0  0  0  0  0  0  0  0  0  0  0
   58.2220   27.0880   42.9400 C   0  0  0  0  0  0  0  0  0  0  0  0
   57.4570   25.5260   44.8310 C   0  0  0  0  0  0  0  0  0  0  0  0
   57.4850   24.2230   44.0930 C   0  0  0  0  0  0  0  0  0  0  0  0
   56.6582   25.0818   48.1068 H   0  0  0  0  0  0  0  0  0  0  0  0
   55.4068   24.5890   46.9160 H   0  0  0  0  0  0  0  0  0  0  0  0
   57.0128   23.7844   46.9160 H   0  0  0  0  0  0  0  0  0  0  0  0
   59.5573   29.0637   46.4094 H   0  0  0  0  0  0  0  0  0  0  0  0
   59.9144   31.5271   46.3036 H   0  0  0  0  0  0  0  0  0  0  0  0
   58.7870   35.2210   46.6430 H   0  0  0  0  0  0  0  0  0  0  0  0
   57.6628   33.7920   47.9693 H   0  0  0  0  0  0  0  0  0  0  0  0
   58.6666   32.3911   47.4104 H   0  0  0  0  0  0  0  0  0  0  0  0
   59.6600   34.6985   49.1517 H   0  0  0  0  0  0  0  0  0  0  0  0
   59.2052   33.0480   49.7343 H   0  0  0  0  0  0  0  0  0  0  0  0
   61.7515   33.7529   49.0984 H   0  0  0  0  0  0  0  0  0  0  0  0
   61.0778   32.0716   48.9045 H   0  0  0  0  0  0  0  0  0  0  0  0
   62.4260   33.2663   46.9337 H   0  0  0  0  0  0  0  0  0  0  0  0
   60.9988   32.2012   46.6216 H   0  0  0  0  0  0  0  0  0  0  0  0
   60.9697   35.2540   46.8079 H   0  0  0  0  0  0  0  0  0  0  0  0
   60.8432   34.2414   45.2978 H   0  0  0  0  0  0  0  0  0  0  0  0
   56.3296   31.9468   43.9145 H   0  0  0  0  0  0  0  0  0  0  0  0
   55.9695   29.4835   44.0205 H   0  0  0  0  0  0  0  0  0  0  0  0
   59.1372   27.6968   42.9807 H   0  0  0  0  0  0  0  0  0  0  0  0
   58.4303   26.1479   42.4082 H   0  0  0  0  0  0  0  0  0  0  0  0
   57.4354   27.6435   42.4082 H   0  0  0  0  0  0  0  0  0  0  0  0
   57.5028   23.3931   44.8148 H   0  0  0  0  0  0  0  0  0  0  0  0
   56.5884   24.1402   43.4611 H   0  0  0  0  0  0  0  0  0  0  0  0
   58.3843   24.1788   43.4611 H   0  0  0  0  0  0  0  0  0  0  0  0
  1  2  1  0
  2  3  2  0
  3  4  1  0
  4  5  1  0
  5  6  2  0
  6  7  1  0
  7  8  2  0
  8  9  1  0
  9 10  2  0
  9 11  2  0
  9 12  1  0
 12 13  1  0
 13 14  1  0
 14 15  1  0
 15 16  1  0
 16 17  1  0
  8 18  1  0
 18 19  2  0
  4 20  1  0
 20 21  1  0
 20 22  2  0
 22 23  1  0
 22  2  1  0
 19  5  1  0
 17 12  1  0
  1 24  1  0
  1 25  1  0
  1 26  1  0
  6 27  1  0
  7 28  1  0
 12 29  1  0
 13 30  1  0
 13 31  1  0
 14 32  1  0
 14 33  1  0
 15 34  1  0
 15 35  1  0
 16 36  1  0
 16 37  1  0
 17 38  1  0
 17 39  1  0
 18 40  1  0
 19 41  1  0
 21 42  1  0
 21 43  1  0
 21 44  1  0
 23 45  1  0
 23 46  1  0
 23 47  1  0
M  CHG  1  12   1
M  END
>  <UniqueID>  (45) 
42

>  <SMILES>  (45) 
Cc1nn(-c2ccc(S(=O)(=O)[NH+]3CCCCC3)cc2)c(C)c1C

>  <Energy>  (45) 
84.72724044231586

>  <Genealogy>  (45) 
Cc1nn(-c2ccc(S(=O)(=O)[NH+]3CCCCC3)cc2)c(C)c1C (protonated)
Cc1nn(-c2ccc(S(=O)(=O)[NH+]3CCCCC3)cc2)c(C)c1C (3D coordinates assigned)
Cc1nn(-c2ccc(S(=O)(=O)[NH+]3CCCCC3)cc2)c(C)c1C (nonaromatic ring conformer: 84.72724044231586 kcal/mol)

>  <smiles>  (45) 
Cc1nn(-c2ccc(S(=O)(=O)N3CCCCC3)cc2)c(C)c1C

>  <score_type>  (45) 
oracle

>  <origin>  (45) 
adg

>  <m_score__min__energy>  (45) 
-6.6200000000000001

>  <m_primary>  (45) 
energy

$$$$
45:0
     RDKit          3D

 47 50  0  0  0  0  0  0  0  0999 V2000
   56.8230   31.2090   43.5220 C   0  0  0  0  0  0  0  0  0  0  0  0
   56.9910   31.4840   44.9090 O   0  0  0  0  0  0  0  0  0  0  0  0
   57.9590   32.3510   45.4390 C   0  0  0  0  0  0  0  0  0  0  0  0
   57.7200   33.7340   45.5780 C   0  0  0  0  0  0  0  0  0  0  0  0
   58.7040   34.5720   46.1090 C   0  0  0  0  0  0  0  0  0  0  0  0
   59.9320   34.0460   46.5080 C   0  0  0  0  0  0  0  0  0  0  0  0
   60.1830   32.6790   46.3760 C   0  0  0  0  0  0  0  0  0  0  0  0
   59.2050   31.8230   45.8420 C   0  0  0  0  0  0  0  0  0  0  0  0
   59.4870   30.3370   45.7340 C   0  0  0  0  0  0  0  0  0  0  0  0
   58.3340   29.5160   46.1800 N   0  0  2  0  0  0  0  0  0  0  0  0
   58.6960   28.6750   47.3560 C   0  0  0  0  0  0  0  0  0  0  0  0
   57.7990   27.4370   47.4730 C   0  0  0  0  0  0  0  0  0  0  0  0
   58.0190   26.4810   46.2610 C   0  0  1  0  0  0  0  0  0  0  0  0
   58.3430   27.3040   44.9760 C   0  0  0  0  0  0  0  0  0  0  0  0
   57.7750   28.7290   45.0420 C   0  0  0  0  0  0  0  0  0  0  0  0
   59.1630   25.5720   46.5530 N   0  0  0  0  0  0  0  0  0  0  0  0
   59.2570   24.4250   45.6220 C   0  0  0  0  0  0  0  0  0  0  0  0
   58.0260   23.5040   45.7270 C   0  0  0  0  0  0  0  0  0  0  0  0
   56.7850   24.3320   45.7340 C   0  0  0  0  0  0  0  0  0  0  0  0
   55.5370   23.8940   45.5030 N   0  0  0  0  0  0  0  0  0  0  0  0
   54.7890   25.0130   45.6450 C   0  0  0  0  0  0  0  0  0  0  0  0
   55.5050   26.1190   45.9570 N   0  0  0  0  0  0  0  0  0  0  0  0
   56.7660   25.6600   46.0370 C   0  0  0  0  0  0  0  0  0  0  0  0
   56.2531   30.2761   43.3996 H   0  0  0  0  0  0  0  0  0  0  0  0
   56.2766   32.0374   43.0475 H   0  0  0  0  0  0  0  0  0  0  0  0
   57.8095   31.1010   43.0475 H   0  0  0  0  0  0  0  0  0  0  0  0
   56.7529   34.1556   45.2664 H   0  0  0  0  0  0  0  0  0  0  0  0
   58.5092   35.6497   46.2125 H   0  0  0  0  0  0  0  0  0  0  0  0
   60.7036   34.7085   46.9271 H   0  0  0  0  0  0  0  0  0  0  0  0
   61.1535   32.2691   46.6924 H   0  0  0  0  0  0  0  0  0  0  0  0
   59.7108   30.0938   44.6848 H   0  0  0  0  0  0  0  0  0  0  0  0
   60.3406   30.1058   46.3882 H   0  0  0  0  0  0  0  0  0  0  0  0
   57.5780   30.1730   46.4860 H   0  0  0  0  0  0  0  0  0  0  0  0
   59.7410   28.3480   47.2509 H   0  0  0  0  0  0  0  0  0  0  0  0
   58.5589   29.2816   48.2633 H   0  0  0  0  0  0  0  0  0  0  0  0
   58.0410   26.9023   48.4033 H   0  0  0  0  0  0  0  0  0  0  0  0
   56.7479   27.7612   47.4817 H   0  0  0  0  0  0  0  0  0  0  0  0
   59.4352   27.3629   44.8590 H   0  0  0  0  0  0  0  0  0  0  0  0
   57.8760   26.7933   44.1209 H   0  0  0  0  0  0  0  0  0  0  0  0
   58.0154   29.2482   44.1025 H   0  0  0  0  0  0  0  0  0  0  0  0
   56.6885   28.6485   45.1937 H   0  0  0  0  0  0  0  0  0  0  0  0
   59.0720   25.1770   47.5200 H   0  0  0  0  0  0  0  0  0  0  0  0
   59.3304   24.8062   44.5928 H   0  0  0  0  0  0  0  0  0  0  0  0
   60.1483   23.8383   45.8892 H   0  0  0  0  0  0  0  0  0  0  0  0
   58.0055   22.8197   44.8660 H   0  0  0  0  0  0  0  0  0  0  0  0
   58.0828   22.9204   46.6577 H   0  0  0  0  0  0  0  0  0  0  0  0
   53.6964   25.0230   45.5182 H   0  0  0  0  0  0  0  0  0  0  0  0
  1  2  1  0
  2  3  1  0
  3  4  2  0
  4  5  1  0
  5  6  2  0
  6  7  1  0
  7  8  2  0
  8  9  1  0
  9 10  1  0
 10 11  1  0
 11 12  1  0
 12 13  1  0
 13 14  1  0
 14 15  1  0
 13 16  1  1
 16 17  1  0
 17 18  1  0
 18 19  1  0
 19 20  1  0
 20 21  1  0
 21 22  2  0
 22 23  1  0
  8  3  1  0
 15 10  1  0
 23 19  2  0
 23 13  1  0
  1 24  1  0
  1 25  1  0
  1 26  1  0
  4 27  1  0
  5 28  1  0
  6 29  1  0
  7 30  1  0
  9 31  1  0
  9 32  1  0
 10 33  1  1
 11 34  1  0
 11 35  1  0
 12 36  1  0
 12 37  1  0
 14 38  1  0
 14 39  1  0
 15 40  1  0
 15 41  1  0
 16 42  1  0
 17 43  1  0
 17 44  1  0
 18 45  1  0
 18 46  1  0
 21 47  1  0
M  CHG  2  10   1  20  -1
M  END
>  <UniqueID>  (46) 
43

>  <SMILES>  (46) 
COc1ccccc1C[NH+]1CCC2(CC1)NCCc1[n-]cnc12

>  <Energy>  (46) 
93.38975473697373

>  <Genealogy>  (46) 
COc1ccccc1C[NH+]1CCC2(CC1)NCCc1[n-]cnc12 (protonated)
COc1ccccc1C[NH+]1CCC2(CC1)NCCc1[n-]cnc12 (3D coordinates assigned)
COc1ccccc1C[NH+]1CCC2(CC1)NCCc1[n-]cnc12 (nonaromatic ring conformer: 93.38975473697373 kcal/mol)

>  <smiles>  (46) 
COc1ccccc1CN1CCC2(CC1)NCCc1[nH]cnc12

>  <score_type>  (46) 
oracle

>  <origin>  (46) 
adg

>  <m_score__min__energy>  (46) 
-7.1799999999999997

>  <m_primary>  (46) 
energy

$$$$
