0:0
     RDKit          3D

 49 51  0  0  0  0  0  0  0  0999 V2000
   65.2020   33.0300   49.7070 C   0  0  0  0  0  0  0  0  0  0  0  0
   64.0520   32.8790   48.7580 C   0  0  0  0  0  0  0  0  0  0  0  0
   63.9080   31.7890   48.1440 O   0  0  0  0  0  0  0  0  0  0  0  0
   63.1360   33.9500   48.4950 N   0  0  0  0  0  0  0  0  0  0  0  0
   61.8160   33.8260   47.9460 C   0  0  0  0  0  0  0  0  0  0  0  0
   61.6560   33.8530   46.5550 C   0  0  0  0  0  0  0  0  0  0  0  0
   60.3880   33.7090   45.9850 C   0  0  0  0  0  0  0  0  0  0  0  0
   59.2660   33.5180   46.8030 C   0  0  0  0  0  0  0  0  0  0  0  0
   57.6720   33.3540   46.0710 S   0  0  0  0  0  0  0  0  0  0  0  0
   56.6330   33.5220   47.1450 O   0  0  0  0  0  0  0  0  0  0  0  0
   57.4710   34.4160   45.0250 O   0  0  0  0  0  0  0  0  0  0  0  0
   57.5180   31.7740   45.3440 N   0  0  0  0  0  0  0  0  0  0  0  0
   58.6890   30.9450   45.6960 C   0  0  0  0  0  0  0  0  0  0  0  0
   58.7490   29.6320   44.8790 C   0  0  0  0  0  0  0  0  0  0  0  0
   57.4520   29.3360   44.1000 C   0  0  0  0  0  0  0  0  0  0  0  0
   56.3320   28.8620   44.9980 C   0  0  0  0  0  0  0  0  0  0  0  0
   55.1560   29.2930   44.8430 O   0  0  0  0  0  0  0  0  0  0  0  0
   56.6040   27.8330   45.9580 N   0  0  0  0  0  0  0  0  0  0  0  0
   56.7590   26.4370   45.6690 C   0  0  0  0  0  0  0  0  0  0  0  0
   58.0520   25.9330   45.4760 C   0  0  0  0  0  0  0  0  0  0  0  0
   58.2510   24.5760   45.2070 C   0  0  0  0  0  0  0  0  0  0  0  0
   57.1570   23.7070   45.1410 C   0  0  0  0  0  0  0  0  0  0  0  0
   57.4290   21.8530   44.7790 Br  0  0  0  0  0  0  0  0  0  0  0  0
   55.8640   24.1950   45.3650 C   0  0  0  0  0  0  0  0  0  0  0  0
   55.6620   25.5510   45.6380 C   0  0  0  0  0  0  0  0  0  0  0  0
   54.4080   25.9780   45.9350 F   0  0  0  0  0  0  0  0  0  0  0  0
   57.0140   30.5530   43.2520 C   0  0  0  0  0  0  0  0  0  0  0  0
   57.3940   31.9050   43.8850 C   0  0  0  0  0  0  0  0  0  0  0  0
   59.4270   33.4580   48.1940 C   0  0  0  0  0  0  0  0  0  0  0  0
   60.6940   33.6050   48.7630 C   0  0  0  0  0  0  0  0  0  0  0  0
   64.8322   32.9814   50.7418 H   0  0  0  0  0  0  0  0  0  0  0  0
   65.9259   32.2192   49.5379 H   0  0  0  0  0  0  0  0  0  0  0  0
   65.6920   34.0002   49.5379 H   0  0  0  0  0  0  0  0  0  0  0  0
   62.5342   33.9885   45.9066 H   0  0  0  0  0  0  0  0  0  0  0  0
   60.2703   33.7456   44.8919 H   0  0  0  0  0  0  0  0  0  0  0  0
   59.6035   31.5244   45.5012 H   0  0  0  0  0  0  0  0  0  0  0  0
   58.6017   30.6751   46.7588 H   0  0  0  0  0  0  0  0  0  0  0  0
   59.5783   29.7062   44.1602 H   0  0  0  0  0  0  0  0  0  0  0  0
   58.8923   28.8098   45.5956 H   0  0  0  0  0  0  0  0  0  0  0  0
   57.6796   28.5072   43.4136 H   0  0  0  0  0  0  0  0  0  0  0  0
   58.9167   26.6102   45.5366 H   0  0  0  0  0  0  0  0  0  0  0  0
   59.2690   24.1910   45.0470 H   0  0  0  0  0  0  0  0  0  0  0  0
   55.0046   23.5094   45.3261 H   0  0  0  0  0  0  0  0  0  0  0  0
   57.4947   30.4821   42.2651 H   0  0  0  0  0  0  0  0  0  0  0  0
   55.9167   30.5231   43.1816 H   0  0  0  0  0  0  0  0  0  0  0  0
   58.3548   32.2421   43.4689 H   0  0  0  0  0  0  0  0  0  0  0  0
   56.6050   32.6376   43.6595 H   0  0  0  0  0  0  0  0  0  0  0  0
   58.5519   33.2945   48.8402 H   0  0  0  0  0  0  0  0  0  0  0  0
   60.8142   33.5476   49.8549 H   0  0  0  0  0  0  0  0  0  0  0  0
  1  2  1  0
  2  3  2  0
  2  4  1  0
  4  5  1  0
  5  6  2  0
  6  7  1  0
  7  8  2  0
  8  9  1  0
  9 10  2  0
  9 11  2  0
  9 12  1  0
 12 13  1  0
 13 14  1  0
 14 15  1  0
 15 16  1  0
 16 17  2  0
 16 18  1  0
 18 19  1  0
 19 20  2  0
 20 21  1  0
 21 22  2  0
 22 23  1  0
 22 24  1  0
 24 25  2  0
 25 26  1  0
 15 27  1  0
 27 28  1  0
  8 29  1  0
 29 30  2  0
 30  5  1  0
 28 12  1  0
 25 19  1  0
  1 31  1  0
  1 32  1  0
  1 33  1  0
  6 34  1  0
  7 35  1  0
 13 36  1  0
 13 37  1  0
 14 38  1  0
 14 39  1  0
 15 40  1  0
 20 41  1  0
 21 42  1  0
 24 43  1  0
 27 44  1  0
 27 45  1  0
 28 46  1  0
 28 47  1  0
 29 48  1  0
 30 49  1  0
M  CHG  2   4  -1  18  -1
M  END
>  <UniqueID>  (1) 
1

>  <SMILES>  (1) 
CC(=O)[N-]c1ccc(S(=O)(=O)N2CCC(C(=O)[N-]c3ccc(Br)cc3F)CC2)cc1

>  <Energy>  (1) 
63.17851034261858

>  <Genealogy>  (1) 
CC(=O)[N-]c1ccc(S(=O)(=O)N2CCC(C(=O)[N-]c3ccc(Br)cc3F)CC2)cc1 (protonated)
CC(=O)[N-]c1ccc(S(=O)(=O)N2CCC(C(=O)[N-]c3ccc(Br)cc3F)CC2)cc1 (3D coordinates assigned)
CC(=O)[N-]c1ccc(S(=O)(=O)N2CCC(C(=O)[N-]c3ccc(Br)cc3F)CC2)cc1 (nonaromatic ring conformer: 63.17851034261858 kcal/mol)

>  <smiles>  (1) 
CC(=O)Nc1ccc(S(=O)(=O)N2CCC(C(=O)Nc3ccc(Br)cc3F)CC2)cc1

>  <score_type>  (1) 
oracle

>  <origin>  (1) 
adg

>  <m_score__min__energy>  (1) 
-13.01

>  <m_primary>  (1) 
energy

$$$$
1:0
     RDKit          3D

 77 80  0  0  0  0  0  0  0  0999 V2000
   63.6780   33.0790   47.1290 C   0  0  0  0  0  0  0  0  0  0  0  0
   62.3540   33.7850   46.8140 C   0  0  0  0  0  0  0  0  0  0  0  0
   61.3560   33.6040   47.8930 N   0  0  0  0  0  0  0  0  0  0  0  0
   61.8270   34.2070   49.1550 C   0  0  0  0  0  0  0  0  0  0  0  0
   60.0600   34.2010   47.4860 C   0  0  0  0  0  0  0  0  0  0  0  0
   59.2330   33.2200   46.6320 C   0  0  0  0  0  0  0  0  0  0  0  0
   59.9720   32.0210   46.2110 N   0  0  0  0  0  0  0  0  0  0  0  0
   59.3790   30.7180   46.0740 C   0  0  0  0  0  0  0  0  0  0  0  0
   58.4670   30.5060   45.0250 C   0  0  0  0  0  0  0  0  0  0  0  0
   57.9500   31.5920   44.2810 C   0  0  0  0  0  0  0  0  0  0  0  0
   57.0370   31.3790   43.2530 C   0  0  0  0  0  0  0  0  0  0  0  0
   56.6140   30.0890   42.9520 C   0  0  0  0  0  0  0  0  0  0  0  0
   57.1190   29.0040   43.6650 C   0  0  0  0  0  0  0  0  0  0  0  0
   58.0730   29.1890   44.7000 C   0  0  0  0  0  0  0  0  0  0  0  0
   58.6170   28.1240   45.3810 N   0  0  0  0  0  0  0  0  0  0  0  0
   58.5070   26.7610   44.8160 C   0  0  0  0  0  0  0  0  0  0  0  0
   59.2800   28.3340   46.5760 C   0  0  0  0  0  0  0  0  0  0  0  0
   59.5250   27.2550   47.4500 C   0  0  0  0  0  0  0  0  0  0  0  0
   60.2340   27.4280   48.6230 C   0  0  0  0  0  0  0  0  0  0  0  0
   60.7020   28.6800   48.9830 C   0  0  0  0  0  0  0  0  0  0  0  0
   60.4400   29.8240   48.1900 C   0  0  0  0  0  0  0  0  0  0  0  0
   60.8710   31.1470   48.6300 N   0  0  0  0  0  0  0  0  0  0  0  0
   61.2000   31.2960   50.0620 C   0  0  0  0  0  0  0  0  0  0  0  0
   62.7290   31.2280   50.2850 C   0  0  0  0  0  0  0  0  0  0  0  0
   63.1560   31.7890   51.6740 C   0  0  0  0  0  0  0  0  0  0  0  0
   64.4060   32.6240   51.6740 N   0  0  0  0  0  0  0  0  0  0  0  0
   64.1450   33.9110   52.3690 C   0  0  0  0  0  0  0  0  0  0  0  0
   65.4670   31.8880   52.4510 C   0  0  0  0  0  0  0  0  0  0  0  0
   66.3370   30.9820   51.5670 C   0  0  0  0  0  0  0  0  0  0  0  0
   67.1270   31.8230   50.5510 C   0  0  0  0  0  0  0  0  0  0  0  0
   66.3630   33.0850   50.1130 C   0  0  0  0  0  0  0  0  0  0  0  0
   64.8410   32.9000   50.2580 C   0  0  0  0  0  0  0  0  0  0  0  0
   59.7090   29.6470   46.9540 C   0  0  0  0  0  0  0  0  0  0  0  0
   63.8066   33.0104   48.2193 H   0  0  0  0  0  0  0  0  0  0  0  0
   63.6661   32.0675   46.6969 H   0  0  0  0  0  0  0  0  0  0  0  0
   64.5112   33.6525   46.6969 H   0  0  0  0  0  0  0  0  0  0  0  0
   62.5471   34.8603   46.6861 H   0  0  0  0  0  0  0  0  0  0  0  0
   61.9436   33.3412   45.8949 H   0  0  0  0  0  0  0  0  0  0  0  0
   61.3981   33.6579   50.0062 H   0  0  0  0  0  0  0  0  0  0  0  0
   62.9248   34.1534   49.1997 H   0  0  0  0  0  0  0  0  0  0  0  0
   61.5092   35.2591   49.1997 H   0  0  0  0  0  0  0  0  0  0  0  0
   59.4868   34.4614   48.3880 H   0  0  0  0  0  0  0  0  0  0  0  0
   60.2658   35.0972   46.8823 H   0  0  0  0  0  0  0  0  0  0  0  0
   58.3611   32.8994   47.2211 H   0  0  0  0  0  0  0  0  0  0  0  0
   58.9513   33.7576   45.7146 H   0  0  0  0  0  0  0  0  0  0  0  0
   61.0100   32.0580   46.3150 H   0  0  0  0  0  0  0  0  0  0  0  0
   58.2733   32.6164   44.5177 H   0  0  0  0  0  0  0  0  0  0  0  0
   56.6492   32.2324   42.6774 H   0  0  0  0  0  0  0  0  0  0  0  0
   55.8795   29.9250   42.1497 H   0  0  0  0  0  0  0  0  0  0  0  0
   56.7733   27.9883   43.4224 H   0  0  0  0  0  0  0  0  0  0  0  0
   58.4479   26.0285   45.6345 H   0  0  0  0  0  0  0  0  0  0  0  0
   57.6004   26.6928   44.1967 H   0  0  0  0  0  0  0  0  0  0  0  0
   59.3909   26.5483   44.1967 H   0  0  0  0  0  0  0  0  0  0  0  0
   59.1440   26.2557   47.1927 H   0  0  0  0  0  0  0  0  0  0  0  0
   60.4281   26.5643   49.2759 H   0  0  0  0  0  0  0  0  0  0  0  0
   61.2907   28.7889   49.9058 H   0  0  0  0  0  0  0  0  0  0  0  0
   61.7230   31.4150   48.0910 H   0  0  0  0  0  0  0  0  0  0  0  0
   60.0780   31.8020   48.4540 H   0  0  0  0  0  0  0  0  0  0  0  0
   60.8265   32.2673   50.4185 H   0  0  0  0  0  0  0  0  0  0  0  0
   60.7258   30.4749   50.6197 H   0  0  0  0  0  0  0  0  0  0  0  0
   63.0491   30.1779   50.2154 H   0  0  0  0  0  0  0  0  0  0  0  0
   63.2068   31.8491   49.5130 H   0  0  0  0  0  0  0  0  0  0  0  0
   62.3328   32.4099   52.0572 H   0  0  0  0  0  0  0  0  0  0  0  0
   63.3763   30.9124   52.3009 H   0  0  0  0  0  0  0  0  0  0  0  0
   64.1770   33.7532   53.4571 H   0  0  0  0  0  0  0  0  0  0  0  0
   64.9126   34.6448   52.0822 H   0  0  0  0  0  0  0  0  0  0  0  0
   63.1521   34.2878   52.0822 H   0  0  0  0  0  0  0  0  0  0  0  0
   66.1170   32.6265   52.9432 H   0  0  0  0  0  0  0  0  0  0  0  0
   64.9540   31.2430   53.1796 H   0  0  0  0  0  0  0  0  0  0  0  0
   67.0415   30.4247   52.2019 H   0  0  0  0  0  0  0  0  0  0  0  0
   65.6853   30.2834   51.0218 H   0  0  0  0  0  0  0  0  0  0  0  0
   68.0792   32.1280   51.0095 H   0  0  0  0  0  0  0  0  0  0  0  0
   67.2900   31.2028   49.6572 H   0  0  0  0  0  0  0  0  0  0  0  0
   66.6817   33.9315   50.7390 H   0  0  0  0  0  0  0  0  0  0  0  0
   66.5889   33.2758   49.0535 H   0  0  0  0  0  0  0  0  0  0  0  0
   64.3433   33.8181   49.9126 H   0  0  0  0  0  0  0  0  0  0  0  0
   64.5605   32.0241   49.6546 H   0  0  0  0  0  0  0  0  0  0  0  0
  1  2  1  0
  2  3  1  0
  3  4  1  0
  3  5  1  0
  5  6  1  0
  6  7  1  0
  7  8  1  0
  8  9  2  0
  9 10  1  0
 10 11  2  0
 11 12  1  0
 12 13  2  0
 13 14  1  0
 14 15  2  0
 15 16  1  0
 15 17  1  0
 17 18  2  0
 18 19  1  0
 19 20  2  0
 20 21  1  0
 21 22  1  0
 22 23  1  0
 23 24  1  0
 24 25  1  0
 25 26  1  0
 26 27  1  0
 26 28  1  0
 28 29  1  0
 29 30  1  0
 30 31  1  0
 31 32  1  0
 21 33  2  0
 33  8  1  0
 14  9  1  0
 33 17  1  0
 32 26  1  0
  1 34  1  0
  1 35  1  0
  1 36  1  0
  2 37  1  0
  2 38  1  0
  4 39  1  0
  4 40  1  0
  4 41  1  0
  5 42  1  0
  5 43  1  0
  6 44  1  0
  6 45  1  0
  7 46  1  0
 10 47  1  0
 11 48  1  0
 12 49  1  0
 13 50  1  0
 16 51  1  0
 16 52  1  0
 16 53  1  0
 18 54  1  0
 19 55  1  0
 20 56  1  0
 22 57  1  0
 22 58  1  0
 23 59  1  0
 23 60  1  0
 24 61  1  0
 24 62  1  0
 25 63  1  0
 25 64  1  0
 27 65  1  0
 27 66  1  0
 27 67  1  0
 28 68  1  0
 28 69  1  0
 29 70  1  0
 29 71  1  0
 30 72  1  0
 30 73  1  0
 31 74  1  0
 31 75  1  0
 32 76  1  0
 32 77  1  0
M  CHG  3  15   1  22   1  26   1
M  END
>  <UniqueID>  (2) 
2

>  <SMILES>  (2) 
CCN(C)CCNc1c2ccccc2[n+](C)c2cccc([NH2+]CCC[N+]3(C)CCCCC3)c12

>  <Energy>  (2) 
135.23943268949992

>  <Genealogy>  (2) 
CCN(C)CCNc1c2ccccc2[n+](C)c2cccc([NH2+]CCC[N+]3(C)CCCCC3)c12 (protonated)
CCN(C)CCNc1c2ccccc2[n+](C)c2cccc([NH2+]CCC[N+]3(C)CCCCC3)c12 (3D coordinates assigned)
CCN(C)CCNc1c2ccccc2[n+](C)c2cccc([NH2+]CCC[N+]3(C)CCCCC3)c12 (nonaromatic ring conformer: 135.23943268949992 kcal/mol)

>  <smiles>  (2) 
CCN(C)CCNc1c2ccccc2[n+](C)c2cccc(NCCC[N+]3(C)CCCCC3)c12

>  <score_type>  (2) 
oracle

>  <origin>  (2) 
adg

>  <m_score__min__energy>  (2) 
-3.3599999999999999

>  <m_primary>  (2) 
energy

$$$$
2:0
     RDKit          3D

 42 44  0  0  0  0  0  0  0  0999 V2000
   56.3530   20.3550   44.2150 C   0  0  0  0  0  0  0  0  0  0  0  0
   56.2650   21.8080   44.2950 N   0  0  0  0  0  0  0  0  0  0  0  0
   56.4710   22.5470   45.4010 C   0  0  0  0  0  0  0  0  0  0  0  0
   56.2310   23.8610   45.0700 C   0  0  0  0  0  0  0  0  0  0  0  0
   56.3740   25.2630   46.1160 S   0  0  0  0  0  0  0  0  0  0  0  0
   56.4430   24.8130   47.5500 O   0  0  0  0  0  0  0  0  0  0  0  0
   55.1560   26.1250   45.9340 O   0  0  0  0  0  0  0  0  0  0  0  0
   57.8140   26.1640   45.7050 N   0  0  0  0  0  0  0  0  0  0  0  0
   58.4320   26.7630   46.9150 C   0  0  0  0  0  0  0  0  0  0  0  0
   58.1240   28.2590   47.0830 C   0  0  0  0  0  0  0  0  0  0  0  0
   58.4730   28.9930   45.8600 N   0  0  0  0  0  0  0  0  0  0  0  0
   58.7050   30.4100   45.9140 C   0  0  0  0  0  0  0  0  0  0  0  0
   59.7070   30.9340   46.7460 C   0  0  0  0  0  0  0  0  0  0  0  0
   59.9400   32.3110   46.7910 C   0  0  0  0  0  0  0  0  0  0  0  0
   59.1640   33.1920   46.0170 C   0  0  0  0  0  0  0  0  0  0  0  0
   59.4440   34.6740   46.0240 C   0  0  0  0  0  0  0  0  0  0  0  0
   58.8900   35.2670   47.1450 F   0  0  0  0  0  0  0  0  0  0  0  0
   60.8070   34.9200   46.0360 F   0  0  0  0  0  0  0  0  0  0  0  0
   58.8930   35.2470   44.8920 F   0  0  0  0  0  0  0  0  0  0  0  0
   58.1790   32.6630   45.1660 C   0  0  0  0  0  0  0  0  0  0  0  0
   57.9450   31.2850   45.1230 C   0  0  0  0  0  0  0  0  0  0  0  0
   58.5100   28.2800   44.5790 C   0  0  0  0  0  0  0  0  0  0  0  0
   57.5160   27.1180   44.6150 C   0  0  0  0  0  0  0  0  0  0  0  0
   55.8760   23.8550   43.7370 C   0  0  0  0  0  0  0  0  0  0  0  0
   55.8950   22.5840   43.2870 N   0  0  0  0  0  0  0  0  0  0  0  0
   56.3786   19.9328   45.2304 H   0  0  0  0  0  0  0  0  0  0  0  0
   55.4769   19.9637   43.6771 H   0  0  0  0  0  0  0  0  0  0  0  0
   57.2699   20.0723   43.6771 H   0  0  0  0  0  0  0  0  0  0  0  0
   56.7754   22.1697   46.3884 H   0  0  0  0  0  0  0  0  0  0  0  0
   58.0553   26.2284   47.7995 H   0  0  0  0  0  0  0  0  0  0  0  0
   59.5221   26.6674   46.8030 H   0  0  0  0  0  0  0  0  0  0  0  0
   57.0512   28.3874   47.2893 H   0  0  0  0  0  0  0  0  0  0  0  0
   58.7192   28.6546   47.9192 H   0  0  0  0  0  0  0  0  0  0  0  0
   60.3123   30.2565   47.3662 H   0  0  0  0  0  0  0  0  0  0  0  0
   60.7366   32.7089   47.4369 H   0  0  0  0  0  0  0  0  0  0  0  0
   57.5878   33.3375   44.5292 H   0  0  0  0  0  0  0  0  0  0  0  0
   57.1600   30.8844   44.4648 H   0  0  0  0  0  0  0  0  0  0  0  0
   58.2382   28.9703   43.7669 H   0  0  0  0  0  0  0  0  0  0  0  0
   59.5239   27.8907   44.4045 H   0  0  0  0  0  0  0  0  0  0  0  0
   56.5037   27.5218   44.7640 H   0  0  0  0  0  0  0  0  0  0  0  0
   57.5935   26.5766   43.6606 H   0  0  0  0  0  0  0  0  0  0  0  0
   55.6194   24.7419   43.1390 H   0  0  0  0  0  0  0  0  0  0  0  0
  1  2  1  0
  2  3  1  0
  3  4  2  0
  4  5  1  0
  5  6  2  0
  5  7  2  0
  5  8  1  0
  8  9  1  0
  9 10  1  0
 10 11  1  0
 11 12  1  0
 12 13  2  0
 13 14  1  0
 14 15  2  0
 15 16  1  0
 16 17  1  0
 16 18  1  0
 16 19  1  0
 15 20  1  0
 20 21  2  0
 11 22  1  0
 22 23  1  0
  4 24  1  0
 24 25  2  0
 25  2  1  0
 23  8  1  0
 21 12  1  0
  1 26  1  0
  1 27  1  0
  1 28  1  0
  3 29  1  0
  9 30  1  0
  9 31  1  0
 10 32  1  0
 10 33  1  0
 13 34  1  0
 14 35  1  0
 20 36  1  0
 21 37  1  0
 22 38  1  0
 22 39  1  0
 23 40  1  0
 23 41  1  0
 24 42  1  0
M  END
>  <UniqueID>  (3) 
3

>  <SMILES>  (3) 
Cn1cc(S(=O)(=O)N2CCN(c3ccc(C(F)(F)F)cc3)CC2)cn1

>  <Energy>  (3) 
83.4950185755763

>  <Genealogy>  (3) 
Cn1cc(S(=O)(=O)N2CCN(c3ccc(C(F)(F)F)cc3)CC2)cn1 (3D coordinates assigned)
Cn1cc(S(=O)(=O)N2CCN(c3ccc(C(F)(F)F)cc3)CC2)cn1 (nonaromatic ring conformer: 83.4950185755763 kcal/mol)

>  <smiles>  (3) 
Cn1cc(S(=O)(=O)N2CCN(c3ccc(C(F)(F)F)cc3)CC2)cn1

>  <score_type>  (3) 
oracle

>  <origin>  (3) 
adg

>  <m_score__min__energy>  (3) 
-7.5599999999999996

>  <m_primary>  (3) 
energy

$$$$
3:0
     RDKit          3D

 56 59  0  0  0  0  0  0  0  0999 V2000
   56.3390   22.1960   47.9390 C   0  0  0  0  0  0  0  0  0  0  0  0
   55.9270   20.9290   47.3160 N   0  0  0  0  0  0  0  0  0  0  0  0
   54.4990   20.9470   46.9650 C   0  0  0  0  0  0  0  0  0  0  0  0
   56.7920   20.5330   46.1820 C   0  0  0  0  0  0  0  0  0  0  0  0
   56.0260   20.1700   44.8940 C   0  0  0  0  0  0  0  0  0  0  0  0
   55.9210   21.3110   44.0420 O   0  0  0  0  0  0  0  0  0  0  0  0
   56.3060   22.6200   44.3810 C   0  0  0  0  0  0  0  0  0  0  0  0
   57.6360   22.9930   44.1640 C   0  0  0  0  0  0  0  0  0  0  0  0
   58.0750   24.2820   44.4810 C   0  0  0  0  0  0  0  0  0  0  0  0
   57.1880   25.2260   45.0270 C   0  0  0  0  0  0  0  0  0  0  0  0
   57.6710   26.5900   45.3560 C   0  0  0  0  0  0  0  0  0  0  0  0
   56.9250   27.7680   45.3210 C   0  0  0  0  0  0  0  0  0  0  0  0
   57.7560   28.7480   45.6900 N   0  0  0  0  0  0  0  0  0  0  0  0
   57.5050   30.0490   45.8120 N   0  0  0  0  0  0  0  0  0  0  0  0
   58.5080   30.8910   46.2040 C   0  0  0  0  0  0  0  0  0  0  0  0
   58.2370   32.3000   46.3560 N   0  0  0  0  0  0  0  0  0  0  0  0
   57.6170   33.0720   45.2650 C   0  0  0  0  0  0  0  0  0  0  0  0
   58.6580   33.8540   44.4360 C   0  0  0  0  0  0  0  0  0  0  0  0
   59.2100   35.1160   45.1230 C   0  0  0  0  0  0  0  0  0  0  0  0
   59.7870   34.8560   46.4540 N   0  0  0  0  0  0  0  0  0  0  0  0
   58.8280   34.4680   47.5060 C   0  0  0  0  0  0  0  0  0  0  0  0
   58.6090   32.9450   47.6290 C   0  0  0  0  0  0  0  0  0  0  0  0
   59.7860   30.3490   46.4910 C   0  0  0  0  0  0  0  0  0  0  0  0
   60.0130   28.9720   46.3510 C   0  0  0  0  0  0  0  0  0  0  0  0
   58.9440   28.1900   45.9360 C   0  0  0  0  0  0  0  0  0  0  0  0
   58.9470   26.8570   45.7460 N   0  0  0  0  0  0  0  0  0  0  0  0
   55.8510   24.8480   45.2470 C   0  0  0  0  0  0  0  0  0  0  0  0
   55.4130   23.5600   44.9300 C   0  0  0  0  0  0  0  0  0  0  0  0
   56.3059   22.0941   49.0338 H   0  0  0  0  0  0  0  0  0  0  0  0
   57.3638   22.4430   47.6246 H   0  0  0  0  0  0  0  0  0  0  0  0
   55.6555   22.9985   47.6246 H   0  0  0  0  0  0  0  0  0  0  0  0
   53.8955   20.9546   47.8846 H   0  0  0  0  0  0  0  0  0  0  0  0
   54.2780   21.8480   46.3739 H   0  0  0  0  0  0  0  0  0  0  0  0
   54.2554   20.0519   46.3739 H   0  0  0  0  0  0  0  0  0  0  0  0
   57.4680   21.3708   45.9559 H   0  0  0  0  0  0  0  0  0  0  0  0
   57.3262   19.6243   46.4966 H   0  0  0  0  0  0  0  0  0  0  0  0
   56.5645   19.3701   44.3647 H   0  0  0  0  0  0  0  0  0  0  0  0
   55.0151   19.8296   45.1626 H   0  0  0  0  0  0  0  0  0  0  0  0
   58.3436   22.2654   43.7399 H   0  0  0  0  0  0  0  0  0  0  0  0
   59.1241   24.5600   44.3015 H   0  0  0  0  0  0  0  0  0  0  0  0
   55.8651   27.8702   45.0450 H   0  0  0  0  0  0  0  0  0  0  0  0
   57.0837   32.3777   44.5990 H   0  0  0  0  0  0  0  0  0  0  0  0
   56.9298   33.8021   45.7175 H   0  0  0  0  0  0  0  0  0  0  0  0
   59.5026   33.1818   44.2243 H   0  0  0  0  0  0  0  0  0  0  0  0
   58.1393   34.1959   43.5282 H   0  0  0  0  0  0  0  0  0  0  0  0
   59.9933   35.5470   44.4821 H   0  0  0  0  0  0  0  0  0  0  0  0
   58.3631   35.8032   45.2661 H   0  0  0  0  0  0  0  0  0  0  0  0
   60.4850   34.0820   46.3480 H   0  0  0  0  0  0  0  0  0  0  0  0
   59.2029   34.8420   48.4701 H   0  0  0  0  0  0  0  0  0  0  0  0
   57.8581   34.9064   47.2282 H   0  0  0  0  0  0  0  0  0  0  0  0
   59.5411   32.4873   47.9920 H   0  0  0  0  0  0  0  0  0  0  0  0
   57.7713   32.7936   48.3256 H   0  0  0  0  0  0  0  0  0  0  0  0
   60.6006   31.0091   46.8239 H   0  0  0  0  0  0  0  0  0  0  0  0
   60.9980   28.5299   46.5615 H   0  0  0  0  0  0  0  0  0  0  0  0
   55.1431   25.5742   45.6731 H   0  0  0  0  0  0  0  0  0  0  0  0
   54.3650   23.2787   45.1102 H   0  0  0  0  0  0  0  0  0  0  0  0
  1  2  1  0
  2  3  1  0
  2  4  1  0
  4  5  1  0
  5  6  1  0
  6  7  1  0
  7  8  2  0
  8  9  1  0
  9 10  2  0
 10 11  1  0
 11 12  2  0
 12 13  1  0
 13 14  1  0
 14 15  2  0
 15 16  1  0
 16 17  1  0
 17 18  1  0
 18 19  1  0
 19 20  1  0
 20 21  1  0
 21 22  1  0
 15 23  1  0
 23 24  2  0
 24 25  1  0
 25 26  2  0
 10 27  1  0
 27 28  2  0
 28  7  1  0
 26 11  1  0
 25 13  1  0
 22 16  1  0
  1 29  1  0
  1 30  1  0
  1 31  1  0
  3 32  1  0
  3 33  1  0
  3 34  1  0
  4 35  1  0
  4 36  1  0
  5 37  1  0
  5 38  1  0
  8 39  1  0
  9 40  1  0
 12 41  1  0
 17 42  1  0
 17 43  1  0
 18 44  1  0
 18 45  1  0
 19 46  1  0
 19 47  1  0
 20 48  1  0
 21 49  1  0
 21 50  1  0
 22 51  1  0
 22 52  1  0
 23 53  1  0
 24 54  1  0
 27 55  1  0
 28 56  1  0
M  END
>  <UniqueID>  (4) 
4

>  <SMILES>  (4) 
CN(C)CCOc1ccc(-c2cn3nc(N4CCCNCC4)ccc3n2)cc1

>  <Energy>  (4) 
110.17834120105763

>  <Genealogy>  (4) 
CN(C)CCOc1ccc(-c2cn3nc(N4CCCNCC4)ccc3n2)cc1 (3D coordinates assigned)
CN(C)CCOc1ccc(-c2cn3nc(N4CCCNCC4)ccc3n2)cc1 (nonaromatic ring conformer: 110.17834120105763 kcal/mol)

>  <smiles>  (4) 
CN(C)CCOc1ccc(-c2cn3nc(N4CCCNCC4)ccc3n2)cc1

>  <score_type>  (4) 
oracle

>  <origin>  (4) 
adg

>  <m_score__min__energy>  (4) 
-4.96

>  <m_primary>  (4) 
energy

$$$$
4:0
     RDKit          3D

 53 56  0  0  0  0  0  0  0  0999 V2000
   62.1090   34.2350   49.7590 C   0  0  0  0  0  0  0  0  0  0  0  0
   62.8030   32.8890   49.5690 C   0  0  0  0  0  0  0  0  0  0  0  0
   62.4220   32.2770   48.2770 N   0  0  0  0  0  0  0  0  0  0  0  0
   63.3580   32.4660   47.1390 C   0  0  0  0  0  0  0  0  0  0  0  0
   63.2720   33.8350   46.4440 C   0  0  0  0  0  0  0  0  0  0  0  0
   61.8530   30.9160   48.3950 C   0  0  0  0  0  0  0  0  0  0  0  0
   60.6860   30.8210   49.3900 C   0  0  0  0  0  0  0  0  0  0  0  0
   59.5500   31.6150   48.9250 N   0  0  0  0  0  0  0  0  0  0  0  0
   59.1920   31.6770   47.5360 C   0  0  0  0  0  0  0  0  0  0  0  0
   58.8670   30.5200   46.8340 C   0  0  0  0  0  0  0  0  0  0  0  0
   58.5850   30.5570   45.4780 C   0  0  0  0  0  0  0  0  0  0  0  0
   58.4660   31.7440   44.7980 N   0  0  0  0  0  0  0  0  0  0  0  0
   57.8380   31.7690   43.4660 C   0  0  0  0  0  0  0  0  0  0  0  0
   58.8690   32.9100   45.4300 C   0  0  0  0  0  0  0  0  0  0  0  0
   58.9750   34.1360   44.7290 C   0  0  0  0  0  0  0  0  0  0  0  0
   59.3440   35.3100   45.3860 C   0  0  0  0  0  0  0  0  0  0  0  0
   59.6240   35.2940   46.7490 C   0  0  0  0  0  0  0  0  0  0  0  0
   59.5630   34.1010   47.4640 C   0  0  0  0  0  0  0  0  0  0  0  0
   59.2070   32.8970   46.8240 C   0  0  0  0  0  0  0  0  0  0  0  0
   58.3230   29.1680   45.0370 C   0  0  0  0  0  0  0  0  0  0  0  0
   58.2560   28.6470   43.7790 N   0  0  0  0  0  0  0  0  0  0  0  0
   58.1050   27.2980   43.6130 C   0  0  0  0  0  0  0  0  0  0  0  0
   58.0770   26.4370   44.7260 C   0  0  0  0  0  0  0  0  0  0  0  0
   58.2330   26.9620   46.0170 C   0  0  0  0  0  0  0  0  0  0  0  0
   58.3650   28.3410   46.1430 C   0  0  0  0  0  0  0  0  0  0  0  0
   58.6900   29.1460   47.3090 C   0  0  0  0  0  0  0  0  0  0  0  0
   58.7520   28.7380   48.4990 O   0  0  0  0  0  0  0  0  0  0  0  0
   62.0014   34.4436   50.8337 H   0  0  0  0  0  0  0  0  0  0  0  0
   62.7110   35.0273   49.2901 H   0  0  0  0  0  0  0  0  0  0  0  0
   61.1144   34.2041   49.2901 H   0  0  0  0  0  0  0  0  0  0  0  0
   63.8925   33.0394   49.5890 H   0  0  0  0  0  0  0  0  0  0  0  0
   62.4934   32.2158   50.3820 H   0  0  0  0  0  0  0  0  0  0  0  0
   64.3834   32.3393   47.5165 H   0  0  0  0  0  0  0  0  0  0  0  0
   63.0745   31.7199   46.3821 H   0  0  0  0  0  0  0  0  0  0  0  0
   63.2221   34.6292   47.2034 H   0  0  0  0  0  0  0  0  0  0  0  0
   64.1626   33.9838   45.8157 H   0  0  0  0  0  0  0  0  0  0  0  0
   62.3698   33.8712   45.8157 H   0  0  0  0  0  0  0  0  0  0  0  0
   61.4916   30.6031   47.4043 H   0  0  0  0  0  0  0  0  0  0  0  0
   62.6535   30.2635   48.7737 H   0  0  0  0  0  0  0  0  0  0  0  0
   60.3774   29.7696   49.4864 H   0  0  0  0  0  0  0  0  0  0  0  0
   61.0168   31.2103   50.3642 H   0  0  0  0  0  0  0  0  0  0  0  0
   59.0800   32.2640   49.5960 H   0  0  0  0  0  0  0  0  0  0  0  0
   56.7445   31.8125   43.5770 H   0  0  0  0  0  0  0  0  0  0  0  0
   58.1860   32.6540   42.9131 H   0  0  0  0  0  0  0  0  0  0  0  0
   58.1145   30.8591   42.9131 H   0  0  0  0  0  0  0  0  0  0  0  0
   58.7631   34.1629   43.6499 H   0  0  0  0  0  0  0  0  0  0  0  0
   59.4140   36.2529   44.8239 H   0  0  0  0  0  0  0  0  0  0  0  0
   59.8946   36.2278   47.2636 H   0  0  0  0  0  0  0  0  0  0  0  0
   59.7950   34.0982   48.5393 H   0  0  0  0  0  0  0  0  0  0  0  0
   58.3640   29.2410   42.9310 H   0  0  0  0  0  0  0  0  0  0  0  0
   58.0044   26.8818   42.5998 H   0  0  0  0  0  0  0  0  0  0  0  0
   57.9332   25.3558   44.5837 H   0  0  0  0  0  0  0  0  0  0  0  0
   58.2504   26.3058   46.8997 H   0  0  0  0  0  0  0  0  0  0  0  0
  1  2  1  0
  2  3  1  0
  3  4  1  0
  4  5  1  0
  3  6  1  0
  6  7  1  0
  7  8  1  0
  8  9  1  0
  9 10  2  0
 10 11  1  0
 11 12  2  0
 12 13  1  0
 12 14  1  0
 14 15  2  0
 15 16  1  0
 16 17  2  0
 17 18  1  0
 18 19  2  0
 11 20  1  0
 20 21  2  0
 21 22  1  0
 22 23  2  0
 23 24  1  0
 24 25  2  0
 25 26  1  0
 26 27  2  0
 19  9  1  0
 25 20  1  0
 26 10  1  0
 19 14  1  0
  1 28  1  0
  1 29  1  0
  1 30  1  0
  2 31  1  0
  2 32  1  0
  4 33  1  0
  4 34  1  0
  5 35  1  0
  5 36  1  0
  5 37  1  0
  6 38  1  0
  6 39  1  0
  7 40  1  0
  7 41  1  0
  8 42  1  0
 13 43  1  0
 13 44  1  0
 13 45  1  0
 15 46  1  0
 16 47  1  0
 17 48  1  0
 18 49  1  0
 21 50  1  0
 22 51  1  0
 23 52  1  0
 24 53  1  0
M  CHG  2  12   1  21   1
M  END
>  <UniqueID>  (5) 
5

>  <SMILES>  (5) 
CCN(CC)CCNc1c2c([n+](C)c3ccccc13)-c1[nH+]cccc1C2=O

>  <Energy>  (5) 
116.14224036903526

>  <Genealogy>  (5) 
CCN(CC)CCNc1c2c([n+](C)c3ccccc13)-c1[nH+]cccc1C2=O (protonated)
CCN(CC)CCNc1c2c([n+](C)c3ccccc13)-c1[nH+]cccc1C2=O (3D coordinates assigned)
CCN(CC)CCNc1c2c([n+](C)c3ccccc13)-c1[nH+]cccc1C2=O (nonaromatic ring conformer: 116.14224036903526 kcal/mol)

>  <smiles>  (5) 
CCN(CC)CCNc1c2c([n+](C)c3ccccc13)-c1ncccc1C2=O

>  <score_type>  (5) 
oracle

>  <origin>  (5) 
adg

>  <m_score__min__energy>  (5) 
-5.21

>  <m_primary>  (5) 
energy

$$$$
5:0
     RDKit          3D

 57 59  0  0  0  0  0  0  0  0999 V2000
   54.1130   30.4620   51.7000 C   0  0  0  0  0  0  0  0  0  0  0  0
   54.8540   29.4100   52.5160 C   0  0  0  0  0  0  0  0  0  0  0  0
   56.2450   29.4810   52.2620 O   0  0  0  0  0  0  0  0  0  0  0  0
   56.8780   30.4210   53.1100 C   0  0  0  0  0  0  0  0  0  0  0  0
   57.3140   31.6480   52.3040 C   0  0  0  0  0  0  0  0  0  0  0  0
   58.3870   31.2870   51.2680 C   0  0  0  0  0  0  0  0  0  0  0  0
   58.3040   29.8630   50.9190 N   0  0  0  0  0  0  0  0  0  0  0  0
   59.3850   29.4760   50.0040 C   0  0  0  0  0  0  0  0  0  0  0  0
   58.8400   28.8330   48.7160 C   0  0  0  0  0  0  0  0  0  0  0  0
   59.9320   28.4670   47.6840 C   0  0  0  0  0  0  0  0  0  0  0  0
   60.2780   29.5450   46.7420 N   0  0  0  0  0  0  0  0  0  0  0  0
   59.4120   30.6290   46.3410 C   0  0  0  0  0  0  0  0  0  0  0  0
   59.5000   31.8980   46.9450 C   0  0  0  0  0  0  0  0  0  0  0  0
   60.2620   32.0970   48.1150 C   0  0  0  0  0  0  0  0  0  0  0  0
   60.3380   33.3530   48.7130 C   0  0  0  0  0  0  0  0  0  0  0  0
   59.6330   34.4230   48.1750 C   0  0  0  0  0  0  0  0  0  0  0  0
   58.8500   34.2460   47.0360 C   0  0  0  0  0  0  0  0  0  0  0  0
   58.7760   32.9870   46.3860 C   0  0  0  0  0  0  0  0  0  0  0  0
   58.0090   32.8000   45.2530 N   0  0  0  0  0  0  0  0  0  0  0  0
   57.5080   33.9670   44.4930 C   0  0  0  0  0  0  0  0  0  0  0  0
   57.7130   31.5190   44.8280 C   0  0  0  0  0  0  0  0  0  0  0  0
   56.7030   31.2680   43.8640 C   0  0  0  0  0  0  0  0  0  0  0  0
   56.4450   29.9750   43.4110 C   0  0  0  0  0  0  0  0  0  0  0  0
   57.1700   28.9020   43.9120 C   0  0  0  0  0  0  0  0  0  0  0  0
   58.1470   29.1100   44.8830 C   0  0  0  0  0  0  0  0  0  0  0  0
   58.4250   30.4110   45.3600 C   0  0  0  0  0  0  0  0  0  0  0  0
   53.6148   31.1692   52.3795 H   0  0  0  0  0  0  0  0  0  0  0  0
   54.8289   31.0053   51.0657 H   0  0  0  0  0  0  0  0  0  0  0  0
   53.3603   29.9709   51.0657 H   0  0  0  0  0  0  0  0  0  0  0  0
   54.6711   29.5859   53.5863 H   0  0  0  0  0  0  0  0  0  0  0  0
   54.4885   28.4126   52.2301 H   0  0  0  0  0  0  0  0  0  0  0  0
   56.1746   30.7333   53.8959 H   0  0  0  0  0  0  0  0  0  0  0  0
   57.7649   29.9554   53.5645 H   0  0  0  0  0  0  0  0  0  0  0  0
   56.4387   32.0629   51.7826 H   0  0  0  0  0  0  0  0  0  0  0  0
   57.7402   32.3852   53.0003 H   0  0  0  0  0  0  0  0  0  0  0  0
   58.2338   31.8916   50.3619 H   0  0  0  0  0  0  0  0  0  0  0  0
   59.3793   31.4919   51.6962 H   0  0  0  0  0  0  0  0  0  0  0  0
   57.3890   29.6880   50.4450 H   0  0  0  0  0  0  0  0  0  0  0  0
   58.3740   29.2970   51.7970 H   0  0  0  0  0  0  0  0  0  0  0  0
   59.9639   30.3725   49.7372 H   0  0  0  0  0  0  0  0  0  0  0  0
   60.0173   28.7352   50.5153 H   0  0  0  0  0  0  0  0  0  0  0  0
   58.3010   27.9140   48.9897 H   0  0  0  0  0  0  0  0  0  0  0  0
   58.1890   29.5802   48.2385 H   0  0  0  0  0  0  0  0  0  0  0  0
   60.8428   28.1878   48.2340 H   0  0  0  0  0  0  0  0  0  0  0  0
   59.5221   27.6458   47.0777 H   0  0  0  0  0  0  0  0  0  0  0  0
   61.2110   29.4780   46.2760 H   0  0  0  0  0  0  0  0  0  0  0  0
   60.8033   31.2496   48.5611 H   0  0  0  0  0  0  0  0  0  0  0  0
   60.9562   33.4978   49.6113 H   0  0  0  0  0  0  0  0  0  0  0  0
   59.6933   35.4133   48.6500 H   0  0  0  0  0  0  0  0  0  0  0  0
   58.2798   35.0965   46.6341 H   0  0  0  0  0  0  0  0  0  0  0  0
   57.1738   34.7455   45.1946 H   0  0  0  0  0  0  0  0  0  0  0  0
   58.3142   34.3657   43.8598 H   0  0  0  0  0  0  0  0  0  0  0  0
   56.6636   33.6571   43.8598 H   0  0  0  0  0  0  0  0  0  0  0  0
   56.1135   32.1077   43.4673 H   0  0  0  0  0  0  0  0  0  0  0  0
   55.6649   29.8044   42.6545 H   0  0  0  0  0  0  0  0  0  0  0  0
   56.9724   27.8854   43.5413 H   0  0  0  0  0  0  0  0  0  0  0  0
   58.7081   28.2525   45.2827 H   0  0  0  0  0  0  0  0  0  0  0  0
  1  2  1  0
  2  3  1  0
  3  4  1  0
  4  5  1  0
  5  6  1  0
  6  7  1  0
  7  8  1  0
  8  9  1  0
  9 10  1  0
 10 11  1  0
 11 12  1  0
 12 13  2  0
 13 14  1  0
 14 15  2  0
 15 16  1  0
 16 17  2  0
 17 18  1  0
 18 19  2  0
 19 20  1  0
 19 21  1  0
 21 22  2  0
 22 23  1  0
 23 24  2  0
 24 25  1  0
 25 26  2  0
 26 12  1  0
 18 13  1  0
 26 21  1  0
  1 27  1  0
  1 28  1  0
  1 29  1  0
  2 30  1  0
  2 31  1  0
  4 32  1  0
  4 33  1  0
  5 34  1  0
  5 35  1  0
  6 36  1  0
  6 37  1  0
  7 38  1  0
  7 39  1  0
  8 40  1  0
  8 41  1  0
  9 42  1  0
  9 43  1  0
 10 44  1  0
 10 45  1  0
 11 46  1  0
 14 47  1  0
 15 48  1  0
 16 49  1  0
 17 50  1  0
 20 51  1  0
 20 52  1  0
 20 53  1  0
 22 54  1  0
 23 55  1  0
 24 56  1  0
 25 57  1  0
M  CHG  2   7   1  19   1
M  END
>  <UniqueID>  (6) 
6

>  <SMILES>  (6) 
CCOCCC[NH2+]CCCNc1c2ccccc2[n+](C)c2ccccc12

>  <Energy>  (6) 
79.6632100516043

>  <Genealogy>  (6) 
CCOCCC[NH2+]CCCNc1c2ccccc2[n+](C)c2ccccc12 (protonated)
CCOCCC[NH2+]CCCNc1c2ccccc2[n+](C)c2ccccc12 (3D coordinates assigned)
CCOCCC[NH2+]CCCNc1c2ccccc2[n+](C)c2ccccc12 (optimized conformer: 79.6632100516043 kcal/mol)

>  <smiles>  (6) 
CCOCCCNCCCNc1c2ccccc2[n+](C)c2ccccc12

>  <score_type>  (6) 
oracle

>  <origin>  (6) 
adg

>  <m_score__min__energy>  (6) 
-4.4800000000000004

>  <m_primary>  (6) 
energy

$$$$
6:0
     RDKit          3D

 93 98  0  0  0  0  0  0  0  0999 V2000
   59.5920   33.9880   52.6500 C   0  0  0  0  0  0  0  0  0  0  0  0
   60.9420   33.4040   52.2660 C   0  0  0  0  0  0  0  0  0  0  0  0
   60.8500   31.9350   52.2430 N   0  0  0  0  0  0  0  0  0  0  0  0
   60.4730   31.3810   53.5500 C   0  0  0  0  0  0  0  0  0  0  0  0
   59.1530   30.6040   53.4530 C   0  0  0  0  0  0  0  0  0  0  0  0
   58.7540   30.4710   52.1010 O   0  0  0  0  0  0  0  0  0  0  0  0
   57.5450   31.1620   51.8620 C   0  0  0  0  0  0  0  0  0  0  0  0
   57.7000   32.0090   50.5960 C   0  0  0  0  0  0  0  0  0  0  0  0
   59.0640   31.9560   50.0530 N   0  0  0  0  0  0  0  0  0  0  0  0
   59.3270   31.4980   48.7190 C   0  0  0  0  0  0  0  0  0  0  0  0
   59.0290   32.3500   47.6420 C   0  0  0  0  0  0  0  0  0  0  0  0
   58.7860   33.7230   47.8540 C   0  0  0  0  0  0  0  0  0  0  0  0
   58.5310   34.5730   46.7820 C   0  0  0  0  0  0  0  0  0  0  0  0
   58.5410   34.0770   45.4840 C   0  0  0  0  0  0  0  0  0  0  0  0
   58.7640   32.7210   45.2550 C   0  0  0  0  0  0  0  0  0  0  0  0
   58.9730   31.8220   46.3310 C   0  0  0  0  0  0  0  0  0  0  0  0
   59.0960   30.4630   46.1320 N   0  0  0  0  0  0  0  0  0  0  0  0
   58.6840   29.8780   44.8360 C   0  0  0  0  0  0  0  0  0  0  0  0
   59.5870   29.6560   47.1410 C   0  0  0  0  0  0  0  0  0  0  0  0
   59.9510   28.3140   46.8810 C   0  0  0  0  0  0  0  0  0  0  0  0
   60.4100   27.4840   47.8890 C   0  0  0  0  0  0  0  0  0  0  0  0
   60.6070   27.9830   49.1640 C   0  0  0  0  0  0  0  0  0  0  0  0
   60.3510   29.3280   49.4700 C   0  0  0  0  0  0  0  0  0  0  0  0
   60.9200   29.8360   50.7040 N   0  0  0  0  0  0  0  0  0  0  0  0
   62.0220   28.9980   51.2100 C   0  0  0  0  0  0  0  0  0  0  0  0
   63.3790   29.7440   51.2200 C   0  0  0  0  0  0  0  0  0  0  0  0
   63.9820   29.9900   52.6220 C   0  0  0  0  0  0  0  0  0  0  0  0
   65.4920   29.7260   52.7910 C   0  0  0  0  0  0  0  0  0  0  0  0
   66.2950   29.6210   51.4730 C   0  0  0  0  0  0  0  0  0  0  0  0
   66.8060   30.9690   50.9500 C   0  0  0  0  0  0  0  0  0  0  0  0
   65.7750   31.6210   50.1440 N   0  0  0  0  0  0  0  0  0  0  0  0
   64.8670   32.5190   50.4400 C   0  0  0  0  0  0  0  0  0  0  0  0
   64.8860   33.3320   51.6180 C   0  0  0  0  0  0  0  0  0  0  0  0
   65.6010   33.0190   52.8000 C   0  0  0  0  0  0  0  0  0  0  0  0
   65.6630   33.9230   53.8660 C   0  0  0  0  0  0  0  0  0  0  0  0
   64.9690   35.1290   53.8060 C   0  0  0  0  0  0  0  0  0  0  0  0
   64.1670   35.4110   52.7040 C   0  0  0  0  0  0  0  0  0  0  0  0
   64.0920   34.5110   51.6340 C   0  0  0  0  0  0  0  0  0  0  0  0
   63.2200   34.7670   50.6320 N   0  0  0  0  0  0  0  0  0  0  0  0
   63.0620   33.9320   49.5800 C   0  0  0  0  0  0  0  0  0  0  0  0
   62.0980   34.2260   48.6100 C   0  0  0  0  0  0  0  0  0  0  0  0
   61.9430   33.3930   47.5010 C   0  0  0  0  0  0  0  0  0  0  0  0
   62.7630   32.2750   47.3460 C   0  0  0  0  0  0  0  0  0  0  0  0
   63.7280   31.9710   48.3100 C   0  0  0  0  0  0  0  0  0  0  0  0
   63.8850   32.7890   49.4540 C   0  0  0  0  0  0  0  0  0  0  0  0
   59.7550   30.1700   48.4670 C   0  0  0  0  0  0  0  0  0  0  0  0
   59.5068   34.0248   53.7461 H   0  0  0  0  0  0  0  0  0  0  0  0
   59.5028   35.0052   52.2409 H   0  0  0  0  0  0  0  0  0  0  0  0
   58.7896   33.3565   52.2409 H   0  0  0  0  0  0  0  0  0  0  0  0
   61.2299   33.7694   51.2692 H   0  0  0  0  0  0  0  0  0  0  0  0
   61.6991   33.7135   53.0015 H   0  0  0  0  0  0  0  0  0  0  0  0
   60.1140   31.6620   51.5470 H   0  0  0  0  0  0  0  0  0  0  0  0
   61.2663   30.7022   53.8963 H   0  0  0  0  0  0  0  0  0  0  0  0
   60.3420   32.2109   54.2599 H   0  0  0  0  0  0  0  0  0  0  0  0
   59.2887   29.6039   53.8904 H   0  0  0  0  0  0  0  0  0  0  0  0
   58.3747   31.1552   54.0010 H   0  0  0  0  0  0  0  0  0  0  0  0
   56.7274   30.4391   51.7248 H   0  0  0  0  0  0  0  0  0  0  0  0
   57.3111   31.8113   52.7186 H   0  0  0  0  0  0  0  0  0  0  0  0
   57.0009   31.6360   49.8331 H   0  0  0  0  0  0  0  0  0  0  0  0
   57.4842   33.0543   50.8621 H   0  0  0  0  0  0  0  0  0  0  0  0
   59.7260   32.6610   50.4380 H   0  0  0  0  0  0  0  0  0  0  0  0
   58.7982   34.1262   48.8774 H   0  0  0  0  0  0  0  0  0  0  0  0
   58.3215   35.6377   46.9622 H   0  0  0  0  0  0  0  0  0  0  0  0
   58.3725   34.7565   44.6355 H   0  0  0  0  0  0  0  0  0  0  0  0
   58.7781   32.3418   44.2225 H   0  0  0  0  0  0  0  0  0  0  0  0
   58.0592   28.9908   45.0163 H   0  0  0  0  0  0  0  0  0  0  0  0
   58.1090   30.6214   44.2644 H   0  0  0  0  0  0  0  0  0  0  0  0
   59.5777   29.5871   44.2644 H   0  0  0  0  0  0  0  0  0  0  0  0
   59.8675   27.9220   45.8566 H   0  0  0  0  0  0  0  0  0  0  0  0
   60.6186   26.4252   47.6757 H   0  0  0  0  0  0  0  0  0  0  0  0
   60.9721   27.3110   49.9547 H   0  0  0  0  0  0  0  0  0  0  0  0
   60.1860   29.9870   51.4190 H   0  0  0  0  0  0  0  0  0  0  0  0
   61.3020   30.7860   50.4950 H   0  0  0  0  0  0  0  0  0  0  0  0
   61.7840   28.6852   52.2374 H   0  0  0  0  0  0  0  0  0  0  0  0
   62.1209   28.1340   50.5364 H   0  0  0  0  0  0  0  0  0  0  0  0
   64.0991   29.1492   50.6390 H   0  0  0  0  0  0  0  0  0  0  0  0
   63.1850   30.7383   50.7913 H   0  0  0  0  0  0  0  0  0  0  0  0
   63.7981   31.0428   52.8822 H   0  0  0  0  0  0  0  0  0  0  0  0
   63.4888   29.2572   53.2776 H   0  0  0  0  0  0  0  0  0  0  0  0
   65.9170   30.5496   53.3835 H   0  0  0  0  0  0  0  0  0  0  0  0
   65.5769   28.7437   53.2787 H   0  0  0  0  0  0  0  0  0  0  0  0
   67.1611   28.9653   51.6460 H   0  0  0  0  0  0  0  0  0  0  0  0
   65.6094   29.2211   50.7114 H   0  0  0  0  0  0  0  0  0  0  0  0
   67.0640   31.6152   51.8020 H   0  0  0  0  0  0  0  0  0  0  0  0
   67.6954   30.7982   50.3256 H   0  0  0  0  0  0  0  0  0  0  0  0
   66.1155   32.0501   52.8811 H   0  0  0  0  0  0  0  0  0  0  0  0
   66.2627   33.6801   54.7556 H   0  0  0  0  0  0  0  0  0  0  0  0
   65.0544   35.8563   54.6269 H   0  0  0  0  0  0  0  0  0  0  0  0
   63.5888   36.3463   52.6735 H   0  0  0  0  0  0  0  0  0  0  0  0
   61.4607   35.1156   48.7215 H   0  0  0  0  0  0  0  0  0  0  0  0
   61.1733   33.6183   46.7481 H   0  0  0  0  0  0  0  0  0  0  0  0
   62.6496   31.6305   46.4618 H   0  0  0  0  0  0  0  0  0  0  0  0
   64.3711   31.0883   48.1784 H   0  0  0  0  0  0  0  0  0  0  0  0
  1  2  1  0
  2  3  1  0
  3  4  1  0
  4  5  1  0
  5  6  1  0
  6  7  1  0
  7  8  1  0
  8  9  1  0
  9 10  1  0
 10 11  2  0
 11 12  1  0
 12 13  2  0
 13 14  1  0
 14 15  2  0
 15 16  1  0
 16 17  2  0
 17 18  1  0
 17 19  1  0
 19 20  2  0
 20 21  1  0
 21 22  2  0
 22 23  1  0
 23 24  1  0
 24 25  1  0
 25 26  1  0
 26 27  1  0
 27 28  1  0
 28 29  1  0
 29 30  1  0
 30 31  1  0
 31 32  2  3
 32 33  1  0
 33 34  2  0
 34 35  1  0
 35 36  2  0
 36 37  1  0
 37 38  2  0
 38 39  1  0
 39 40  1  0
 40 41  2  0
 41 42  1  0
 42 43  2  0
 43 44  1  0
 44 45  2  0
 23 46  2  0
 46 10  1  0
 16 11  1  0
 46 19  1  0
 45 32  1  0
 38 33  1  0
 45 40  1  0
  1 47  1  0
  1 48  1  0
  1 49  1  0
  2 50  1  0
  2 51  1  0
  3 52  1  0
  4 53  1  0
  4 54  1  0
  5 55  1  0
  5 56  1  0
  7 57  1  0
  7 58  1  0
  8 59  1  0
  8 60  1  0
  9 61  1  0
 12 62  1  0
 13 63  1  0
 14 64  1  0
 15 65  1  0
 18 66  1  0
 18 67  1  0
 18 68  1  0
 20 69  1  0
 21 70  1  0
 22 71  1  0
 24 72  1  0
 24 73  1  0
 25 74  1  0
 25 75  1  0
 26 76  1  0
 26 77  1  0
 27 78  1  0
 27 79  1  0
 28 80  1  0
 28 81  1  0
 29 82  1  0
 29 83  1  0
 30 84  1  0
 30 85  1  0
 34 86  1  0
 35 87  1  0
 36 88  1  0
 37 89  1  0
 41 90  1  0
 42 91  1  0
 43 92  1  0
 44 93  1  0
M  CHG  3  17   1  24   1  39  -1
M  END
>  <UniqueID>  (7) 
7

>  <SMILES>  (7) 
CCNCCOCCNc1c2ccccc2[n+](C)c2cccc([NH2+]CCCCCCN=c3c4ccccc4[n-]c4ccccc34)c12

>  <Energy>  (7) 
142.1032138894453

>  <Genealogy>  (7) 
CCNCCOCCNc1c2ccccc2[n+](C)c2cccc([NH2+]CCCCCCN=c3c4ccccc4[n-]c4ccccc34)c12 (protonated)
CCNCCOCCNc1c2ccccc2[n+](C)c2cccc([NH2+]CCCCCCN=c3c4ccccc4[n-]c4ccccc34)c12 (3D coordinates assigned)
CCNCCOCCNc1c2ccccc2[n+](C)c2cccc([NH2+]CCCCCCN=c3c4ccccc4[n-]c4ccccc34)c12 (optimized conformer: 142.1032138894453 kcal/mol)

>  <smiles>  (7) 
CCNCCOCCNc1c2ccccc2[n+](C)c2cccc(NCCCCCCN=c3c4ccccc4[nH]c4ccccc34)c12

>  <score_type>  (7) 
oracle

>  <origin>  (7) 
adg

>  <m_score__min__energy>  (7) 
-7.3799999999999999

>  <m_primary>  (7) 
energy

$$$$
7:0
     RDKit          3D

 66 69  0  0  0  0  0  0  0  0999 V2000
   62.1590   33.4580   46.7080 C   0  0  0  0  0  0  0  0  0  0  0  0
   63.0400   32.5180   47.5280 C   0  0  0  0  0  0  0  0  0  0  0  0
   63.3410   33.0960   48.8470 N   0  0  0  0  0  0  0  0  0  0  0  0
   62.5580   34.2350   49.3440 C   0  0  0  0  0  0  0  0  0  0  0  0
   61.7760   33.8470   50.5960 C   0  0  0  0  0  0  0  0  0  0  0  0
   60.3960   33.9790   50.3290 O   0  0  0  0  0  0  0  0  0  0  0  0
   59.6460   32.9810   50.9920 C   0  0  0  0  0  0  0  0  0  0  0  0
   59.2100   31.8570   50.0470 C   0  0  0  0  0  0  0  0  0  0  0  0
   59.9170   31.9230   48.7650 N   0  0  0  0  0  0  0  0  0  0  0  0
   59.4160   31.3020   47.5660 C   0  0  0  0  0  0  0  0  0  0  0  0
   58.7960   32.0740   46.5630 C   0  0  0  0  0  0  0  0  0  0  0  0
   58.5760   33.4580   46.7420 C   0  0  0  0  0  0  0  0  0  0  0  0
   58.0460   34.2350   45.7150 C   0  0  0  0  0  0  0  0  0  0  0  0
   57.7160   33.6490   44.4970 C   0  0  0  0  0  0  0  0  0  0  0  0
   57.8640   32.2720   44.3190 C   0  0  0  0  0  0  0  0  0  0  0  0
   58.3600   31.4470   45.3640 C   0  0  0  0  0  0  0  0  0  0  0  0
   58.4220   30.0710   45.2340 N   0  0  0  0  0  0  0  0  0  0  0  0
   57.7010   29.4020   44.1260 C   0  0  0  0  0  0  0  0  0  0  0  0
   59.1120   29.3170   46.1660 C   0  0  0  0  0  0  0  0  0  0  0  0
   59.4000   27.9440   45.9480 C   0  0  0  0  0  0  0  0  0  0  0  0
   60.0350   27.1770   46.9230 C   0  0  0  0  0  0  0  0  0  0  0  0
   60.4060   27.7540   48.1330 C   0  0  0  0  0  0  0  0  0  0  0  0
   60.1790   29.1080   48.3600 C   0  0  0  0  0  0  0  0  0  0  0  0
   59.5690   29.9150   47.3730 C   0  0  0  0  0  0  0  0  0  0  0  0
   64.2710   32.4430   49.7340 C   0  0  0  0  0  0  0  0  0  0  0  0
   65.5760   32.9530   49.8170 C   0  0  0  0  0  0  0  0  0  0  0  0
   66.5170   32.3190   50.6230 C   0  0  0  0  0  0  0  0  0  0  0  0
   66.1600   31.1790   51.3350 C   0  0  0  0  0  0  0  0  0  0  0  0
   64.8570   30.6900   51.2370 C   0  0  0  0  0  0  0  0  0  0  0  0
   63.9240   31.3180   50.4520 N   0  0  0  0  0  0  0  0  0  0  0  0
   62.5700   30.7360   50.4020 C   0  0  0  0  0  0  0  0  0  0  0  0
   62.4250   29.6000   51.4150 C   0  0  0  0  0  0  0  0  0  0  0  0
   61.5667   34.0900   47.3860 H   0  0  0  0  0  0  0  0  0  0  0  0
   62.7932   34.0947   46.0737 H   0  0  0  0  0  0  0  0  0  0  0  0
   61.4826   32.8664   46.0737 H   0  0  0  0  0  0  0  0  0  0  0  0
   62.5150   31.5612   47.6656 H   0  0  0  0  0  0  0  0  0  0  0  0
   63.9860   32.3637   46.9883 H   0  0  0  0  0  0  0  0  0  0  0  0
   63.2398   35.0635   49.5864 H   0  0  0  0  0  0  0  0  0  0  0  0
   61.8463   34.5422   48.5636 H   0  0  0  0  0  0  0  0  0  0  0  0
   62.0025   32.8048   50.8653 H   0  0  0  0  0  0  0  0  0  0  0  0
   62.0595   34.5030   51.4323 H   0  0  0  0  0  0  0  0  0  0  0  0
   60.2628   32.5494   51.7941 H   0  0  0  0  0  0  0  0  0  0  0  0
   58.7378   33.4540   51.3937 H   0  0  0  0  0  0  0  0  0  0  0  0
   59.4235   30.8883   50.5225 H   0  0  0  0  0  0  0  0  0  0  0  0
   58.1335   31.9710   49.8516 H   0  0  0  0  0  0  0  0  0  0  0  0
   60.7670   32.5320   48.6970 H   0  0  0  0  0  0  0  0  0  0  0  0
   58.8265   33.9277   47.7046 H   0  0  0  0  0  0  0  0  0  0  0  0
   57.8881   35.3130   45.8669 H   0  0  0  0  0  0  0  0  0  0  0  0
   57.3378   34.2716   43.6728 H   0  0  0  0  0  0  0  0  0  0  0  0
   57.5922   31.8187   43.3543 H   0  0  0  0  0  0  0  0  0  0  0  0
   56.9540   28.7089   44.5403 H   0  0  0  0  0  0  0  0  0  0  0  0
   57.1959   30.1586   43.5075 H   0  0  0  0  0  0  0  0  0  0  0  0
   58.4177   28.8418   43.5075 H   0  0  0  0  0  0  0  0  0  0  0  0
   59.1170   27.4775   44.9929 H   0  0  0  0  0  0  0  0  0  0  0  0
   60.2432   26.1133   46.7353 H   0  0  0  0  0  0  0  0  0  0  0  0
   60.8798   27.1387   48.9121 H   0  0  0  0  0  0  0  0  0  0  0  0
   60.4780   29.5557   49.3193 H   0  0  0  0  0  0  0  0  0  0  0  0
   65.8543   33.8514   49.2465 H   0  0  0  0  0  0  0  0  0  0  0  0
   67.5394   32.7182   50.6966 H   0  0  0  0  0  0  0  0  0  0  0  0
   66.8984   30.6674   51.9698 H   0  0  0  0  0  0  0  0  0  0  0  0
   64.5737   29.7871   51.7978 H   0  0  0  0  0  0  0  0  0  0  0  0
   61.8328   31.5194   50.6319 H   0  0  0  0  0  0  0  0  0  0  0  0
   62.3994   30.3308   49.3937 H   0  0  0  0  0  0  0  0  0  0  0  0
   62.4772   30.0092   52.4347 H   0  0  0  0  0  0  0  0  0  0  0  0
   61.4558   29.1005   51.2695 H   0  0  0  0  0  0  0  0  0  0  0  0
   63.2376   28.8731   51.2695 H   0  0  0  0  0  0  0  0  0  0  0  0
  1  2  1  0
  2  3  1  0
  3  4  1  0
  4  5  1  0
  5  6  1  0
  6  7  1  0
  7  8  1  0
  8  9  1  0
  9 10  1  0
 10 11  1  0
 11 12  2  0
 12 13  1  0
 13 14  2  0
 14 15  1  0
 15 16  2  0
 16 17  1  0
 17 18  1  0
 17 19  2  0
 19 20  1  0
 20 21  2  0
 21 22  1  0
 22 23  2  0
 23 24  1  0
  3 25  1  0
 25 26  2  0
 26 27  1  0
 27 28  2  0
 28 29  1  0
 29 30  2  0
 30 31  1  0
 31 32  1  0
 24 10  2  0
 30 25  1  0
 16 11  1  0
 24 19  1  0
  1 33  1  0
  1 34  1  0
  1 35  1  0
  2 36  1  0
  2 37  1  0
  4 38  1  0
  4 39  1  0
  5 40  1  0
  5 41  1  0
  7 42  1  0
  7 43  1  0
  8 44  1  0
  8 45  1  0
  9 46  1  0
 12 47  1  0
 13 48  1  0
 14 49  1  0
 15 50  1  0
 18 51  1  0
 18 52  1  0
 18 53  1  0
 20 54  1  0
 21 55  1  0
 22 56  1  0
 23 57  1  0
 26 58  1  0
 27 59  1  0
 28 60  1  0
 29 61  1  0
 31 62  1  0
 31 63  1  0
 32 64  1  0
 32 65  1  0
 32 66  1  0
M  CHG  2  17   1  30   1
M  END
>  <UniqueID>  (8) 
8

>  <SMILES>  (8) 
CCN(CCOCCNc1c2ccccc2[n+](C)c2ccccc12)c1cccc[n+]1CC

>  <Energy>  (8) 
95.1993016538592

>  <Genealogy>  (8) 
CCN(CCOCCNc1c2ccccc2[n+](C)c2ccccc12)c1cccc[n+]1CC (3D coordinates assigned)
CCN(CCOCCNc1c2ccccc2[n+](C)c2ccccc12)c1cccc[n+]1CC (optimized conformer: 95.1993016538592 kcal/mol)

>  <smiles>  (8) 
CCN(CCOCCNc1c2ccccc2[n+](C)c2ccccc12)c1cccc[n+]1CC

>  <score_type>  (8) 
oracle

>  <origin>  (8) 
adg

>  <m_score__min__energy>  (8) 
-4.6699999999999999

>  <m_primary>  (8) 
energy

$$$$
8:0
     RDKit          3D

 46 48  0  0  0  0  0  0  0  0999 V2000
   63.5320   33.0730   46.7500 C   0  0  0  0  0  0  0  0  0  0  0  0
   63.3570   32.3990   48.1190 C   0  0  0  0  0  0  0  0  0  0  0  0
   63.2700   33.3360   49.2720 N   0  0  2  0  0  0  0  0  0  0  0  0
   64.5730   33.4680   49.9510 C   0  0  0  0  0  0  0  0  0  0  0  0
   62.2150   33.0000   50.2620 C   0  0  0  0  0  0  0  0  0  0  0  0
   60.9290   33.8290   50.1060 C   0  0  0  0  0  0  0  0  0  0  0  0
   60.8300   34.3650   48.7840 O   0  0  0  0  0  0  0  0  0  0  0  0
   60.1590   33.7710   47.7050 C   0  0  0  0  0  0  0  0  0  0  0  0
   59.6220   34.5250   46.6310 C   0  0  0  0  0  0  0  0  0  0  0  0
   58.9390   33.8880   45.5840 C   0  0  0  0  0  0  0  0  0  0  0  0
   58.8260   32.4990   45.6150 C   0  0  0  0  0  0  0  0  0  0  0  0
   59.3730   31.7480   46.6370 C   0  0  0  0  0  0  0  0  0  0  0  0
   60.0410   32.3690   47.6950 C   0  0  0  0  0  0  0  0  0  0  0  0
   59.1020   30.2700   46.4390 C   0  0  2  0  0  0  0  0  0  0  0  0
   58.3560   29.7380   47.5090 O   0  0  0  0  0  0  0  0  0  0  0  0
   60.4070   29.4730   46.2510 C   0  0  0  0  0  0  0  0  0  0  0  0
   60.2970   28.2300   46.8500 F   0  0  0  0  0  0  0  0  0  0  0  0
   61.4750   30.1490   46.8160 F   0  0  0  0  0  0  0  0  0  0  0  0
   60.6610   29.2840   44.9040 F   0  0  0  0  0  0  0  0  0  0  0  0
   58.2830   30.3110   45.1640 C   0  0  0  0  0  0  0  0  0  0  0  0
   57.6740   29.2470   44.4920 C   0  0  0  0  0  0  0  0  0  0  0  0
   56.9410   29.5180   43.3250 C   0  0  0  0  0  0  0  0  0  0  0  0
   56.8190   30.8380   42.8490 C   0  0  0  0  0  0  0  0  0  0  0  0
   57.4220   31.9000   43.5420 C   0  0  0  0  0  0  0  0  0  0  0  0
   58.1490   31.6070   44.6960 C   0  0  0  0  0  0  0  0  0  0  0  0
   63.8061   34.1286   46.8934 H   0  0  0  0  0  0  0  0  0  0  0  0
   64.3269   32.5608   46.1881 H   0  0  0  0  0  0  0  0  0  0  0  0
   62.5883   33.0123   46.1881 H   0  0  0  0  0  0  0  0  0  0  0  0
   62.4320   31.8043   48.0914 H   0  0  0  0  0  0  0  0  0  0  0  0
   64.2599   31.7922   48.2819 H   0  0  0  0  0  0  0  0  0  0  0  0
   63.0550   34.2820   48.8790 H   0  0  0  0  0  0  0  0  0  0  0  0
   64.4219   33.4527   51.0405 H   0  0  0  0  0  0  0  0  0  0  0  0
   65.2248   32.6313   49.6594 H   0  0  0  0  0  0  0  0  0  0  0  0
   65.0438   34.4184   49.6594 H   0  0  0  0  0  0  0  0  0  0  0  0
   61.9579   31.9366   50.1471 H   0  0  0  0  0  0  0  0  0  0  0  0
   62.6249   33.2297   51.2566 H   0  0  0  0  0  0  0  0  0  0  0  0
   60.0586   33.1852   50.3006 H   0  0  0  0  0  0  0  0  0  0  0  0
   60.9561   34.6619   50.8240 H   0  0  0  0  0  0  0  0  0  0  0  0
   59.7419   35.6184   46.6185 H   0  0  0  0  0  0  0  0  0  0  0  0
   58.5033   34.4705   44.7588 H   0  0  0  0  0  0  0  0  0  0  0  0
   60.4699   31.7688   48.5110 H   0  0  0  0  0  0  0  0  0  0  0  0
   58.9620   29.1640   48.0490 H   0  0  0  0  0  0  0  0  0  0  0  0
   57.7671   28.2181   44.8697 H   0  0  0  0  0  0  0  0  0  0  0  0
   56.4589   28.6937   42.7790 H   0  0  0  0  0  0  0  0  0  0  0  0
   56.2486   31.0379   41.9299 H   0  0  0  0  0  0  0  0  0  0  0  0
   57.3237   32.9356   43.1844 H   0  0  0  0  0  0  0  0  0  0  0  0
  1  2  1  0
  2  3  1  0
  3  4  1  0
  3  5  1  0
  5  6  1  0
  6  7  1  0
  7  8  1  0
  8  9  2  0
  9 10  1  0
 10 11  2  0
 11 12  1  0
 12 13  2  0
 12 14  1  0
 14 15  1  1
 14 16  1  0
 16 17  1  0
 16 18  1  0
 16 19  1  0
 14 20  1  0
 20 21  2  0
 21 22  1  0
 22 23  2  0
 23 24  1  0
 24 25  2  0
 13  8  1  0
 25 20  1  0
 25 11  1  0
  1 26  1  0
  1 27  1  0
  1 28  1  0
  2 29  1  0
  2 30  1  0
  3 31  1  6
  4 32  1  0
  4 33  1  0
  4 34  1  0
  5 35  1  0
  5 36  1  0
  6 37  1  0
  6 38  1  0
  9 39  1  0
 10 40  1  0
 13 41  1  0
 15 42  1  0
 21 43  1  0
 22 44  1  0
 23 45  1  0
 24 46  1  0
M  CHG  1   3   1
M  END
>  <UniqueID>  (9) 
9

>  <SMILES>  (9) 
CC[N@H+](C)CCOc1ccc2c(c1)[C@](O)(C(F)(F)F)c1ccccc1-2

>  <Energy>  (9) 
75.7174241964829

>  <Genealogy>  (9) 
CC[NH+](C)CCOc1ccc2c(c1)C(O)(C(F)(F)F)c1ccccc1-2 (protonated)
CC[N@H+](C)CCOc1ccc2c(c1)[C@](O)(C(F)(F)F)c1ccccc1-2 (chirality)
CC[N@H+](C)CCOc1ccc2c(c1)[C@](O)(C(F)(F)F)c1ccccc1-2 (3D coordinates assigned)
CC[N@H+](C)CCOc1ccc2c(c1)[C@](O)(C(F)(F)F)c1ccccc1-2 (nonaromatic ring conformer: 75.7174241964829 kcal/mol)

>  <smiles>  (9) 
CCN(C)CCOc1ccc2c(c1)C(O)(C(F)(F)F)c1ccccc1-2

>  <score_type>  (9) 
oracle

>  <origin>  (9) 
adg

>  <m_score__min__energy>  (9) 
-5.1699999999999999

>  <m_primary>  (9) 
energy

$$$$
9:0
     RDKit          3D

 73 76  0  0  0  0  0  0  0  0999 V2000
   63.3640   33.9170   46.6520 C   0  0  0  0  0  0  0  0  0  0  0  0
   63.1340   34.0180   48.1600 C   0  0  0  0  0  0  0  0  0  0  0  0
   62.9590   32.6780   48.7630 N   0  0  0  0  0  0  0  0  0  0  0  0
   63.6970   32.5490   50.0470 C   0  0  0  0  0  0  0  0  0  0  0  0
   65.1880   32.7270   49.7980 C   0  0  0  0  0  0  0  0  0  0  0  0
   63.3440   31.6210   47.8000 C   0  0  0  0  0  0  0  0  0  0  0  0
   62.1040   31.0340   47.1030 C   0  0  0  0  0  0  0  0  0  0  0  0
   60.9050   31.1750   47.9490 N   0  0  0  0  0  0  0  0  0  0  0  0
   59.6950   31.2930   47.1390 C   0  0  0  0  0  0  0  0  0  0  0  0
   59.3750   32.5220   46.5140 C   0  0  0  0  0  0  0  0  0  0  0  0
   59.7530   33.7620   47.0760 C   0  0  0  0  0  0  0  0  0  0  0  0
   59.4360   34.9610   46.4410 C   0  0  0  0  0  0  0  0  0  0  0  0
   58.7180   34.9510   45.2540 C   0  0  0  0  0  0  0  0  0  0  0  0
   58.3040   33.7440   44.6950 C   0  0  0  0  0  0  0  0  0  0  0  0
   58.6290   32.5070   45.3070 C   0  0  0  0  0  0  0  0  0  0  0  0
   58.2370   31.3050   44.7580 N   0  0  0  0  0  0  0  0  0  0  0  0
   57.8060   31.2420   43.3440 C   0  0  0  0  0  0  0  0  0  0  0  0
   58.2270   30.1690   45.5420 C   0  0  0  0  0  0  0  0  0  0  0  0
   57.5340   29.0040   45.1340 C   0  0  0  0  0  0  0  0  0  0  0  0
   57.5260   27.8590   45.9190 C   0  0  0  0  0  0  0  0  0  0  0  0
   58.1490   27.8580   47.1570 C   0  0  0  0  0  0  0  0  0  0  0  0
   58.8070   29.0020   47.6280 C   0  0  0  0  0  0  0  0  0  0  0  0
   59.2000   29.0360   49.0060 N   0  0  0  0  0  0  0  0  0  0  0  0
   60.3820   28.3340   49.5100 C   0  0  0  0  0  0  0  0  0  0  0  0
   61.1510   29.1970   50.5180 C   0  0  0  0  0  0  0  0  0  0  0  0
   60.2800   30.2260   51.2540 C   0  0  0  0  0  0  0  0  0  0  0  0
   59.8780   31.3210   50.3330 N   0  0  0  0  0  0  0  0  0  0  0  0
   60.5210   32.5970   50.6730 C   0  0  0  0  0  0  0  0  0  0  0  0
   59.6260   33.3070   51.6730 C   0  0  0  0  0  0  0  0  0  0  0  0
   58.2450   32.7180   51.4520 C   0  0  0  0  0  0  0  0  0  0  0  0
   58.4370   31.6090   50.4230 C   0  0  0  0  0  0  0  0  0  0  0  0
   58.9110   30.1550   46.7940 C   0  0  0  0  0  0  0  0  0  0  0  0
   64.3558   33.4815   46.4607 H   0  0  0  0  0  0  0  0  0  0  0  0
   62.5897   33.2761   46.2051 H   0  0  0  0  0  0  0  0  0  0  0  0
   63.3120   34.9208   46.2051 H   0  0  0  0  0  0  0  0  0  0  0  0
   64.0017   34.5101   48.6236 H   0  0  0  0  0  0  0  0  0  0  0  0
   62.2188   34.6024   48.3355 H   0  0  0  0  0  0  0  0  0  0  0  0
   63.3482   33.3207   50.7490 H   0  0  0  0  0  0  0  0  0  0  0  0
   63.5142   31.5525   50.4753 H   0  0  0  0  0  0  0  0  0  0  0  0
   65.7156   32.7900   50.7611 H   0  0  0  0  0  0  0  0  0  0  0  0
   65.5694   31.8680   49.2265 H   0  0  0  0  0  0  0  0  0  0  0  0
   65.3565   33.6516   49.2265 H   0  0  0  0  0  0  0  0  0  0  0  0
   64.0134   32.0520   47.0410 H   0  0  0  0  0  0  0  0  0  0  0  0
   63.8531   30.8148   48.3485 H   0  0  0  0  0  0  0  0  0  0  0  0
   61.9393   31.5659   46.1543 H   0  0  0  0  0  0  0  0  0  0  0  0
   62.2793   29.9636   46.9198 H   0  0  0  0  0  0  0  0  0  0  0  0
   60.8330   30.3990   48.6380 H   0  0  0  0  0  0  0  0  0  0  0  0
   61.0670   32.0380   48.5110 H   0  0  0  0  0  0  0  0  0  0  0  0
   60.3048   33.7810   48.0274 H   0  0  0  0  0  0  0  0  0  0  0  0
   59.7555   35.9170   46.8815 H   0  0  0  0  0  0  0  0  0  0  0  0
   58.4748   35.8993   44.7525 H   0  0  0  0  0  0  0  0  0  0  0  0
   57.7163   33.7507   43.7652 H   0  0  0  0  0  0  0  0  0  0  0  0
   56.7185   31.0830   43.2989 H   0  0  0  0  0  0  0  0  0  0  0  0
   58.0596   32.1868   42.8409 H   0  0  0  0  0  0  0  0  0  0  0  0
   58.3194   30.4094   42.8409 H   0  0  0  0  0  0  0  0  0  0  0  0
   56.9917   29.0060   44.1770 H   0  0  0  0  0  0  0  0  0  0  0  0
   57.0236   26.9497   45.5573 H   0  0  0  0  0  0  0  0  0  0  0  0
   58.1267   26.9493   47.7766 H   0  0  0  0  0  0  0  0  0  0  0  0
   58.6020   29.5690   49.6750 H   0  0  0  0  0  0  0  0  0  0  0  0
   60.0638   27.4037   50.0032 H   0  0  0  0  0  0  0  0  0  0  0  0
   61.0459   28.1150   48.6607 H   0  0  0  0  0  0  0  0  0  0  0  0
   61.6065   28.5316   51.2661 H   0  0  0  0  0  0  0  0  0  0  0  0
   61.8982   29.7653   49.9447 H   0  0  0  0  0  0  0  0  0  0  0  0
   59.3782   29.7276   51.6393 H   0  0  0  0  0  0  0  0  0  0  0  0
   60.8603   30.6545   52.0844 H   0  0  0  0  0  0  0  0  0  0  0  0
   61.5096   32.4124   51.1187 H   0  0  0  0  0  0  0  0  0  0  0  0
   60.6602   33.2128   49.7722 H   0  0  0  0  0  0  0  0  0  0  0  0
   59.9676   33.1163   52.7011 H   0  0  0  0  0  0  0  0  0  0  0  0
   59.6366   34.3982   51.5348 H   0  0  0  0  0  0  0  0  0  0  0  0
   57.8474   32.3065   52.3915 H   0  0  0  0  0  0  0  0  0  0  0  0
   57.5275   33.4767   51.1063 H   0  0  0  0  0  0  0  0  0  0  0  0
   57.8944   30.7063   50.7405 H   0  0  0  0  0  0  0  0  0  0  0  0
   58.0466   31.9227   49.4436 H   0  0  0  0  0  0  0  0  0  0  0  0
  1  2  1  0
  2  3  1  0
  3  4  1  0
  4  5  1  0
  3  6  1  0
  6  7  1  0
  7  8  1  0
  8  9  1  0
  9 10  2  0
 10 11  1  0
 11 12  2  0
 12 13  1  0
 13 14  2  0
 14 15  1  0
 15 16  2  0
 16 17  1  0
 16 18  1  0
 18 19  2  0
 19 20  1  0
 20 21  2  0
 21 22  1  0
 22 23  1  0
 23 24  1  0
 24 25  1  0
 25 26  1  0
 26 27  1  0
 27 28  1  0
 28 29  1  0
 29 30  1  0
 30 31  1  0
 22 32  2  0
 32  9  1  0
 15 10  1  0
 32 18  1  0
 31 27  1  0
  1 33  1  0
  1 34  1  0
  1 35  1  0
  2 36  1  0
  2 37  1  0
  4 38  1  0
  4 39  1  0
  5 40  1  0
  5 41  1  0
  5 42  1  0
  6 43  1  0
  6 44  1  0
  7 45  1  0
  7 46  1  0
  8 47  1  0
  8 48  1  0
 11 49  1  0
 12 50  1  0
 13 51  1  0
 14 52  1  0
 17 53  1  0
 17 54  1  0
 17 55  1  0
 19 56  1  0
 20 57  1  0
 21 58  1  0
 23 59  1  0
 24 60  1  0
 24 61  1  0
 25 62  1  0
 25 63  1  0
 26 64  1  0
 26 65  1  0
 28 66  1  0
 28 67  1  0
 29 68  1  0
 29 69  1  0
 30 70  1  0
 30 71  1  0
 31 72  1  0
 31 73  1  0
M  CHG  2   8   1  16   1
M  END
>  <UniqueID>  (10) 
10

>  <SMILES>  (10) 
CCN(CC)CC[NH2+]c1c2ccccc2[n+](C)c2cccc(NCCCN3CCCC3)c12

>  <Energy>  (10) 
117.02541121571596

>  <Genealogy>  (10) 
CCN(CC)CC[NH2+]c1c2ccccc2[n+](C)c2cccc(NCCCN3CCCC3)c12 (protonated)
CCN(CC)CC[NH2+]c1c2ccccc2[n+](C)c2cccc(NCCCN3CCCC3)c12 (3D coordinates assigned)
CCN(CC)CC[NH2+]c1c2ccccc2[n+](C)c2cccc(NCCCN3CCCC3)c12 (nonaromatic ring conformer: 117.02541121571596 kcal/mol)

>  <smiles>  (10) 
CCN(CC)CCNc1c2ccccc2[n+](C)c2cccc(NCCCN3CCCC3)c12

>  <score_type>  (10) 
oracle

>  <origin>  (10) 
adg

>  <m_score__min__energy>  (10) 
-4.96

>  <m_primary>  (10) 
energy

$$$$
10:0
     RDKit          3D

 35 36  0  0  0  0  0  0  0  0999 V2000
   57.7570   32.2310   42.0650 C   0  0  0  0  0  0  0  0  0  0  0  0
   57.2440   31.2170   42.9760 N   0  0  0  0  0  0  0  0  0  0  0  0
   56.9900   29.9650   42.6440 N   0  0  0  0  0  0  0  0  0  0  0  0
   56.5190   29.3440   43.7160 N   0  0  0  0  0  0  0  0  0  0  0  0
   56.4500   30.1690   44.7520 N   0  0  0  0  0  0  0  0  0  0  0  0
   56.8960   31.3440   44.2720 C   0  0  0  0  0  0  0  0  0  0  0  0
   57.0310   32.8450   45.2470 S   0  0  0  0  0  0  0  0  0  0  0  0
   58.7770   33.1780   44.8070 C   0  0  0  0  0  0  0  0  0  0  0  0
   59.4260   34.2600   45.6830 C   0  0  0  0  0  0  0  0  0  0  0  0
   60.5200   33.7390   46.6330 C   0  0  0  0  0  0  0  0  0  0  0  0
   60.1980   32.3720   47.2560 C   0  0  0  0  0  0  0  0  0  0  0  0
   60.6090   31.2980   46.4080 O   0  0  0  0  0  0  0  0  0  0  0  0
   59.8900   30.1140   46.1820 C   0  0  0  0  0  0  0  0  0  0  0  0
   58.9760   29.6990   47.1590 C   0  0  0  0  0  0  0  0  0  0  0  0
   58.2350   28.5270   46.9880 C   0  0  0  0  0  0  0  0  0  0  0  0
   58.3980   27.7570   45.8330 C   0  0  0  0  0  0  0  0  0  0  0  0
   57.3840   26.1560   45.6000 Br  0  0  0  0  0  0  0  0  0  0  0  0
   59.3010   28.1640   44.8480 C   0  0  0  0  0  0  0  0  0  0  0  0
   60.0450   29.3370   45.0160 C   0  0  0  0  0  0  0  0  0  0  0  0
   58.1790   33.0651   42.6448 H   0  0  0  0  0  0  0  0  0  0  0  0
   58.5411   31.7914   41.4311 H   0  0  0  0  0  0  0  0  0  0  0  0
   56.9383   32.6023   41.4311 H   0  0  0  0  0  0  0  0  0  0  0  0
   56.2390   28.3390   43.7410 H   0  0  0  0  0  0  0  0  0  0  0  0
   59.3500   32.2460   44.9207 H   0  0  0  0  0  0  0  0  0  0  0  0
   58.7884   33.5463   43.7705 H   0  0  0  0  0  0  0  0  0  0  0  0
   59.8762   35.0142   45.0208 H   0  0  0  0  0  0  0  0  0  0  0  0
   58.6273   34.6691   46.3191 H   0  0  0  0  0  0  0  0  0  0  0  0
   61.4584   33.6498   46.0661 H   0  0  0  0  0  0  0  0  0  0  0  0
   60.5963   34.4593   47.4608 H   0  0  0  0  0  0  0  0  0  0  0  0
   60.7216   32.2865   48.2196 H   0  0  0  0  0  0  0  0  0  0  0  0
   59.1087   32.3044   47.3936 H   0  0  0  0  0  0  0  0  0  0  0  0
   58.8404   30.3015   48.0693 H   0  0  0  0  0  0  0  0  0  0  0  0
   57.5223   28.2098   47.7635 H   0  0  0  0  0  0  0  0  0  0  0  0
   59.4276   27.5603   43.9372 H   0  0  0  0  0  0  0  0  0  0  0  0
   60.7529   29.6538   44.2360 H   0  0  0  0  0  0  0  0  0  0  0  0
  1  2  1  0
  2  3  1  0
  3  4  2  0
  4  5  1  0
  5  6  2  0
  6  7  1  0
  7  8  1  0
  8  9  1  0
  9 10  1  0
 10 11  1  0
 11 12  1  0
 12 13  1  0
 13 14  2  0
 14 15  1  0
 15 16  2  0
 16 17  1  0
 16 18  1  0
 18 19  2  0
  6  2  1  0
 19 13  1  0
  1 20  1  0
  1 21  1  0
  1 22  1  0
  4 23  1  0
  8 24  1  0
  8 25  1  0
  9 26  1  0
  9 27  1  0
 10 28  1  0
 10 29  1  0
 11 30  1  0
 11 31  1  0
 14 32  1  0
 15 33  1  0
 18 34  1  0
 19 35  1  0
M  CHG  1   4   1
M  END
>  <UniqueID>  (11) 
11

>  <SMILES>  (11) 
Cn1n[nH+]nc1SCCCCOc1ccc(Br)cc1

>  <Energy>  (11) 
67.09022981312972

>  <Genealogy>  (11) 
Cn1n[nH+]nc1SCCCCOc1ccc(Br)cc1 (protonated)
Cn1n[nH+]nc1SCCCCOc1ccc(Br)cc1 (3D coordinates assigned)
Cn1n[nH+]nc1SCCCCOc1ccc(Br)cc1 (optimized conformer: 67.09022981312972 kcal/mol)

>  <smiles>  (11) 
Cn1nnnc1SCCCCOc1ccc(Br)cc1

>  <score_type>  (11) 
oracle

>  <origin>  (11) 
adg

>  <m_score__min__energy>  (11) 
-6.25

>  <m_primary>  (11) 
energy

$$$$
11:0
     RDKit          3D

 57 58  0  0  0  0  0  0  0  0999 V2000
   60.7110   29.3190   45.2430 C   0  0  0  0  0  0  0  0  0  0  0  0
   60.9250   30.2710   46.4240 C   0  0  0  0  0  0  0  0  0  0  0  0
   59.6550   30.8030   46.9500 N   0  0  0  0  0  0  0  0  0  0  0  0
   59.3710   30.3490   48.3210 C   0  0  0  0  0  0  0  0  0  0  0  0
   58.8850   28.8960   48.3190 C   0  0  0  0  0  0  0  0  0  0  0  0
   58.6200   28.4580   46.9990 O   0  0  0  0  0  0  0  0  0  0  0  0
   58.0770   27.1480   46.9840 C   0  0  0  0  0  0  0  0  0  0  0  0
   57.0850   26.9680   45.8250 C   0  0  0  0  0  0  0  0  0  0  0  0
   57.3930   27.8440   44.6000 C   0  0  0  0  0  0  0  0  0  0  0  0
   56.6730   29.4840   44.6800 S   0  0  0  0  0  0  0  0  0  0  0  0
   57.0250   30.1400   45.9860 O   0  0  0  0  0  0  0  0  0  0  0  0
   55.1790   29.3310   44.6130 O   0  0  0  0  0  0  0  0  0  0  0  0
   57.1900   30.4980   43.2940 C   0  0  0  0  0  0  0  0  0  0  0  0
   57.4100   31.9630   43.7070 C   0  0  0  0  0  0  0  0  0  0  0  0
   58.2910   32.0900   44.8790 N   0  0  0  0  0  0  0  0  0  0  0  0
   58.0730   33.3460   45.6070 C   0  0  0  0  0  0  0  0  0  0  0  0
   59.3590   34.1730   45.6030 C   0  0  0  0  0  0  0  0  0  0  0  0
   60.0090   34.1450   46.9550 C   0  0  0  0  0  0  0  0  0  0  0  0
   59.3800   34.3350   48.1810 C   0  0  0  0  0  0  0  0  0  0  0  0
   60.2610   34.1660   49.1930 N   0  0  0  0  0  0  0  0  0  0  0  0
   61.4360   33.8590   48.6170 C   0  0  0  0  0  0  0  0  0  0  0  0
   62.6430   33.5790   49.2550 C   0  0  0  0  0  0  0  0  0  0  0  0
   63.7550   33.2630   48.4510 C   0  0  0  0  0  0  0  0  0  0  0  0
   63.6330   33.2270   47.0450 C   0  0  0  0  0  0  0  0  0  0  0  0
   62.4010   33.5120   46.4280 C   0  0  0  0  0  0  0  0  0  0  0  0
   61.3200   33.8290   47.2500 C   0  0  0  0  0  0  0  0  0  0  0  0
   60.4844   28.3111   45.6209 H   0  0  0  0  0  0  0  0  0  0  0  0
   59.8712   29.6781   44.6300 H   0  0  0  0  0  0  0  0  0  0  0  0
   61.6237   29.2842   44.6300 H   0  0  0  0  0  0  0  0  0  0  0  0
   61.4408   29.7264   47.2286 H   0  0  0  0  0  0  0  0  0  0  0  0
   61.5242   31.1215   46.0668 H   0  0  0  0  0  0  0  0  0  0  0  0
   58.8670   30.5170   46.3240 H   0  0  0  0  0  0  0  0  0  0  0  0
   60.2885   30.4223   48.9233 H   0  0  0  0  0  0  0  0  0  0  0  0
   58.5826   30.9857   48.7489 H   0  0  0  0  0  0  0  0  0  0  0  0
   59.6611   28.2552   48.7630 H   0  0  0  0  0  0  0  0  0  0  0  0
   57.9563   28.8333   48.9052 H   0  0  0  0  0  0  0  0  0  0  0  0
   58.8957   26.4221   46.8709 H   0  0  0  0  0  0  0  0  0  0  0  0
   57.5394   26.9842   47.9296 H   0  0  0  0  0  0  0  0  0  0  0  0
   57.1065   25.9139   45.5113 H   0  0  0  0  0  0  0  0  0  0  0  0
   56.0977   27.2773   46.1987 H   0  0  0  0  0  0  0  0  0  0  0  0
   58.4847   27.9488   44.5149 H   0  0  0  0  0  0  0  0  0  0  0  0
   56.9476   27.3420   43.7284 H   0  0  0  0  0  0  0  0  0  0  0  0
   58.1316   30.0966   42.8912 H   0  0  0  0  0  0  0  0  0  0  0  0
   56.3927   30.4730   42.5366 H   0  0  0  0  0  0  0  0  0  0  0  0
   57.8644   32.5033   42.8634 H   0  0  0  0  0  0  0  0  0  0  0  0
   56.4309   32.3858   43.9764 H   0  0  0  0  0  0  0  0  0  0  0  0
   58.1250   31.2840   45.5280 H   0  0  0  0  0  0  0  0  0  0  0  0
   57.2694   33.9170   45.1189 H   0  0  0  0  0  0  0  0  0  0  0  0
   57.7876   33.1208   46.6452 H   0  0  0  0  0  0  0  0  0  0  0  0
   60.0541   33.7568   44.8590 H   0  0  0  0  0  0  0  0  0  0  0  0
   59.1102   35.2143   45.3506 H   0  0  0  0  0  0  0  0  0  0  0  0
   58.3169   34.5869   48.3092 H   0  0  0  0  0  0  0  0  0  0  0  0
   60.0620   34.2490   50.2160 H   0  0  0  0  0  0  0  0  0  0  0  0
   62.7244   33.6040   50.3517 H   0  0  0  0  0  0  0  0  0  0  0  0
   64.7247   33.0428   48.9213 H   0  0  0  0  0  0  0  0  0  0  0  0
   64.5074   32.9743   46.4274 H   0  0  0  0  0  0  0  0  0  0  0  0
   62.2941   33.4856   45.3335 H   0  0  0  0  0  0  0  0  0  0  0  0
  1  2  1  0
  2  3  1  0
  3  4  1  0
  4  5  1  0
  5  6  1  0
  6  7  1  0
  7  8  1  0
  8  9  1  0
  9 10  1  0
 10 11  2  0
 10 12  2  0
 10 13  1  0
 13 14  1  0
 14 15  1  0
 15 16  1  0
 16 17  1  0
 17 18  1  0
 18 19  2  0
 19 20  1  0
 20 21  1  0
 21 22  2  0
 22 23  1  0
 23 24  2  0
 24 25  1  0
 25 26  2  0
 26 18  1  0
 26 21  1  0
  1 27  1  0
  1 28  1  0
  1 29  1  0
  2 30  1  0
  2 31  1  0
  3 32  1  0
  4 33  1  0
  4 34  1  0
  5 35  1  0
  5 36  1  0
  7 37  1  0
  7 38  1  0
  8 39  1  0
  8 40  1  0
  9 41  1  0
  9 42  1  0
 13 43  1  0
 13 44  1  0
 14 45  1  0
 14 46  1  0
 15 47  1  0
 16 48  1  0
 16 49  1  0
 17 50  1  0
 17 51  1  0
 19 52  1  0
 20 53  1  0
 22 54  1  0
 23 55  1  0
 24 56  1  0
 25 57  1  0
M  END
>  <UniqueID>  (12) 
12

>  <SMILES>  (12) 
CCNCCOCCCS(=O)(=O)CCNCCc1c[nH]c2ccccc12

>  <Energy>  (12) 
75.95238048069311

>  <Genealogy>  (12) 
CCNCCOCCCS(=O)(=O)CCNCCc1c[nH]c2ccccc12 (3D coordinates assigned)
CCNCCOCCCS(=O)(=O)CCNCCc1c[nH]c2ccccc12 (optimized conformer: 75.95238048069311 kcal/mol)

>  <smiles>  (12) 
CCNCCOCCCS(=O)(=O)CCNCCc1c[nH]c2ccccc12

>  <score_type>  (12) 
oracle

>  <origin>  (12) 
adg

>  <m_score__min__energy>  (12) 
-8.3699999999999992

>  <m_primary>  (12) 
energy

$$$$
12:0
     RDKit          3D

 70 73  0  0  0  0  0  0  0  0999 V2000
   57.0330   34.0850   45.2700 C   0  0  0  0  0  0  0  0  0  0  0  0
   57.6310   33.3820   46.4890 C   0  0  0  0  0  0  0  0  0  0  0  0
   59.0780   33.6660   46.6290 N   0  0  0  0  0  0  0  0  0  0  0  0
   59.6300   34.2130   45.3770 C   0  0  0  0  0  0  0  0  0  0  0  0
   59.3230   34.6080   47.7490 C   0  0  0  0  0  0  0  0  0  0  0  0
   60.6800   34.3220   48.4020 C   0  0  0  0  0  0  0  0  0  0  0  0
   61.3000   33.1340   47.8140 N   0  0  0  0  0  0  0  0  0  0  0  0
   61.7490   32.0420   48.6340 C   0  0  0  0  0  0  0  0  0  0  0  0
   63.0180   32.1230   49.2360 C   0  0  0  0  0  0  0  0  0  0  0  0
   63.9870   33.0490   48.7870 C   0  0  0  0  0  0  0  0  0  0  0  0
   65.2620   33.0740   49.3490 C   0  0  0  0  0  0  0  0  0  0  0  0
   65.5930   32.1850   50.3660 C   0  0  0  0  0  0  0  0  0  0  0  0
   64.6390   31.2940   50.8540 C   0  0  0  0  0  0  0  0  0  0  0  0
   63.3220   31.2740   50.3290 C   0  0  0  0  0  0  0  0  0  0  0  0
   62.3340   30.4820   50.8750 N   0  0  0  0  0  0  0  0  0  0  0  0
   62.5130   29.9130   52.2300 C   0  0  0  0  0  0  0  0  0  0  0  0
   61.1780   30.2280   50.1570 C   0  0  0  0  0  0  0  0  0  0  0  0
   60.2620   29.2360   50.5810 C   0  0  0  0  0  0  0  0  0  0  0  0
   59.0960   28.9840   49.8750 C   0  0  0  0  0  0  0  0  0  0  0  0
   58.8580   29.6260   48.6730 C   0  0  0  0  0  0  0  0  0  0  0  0
   59.7760   30.5520   48.1500 C   0  0  0  0  0  0  0  0  0  0  0  0
   59.6310   30.8940   46.7450 N   0  0  0  0  0  0  0  0  0  0  0  0
   60.3470   29.9530   45.8600 C   0  0  0  0  0  0  0  0  0  0  0  0
   59.4500   29.3110   44.7780 C   0  0  0  0  0  0  0  0  0  0  0  0
   58.0370   28.9340   45.2530 C   0  0  0  0  0  0  0  0  0  0  0  0
   57.1150   30.0960   45.1370 N   0  0  0  0  0  0  0  0  0  0  0  0
   55.8060   29.7060   44.5910 C   0  0  0  0  0  0  0  0  0  0  0  0
   55.8980   29.7920   43.0750 C   0  0  0  0  0  0  0  0  0  0  0  0
   57.0730   30.7160   42.8020 C   0  0  0  0  0  0  0  0  0  0  0  0
   57.6120   31.0910   44.1760 C   0  0  0  0  0  0  0  0  0  0  0  0
   60.8950   30.9570   48.9600 C   0  0  0  0  0  0  0  0  0  0  0  0
   56.3539   34.8834   45.6037 H   0  0  0  0  0  0  0  0  0  0  0  0
   57.8416   34.5206   44.6647 H   0  0  0  0  0  0  0  0  0  0  0  0
   56.4733   33.3568   44.6647 H   0  0  0  0  0  0  0  0  0  0  0  0
   57.1100   33.7306   47.3929 H   0  0  0  0  0  0  0  0  0  0  0  0
   57.5054   32.2974   46.3557 H   0  0  0  0  0  0  0  0  0  0  0  0
   60.3932   34.9693   45.6124 H   0  0  0  0  0  0  0  0  0  0  0  0
   60.0866   33.4010   44.7920 H   0  0  0  0  0  0  0  0  0  0  0  0
   58.8222   34.6770   44.7920 H   0  0  0  0  0  0  0  0  0  0  0  0
   59.3163   35.6383   47.3638 H   0  0  0  0  0  0  0  0  0  0  0  0
   58.5312   34.4802   48.5018 H   0  0  0  0  0  0  0  0  0  0  0  0
   61.3425   35.1869   48.2504 H   0  0  0  0  0  0  0  0  0  0  0  0
   60.5235   34.1429   49.4760 H   0  0  0  0  0  0  0  0  0  0  0  0
   61.4970   33.1110   46.7890 H   0  0  0  0  0  0  0  0  0  0  0  0
   63.7319   33.7576   47.9852 H   0  0  0  0  0  0  0  0  0  0  0  0
   66.0075   33.7977   48.9878 H   0  0  0  0  0  0  0  0  0  0  0  0
   66.6097   32.1851   50.7860 H   0  0  0  0  0  0  0  0  0  0  0  0
   64.9119   30.5955   51.6588 H   0  0  0  0  0  0  0  0  0  0  0  0
   62.2725   30.6775   52.9834 H   0  0  0  0  0  0  0  0  0  0  0  0
   61.8430   29.0498   52.3567 H   0  0  0  0  0  0  0  0  0  0  0  0
   63.5565   29.5889   52.3567 H   0  0  0  0  0  0  0  0  0  0  0  0
   60.4795   28.6536   51.4885 H   0  0  0  0  0  0  0  0  0  0  0  0
   58.3578   28.2714   50.2717 H   0  0  0  0  0  0  0  0  0  0  0  0
   57.9342   29.4077   48.1172 H   0  0  0  0  0  0  0  0  0  0  0  0
   59.9310   31.8510   46.5040 H   0  0  0  0  0  0  0  0  0  0  0  0
   58.6130   30.8490   46.5050 H   0  0  0  0  0  0  0  0  0  0  0  0
   61.1596   30.4987   45.3581 H   0  0  0  0  0  0  0  0  0  0  0  0
   60.7190   29.1354   46.4949 H   0  0  0  0  0  0  0  0  0  0  0  0
   59.3526   30.0246   43.9465 H   0  0  0  0  0  0  0  0  0  0  0  0
   59.9404   28.3703   44.4871 H   0  0  0  0  0  0  0  0  0  0  0  0
   57.6565   28.1081   44.6341 H   0  0  0  0  0  0  0  0  0  0  0  0
   58.0888   28.6280   46.3083 H   0  0  0  0  0  0  0  0  0  0  0  0
   55.5641   28.6768   44.8947 H   0  0  0  0  0  0  0  0  0  0  0  0
   55.0153   30.3706   44.9691 H   0  0  0  0  0  0  0  0  0  0  0  0
   56.0801   28.7973   42.6420 H   0  0  0  0  0  0  0  0  0  0  0  0
   54.9662   30.1662   42.6259 H   0  0  0  0  0  0  0  0  0  0  0  0
   57.8438   30.1967   42.2136 H   0  0  0  0  0  0  0  0  0  0  0  0
   56.7743   31.6012   42.2213 H   0  0  0  0  0  0  0  0  0  0  0  0
   58.7119   31.0821   44.1623 H   0  0  0  0  0  0  0  0  0  0  0  0
   57.2784   32.1003   44.4587 H   0  0  0  0  0  0  0  0  0  0  0  0
  1  2  1  0
  2  3  1  0
  3  4  1  0
  3  5  1  0
  5  6  1  0
  6  7  1  0
  7  8  1  0
  8  9  2  0
  9 10  1  0
 10 11  2  0
 11 12  1  0
 12 13  2  0
 13 14  1  0
 14 15  2  0
 15 16  1  0
 15 17  1  0
 17 18  2  0
 18 19  1  0
 19 20  2  0
 20 21  1  0
 21 22  1  0
 22 23  1  0
 23 24  1  0
 24 25  1  0
 25 26  1  0
 26 27  1  0
 27 28  1  0
 28 29  1  0
 29 30  1  0
 21 31  2  0
 31  8  1  0
 14  9  1  0
 31 17  1  0
 30 26  1  0
  1 32  1  0
  1 33  1  0
  1 34  1  0
  2 35  1  0
  2 36  1  0
  4 37  1  0
  4 38  1  0
  4 39  1  0
  5 40  1  0
  5 41  1  0
  6 42  1  0
  6 43  1  0
  7 44  1  0
 10 45  1  0
 11 46  1  0
 12 47  1  0
 13 48  1  0
 16 49  1  0
 16 50  1  0
 16 51  1  0
 18 52  1  0
 19 53  1  0
 20 54  1  0
 22 55  1  0
 22 56  1  0
 23 57  1  0
 23 58  1  0
 24 59  1  0
 24 60  1  0
 25 61  1  0
 25 62  1  0
 27 63  1  0
 27 64  1  0
 28 65  1  0
 28 66  1  0
 29 67  1  0
 29 68  1  0
 30 69  1  0
 30 70  1  0
M  CHG  2  15   1  22   1
M  END
>  <UniqueID>  (13) 
13

>  <SMILES>  (13) 
CCN(C)CCNc1c2ccccc2[n+](C)c2cccc([NH2+]CCCN3CCCC3)c12

>  <Energy>  (13) 
109.46621661167643

>  <Genealogy>  (13) 
CCN(C)CCNc1c2ccccc2[n+](C)c2cccc([NH2+]CCCN3CCCC3)c12 (protonated)
CCN(C)CCNc1c2ccccc2[n+](C)c2cccc([NH2+]CCCN3CCCC3)c12 (3D coordinates assigned)
CCN(C)CCNc1c2ccccc2[n+](C)c2cccc([NH2+]CCCN3CCCC3)c12 (nonaromatic ring conformer: 109.46621661167643 kcal/mol)

>  <smiles>  (13) 
CCN(C)CCNc1c2ccccc2[n+](C)c2cccc(NCCCN3CCCC3)c12

>  <score_type>  (13) 
oracle

>  <origin>  (13) 
adg

>  <m_score__min__energy>  (13) 
-4.71

>  <m_primary>  (13) 
energy

$$$$
13:0
     RDKit          3D

 82 85  0  0  0  0  0  0  0  0999 V2000
   53.6040   24.1620   45.5890 C   0  0  0  0  0  0  0  0  0  0  0  0
   55.0900   24.4630   45.3670 C   0  0  0  0  0  0  0  0  0  0  0  0
   55.5100   25.7320   45.9840 N   0  0  0  0  0  0  0  0  0  0  0  0
   56.6630   25.5430   46.8780 C   0  0  0  0  0  0  0  0  0  0  0  0
   57.6280   26.7280   46.7460 C   0  0  0  0  0  0  0  0  0  0  0  0
   58.8080   26.4330   45.8070 C   0  0  0  0  0  0  0  0  0  0  0  0
   59.6550   27.6100   45.5670 N   0  0  0  0  0  0  0  0  0  0  0  0
   59.1640   28.9640   45.6310 C   0  0  0  0  0  0  0  0  0  0  0  0
   58.2750   29.4540   44.6570 C   0  0  0  0  0  0  0  0  0  0  0  0
   57.6390   28.5830   43.7480 C   0  0  0  0  0  0  0  0  0  0  0  0
   56.7540   29.0720   42.7920 C   0  0  0  0  0  0  0  0  0  0  0  0
   56.4660   30.4300   42.7400 C   0  0  0  0  0  0  0  0  0  0  0  0
   57.0580   31.3080   43.6470 C   0  0  0  0  0  0  0  0  0  0  0  0
   57.9810   30.8430   44.6200 C   0  0  0  0  0  0  0  0  0  0  0  0
   58.5730   31.7010   45.5280 N   0  0  0  0  0  0  0  0  0  0  0  0
   58.5120   33.1650   45.3040 C   0  0  0  0  0  0  0  0  0  0  0  0
   59.2410   31.1900   46.6260 C   0  0  0  0  0  0  0  0  0  0  0  0
   59.6220   32.0130   47.7130 C   0  0  0  0  0  0  0  0  0  0  0  0
   60.4030   31.5190   48.7730 C   0  0  0  0  0  0  0  0  0  0  0  0
   60.8790   32.3470   49.8090 O   0  0  0  0  0  0  0  0  0  0  0  0
   60.2720   32.4960   51.0930 C   0  0  0  0  0  0  0  0  0  0  0  0
   61.1400   31.8030   52.1590 C   0  0  0  0  0  0  0  0  0  0  0  0
   62.5920   32.1960   52.2430 N   0  0  0  0  0  0  0  0  0  0  0  0
   62.9340   32.1110   53.6930 C   0  0  0  0  0  0  0  0  0  0  0  0
   63.5100   31.2500   51.5310 C   0  0  0  0  0  0  0  0  0  0  0  0
   63.7580   31.5570   50.0340 C   0  0  0  0  0  0  0  0  0  0  0  0
   64.0880   32.9800   49.7640 N   0  0  0  0  0  0  0  0  0  0  0  0
   64.1090   33.1930   48.2950 C   0  0  0  0  0  0  0  0  0  0  0  0
   65.4380   33.3260   50.2880 C   0  0  0  0  0  0  0  0  0  0  0  0
   63.0480   33.8660   50.3450 C   0  0  0  0  0  0  0  0  0  0  0  0
   62.8120   33.6260   51.8450 C   0  0  0  0  0  0  0  0  0  0  0  0
   60.7360   30.1630   48.8070 C   0  0  0  0  0  0  0  0  0  0  0  0
   61.5210   29.6970   49.8750 O   0  0  0  0  0  0  0  0  0  0  0  0
   61.2300   28.5410   50.6520 C   0  0  0  0  0  0  0  0  0  0  0  0
   60.2850   29.3120   47.7860 C   0  0  0  0  0  0  0  0  0  0  0  0
   59.5610   29.8120   46.6830 C   0  0  0  0  0  0  0  0  0  0  0  0
   53.3957   24.1198   46.6683 H   0  0  0  0  0  0  0  0  0  0  0  0
   52.9965   24.9553   45.1290 H   0  0  0  0  0  0  0  0  0  0  0  0
   53.3531   23.1948   45.1290 H   0  0  0  0  0  0  0  0  0  0  0  0
   55.6837   23.6460   45.8030 H   0  0  0  0  0  0  0  0  0  0  0  0
   55.2534   24.5501   44.2827 H   0  0  0  0  0  0  0  0  0  0  0  0
   55.7620   26.4150   45.2290 H   0  0  0  0  0  0  0  0  0  0  0  0
   56.3105   25.4741   47.9177 H   0  0  0  0  0  0  0  0  0  0  0  0
   57.1877   24.6170   46.6002 H   0  0  0  0  0  0  0  0  0  0  0  0
   57.0723   27.5915   46.3516 H   0  0  0  0  0  0  0  0  0  0  0  0
   58.0421   26.9309   47.7447 H   0  0  0  0  0  0  0  0  0  0  0  0
   59.4256   25.6418   46.2571 H   0  0  0  0  0  0  0  0  0  0  0  0
   58.3897   26.1237   44.8378 H   0  0  0  0  0  0  0  0  0  0  0  0
   60.6490   27.4530   45.2770 H   0  0  0  0  0  0  0  0  0  0  0  0
   57.8452   27.5035   43.7954 H   0  0  0  0  0  0  0  0  0  0  0  0
   56.2819   28.3825   42.0767 H   0  0  0  0  0  0  0  0  0  0  0  0
   55.7687   30.8139   41.9808 H   0  0  0  0  0  0  0  0  0  0  0  0
   56.8058   32.3780   43.6079 H   0  0  0  0  0  0  0  0  0  0  0  0
   58.4904   33.6837   46.2738 H   0  0  0  0  0  0  0  0  0  0  0  0
   59.3975   33.4862   44.7360 H   0  0  0  0  0  0  0  0  0  0  0  0
   57.6028   33.4115   44.7360 H   0  0  0  0  0  0  0  0  0  0  0  0
   59.2993   33.0645   47.7289 H   0  0  0  0  0  0  0  0  0  0  0  0
   60.1819   33.5656   51.3333 H   0  0  0  0  0  0  0  0  0  0  0  0
   59.2730   32.0357   51.0801 H   0  0  0  0  0  0  0  0  0  0  0  0
   60.6859   32.0116   53.1389 H   0  0  0  0  0  0  0  0  0  0  0  0
   61.1551   30.7444   51.8603 H   0  0  0  0  0  0  0  0  0  0  0  0
   62.0400   32.3332   54.2942 H   0  0  0  0  0  0  0  0  0  0  0  0
   63.2904   31.0970   53.9268 H   0  0  0  0  0  0  0  0  0  0  0  0
   63.7237   32.8402   53.9268 H   0  0  0  0  0  0  0  0  0  0  0  0
   64.4818   31.2697   52.0459 H   0  0  0  0  0  0  0  0  0  0  0  0
   63.0117   30.2697   51.5583 H   0  0  0  0  0  0  0  0  0  0  0  0
   64.5950   30.9341   49.6856 H   0  0  0  0  0  0  0  0  0  0  0  0
   62.8214   31.3370   49.5008 H   0  0  0  0  0  0  0  0  0  0  0  0
   64.2149   34.2669   48.0817 H   0  0  0  0  0  0  0  0  0  0  0  0
   64.9576   32.6468   47.8574 H   0  0  0  0  0  0  0  0  0  0  0  0
   63.1700   32.8231   47.8574 H   0  0  0  0  0  0  0  0  0  0  0  0
   65.4169   33.3206   51.3878 H   0  0  0  0  0  0  0  0  0  0  0  0
   66.1702   32.5865   49.9317 H   0  0  0  0  0  0  0  0  0  0  0  0
   65.7243   34.3265   49.9317 H   0  0  0  0  0  0  0  0  0  0  0  0
   63.3612   34.9110   50.2039 H   0  0  0  0  0  0  0  0  0  0  0  0
   62.1036   33.6423   49.8272 H   0  0  0  0  0  0  0  0  0  0  0  0
   63.6918   33.9982   52.3904 H   0  0  0  0  0  0  0  0  0  0  0  0
   61.8803   34.1556   52.0929 H   0  0  0  0  0  0  0  0  0  0  0  0
   61.2933   28.7923   51.7210 H   0  0  0  0  0  0  0  0  0  0  0  0
   60.2149   28.1878   50.4178 H   0  0  0  0  0  0  0  0  0  0  0  0
   61.9569   27.7493   50.4178 H   0  0  0  0  0  0  0  0  0  0  0  0
   60.5000   28.2349   47.8469 H   0  0  0  0  0  0  0  0  0  0  0  0
  1  2  1  0
  2  3  1  0
  3  4  1  0
  4  5  1  0
  5  6  1  0
  6  7  1  0
  7  8  1  0
  8  9  2  0
  9 10  1  0
 10 11  2  0
 11 12  1  0
 12 13  2  0
 13 14  1  0
 14 15  2  0
 15 16  1  0
 15 17  1  0
 17 18  2  0
 18 19  1  0
 19 20  1  0
 20 21  1  0
 21 22  1  0
 22 23  1  0
 23 24  1  0
 23 25  1  0
 25 26  1  0
 26 27  1  0
 27 28  1  0
 27 29  1  0
 27 30  1  0
 30 31  1  0
 19 32  2  0
 32 33  1  0
 33 34  1  0
 32 35  1  0
 35 36  2  0
 36  8  1  0
 14  9  1  0
 36 17  1  0
 31 23  1  0
  1 37  1  0
  1 38  1  0
  1 39  1  0
  2 40  1  0
  2 41  1  0
  3 42  1  0
  4 43  1  0
  4 44  1  0
  5 45  1  0
  5 46  1  0
  6 47  1  0
  6 48  1  0
  7 49  1  0
 10 50  1  0
 11 51  1  0
 12 52  1  0
 13 53  1  0
 16 54  1  0
 16 55  1  0
 16 56  1  0
 18 57  1  0
 21 58  1  0
 21 59  1  0
 22 60  1  0
 22 61  1  0
 24 62  1  0
 24 63  1  0
 24 64  1  0
 25 65  1  0
 25 66  1  0
 26 67  1  0
 26 68  1  0
 28 69  1  0
 28 70  1  0
 28 71  1  0
 29 72  1  0
 29 73  1  0
 29 74  1  0
 30 75  1  0
 30 76  1  0
 31 77  1  0
 31 78  1  0
 34 79  1  0
 34 80  1  0
 34 81  1  0
 35 82  1  0
M  CHG  3  15   1  23   1  27   1
M  END
>  <UniqueID>  (14) 
14

>  <SMILES>  (14) 
CCNCCCNc1c2ccccc2[n+](C)c2cc(OCC[N+]3(C)CC[N+](C)(C)CC3)c(OC)cc12

>  <Energy>  (14) 
129.65414879422977

>  <Genealogy>  (14) 
CCNCCCNc1c2ccccc2[n+](C)c2cc(OCC[N+]3(C)CC[N+](C)(C)CC3)c(OC)cc12 (3D coordinates assigned)
CCNCCCNc1c2ccccc2[n+](C)c2cc(OCC[N+]3(C)CC[N+](C)(C)CC3)c(OC)cc12 (nonaromatic ring conformer: 129.65414879422977 kcal/mol)

>  <smiles>  (14) 
CCNCCCNc1c2ccccc2[n+](C)c2cc(OCC[N+]3(C)CC[N+](C)(C)CC3)c(OC)cc12

>  <score_type>  (14) 
oracle

>  <origin>  (14) 
adg

>  <m_score__min__energy>  (14) 
-4.0199999999999996

>  <m_primary>  (14) 
energy

$$$$
14:0
     RDKit          3D

 48 49  0  0  0  0  0  0  0  0999 V2000
   60.7510   29.6980   46.1090 C   0  0  0  0  0  0  0  0  0  0  0  0
   60.1400   28.6350   45.1970 C   0  0  0  0  0  0  0  0  0  0  0  0
   58.6690   28.5630   45.3550 N   0  0  0  0  0  0  0  0  0  0  0  0
   58.2190   27.1980   45.7300 C   0  0  0  0  0  0  0  0  0  0  0  0
   59.4290   26.3280   46.0470 C   0  0  0  0  0  0  0  0  0  0  0  0
   58.0020   29.0450   44.1210 C   0  0  0  0  0  0  0  0  0  0  0  0
   56.6190   29.6360   44.4160 C   0  0  0  0  0  0  0  0  0  0  0  0
   56.7570   30.9650   44.8720 O   0  0  0  0  0  0  0  0  0  0  0  0
   58.0550   31.4680   44.6010 C   0  0  0  0  0  0  0  0  0  0  0  0
   58.5150   32.4270   45.7100 C   0  0  2  0  0  0  0  0  0  0  0  0
   57.3600   33.3270   46.2300 C   0  0  0  0  0  0  0  0  0  0  0  0
   57.8010   34.5980   46.6800 O   0  0  0  0  0  0  0  0  0  0  0  0
   59.0650   34.4900   47.2940 C   0  0  0  0  0  0  0  0  0  0  0  0
   60.1170   34.0640   46.2380 C   0  0  1  0  0  0  0  0  0  0  0  0
   61.3470   33.4460   46.8820 C   0  0  0  0  0  0  0  0  0  0  0  0
   62.6240   33.8320   46.4320 C   0  0  0  0  0  0  0  0  0  0  0  0
   63.7750   33.2820   47.0010 C   0  0  0  0  0  0  0  0  0  0  0  0
   63.6680   32.3340   48.0200 C   0  0  0  0  0  0  0  0  0  0  0  0
   62.4090   31.9310   48.4680 C   0  0  0  0  0  0  0  0  0  0  0  0
   61.2530   32.4780   47.9030 C   0  0  0  0  0  0  0  0  0  0  0  0
   59.5670   33.2370   45.2150 O   0  0  0  0  0  0  0  0  0  0  0  0
   60.5892   29.4164   47.1600 H   0  0  0  0  0  0  0  0  0  0  0  0
   61.8305   29.7738   45.9118 H   0  0  0  0  0  0  0  0  0  0  0  0
   60.2732   30.6690   45.9118 H   0  0  0  0  0  0  0  0  0  0  0  0
   60.3753   28.8832   44.1515 H   0  0  0  0  0  0  0  0  0  0  0  0
   60.5645   27.6585   45.4733 H   0  0  0  0  0  0  0  0  0  0  0  0
   57.5692   27.2575   46.6156 H   0  0  0  0  0  0  0  0  0  0  0  0
   57.6610   26.7550   44.8919 H   0  0  0  0  0  0  0  0  0  0  0  0
   59.5450   26.2446   47.1377 H   0  0  0  0  0  0  0  0  0  0  0  0
   59.2835   25.3264   45.6161 H   0  0  0  0  0  0  0  0  0  0  0  0
   60.3321   26.7849   45.6161 H   0  0  0  0  0  0  0  0  0  0  0  0
   58.6291   29.8205   43.6568 H   0  0  0  0  0  0  0  0  0  0  0  0
   57.8704   28.1868   43.4456 H   0  0  0  0  0  0  0  0  0  0  0  0
   56.0134   29.6255   43.4978 H   0  0  0  0  0  0  0  0  0  0  0  0
   56.1236   29.0341   45.1921 H   0  0  0  0  0  0  0  0  0  0  0  0
   58.7609   30.6268   44.5368 H   0  0  0  0  0  0  0  0  0  0  0  0
   58.0262   32.0194   43.6496 H   0  0  0  0  0  0  0  0  0  0  0  0
   58.8612   31.8196   46.5592 H   0  0  0  0  0  0  0  0  0  0  0  0
   56.6384   33.4764   45.4133 H   0  0  0  0  0  0  0  0  0  0  0  0
   56.9084   32.8138   47.0918 H   0  0  0  0  0  0  0  0  0  0  0  0
   59.3487   35.4624   47.7228 H   0  0  0  0  0  0  0  0  0  0  0  0
   59.0213   33.7357   48.0935 H   0  0  0  0  0  0  0  0  0  0  0  0
   60.4471   34.9856   45.7364 H   0  0  0  0  0  0  0  0  0  0  0  0
   62.7161   34.5736   45.6248 H   0  0  0  0  0  0  0  0  0  0  0  0
   64.7674   33.5964   46.6455 H   0  0  0  0  0  0  0  0  0  0  0  0
   64.5755   31.9048   48.4697 H   0  0  0  0  0  0  0  0  0  0  0  0
   62.3260   31.1807   49.2681 H   0  0  0  0  0  0  0  0  0  0  0  0
   60.2641   32.1512   48.2571 H   0  0  0  0  0  0  0  0  0  0  0  0
  1  2  1  0
  2  3  1  0
  3  4  1  0
  4  5  1  0
  3  6  1  0
  6  7  1  0
  7  8  1  0
  8  9  1  0
  9 10  1  0
 10 11  1  0
 11 12  1  0
 12 13  1  0
 13 14  1  0
 14 15  1  0
 15 16  2  0
 16 17  1  0
 17 18  2  0
 18 19  1  0
 19 20  2  0
 14 21  1  0
 21 10  1  0
 20 15  1  0
  1 22  1  0
  1 23  1  0
  1 24  1  0
  2 25  1  0
  2 26  1  0
  4 27  1  0
  4 28  1  0
  5 29  1  0
  5 30  1  0
  5 31  1  0
  6 32  1  0
  6 33  1  0
  7 34  1  0
  7 35  1  0
  9 36  1  0
  9 37  1  0
 10 38  1  1
 11 39  1  0
 11 40  1  0
 13 41  1  0
 13 42  1  0
 14 43  1  6
 16 44  1  0
 17 45  1  0
 18 46  1  0
 19 47  1  0
 20 48  1  0
M  END
>  <UniqueID>  (15) 
15

>  <SMILES>  (15) 
CCN(CC)CCOC[C@@H]1COC[C@@H](c2ccccc2)O1

>  <Energy>  (15) 
59.96055353978234

>  <Genealogy>  (15) 
CCN(CC)CCOC[C@@H]1COC[C@@H](c2ccccc2)O1 (chirality)
CCN(CC)CCOC[C@@H]1COC[C@@H](c2ccccc2)O1 (3D coordinates assigned)
CCN(CC)CCOC[C@@H]1COC[C@@H](c2ccccc2)O1 (nonaromatic ring conformer: 59.96055353978234 kcal/mol)

>  <smiles>  (15) 
CCN(CC)CCOCC1COCC(c2ccccc2)O1

>  <score_type>  (15) 
oracle

>  <origin>  (15) 
adg

>  <m_score__min__energy>  (15) 
-6.54

>  <m_primary>  (15) 
energy

$$$$
15:0
     RDKit          3D

 66 68  0  0  0  0  0  0  0  0999 V2000
   60.7090   26.9610   46.8250 C   0  0  0  0  0  0  0  0  0  0  0  0
   60.0660   27.4840   48.1050 C   0  0  0  0  0  0  0  0  0  0  0  0
   59.3230   28.6770   47.8510 O   0  0  0  0  0  0  0  0  0  0  0  0
   58.6210   28.9900   46.6710 C   0  0  0  0  0  0  0  0  0  0  0  0
   57.7650   28.0470   46.0750 C   0  0  0  0  0  0  0  0  0  0  0  0
   57.0270   28.3720   44.9480 C   0  0  0  0  0  0  0  0  0  0  0  0
   57.1330   29.6340   44.3790 C   0  0  0  0  0  0  0  0  0  0  0  0
   58.0110   30.6070   44.9140 C   0  0  0  0  0  0  0  0  0  0  0  0
   58.7530   30.2840   46.0860 C   0  0  0  0  0  0  0  0  0  0  0  0
   59.6130   31.2690   46.6280 C   0  0  0  0  0  0  0  0  0  0  0  0
   60.6040   30.9210   47.6130 N   0  0  0  0  0  0  0  0  0  0  0  0
   62.0300   31.2580   47.4810 C   0  0  0  0  0  0  0  0  0  0  0  0
   62.6830   31.6900   48.8080 C   0  0  0  0  0  0  0  0  0  0  0  0
   63.1950   33.1300   48.7650 C   0  0  0  0  0  0  0  0  0  0  0  0
   62.1460   34.0040   49.1210 O   0  0  0  0  0  0  0  0  0  0  0  0
   61.5620   33.5790   50.3360 C   0  0  0  0  0  0  0  0  0  0  0  0
   60.0400   33.5050   50.1890 C   0  0  0  0  0  0  0  0  0  0  0  0
   59.5970   32.0980   50.0280 N   0  0  0  0  0  0  0  0  0  0  0  0
   60.2710   31.2110   51.0070 C   0  0  0  0  0  0  0  0  0  0  0  0
   59.8770   29.7550   50.7640 C   0  0  0  0  0  0  0  0  0  0  0  0
   58.1240   31.9790   50.1320 C   0  0  0  0  0  0  0  0  0  0  0  0
   57.6660   32.3250   51.5460 C   0  0  0  0  0  0  0  0  0  0  0  0
   59.5150   32.5960   46.1720 C   0  0  0  0  0  0  0  0  0  0  0  0
   60.1450   33.6490   46.8650 C   0  0  0  0  0  0  0  0  0  0  0  0
   60.0260   34.9650   46.4230 C   0  0  0  0  0  0  0  0  0  0  0  0
   59.2640   35.2540   45.2980 C   0  0  0  0  0  0  0  0  0  0  0  0
   58.6250   34.2300   44.6020 C   0  0  0  0  0  0  0  0  0  0  0  0
   58.7500   32.8780   45.0130 C   0  0  0  0  0  0  0  0  0  0  0  0
   58.1440   31.8500   44.3230 N   0  0  0  0  0  0  0  0  0  0  0  0
   57.6470   32.0740   42.9470 C   0  0  0  0  0  0  0  0  0  0  0  0
   61.5389   26.2859   47.0809 H   0  0  0  0  0  0  0  0  0  0  0  0
   59.9592   26.4131   46.2354 H   0  0  0  0  0  0  0  0  0  0  0  0
   61.0927   27.8067   46.2354 H   0  0  0  0  0  0  0  0  0  0  0  0
   59.3885   26.7165   48.5074 H   0  0  0  0  0  0  0  0  0  0  0  0
   60.8611   27.7126   48.8299 H   0  0  0  0  0  0  0  0  0  0  0  0
   57.6802   27.0395   46.5084 H   0  0  0  0  0  0  0  0  0  0  0  0
   56.3533   27.6258   44.5016 H   0  0  0  0  0  0  0  0  0  0  0  0
   56.5241   29.8821   43.4971 H   0  0  0  0  0  0  0  0  0  0  0  0
   60.2620   30.6550   48.5630 H   0  0  0  0  0  0  0  0  0  0  0  0
   62.5634   30.3739   47.1017 H   0  0  0  0  0  0  0  0  0  0  0  0
   62.0988   32.1129   46.7923 H   0  0  0  0  0  0  0  0  0  0  0  0
   61.9379   31.6041   49.6126 H   0  0  0  0  0  0  0  0  0  0  0  0
   63.5467   31.0325   48.9860 H   0  0  0  0  0  0  0  0  0  0  0  0
   64.0278   33.2461   49.4742 H   0  0  0  0  0  0  0  0  0  0  0  0
   63.5472   33.3679   47.7504 H   0  0  0  0  0  0  0  0  0  0  0  0
   61.9512   32.5842   50.5986 H   0  0  0  0  0  0  0  0  0  0  0  0
   61.8131   34.2996   51.1283 H   0  0  0  0  0  0  0  0  0  0  0  0
   59.5692   33.9314   51.0871 H   0  0  0  0  0  0  0  0  0  0  0  0
   59.7426   34.0741   49.2958 H   0  0  0  0  0  0  0  0  0  0  0  0
   61.3609   31.3145   50.8999 H   0  0  0  0  0  0  0  0  0  0  0  0
   59.9625   31.5000   52.0225 H   0  0  0  0  0  0  0  0  0  0  0  0
   59.7394   29.2463   51.7296 H   0  0  0  0  0  0  0  0  0  0  0  0
   58.9370   29.7198   50.1937 H   0  0  0  0  0  0  0  0  0  0  0  0
   60.6709   29.2506   50.1937 H   0  0  0  0  0  0  0  0  0  0  0  0
   57.6523   32.6701   49.4179 H   0  0  0  0  0  0  0  0  0  0  0  0
   57.8304   30.9440   49.9027 H   0  0  0  0  0  0  0  0  0  0  0  0
   58.3227   31.8289   52.2758 H   0  0  0  0  0  0  0  0  0  0  0  0
   57.7140   33.4144   51.6907 H   0  0  0  0  0  0  0  0  0  0  0  0
   56.6312   31.9811   51.6907 H   0  0  0  0  0  0  0  0  0  0  0  0
   60.7376   33.4294   47.7653 H   0  0  0  0  0  0  0  0  0  0  0  0
   60.5356   35.7753   46.9650 H   0  0  0  0  0  0  0  0  0  0  0  0
   59.1648   36.2946   44.9556 H   0  0  0  0  0  0  0  0  0  0  0  0
   58.0142   34.4737   43.7202 H   0  0  0  0  0  0  0  0  0  0  0  0
   56.6449   32.5257   42.9881 H   0  0  0  0  0  0  0  0  0  0  0  0
   58.3324   32.7502   42.4151 H   0  0  0  0  0  0  0  0  0  0  0  0
   57.5943   31.1126   42.4151 H   0  0  0  0  0  0  0  0  0  0  0  0
  1  2  1  0
  2  3  1  0
  3  4  1  0
  4  5  2  0
  5  6  1  0
  6  7  2  0
  7  8  1  0
  8  9  2  0
  9 10  1  0
 10 11  1  0
 11 12  1  0
 12 13  1  0
 13 14  1  0
 14 15  1  0
 15 16  1  0
 16 17  1  0
 17 18  1  0
 18 19  1  0
 19 20  1  0
 18 21  1  0
 21 22  1  0
 10 23  2  0
 23 24  1  0
 24 25  2  0
 25 26  1  0
 26 27  2  0
 27 28  1  0
 28 29  2  0
 29 30  1  0
  9  4  1  0
 28 23  1  0
 29  8  1  0
  1 31  1  0
  1 32  1  0
  1 33  1  0
  2 34  1  0
  2 35  1  0
  5 36  1  0
  6 37  1  0
  7 38  1  0
 11 39  1  0
 12 40  1  0
 12 41  1  0
 13 42  1  0
 13 43  1  0
 14 44  1  0
 14 45  1  0
 16 46  1  0
 16 47  1  0
 17 48  1  0
 17 49  1  0
 19 50  1  0
 19 51  1  0
 20 52  1  0
 20 53  1  0
 20 54  1  0
 21 55  1  0
 21 56  1  0
 22 57  1  0
 22 58  1  0
 22 59  1  0
 24 60  1  0
 25 61  1  0
 26 62  1  0
 27 63  1  0
 30 64  1  0
 30 65  1  0
 30 66  1  0
M  CHG  1  29   1
M  END
>  <UniqueID>  (16) 
16

>  <SMILES>  (16) 
CCOc1cccc2c1c(NCCCOCCN(CC)CC)c1ccccc1[n+]2C

>  <Energy>  (16) 
90.56712115701706

>  <Genealogy>  (16) 
CCOc1cccc2c1c(NCCCOCCN(CC)CC)c1ccccc1[n+]2C (3D coordinates assigned)
CCOc1cccc2c1c(NCCCOCCN(CC)CC)c1ccccc1[n+]2C (optimized conformer: 90.56712115701706 kcal/mol)

>  <smiles>  (16) 
CCOc1cccc2c1c(NCCCOCCN(CC)CC)c1ccccc1[n+]2C

>  <score_type>  (16) 
oracle

>  <origin>  (16) 
adg

>  <m_score__min__energy>  (16) 
-5.96

>  <m_primary>  (16) 
energy

$$$$
16:0
     RDKit          3D

 52 56  0  0  0  0  0  0  0  0999 V2000
   58.9090   30.8140   50.0170 C   0  0  0  0  0  0  0  0  0  0  0  0
   58.5070   32.2810   49.9210 C   0  0  0  0  0  0  0  0  0  0  0  0
   59.6850   33.1410   50.0820 N   0  0  0  0  0  0  0  0  0  0  0  0
   59.8570   33.9980   48.9010 C   0  0  0  0  0  0  0  0  0  0  0  0
   61.1950   33.7060   48.2020 C   0  0  0  0  0  0  0  0  0  0  0  0
   61.1270   33.9600   46.7500 N   0  0  0  0  0  0  0  0  0  0  0  0
   59.8680   33.6110   46.1030 C   0  0  0  0  0  0  0  0  0  0  0  0
   59.0460   34.5820   45.4760 C   0  0  0  0  0  0  0  0  0  0  0  0
   57.8520   34.2220   44.8540 C   0  0  0  0  0  0  0  0  0  0  0  0
   57.4310   32.8980   44.8530 C   0  0  0  0  0  0  0  0  0  0  0  0
   58.1940   31.9140   45.4920 C   0  0  0  0  0  0  0  0  0  0  0  0
   57.7480   30.5890   45.5090 C   0  0  0  0  0  0  0  0  0  0  0  0
   58.4940   29.6010   46.1700 C   0  0  0  0  0  0  0  0  0  0  0  0
   59.6890   29.9390   46.7610 N   0  0  0  0  0  0  0  0  0  0  0  0
   60.1300   31.2340   46.7720 C   0  0  0  0  0  0  0  0  0  0  0  0
   59.4100   32.2600   46.1260 C   0  0  0  0  0  0  0  0  0  0  0  0
   60.4760   28.9220   47.4810 C   0  0  0  0  0  0  0  0  0  0  0  0
   60.4300   27.5740   46.7590 C   0  0  0  0  0  0  0  0  0  0  0  0
   59.0050   27.1740   46.5040 C   0  0  0  0  0  0  0  0  0  0  0  0
   58.6380   25.8120   46.5180 C   0  0  0  0  0  0  0  0  0  0  0  0
   57.3090   25.4930   46.2660 C   0  0  0  0  0  0  0  0  0  0  0  0
   56.3800   26.4440   46.0050 C   0  0  0  0  0  0  0  0  0  0  0  0
   56.6960   27.7980   45.9640 C   0  0  0  0  0  0  0  0  0  0  0  0
   58.0440   28.1780   46.1960 C   0  0  0  0  0  0  0  0  0  0  0  0
   55.1510   25.8430   45.8070 O   0  0  0  0  0  0  0  0  0  0  0  0
   55.3220   24.4260   45.9480 C   0  0  0  0  0  0  0  0  0  0  0  0
   56.7150   24.2470   46.2400 O   0  0  0  0  0  0  0  0  0  0  0  0
   58.9884   30.5241   51.0751 H   0  0  0  0  0  0  0  0  0  0  0  0
   58.1481   30.1922   49.5226 H   0  0  0  0  0  0  0  0  0  0  0  0
   59.8806   30.6669   49.5226 H   0  0  0  0  0  0  0  0  0  0  0  0
   58.0514   32.4693   48.9377 H   0  0  0  0  0  0  0  0  0  0  0  0
   57.7850   32.5082   50.7192 H   0  0  0  0  0  0  0  0  0  0  0  0
   59.5040   33.7640   50.9050 H   0  0  0  0  0  0  0  0  0  0  0  0
   59.0337   33.8096   48.1962 H   0  0  0  0  0  0  0  0  0  0  0  0
   59.8518   35.0491   49.2254 H   0  0  0  0  0  0  0  0  0  0  0  0
   61.9721   34.3502   48.6392 H   0  0  0  0  0  0  0  0  0  0  0  0
   61.4306   32.6418   48.3501 H   0  0  0  0  0  0  0  0  0  0  0  0
   61.8850   33.4150   46.2780 H   0  0  0  0  0  0  0  0  0  0  0  0
   61.2900   34.9840   46.6060 H   0  0  0  0  0  0  0  0  0  0  0  0
   59.3563   35.6373   45.4808 H   0  0  0  0  0  0  0  0  0  0  0  0
   57.2391   34.9908   44.3608 H   0  0  0  0  0  0  0  0  0  0  0  0
   56.4938   32.6219   44.3477 H   0  0  0  0  0  0  0  0  0  0  0  0
   56.8093   30.3201   45.0026 H   0  0  0  0  0  0  0  0  0  0  0  0
   61.0656   31.4800   47.2956 H   0  0  0  0  0  0  0  0  0  0  0  0
   61.5213   29.2580   47.5475 H   0  0  0  0  0  0  0  0  0  0  0  0
   60.0451   28.7944   48.4850 H   0  0  0  0  0  0  0  0  0  0  0  0
   60.9620   27.6566   45.7998 H   0  0  0  0  0  0  0  0  0  0  0  0
   60.9110   26.8113   47.3890 H   0  0  0  0  0  0  0  0  0  0  0  0
   59.3807   25.0267   46.7221 H   0  0  0  0  0  0  0  0  0  0  0  0
   55.9231   28.5531   45.7576 H   0  0  0  0  0  0  0  0  0  0  0  0
   54.7020   24.0419   46.7714 H   0  0  0  0  0  0  0  0  0  0  0  0
   55.0164   23.8810   45.0427 H   0  0  0  0  0  0  0  0  0  0  0  0
  1  2  1  0
  2  3  1  0
  3  4  1  0
  4  5  1  0
  5  6  1  0
  6  7  1  0
  7  8  2  0
  8  9  1  0
  9 10  2  0
 10 11  1  0
 11 12  2  0
 12 13  1  0
 13 14  2  0
 14 15  1  0
 15 16  2  0
 14 17  1  0
 17 18  1  0
 18 19  1  0
 19 20  2  0
 20 21  1  0
 21 22  2  0
 22 23  1  0
 23 24  2  0
 22 25  1  0
 25 26  1  0
 26 27  1  0
 16  7  1  0
 24 19  1  0
 16 11  1  0
 27 21  1  0
 24 13  1  0
  1 28  1  0
  1 29  1  0
  1 30  1  0
  2 31  1  0
  2 32  1  0
  3 33  1  0
  4 34  1  0
  4 35  1  0
  5 36  1  0
  5 37  1  0
  6 38  1  0
  6 39  1  0
  8 40  1  0
  9 41  1  0
 10 42  1  0
 12 43  1  0
 15 44  1  0
 17 45  1  0
 17 46  1  0
 18 47  1  0
 18 48  1  0
 20 49  1  0
 23 50  1  0
 26 51  1  0
 26 52  1  0
M  CHG  2   6   1  14   1
M  END
>  <UniqueID>  (17) 
17

>  <SMILES>  (17) 
CCNCC[NH2+]c1cccc2cc3[n+](cc12)CCc1cc2c(cc1-3)OCO2

>  <Energy>  (17) 
97.92116221954814

>  <Genealogy>  (17) 
CCNCC[NH2+]c1cccc2cc3[n+](cc12)CCc1cc2c(cc1-3)OCO2 (protonated)
CCNCC[NH2+]c1cccc2cc3[n+](cc12)CCc1cc2c(cc1-3)OCO2 (3D coordinates assigned)
CCNCC[NH2+]c1cccc2cc3[n+](cc12)CCc1cc2c(cc1-3)OCO2 (nonaromatic ring conformer: 97.92116221954814 kcal/mol)

>  <smiles>  (17) 
CCNCCNc1cccc2cc3[n+](cc12)CCc1cc2c(cc1-3)OCO2

>  <score_type>  (17) 
oracle

>  <origin>  (17) 
adg

>  <m_score__min__energy>  (17) 
-5.1699999999999999

>  <m_primary>  (17) 
energy

$$$$
17:0
     RDKit          3D

 45 46  0  0  0  0  0  0  0  0999 V2000
   63.2020   33.8160   46.7290 C   0  0  0  0  0  0  0  0  0  0  0  0
   62.0110   33.2940   47.5250 C   0  0  0  0  0  0  0  0  0  0  0  0
   60.9690   34.2690   47.5750 O   0  0  0  0  0  0  0  0  0  0  0  0
   59.7790   34.2390   46.8260 C   0  0  0  0  0  0  0  0  0  0  0  0
   59.6360   34.9340   45.6080 C   0  0  0  0  0  0  0  0  0  0  0  0
   58.4360   34.8740   44.8970 C   0  0  0  0  0  0  0  0  0  0  0  0
   57.3690   34.1180   45.3850 C   0  0  0  0  0  0  0  0  0  0  0  0
   57.4980   33.4270   46.5910 C   0  0  0  0  0  0  0  0  0  0  0  0
   58.6940   33.4990   47.3280 C   0  0  0  0  0  0  0  0  0  0  0  0
   58.8520   32.7830   48.5630 N   0  0  0  0  0  0  0  0  0  0  0  0
   59.3270   31.4380   48.7070 C   0  0  0  0  0  0  0  0  0  0  0  0
   59.6780   31.0430   49.8490 O   0  0  0  0  0  0  0  0  0  0  0  0
   59.3650   30.4920   47.5670 C   0  0  0  0  0  0  0  0  0  0  0  0
   60.5800   29.9300   47.1380 C   0  0  0  0  0  0  0  0  0  0  0  0
   60.6070   29.0430   46.0590 C   0  0  0  0  0  0  0  0  0  0  0  0
   59.4270   28.7180   45.3900 C   0  0  0  0  0  0  0  0  0  0  0  0
   58.2110   29.2830   45.7910 C   0  0  0  0  0  0  0  0  0  0  0  0
   56.7350   28.8800   44.9190 S   0  0  0  0  0  0  0  0  0  0  0  0
   55.8230   30.0720   44.9840 O   0  0  0  0  0  0  0  0  0  0  0  0
   57.0370   28.6090   43.4710 O   0  0  0  0  0  0  0  0  0  0  0  0
   55.9020   27.5140   45.6210 N   0  0  0  0  0  0  0  0  0  0  0  0
   56.7310   26.3340   45.9330 C   0  0  0  0  0  0  0  0  0  0  0  0
   57.7050   25.9960   44.7980 C   0  0  0  0  0  0  0  0  0  0  0  0
   55.9240   25.1120   46.3880 C   0  0  0  0  0  0  0  0  0  0  0  0
   58.1820   30.1700   46.8790 C   0  0  0  0  0  0  0  0  0  0  0  0
   63.9843   34.1589   47.4221 H   0  0  0  0  0  0  0  0  0  0  0  0
   63.6010   33.0103   46.0953 H   0  0  0  0  0  0  0  0  0  0  0  0
   62.8799   34.6555   46.0953 H   0  0  0  0  0  0  0  0  0  0  0  0
   61.6283   32.3813   47.0449 H   0  0  0  0  0  0  0  0  0  0  0  0
   62.3406   33.0767   48.5517 H   0  0  0  0  0  0  0  0  0  0  0  0
   60.4750   35.5272   45.2153 H   0  0  0  0  0  0  0  0  0  0  0  0
   58.3312   35.4238   43.9500 H   0  0  0  0  0  0  0  0  0  0  0  0
   56.4269   34.0667   44.8195 H   0  0  0  0  0  0  0  0  0  0  0  0
   56.6595   32.8226   46.9672 H   0  0  0  0  0  0  0  0  0  0  0  0
   61.5153   30.1903   47.6551 H   0  0  0  0  0  0  0  0  0  0  0  0
   61.5608   28.6000   45.7364 H   0  0  0  0  0  0  0  0  0  0  0  0
   59.4523   28.0151   44.5442 H   0  0  0  0  0  0  0  0  0  0  0  0
   57.3345   26.6239   46.8058 H   0  0  0  0  0  0  0  0  0  0  0  0
   58.6632   25.6635   45.2239 H   0  0  0  0  0  0  0  0  0  0  0  0
   57.2808   25.1925   44.1779 H   0  0  0  0  0  0  0  0  0  0  0  0
   57.8697   26.8895   44.1779 H   0  0  0  0  0  0  0  0  0  0  0  0
   55.9006   25.0766   47.4872 H   0  0  0  0  0  0  0  0  0  0  0  0
   54.8968   25.1864   46.0016 H   0  0  0  0  0  0  0  0  0  0  0  0
   56.3957   24.1965   46.0016 H   0  0  0  0  0  0  0  0  0  0  0  0
   57.2274   30.6159   47.1952 H   0  0  0  0  0  0  0  0  0  0  0  0
  1  2  1  0
  2  3  1  0
  3  4  1  0
  4  5  2  0
  5  6  1  0
  6  7  2  0
  7  8  1  0
  8  9  2  0
  9 10  1  0
 10 11  1  0
 11 12  2  0
 11 13  1  0
 13 14  2  0
 14 15  1  0
 15 16  2  0
 16 17  1  0
 17 18  1  0
 18 19  2  0
 18 20  2  0
 18 21  1  0
 21 22  1  0
 22 23  1  0
 22 24  1  0
 17 25  2  0
  9  4  1  0
 25 13  1  0
  1 26  1  0
  1 27  1  0
  1 28  1  0
  2 29  1  0
  2 30  1  0
  5 31  1  0
  6 32  1  0
  7 33  1  0
  8 34  1  0
 14 35  1  0
 15 36  1  0
 16 37  1  0
 22 38  1  0
 23 39  1  0
 23 40  1  0
 23 41  1  0
 24 42  1  0
 24 43  1  0
 24 44  1  0
 25 45  1  0
M  CHG  2  10  -1  21  -1
M  END
>  <UniqueID>  (18) 
18

>  <SMILES>  (18) 
CCOc1ccccc1[N-]C(=O)c1cccc(S(=O)(=O)[N-]C(C)C)c1

>  <Energy>  (18) 
50.61429746956193

>  <Genealogy>  (18) 
CCOc1ccccc1[N-]C(=O)c1cccc(S(=O)(=O)[N-]C(C)C)c1 (protonated)
CCOc1ccccc1[N-]C(=O)c1cccc(S(=O)(=O)[N-]C(C)C)c1 (3D coordinates assigned)
CCOc1ccccc1[N-]C(=O)c1cccc(S(=O)(=O)[N-]C(C)C)c1 (optimized conformer: 50.61429746956193 kcal/mol)

>  <smiles>  (18) 
CCOc1ccccc1NC(=O)c1cccc(S(=O)(=O)NC(C)C)c1

>  <score_type>  (18) 
oracle

>  <origin>  (18) 
adg

>  <m_score__min__energy>  (18) 
-11.57

>  <m_primary>  (18) 
energy

$$$$
18:0
     RDKit          3D

 49 52  0  0  0  0  0  0  0  0999 V2000
   59.5700   29.3210   47.6460 C   0  0  0  0  0  0  0  0  0  0  0  0
   59.9080   29.0970   46.2480 N   0  0  0  0  0  0  0  0  0  0  0  0
   61.1400   29.0270   45.7740 N   0  0  0  0  0  0  0  0  0  0  0  0
   61.0700   28.6720   44.5010 N   0  0  0  0  0  0  0  0  0  0  0  0
   59.8130   28.4800   44.1270 N   0  0  0  0  0  0  0  0  0  0  0  0
   59.0930   28.7500   45.2340 C   0  0  0  0  0  0  0  0  0  0  0  0
   57.3060   28.6120   45.3310 S   0  0  0  0  0  0  0  0  0  0  0  0
   56.9650   29.3170   43.6740 C   0  0  0  0  0  0  0  0  0  0  0  0
   56.3910   30.7420   43.7490 C   0  0  0  0  0  0  0  0  0  0  0  0
   57.4770   31.8360   43.7410 C   0  0  0  0  0  0  0  0  0  0  0  0
   57.8720   32.1760   45.1250 N   0  0  0  0  0  0  0  0  0  0  0  0
   57.1460   33.3320   45.6690 C   0  0  2  0  0  0  0  0  0  0  0  0
   57.8490   34.5840   45.1160 C   0  0  0  0  0  0  0  0  0  0  0  0
   59.2570   34.1030   44.7800 C   0  0  0  0  0  0  0  0  0  0  0  0
   59.2620   32.6360   45.2260 C   0  0  1  0  0  0  0  0  0  0  0  0
   59.6450   32.5650   46.6920 C   0  0  0  0  0  0  0  0  0  0  0  0
   60.9970   32.1950   47.0400 C   0  0  0  0  0  0  0  0  0  0  0  0
   62.0800   31.8990   47.3190 N   0  0  0  0  0  0  0  0  0  0  0  0
   58.7210   32.9070   47.6320 C   0  0  0  0  0  0  0  0  0  0  0  0
   59.0180   32.8500   49.0810 C   0  0  0  0  0  0  0  0  0  0  0  0
   58.5340   31.7920   49.8700 C   0  0  0  0  0  0  0  0  0  0  0  0
   58.8010   31.7550   51.2420 C   0  0  0  0  0  0  0  0  0  0  0  0
   59.5470   32.7760   51.8370 C   0  0  0  0  0  0  0  0  0  0  0  0
   59.8070   32.7390   53.1690 F   0  0  0  0  0  0  0  0  0  0  0  0
   60.0240   33.8360   51.0610 C   0  0  0  0  0  0  0  0  0  0  0  0
   59.7590   33.8760   49.6880 C   0  0  0  0  0  0  0  0  0  0  0  0
   57.2960   33.2630   47.2090 C   0  0  0  0  0  0  0  0  0  0  0  0
   60.3151   28.8272   48.2870 H   0  0  0  0  0  0  0  0  0  0  0  0
   59.5659   30.4012   47.8537 H   0  0  0  0  0  0  0  0  0  0  0  0
   58.5736   28.9039   47.8537 H   0  0  0  0  0  0  0  0  0  0  0  0
   61.8970   28.5450   43.8780 H   0  0  0  0  0  0  0  0  0  0  0  0
   57.9041   29.3442   43.1018 H   0  0  0  0  0  0  0  0  0  0  0  0
   56.2137   28.6784   43.1863 H   0  0  0  0  0  0  0  0  0  0  0  0
   55.7306   30.8988   42.8834 H   0  0  0  0  0  0  0  0  0  0  0  0
   55.8496   30.8262   44.7028 H   0  0  0  0  0  0  0  0  0  0  0  0
   58.3570   31.4699   43.1918 H   0  0  0  0  0  0  0  0  0  0  0  0
   57.0755   32.7357   43.2518 H   0  0  0  0  0  0  0  0  0  0  0  0
   56.0796   33.3499   45.3996 H   0  0  0  0  0  0  0  0  0  0  0  0
   57.3372   34.9532   44.2150 H   0  0  0  0  0  0  0  0  0  0  0  0
   57.8481   35.4192   45.8318 H   0  0  0  0  0  0  0  0  0  0  0  0
   59.4511   34.1844   43.7003 H   0  0  0  0  0  0  0  0  0  0  0  0
   60.0381   34.6992   45.2743 H   0  0  0  0  0  0  0  0  0  0  0  0
   59.9596   32.0397   44.6195 H   0  0  0  0  0  0  0  0  0  0  0  0
   57.9423   30.9893   49.4057 H   0  0  0  0  0  0  0  0  0  0  0  0
   58.4237   30.9219   51.8533 H   0  0  0  0  0  0  0  0  0  0  0  0
   60.6090   34.6404   51.5308 H   0  0  0  0  0  0  0  0  0  0  0  0
   60.1327   34.7145   49.0819 H   0  0  0  0  0  0  0  0  0  0  0  0
   56.6086   32.4976   47.5985 H   0  0  0  0  0  0  0  0  0  0  0  0
   57.0594   34.2566   47.6175 H   0  0  0  0  0  0  0  0  0  0  0  0
  1  2  1  0
  2  3  1  0
  3  4  2  0
  4  5  1  0
  5  6  2  0
  6  7  1  0
  7  8  1  0
  8  9  1  0
  9 10  1  0
 10 11  1  0
 11 12  1  0
 12 13  1  0
 13 14  1  0
 14 15  1  0
 15 16  1  0
 16 17  1  0
 17 18  3  0
 16 19  2  0
 19 20  1  0
 20 21  2  0
 21 22  1  0
 22 23  2  0
 23 24  1  0
 23 25  1  0
 25 26  2  0
 19 27  1  0
  6  2  1  0
 15 11  1  0
 26 20  1  0
 27 12  1  0
  1 28  1  0
  1 29  1  0
  1 30  1  0
  4 31  1  0
  8 32  1  0
  8 33  1  0
  9 34  1  0
  9 35  1  0
 10 36  1  0
 10 37  1  0
 12 38  1  1
 13 39  1  0
 13 40  1  0
 14 41  1  0
 14 42  1  0
 15 43  1  6
 21 44  1  0
 22 45  1  0
 25 46  1  0
 26 47  1  0
 27 48  1  0
 27 49  1  0
M  CHG  1   4   1
M  END
>  <UniqueID>  (19) 
19

>  <SMILES>  (19) 
Cn1n[nH+]nc1SCCCN1[C@@H]2CC[C@H]1C(C#N)=C(c1ccc(F)cc1)C2

>  <Energy>  (19) 
105.22966337737765

>  <Genealogy>  (19) 
Cn1n[nH+]nc1SCCCN1C2CCC1C(C#N)=C(c1ccc(F)cc1)C2 (protonated)
Cn1n[nH+]nc1SCCCN1[C@@H]2CC[C@H]1C(C#N)=C(c1ccc(F)cc1)C2 (chirality)
Cn1n[nH+]nc1SCCCN1[C@@H]2CC[C@H]1C(C#N)=C(c1ccc(F)cc1)C2 (3D coordinates assigned)
Cn1n[nH+]nc1SCCCN1[C@@H]2CC[C@H]1C(C#N)=C(c1ccc(F)cc1)C2 (nonaromatic ring conformer: 105.22966337737765 kcal/mol)

>  <smiles>  (19) 
Cn1nnnc1SCCCN1C2CCC1C(C#N)=C(c1ccc(F)cc1)C2

>  <score_type>  (19) 
oracle

>  <origin>  (19) 
adg

>  <m_score__min__energy>  (19) 
-7.5099999999999998

>  <m_primary>  (19) 
energy

$$$$
19:0
     RDKit          3D

 49 49  0  0  0  0  0  0  0  0999 V2000
   59.2940   35.1280   45.1650 C   0  0  0  0  0  0  0  0  0  0  0  0
   59.7960   33.8620   45.8720 C   0  0  0  0  0  0  0  0  0  0  0  0
   58.7560   33.1580   46.6600 N   0  0  0  0  0  0  0  0  0  0  0  0
   58.8340   33.3980   48.1200 C   0  0  0  0  0  0  0  0  0  0  0  0
   59.8190   34.5180   48.4470 C   0  0  0  0  0  0  0  0  0  0  0  0
   57.3920   33.3790   46.1240 C   0  0  0  0  0  0  0  0  0  0  0  0
   57.2380   32.6670   44.7800 C   0  0  0  0  0  0  0  0  0  0  0  0
   56.9980   31.2920   44.9980 O   0  0  0  0  0  0  0  0  0  0  0  0
   57.6930   30.5130   44.0490 C   0  0  0  0  0  0  0  0  0  0  0  0
   58.8220   29.7370   44.7420 C   0  0  2  0  0  0  0  0  0  0  0  0
   58.5160   28.2360   44.7680 C   0  0  0  0  0  0  0  0  0  0  0  0
   59.0240   30.2380   46.1070 N   0  0  0  0  0  0  0  0  0  0  0  0
   59.9890   29.6710   47.0040 C   0  0  0  0  0  0  0  0  0  0  0  0
   60.6920   28.6870   46.6470 O   0  0  0  0  0  0  0  0  0  0  0  0
   60.1360   30.2180   48.3890 C   0  0  0  0  0  0  0  0  0  0  0  0
   61.4010   31.0220   48.4990 C   0  0  0  0  0  0  0  0  0  0  0  0
   62.2190   30.9010   49.6360 C   0  0  0  0  0  0  0  0  0  0  0  0
   63.3840   31.6680   49.7500 C   0  0  0  0  0  0  0  0  0  0  0  0
   64.3970   31.5170   51.1750 Cl  0  0  0  0  0  0  0  0  0  0  0  0
   63.7330   32.5650   48.7360 C   0  0  0  0  0  0  0  0  0  0  0  0
   62.9150   32.7030   47.6090 C   0  0  0  0  0  0  0  0  0  0  0  0
   63.3480   33.8400   46.3440 Cl  0  0  0  0  0  0  0  0  0  0  0  0
   61.7500   31.9360   47.4920 C   0  0  0  0  0  0  0  0  0  0  0  0
   58.9979   35.8747   45.9165 H   0  0  0  0  0  0  0  0  0  0  0  0
   60.0970   35.5395   44.5358 H   0  0  0  0  0  0  0  0  0  0  0  0
   58.4272   34.8774   44.5358 H   0  0  0  0  0  0  0  0  0  0  0  0
   60.1799   33.1690   45.1089 H   0  0  0  0  0  0  0  0  0  0  0  0
   60.5719   34.1815   46.5832 H   0  0  0  0  0  0  0  0  0  0  0  0
   57.8370   33.6783   48.4907 H   0  0  0  0  0  0  0  0  0  0  0  0
   59.1847   32.4751   48.6050 H   0  0  0  0  0  0  0  0  0  0  0  0
   59.9089   34.6202   49.5386 H   0  0  0  0  0  0  0  0  0  0  0  0
   60.8033   34.2772   48.0190 H   0  0  0  0  0  0  0  0  0  0  0  0
   59.4544   35.4635   48.0190 H   0  0  0  0  0  0  0  0  0  0  0  0
   56.6523   32.9809   46.8342 H   0  0  0  0  0  0  0  0  0  0  0  0
   57.2295   34.4577   45.9825 H   0  0  0  0  0  0  0  0  0  0  0  0
   56.3920   33.1036   44.2290 H   0  0  0  0  0  0  0  0  0  0  0  0
   58.1608   32.7888   44.1937 H   0  0  0  0  0  0  0  0  0  0  0  0
   56.9968   29.8031   43.5786 H   0  0  0  0  0  0  0  0  0  0  0  0
   58.1231   31.1730   43.2813 H   0  0  0  0  0  0  0  0  0  0  0  0
   59.7471   29.8913   44.1673 H   0  0  0  0  0  0  0  0  0  0  0  0
   58.4463   27.8940   45.8112 H   0  0  0  0  0  0  0  0  0  0  0  0
   57.5610   28.0476   44.2558 H   0  0  0  0  0  0  0  0  0  0  0  0
   59.3211   27.6887   44.2558 H   0  0  0  0  0  0  0  0  0  0  0  0
   58.4380   31.0330   46.4520 H   0  0  0  0  0  0  0  0  0  0  0  0
   59.2748   30.8628   48.6181 H   0  0  0  0  0  0  0  0  0  0  0  0
   60.1797   29.3815   49.1020 H   0  0  0  0  0  0  0  0  0  0  0  0
   61.9425   30.2013   50.4385 H   0  0  0  0  0  0  0  0  0  0  0  0
   64.6519   33.1632   48.8242 H   0  0  0  0  0  0  0  0  0  0  0  0
   61.1055   32.0497   46.6079 H   0  0  0  0  0  0  0  0  0  0  0  0
  1  2  1  0
  2  3  1  0
  3  4  1  0
  4  5  1  0
  3  6  1  0
  6  7  1  0
  7  8  1  0
  8  9  1  0
  9 10  1  0
 10 11  1  0
 10 12  1  0
 12 13  1  0
 13 14  2  0
 13 15  1  0
 15 16  1  0
 16 17  2  0
 17 18  1  0
 18 19  1  0
 18 20  2  0
 20 21  1  0
 21 22  1  0
 21 23  2  0
 23 16  1  0
  1 24  1  0
  1 25  1  0
  1 26  1  0
  2 27  1  0
  2 28  1  0
  4 29  1  0
  4 30  1  0
  5 31  1  0
  5 32  1  0
  5 33  1  0
  6 34  1  0
  6 35  1  0
  7 36  1  0
  7 37  1  0
  9 38  1  0
  9 39  1  0
 10 40  1  6
 11 41  1  0
 11 42  1  0
 11 43  1  0
 12 44  1  0
 15 45  1  0
 15 46  1  0
 17 47  1  0
 20 48  1  0
 23 49  1  0
M  END
>  <UniqueID>  (20) 
20

>  <SMILES>  (20) 
CCN(CC)CCOC[C@H](C)NC(=O)Cc1cc(Cl)cc(Cl)c1

>  <Energy>  (20) 
38.48570274593276

>  <Genealogy>  (20) 
CCN(CC)CCOC[C@H](C)NC(=O)Cc1cc(Cl)cc(Cl)c1 (chirality)
CCN(CC)CCOC[C@H](C)NC(=O)Cc1cc(Cl)cc(Cl)c1 (3D coordinates assigned)
CCN(CC)CCOC[C@H](C)NC(=O)Cc1cc(Cl)cc(Cl)c1 (optimized conformer: 38.48570274593276 kcal/mol)

>  <smiles>  (20) 
CCN(CC)CCOCC(C)NC(=O)Cc1cc(Cl)cc(Cl)c1

>  <score_type>  (20) 
oracle

>  <origin>  (20) 
adg

>  <m_score__min__energy>  (20) 
-7.2599999999999998

>  <m_primary>  (20) 
energy

$$$$
20:0
     RDKit          3D

 55 58  0  0  0  0  0  0  0  0999 V2000
   59.9730   29.1050   47.0680 C   0  0  0  0  0  0  0  0  0  0  0  0
   59.6290   29.7720   48.3220 N   0  0  0  0  0  0  0  0  0  0  0  0
   58.7890   29.2720   49.2120 N   0  0  0  0  0  0  0  0  0  0  0  0
   58.5840   30.1850   50.1760 C   0  0  0  0  0  0  0  0  0  0  0  0
   57.7550   29.9300   51.2780 O   0  0  0  0  0  0  0  0  0  0  0  0
   56.9160   30.8840   51.9260 C   0  0  0  0  0  0  0  0  0  0  0  0
   55.5560   30.3070   52.2360 C   0  0  0  0  0  0  0  0  0  0  0  0
   54.4110   30.8530   51.6360 C   0  0  0  0  0  0  0  0  0  0  0  0
   53.1520   30.3030   51.8910 C   0  0  0  0  0  0  0  0  0  0  0  0
   53.0280   29.2020   52.7410 C   0  0  0  0  0  0  0  0  0  0  0  0
   51.8040   28.6800   52.9980 F   0  0  0  0  0  0  0  0  0  0  0  0
   54.1650   28.6390   53.3260 C   0  0  0  0  0  0  0  0  0  0  0  0
   55.4260   29.1810   53.0650 C   0  0  0  0  0  0  0  0  0  0  0  0
   59.3070   31.3390   49.8750 C   0  0  0  0  0  0  0  0  0  0  0  0
   59.2760   33.0620   50.7130 Br  0  0  0  0  0  0  0  0  0  0  0  0
   59.9680   31.0250   48.6970 C   0  0  0  0  0  0  0  0  0  0  0  0
   60.7950   31.9460   47.8960 C   0  0  0  0  0  0  0  0  0  0  0  0
   62.1890   31.8060   47.9710 C   0  0  0  0  0  0  0  0  0  0  0  0
   63.0280   32.6830   47.2830 C   0  0  0  0  0  0  0  0  0  0  0  0
   62.4830   33.7120   46.5160 C   0  0  0  0  0  0  0  0  0  0  0  0
   61.0990   33.8610   46.4280 C   0  0  0  0  0  0  0  0  0  0  0  0
   60.2360   32.9780   47.0990 C   0  0  0  0  0  0  0  0  0  0  0  0
   58.4840   33.1950   46.8600 S   0  0  0  0  0  0  0  0  0  0  0  0
   57.7010   32.6750   48.0330 O   0  0  0  0  0  0  0  0  0  0  0  0
   58.1980   34.6660   46.7440 O   0  0  0  0  0  0  0  0  0  0  0  0
   57.9190   32.3860   45.4170 N   0  0  0  0  0  0  0  0  0  0  0  0
   58.5390   32.9660   44.2150 C   0  0  0  0  0  0  0  0  0  0  0  0
   57.8470   32.4290   42.9480 C   0  0  0  0  0  0  0  0  0  0  0  0
   57.1340   31.0870   43.1880 C   0  0  0  0  0  0  0  0  0  0  0  0
   57.9200   30.2100   44.1670 C   0  0  0  0  0  0  0  0  0  0  0  0
   58.2020   30.9400   45.5020 C   0  0  0  0  0  0  0  0  0  0  0  0
   60.4672   28.1467   47.2860 H   0  0  0  0  0  0  0  0  0  0  0  0
   59.0571   28.9214   46.4871 H   0  0  0  0  0  0  0  0  0  0  0  0
   60.6536   29.7448   46.4871 H   0  0  0  0  0  0  0  0  0  0  0  0
   58.3510   28.3250   49.1560 H   0  0  0  0  0  0  0  0  0  0  0  0
   57.3930   31.1989   52.8658 H   0  0  0  0  0  0  0  0  0  0  0  0
   56.7806   31.7400   51.2485 H   0  0  0  0  0  0  0  0  0  0  0  0
   54.5049   31.7174   50.9622 H   0  0  0  0  0  0  0  0  0  0  0  0
   52.2573   30.7379   51.4215 H   0  0  0  0  0  0  0  0  0  0  0  0
   54.0674   27.7690   53.9921 H   0  0  0  0  0  0  0  0  0  0  0  0
   56.3214   28.7235   53.5111 H   0  0  0  0  0  0  0  0  0  0  0  0
   62.6241   30.9979   48.5774 H   0  0  0  0  0  0  0  0  0  0  0  0
   64.1196   32.5627   47.3456 H   0  0  0  0  0  0  0  0  0  0  0  0
   63.1455   34.4072   45.9796 H   0  0  0  0  0  0  0  0  0  0  0  0
   60.6779   34.6797   45.8260 H   0  0  0  0  0  0  0  0  0  0  0  0
   58.4394   34.0610   44.2471 H   0  0  0  0  0  0  0  0  0  0  0  0
   59.6026   32.6864   44.1891 H   0  0  0  0  0  0  0  0  0  0  0  0
   57.1043   33.1676   42.6121 H   0  0  0  0  0  0  0  0  0  0  0  0
   58.6249   32.2622   42.1884 H   0  0  0  0  0  0  0  0  0  0  0  0
   56.1341   31.2811   43.6033 H   0  0  0  0  0  0  0  0  0  0  0  0
   57.0585   30.5559   42.2277 H   0  0  0  0  0  0  0  0  0  0  0  0
   57.3372   29.3007   44.3757 H   0  0  0  0  0  0  0  0  0  0  0  0
   58.8868   29.9654   43.7029 H   0  0  0  0  0  0  0  0  0  0  0  0
   57.5687   30.5006   46.2867 H   0  0  0  0  0  0  0  0  0  0  0  0
   59.2702   30.8179   45.7347 H   0  0  0  0  0  0  0  0  0  0  0  0
  1  2  1  0
  2  3  1  0
  3  4  2  0
  4  5  1  0
  5  6  1  0
  6  7  1  0
  7  8  2  0
  8  9  1  0
  9 10  2  0
 10 11  1  0
 10 12  1  0
 12 13  2  0
  4 14  1  0
 14 15  1  0
 14 16  2  0
 16 17  1  0
 17 18  2  0
 18 19  1  0
 19 20  2  0
 20 21  1  0
 21 22  2  0
 22 23  1  0
 23 24  2  0
 23 25  2  0
 23 26  1  0
 26 27  1  0
 27 28  1  0
 28 29  1  0
 29 30  1  0
 30 31  1  0
 16  2  1  0
 22 17  1  0
 31 26  1  0
 13  7  1  0
  1 32  1  0
  1 33  1  0
  1 34  1  0
  3 35  1  0
  6 36  1  0
  6 37  1  0
  8 38  1  0
  9 39  1  0
 12 40  1  0
 13 41  1  0
 18 42  1  0
 19 43  1  0
 20 44  1  0
 21 45  1  0
 27 46  1  0
 27 47  1  0
 28 48  1  0
 28 49  1  0
 29 50  1  0
 29 51  1  0
 30 52  1  0
 30 53  1  0
 31 54  1  0
 31 55  1  0
M  CHG  1   3   1
M  END
>  <UniqueID>  (21) 
21

>  <SMILES>  (21) 
Cn1[nH+]c(OCc2ccc(F)cc2)c(Br)c1-c1ccccc1S(=O)(=O)N1CCCCC1

>  <Energy>  (21) 
99.50713929437583

>  <Genealogy>  (21) 
Cn1[nH+]c(OCc2ccc(F)cc2)c(Br)c1-c1ccccc1S(=O)(=O)N1CCCCC1 (protonated)
Cn1[nH+]c(OCc2ccc(F)cc2)c(Br)c1-c1ccccc1S(=O)(=O)N1CCCCC1 (3D coordinates assigned)
Cn1[nH+]c(OCc2ccc(F)cc2)c(Br)c1-c1ccccc1S(=O)(=O)N1CCCCC1 (nonaromatic ring conformer: 99.50713929437583 kcal/mol)

>  <smiles>  (21) 
Cn1nc(OCc2ccc(F)cc2)c(Br)c1-c1ccccc1S(=O)(=O)N1CCCCC1

>  <score_type>  (21) 
oracle

>  <origin>  (21) 
adg

>  <m_score__min__energy>  (21) 
-8

>  <m_primary>  (21) 
energy

$$$$
21:0
     RDKit          3D

 52 52  0  0  0  0  0  0  0  0999 V2000
   57.0640   31.1630   46.0370 H   0  0  0  0  0  0  0  0  0  0  0  0
   57.7660   30.8590   46.7020 O   0  0  0  0  0  0  0  0  0  0  0  0
   58.2940   31.7230   47.6410 N   0  0  0  0  0  0  0  0  0  0  0  0
   57.7660   32.8700   47.8010 N   0  0  0  0  0  0  0  0  0  0  0  0
   57.1470   33.5260   46.7630 O   0  0  0  0  0  0  0  0  0  0  0  0
   57.8980   34.3660   45.8990 C   0  0  0  0  0  0  0  0  0  0  0  0
   57.4080   35.3483   45.8284 H   0  0  0  0  0  0  0  0  0  0  0  0
   58.9141   34.4859   46.3030 H   0  0  0  0  0  0  0  0  0  0  0  0
   57.9800   33.7390   44.5070 C   0  0  0  0  0  0  0  0  0  0  0  0
   57.0453   33.9454   43.9650 H   0  0  0  0  0  0  0  0  0  0  0  0
   58.8400   34.1762   43.9785 H   0  0  0  0  0  0  0  0  0  0  0  0
   58.1680   32.3380   44.5860 O   0  0  0  0  0  0  0  0  0  0  0  0
   58.1620   31.7290   43.3040 C   0  0  0  0  0  0  0  0  0  0  0  0
   58.0265   32.5004   42.5316 H   0  0  0  0  0  0  0  0  0  0  0  0
   59.1179   31.2105   43.1385 H   0  0  0  0  0  0  0  0  0  0  0  0
   57.0160   30.7240   43.2270 C   0  0  0  0  0  0  0  0  0  0  0  0
   56.2787   31.0639   42.4848 H   0  0  0  0  0  0  0  0  0  0  0  0
   57.4082   29.7407   42.9281 H   0  0  0  0  0  0  0  0  0  0  0  0
   56.3960   30.6210   44.4970 O   0  0  0  0  0  0  0  0  0  0  0  0
   55.5200   29.5140   44.5270 C   0  0  0  0  0  0  0  0  0  0  0  0
   55.3062   29.2438   45.5716 H   0  0  0  0  0  0  0  0  0  0  0  0
   54.5814   29.7752   44.0164 H   0  0  0  0  0  0  0  0  0  0  0  0
   55.9900   28.6606   44.0164 H   0  0  0  0  0  0  0  0  0  0  0  0
   59.4930   31.3450   48.4060 C   0  0  1  0  0  0  0  0  0  0  0  0
   59.5365   31.9850   49.2996 H   0  0  0  0  0  0  0  0  0  0  0  0
   59.3960   29.8900   48.8950 C   0  0  0  0  0  0  0  0  0  0  0  0
   59.7989   29.8248   49.9165 H   0  0  0  0  0  0  0  0  0  0  0  0
   58.3401   29.5820   48.8806 H   0  0  0  0  0  0  0  0  0  0  0  0
   60.1400   29.0190   48.0410 O   0  0  0  0  0  0  0  0  0  0  0  0
   59.7030   28.5620   46.7900 C   0  0  0  0  0  0  0  0  0  0  0  0
   58.6580   27.6330   46.7540 C   0  0  0  0  0  0  0  0  0  0  0  0
   58.1957   27.2943   47.6929 H   0  0  0  0  0  0  0  0  0  0  0  0
   58.1970   27.1320   45.5330 C   0  0  0  0  0  0  0  0  0  0  0  0
   57.3760   26.4002   45.5146 H   0  0  0  0  0  0  0  0  0  0  0  0
   58.7770   27.5590   44.3370 C   0  0  0  0  0  0  0  0  0  0  0  0
   58.1470   26.8690   42.6700 Br  0  0  0  0  0  0  0  0  0  0  0  0
   59.8200   28.4900   44.3610 C   0  0  0  0  0  0  0  0  0  0  0  0
   60.2772   28.8267   43.4189 H   0  0  0  0  0  0  0  0  0  0  0  0
   60.2830   28.9940   45.5810 C   0  0  0  0  0  0  0  0  0  0  0  0
   61.1014   29.7289   45.5964 H   0  0  0  0  0  0  0  0  0  0  0  0
   60.7950   31.6270   47.6260 C   0  0  0  0  0  0  0  0  0  0  0  0
   61.2595   30.6691   47.3489 H   0  0  0  0  0  0  0  0  0  0  0  0
   61.4624   32.2154   48.2728 H   0  0  0  0  0  0  0  0  0  0  0  0
   60.5370   32.4060   46.4000 N   0  0  0  0  0  0  0  0  0  0  0  0
   59.5010   32.5310   46.3160 H   0  0  0  0  0  0  0  0  0  0  0  0
   61.1350   33.7470   46.4570 C   0  0  0  0  0  0  0  0  0  0  0  0
   60.6386   34.3319   47.2454 H   0  0  0  0  0  0  0  0  0  0  0  0
   61.0028   34.2382   45.4817 H   0  0  0  0  0  0  0  0  0  0  0  0
   62.6260   33.6520   46.7650 C   0  0  0  0  0  0  0  0  0  0  0  0
   62.7754   33.6425   47.8548 H   0  0  0  0  0  0  0  0  0  0  0  0
   63.0318   32.7262   46.3312 H   0  0  0  0  0  0  0  0  0  0  0  0
   63.1460   34.5188   46.3312 H   0  0  0  0  0  0  0  0  0  0  0  0
  1  2  1  0
  2  3  1  0
  3  4  2  0
  4  5  1  0
  5  6  1  0
  6  7  1  0
  6  8  1  0
  6  9  1  0
  9 10  1  0
  9 11  1  0
  9 12  1  0
 12 13  1  0
 13 14  1  0
 13 15  1  0
 13 16  1  0
 16 17  1  0
 16 18  1  0
 16 19  1  0
 19 20  1  0
 20 21  1  0
 20 22  1  0
 20 23  1  0
  3 24  1  0
 24 25  1  1
 24 26  1  0
 26 27  1  0
 26 28  1  0
 26 29  1  0
 29 30  1  0
 30 31  2  0
 31 32  1  0
 31 33  1  0
 33 34  1  0
 33 35  2  0
 35 36  1  0
 35 37  1  0
 37 38  1  0
 37 39  2  0
 39 40  1  0
 24 41  1  0
 41 42  1  0
 41 43  1  0
 41 44  1  0
 44 45  1  0
 44 46  1  0
 46 47  1  0
 46 48  1  0
 46 49  1  0
 49 50  1  0
 49 51  1  0
 49 52  1  0
 39 30  1  0
M  CHG  1   3   1
M  END
>  <UniqueID>  (22) 
22

>  <SMILES>  (22) 
CCNC[C@H](COc1ccc(Br)cc1)/[N+](O)=N/OCCOCCOC

>  <Energy>  (22) 
38.081277950145285

>  <Genealogy>  (22) 
CCNCC(COc1ccc(Br)cc1)[N+](O)=NOCCOCCOC (protonated)
CCNC[C@H](COc1ccc(Br)cc1)[N+](O)=NOCCOCCOC (chirality)
CCNC[C@H](COc1ccc(Br)cc1)/[N+](O)=N/OCCOCCOC (cis-trans isomerization)
CCNC[C@H](COc1ccc(Br)cc1)/[N+](O)=N/OCCOCCOC (3D coordinates assigned)
CCNC[C@H](COc1ccc(Br)cc1)/[N+](O)=N/OCCOCCOC (optimized conformer: 38.081277950145285 kcal/mol)

>  <smiles>  (22) 
CCNCC(COc1ccc(Br)cc1)[N+]([O-])=NOCCOCCOC

>  <score_type>  (22) 
oracle

>  <origin>  (22) 
adg

>  <m_score__min__energy>  (22) 
-5.1799999999999997

>  <m_primary>  (22) 
energy

$$$$
22:0
     RDKit          3D

 54 56  0  0  0  0  0  0  0  0999 V2000
   65.0100   32.7860   49.7810 C   0  0  0  0  0  0  0  0  0  0  0  0
   63.5720   32.9240   50.2880 C   0  0  0  0  0  0  0  0  0  0  0  0
   62.5800   32.8780   49.1890 N   0  0  0  0  0  0  0  0  0  0  0  0
   63.1550   32.4820   47.8880 C   0  0  0  0  0  0  0  0  0  0  0  0
   62.3460   31.4110   47.1280 C   0  0  0  0  0  0  0  0  0  0  0  0
   61.5130   30.4690   48.0120 C   0  0  0  0  0  0  0  0  0  0  0  0
   60.1230   30.9150   48.1340 N   0  0  0  0  0  0  0  0  0  0  0  0
   59.3460   31.3150   46.9870 C   0  0  0  0  0  0  0  0  0  0  0  0
   58.6140   30.3480   46.2700 C   0  0  0  0  0  0  0  0  0  0  0  0
   58.4420   29.0360   46.7690 C   0  0  0  0  0  0  0  0  0  0  0  0
   57.6900   28.0990   46.0660 C   0  0  0  0  0  0  0  0  0  0  0  0
   57.0910   28.4480   44.8610 C   0  0  0  0  0  0  0  0  0  0  0  0
   57.2700   29.7270   44.3350 C   0  0  0  0  0  0  0  0  0  0  0  0
   58.0630   30.6900   45.0070 C   0  0  0  0  0  0  0  0  0  0  0  0
   58.3150   31.9310   44.4600 N   0  0  0  0  0  0  0  0  0  0  0  0
   58.0650   32.1660   43.0210 C   0  0  0  0  0  0  0  0  0  0  0  0
   58.8090   32.9490   45.2550 C   0  0  0  0  0  0  0  0  0  0  0  0
   58.7940   34.2940   44.8150 C   0  0  0  0  0  0  0  0  0  0  0  0
   59.2870   35.3170   45.6130 C   0  0  0  0  0  0  0  0  0  0  0  0
   59.7600   35.0460   46.8870 C   0  0  0  0  0  0  0  0  0  0  0  0
   59.7520   33.7340   47.3920 C   0  0  0  0  0  0  0  0  0  0  0  0
   60.1080   33.4780   48.7300 O   0  0  0  0  0  0  0  0  0  0  0  0
   59.6480   34.1900   49.8790 C   0  0  0  0  0  0  0  0  0  0  0  0
   59.2650   33.2270   50.9990 C   0  0  0  0  0  0  0  0  0  0  0  0
   59.3200   32.6630   46.5540 C   0  0  0  0  0  0  0  0  0  0  0  0
   65.6963   32.7201   50.6381 H   0  0  0  0  0  0  0  0  0  0  0  0
   65.0977   31.8753   49.1703 H   0  0  0  0  0  0  0  0  0  0  0  0
   65.2693   33.6634   49.1703 H   0  0  0  0  0  0  0  0  0  0  0  0
   63.3632   32.1009   50.9873 H   0  0  0  0  0  0  0  0  0  0  0  0
   63.4822   33.9034   50.7807 H   0  0  0  0  0  0  0  0  0  0  0  0
   62.2000   33.8460   49.0650 H   0  0  0  0  0  0  0  0  0  0  0  0
   61.7530   32.2840   49.4280 H   0  0  0  0  0  0  0  0  0  0  0  0
   63.2183   33.3785   47.2537 H   0  0  0  0  0  0  0  0  0  0  0  0
   64.1371   32.0361   48.1039 H   0  0  0  0  0  0  0  0  0  0  0  0
   61.6600   31.9273   46.4404 H   0  0  0  0  0  0  0  0  0  0  0  0
   63.0850   30.7759   46.6176 H   0  0  0  0  0  0  0  0  0  0  0  0
   61.5251   29.4626   47.5681 H   0  0  0  0  0  0  0  0  0  0  0  0
   61.9579   30.4663   49.0180 H   0  0  0  0  0  0  0  0  0  0  0  0
   59.6560   30.8080   49.0610 H   0  0  0  0  0  0  0  0  0  0  0  0
   58.9081   28.7525   47.7242 H   0  0  0  0  0  0  0  0  0  0  0  0
   57.5695   27.0808   46.4646 H   0  0  0  0  0  0  0  0  0  0  0  0
   56.4747   27.7138   44.3214 H   0  0  0  0  0  0  0  0  0  0  0  0
   56.7877   29.9927   43.3828 H   0  0  0  0  0  0  0  0  0  0  0  0
   57.2680   32.9152   42.9049 H   0  0  0  0  0  0  0  0  0  0  0  0
   58.9857   32.5332   42.5441 H   0  0  0  0  0  0  0  0  0  0  0  0
   57.7554   31.2244   42.5441 H   0  0  0  0  0  0  0  0  0  0  0  0
   58.3842   34.5330   43.8226 H   0  0  0  0  0  0  0  0  0  0  0  0
   59.3023   36.3488   45.2320 H   0  0  0  0  0  0  0  0  0  0  0  0
   60.1459   35.8664   47.5100 H   0  0  0  0  0  0  0  0  0  0  0  0
   60.4483   34.8558   50.2344 H   0  0  0  0  0  0  0  0  0  0  0  0
   58.7590   34.7738   49.5981 H   0  0  0  0  0  0  0  0  0  0  0  0
   59.4543   33.7029   51.9725 H   0  0  0  0  0  0  0  0  0  0  0  0
   58.1977   32.9739   50.9159 H   0  0  0  0  0  0  0  0  0  0  0  0
   59.8669   32.3100   50.9159 H   0  0  0  0  0  0  0  0  0  0  0  0
  1  2  1  0
  2  3  1  0
  3  4  1  0
  4  5  1  0
  5  6  1  0
  6  7  1  0
  7  8  1  0
  8  9  2  0
  9 10  1  0
 10 11  2  0
 11 12  1  0
 12 13  2  0
 13 14  1  0
 14 15  2  0
 15 16  1  0
 15 17  1  0
 17 18  2  0
 18 19  1  0
 19 20  2  0
 20 21  1  0
 21 22  1  0
 22 23  1  0
 23 24  1  0
 21 25  2  0
 25  8  1  0
 14  9  1  0
 25 17  1  0
  1 26  1  0
  1 27  1  0
  1 28  1  0
  2 29  1  0
  2 30  1  0
  3 31  1  0
  3 32  1  0
  4 33  1  0
  4 34  1  0
  5 35  1  0
  5 36  1  0
  6 37  1  0
  6 38  1  0
  7 39  1  0
 10 40  1  0
 11 41  1  0
 12 42  1  0
 13 43  1  0
 16 44  1  0
 16 45  1  0
 16 46  1  0
 18 47  1  0
 19 48  1  0
 20 49  1  0
 23 50  1  0
 23 51  1  0
 24 52  1  0
 24 53  1  0
 24 54  1  0
M  CHG  2   3   1  15   1
M  END
>  <UniqueID>  (23) 
23

>  <SMILES>  (23) 
CC[NH2+]CCCNc1c2ccccc2[n+](C)c2cccc(OCC)c12

>  <Energy>  (23) 
80.80070676550997

>  <Genealogy>  (23) 
CC[NH2+]CCCNc1c2ccccc2[n+](C)c2cccc(OCC)c12 (protonated)
CC[NH2+]CCCNc1c2ccccc2[n+](C)c2cccc(OCC)c12 (3D coordinates assigned)
CC[NH2+]CCCNc1c2ccccc2[n+](C)c2cccc(OCC)c12 (optimized conformer: 80.80070676550997 kcal/mol)

>  <smiles>  (23) 
CCNCCCNc1c2ccccc2[n+](C)c2cccc(OCC)c12

>  <score_type>  (23) 
oracle

>  <origin>  (23) 
adg

>  <m_score__min__energy>  (23) 
-3.2999999999999998

>  <m_primary>  (23) 
energy

$$$$
23:0
     RDKit          3D

 64 66  0  0  0  0  0  0  0  0999 V2000
   63.4000   32.7610   47.1010 C   0  0  0  0  0  0  0  0  0  0  0  0
   62.8300   31.6330   47.9600 C   0  0  0  0  0  0  0  0  0  0  0  0
   62.4900   32.1170   49.3150 N   0  0  0  0  0  0  0  0  0  0  0  0
   63.4810   31.6840   50.3270 C   0  0  0  0  0  0  0  0  0  0  0  0
   64.8700   32.2740   50.0790 C   0  0  0  0  0  0  0  0  0  0  0  0
   62.1480   33.5640   49.3440 C   0  0  0  0  0  0  0  0  0  0  0  0
   60.8220   33.9670   48.6540 C   0  0  0  0  0  0  0  0  0  0  0  0
   59.7360   33.0150   48.9100 N   0  0  0  0  0  0  0  0  0  0  0  0
   59.4020   32.0310   47.9210 C   0  0  0  0  0  0  0  0  0  0  0  0
   58.7540   32.4680   46.7490 C   0  0  0  0  0  0  0  0  0  0  0  0
   58.2610   33.7890   46.6410 C   0  0  0  0  0  0  0  0  0  0  0  0
   57.5930   34.2100   45.4940 C   0  0  0  0  0  0  0  0  0  0  0  0
   57.3940   33.3260   44.4410 C   0  0  0  0  0  0  0  0  0  0  0  0
   57.8820   32.0230   44.5210 C   0  0  0  0  0  0  0  0  0  0  0  0
   58.5980   31.5780   45.6620 C   0  0  0  0  0  0  0  0  0  0  0  0
   59.1330   30.3120   45.7330 N   0  0  0  0  0  0  0  0  0  0  0  0
   59.2930   29.5160   44.4940 C   0  0  0  0  0  0  0  0  0  0  0  0
   59.5310   29.7930   46.9510 C   0  0  0  0  0  0  0  0  0  0  0  0
   59.7540   28.4060   47.0920 C   0  0  0  0  0  0  0  0  0  0  0  0
   60.1810   27.8640   48.2870 C   0  0  0  0  0  0  0  0  0  0  0  0
   60.3750   28.6700   49.3910 C   0  0  0  0  0  0  0  0  0  0  0  0
   60.1300   30.0640   49.3450 C   0  0  0  0  0  0  0  0  0  0  0  0
   60.2680   30.8790   50.5480 N   0  0  0  0  0  0  0  0  0  0  0  0
   59.5580   30.4420   51.7690 C   0  0  0  0  0  0  0  0  0  0  0  0
   58.0540   30.6540   51.7440 C   0  0  0  0  0  0  0  0  0  0  0  0
   57.3360   29.6660   51.8040 O   0  0  0  0  0  0  0  0  0  0  0  0
   57.4140   32.0220   51.6370 C   0  0  0  0  0  0  0  0  0  0  0  0
   58.3660   33.0070   51.2760 O   0  0  0  0  0  0  0  0  0  0  0  0
   58.5480   33.9250   52.3310 C   0  0  0  0  0  0  0  0  0  0  0  0
   59.7000   30.6440   48.0920 C   0  0  0  0  0  0  0  0  0  0  0  0
   63.7997   33.5520   47.7526 H   0  0  0  0  0  0  0  0  0  0  0  0
   64.2069   32.3664   46.4660 H   0  0  0  0  0  0  0  0  0  0  0  0
   62.6037   33.1766   46.4660 H   0  0  0  0  0  0  0  0  0  0  0  0
   61.9216   31.2398   47.4803 H   0  0  0  0  0  0  0  0  0  0  0  0
   63.5910   30.8439   48.0511 H   0  0  0  0  0  0  0  0  0  0  0  0
   63.1339   32.0052   51.3201 H   0  0  0  0  0  0  0  0  0  0  0  0
   63.5673   30.5893   50.2622 H   0  0  0  0  0  0  0  0  0  0  0  0
   65.3578   32.4812   51.0429 H   0  0  0  0  0  0  0  0  0  0  0  0
   65.4768   31.5559   49.5079 H   0  0  0  0  0  0  0  0  0  0  0  0
   64.7745   33.2092   49.5079 H   0  0  0  0  0  0  0  0  0  0  0  0
   62.0853   33.8730   50.3979 H   0  0  0  0  0  0  0  0  0  0  0  0
   62.9420   34.0657   48.7714 H   0  0  0  0  0  0  0  0  0  0  0  0
   60.5178   34.9559   49.0275 H   0  0  0  0  0  0  0  0  0  0  0  0
   61.0034   33.9787   47.5691 H   0  0  0  0  0  0  0  0  0  0  0  0
   58.9940   33.2450   49.6070 H   0  0  0  0  0  0  0  0  0  0  0  0
   58.4070   34.4929   47.4736 H   0  0  0  0  0  0  0  0  0  0  0  0
   57.2226   35.2432   45.4217 H   0  0  0  0  0  0  0  0  0  0  0  0
   56.8506   33.6549   43.5429 H   0  0  0  0  0  0  0  0  0  0  0  0
   57.7092   31.3283   43.6858 H   0  0  0  0  0  0  0  0  0  0  0  0
   59.5035   28.4685   44.7558 H   0  0  0  0  0  0  0  0  0  0  0  0
   58.3666   29.5672   43.9031 H   0  0  0  0  0  0  0  0  0  0  0  0
   60.1277   29.9212   43.9031 H   0  0  0  0  0  0  0  0  0  0  0  0
   59.5837   27.7432   46.2308 H   0  0  0  0  0  0  0  0  0  0  0  0
   60.3681   26.7825   48.3605 H   0  0  0  0  0  0  0  0  0  0  0  0
   60.7286   28.2182   50.3295 H   0  0  0  0  0  0  0  0  0  0  0  0
   61.2780   30.9830   50.7810 H   0  0  0  0  0  0  0  0  0  0  0  0
   59.8690   31.8190   50.3250 H   0  0  0  0  0  0  0  0  0  0  0  0
   59.7495   29.3680   51.9099 H   0  0  0  0  0  0  0  0  0  0  0  0
   59.9439   31.0641   52.5900 H   0  0  0  0  0  0  0  0  0  0  0  0
   56.6239   31.9895   50.8723 H   0  0  0  0  0  0  0  0  0  0  0  0
   56.9938   32.2873   52.6184 H   0  0  0  0  0  0  0  0  0  0  0  0
   58.4444   33.4027   53.2935 H   0  0  0  0  0  0  0  0  0  0  0  0
   59.5518   34.3695   52.2612 H   0  0  0  0  0  0  0  0  0  0  0  0
   57.7898   34.7188   52.2612 H   0  0  0  0  0  0  0  0  0  0  0  0
  1  2  1  0
  2  3  1  0
  3  4  1  0
  4  5  1  0
  3  6  1  0
  6  7  1  0
  7  8  1  0
  8  9  1  0
  9 10  2  0
 10 11  1  0
 11 12  2  0
 12 13  1  0
 13 14  2  0
 14 15  1  0
 15 16  2  0
 16 17  1  0
 16 18  1  0
 18 19  2  0
 19 20  1  0
 20 21  2  0
 21 22  1  0
 22 23  1  0
 23 24  1  0
 24 25  1  0
 25 26  2  0
 25 27  1  0
 27 28  1  0
 28 29  1  0
 22 30  2  0
 30  9  1  0
 15 10  1  0
 30 18  1  0
  1 31  1  0
  1 32  1  0
  1 33  1  0
  2 34  1  0
  2 35  1  0
  4 36  1  0
  4 37  1  0
  5 38  1  0
  5 39  1  0
  5 40  1  0
  6 41  1  0
  6 42  1  0
  7 43  1  0
  7 44  1  0
  8 45  1  0
 11 46  1  0
 12 47  1  0
 13 48  1  0
 14 49  1  0
 17 50  1  0
 17 51  1  0
 17 52  1  0
 19 53  1  0
 20 54  1  0
 21 55  1  0
 23 56  1  0
 23 57  1  0
 24 58  1  0
 24 59  1  0
 27 60  1  0
 27 61  1  0
 29 62  1  0
 29 63  1  0
 29 64  1  0
M  CHG  2  16   1  23   1
M  END
>  <UniqueID>  (24) 
24

>  <SMILES>  (24) 
CCN(CC)CCNc1c2ccccc2[n+](C)c2cccc([NH2+]CC(=O)COC)c12

>  <Energy>  (24) 
113.6353338152024

>  <Genealogy>  (24) 
CCN(CC)CCNc1c2ccccc2[n+](C)c2cccc([NH2+]CC(=O)COC)c12 (protonated)
CCN(CC)CCNc1c2ccccc2[n+](C)c2cccc([NH2+]CC(=O)COC)c12 (3D coordinates assigned)
CCN(CC)CCNc1c2ccccc2[n+](C)c2cccc([NH2+]CC(=O)COC)c12 (optimized conformer: 113.6353338152024 kcal/mol)

>  <smiles>  (24) 
CCN(CC)CCNc1c2ccccc2[n+](C)c2cccc(NCC(=O)COC)c12

>  <score_type>  (24) 
oracle

>  <origin>  (24) 
adg

>  <m_score__min__energy>  (24) 
-3.75

>  <m_primary>  (24) 
energy

$$$$
24:0
     RDKit          3D

 55 57  0  0  0  0  0  0  0  0999 V2000
   56.2490   29.7740   42.7300 C   0  0  0  0  0  0  0  0  0  0  0  0
   55.5070   30.0630   44.0300 C   0  0  0  0  0  0  0  0  0  0  0  0
   55.5030   28.9140   44.8770 O   0  0  0  0  0  0  0  0  0  0  0  0
   56.6400   28.2680   45.3980 C   0  0  0  0  0  0  0  0  0  0  0  0
   57.9170   28.8550   45.3590 C   0  0  0  0  0  0  0  0  0  0  0  0
   59.0250   28.1980   45.9080 C   0  0  0  0  0  0  0  0  0  0  0  0
   60.3970   28.8510   45.8670 C   0  0  0  0  0  0  0  0  0  0  0  0
   60.6250   29.8760   46.9200 N   0  0  0  0  0  0  0  0  0  0  0  0
   60.7600   29.2960   48.2870 C   0  0  0  0  0  0  0  0  0  0  0  0
   59.5360   29.5550   49.1770 C   0  0  0  0  0  0  0  0  0  0  0  0
   59.2690   31.0000   49.2510 N   0  0  0  0  0  0  0  0  0  0  0  0
   58.6240   31.5710   50.4100 C   0  0  0  0  0  0  0  0  0  0  0  0
   58.9910   32.8480   50.8790 C   0  0  0  0  0  0  0  0  0  0  0  0
   58.3640   33.3970   52.0030 C   0  0  0  0  0  0  0  0  0  0  0  0
   57.3690   32.6810   52.6700 C   0  0  0  0  0  0  0  0  0  0  0  0
   56.9960   31.4150   52.2160 C   0  0  0  0  0  0  0  0  0  0  0  0
   57.6190   30.8600   51.0930 C   0  0  0  0  0  0  0  0  0  0  0  0
   59.6380   31.8470   48.1080 C   0  0  0  0  0  0  0  0  0  0  0  0
   59.6650   31.0080   46.8250 C   0  0  0  0  0  0  0  0  0  0  0  0
   58.8580   26.9160   46.4460 C   0  0  0  0  0  0  0  0  0  0  0  0
   57.5880   26.3110   46.5040 C   0  0  0  0  0  0  0  0  0  0  0  0
   57.4250   25.0370   47.0730 O   0  0  0  0  0  0  0  0  0  0  0  0
   57.6700   23.8040   46.4040 C   0  0  0  0  0  0  0  0  0  0  0  0
   56.4670   27.0020   45.9790 C   0  0  0  0  0  0  0  0  0  0  0  0
   55.1560   26.4900   45.9960 O   0  0  0  0  0  0  0  0  0  0  0  0
   54.7480   25.1830   45.6050 C   0  0  0  0  0  0  0  0  0  0  0  0
   57.2515   29.3835   42.9590 H   0  0  0  0  0  0  0  0  0  0  0  0
   55.6895   29.0281   42.1465 H   0  0  0  0  0  0  0  0  0  0  0  0
   56.3414   30.7019   42.1465 H   0  0  0  0  0  0  0  0  0  0  0  0
   56.0039   30.8941   44.5519 H   0  0  0  0  0  0  0  0  0  0  0  0
   54.4667   30.3287   43.7909 H   0  0  0  0  0  0  0  0  0  0  0  0
   58.0472   29.8422   44.8916 H   0  0  0  0  0  0  0  0  0  0  0  0
   61.1558   28.0633   45.9845 H   0  0  0  0  0  0  0  0  0  0  0  0
   60.4652   29.3742   44.9018 H   0  0  0  0  0  0  0  0  0  0  0  0
   61.5630   30.2870   46.6940 H   0  0  0  0  0  0  0  0  0  0  0  0
   60.9006   28.2090   48.1934 H   0  0  0  0  0  0  0  0  0  0  0  0
   61.6217   29.7841   48.7658 H   0  0  0  0  0  0  0  0  0  0  0  0
   58.6603   29.0434   48.7511 H   0  0  0  0  0  0  0  0  0  0  0  0
   59.7350   29.1707   50.1883 H   0  0  0  0  0  0  0  0  0  0  0  0
   59.7753   33.4169   50.3583 H   0  0  0  0  0  0  0  0  0  0  0  0
   58.6560   34.3951   52.3616 H   0  0  0  0  0  0  0  0  0  0  0  0
   56.8785   33.1146   53.5540 H   0  0  0  0  0  0  0  0  0  0  0  0
   56.2107   30.8525   52.7422 H   0  0  0  0  0  0  0  0  0  0  0  0
   57.3215   29.8611   50.7412 H   0  0  0  0  0  0  0  0  0  0  0  0
   58.9001   32.6555   47.9998 H   0  0  0  0  0  0  0  0  0  0  0  0
   60.6360   32.2757   48.2818 H   0  0  0  0  0  0  0  0  0  0  0  0
   58.6578   30.6052   46.6428 H   0  0  0  0  0  0  0  0  0  0  0  0
   59.9882   31.6594   45.9996 H   0  0  0  0  0  0  0  0  0  0  0  0
   59.7339   26.3724   46.8298 H   0  0  0  0  0  0  0  0  0  0  0  0
   57.8280   23.0087   47.1473 H   0  0  0  0  0  0  0  0  0  0  0  0
   56.8047   23.5504   45.7740 H   0  0  0  0  0  0  0  0  0  0  0  0
   58.5665   23.9005   45.7740 H   0  0  0  0  0  0  0  0  0  0  0  0
   54.5581   24.5746   46.5015 H   0  0  0  0  0  0  0  0  0  0  0  0
   53.8280   25.2500   45.0057 H   0  0  0  0  0  0  0  0  0  0  0  0
   55.5427   24.7147   45.0057 H   0  0  0  0  0  0  0  0  0  0  0  0
  1  2  1  0
  2  3  1  0
  3  4  1  0
  4  5  2  0
  5  6  1  0
  6  7  1  0
  7  8  1  0
  8  9  1  0
  9 10  1  0
 10 11  1  0
 11 12  1  0
 12 13  2  0
 13 14  1  0
 14 15  2  0
 15 16  1  0
 16 17  2  0
 11 18  1  0
 18 19  1  0
  6 20  2  0
 20 21  1  0
 21 22  1  0
 22 23  1  0
 21 24  2  0
 24 25  1  0
 25 26  1  0
 24  4  1  0
 19  8  1  0
 17 12  1  0
  1 27  1  0
  1 28  1  0
  1 29  1  0
  2 30  1  0
  2 31  1  0
  5 32  1  0
  7 33  1  0
  7 34  1  0
  8 35  1  0
  9 36  1  0
  9 37  1  0
 10 38  1  0
 10 39  1  0
 13 40  1  0
 14 41  1  0
 15 42  1  0
 16 43  1  0
 17 44  1  0
 18 45  1  0
 18 46  1  0
 19 47  1  0
 19 48  1  0
 20 49  1  0
 23 50  1  0
 23 51  1  0
 23 52  1  0
 26 53  1  0
 26 54  1  0
 26 55  1  0
M  CHG  1   8   1
M  END
>  <UniqueID>  (25) 
25

>  <SMILES>  (25) 
CCOc1cc(C[NH+]2CCN(c3ccccc3)CC2)cc(OC)c1OC

>  <Energy>  (25) 
69.13115677957616

>  <Genealogy>  (25) 
CCOc1cc(C[NH+]2CCN(c3ccccc3)CC2)cc(OC)c1OC (protonated)
CCOc1cc(C[NH+]2CCN(c3ccccc3)CC2)cc(OC)c1OC (3D coordinates assigned)
CCOc1cc(C[NH+]2CCN(c3ccccc3)CC2)cc(OC)c1OC (nonaromatic ring conformer: 69.13115677957616 kcal/mol)

>  <smiles>  (25) 
CCOc1cc(CN2CCN(c3ccccc3)CC2)cc(OC)c1OC

>  <score_type>  (25) 
oracle

>  <origin>  (25) 
adg

>  <m_score__min__energy>  (25) 
-6.0700000000000003

>  <m_primary>  (25) 
energy

$$$$
25:0
     RDKit          3D

 33 35  0  0  0  0  0  0  0  0999 V2000
   57.0770   31.2130   42.4990 C   0  0  0  0  0  0  0  0  0  0  0  0
   56.3250   30.3380   43.4980 C   0  0  0  0  0  0  0  0  0  0  0  0
   56.7100   30.6690   44.8720 N   0  0  0  0  0  0  0  0  0  0  0  0
   57.5490   31.7860   45.2050 C   0  0  0  0  0  0  0  0  0  0  0  0
   57.0380   33.0830   45.0100 C   0  0  0  0  0  0  0  0  0  0  0  0
   57.7390   34.2060   45.4340 C   0  0  0  0  0  0  0  0  0  0  0  0
   58.9600   34.0650   46.0810 C   0  0  0  0  0  0  0  0  0  0  0  0
   59.5090   32.7920   46.2830 C   0  0  0  0  0  0  0  0  0  0  0  0
   58.8270   31.6170   45.8190 C   0  0  0  0  0  0  0  0  0  0  0  0
   59.4790   30.3400   45.9750 C   0  0  0  0  0  0  0  0  0  0  0  0
   58.8910   28.8280   45.2840 Cl  0  0  0  0  0  0  0  0  0  0  0  0
   60.7180   30.2460   46.6360 C   0  0  0  0  0  0  0  0  0  0  0  0
   61.3090   31.4060   47.1060 C   0  0  0  0  0  0  0  0  0  0  0  0
   62.4920   31.5340   47.7310 N   0  0  0  0  0  0  0  0  0  0  0  0
   62.6770   32.8250   47.9690 N   0  0  0  0  0  0  0  0  0  0  0  0
   63.8860   33.3850   48.5610 C   0  0  0  0  0  0  0  0  0  0  0  0
   61.6330   33.5350   47.4820 C   0  0  0  0  0  0  0  0  0  0  0  0
   60.7380   32.6330   46.9310 C   0  0  0  0  0  0  0  0  0  0  0  0
   57.7001   31.9381   43.0430 H   0  0  0  0  0  0  0  0  0  0  0  0
   57.7176   30.5804   41.8670 H   0  0  0  0  0  0  0  0  0  0  0  0
   56.3553   31.7512   41.8670 H   0  0  0  0  0  0  0  0  0  0  0  0
   55.2438   30.5004   43.3773 H   0  0  0  0  0  0  0  0  0  0  0  0
   56.5778   29.2850   43.3048 H   0  0  0  0  0  0  0  0  0  0  0  0
   56.2910   30.1130   45.6490 H   0  0  0  0  0  0  0  0  0  0  0  0
   56.0652   33.2104   44.5125 H   0  0  0  0  0  0  0  0  0  0  0  0
   57.3254   35.2097   45.2565 H   0  0  0  0  0  0  0  0  0  0  0  0
   59.4980   34.9563   46.4362 H   0  0  0  0  0  0  0  0  0  0  0  0
   61.2067   29.2705   46.7762 H   0  0  0  0  0  0  0  0  0  0  0  0
   63.1630   30.7700   47.9720 H   0  0  0  0  0  0  0  0  0  0  0  0
   63.8079   33.3488   49.6576 H   0  0  0  0  0  0  0  0  0  0  0  0
   64.7586   32.7994   48.2360 H   0  0  0  0  0  0  0  0  0  0  0  0
   64.0036   34.4293   48.2360 H   0  0  0  0  0  0  0  0  0  0  0  0
   61.5165   34.6282   47.5173 H   0  0  0  0  0  0  0  0  0  0  0  0
  1  2  1  0
  2  3  1  0
  3  4  1  0
  4  5  2  0
  5  6  1  0
  6  7  2  0
  7  8  1  0
  8  9  2  0
  9 10  1  0
 10 11  1  0
 10 12  2  0
 12 13  1  0
 13 14  2  0
 14 15  1  0
 15 16  1  0
 15 17  1  0
 17 18  2  0
  9  4  1  0
 18 13  1  0
 18  8  1  0
  1 19  1  0
  1 20  1  0
  1 21  1  0
  2 22  1  0
  2 23  1  0
  3 24  1  0
  5 25  1  0
  6 26  1  0
  7 27  1  0
 12 28  1  0
 14 29  1  0
 16 30  1  0
 16 31  1  0
 16 32  1  0
 17 33  1  0
M  CHG  1  14   1
M  END
>  <UniqueID>  (26) 
26

>  <SMILES>  (26) 
CCNc1cccc2c1c(Cl)cc1[nH+]n(C)cc12

>  <Energy>  (26) 
83.76354278417283

>  <Genealogy>  (26) 
CCNc1cccc2c1c(Cl)cc1[nH+]n(C)cc12 (protonated)
CCNc1cccc2c1c(Cl)cc1[nH+]n(C)cc12 (3D coordinates assigned)
CCNc1cccc2c1c(Cl)cc1[nH+]n(C)cc12 (optimized conformer: 83.76354278417283 kcal/mol)

>  <smiles>  (26) 
CCNc1cccc2c1c(Cl)cc1nn(C)cc12

>  <score_type>  (26) 
oracle

>  <origin>  (26) 
adg

>  <m_score__min__energy>  (26) 
-5.5300000000000002

>  <m_primary>  (26) 
energy

$$$$
26:0
     RDKit          3D

 42 44  0  0  0  0  0  0  0  0999 V2000
   57.7450   33.0590   44.8080 C   0  0  0  0  0  0  0  0  0  0  0  0
   57.4040   31.8520   43.9450 C   0  0  0  0  0  0  0  0  0  0  0  0
   56.3870   31.0280   44.6130 N   0  0  0  0  0  0  0  0  0  0  0  0
   56.3340   29.6680   44.0500 C   0  0  0  0  0  0  0  0  0  0  0  0
   57.7450   29.1520   43.7400 C   0  0  0  0  0  0  0  0  0  0  0  0
   58.1290   27.9830   44.6260 C   0  0  0  0  0  0  0  0  0  0  0  0
   57.7990   26.6940   44.1730 C   0  0  0  0  0  0  0  0  0  0  0  0
   58.0820   25.5540   44.9380 C   0  0  0  0  0  0  0  0  0  0  0  0
   57.7250   24.2020   44.4360 C   0  0  0  0  0  0  0  0  0  0  0  0
   58.4720   23.0740   44.8240 C   0  0  0  0  0  0  0  0  0  0  0  0
   58.1350   21.8030   44.3490 C   0  0  0  0  0  0  0  0  0  0  0  0
   57.0510   21.6430   43.4830 C   0  0  0  0  0  0  0  0  0  0  0  0
   56.3010   22.7550   43.0890 C   0  0  0  0  0  0  0  0  0  0  0  0
   55.2530   22.5990   42.2450 F   0  0  0  0  0  0  0  0  0  0  0  0
   56.6350   24.0280   43.5620 C   0  0  0  0  0  0  0  0  0  0  0  0
   58.7000   25.7040   46.1860 C   0  0  0  0  0  0  0  0  0  0  0  0
   59.0270   26.9760   46.6740 C   0  0  0  0  0  0  0  0  0  0  0  0
   59.6320   27.1000   47.9360 C   0  0  0  0  0  0  0  0  0  0  0  0
   59.9500   28.3580   48.4440 C   0  0  0  0  0  0  0  0  0  0  0  0
   59.6680   29.5030   47.7020 C   0  0  0  0  0  0  0  0  0  0  0  0
   59.0700   29.3990   46.4430 C   0  0  0  0  0  0  0  0  0  0  0  0
   58.7420   28.1350   45.9020 C   0  0  0  0  0  0  0  0  0  0  0  0
   57.6673   32.7840   45.8702 H   0  0  0  0  0  0  0  0  0  0  0  0
   58.7714   33.3884   44.5887 H   0  0  0  0  0  0  0  0  0  0  0  0
   57.0427   33.8767   44.5887 H   0  0  0  0  0  0  0  0  0  0  0  0
   57.0149   32.1958   42.9752 H   0  0  0  0  0  0  0  0  0  0  0  0
   58.3119   31.2504   43.7905 H   0  0  0  0  0  0  0  0  0  0  0  0
   56.6490   30.9570   45.6250 H   0  0  0  0  0  0  0  0  0  0  0  0
   55.8554   28.9951   44.7768 H   0  0  0  0  0  0  0  0  0  0  0  0
   55.7551   29.6955   43.1151 H   0  0  0  0  0  0  0  0  0  0  0  0
   57.7821   28.8286   42.6893 H   0  0  0  0  0  0  0  0  0  0  0  0
   58.4555   29.9701   43.9295 H   0  0  0  0  0  0  0  0  0  0  0  0
   57.3075   26.5772   43.1959 H   0  0  0  0  0  0  0  0  0  0  0  0
   59.3270   23.1933   45.5058 H   0  0  0  0  0  0  0  0  0  0  0  0
   58.7247   20.9273   44.6579 H   0  0  0  0  0  0  0  0  0  0  0  0
   56.7874   20.6420   43.1110 H   0  0  0  0  0  0  0  0  0  0  0  0
   56.0417   24.8998   43.2489 H   0  0  0  0  0  0  0  0  0  0  0  0
   58.9311   24.8137   46.7893 H   0  0  0  0  0  0  0  0  0  0  0  0
   59.8558   26.1991   48.5262 H   0  0  0  0  0  0  0  0  0  0  0  0
   60.4244   28.4472   49.4324 H   0  0  0  0  0  0  0  0  0  0  0  0
   59.9173   30.4940   48.1091 H   0  0  0  0  0  0  0  0  0  0  0  0
   58.8523   30.3105   45.8670 H   0  0  0  0  0  0  0  0  0  0  0  0
  1  2  1  0
  2  3  1  0
  3  4  1  0
  4  5  1  0
  5  6  1  0
  6  7  2  0
  7  8  1  0
  8  9  1  0
  9 10  2  0
 10 11  1  0
 11 12  2  0
 12 13  1  0
 13 14  1  0
 13 15  2  0
  8 16  2  0
 16 17  1  0
 17 18  2  0
 18 19  1  0
 19 20  2  0
 20 21  1  0
 21 22  2  0
 22  6  1  0
 15  9  1  0
 22 17  1  0
  1 23  1  0
  1 24  1  0
  1 25  1  0
  2 26  1  0
  2 27  1  0
  3 28  1  0
  4 29  1  0
  4 30  1  0
  5 31  1  0
  5 32  1  0
  7 33  1  0
 10 34  1  0
 11 35  1  0
 12 36  1  0
 15 37  1  0
 16 38  1  0
 18 39  1  0
 19 40  1  0
 20 41  1  0
 21 42  1  0
M  END
>  <UniqueID>  (27) 
27

>  <SMILES>  (27) 
CCNCCc1cc(-c2cccc(F)c2)cc2ccccc12

>  <Energy>  (27) 
49.66600129686797

>  <Genealogy>  (27) 
CCNCCc1cc(-c2cccc(F)c2)cc2ccccc12 (3D coordinates assigned)
CCNCCc1cc(-c2cccc(F)c2)cc2ccccc12 (optimized conformer: 49.66600129686797 kcal/mol)

>  <smiles>  (27) 
CCNCCc1cc(-c2cccc(F)c2)cc2ccccc12

>  <score_type>  (27) 
oracle

>  <origin>  (27) 
adg

>  <m_score__min__energy>  (27) 
-7.6100000000000003

>  <m_primary>  (27) 
energy

$$$$
27:0
     RDKit          3D

 43 44  0  0  0  0  0  0  0  0999 V2000
   61.1740   30.6100   47.7060 C   0  0  0  0  0  0  0  0  0  0  0  0
   60.4530   31.1790   46.6360 O   0  0  0  0  0  0  0  0  0  0  0  0
   59.6480   30.1880   46.0330 C   0  0  0  0  0  0  0  0  0  0  0  0
   58.1710   30.5440   46.2260 C   0  0  0  0  0  0  0  0  0  0  0  0
   57.6550   31.3810   45.1160 N   0  0  0  0  0  0  0  0  0  0  0  0
   56.6620   30.6170   44.3390 C   0  0  0  0  0  0  0  0  0  0  0  0
   57.2180   32.7360   45.5930 C   0  0  2  0  0  0  0  0  0  0  0  0
   57.3760   33.9090   44.6120 C   0  0  0  0  0  0  0  0  0  0  0  0
   58.7720   34.4730   44.8700 C   0  0  0  0  0  0  0  0  0  0  0  0
   59.2910   33.8320   46.0930 N   0  0  1  0  0  0  0  0  0  0  0  0
   59.9580   34.7970   46.9940 C   0  0  0  0  0  0  0  0  0  0  0  0
   61.1780   34.1880   47.6420 C   0  0  0  0  0  0  0  0  0  0  0  0
   61.2340   34.0390   49.0380 C   0  0  0  0  0  0  0  0  0  0  0  0
   62.3850   33.5300   49.6470 C   0  0  0  0  0  0  0  0  0  0  0  0
   63.4910   33.1730   48.8690 C   0  0  0  0  0  0  0  0  0  0  0  0
   64.9380   32.5430   49.6350 Cl  0  0  0  0  0  0  0  0  0  0  0  0
   63.4440   33.3240   47.4790 C   0  0  0  0  0  0  0  0  0  0  0  0
   62.2940   33.8310   46.8670 C   0  0  0  0  0  0  0  0  0  0  0  0
   58.1400   33.1720   46.7240 C   0  0  0  0  0  0  0  0  0  0  0  0
   60.7437   30.9496   48.6597 H   0  0  0  0  0  0  0  0  0  0  0  0
   61.1139   29.5133   47.6465 H   0  0  0  0  0  0  0  0  0  0  0  0
   62.2267   30.9233   47.6465 H   0  0  0  0  0  0  0  0  0  0  0  0
   59.8751   30.1350   44.9580 H   0  0  0  0  0  0  0  0  0  0  0  0
   59.8546   29.2135   46.4995 H   0  0  0  0  0  0  0  0  0  0  0  0
   57.5843   29.6147   46.2732 H   0  0  0  0  0  0  0  0  0  0  0  0
   58.0778   31.1193   47.1589 H   0  0  0  0  0  0  0  0  0  0  0  0
   55.9818   30.0937   45.0271 H   0  0  0  0  0  0  0  0  0  0  0  0
   56.0840   31.3055   43.7051 H   0  0  0  0  0  0  0  0  0  0  0  0
   57.1793   29.8818   43.7051 H   0  0  0  0  0  0  0  0  0  0  0  0
   56.1532   32.5795   45.8202 H   0  0  0  0  0  0  0  0  0  0  0  0
   57.2901   33.5559   43.5738 H   0  0  0  0  0  0  0  0  0  0  0  0
   56.5954   34.6702   44.7577 H   0  0  0  0  0  0  0  0  0  0  0  0
   59.4313   34.2471   44.0190 H   0  0  0  0  0  0  0  0  0  0  0  0
   58.7315   35.5654   44.9928 H   0  0  0  0  0  0  0  0  0  0  0  0
   59.9820   33.0950   45.8090 H   0  0  0  0  0  0  0  0  0  0  0  0
   60.2638   35.6788   46.4118 H   0  0  0  0  0  0  0  0  0  0  0  0
   59.2490   35.0807   47.7857 H   0  0  0  0  0  0  0  0  0  0  0  0
   60.3686   34.3240   49.6544 H   0  0  0  0  0  0  0  0  0  0  0  0
   62.4207   33.4101   50.7399 H   0  0  0  0  0  0  0  0  0  0  0  0
   64.3135   33.0433   46.8665 H   0  0  0  0  0  0  0  0  0  0  0  0
   62.2628   33.9509   45.7740 H   0  0  0  0  0  0  0  0  0  0  0  0
   58.4732   32.2970   47.3014 H   0  0  0  0  0  0  0  0  0  0  0  0
   57.6238   33.8509   47.4187 H   0  0  0  0  0  0  0  0  0  0  0  0
  1  2  1  0
  2  3  1  0
  3  4  1  0
  4  5  1  0
  5  6  1  0
  5  7  1  0
  7  8  1  0
  8  9  1  0
  9 10  1  0
 10 11  1  0
 11 12  1  0
 12 13  2  0
 13 14  1  0
 14 15  2  0
 15 16  1  0
 15 17  1  0
 17 18  2  0
 10 19  1  0
 19  7  1  0
 18 12  1  0
  1 20  1  0
  1 21  1  0
  1 22  1  0
  3 23  1  0
  3 24  1  0
  4 25  1  0
  4 26  1  0
  6 27  1  0
  6 28  1  0
  6 29  1  0
  7 30  1  1
  8 31  1  0
  8 32  1  0
  9 33  1  0
  9 34  1  0
 10 35  1  6
 11 36  1  0
 11 37  1  0
 13 38  1  0
 14 39  1  0
 17 40  1  0
 18 41  1  0
 19 42  1  0
 19 43  1  0
M  CHG  1  10   1
M  END
>  <UniqueID>  (28) 
28

>  <SMILES>  (28) 
COCCN(C)[C@@H]1CC[N@@H+](Cc2ccc(Cl)cc2)C1

>  <Energy>  (28) 
55.34950181086353

>  <Genealogy>  (28) 
COCCN(C)C1CC[NH+](Cc2ccc(Cl)cc2)C1 (protonated)
COCCN(C)[C@@H]1CC[N@@H+](Cc2ccc(Cl)cc2)C1 (chirality)
COCCN(C)[C@@H]1CC[N@@H+](Cc2ccc(Cl)cc2)C1 (3D coordinates assigned)
COCCN(C)[C@@H]1CC[N@@H+](Cc2ccc(Cl)cc2)C1 (nonaromatic ring conformer: 55.34950181086353 kcal/mol)

>  <smiles>  (28) 
COCCN(C)C1CCN(Cc2ccc(Cl)cc2)C1

>  <score_type>  (28) 
oracle

>  <origin>  (28) 
adg

>  <m_score__min__energy>  (28) 
-6.0199999999999996

>  <m_primary>  (28) 
energy

$$$$
28:0
     RDKit          3D

 58 62  0  0  0  0  0  0  0  0999 V2000
   62.6020   33.8690   50.8800 C   0  0  0  0  0  0  0  0  0  0  0  0
   62.5540   34.4900   49.5980 O   0  0  0  0  0  0  0  0  0  0  0  0
   61.5510   34.1870   48.6720 C   0  0  0  0  0  0  0  0  0  0  0  0
   60.2450   34.6040   48.9330 C   0  0  0  0  0  0  0  0  0  0  0  0
   59.2210   34.3490   48.0150 C   0  0  0  0  0  0  0  0  0  0  0  0
   59.4950   33.6460   46.8300 C   0  0  0  0  0  0  0  0  0  0  0  0
   58.4260   33.4350   45.7870 C   0  0  1  0  0  0  0  0  0  0  0  0
   58.0120   34.6380   44.9490 C   0  0  0  0  0  0  0  0  0  0  0  0
   58.8510   33.5190   44.3420 C   0  0  2  0  0  0  0  0  0  0  0  0
   58.0870   32.4250   43.6130 C   0  0  0  0  0  0  0  0  0  0  0  0
   57.3660   31.6100   44.6080 N   0  0  0  0  0  0  0  0  0  0  0  0
   57.7810   30.1860   44.6400 C   0  0  0  0  0  0  0  0  0  0  0  0
   58.3250   29.7030   46.0100 C   0  0  0  0  0  0  0  0  0  0  0  0
   59.8110   30.0450   46.1950 C   0  0  0  0  0  0  0  0  0  0  0  0
   60.5200   29.3280   47.7300 S   0  0  0  0  0  0  0  0  0  0  0  0
   59.7610   30.5210   48.8370 C   0  0  0  0  0  0  0  0  0  0  0  0
   58.5480   31.0660   48.6190 N   0  0  0  0  0  0  0  0  0  0  0  0
   58.2980   31.8730   49.6390 N   0  0  0  0  0  0  0  0  0  0  0  0
   59.3560   31.7950   50.4760 C   0  0  0  0  0  0  0  0  0  0  0  0
   59.4360   32.5660   51.7370 C   0  0  0  0  0  0  0  0  0  0  0  0
   60.0350   32.0250   52.8880 C   0  0  0  0  0  0  0  0  0  0  0  0
   60.0810   32.7650   54.0740 C   0  0  0  0  0  0  0  0  0  0  0  0
   59.5220   34.0450   54.1250 C   0  0  0  0  0  0  0  0  0  0  0  0
   58.9030   34.5820   52.9950 C   0  0  0  0  0  0  0  0  0  0  0  0
   58.8520   33.8440   51.8070 C   0  0  0  0  0  0  0  0  0  0  0  0
   60.3020   30.9580   49.9930 N   0  0  0  0  0  0  0  0  0  0  0  0
   61.5900   30.5760   50.5810 C   0  0  0  0  0  0  0  0  0  0  0  0
   57.4330   32.2880   45.9130 C   0  0  0  0  0  0  0  0  0  0  0  0
   60.8040   33.2120   46.5740 C   0  0  0  0  0  0  0  0  0  0  0  0
   61.8300   33.4650   47.4920 C   0  0  0  0  0  0  0  0  0  0  0  0
   63.5710   32.7490   47.1370 Br  0  0  0  0  0  0  0  0  0  0  0  0
   62.5425   34.6393   51.6630 H   0  0  0  0  0  0  0  0  0  0  0  0
   61.7548   33.1750   50.9832 H   0  0  0  0  0  0  0  0  0  0  0  0
   63.5458   33.3134   50.9832 H   0  0  0  0  0  0  0  0  0  0  0  0
   60.0191   35.1375   49.8681 H   0  0  0  0  0  0  0  0  0  0  0  0
   58.1990   34.6996   48.2213 H   0  0  0  0  0  0  0  0  0  0  0  0
   56.9617   34.7657   44.6480 H   0  0  0  0  0  0  0  0  0  0  0  0
   58.1149   35.7291   45.0434 H   0  0  0  0  0  0  0  0  0  0  0  0
   59.7701   33.5474   43.7383 H   0  0  0  0  0  0  0  0  0  0  0  0
   57.3682   32.8778   42.9142 H   0  0  0  0  0  0  0  0  0  0  0  0
   58.7863   31.7930   43.0459 H   0  0  0  0  0  0  0  0  0  0  0  0
   56.9086   29.5684   44.3801 H   0  0  0  0  0  0  0  0  0  0  0  0
   58.6091   30.0862   43.9228 H   0  0  0  0  0  0  0  0  0  0  0  0
   57.7473   30.1867   46.8115 H   0  0  0  0  0  0  0  0  0  0  0  0
   58.2221   28.6085   46.0484 H   0  0  0  0  0  0  0  0  0  0  0  0
   60.3716   29.6543   45.3330 H   0  0  0  0  0  0  0  0  0  0  0  0
   59.8921   31.1393   46.2722 H   0  0  0  0  0  0  0  0  0  0  0  0
   60.4696   31.0150   52.8557 H   0  0  0  0  0  0  0  0  0  0  0  0
   60.5582   32.3386   54.9687 H   0  0  0  0  0  0  0  0  0  0  0  0
   59.5699   34.6293   55.0558 H   0  0  0  0  0  0  0  0  0  0  0  0
   58.4551   35.5857   53.0383 H   0  0  0  0  0  0  0  0  0  0  0  0
   58.3522   34.2658   50.9225 H   0  0  0  0  0  0  0  0  0  0  0  0
   61.5134   30.5987   51.6781 H   0  0  0  0  0  0  0  0  0  0  0  0
   61.8560   29.5603   50.2530 H   0  0  0  0  0  0  0  0  0  0  0  0
   62.3668   31.2824   50.2530 H   0  0  0  0  0  0  0  0  0  0  0  0
   56.4411   32.6790   46.1836 H   0  0  0  0  0  0  0  0  0  0  0  0
   57.7527   31.5854   46.6967 H   0  0  0  0  0  0  0  0  0  0  0  0
   61.0262   32.6682   45.6440 H   0  0  0  0  0  0  0  0  0  0  0  0
  1  2  1  0
  2  3  1  0
  3  4  2  0
  4  5  1  0
  5  6  2  0
  7  6  1  1
  7  8  1  0
  8  9  1  0
  9 10  1  0
 10 11  1  0
 11 12  1  0
 12 13  1  0
 13 14  1  0
 14 15  1  0
 15 16  1  0
 16 17  2  0
 17 18  1  0
 18 19  2  0
 19 20  1  0
 20 21  2  0
 21 22  1  0
 22 23  2  0
 23 24  1  0
 24 25  2  0
 19 26  1  0
 26 27  1  0
 11 28  1  0
  6 29  1  0
 29 30  2  0
 30 31  1  0
 30  3  1  0
  9  7  1  0
 26 16  1  0
 28  7  1  0
 25 20  1  0
  1 32  1  0
  1 33  1  0
  1 34  1  0
  4 35  1  0
  5 36  1  0
  8 37  1  0
  8 38  1  0
  9 39  1  1
 10 40  1  0
 10 41  1  0
 12 42  1  0
 12 43  1  0
 13 44  1  0
 13 45  1  0
 14 46  1  0
 14 47  1  0
 21 48  1  0
 22 49  1  0
 23 50  1  0
 24 51  1  0
 25 52  1  0
 27 53  1  0
 27 54  1  0
 27 55  1  0
 28 56  1  0
 28 57  1  0
 29 58  1  0
M  END
>  <UniqueID>  (29) 
29

>  <SMILES>  (29) 
COc1ccc([C@@]23C[C@@H]2CN(CCCSc2nnc(-c4ccccc4)n2C)C3)cc1Br

>  <Energy>  (29) 
376.78266789689695

>  <Genealogy>  (29) 
COc1ccc([C@@]23C[C@@H]2CN(CCCSc2nnc(-c4ccccc4)n2C)C3)cc1Br (chirality)
COc1ccc([C@@]23C[C@@H]2CN(CCCSc2nnc(-c4ccccc4)n2C)C3)cc1Br (3D coordinates assigned)
COc1ccc([C@@]23C[C@@H]2CN(CCCSc2nnc(-c4ccccc4)n2C)C3)cc1Br (nonaromatic ring conformer: 376.78266789689695 kcal/mol)

>  <smiles>  (29) 
COc1ccc(C23CC2CN(CCCSc2nnc(-c4ccccc4)n2C)C3)cc1Br

>  <score_type>  (29) 
oracle

>  <origin>  (29) 
adg

>  <m_score__min__energy>  (29) 
-9.9299999999999997

>  <m_primary>  (29) 
energy

$$$$
