0:0
     RDKit          3D

 39 41  0  0  0  0  0  0  0  0999 V2000
   56.0400   30.5560   44.6310 O   0  0  0  0  0  0  0  0  0  0  0  0
   57.1430   30.7900   44.0680 C   0  0  0  0  0  0  0  0  0  0  0  0
   57.4460   32.1770   43.5890 C   0  0  0  0  0  0  0  0  0  0  0  0
   58.0110   32.9960   44.7170 C   0  0  0  0  0  0  0  0  0  0  0  0
   59.1110   33.8420   44.4950 C   0  0  0  0  0  0  0  0  0  0  0  0
   59.6120   34.6320   45.5340 C   0  0  0  0  0  0  0  0  0  0  0  0
   59.0150   34.5900   46.7970 C   0  0  0  0  0  0  0  0  0  0  0  0
   57.9110   33.7620   47.0220 C   0  0  0  0  0  0  0  0  0  0  0  0
   57.4070   32.9700   45.9850 C   0  0  0  0  0  0  0  0  0  0  0  0
   58.1080   29.7420   43.8840 N   0  0  0  0  0  0  0  0  0  0  0  0
   58.0340   28.4610   44.5340 C   0  0  0  0  0  0  0  0  0  0  0  0
   58.0150   27.2680   43.7920 C   0  0  0  0  0  0  0  0  0  0  0  0
   57.9100   26.0390   44.4440 C   0  0  0  0  0  0  0  0  0  0  0  0
   57.8070   26.0090   45.8340 C   0  0  0  0  0  0  0  0  0  0  0  0
   57.8060   27.1710   46.5400 N   0  0  0  0  0  0  0  0  0  0  0  0
   57.9190   28.3860   45.9330 C   0  0  0  0  0  0  0  0  0  0  0  0
   57.8960   29.5650   46.6910 O   0  0  0  0  0  0  0  0  0  0  0  0
   59.0300   30.1960   47.2180 C   0  0  0  0  0  0  0  0  0  0  0  0
   58.9120   30.8830   48.4330 C   0  0  0  0  0  0  0  0  0  0  0  0
   60.0180   31.5300   48.9920 C   0  0  0  0  0  0  0  0  0  0  0  0
   59.8960   32.1810   50.1750 F   0  0  0  0  0  0  0  0  0  0  0  0
   61.2490   31.5070   48.3310 C   0  0  0  0  0  0  0  0  0  0  0  0
   61.3710   30.8460   47.1050 C   0  0  0  0  0  0  0  0  0  0  0  0
   60.2660   30.1970   46.5420 C   0  0  0  0  0  0  0  0  0  0  0  0
   60.3930   29.6220   45.3200 F   0  0  0  0  0  0  0  0  0  0  0  0
   58.1795   32.1282   42.7707 H   0  0  0  0  0  0  0  0  0  0  0  0
   56.5186   32.6467   43.2295 H   0  0  0  0  0  0  0  0  0  0  0  0
   59.5793   33.8828   43.5005 H   0  0  0  0  0  0  0  0  0  0  0  0
   60.4774   35.2876   45.3572 H   0  0  0  0  0  0  0  0  0  0  0  0
   59.4139   35.2086   47.6144 H   0  0  0  0  0  0  0  0  0  0  0  0
   57.4386   33.7334   48.0150 H   0  0  0  0  0  0  0  0  0  0  0  0
   56.5344   32.3244   46.1631 H   0  0  0  0  0  0  0  0  0  0  0  0
   58.8770   29.9050   43.1960 H   0  0  0  0  0  0  0  0  0  0  0  0
   58.0831   27.3031   42.6947 H   0  0  0  0  0  0  0  0  0  0  0  0
   57.9085   25.1026   43.8668 H   0  0  0  0  0  0  0  0  0  0  0  0
   57.7266   25.0458   46.3592 H   0  0  0  0  0  0  0  0  0  0  0  0
   57.9421   30.9136   48.9510 H   0  0  0  0  0  0  0  0  0  0  0  0
   62.1215   32.0086   48.7750 H   0  0  0  0  0  0  0  0  0  0  0  0
   62.3383   30.8360   46.5813 H   0  0  0  0  0  0  0  0  0  0  0  0
  1  2  2  0
  2  3  1  0
  3  4  1  0
  4  5  2  0
  5  6  1  0
  6  7  2  0
  7  8  1  0
  8  9  2  0
  2 10  1  0
 10 11  1  0
 11 12  2  0
 12 13  1  0
 13 14  2  0
 14 15  1  0
 15 16  2  0
 16 17  1  0
 17 18  1  0
 18 19  2  0
 19 20  1  0
 20 21  1  0
 20 22  2  0
 22 23  1  0
 23 24  2  0
 24 25  1  0
  9  4  1  0
 16 11  1  0
 24 18  1  0
  3 26  1  0
  3 27  1  0
  5 28  1  0
  6 29  1  0
  7 30  1  0
  8 31  1  0
  9 32  1  0
 10 33  1  0
 12 34  1  0
 13 35  1  0
 14 36  1  0
 19 37  1  0
 22 38  1  0
 23 39  1  0
M  END
>  <UniqueID>  (1) 
1

>  <SMILES>  (1) 
O=C(Cc1ccccc1)Nc1cccnc1Oc1cc(F)ccc1F

>  <Energy>  (1) 
50.06843081640507

>  <Genealogy>  (1) 
O=C(Cc1ccccc1)Nc1cccnc1Oc1cc(F)ccc1F (3D coordinates assigned)
O=C(Cc1ccccc1)Nc1cccnc1Oc1cc(F)ccc1F (optimized conformer: 50.06843081640507 kcal/mol)

>  <smiles>  (1) 
O=C(Cc1ccccc1)Nc1cccnc1Oc1cc(F)ccc1F

>  <score_type>  (1) 
oracle

>  <origin>  (1) 
adg

>  <m_score__min__energy>  (1) 
-7.5199999999999996

>  <m_primary>  (1) 
energy

$$$$
1:0
     RDKit          3D

 34 35  0  0  0  0  0  0  0  0999 V2000
   59.9770   34.5890   48.4970 C   0  0  0  0  0  0  0  0  0  0  0  0
   59.2720   33.8800   47.3790 C   0  0  0  0  0  0  0  0  0  0  0  0
   59.0210   32.5030   47.4620 C   0  0  0  0  0  0  0  0  0  0  0  0
   58.4050   31.8340   46.3990 C   0  0  0  0  0  0  0  0  0  0  0  0
   58.0470   32.5290   45.2350 C   0  0  0  0  0  0  0  0  0  0  0  0
   57.4230   31.7950   44.0760 C   0  0  0  0  0  0  0  0  0  0  0  0
   56.2680   31.0140   44.5160 N   0  0  0  0  0  0  0  0  0  0  0  0
   56.2370   29.5890   44.6790 C   0  0  0  0  0  0  0  0  0  0  0  0
   55.1490   28.9800   44.5040 O   0  0  0  0  0  0  0  0  0  0  0  0
   57.4270   28.8230   45.0920 C   0  0  0  0  0  0  0  0  0  0  0  0
   57.3810   28.0150   46.2340 C   0  0  0  0  0  0  0  0  0  0  0  0
   58.5200   27.3210   46.6410 C   0  0  0  0  0  0  0  0  0  0  0  0
   59.7040   27.4400   45.9010 C   0  0  0  0  0  0  0  0  0  0  0  0
   60.9270   26.6770   46.3130 C   0  0  0  0  0  0  0  0  0  0  0  0
   59.7170   28.1990   44.7670 N   0  0  0  0  0  0  0  0  0  0  0  0
   58.6170   28.8860   44.3540 C   0  0  0  0  0  0  0  0  0  0  0  0
   58.3020   33.9090   45.1530 C   0  0  0  0  0  0  0  0  0  0  0  0
   58.9210   34.5770   46.2120 C   0  0  0  0  0  0  0  0  0  0  0  0
   59.6043   34.2142   49.4617 H   0  0  0  0  0  0  0  0  0  0  0  0
   61.0588   34.4031   48.4246 H   0  0  0  0  0  0  0  0  0  0  0  0
   59.7850   35.6697   48.4246 H   0  0  0  0  0  0  0  0  0  0  0  0
   59.3095   31.9468   48.3661 H   0  0  0  0  0  0  0  0  0  0  0  0
   58.2002   30.7560   46.4768 H   0  0  0  0  0  0  0  0  0  0  0  0
   57.0977   32.5250   43.3201 H   0  0  0  0  0  0  0  0  0  0  0  0
   58.1702   31.1092   43.6501 H   0  0  0  0  0  0  0  0  0  0  0  0
   56.4477   27.9276   46.8096 H   0  0  0  0  0  0  0  0  0  0  0  0
   58.4892   26.6841   47.5373 H   0  0  0  0  0  0  0  0  0  0  0  0
   60.9843   26.6412   47.4109 H   0  0  0  0  0  0  0  0  0  0  0  0
   60.8716   25.6530   45.9152 H   0  0  0  0  0  0  0  0  0  0  0  0
   61.8224   27.1770   45.9152 H   0  0  0  0  0  0  0  0  0  0  0  0
   60.5890   28.2640   44.1940 H   0  0  0  0  0  0  0  0  0  0  0  0
   58.6620   29.4929   43.4377 H   0  0  0  0  0  0  0  0  0  0  0  0
   58.0124   34.4659   44.2497 H   0  0  0  0  0  0  0  0  0  0  0  0
   59.1343   35.6531   46.1313 H   0  0  0  0  0  0  0  0  0  0  0  0
  1  2  1  0
  2  3  2  0
  3  4  1  0
  4  5  2  0
  5  6  1  0
  6  7  1  0
  7  8  1  0
  8  9  2  0
  8 10  1  0
 10 11  2  0
 11 12  1  0
 12 13  2  0
 13 14  1  0
 13 15  1  0
 15 16  2  0
  5 17  1  0
 17 18  2  0
 18  2  1  0
 16 10  1  0
  1 19  1  0
  1 20  1  0
  1 21  1  0
  3 22  1  0
  4 23  1  0
  6 24  1  0
  6 25  1  0
 11 26  1  0
 12 27  1  0
 14 28  1  0
 14 29  1  0
 14 30  1  0
 15 31  1  0
 16 32  1  0
 17 33  1  0
 18 34  1  0
M  CHG  2   7  -1  15   1
M  END
>  <UniqueID>  (2) 
2

>  <SMILES>  (2) 
Cc1ccc(C[N-]C(=O)c2ccc(C)[nH+]c2)cc1

>  <Energy>  (2) 
34.573554338445575

>  <Genealogy>  (2) 
Cc1ccc(C[N-]C(=O)c2ccc(C)[nH+]c2)cc1 (protonated)
Cc1ccc(C[N-]C(=O)c2ccc(C)[nH+]c2)cc1 (3D coordinates assigned)
Cc1ccc(C[N-]C(=O)c2ccc(C)[nH+]c2)cc1 (optimized conformer: 34.573554338445575 kcal/mol)

>  <smiles>  (2) 
Cc1ccc(CNC(=O)c2ccc(C)nc2)cc1

>  <score_type>  (2) 
oracle

>  <origin>  (2) 
adg

>  <m_score__min__energy>  (2) 
-6.9699999999999998

>  <m_primary>  (2) 
energy

$$$$
2:0
     RDKit          3D

 25 26  0  0  0  0  0  0  0  0999 V2000
   58.1870   34.5150   44.5400 O   0  0  0  0  0  0  0  0  0  0  0  0
   58.1460   33.3990   45.5460 S   0  0  0  0  0  0  0  0  0  0  0  0
   56.8310   33.4330   46.2740 O   0  0  0  0  0  0  0  0  0  0  0  0
   58.3450   31.8700   44.7460 N   0  0  0  0  0  0  0  0  0  0  0  0
   57.5250   30.8590   44.7950 C   0  0  0  0  0  0  0  0  0  0  0  0
   57.8830   29.7440   45.5630 C   0  0  0  0  0  0  0  0  0  0  0  0
   57.0260   28.6430   45.6340 C   0  0  0  0  0  0  0  0  0  0  0  0
   55.8460   28.6540   44.9590 N   0  0  0  0  0  0  0  0  0  0  0  0
   55.4690   29.7180   44.2040 C   0  0  0  0  0  0  0  0  0  0  0  0
   56.2960   30.8400   44.1050 C   0  0  0  0  0  0  0  0  0  0  0  0
   59.4590   33.6060   46.7010 C   0  0  0  0  0  0  0  0  0  0  0  0
   60.7880   33.6550   46.2570 C   0  0  0  0  0  0  0  0  0  0  0  0
   61.8310   33.8060   47.1760 C   0  0  0  0  0  0  0  0  0  0  0  0
   61.5520   33.9030   48.5440 C   0  0  0  0  0  0  0  0  0  0  0  0
   62.8610   34.0910   49.6950 Cl  0  0  0  0  0  0  0  0  0  0  0  0
   60.2270   33.8470   48.9910 C   0  0  0  0  0  0  0  0  0  0  0  0
   59.1830   33.6960   48.0730 C   0  0  0  0  0  0  0  0  0  0  0  0
   58.8376   29.7351   46.1095 H   0  0  0  0  0  0  0  0  0  0  0  0
   57.3062   27.7664   46.2366 H   0  0  0  0  0  0  0  0  0  0  0  0
   54.5086   29.6965   43.6681 H   0  0  0  0  0  0  0  0  0  0  0  0
   55.9903   31.7017   43.4934 H   0  0  0  0  0  0  0  0  0  0  0  0
   61.0108   33.5744   45.1828 H   0  0  0  0  0  0  0  0  0  0  0  0
   62.8721   33.8486   46.8233 H   0  0  0  0  0  0  0  0  0  0  0  0
   60.0065   33.9219   50.0661 H   0  0  0  0  0  0  0  0  0  0  0  0
   58.1429   33.6477   48.4279 H   0  0  0  0  0  0  0  0  0  0  0  0
  1  2  2  0
  2  3  2  0
  2  4  1  0
  4  5  2  3
  5  6  1  0
  6  7  2  0
  7  8  1  0
  8  9  1  0
  9 10  2  0
  2 11  1  0
 11 12  2  0
 12 13  1  0
 13 14  2  0
 14 15  1  0
 14 16  1  0
 16 17  2  0
 10  5  1  0
 17 11  1  0
  6 18  1  0
  7 19  1  0
  9 20  1  0
 10 21  1  0
 12 22  1  0
 13 23  1  0
 16 24  1  0
 17 25  1  0
M  CHG  1   8  -1
M  END
>  <UniqueID>  (3) 
3

>  <SMILES>  (3) 
O=S(=O)(N=c1cc[n-]cc1)c1ccc(Cl)cc1

>  <Energy>  (3) 
32.94757877174028

>  <Genealogy>  (3) 
O=S(=O)(N=c1cc[n-]cc1)c1ccc(Cl)cc1 (protonated)
O=S(=O)(N=c1cc[n-]cc1)c1ccc(Cl)cc1 (3D coordinates assigned)
O=S(=O)(N=c1cc[n-]cc1)c1ccc(Cl)cc1 (optimized conformer: 32.94757877174028 kcal/mol)

>  <smiles>  (3) 
O=S(=O)(N=c1cc[nH]cc1)c1ccc(Cl)cc1

>  <score_type>  (3) 
oracle

>  <origin>  (3) 
adg

>  <m_score__min__energy>  (3) 
-8.6199999999999992

>  <m_primary>  (3) 
energy

$$$$
3:0
     RDKit          3D

 42 45  0  0  0  0  0  0  0  0999 V2000
   56.0390   29.4470   42.7070 O   0  0  0  0  0  0  0  0  0  0  0  0
   56.3230   29.7780   43.8890 C   0  0  0  0  0  0  0  0  0  0  0  0
   55.8660   28.9450   44.9620 N   0  0  0  0  0  0  0  0  0  0  0  0
   56.6520   27.8760   45.5670 C   0  0  0  0  0  0  0  0  0  0  0  0
   58.0320   28.3080   46.0240 C   0  0  0  0  0  0  0  0  0  0  0  0
   57.8710   27.5170   44.7360 C   0  0  0  0  0  0  0  0  0  0  0  0
   57.0860   31.0230   44.1230 C   0  0  0  0  0  0  0  0  0  0  0  0
   57.5530   31.7760   43.0340 C   0  0  0  0  0  0  0  0  0  0  0  0
   58.2670   32.9170   43.2360 N   0  0  0  0  0  0  0  0  0  0  0  0
   58.5620   33.3620   44.4910 C   0  0  0  0  0  0  0  0  0  0  0  0
   59.2960   34.5420   44.6760 C   0  0  0  0  0  0  0  0  0  0  0  0
   59.6030   34.9840   45.9650 C   0  0  0  0  0  0  0  0  0  0  0  0
   59.1850   34.2610   47.0880 C   0  0  0  0  0  0  0  0  0  0  0  0
   59.5300   34.7530   48.3590 O   0  0  0  0  0  0  0  0  0  0  0  0
   60.4530   34.1390   49.2590 C   0  0  0  0  0  0  0  0  0  0  0  0
   61.4740   33.3240   48.5100 C   0  0  0  0  0  0  0  0  0  0  0  0
   62.6880   33.9090   48.1120 C   0  0  0  0  0  0  0  0  0  0  0  0
   63.6420   33.1540   47.4220 C   0  0  0  0  0  0  0  0  0  0  0  0
   63.3950   31.8100   47.1330 C   0  0  0  0  0  0  0  0  0  0  0  0
   62.1940   31.2170   47.5360 C   0  0  0  0  0  0  0  0  0  0  0  0
   61.2390   31.9680   48.2270 C   0  0  0  0  0  0  0  0  0  0  0  0
   58.4410   33.0790   46.9080 C   0  0  0  0  0  0  0  0  0  0  0  0
   58.1310   32.6280   45.6170 C   0  0  0  0  0  0  0  0  0  0  0  0
   57.3990   31.4510   45.4210 C   0  0  0  0  0  0  0  0  0  0  0  0
   55.8229   27.3240   46.0338 H   0  0  0  0  0  0  0  0  0  0  0  0
   58.3168   29.3698   45.9854 H   0  0  0  0  0  0  0  0  0  0  0  0
   58.6208   28.1835   46.9448 H   0  0  0  0  0  0  0  0  0  0  0  0
   58.0387   28.0062   43.7651 H   0  0  0  0  0  0  0  0  0  0  0  0
   58.2943   26.5830   44.3380 H   0  0  0  0  0  0  0  0  0  0  0  0
   57.3399   31.4408   42.0082 H   0  0  0  0  0  0  0  0  0  0  0  0
   58.5890   33.4550   42.3990 H   0  0  0  0  0  0  0  0  0  0  0  0
   59.6312   35.1216   43.8033 H   0  0  0  0  0  0  0  0  0  0  0  0
   60.1799   35.9110   46.0989 H   0  0  0  0  0  0  0  0  0  0  0  0
   60.9690   34.9215   49.8347 H   0  0  0  0  0  0  0  0  0  0  0  0
   59.8955   33.4708   49.9318 H   0  0  0  0  0  0  0  0  0  0  0  0
   62.8889   34.9653   48.3441 H   0  0  0  0  0  0  0  0  0  0  0  0
   64.5876   33.6191   47.1067 H   0  0  0  0  0  0  0  0  0  0  0  0
   64.1451   31.2178   46.5884 H   0  0  0  0  0  0  0  0  0  0  0  0
   62.0009   30.1582   47.3088 H   0  0  0  0  0  0  0  0  0  0  0  0
   60.2998   31.4956   48.5505 H   0  0  0  0  0  0  0  0  0  0  0  0
   58.1015   32.5069   47.7841 H   0  0  0  0  0  0  0  0  0  0  0  0
   57.0684   30.8601   46.2879 H   0  0  0  0  0  0  0  0  0  0  0  0
  1  2  2  0
  2  3  1  0
  3  4  1  0
  4  5  1  0
  5  6  1  0
  2  7  1  0
  7  8  2  0
  8  9  1  0
  9 10  2  0
 10 11  1  0
 11 12  2  0
 12 13  1  0
 13 14  1  0
 14 15  1  0
 15 16  1  0
 16 17  2  0
 17 18  1  0
 18 19  2  0
 19 20  1  0
 20 21  2  0
 13 22  2  0
 22 23  1  0
 23 24  2  0
  6  4  1  0
 24  7  1  0
 23 10  1  0
 21 16  1  0
  4 25  1  0
  5 26  1  0
  5 27  1  0
  6 28  1  0
  6 29  1  0
  8 30  1  0
  9 31  1  0
 11 32  1  0
 12 33  1  0
 15 34  1  0
 15 35  1  0
 17 36  1  0
 18 37  1  0
 19 38  1  0
 20 39  1  0
 21 40  1  0
 22 41  1  0
 24 42  1  0
M  CHG  2   3  -1   9   1
M  END
>  <UniqueID>  (4) 
4

>  <SMILES>  (4) 
O=C([N-]C1CC1)c1c[nH+]c2ccc(OCc3ccccc3)cc2c1

>  <Energy>  (4) 
315.7878491939065

>  <Genealogy>  (4) 
O=C([N-]C1CC1)c1c[nH+]c2ccc(OCc3ccccc3)cc2c1 (protonated)
O=C([N-]C1CC1)c1c[nH+]c2ccc(OCc3ccccc3)cc2c1 (3D coordinates assigned)
O=C([N-]C1CC1)c1c[nH+]c2ccc(OCc3ccccc3)cc2c1 (nonaromatic ring conformer: 315.7878491939065 kcal/mol)

>  <smiles>  (4) 
O=C(NC1CC1)c1cnc2ccc(OCc3ccccc3)cc2c1

>  <score_type>  (4) 
oracle

>  <origin>  (4) 
adg

>  <m_score__min__energy>  (4) 
-8.5399999999999991

>  <m_primary>  (4) 
energy

$$$$
4:0
     RDKit          3D

 29 30  0  0  0  0  0  0  0  0999 V2000
   58.9807   32.4273   46.2438 H   0  0  0  0  0  0  0  0  0  0  0  0
   58.4430   31.7750   45.5400 C   0  0  0  0  0  0  0  0  0  0  0  0
   58.0940   30.4770   45.9260 C   0  0  0  0  0  0  0  0  0  0  0  0
   58.3690   30.1110   46.9262 H   0  0  0  0  0  0  0  0  0  0  0  0
   57.3940   29.6380   45.0430 C   0  0  0  0  0  0  0  0  0  0  0  0
   57.0430   28.2910   45.4050 N   0  0  0  0  0  0  0  0  0  0  0  0
   56.2140   27.8550   44.9410 H   0  0  0  0  0  0  0  0  0  0  0  0
   57.6870   27.5390   46.4440 C   0  0  0  0  0  0  0  0  0  0  0  0
   58.4680   28.1130   47.2500 O   0  0  0  0  0  0  0  0  0  0  0  0
   57.3850   26.1410   46.5740 N   0  0  0  0  0  0  0  0  0  0  0  0
   56.2600   25.5420   46.3130 C   0  0  0  0  0  0  0  0  0  0  0  0
   55.1440   26.2270   45.9880 N   0  0  0  0  0  0  0  0  0  0  0  0
   54.0940   25.4410   45.7490 N   0  0  0  0  0  0  0  0  0  0  0  0
   54.3650   24.1260   45.8960 C   0  0  0  0  0  0  0  0  0  0  0  0
   53.3780   23.0450   45.6190 C   0  0  0  0  0  0  0  0  0  0  0  0
   53.0051   22.6365   46.5698 H   0  0  0  0  0  0  0  0  0  0  0  0
   52.5368   23.4557   45.0413 H   0  0  0  0  0  0  0  0  0  0  0  0
   53.8634   22.2446   45.0413 H   0  0  0  0  0  0  0  0  0  0  0  0
   55.9780   23.8730   46.3130 S   0  0  0  0  0  0  0  0  0  0  0  0
   57.0840   30.1070   43.7580 C   0  0  0  0  0  0  0  0  0  0  0  0
   56.5625   29.4482   43.0481 H   0  0  0  0  0  0  0  0  0  0  0  0
   57.4320   31.4040   43.3720 C   0  0  0  0  0  0  0  0  0  0  0  0
   57.1721   31.7646   42.3658 H   0  0  0  0  0  0  0  0  0  0  0  0
   58.1140   32.2510   44.2660 C   0  0  0  0  0  0  0  0  0  0  0  0
   58.4850   33.5620   43.9280 O   0  0  0  0  0  0  0  0  0  0  0  0
   58.8910   34.5500   44.8690 C   0  0  0  0  0  0  0  0  0  0  0  0
   58.7350   34.1704   45.8896 H   0  0  0  0  0  0  0  0  0  0  0  0
   59.9566   34.7802   44.7223 H   0  0  0  0  0  0  0  0  0  0  0  0
   58.2951   35.4629   44.7223 H   0  0  0  0  0  0  0  0  0  0  0  0
  1  2  1  0
  2  3  2  0
  3  4  1  0
  3  5  1  0
  5  6  1  0
  6  7  1  0
  6  8  1  0
  8  9  2  0
  8 10  1  0
 10 11  2  0
 11 12  1  0
 12 13  1  0
 13 14  2  0
 14 15  1  0
 15 16  1  0
 15 17  1  0
 15 18  1  0
 14 19  1  0
  5 20  2  0
 20 21  1  0
 20 22  1  0
 22 23  1  0
 22 24  2  0
 24 25  1  0
 25 26  1  0
 26 27  1  0
 26 28  1  0
 26 29  1  0
 24  2  1  0
 19 11  1  0
M  CHG  1  12  -1
M  END
>  <UniqueID>  (5) 
5

>  <SMILES>  (5) 
COc1ccc(NC(=O)/N=c2/[n-]nc(C)s2)cc1

>  <Energy>  (5) 
67.80344689135056

>  <Genealogy>  (5) 
COc1ccc(NC(=O)N=c2[n-]nc(C)s2)cc1 (protonated)
COc1ccc(NC(=O)/N=c2/[n-]nc(C)s2)cc1 (cis-trans isomerization)
COc1ccc(NC(=O)/N=c2/[n-]nc(C)s2)cc1 (3D coordinates assigned)
COc1ccc(NC(=O)/N=c2/[n-]nc(C)s2)cc1 (optimized conformer: 67.80344689135056 kcal/mol)

>  <smiles>  (5) 
COc1ccc(NC(=O)N=c2[nH]nc(C)s2)cc1

>  <score_type>  (5) 
oracle

>  <origin>  (5) 
adg

>  <m_score__min__energy>  (5) 
-8.4199999999999999

>  <m_primary>  (5) 
energy

$$$$
5:0
     RDKit          3D

 70 72  0  0  0  0  0  0  0  0999 V2000
   53.5390   24.4840   45.4500 C   0  0  0  0  0  0  0  0  0  0  0  0
   54.4710   25.5030   45.7980 O   0  0  0  0  0  0  0  0  0  0  0  0
   55.8640   25.3370   45.8040 C   0  0  0  0  0  0  0  0  0  0  0  0
   56.4850   24.1490   45.3810 C   0  0  0  0  0  0  0  0  0  0  0  0
   57.8840   24.0230   45.4210 C   0  0  0  0  0  0  0  0  0  0  0  0
   58.5470   22.7440   44.9920 C   0  0  0  0  0  0  0  0  0  0  0  0
   58.6640   25.1010   45.8700 C   0  0  0  0  0  0  0  0  0  0  0  0
   60.0160   24.9700   45.9250 F   0  0  0  0  0  0  0  0  0  0  0  0
   58.0540   26.2990   46.2780 C   0  0  0  0  0  0  0  0  0  0  0  0
   59.0380   27.6440   46.8760 S   0  0  0  0  0  0  0  0  0  0  0  0
   58.5700   27.9990   48.2570 O   0  0  0  0  0  0  0  0  0  0  0  0
   60.4800   27.2230   46.9460 O   0  0  0  0  0  0  0  0  0  0  0  0
   58.9200   29.0580   45.8690 N   0  0  0  0  0  0  0  0  0  0  0  0
   57.5230   29.3090   45.4960 C   0  0  0  0  0  0  0  0  0  0  0  0
   57.4570   30.1170   44.1920 C   0  0  0  0  0  0  0  0  0  0  0  0
   58.3620   31.3620   44.2220 C   0  0  0  0  0  0  0  0  0  0  0  0
   57.6920   32.4970   44.9030 N   0  0  0  0  0  0  0  0  0  0  0  0
   58.1730   33.8070   44.3990 C   0  0  0  0  0  0  0  0  0  0  0  0
   59.3210   34.3530   45.2570 C   0  0  0  0  0  0  0  0  0  0  0  0
   58.8930   34.6080   46.6550 N   0  0  0  0  0  0  0  0  0  0  0  0
   60.0540   34.5260   47.5700 C   0  0  0  0  0  0  0  0  0  0  0  0
   59.5990   34.3840   49.0350 C   0  0  0  0  0  0  0  0  0  0  0  0
   59.9810   33.0130   49.6070 C   0  0  0  0  0  0  0  0  0  0  0  0
   59.4620   31.9480   48.7520 N   0  0  0  0  0  0  0  0  0  0  0  0
   60.7520   31.2420   47.8240 S   0  0  0  0  0  0  0  0  0  0  0  0
   60.7620   29.7540   48.0460 O   0  0  0  0  0  0  0  0  0  0  0  0
   60.5170   31.5140   46.3660 O   0  0  0  0  0  0  0  0  0  0  0  0
   62.3040   31.9370   48.2900 C   0  0  0  0  0  0  0  0  0  0  0  0
   62.9230   31.5290   49.4800 C   0  0  0  0  0  0  0  0  0  0  0  0
   64.1350   32.1030   49.8720 C   0  0  0  0  0  0  0  0  0  0  0  0
   64.7290   33.0900   49.0820 C   0  0  0  0  0  0  0  0  0  0  0  0
   64.1150   33.5020   47.8960 C   0  0  0  0  0  0  0  0  0  0  0  0
   62.9060   32.9270   47.4990 C   0  0  0  0  0  0  0  0  0  0  0  0
   57.7720   33.7340   47.0900 C   0  0  0  0  0  0  0  0  0  0  0  0
   57.7870   32.3690   46.3820 C   0  0  0  0  0  0  0  0  0  0  0  0
   56.6530   26.4010   46.2560 C   0  0  0  0  0  0  0  0  0  0  0  0
   53.1280   24.0346   46.3661 H   0  0  0  0  0  0  0  0  0  0  0  0
   52.7218   24.9213   44.8576 H   0  0  0  0  0  0  0  0  0  0  0  0
   54.0473   23.7090   44.8576 H   0  0  0  0  0  0  0  0  0  0  0  0
   55.8715   23.3121   45.0161 H   0  0  0  0  0  0  0  0  0  0  0  0
   58.8449   22.1692   45.8813 H   0  0  0  0  0  0  0  0  0  0  0  0
   57.8432   22.1501   44.3904 H   0  0  0  0  0  0  0  0  0  0  0  0
   59.4380   22.9767   44.3904 H   0  0  0  0  0  0  0  0  0  0  0  0
   59.2860   29.8730   46.4110 H   0  0  0  0  0  0  0  0  0  0  0  0
   57.0070   28.3480   45.3540 H   0  0  0  0  0  0  0  0  0  0  0  0
   57.0359   29.8831   46.2980 H   0  0  0  0  0  0  0  0  0  0  0  0
   57.7741   29.4706   43.3603 H   0  0  0  0  0  0  0  0  0  0  0  0
   56.4200   30.4612   44.0649 H   0  0  0  0  0  0  0  0  0  0  0  0
   59.2898   31.1180   44.7601 H   0  0  0  0  0  0  0  0  0  0  0  0
   58.5807   31.6582   43.1855 H   0  0  0  0  0  0  0  0  0  0  0  0
   58.5271   33.6838   43.3649 H   0  0  0  0  0  0  0  0  0  0  0  0
   57.3381   34.5217   44.4449 H   0  0  0  0  0  0  0  0  0  0  0  0
   60.1402   33.6190   45.2640 H   0  0  0  0  0  0  0  0  0  0  0  0
   59.6487   35.3081   44.8208 H   0  0  0  0  0  0  0  0  0  0  0  0
   60.6647   33.6526   47.2976 H   0  0  0  0  0  0  0  0  0  0  0  0
   60.6389   35.4527   47.4749 H   0  0  0  0  0  0  0  0  0  0  0  0
   60.0789   35.1697   49.6370 H   0  0  0  0  0  0  0  0  0  0  0  0
   58.5039   34.4816   49.0694 H   0  0  0  0  0  0  0  0  0  0  0  0
   61.0768   32.9342   49.6611 H   0  0  0  0  0  0  0  0  0  0  0  0
   59.5474   32.9098   50.6126 H   0  0  0  0  0  0  0  0  0  0  0  0
   62.4537   30.7558   50.1060 H   0  0  0  0  0  0  0  0  0  0  0  0
   64.6217   31.7775   50.8032 H   0  0  0  0  0  0  0  0  0  0  0  0
   65.6814   33.5436   49.3938 H   0  0  0  0  0  0  0  0  0  0  0  0
   64.5842   34.2794   47.2751 H   0  0  0  0  0  0  0  0  0  0  0  0
   62.4248   33.2509   46.5644 H   0  0  0  0  0  0  0  0  0  0  0  0
   57.8514   33.5706   48.1749 H   0  0  0  0  0  0  0  0  0  0  0  0
   56.8306   34.2388   46.8274 H   0  0  0  0  0  0  0  0  0  0  0  0
   58.7247   31.8513   46.6324 H   0  0  0  0  0  0  0  0  0  0  0  0
   56.9096   31.8023   46.7269 H   0  0  0  0  0  0  0  0  0  0  0  0
   56.1703   27.3283   46.5982 H   0  0  0  0  0  0  0  0  0  0  0  0
  1  2  1  0
  2  3  1  0
  3  4  2  0
  4  5  1  0
  5  6  1  0
  5  7  2  0
  7  8  1  0
  7  9  1  0
  9 10  1  0
 10 11  2  0
 10 12  2  0
 10 13  1  0
 13 14  1  0
 14 15  1  0
 15 16  1  0
 16 17  1  0
 17 18  1  0
 18 19  1  0
 19 20  1  0
 20 21  1  0
 21 22  1  0
 22 23  1  0
 23 24  1  0
 24 25  1  0
 25 26  2  0
 25 27  2  0
 25 28  1  0
 28 29  2  0
 29 30  1  0
 30 31  2  0
 31 32  1  0
 32 33  2  0
 20 34  1  0
 34 35  1  0
  9 36  2  0
 36  3  1  0
 35 17  1  0
 33 28  1  0
  1 37  1  0
  1 38  1  0
  1 39  1  0
  4 40  1  0
  6 41  1  0
  6 42  1  0
  6 43  1  0
 13 44  1  0
 14 45  1  0
 14 46  1  0
 15 47  1  0
 15 48  1  0
 16 49  1  0
 16 50  1  0
 18 51  1  0
 18 52  1  0
 19 53  1  0
 19 54  1  0
 21 55  1  0
 21 56  1  0
 22 57  1  0
 22 58  1  0
 23 59  1  0
 23 60  1  0
 29 61  1  0
 30 62  1  0
 31 63  1  0
 32 64  1  0
 33 65  1  0
 34 66  1  0
 34 67  1  0
 35 68  1  0
 35 69  1  0
 36 70  1  0
M  CHG  1  24  -1
M  END
>  <UniqueID>  (6) 
6

>  <SMILES>  (6) 
COc1cc(C)c(F)c(S(=O)(=O)NCCCN2CCN(CCC[N-]S(=O)(=O)c3ccccc3)CC2)c1

>  <Energy>  (6) 
75.60137093043676

>  <Genealogy>  (6) 
COc1cc(C)c(F)c(S(=O)(=O)NCCCN2CCN(CCC[N-]S(=O)(=O)c3ccccc3)CC2)c1 (protonated)
COc1cc(C)c(F)c(S(=O)(=O)NCCCN2CCN(CCC[N-]S(=O)(=O)c3ccccc3)CC2)c1 (3D coordinates assigned)
COc1cc(C)c(F)c(S(=O)(=O)NCCCN2CCN(CCC[N-]S(=O)(=O)c3ccccc3)CC2)c1 (nonaromatic ring conformer: 75.60137093043676 kcal/mol)

>  <smiles>  (6) 
COc1cc(C)c(F)c(S(=O)(=O)NCCCN2CCN(CCCNS(=O)(=O)c3ccccc3)CC2)c1

>  <score_type>  (6) 
oracle

>  <origin>  (6) 
adg

>  <m_score__min__energy>  (6) 
-10.92

>  <m_primary>  (6) 
energy

$$$$
6:0
     RDKit          3D

 27 30  0  0  0  0  0  0  0  0999 V2000
   58.1440   27.4840   43.7620 Cl  0  0  0  0  0  0  0  0  0  0  0  0
   58.0150   29.0140   44.6110 C   0  0  0  0  0  0  0  0  0  0  0  0
   58.8830   29.2750   45.6360 N   0  0  0  0  0  0  0  0  0  0  0  0
   58.7560   30.4410   46.3120 C   0  0  0  0  0  0  0  0  0  0  0  0
   59.6840   30.9970   47.1300 N   0  0  0  0  0  0  0  0  0  0  0  0
   59.2370   32.2760   47.2430 C   0  0  0  0  0  0  0  0  0  0  0  0
   59.9890   33.3880   47.3390 N   0  0  0  0  0  0  0  0  0  0  0  0
   61.3250   33.5280   47.8580 C   0  0  0  0  0  0  0  0  0  0  0  0
   61.5450   34.0690   49.1390 C   0  0  0  0  0  0  0  0  0  0  0  0
   62.8450   34.1950   49.6390 C   0  0  0  0  0  0  0  0  0  0  0  0
   63.9340   33.7800   48.8700 C   0  0  0  0  0  0  0  0  0  0  0  0
   63.7270   33.2360   47.6000 C   0  0  0  0  0  0  0  0  0  0  0  0
   62.4290   33.1080   47.0960 C   0  0  0  0  0  0  0  0  0  0  0  0
   59.2490   34.3010   46.6450 C   0  0  0  0  0  0  0  0  0  0  0  0
   58.1260   33.7540   46.1090 N   0  0  0  0  0  0  0  0  0  0  0  0
   58.1220   32.5160   46.5660 N   0  0  0  0  0  0  0  0  0  0  0  0
   57.8200   31.3720   45.9490 C   0  0  0  0  0  0  0  0  0  0  0  0
   57.0180   31.2000   44.8730 N   0  0  0  0  0  0  0  0  0  0  0  0
   57.0680   30.0020   44.2150 C   0  0  0  0  0  0  0  0  0  0  0  0
   55.9920   29.7370   42.8540 Cl  0  0  0  0  0  0  0  0  0  0  0  0
   60.6280   30.6180   47.3590 H   0  0  0  0  0  0  0  0  0  0  0  0
   60.6899   34.3943   49.7498 H   0  0  0  0  0  0  0  0  0  0  0  0
   63.0098   34.6216   50.6394 H   0  0  0  0  0  0  0  0  0  0  0  0
   64.9558   33.8815   49.2645 H   0  0  0  0  0  0  0  0  0  0  0  0
   64.5859   32.9081   46.9960 H   0  0  0  0  0  0  0  0  0  0  0  0
   62.2708   32.6759   46.0969 H   0  0  0  0  0  0  0  0  0  0  0  0
   59.5294   35.3587   46.5323 H   0  0  0  0  0  0  0  0  0  0  0  0
  1  2  1  0
  2  3  2  0
  3  4  1  0
  4  5  1  0
  5  6  2  0
  6  7  1  0
  7  8  1  0
  8  9  2  0
  9 10  1  0
 10 11  2  0
 11 12  1  0
 12 13  2  0
  7 14  1  0
 14 15  2  0
 15 16  1  0
 16 17  1  0
 17 18  1  0
 18 19  2  0
 19 20  1  0
 19  2  1  0
 17  4  2  0
 16  6  1  0
 13  8  1  0
  5 21  1  0
  9 22  1  0
 10 23  1  0
 11 24  1  0
 12 25  1  0
 13 26  1  0
 14 27  1  0
M  CHG  1   5   1
M  END
>  <UniqueID>  (7) 
7

>  <SMILES>  (7) 
Clc1nc2[nH+]c3n(-c4ccccc4)cnn3c2nc1Cl

>  <Energy>  (7) 
146.9562866372505

>  <Genealogy>  (7) 
Clc1nc2[nH+]c3n(-c4ccccc4)cnn3c2nc1Cl (protonated)
Clc1nc2[nH+]c3n(-c4ccccc4)cnn3c2nc1Cl (3D coordinates assigned)
Clc1nc2[nH+]c3n(-c4ccccc4)cnn3c2nc1Cl (optimized conformer: 146.9562866372505 kcal/mol)

>  <smiles>  (7) 
Clc1nc2nc3n(-c4ccccc4)cnn3c2nc1Cl

>  <score_type>  (7) 
oracle

>  <origin>  (7) 
adg

>  <m_score__min__energy>  (7) 
-6.1399999999999997

>  <m_primary>  (7) 
energy

$$$$
7:0
     RDKit          3D

 32 34  0  0  0  0  0  0  0  0999 V2000
   57.9127   34.2544   43.7512 H   0  0  0  0  0  0  0  0  0  0  0  0
   58.0810   33.3080   44.2860 C   0  0  0  0  0  0  0  0  0  0  0  0
   57.9260   32.1830   43.6530 N   0  0  0  0  0  0  0  0  0  0  0  0
   57.6140   30.9060   44.2370 C   0  0  0  0  0  0  0  0  0  0  0  0
   58.5950   30.0540   44.7800 C   0  0  0  0  0  0  0  0  0  0  0  0
   59.6508   30.3625   44.7754 H   0  0  0  0  0  0  0  0  0  0  0  0
   58.2340   28.8180   45.3250 C   0  0  0  0  0  0  0  0  0  0  0  0
   59.0077   28.1645   45.7543 H   0  0  0  0  0  0  0  0  0  0  0  0
   56.8900   28.4030   45.3290 C   0  0  0  0  0  0  0  0  0  0  0  0
   56.5030   27.0970   45.9040 C   0  0  0  0  0  0  0  0  0  0  0  0
   57.3810   26.3040   46.3400 O   0  0  0  0  0  0  0  0  0  0  0  0
   55.1660   26.7240   45.9710 O   0  0  0  0  0  0  0  0  0  0  0  0
   55.9170   29.2500   44.7720 C   0  0  0  0  0  0  0  0  0  0  0  0
   54.8620   28.9386   44.7644 H   0  0  0  0  0  0  0  0  0  0  0  0
   56.2790   30.4840   44.2280 C   0  0  0  0  0  0  0  0  0  0  0  0
   55.5068   31.1318   43.7875 H   0  0  0  0  0  0  0  0  0  0  0  0
   58.4800   33.3420   45.7140 C   0  0  0  0  0  0  0  0  0  0  0  0
   57.5080   33.0700   46.6890 C   0  0  0  0  0  0  0  0  0  0  0  0
   56.4787   32.8390   46.3774 H   0  0  0  0  0  0  0  0  0  0  0  0
   57.8110   33.0870   47.9820 O   0  0  0  0  0  0  0  0  0  0  0  0
   59.0310   33.3580   48.4300 C   0  0  0  0  0  0  0  0  0  0  0  0
   59.2770   33.3580   49.8070 C   0  0  0  0  0  0  0  0  0  0  0  0
   58.4610   33.1349   50.5101 H   0  0  0  0  0  0  0  0  0  0  0  0
   60.5580   33.6410   50.2920 C   0  0  0  0  0  0  0  0  0  0  0  0
   60.7477   33.6400   51.3755 H   0  0  0  0  0  0  0  0  0  0  0  0
   61.5970   33.9250   49.4020 C   0  0  0  0  0  0  0  0  0  0  0  0
   62.6029   34.1479   49.7873 H   0  0  0  0  0  0  0  0  0  0  0  0
   61.3630   33.9270   48.0230 C   0  0  0  0  0  0  0  0  0  0  0  0
   62.1849   34.1508   47.3270 H   0  0  0  0  0  0  0  0  0  0  0  0
   60.0770   33.6430   47.5240 C   0  0  0  0  0  0  0  0  0  0  0  0
   59.7920   33.6340   46.1470 C   0  0  0  0  0  0  0  0  0  0  0  0
   60.7050   33.8840   45.3130 O   0  0  0  0  0  0  0  0  0  0  0  0
  1  2  1  0
  2  3  2  0
  3  4  1  0
  4  5  2  0
  5  6  1  0
  5  7  1  0
  7  8  1  0
  7  9  2  0
  9 10  1  0
 10 11  2  0
 10 12  1  0
  9 13  1  0
 13 14  1  0
 13 15  2  0
 15 16  1  0
  2 17  1  0
 17 18  2  0
 18 19  1  0
 18 20  1  0
 20 21  1  0
 21 22  2  0
 22 23  1  0
 22 24  1  0
 24 25  1  0
 24 26  2  0
 26 27  1  0
 26 28  1  0
 28 29  1  0
 28 30  2  0
 30 31  1  0
 31 32  2  0
 15  4  1  0
 31 17  1  0
 30 21  1  0
M  CHG  1  12  -1
M  END
>  <UniqueID>  (8) 
8

>  <SMILES>  (8) 
O=C([O-])c1ccc(/N=C/c2coc3ccccc3c2=O)cc1

>  <Energy>  (8) 
45.66208327536728

>  <Genealogy>  (8) 
O=C([O-])c1ccc(N=Cc2coc3ccccc3c2=O)cc1 (protonated)
O=C([O-])c1ccc(/N=C/c2coc3ccccc3c2=O)cc1 (cis-trans isomerization)
O=C([O-])c1ccc(/N=C/c2coc3ccccc3c2=O)cc1 (3D coordinates assigned)
O=C([O-])c1ccc(/N=C/c2coc3ccccc3c2=O)cc1 (optimized conformer: 45.66208327536728 kcal/mol)

>  <smiles>  (8) 
O=C(O)c1ccc(N=Cc2coc3ccccc3c2=O)cc1

>  <score_type>  (8) 
oracle

>  <origin>  (8) 
adg

>  <m_score__min__energy>  (8) 
-10.460000000000001

>  <m_primary>  (8) 
energy

$$$$
8:0
     RDKit          3D

 26 27  0  0  0  0  0  0  0  0999 V2000
   55.5110   30.0580   44.3410 C   0  0  0  0  0  0  0  0  0  0  0  0
   55.8670   28.7540   44.8810 N   0  0  0  0  0  0  0  0  0  0  0  0
   57.1860   28.4880   45.3600 C   0  0  0  0  0  0  0  0  0  0  0  0
   58.4320   29.0440   45.1340 C   0  0  0  0  0  0  0  0  0  0  0  0
   58.9360   30.0930   44.3020 N   0  0  0  0  0  0  0  0  0  0  0  0
   58.5210   31.3620   44.8410 C   0  0  0  0  0  0  0  0  0  0  0  0
   58.5360   31.5850   46.2300 C   0  0  0  0  0  0  0  0  0  0  0  0
   58.1000   32.8070   46.7540 C   0  0  0  0  0  0  0  0  0  0  0  0
   57.6400   33.8110   45.8980 C   0  0  0  0  0  0  0  0  0  0  0  0
   57.6110   33.5960   44.5180 C   0  0  0  0  0  0  0  0  0  0  0  0
   58.0450   32.3760   43.9900 C   0  0  0  0  0  0  0  0  0  0  0  0
   58.9980   28.1200   45.9920 C   0  0  0  0  0  0  0  0  0  0  0  0
   60.1670   27.8760   46.3900 O   0  0  0  0  0  0  0  0  0  0  0  0
   57.7530   27.5760   46.2320 C   0  0  0  0  0  0  0  0  0  0  0  0
   57.3160   26.6330   46.9430 O   0  0  0  0  0  0  0  0  0  0  0  0
   55.3200   30.7576   45.1681 H   0  0  0  0  0  0  0  0  0  0  0  0
   56.3384   30.4374   43.7234 H   0  0  0  0  0  0  0  0  0  0  0  0
   54.6056   29.9644   43.7234 H   0  0  0  0  0  0  0  0  0  0  0  0
   55.1480   27.9980   44.9220 H   0  0  0  0  0  0  0  0  0  0  0  0
   59.9800   30.0320   44.2680 H   0  0  0  0  0  0  0  0  0  0  0  0
   58.5670   29.9700   43.3310 H   0  0  0  0  0  0  0  0  0  0  0  0
   58.8922   30.7949   46.9074 H   0  0  0  0  0  0  0  0  0  0  0  0
   58.1194   32.9774   47.8406 H   0  0  0  0  0  0  0  0  0  0  0  0
   57.3002   34.7721   46.3114 H   0  0  0  0  0  0  0  0  0  0  0  0
   57.2465   34.3870   43.8461 H   0  0  0  0  0  0  0  0  0  0  0  0
   58.0140   32.2083   42.9033 H   0  0  0  0  0  0  0  0  0  0  0  0
  1  2  1  0
  2  3  1  0
  3  4  2  0
  4  5  1  0
  5  6  1  0
  6  7  2  0
  7  8  1  0
  8  9  2  0
  9 10  1  0
 10 11  2  0
  4 12  1  0
 12 13  2  0
 12 14  1  0
 14 15  2  0
 14  3  1  0
 11  6  1  0
  1 16  1  0
  1 17  1  0
  1 18  1  0
  2 19  1  0
  5 20  1  0
  5 21  1  0
  7 22  1  0
  8 23  1  0
  9 24  1  0
 10 25  1  0
 11 26  1  0
M  CHG  1   5   1
M  END
>  <UniqueID>  (9) 
9

>  <SMILES>  (9) 
CNc1c([NH2+]c2ccccc2)c(=O)c1=O

>  <Energy>  (9) 
13.918794911717422

>  <Genealogy>  (9) 
CNc1c([NH2+]c2ccccc2)c(=O)c1=O (protonated)
CNc1c([NH2+]c2ccccc2)c(=O)c1=O (3D coordinates assigned)
CNc1c([NH2+]c2ccccc2)c(=O)c1=O (optimized conformer: 13.918794911717422 kcal/mol)

>  <smiles>  (9) 
CNc1c(Nc2ccccc2)c(=O)c1=O

>  <score_type>  (9) 
oracle

>  <origin>  (9) 
adg

>  <m_score__min__energy>  (9) 
-4.7000000000000002

>  <m_primary>  (9) 
energy

$$$$
9:0
     RDKit          3D

 49 53  0  0  0  0  0  0  0  0999 V2000
   57.8571   26.3153   43.7339 H   0  0  0  0  0  0  0  0  0  0  0  0
   57.5760   26.8520   44.6520 C   0  0  0  0  0  0  0  0  0  0  0  0
   57.2330   26.1190   45.7240 C   0  0  0  0  0  0  0  0  0  0  0  0
   55.8960   25.6860   46.1460 C   0  0  0  0  0  0  0  0  0  0  0  0
   54.8060   26.0060   45.6020 O   0  0  0  0  0  0  0  0  0  0  0  0
   55.9670   24.9240   47.2950 O   0  0  0  0  0  0  0  0  0  0  0  0
   57.3010   24.8520   47.6680 C   0  0  0  0  0  0  0  0  0  0  0  0
   57.6940   24.2030   48.6730 O   0  0  0  0  0  0  0  0  0  0  0  0
   58.2130   25.6130   46.7480 C   0  0  2  0  0  0  0  0  0  0  0  0
   59.0349   25.0163   46.3257 H   0  0  0  0  0  0  0  0  0  0  0  0
   58.9150   26.7440   47.4690 C   0  0  0  0  0  0  0  0  0  0  0  0
   60.3050   26.7080   47.7010 C   0  0  0  0  0  0  0  0  0  0  0  0
   60.8965   25.8516   47.3451 H   0  0  0  0  0  0  0  0  0  0  0  0
   60.9360   27.7530   48.3800 C   0  0  0  0  0  0  0  0  0  0  0  0
   62.0208   27.7158   48.5582 H   0  0  0  0  0  0  0  0  0  0  0  0
   60.1910   28.8470   48.8340 C   0  0  0  0  0  0  0  0  0  0  0  0
   61.0050   30.1930   49.6940 S   0  0  0  0  0  0  0  0  0  0  0  0
   60.6150   31.3740   48.4030 C   0  0  0  0  0  0  0  0  0  0  0  0
   61.6320   31.8740   47.5830 C   0  0  0  0  0  0  0  0  0  0  0  0
   62.6686   31.5358   47.7278 H   0  0  0  0  0  0  0  0  0  0  0  0
   61.3360   32.8020   46.5800 C   0  0  0  0  0  0  0  0  0  0  0  0
   62.1400   33.1919   45.9385 H   0  0  0  0  0  0  0  0  0  0  0  0
   60.0160   33.2370   46.3900 C   0  0  0  0  0  0  0  0  0  0  0  0
   59.7070   34.1700   45.3870 C   0  0  0  0  0  0  0  0  0  0  0  0
   60.5043   34.5669   44.7414 H   0  0  0  0  0  0  0  0  0  0  0  0
   58.3870   34.5950   45.2080 C   0  0  0  0  0  0  0  0  0  0  0  0
   58.1484   35.3244   44.4199 H   0  0  0  0  0  0  0  0  0  0  0  0
   57.3700   34.0970   46.0260 C   0  0  0  0  0  0  0  0  0  0  0  0
   56.3343   34.4384   45.8822 H   0  0  0  0  0  0  0  0  0  0  0  0
   57.6640   33.1660   47.0270 C   0  0  0  0  0  0  0  0  0  0  0  0
   56.8588   32.7746   47.6661 H   0  0  0  0  0  0  0  0  0  0  0  0
   58.9840   32.7300   47.2180 C   0  0  0  0  0  0  0  0  0  0  0  0
   59.2930   31.7960   48.2190 C   0  0  0  0  0  0  0  0  0  0  0  0
   58.4945   31.3947   48.8604 H   0  0  0  0  0  0  0  0  0  0  0  0
   58.8100   28.8880   48.6150 C   0  0  0  0  0  0  0  0  0  0  0  0
   58.2221   29.7441   48.9776 H   0  0  0  0  0  0  0  0  0  0  0  0
   58.1750   27.8430   47.9360 C   0  0  0  0  0  0  0  0  0  0  0  0
   57.0888   27.8820   47.7665 H   0  0  0  0  0  0  0  0  0  0  0  0
   57.6020   28.3250   44.6200 C   0  0  0  0  0  0  0  0  0  0  0  0
   58.7910   29.0370   44.8550 C   0  0  0  0  0  0  0  0  0  0  0  0
   59.7312   28.4927   45.0276 H   0  0  0  0  0  0  0  0  0  0  0  0
   58.7820   30.4360   44.8700 C   0  0  0  0  0  0  0  0  0  0  0  0
   59.7177   30.9897   45.0370 H   0  0  0  0  0  0  0  0  0  0  0  0
   57.5850   31.1310   44.6730 C   0  0  0  0  0  0  0  0  0  0  0  0
   57.5808   32.2310   44.6778 H   0  0  0  0  0  0  0  0  0  0  0  0
   56.3940   30.4290   44.4700 C   0  0  0  0  0  0  0  0  0  0  0  0
   55.4514   30.9765   44.3227 H   0  0  0  0  0  0  0  0  0  0  0  0
   56.4000   29.0300   44.4540 C   0  0  0  0  0  0  0  0  0  0  0  0
   55.4582   28.4801   44.3106 H   0  0  0  0  0  0  0  0  0  0  0  0
  1  2  1  0
  2  3  2  0
  3  4  1  0
  4  5  2  0
  4  6  1  0
  6  7  1  0
  7  8  2  0
  7  9  1  0
  9 10  1  6
  9 11  1  0
 11 12  2  0
 12 13  1  0
 12 14  1  0
 14 15  1  0
 14 16  2  0
 16 17  1  0
 17 18  1  0
 18 19  2  0
 19 20  1  0
 19 21  1  0
 21 22  1  0
 21 23  2  0
 23 24  1  0
 24 25  1  0
 24 26  2  0
 26 27  1  0
 26 28  1  0
 28 29  1  0
 28 30  2  0
 30 31  1  0
 30 32  1  0
 32 33  2  0
 33 34  1  0
 16 35  1  0
 35 36  1  0
 35 37  2  0
 37 38  1  0
  2 39  1  0
 39 40  2  0
 40 41  1  0
 40 42  1  0
 42 43  1  0
 42 44  2  0
 44 45  1  0
 44 46  1  0
 46 47  1  0
 46 48  2  0
 48 49  1  0
  9  3  1  0
 37 11  1  0
 48 39  1  0
 33 18  1  0
 32 23  1  0
M  END
>  <UniqueID>  (10) 
10

>  <SMILES>  (10) 
O=C1OC(=O)[C@H](c2ccc(Sc3ccc4ccccc4c3)cc2)/C1=C/c1ccccc1

>  <Energy>  (10) 
78.3102303804679

>  <Genealogy>  (10) 
O=C1OC(=O)[C@H](c2ccc(Sc3ccc4ccccc4c3)cc2)C1=Cc1ccccc1 (chirality)
O=C1OC(=O)[C@H](c2ccc(Sc3ccc4ccccc4c3)cc2)/C1=C/c1ccccc1 (cis-trans isomerization)
O=C1OC(=O)[C@H](c2ccc(Sc3ccc4ccccc4c3)cc2)/C1=C/c1ccccc1 (3D coordinates assigned)
O=C1OC(=O)[C@H](c2ccc(Sc3ccc4ccccc4c3)cc2)/C1=C/c1ccccc1 (nonaromatic ring conformer: 78.3102303804679 kcal/mol)

>  <smiles>  (10) 
O=C1OC(=O)C(c2ccc(Sc3ccc4ccccc4c3)cc2)C1=Cc1ccccc1

>  <score_type>  (10) 
oracle

>  <origin>  (10) 
adg

>  <m_score__min__energy>  (10) 
-10.27

>  <m_primary>  (10) 
energy

$$$$
10:0
     RDKit          3D

 35 37  0  0  1  0  0  0  0  0999 V2000
   56.7180   34.5820   45.0930 C   0  0  0  0  0  0  0  0  0  0  0  0
   58.0760   34.9390   45.3980 N   0  0  0  0  0  0  0  0  0  0  0  0
   58.9470   34.1160   45.8490 C   0  0  0  0  0  0  0  0  0  0  0  0
   59.9630   34.4280   46.6850 N   0  0  0  0  0  0  0  0  0  0  0  0
   60.6490   33.2930   46.9230 C   0  0  0  0  0  0  0  0  0  0  0  0
   61.8280   33.1520   47.7700 C   0  0  0  0  0  0  0  0  0  0  0  0
   62.0260   34.0240   48.8170 C   0  0  0  0  0  0  0  0  0  0  0  0
   63.1610   33.8750   49.6210 C   0  0  0  0  0  0  0  0  0  0  0  0
   64.0610   32.8560   49.3460 C   0  0  0  0  0  0  0  0  0  0  0  0
   65.5010   32.6480   50.3460 Cl  0  0  0  0  0  0  0  0  0  0  0  0
   63.8600   31.9720   48.2840 C   0  0  0  0  0  0  0  0  0  0  0  0
   62.7300   32.1420   47.5080 C   0  0  0  0  0  0  0  0  0  0  0  0
   60.0370   32.3200   46.2280 N   0  0  0  0  0  0  0  0  0  0  0  0
   58.9840   32.8210   45.5620 N   0  0  0  0  0  0  0  0  0  0  0  0
   58.1660   32.0010   44.7490 C   0  0  0  0  0  0  0  0  0  0  0  0
   58.0910   32.2880   43.4140 N   0  0  0  0  0  0  0  0  0  0  0  0
   57.3520   31.5620   42.5550 C   0  0  0  0  0  0  0  0  0  0  0  0
   57.3540   31.9790   41.1270 C   0  0  0  0  0  0  0  0  0  0  0  0
   56.6370   30.4790   43.0230 C   0  0  0  0  0  0  0  0  0  0  0  0
   56.7150   30.1970   44.3570 C   0  0  0  0  0  0  0  0  0  0  0  0
   56.0870   29.2230   44.8460 O   0  0  0  0  0  0  0  0  0  0  0  0
   57.4660   30.9460   45.1940 N   0  0  0  0  0  0  0  0  0  0  0  0
   56.1586   34.4349   46.0286 H   0  0  0  0  0  0  0  0  0  0  0  0
   56.2496   35.3875   44.5084 H   0  0  0  0  0  0  0  0  0  0  0  0
   56.7063   33.6503   44.5084 H   0  0  0  0  0  0  0  0  0  0  0  0
   60.2070   35.3650   47.0960 H   0  0  0  0  0  0  0  0  0  0  0  0
   61.3016   34.8269   49.0185 H   0  0  0  0  0  0  0  0  0  0  0  0
   63.3381   34.5596   50.4635 H   0  0  0  0  0  0  0  0  0  0  0  0
   64.5783   31.1663   48.0722 H   0  0  0  0  0  0  0  0  0  0  0  0
   62.5461   31.4592   46.6654 H   0  0  0  0  0  0  0  0  0  0  0  0
   57.3593   33.0773   41.0657 H   0  0  0  0  0  0  0  0  0  0  0  0
   58.2502   31.5797   40.6297 H   0  0  0  0  0  0  0  0  0  0  0  0
   56.4540   31.5883   40.6297 H   0  0  0  0  0  0  0  0  0  0  0  0
   56.0258   29.8644   42.3458 H   0  0  0  0  0  0  0  0  0  0  0  0
   57.5120   30.7110   46.2090 H   0  0  0  0  0  0  0  0  0  0  0  0
  1  2  1  0
  2  3  2  0
  3  4  1  0
  4  5  1  0
  5  6  1  0
  6  7  2  0
  7  8  1  0
  8  9  2  0
  9 10  1  0
  9 11  1  0
 11 12  2  0
  5 13  2  0
 13 14  1  0
 14 15  1  0
 15 16  2  0
 16 17  1  0
 17 18  1  0
 17 19  2  0
 19 20  1  0
 20 21  2  0
 20 22  1  0
 14  3  1  0
 22 15  1  0
 12  6  1  0
  1 23  1  0
  1 24  1  0
  1 25  1  0
  4 26  1  0
  7 27  1  0
  8 28  1  0
 11 29  1  0
 12 30  1  0
 18 31  1  0
 18 32  1  0
 18 33  1  0
 19 34  1  0
 22 35  1  0
M  END
>  <smiles>  (11) 
CN=c1[nH]c(-c2ccc(Cl)cc2)nn1-c1nc(C)cc(=O)[nH]1

>  <score_type>  (11) 
oracle

>  <origin>  (11) 
adg

>  <m_score__min__energy>  (11) 
-7.96

>  <m_primary>  (11) 
energy

$$$$
11:0
     RDKit          3D

 32 35  0  0  0  0  0  0  0  0999 V2000
   57.3170   34.0580   45.3950 C   0  0  0  0  0  0  0  0  0  0  0  0
   58.5010   34.5810   44.8720 C   0  0  0  0  0  0  0  0  0  0  0  0
   59.6920   34.4870   45.6000 C   0  0  0  0  0  0  0  0  0  0  0  0
   59.7070   33.8670   46.8650 C   0  0  0  0  0  0  0  0  0  0  0  0
   60.9700   33.7660   47.6400 C   0  0  0  0  0  0  0  0  0  0  0  0
   62.1720   33.4040   47.0060 C   0  0  0  0  0  0  0  0  0  0  0  0
   63.3600   33.3090   47.7370 C   0  0  0  0  0  0  0  0  0  0  0  0
   63.3690   33.5640   49.1170 C   0  0  0  0  0  0  0  0  0  0  0  0
   64.6320   33.4650   49.8810 C   0  0  0  0  0  0  0  0  0  0  0  0
   65.8160   33.0320   49.3760 N   0  0  0  0  0  0  0  0  0  0  0  0
   66.7340   33.0490   50.3440 N   0  0  0  0  0  0  0  0  0  0  0  0
   66.0650   33.5030   51.4170 C   0  0  0  0  0  0  0  0  0  0  0  0
   66.4890   33.7150   53.0230 S   0  0  0  0  0  0  0  0  0  0  0  0
   64.8820   34.1750   53.4160 C   0  0  0  0  0  0  0  0  0  0  0  0
   64.0800   34.1270   52.2650 C   0  0  0  0  0  0  0  0  0  0  0  0
   64.7970   33.7590   51.1790 N   0  0  0  0  0  0  0  0  0  0  0  0
   62.1740   33.9360   49.7500 C   0  0  0  0  0  0  0  0  0  0  0  0
   60.9850   34.0330   49.0210 C   0  0  0  0  0  0  0  0  0  0  0  0
   58.5060   33.3440   47.3810 C   0  0  0  0  0  0  0  0  0  0  0  0
   57.3190   33.4400   46.6480 C   0  0  0  0  0  0  0  0  0  0  0  0
   56.3820   34.1325   44.8203 H   0  0  0  0  0  0  0  0  0  0  0  0
   58.4975   35.0679   43.8857 H   0  0  0  0  0  0  0  0  0  0  0  0
   60.6222   34.8996   45.1822 H   0  0  0  0  0  0  0  0  0  0  0  0
   62.1775   33.1939   45.9263 H   0  0  0  0  0  0  0  0  0  0  0  0
   64.2944   33.0324   47.2268 H   0  0  0  0  0  0  0  0  0  0  0  0
   66.0070   32.7340   48.3940 H   0  0  0  0  0  0  0  0  0  0  0  0
   64.5336   34.4638   54.4186 H   0  0  0  0  0  0  0  0  0  0  0  0
   63.0049   34.3592   52.2485 H   0  0  0  0  0  0  0  0  0  0  0  0
   62.1723   34.1531   50.8284 H   0  0  0  0  0  0  0  0  0  0  0  0
   60.0539   34.3204   49.5314 H   0  0  0  0  0  0  0  0  0  0  0  0
   58.5013   32.8567   48.3672 H   0  0  0  0  0  0  0  0  0  0  0  0
   56.3853   33.0282   47.0586 H   0  0  0  0  0  0  0  0  0  0  0  0
  1  2  2  0
  2  3  1  0
  3  4  2  0
  4  5  1  0
  5  6  2  0
  6  7  1  0
  7  8  2  0
  8  9  1  0
  9 10  2  0
 10 11  1  0
 11 12  2  0
 12 13  1  0
 13 14  1  0
 14 15  2  0
 15 16  1  0
  8 17  1  0
 17 18  2  0
  4 19  1  0
 19 20  2  0
 20  1  1  0
 18  5  1  0
 16  9  1  0
 16 12  1  0
  1 21  1  0
  2 22  1  0
  3 23  1  0
  6 24  1  0
  7 25  1  0
 10 26  1  0
 14 27  1  0
 15 28  1  0
 17 29  1  0
 18 30  1  0
 19 31  1  0
 20 32  1  0
M  CHG  1  10   1
M  END
>  <UniqueID>  (12) 
11

>  <SMILES>  (12) 
c1ccc(-c2ccc(-c3[nH+]nc4sccn34)cc2)cc1

>  <Energy>  (12) 
132.28660163260005

>  <Genealogy>  (12) 
c1ccc(-c2ccc(-c3[nH+]nc4sccn34)cc2)cc1 (protonated)
c1ccc(-c2ccc(-c3[nH+]nc4sccn34)cc2)cc1 (3D coordinates assigned)
c1ccc(-c2ccc(-c3[nH+]nc4sccn34)cc2)cc1 (optimized conformer: 132.28660163260005 kcal/mol)

>  <smiles>  (12) 
c1ccc(-c2ccc(-c3nnc4sccn34)cc2)cc1

>  <score_type>  (12) 
oracle

>  <origin>  (12) 
adg

>  <m_score__min__energy>  (12) 
-6.25

>  <m_primary>  (12) 
energy

$$$$
12:0
     RDKit          3D

 42 43  0  0  0  0  0  0  0  0999 V2000
   66.8600   33.0330   50.2630 C   0  0  0  0  0  0  0  0  0  0  0  0
   65.3980   32.6320   50.0970 C   0  0  0  0  0  0  0  0  0  0  0  0
   64.5980   33.7660   49.7660 O   0  0  0  0  0  0  0  0  0  0  0  0
   63.3770   33.7320   49.0720 C   0  0  0  0  0  0  0  0  0  0  0  0
   62.1720   34.2090   49.6220 C   0  0  0  0  0  0  0  0  0  0  0  0
   60.9860   34.1500   48.8840 C   0  0  0  0  0  0  0  0  0  0  0  0
   60.9780   33.6140   47.5840 C   0  0  0  0  0  0  0  0  0  0  0  0
   59.7520   33.5590   46.8220 N   0  0  0  0  0  0  0  0  0  0  0  0
   59.6610   34.2070   45.5040 C   0  0  0  0  0  0  0  0  0  0  0  0
   58.7640   33.3810   44.5720 C   0  0  0  0  0  0  0  0  0  0  0  0
   57.3530   33.0490   45.1590 C   0  0  0  0  0  0  0  0  0  0  0  0
   57.0130   31.6190   44.8730 N   0  0  0  0  0  0  0  0  0  0  0  0
   57.0240   31.2910   43.4330 C   0  0  0  0  0  0  0  0  0  0  0  0
   57.9650   30.7160   45.5570 C   0  0  0  0  0  0  0  0  0  0  0  0
   57.2900   33.4170   46.6720 C   0  0  0  0  0  0  0  0  0  0  0  0
   58.5470   32.9600   47.4170 C   0  0  0  0  0  0  0  0  0  0  0  0
   62.1860   33.1470   47.0370 C   0  0  0  0  0  0  0  0  0  0  0  0
   63.3700   33.2070   47.7760 C   0  0  0  0  0  0  0  0  0  0  0  0
   67.1026   33.0996   51.3338 H   0  0  0  0  0  0  0  0  0  0  0  0
   67.5035   32.2782   49.7874 H   0  0  0  0  0  0  0  0  0  0  0  0
   67.0284   34.0105   49.7874 H   0  0  0  0  0  0  0  0  0  0  0  0
   65.3174   31.8861   49.2925 H   0  0  0  0  0  0  0  0  0  0  0  0
   65.0372   32.2100   51.0466 H   0  0  0  0  0  0  0  0  0  0  0  0
   62.1636   34.6305   50.6380 H   0  0  0  0  0  0  0  0  0  0  0  0
   60.0508   34.5262   49.3242 H   0  0  0  0  0  0  0  0  0  0  0  0
   59.2339   35.2138   45.6221 H   0  0  0  0  0  0  0  0  0  0  0  0
   60.6678   34.2769   45.0665 H   0  0  0  0  0  0  0  0  0  0  0  0
   58.6239   33.9468   43.6391 H   0  0  0  0  0  0  0  0  0  0  0  0
   59.2739   32.4186   44.4179 H   0  0  0  0  0  0  0  0  0  0  0  0
   56.5834   33.6631   44.6685 H   0  0  0  0  0  0  0  0  0  0  0  0
   57.0606   30.1990   43.3060 H   0  0  0  0  0  0  0  0  0  0  0  0
   56.1121   31.6848   42.9603 H   0  0  0  0  0  0  0  0  0  0  0  0
   57.9074   31.7450   42.9603 H   0  0  0  0  0  0  0  0  0  0  0  0
   57.8531   30.8222   46.6461 H   0  0  0  0  0  0  0  0  0  0  0  0
   57.7567   29.6756   45.2667 H   0  0  0  0  0  0  0  0  0  0  0  0
   58.9929   30.9789   45.2667 H   0  0  0  0  0  0  0  0  0  0  0  0
   57.1941   34.5084   46.7700 H   0  0  0  0  0  0  0  0  0  0  0  0
   56.4230   32.9047   47.1144 H   0  0  0  0  0  0  0  0  0  0  0  0
   58.4738   33.2673   48.4707 H   0  0  0  0  0  0  0  0  0  0  0  0
   58.6232   31.8652   47.3427 H   0  0  0  0  0  0  0  0  0  0  0  0
   62.1990   32.7310   46.0188 H   0  0  0  0  0  0  0  0  0  0  0  0
   64.3068   32.8373   47.3336 H   0  0  0  0  0  0  0  0  0  0  0  0
  1  2  1  0
  2  3  1  0
  3  4  1  0
  4  5  2  0
  5  6  1  0
  6  7  2  0
  7  8  1  0
  8  9  1  0
  9 10  1  0
 10 11  1  0
 11 12  1  0
 12 13  1  0
 12 14  1  0
 11 15  1  0
 15 16  1  0
  7 17  1  0
 17 18  2  0
 18  4  1  0
 16  8  1  0
  1 19  1  0
  1 20  1  0
  1 21  1  0
  2 22  1  0
  2 23  1  0
  5 24  1  0
  6 25  1  0
  9 26  1  0
  9 27  1  0
 10 28  1  0
 10 29  1  0
 11 30  1  0
 13 31  1  0
 13 32  1  0
 13 33  1  0
 14 34  1  0
 14 35  1  0
 14 36  1  0
 15 37  1  0
 15 38  1  0
 16 39  1  0
 16 40  1  0
 17 41  1  0
 18 42  1  0
M  END
>  <UniqueID>  (13) 
12

>  <SMILES>  (13) 
CCOc1ccc(N2CCC(N(C)C)CC2)cc1

>  <Energy>  (13) 
51.82164537101938

>  <Genealogy>  (13) 
CCOc1ccc(N2CCC(N(C)C)CC2)cc1 (3D coordinates assigned)
CCOc1ccc(N2CCC(N(C)C)CC2)cc1 (nonaromatic ring conformer: 51.82164537101938 kcal/mol)

>  <smiles>  (13) 
CCOc1ccc(N2CCC(N(C)C)CC2)cc1

>  <score_type>  (13) 
oracle

>  <origin>  (13) 
adg

>  <m_score__min__energy>  (13) 
-6.3300000000000001

>  <m_primary>  (13) 
energy

$$$$
13:0
     RDKit          3D

 27 29  0  0  0  0  0  0  0  0999 V2000
   66.5470   32.5730   50.1170 C   0  0  0  0  0  0  0  0  0  0  0  0
   65.1490   33.0930   49.9690 C   0  0  0  0  0  0  0  0  0  0  0  0
   64.5210   33.7540   51.0590 C   0  0  0  0  0  0  0  0  0  0  0  0
   63.1960   34.2120   50.9340 C   0  0  0  0  0  0  0  0  0  0  0  0
   62.5550   33.9780   49.7240 C   0  0  0  0  0  0  0  0  0  0  0  0
   61.3060   34.3060   49.3570 N   0  0  0  0  0  0  0  0  0  0  0  0
   61.2460   33.8160   48.0860 C   0  0  0  0  0  0  0  0  0  0  0  0
   60.0490   33.9270   47.2280 C   0  0  0  0  0  0  0  0  0  0  0  0
   60.1110   34.5940   45.9900 C   0  0  0  0  0  0  0  0  0  0  0  0
   58.9730   34.6930   45.1840 C   0  0  0  0  0  0  0  0  0  0  0  0
   57.7650   34.1300   45.6040 C   0  0  0  0  0  0  0  0  0  0  0  0
   56.6630   34.2290   44.8210 F   0  0  0  0  0  0  0  0  0  0  0  0
   57.6930   33.4660   46.8310 C   0  0  0  0  0  0  0  0  0  0  0  0
   58.8290   33.3640   47.6410 C   0  0  0  0  0  0  0  0  0  0  0  0
   62.3700   33.2310   47.6950 O   0  0  0  0  0  0  0  0  0  0  0  0
   63.1800   33.3310   48.7120 C   0  0  0  0  0  0  0  0  0  0  0  0
   64.4560   32.8800   48.8040 N   0  0  0  0  0  0  0  0  0  0  0  0
   66.7930   32.4815   51.1852 H   0  0  0  0  0  0  0  0  0  0  0  0
   66.6239   31.5861   49.6372 H   0  0  0  0  0  0  0  0  0  0  0  0
   67.2501   33.2697   49.6372 H   0  0  0  0  0  0  0  0  0  0  0  0
   65.0700   33.9076   51.9997 H   0  0  0  0  0  0  0  0  0  0  0  0
   62.6894   34.7333   51.7596 H   0  0  0  0  0  0  0  0  0  0  0  0
   61.0594   35.0395   45.6551 H   0  0  0  0  0  0  0  0  0  0  0  0
   59.0286   35.2151   44.2174 H   0  0  0  0  0  0  0  0  0  0  0  0
   56.7418   33.0228   47.1607 H   0  0  0  0  0  0  0  0  0  0  0  0
   58.7672   32.8404   48.6064 H   0  0  0  0  0  0  0  0  0  0  0  0
   64.8910   32.3790   47.9980 H   0  0  0  0  0  0  0  0  0  0  0  0
  1  2  1  0
  2  3  2  0
  3  4  1  0
  4  5  2  0
  5  6  1  0
  6  7  2  0
  7  8  1  0
  8  9  2  0
  9 10  1  0
 10 11  2  0
 11 12  1  0
 11 13  1  0
 13 14  2  0
  7 15  1  0
 15 16  1  0
 16 17  2  0
 17  2  1  0
 16  5  1  0
 14  8  1  0
  1 18  1  0
  1 19  1  0
  1 20  1  0
  3 21  1  0
  4 22  1  0
  9 23  1  0
 10 24  1  0
 13 25  1  0
 14 26  1  0
 17 27  1  0
M  CHG  1  17   1
M  END
>  <UniqueID>  (14) 
13

>  <SMILES>  (14) 
Cc1ccc2nc(-c3ccc(F)cc3)oc2[nH+]1

>  <Energy>  (14) 
67.93997299485048

>  <Genealogy>  (14) 
Cc1ccc2nc(-c3ccc(F)cc3)oc2[nH+]1 (protonated)
Cc1ccc2nc(-c3ccc(F)cc3)oc2[nH+]1 (3D coordinates assigned)
Cc1ccc2nc(-c3ccc(F)cc3)oc2[nH+]1 (optimized conformer: 67.93997299485048 kcal/mol)

>  <smiles>  (14) 
Cc1ccc2nc(-c3ccc(F)cc3)oc2n1

>  <score_type>  (14) 
oracle

>  <origin>  (14) 
adg

>  <m_score__min__energy>  (14) 
-4.9299999999999997

>  <m_primary>  (14) 
energy

$$$$
14:0
     RDKit          3D

 47 49  0  0  0  0  0  0  0  0999 V2000
   63.7920   32.6580   47.9510 C   0  0  0  0  0  0  0  0  0  0  0  0
   63.0830   32.7750   49.1500 C   0  0  0  0  0  0  0  0  0  0  0  0
   61.8310   33.3960   49.1660 C   0  0  0  0  0  0  0  0  0  0  0  0
   61.2810   33.9110   47.9790 C   0  0  0  0  0  0  0  0  0  0  0  0
   59.9120   34.5470   47.9810 C   0  0  0  0  0  0  0  0  0  0  0  0
   59.6840   35.3830   46.7880 N   0  0  0  0  0  0  0  0  0  0  0  0
   58.8250   34.7270   45.7740 C   0  0  0  0  0  0  0  0  0  0  0  0
   58.1970   33.4210   46.3160 C   0  0  0  0  0  0  0  0  0  0  0  0
   58.8600   32.1150   45.8030 C   0  0  0  0  0  0  0  0  0  0  0  0
   58.0590   31.2990   44.7800 C   0  0  0  0  0  0  0  0  0  0  0  0
   57.4720   30.0510   45.0930 C   0  0  0  0  0  0  0  0  0  0  0  0
   56.6960   29.3700   44.1480 C   0  0  0  0  0  0  0  0  0  0  0  0
   56.4600   29.9340   42.8950 C   0  0  0  0  0  0  0  0  0  0  0  0
   56.9840   31.1890   42.5880 C   0  0  0  0  0  0  0  0  0  0  0  0
   57.7600   31.8730   43.5260 C   0  0  0  0  0  0  0  0  0  0  0  0
   59.3540   31.2860   46.9830 C   0  0  0  0  0  0  0  0  0  0  0  0
   60.3160   30.2690   46.8190 C   0  0  0  0  0  0  0  0  0  0  0  0
   60.7150   29.4890   47.9090 C   0  0  0  0  0  0  0  0  0  0  0  0
   60.1560   29.7080   49.1690 C   0  0  0  0  0  0  0  0  0  0  0  0
   59.1940   30.7050   49.3430 C   0  0  0  0  0  0  0  0  0  0  0  0
   58.7890   31.4860   48.2560 C   0  0  0  0  0  0  0  0  0  0  0  0
   62.0000   33.7900   46.7790 C   0  0  0  0  0  0  0  0  0  0  0  0
   63.2510   33.1650   46.7670 C   0  0  0  0  0  0  0  0  0  0  0  0
   64.7761   32.1666   47.9398 H   0  0  0  0  0  0  0  0  0  0  0  0
   63.5110   32.3778   50.0822 H   0  0  0  0  0  0  0  0  0  0  0  0
   61.2740   33.4821   50.1106 H   0  0  0  0  0  0  0  0  0  0  0  0
   59.1522   33.7520   48.0068 H   0  0  0  0  0  0  0  0  0  0  0  0
   59.8428   35.1962   48.8663 H   0  0  0  0  0  0  0  0  0  0  0  0
   59.2030   36.2550   47.1100 H   0  0  0  0  0  0  0  0  0  0  0  0
   60.6030   35.6790   46.3830 H   0  0  0  0  0  0  0  0  0  0  0  0
   58.0188   35.4186   45.4883 H   0  0  0  0  0  0  0  0  0  0  0  0
   59.4513   34.4725   44.9063 H   0  0  0  0  0  0  0  0  0  0  0  0
   58.2735   33.4348   47.4133 H   0  0  0  0  0  0  0  0  0  0  0  0
   57.1591   33.4036   45.9520 H   0  0  0  0  0  0  0  0  0  0  0  0
   59.7214   32.4376   45.1997 H   0  0  0  0  0  0  0  0  0  0  0  0
   57.6269   29.6111   46.0892 H   0  0  0  0  0  0  0  0  0  0  0  0
   56.2707   28.3860   44.3948 H   0  0  0  0  0  0  0  0  0  0  0  0
   55.8613   29.3897   42.1498 H   0  0  0  0  0  0  0  0  0  0  0  0
   56.7858   31.6412   41.6050 H   0  0  0  0  0  0  0  0  0  0  0  0
   58.1442   32.8748   43.2837 H   0  0  0  0  0  0  0  0  0  0  0  0
   60.7558   30.0877   45.8272 H   0  0  0  0  0  0  0  0  0  0  0  0
   61.4708   28.7014   47.7731 H   0  0  0  0  0  0  0  0  0  0  0  0
   60.4734   29.0949   50.0254 H   0  0  0  0  0  0  0  0  0  0  0  0
   58.7541   30.8763   50.3365 H   0  0  0  0  0  0  0  0  0  0  0  0
   58.0229   32.2626   48.3972 H   0  0  0  0  0  0  0  0  0  0  0  0
   61.5776   34.1884   45.8447 H   0  0  0  0  0  0  0  0  0  0  0  0
   63.8098   33.0725   45.8240 H   0  0  0  0  0  0  0  0  0  0  0  0
  1  2  2  0
  2  3  1  0
  3  4  2  0
  4  5  1  0
  5  6  1  0
  6  7  1  0
  7  8  1  0
  8  9  1  0
  9 10  1  0
 10 11  2  0
 11 12  1  0
 12 13  2  0
 13 14  1  0
 14 15  2  0
  9 16  1  0
 16 17  2  0
 17 18  1  0
 18 19  2  0
 19 20  1  0
 20 21  2  0
  4 22  1  0
 22 23  2  0
 23  1  1  0
 15 10  1  0
 21 16  1  0
  1 24  1  0
  2 25  1  0
  3 26  1  0
  5 27  1  0
  5 28  1  0
  6 29  1  0
  6 30  1  0
  7 31  1  0
  7 32  1  0
  8 33  1  0
  8 34  1  0
  9 35  1  0
 11 36  1  0
 12 37  1  0
 13 38  1  0
 14 39  1  0
 15 40  1  0
 17 41  1  0
 18 42  1  0
 19 43  1  0
 20 44  1  0
 21 45  1  0
 22 46  1  0
 23 47  1  0
M  CHG  1   6   1
M  END
>  <UniqueID>  (15) 
14

>  <SMILES>  (15) 
c1ccc(C[NH2+]CCC(c2ccccc2)c2ccccc2)cc1

>  <Energy>  (15) 
53.493914076652224

>  <Genealogy>  (15) 
c1ccc(C[NH2+]CCC(c2ccccc2)c2ccccc2)cc1 (protonated)
c1ccc(C[NH2+]CCC(c2ccccc2)c2ccccc2)cc1 (3D coordinates assigned)
c1ccc(C[NH2+]CCC(c2ccccc2)c2ccccc2)cc1 (optimized conformer: 53.493914076652224 kcal/mol)

>  <smiles>  (15) 
c1ccc(CNCCC(c2ccccc2)c2ccccc2)cc1

>  <score_type>  (15) 
oracle

>  <origin>  (15) 
adg

>  <m_score__min__energy>  (15) 
-6.2199999999999998

>  <m_primary>  (15) 
energy

$$$$
15:0
     RDKit          3D

 27 28  0  0  0  0  0  0  0  0999 V2000
   57.1270   27.7480   45.4790 C   0  0  0  0  0  0  0  0  0  0  0  0
   56.3450   28.8660   45.0670 O   0  0  0  0  0  0  0  0  0  0  0  0
   56.8640   30.0310   44.4800 C   0  0  0  0  0  0  0  0  0  0  0  0
   57.4210   31.0690   45.2550 C   0  0  0  0  0  0  0  0  0  0  0  0
   57.9370   32.2270   44.6450 C   0  0  0  0  0  0  0  0  0  0  0  0
   58.5210   33.3170   45.4680 C   0  0  0  0  0  0  0  0  0  0  0  0
   59.1210   34.4370   44.8740 C   0  0  0  0  0  0  0  0  0  0  0  0
   59.6500   35.4200   45.6460 N   0  0  0  0  0  0  0  0  0  0  0  0
   59.6080   35.3440   47.0010 C   0  0  0  0  0  0  0  0  0  0  0  0
   59.0340   34.2720   47.6050 N   0  0  0  0  0  0  0  0  0  0  0  0
   58.4940   33.2630   46.8710 C   0  0  0  0  0  0  0  0  0  0  0  0
   57.8890   32.3380   43.2460 C   0  0  0  0  0  0  0  0  0  0  0  0
   57.3380   31.3160   42.4730 C   0  0  0  0  0  0  0  0  0  0  0  0
   56.8250   30.1630   43.0790 C   0  0  0  0  0  0  0  0  0  0  0  0
   56.2630   29.1270   42.2640 N   0  0  0  0  0  0  0  0  0  0  0  0
   57.1563   27.7060   46.5778 H   0  0  0  0  0  0  0  0  0  0  0  0
   56.6781   26.8227   45.0886 H   0  0  0  0  0  0  0  0  0  0  0  0
   58.1501   27.8523   45.0886 H   0  0  0  0  0  0  0  0  0  0  0  0
   57.4525   30.9721   46.3503 H   0  0  0  0  0  0  0  0  0  0  0  0
   59.1630   34.5190   43.7779 H   0  0  0  0  0  0  0  0  0  0  0  0
   60.0395   36.1519   47.6101 H   0  0  0  0  0  0  0  0  0  0  0  0
   59.0030   34.2240   48.6480 H   0  0  0  0  0  0  0  0  0  0  0  0
   58.0345   32.4016   47.3777 H   0  0  0  0  0  0  0  0  0  0  0  0
   58.2890   33.2379   42.7559 H   0  0  0  0  0  0  0  0  0  0  0  0
   57.3063   31.4168   41.3781 H   0  0  0  0  0  0  0  0  0  0  0  0
   55.7990   29.3410   41.3530 H   0  0  0  0  0  0  0  0  0  0  0  0
   56.3060   28.1280   42.5670 H   0  0  0  0  0  0  0  0  0  0  0  0
  1  2  1  0
  2  3  1  0
  3  4  2  0
  4  5  1  0
  5  6  1  0
  6  7  2  0
  7  8  1  0
  8  9  2  0
  9 10  1  0
 10 11  2  0
  5 12  2  0
 12 13  1  0
 13 14  2  0
 14 15  1  0
 14  3  1  0
 11  6  1  0
  1 16  1  0
  1 17  1  0
  1 18  1  0
  4 19  1  0
  7 20  1  0
  9 21  1  0
 10 22  1  0
 11 23  1  0
 12 24  1  0
 13 25  1  0
 15 26  1  0
 15 27  1  0
M  CHG  1  10   1
M  END
>  <UniqueID>  (16) 
15

>  <SMILES>  (16) 
COc1cc(-c2cnc[nH+]c2)ccc1N

>  <Energy>  (16) 
32.30201138261476

>  <Genealogy>  (16) 
COc1cc(-c2cnc[nH+]c2)ccc1N (protonated)
COc1cc(-c2cnc[nH+]c2)ccc1N (3D coordinates assigned)
COc1cc(-c2cnc[nH+]c2)ccc1N (optimized conformer: 32.30201138261476 kcal/mol)

>  <smiles>  (16) 
COc1cc(-c2cncnc2)ccc1N

>  <score_type>  (16) 
oracle

>  <origin>  (16) 
adg

>  <m_score__min__energy>  (16) 
-4.71

>  <m_primary>  (16) 
energy

$$$$
16:0
     RDKit          3D

 35 37  0  0  0  0  0  0  0  0999 V2000
   55.2690   24.9440   45.7640 C   0  0  0  0  0  0  0  0  0  0  0  0
   56.3110   26.0000   45.6270 C   0  0  0  0  0  0  0  0  0  0  0  0
   57.6310   25.7510   45.5320 N   0  0  0  0  0  0  0  0  0  0  0  0
   58.2240   26.9320   45.4540 N   0  0  0  0  0  0  0  0  0  0  0  0
   57.2430   27.8560   45.5100 C   0  0  0  0  0  0  0  0  0  0  0  0
   57.4640   29.3140   45.4580 C   0  0  0  0  0  0  0  0  0  0  0  0
   58.3110   29.9330   46.3910 C   0  0  0  0  0  0  0  0  0  0  0  0
   58.5240   31.3140   46.3450 C   0  0  0  0  0  0  0  0  0  0  0  0
   57.8980   32.0920   45.3640 C   0  0  0  0  0  0  0  0  0  0  0  0
   58.1870   33.8270   45.3040 S   0  0  0  0  0  0  0  0  0  0  0  0
   59.1500   34.1700   44.2020 O   0  0  0  0  0  0  0  0  0  0  0  0
   56.8820   34.5260   45.0470 O   0  0  0  0  0  0  0  0  0  0  0  0
   58.8410   34.3750   46.8170 N   0  0  0  0  0  0  0  0  0  0  0  0
   60.1950   34.1290   47.2420 C   0  0  0  0  0  0  0  0  0  0  0  0
   61.2160   33.8250   46.3190 C   0  0  0  0  0  0  0  0  0  0  0  0
   62.5210   33.5850   46.7600 C   0  0  0  0  0  0  0  0  0  0  0  0
   62.8250   33.6510   48.1210 C   0  0  0  0  0  0  0  0  0  0  0  0
   64.0910   33.4180   48.5460 F   0  0  0  0  0  0  0  0  0  0  0  0
   61.8240   33.9600   49.0450 C   0  0  0  0  0  0  0  0  0  0  0  0
   60.5160   34.1990   48.6110 C   0  0  0  0  0  0  0  0  0  0  0  0
   59.5600   34.4910   49.5290 F   0  0  0  0  0  0  0  0  0  0  0  0
   57.0480   31.4810   44.4340 C   0  0  0  0  0  0  0  0  0  0  0  0
   56.8330   30.1000   44.4790 C   0  0  0  0  0  0  0  0  0  0  0  0
   56.0660   27.2880   45.6200 O   0  0  0  0  0  0  0  0  0  0  0  0
   55.0795   24.7520   46.8304 H   0  0  0  0  0  0  0  0  0  0  0  0
   54.3398   25.2810   45.2814 H   0  0  0  0  0  0  0  0  0  0  0  0
   55.6184   24.0193   45.2814 H   0  0  0  0  0  0  0  0  0  0  0  0
   58.8098   29.3281   47.1625 H   0  0  0  0  0  0  0  0  0  0  0  0
   59.1861   31.7911   47.0826 H   0  0  0  0  0  0  0  0  0  0  0  0
   58.1750   34.8390   47.4730 H   0  0  0  0  0  0  0  0  0  0  0  0
   60.9846   33.7762   45.2447 H   0  0  0  0  0  0  0  0  0  0  0  0
   63.3102   33.3436   46.0327 H   0  0  0  0  0  0  0  0  0  0  0  0
   62.0651   34.0155   50.1168 H   0  0  0  0  0  0  0  0  0  0  0  0
   56.5479   32.0891   43.6658 H   0  0  0  0  0  0  0  0  0  0  0  0
   56.1660   29.6262   43.7437 H   0  0  0  0  0  0  0  0  0  0  0  0
  1  2  1  0
  2  3  2  0
  3  4  1  0
  4  5  2  0
  5  6  1  0
  6  7  2  0
  7  8  1  0
  8  9  2  0
  9 10  1  0
 10 11  2  0
 10 12  2  0
 10 13  1  0
 13 14  1  0
 14 15  2  0
 15 16  1  0
 16 17  2  0
 17 18  1  0
 17 19  1  0
 19 20  2  0
 20 21  1  0
  9 22  1  0
 22 23  2  0
  5 24  1  0
 24  2  1  0
 23  6  1  0
 20 14  1  0
  1 25  1  0
  1 26  1  0
  1 27  1  0
  7 28  1  0
  8 29  1  0
 13 30  1  0
 15 31  1  0
 16 32  1  0
 19 33  1  0
 22 34  1  0
 23 35  1  0
M  END
>  <UniqueID>  (17) 
16

>  <SMILES>  (17) 
Cc1nnc(-c2ccc(S(=O)(=O)Nc3ccc(F)cc3F)cc2)o1

>  <Energy>  (17) 
73.86539004979007

>  <Genealogy>  (17) 
Cc1nnc(-c2ccc(S(=O)(=O)Nc3ccc(F)cc3F)cc2)o1 (3D coordinates assigned)
Cc1nnc(-c2ccc(S(=O)(=O)Nc3ccc(F)cc3F)cc2)o1 (optimized conformer: 73.86539004979007 kcal/mol)

>  <smiles>  (17) 
Cc1nnc(-c2ccc(S(=O)(=O)Nc3ccc(F)cc3F)cc2)o1

>  <score_type>  (17) 
oracle

>  <origin>  (17) 
adg

>  <m_score__min__energy>  (17) 
-7.8499999999999996

>  <m_primary>  (17) 
energy

$$$$
17:0
     RDKit          3D

 44 46  0  0  0  0  0  0  0  0999 V2000
   57.5060   32.3410   40.9700 C   0  0  0  0  0  0  0  0  0  0  0  0
   56.9130   31.4170   41.8770 O   0  0  0  0  0  0  0  0  0  0  0  0
   57.3400   31.2180   43.1980 C   0  0  0  0  0  0  0  0  0  0  0  0
   57.3050   29.9200   43.7210 C   0  0  0  0  0  0  0  0  0  0  0  0
   57.7210   29.6700   45.0320 C   0  0  0  0  0  0  0  0  0  0  0  0
   58.1800   30.7190   45.8430 C   0  0  0  0  0  0  0  0  0  0  0  0
   58.6170   30.4510   47.2280 C   0  0  0  0  0  0  0  0  0  0  0  0
   58.7790   31.4130   48.1640 N   0  0  0  0  0  0  0  0  0  0  0  0
   59.1750   30.7200   49.2480 C   0  0  0  0  0  0  0  0  0  0  0  0
   59.4660   31.3410   50.5890 C   0  0  0  0  0  0  0  0  0  0  0  0
   59.1730   32.7950   50.6430 N   0  0  1  0  0  0  0  0  0  0  0  0
   58.6500   33.1930   51.9660 C   0  0  0  0  0  0  0  0  0  0  0  0
   60.3540   33.6050   50.2550 C   0  0  0  0  0  0  0  0  0  0  0  0
   60.3690   33.9040   48.7730 C   0  0  0  0  0  0  0  0  0  0  0  0
   59.2890   34.5690   48.1680 C   0  0  0  0  0  0  0  0  0  0  0  0
   59.3010   34.8240   46.7930 C   0  0  0  0  0  0  0  0  0  0  0  0
   60.3860   34.4130   46.0130 C   0  0  0  0  0  0  0  0  0  0  0  0
   61.4600   33.7460   46.6070 C   0  0  0  0  0  0  0  0  0  0  0  0
   61.4540   33.4900   47.9820 C   0  0  0  0  0  0  0  0  0  0  0  0
   59.2370   29.3790   48.9420 C   0  0  0  0  0  0  0  0  0  0  0  0
   58.8870   29.2470   47.6870 O   0  0  0  0  0  0  0  0  0  0  0  0
   58.2160   32.0230   45.3210 C   0  0  0  0  0  0  0  0  0  0  0  0
   57.8000   32.2720   44.0090 C   0  0  0  0  0  0  0  0  0  0  0  0
   58.0154   33.1348   41.5360 H   0  0  0  0  0  0  0  0  0  0  0  0
   58.2362   31.8159   40.3367 H   0  0  0  0  0  0  0  0  0  0  0  0
   56.7244   32.7861   40.3367 H   0  0  0  0  0  0  0  0  0  0  0  0
   56.9470   29.0894   43.0949 H   0  0  0  0  0  0  0  0  0  0  0  0
   57.6883   28.6451   45.4301 H   0  0  0  0  0  0  0  0  0  0  0  0
   58.8528   30.8336   51.3483 H   0  0  0  0  0  0  0  0  0  0  0  0
   60.5434   31.2204   50.7750 H   0  0  0  0  0  0  0  0  0  0  0  0
   58.4120   32.9660   49.9440 H   0  0  0  0  0  0  0  0  0  0  0  0
   59.2593   32.7293   52.7558 H   0  0  0  0  0  0  0  0  0  0  0  0
   58.6945   34.2877   52.0637 H   0  0  0  0  0  0  0  0  0  0  0  0
   57.6067   32.8583   52.0637 H   0  0  0  0  0  0  0  0  0  0  0  0
   60.3317   34.5548   50.8094 H   0  0  0  0  0  0  0  0  0  0  0  0
   61.2584   33.0270   50.4958 H   0  0  0  0  0  0  0  0  0  0  0  0
   58.4316   34.8900   48.7778 H   0  0  0  0  0  0  0  0  0  0  0  0
   58.4554   35.3488   46.3244 H   0  0  0  0  0  0  0  0  0  0  0  0
   60.3939   34.6148   44.9317 H   0  0  0  0  0  0  0  0  0  0  0  0
   62.3123   33.4214   45.9920 H   0  0  0  0  0  0  0  0  0  0  0  0
   62.3011   32.9631   48.4455 H   0  0  0  0  0  0  0  0  0  0  0  0
   59.5271   28.5678   49.6259 H   0  0  0  0  0  0  0  0  0  0  0  0
   58.5735   32.8531   45.9480 H   0  0  0  0  0  0  0  0  0  0  0  0
   57.8326   33.2963   43.6094 H   0  0  0  0  0  0  0  0  0  0  0  0
  1  2  1  0
  2  3  1  0
  3  4  2  0
  4  5  1  0
  5  6  2  0
  6  7  1  0
  7  8  2  0
  8  9  1  0
  9 10  1  0
 10 11  1  0
 11 12  1  0
 11 13  1  0
 13 14  1  0
 14 15  2  0
 15 16  1  0
 16 17  2  0
 17 18  1  0
 18 19  2  0
  9 20  2  0
 20 21  1  0
  6 22  1  0
 22 23  2  0
 23  3  1  0
 21  7  1  0
 19 14  1  0
  1 24  1  0
  1 25  1  0
  1 26  1  0
  4 27  1  0
  5 28  1  0
 10 29  1  0
 10 30  1  0
 11 31  1  6
 12 32  1  0
 12 33  1  0
 12 34  1  0
 13 35  1  0
 13 36  1  0
 15 37  1  0
 16 38  1  0
 17 39  1  0
 18 40  1  0
 19 41  1  0
 20 42  1  0
 22 43  1  0
 23 44  1  0
M  CHG  1  11   1
M  END
>  <UniqueID>  (18) 
17

>  <SMILES>  (18) 
COc1ccc(-c2nc(C[N@@H+](C)Cc3ccccc3)co2)cc1

>  <Energy>  (18) 
77.26343594623448

>  <Genealogy>  (18) 
COc1ccc(-c2nc(C[NH+](C)Cc3ccccc3)co2)cc1 (protonated)
COc1ccc(-c2nc(C[N@@H+](C)Cc3ccccc3)co2)cc1 (chirality)
COc1ccc(-c2nc(C[N@@H+](C)Cc3ccccc3)co2)cc1 (3D coordinates assigned)
COc1ccc(-c2nc(C[N@@H+](C)Cc3ccccc3)co2)cc1 (optimized conformer: 77.26343594623448 kcal/mol)

>  <smiles>  (18) 
COc1ccc(-c2nc(CN(C)Cc3ccccc3)co2)cc1

>  <score_type>  (18) 
oracle

>  <origin>  (18) 
adg

>  <m_score__min__energy>  (18) 
-4.8799999999999999

>  <m_primary>  (18) 
energy

$$$$
18:0
     RDKit          3D

 46 48  0  0  0  0  0  0  0  0999 V2000
   57.2290   32.3400   40.6300 C   0  0  0  0  0  0  0  0  0  0  0  0
   57.4280   31.9630   42.0680 C   0  0  0  0  0  0  0  0  0  0  0  0
   58.3130   32.6920   42.8710 C   0  0  0  0  0  0  0  0  0  0  0  0
   58.4770   32.3620   44.2170 C   0  0  0  0  0  0  0  0  0  0  0  0
   57.7400   31.3140   44.7920 C   0  0  0  0  0  0  0  0  0  0  0  0
   57.9990   30.9330   46.1520 N   0  0  0  0  0  0  0  0  0  0  0  0
   58.4830   31.8540   47.1420 C   0  0  0  0  0  0  0  0  0  0  0  0
   58.6830   33.0630   46.8440 O   0  0  0  0  0  0  0  0  0  0  0  0
   58.7690   31.3870   48.5400 C   0  0  0  0  0  0  0  0  0  0  0  0
   60.1560   31.0980   48.7150 O   0  0  0  0  0  0  0  0  0  0  0  0
   61.2130   31.9610   48.3850 C   0  0  0  0  0  0  0  0  0  0  0  0
   62.1900   31.5010   47.4930 C   0  0  0  0  0  0  0  0  0  0  0  0
   63.2750   32.3130   47.1460 C   0  0  0  0  0  0  0  0  0  0  0  0
   63.3890   33.5950   47.6900 C   0  0  0  0  0  0  0  0  0  0  0  0
   62.4170   34.0690   48.5730 C   0  0  0  0  0  0  0  0  0  0  0  0
   61.3300   33.2600   48.9200 C   0  0  0  0  0  0  0  0  0  0  0  0
   56.8160   30.5920   43.9960 C   0  0  0  0  0  0  0  0  0  0  0  0
   55.9610   29.5230   44.5670 C   0  0  0  0  0  0  0  0  0  0  0  0
   54.7950   29.3360   44.1240 O   0  0  0  0  0  0  0  0  0  0  0  0
   56.4700   28.6770   45.6030 N   0  0  0  0  0  0  0  0  0  0  0  0
   57.4350   27.6080   45.3670 C   0  0  0  0  0  0  0  0  0  0  0  0
   58.8310   28.1270   45.5140 C   0  0  0  0  0  0  0  0  0  0  0  0
   59.7500   28.2780   44.4940 C   0  0  0  0  0  0  0  0  0  0  0  0
   60.8790   28.7990   45.0900 C   0  0  0  0  0  0  0  0  0  0  0  0
   60.5790   28.9320   46.4310 C   0  0  0  0  0  0  0  0  0  0  0  0
   59.3500   28.5250   46.6530 O   0  0  0  0  0  0  0  0  0  0  0  0
   56.6750   30.9260   42.6370 C   0  0  0  0  0  0  0  0  0  0  0  0
   56.7162   33.3115   40.5732 H   0  0  0  0  0  0  0  0  0  0  0  0
   58.2067   32.4118   40.1311 H   0  0  0  0  0  0  0  0  0  0  0  0
   56.6181   31.5732   40.1311 H   0  0  0  0  0  0  0  0  0  0  0  0
   58.8817   33.5287   42.4391 H   0  0  0  0  0  0  0  0  0  0  0  0
   59.1905   32.9283   44.8336 H   0  0  0  0  0  0  0  0  0  0  0  0
   57.7530   29.9600   46.4470 H   0  0  0  0  0  0  0  0  0  0  0  0
   58.4747   32.1751   49.2487 H   0  0  0  0  0  0  0  0  0  0  0  0
   58.1959   30.4662   48.7233 H   0  0  0  0  0  0  0  0  0  0  0  0
   62.1034   30.4928   47.0617 H   0  0  0  0  0  0  0  0  0  0  0  0
   64.0379   31.9425   46.4454 H   0  0  0  0  0  0  0  0  0  0  0  0
   64.2454   34.2314   47.4223 H   0  0  0  0  0  0  0  0  0  0  0  0
   62.5061   35.0803   48.9965 H   0  0  0  0  0  0  0  0  0  0  0  0
   60.5639   33.6386   49.6126 H   0  0  0  0  0  0  0  0  0  0  0  0
   57.2689   26.8016   46.0965 H   0  0  0  0  0  0  0  0  0  0  0  0
   57.3015   27.2246   44.3447 H   0  0  0  0  0  0  0  0  0  0  0  0
   59.6106   28.0341   43.4305 H   0  0  0  0  0  0  0  0  0  0  0  0
   61.8276   29.0567   44.5964 H   0  0  0  0  0  0  0  0  0  0  0  0
   61.2655   29.3202   47.1978 H   0  0  0  0  0  0  0  0  0  0  0  0
   55.9641   30.3659   42.0118 H   0  0  0  0  0  0  0  0  0  0  0  0
  1  2  1  0
  2  3  2  0
  3  4  1  0
  4  5  2  0
  5  6  1  0
  6  7  1  0
  7  8  2  0
  7  9  1  0
  9 10  1  0
 10 11  1  0
 11 12  2  0
 12 13  1  0
 13 14  2  0
 14 15  1  0
 15 16  2  0
  5 17  1  0
 17 18  1  0
 18 19  2  0
 18 20  1  0
 20 21  1  0
 21 22  1  0
 22 23  2  0
 23 24  1  0
 24 25  2  0
 25 26  1  0
 17 27  2  0
 27  2  1  0
 16 11  1  0
 26 22  1  0
  1 28  1  0
  1 29  1  0
  1 30  1  0
  3 31  1  0
  4 32  1  0
  6 33  1  0
  9 34  1  0
  9 35  1  0
 12 36  1  0
 13 37  1  0
 14 38  1  0
 15 39  1  0
 16 40  1  0
 21 41  1  0
 21 42  1  0
 23 43  1  0
 24 44  1  0
 25 45  1  0
 27 46  1  0
M  CHG  1  20  -1
M  END
>  <UniqueID>  (19) 
18

>  <SMILES>  (19) 
Cc1ccc(NC(=O)COc2ccccc2)c(C(=O)[N-]Cc2ccco2)c1

>  <Energy>  (19) 
74.35770587265533

>  <Genealogy>  (19) 
Cc1ccc(NC(=O)COc2ccccc2)c(C(=O)[N-]Cc2ccco2)c1 (protonated)
Cc1ccc(NC(=O)COc2ccccc2)c(C(=O)[N-]Cc2ccco2)c1 (3D coordinates assigned)
Cc1ccc(NC(=O)COc2ccccc2)c(C(=O)[N-]Cc2ccco2)c1 (optimized conformer: 74.35770587265533 kcal/mol)

>  <smiles>  (19) 
Cc1ccc(NC(=O)COc2ccccc2)c(C(=O)NCc2ccco2)c1

>  <score_type>  (19) 
oracle

>  <origin>  (19) 
adg

>  <m_score__min__energy>  (19) 
-9.7300000000000004

>  <m_primary>  (19) 
energy

$$$$
19:0
     RDKit          3D

 52 56  0  0  0  0  0  0  0  0999 V2000
   62.6727   30.4701   47.9005 H   0  0  0  0  0  0  0  0  0  0  0  0
   61.8560   31.2070   47.9040 C   0  0  0  0  0  0  0  0  0  0  0  0
   62.0660   32.4070   48.3510 N   0  0  0  0  0  0  0  0  0  0  0  0
   61.2480   33.0410   49.3050 N   0  0  0  0  0  0  0  0  0  0  0  0
   60.1110   33.7240   49.0620 C   0  0  0  0  0  0  0  0  0  0  0  0
   59.4990   33.9470   47.7320 C   0  0  0  0  0  0  0  0  0  0  0  0
   58.1820   33.5130   47.4930 C   0  0  0  0  0  0  0  0  0  0  0  0
   57.6168   33.0142   48.2941 H   0  0  0  0  0  0  0  0  0  0  0  0
   57.5880   33.7120   46.2440 C   0  0  0  0  0  0  0  0  0  0  0  0
   56.5544   33.3791   46.0687 H   0  0  0  0  0  0  0  0  0  0  0  0
   58.3040   34.3330   45.2170 C   0  0  0  0  0  0  0  0  0  0  0  0
   57.8328   34.4939   44.2362 H   0  0  0  0  0  0  0  0  0  0  0  0
   59.6190   34.7490   45.4380 C   0  0  0  0  0  0  0  0  0  0  0  0
   60.1853   35.2313   44.6277 H   0  0  0  0  0  0  0  0  0  0  0  0
   60.2170   34.5540   46.6860 C   0  0  0  0  0  0  0  0  0  0  0  0
   61.2554   34.8772   46.8512 H   0  0  0  0  0  0  0  0  0  0  0  0
   59.6030   34.2280   50.2060 N   0  0  0  0  0  0  0  0  0  0  0  0
   60.3980   33.8430   51.1970 N   0  0  0  0  0  0  0  0  0  0  0  0
   61.3930   33.1270   50.6450 C   0  0  0  0  0  0  0  0  0  0  0  0
   62.5190   32.3360   51.5360 S   0  0  0  0  0  0  0  0  0  0  0  0
   60.5250   30.8330   47.4020 C   0  0  0  0  0  0  0  0  0  0  0  0
   59.3930   30.4900   48.1290 C   0  0  0  0  0  0  0  0  0  0  0  0
   59.2710   30.3140   49.5910 C   0  0  0  0  0  0  0  0  0  0  0  0
   58.4070   31.1220   50.3480 C   0  0  0  0  0  0  0  0  0  0  0  0
   57.7987   31.8909   49.8493 H   0  0  0  0  0  0  0  0  0  0  0  0
   58.3170   30.9530   51.7330 C   0  0  0  0  0  0  0  0  0  0  0  0
   57.6277   31.5826   52.3149 H   0  0  0  0  0  0  0  0  0  0  0  0
   59.0950   29.9910   52.3860 C   0  0  0  0  0  0  0  0  0  0  0  0
   58.9650   29.8590   53.7760 O   0  0  0  0  0  0  0  0  0  0  0  0
   58.5870   30.9150   54.6510 C   0  0  0  0  0  0  0  0  0  0  0  0
   58.7046   30.5866   55.6942 H   0  0  0  0  0  0  0  0  0  0  0  0
   59.2277   31.7902   54.4677 H   0  0  0  0  0  0  0  0  0  0  0  0
   57.5365   31.1848   54.4677 H   0  0  0  0  0  0  0  0  0  0  0  0
   59.9770   29.1960   51.6310 C   0  0  0  0  0  0  0  0  0  0  0  0
   60.5969   28.4382   52.1325 H   0  0  0  0  0  0  0  0  0  0  0  0
   60.0690   29.3650   50.2460 C   0  0  0  0  0  0  0  0  0  0  0  0
   60.7723   28.7492   49.6662 H   0  0  0  0  0  0  0  0  0  0  0  0
   58.3570   30.3340   47.2820 N   0  0  0  0  0  0  0  0  0  0  0  0
   58.7920   30.5540   46.0480 N   0  0  0  0  0  0  0  0  0  0  0  0
   57.9480   30.4660   44.8800 C   0  0  0  0  0  0  0  0  0  0  0  0
   58.1140   31.3390   43.7850 C   0  0  0  0  0  0  0  0  0  0  0  0
   58.9027   32.1053   43.8118 H   0  0  0  0  0  0  0  0  0  0  0  0
   57.2830   31.2370   42.6660 C   0  0  0  0  0  0  0  0  0  0  0  0
   57.4217   31.9218   41.8164 H   0  0  0  0  0  0  0  0  0  0  0  0
   56.2770   30.2690   42.6220 C   0  0  0  0  0  0  0  0  0  0  0  0
   55.6261   30.1907   41.7387 H   0  0  0  0  0  0  0  0  0  0  0  0
   56.0990   29.4010   43.7010 C   0  0  0  0  0  0  0  0  0  0  0  0
   55.3064   28.6390   43.6671 H   0  0  0  0  0  0  0  0  0  0  0  0
   56.9260   29.4980   44.8250 C   0  0  0  0  0  0  0  0  0  0  0  0
   56.7771   28.8130   45.6727 H   0  0  0  0  0  0  0  0  0  0  0  0
   60.1090   30.8570   46.0870 C   0  0  0  0  0  0  0  0  0  0  0  0
   60.7422   31.0844   45.2167 H   0  0  0  0  0  0  0  0  0  0  0  0
  1  2  1  0
  2  3  2  0
  3  4  1  0
  4  5  1  0
  5  6  1  0
  6  7  2  0
  7  8  1  0
  7  9  1  0
  9 10  1  0
  9 11  2  0
 11 12  1  0
 11 13  1  0
 13 14  1  0
 13 15  2  0
 15 16  1  0
  5 17  2  0
 17 18  1  0
 18 19  1  0
 19 20  2  0
  2 21  1  0
 21 22  1  0
 22 23  1  0
 23 24  2  0
 24 25  1  0
 24 26  1  0
 26 27  1  0
 26 28  2  0
 28 29  1  0
 29 30  1  0
 30 31  1  0
 30 32  1  0
 30 33  1  0
 28 34  1  0
 34 35  1  0
 34 36  2  0
 36 37  1  0
 22 38  2  0
 38 39  1  0
 39 40  1  0
 40 41  2  0
 41 42  1  0
 41 43  1  0
 43 44  1  0
 43 45  2  0
 45 46  1  0
 45 47  1  0
 47 48  1  0
 47 49  2  0
 49 50  1  0
 39 51  1  0
 51 52  1  0
 19  4  1  0
 51 21  2  0
 15  6  1  0
 36 23  1  0
 49 40  1  0
M  CHG  1  18  -1
M  END
>  <UniqueID>  (20) 
19

>  <SMILES>  (20) 
COc1ccc(-c2nn(-c3ccccc3)cc2/C=N/n2c(-c3ccccc3)n[n-]c2=S)cc1

>  <Energy>  (20) 
140.0906573118391

>  <Genealogy>  (20) 
COc1ccc(-c2nn(-c3ccccc3)cc2C=Nn2c(-c3ccccc3)n[n-]c2=S)cc1 (protonated)
COc1ccc(-c2nn(-c3ccccc3)cc2/C=N/n2c(-c3ccccc3)n[n-]c2=S)cc1 (cis-trans isomerization)
COc1ccc(-c2nn(-c3ccccc3)cc2/C=N/n2c(-c3ccccc3)n[n-]c2=S)cc1 (3D coordinates assigned)
COc1ccc(-c2nn(-c3ccccc3)cc2/C=N/n2c(-c3ccccc3)n[n-]c2=S)cc1 (optimized conformer: 140.0906573118391 kcal/mol)

>  <smiles>  (20) 
COc1ccc(-c2nn(-c3ccccc3)cc2C=Nn2c(-c3ccccc3)n[nH]c2=S)cc1

>  <score_type>  (20) 
oracle

>  <origin>  (20) 
adg

>  <m_score__min__energy>  (20) 
-10.34

>  <m_primary>  (20) 
energy

$$$$
20:0
     RDKit          3D

 40 42  0  0  0  0  0  0  0  0999 V2000
   63.9360   32.7600   49.7160 C   0  0  0  0  0  0  0  0  0  0  0  0
   63.4550   33.8440   48.8500 N   0  0  0  0  0  0  0  0  0  0  0  0
   62.3090   34.5170   49.4730 C   0  0  0  0  0  0  0  0  0  0  0  0
   62.9710   33.1860   47.3060 S   0  0  0  0  0  0  0  0  0  0  0  0
   63.1640   34.2140   46.2250 O   0  0  0  0  0  0  0  0  0  0  0  0
   63.8070   31.9800   46.9810 O   0  0  0  0  0  0  0  0  0  0  0  0
   61.2820   32.6950   47.3820 C   0  0  0  0  0  0  0  0  0  0  0  0
   60.8110   31.9000   48.4370 C   0  0  0  0  0  0  0  0  0  0  0  0
   59.4800   31.4730   48.4520 C   0  0  0  0  0  0  0  0  0  0  0  0
   58.6210   31.8210   47.4070 C   0  0  0  0  0  0  0  0  0  0  0  0
   59.0900   32.5990   46.3370 C   0  0  0  0  0  0  0  0  0  0  0  0
   58.2430   32.9400   45.2310 N   0  0  0  0  0  0  0  0  0  0  0  0
   57.7910   32.0270   44.2200 C   0  0  0  0  0  0  0  0  0  0  0  0
   57.7560   32.4130   43.0230 O   0  0  0  0  0  0  0  0  0  0  0  0
   57.3510   30.6520   44.5450 C   0  0  0  0  0  0  0  0  0  0  0  0
   56.0160   30.3990   44.5350 N   0  0  0  0  0  0  0  0  0  0  0  0
   55.5150   29.2160   44.8880 N   0  0  0  0  0  0  0  0  0  0  0  0
   56.3110   28.1930   45.2850 C   0  0  0  0  0  0  0  0  0  0  0  0
   55.7850   27.0990   45.6260 O   0  0  0  0  0  0  0  0  0  0  0  0
   57.7050   28.3660   45.3000 C   0  0  0  0  0  0  0  0  0  0  0  0
   58.5680   27.3240   45.6920 C   0  0  0  0  0  0  0  0  0  0  0  0
   59.9520   27.5070   45.6600 C   0  0  0  0  0  0  0  0  0  0  0  0
   60.4890   28.7170   45.2230 C   0  0  0  0  0  0  0  0  0  0  0  0
   59.6460   29.7600   44.8330 C   0  0  0  0  0  0  0  0  0  0  0  0
   58.2440   29.6120   44.8980 C   0  0  0  0  0  0  0  0  0  0  0  0
   60.4130   33.0540   46.3430 C   0  0  0  0  0  0  0  0  0  0  0  0
   63.8080   33.0484   50.7698 H   0  0  0  0  0  0  0  0  0  0  0  0
   63.3592   31.8455   49.5135 H   0  0  0  0  0  0  0  0  0  0  0  0
   65.0011   32.5741   49.5135 H   0  0  0  0  0  0  0  0  0  0  0  0
   62.4023   34.4622   50.5677 H   0  0  0  0  0  0  0  0  0  0  0  0
   62.2877   35.5710   49.1591 H   0  0  0  0  0  0  0  0  0  0  0  0
   61.3781   34.0221   49.1591 H   0  0  0  0  0  0  0  0  0  0  0  0
   61.4896   31.6122   49.2535 H   0  0  0  0  0  0  0  0  0  0  0  0
   59.1086   30.8621   49.2880 H   0  0  0  0  0  0  0  0  0  0  0  0
   57.5739   31.4844   47.4226 H   0  0  0  0  0  0  0  0  0  0  0  0
   58.1501   26.3624   46.0246 H   0  0  0  0  0  0  0  0  0  0  0  0
   60.6203   26.6942   45.9805 H   0  0  0  0  0  0  0  0  0  0  0  0
   61.5802   28.8507   45.1852 H   0  0  0  0  0  0  0  0  0  0  0  0
   60.0785   30.7048   44.4721 H   0  0  0  0  0  0  0  0  0  0  0  0
   60.7733   33.6976   45.5269 H   0  0  0  0  0  0  0  0  0  0  0  0
  1  2  1  0
  2  3  1  0
  2  4  1  0
  4  5  2  0
  4  6  2  0
  4  7  1  0
  7  8  2  0
  8  9  1  0
  9 10  2  0
 10 11  1  0
 11 12  1  0
 12 13  1  0
 13 14  2  0
 13 15  1  0
 15 16  2  0
 16 17  1  0
 17 18  1  0
 18 19  2  0
 18 20  1  0
 20 21  2  0
 21 22  1  0
 22 23  2  0
 23 24  1  0
 24 25  2  0
 11 26  2  0
 26  7  1  0
 25 15  1  0
 25 20  1  0
  1 27  1  0
  1 28  1  0
  1 29  1  0
  3 30  1  0
  3 31  1  0
  3 32  1  0
  8 33  1  0
  9 34  1  0
 10 35  1  0
 21 36  1  0
 22 37  1  0
 23 38  1  0
 24 39  1  0
 26 40  1  0
M  CHG  2  12  -1  17  -1
M  END
>  <UniqueID>  (21) 
20

>  <SMILES>  (21) 
CN(C)S(=O)(=O)c1cccc([N-]C(=O)c2n[n-]c(=O)c3ccccc23)c1

>  <Energy>  (21) 
54.90271547299299

>  <Genealogy>  (21) 
CN(C)S(=O)(=O)c1cccc([N-]C(=O)c2n[n-]c(=O)c3ccccc23)c1 (protonated)
CN(C)S(=O)(=O)c1cccc([N-]C(=O)c2n[n-]c(=O)c3ccccc23)c1 (3D coordinates assigned)
CN(C)S(=O)(=O)c1cccc([N-]C(=O)c2n[n-]c(=O)c3ccccc23)c1 (optimized conformer: 54.90271547299299 kcal/mol)

>  <smiles>  (21) 
CN(C)S(=O)(=O)c1cccc(NC(=O)c2n[nH]c(=O)c3ccccc23)c1

>  <score_type>  (21) 
oracle

>  <origin>  (21) 
adg

>  <m_score__min__energy>  (21) 
-12.56

>  <m_primary>  (21) 
energy

$$$$
21:0
     RDKit          3D

 33 35  0  0  0  0  0  0  0  0999 V2000
   55.4560   29.7170   43.3630 C   0  0  0  0  0  0  0  0  0  0  0  0
   56.6410   29.1210   44.1140 C   0  0  0  0  0  0  0  0  0  0  0  0
   57.4200   30.1950   44.8050 C   0  0  0  0  0  0  0  0  0  0  0  0
   57.0120   31.4860   44.8710 N   0  0  0  0  0  0  0  0  0  0  0  0
   57.9000   32.2620   45.4880 N   0  0  0  0  0  0  0  0  0  0  0  0
   57.7470   33.5940   45.7060 C   0  0  0  0  0  0  0  0  0  0  0  0
   56.7090   34.1950   45.3190 O   0  0  0  0  0  0  0  0  0  0  0  0
   58.7630   34.2890   46.3730 C   0  0  0  0  0  0  0  0  0  0  0  0
   59.9090   33.5840   46.7910 C   0  0  0  0  0  0  0  0  0  0  0  0
   60.9990   34.2790   47.5500 C   0  0  0  0  0  0  0  0  0  0  0  0
   62.6440   33.8400   46.8870 S   0  0  0  0  0  0  0  0  0  0  0  0
   63.3540   33.4450   48.4850 C   0  0  0  0  0  0  0  0  0  0  0  0
   64.5990   32.9570   48.6580 N   0  0  0  0  0  0  0  0  0  0  0  0
   64.8910   32.7360   49.9690 C   0  0  0  0  0  0  0  0  0  0  0  0
   66.1890   32.1380   50.4080 C   0  0  0  0  0  0  0  0  0  0  0  0
   63.8570   33.0390   50.8550 C   0  0  0  0  0  0  0  0  0  0  0  0
   62.5570   33.6200   49.9560 S   0  0  0  0  0  0  0  0  0  0  0  0
   60.0110   32.2460   46.5450 N   0  0  0  0  0  0  0  0  0  0  0  0
   59.0070   31.6090   45.8980 C   0  0  0  0  0  0  0  0  0  0  0  0
   58.9490   29.9760   45.5100 S   0  0  0  0  0  0  0  0  0  0  0  0
   54.7145   30.0900   44.0848 H   0  0  0  0  0  0  0  0  0  0  0  0
   55.8027   30.5479   42.7311 H   0  0  0  0  0  0  0  0  0  0  0  0
   54.9956   28.9432   42.7311 H   0  0  0  0  0  0  0  0  0  0  0  0
   56.2715   28.4041   44.8620 H   0  0  0  0  0  0  0  0  0  0  0  0
   57.2989   28.6134   43.3932 H   0  0  0  0  0  0  0  0  0  0  0  0
   58.6681   35.3675   46.5675 H   0  0  0  0  0  0  0  0  0  0  0  0
   60.8570   35.3667   47.4678 H   0  0  0  0  0  0  0  0  0  0  0  0
   60.9499   33.9614   48.6020 H   0  0  0  0  0  0  0  0  0  0  0  0
   65.2570   32.7600   47.8700 H   0  0  0  0  0  0  0  0  0  0  0  0
   66.2308   32.1188   51.5070 H   0  0  0  0  0  0  0  0  0  0  0  0
   66.2698   31.1119   50.0200 H   0  0  0  0  0  0  0  0  0  0  0  0
   67.0215   32.7434   50.0200 H   0  0  0  0  0  0  0  0  0  0  0  0
   63.8858   32.9195   51.9481 H   0  0  0  0  0  0  0  0  0  0  0  0
  1  2  1  0
  2  3  1  0
  3  4  2  0
  4  5  1  0
  5  6  1  0
  6  7  2  0
  6  8  1  0
  8  9  2  0
  9 10  1  0
 10 11  1  0
 11 12  1  0
 12 13  2  0
 13 14  1  0
 14 15  1  0
 14 16  2  0
 16 17  1  0
  9 18  1  0
 18 19  2  0
 19 20  1  0
 20  3  1  0
 19  5  1  0
 17 12  1  0
  1 21  1  0
  1 22  1  0
  1 23  1  0
  2 24  1  0
  2 25  1  0
  8 26  1  0
 10 27  1  0
 10 28  1  0
 13 29  1  0
 15 30  1  0
 15 31  1  0
 15 32  1  0
 16 33  1  0
M  CHG  1  13   1
M  END
>  <UniqueID>  (22) 
21

>  <SMILES>  (22) 
CCc1nn2c(=O)cc(CSc3[nH+]c(C)cs3)nc2s1

>  <Energy>  (22) 
91.44078182906605

>  <Genealogy>  (22) 
CCc1nn2c(=O)cc(CSc3[nH+]c(C)cs3)nc2s1 (protonated)
CCc1nn2c(=O)cc(CSc3[nH+]c(C)cs3)nc2s1 (3D coordinates assigned)
CCc1nn2c(=O)cc(CSc3[nH+]c(C)cs3)nc2s1 (optimized conformer: 91.44078182906605 kcal/mol)

>  <smiles>  (22) 
CCc1nn2c(=O)cc(CSc3nc(C)cs3)nc2s1

>  <score_type>  (22) 
oracle

>  <origin>  (22) 
adg

>  <m_score__min__energy>  (22) 
-6.6200000000000001

>  <m_primary>  (22) 
energy

$$$$
22:0
     RDKit          3D

 43 46  0  0  1  0  0  0  0  0999 V2000
   63.7140   32.7630   47.2750 C   0  0  0  0  0  0  0  0  0  0  0  0
   62.7920   31.9130   47.8780 C   0  0  0  0  0  0  0  0  0  0  0  0
   61.4320   32.1490   47.7110 C   0  0  0  0  0  0  0  0  0  0  0  0
   61.0250   33.2260   46.9500 C   0  0  0  0  0  0  0  0  0  0  0  0
   59.5650   33.4650   46.7830 C   0  0  0  0  0  0  0  0  0  0  0  0
   58.9830   32.7230   45.7230 N   0  0  0  0  0  0  0  0  0  0  0  0
   58.1860   33.4700   44.8150 C   0  0  0  0  0  0  0  0  0  0  0  0
   58.0120   32.8120   43.4730 C   0  0  0  0  0  0  0  0  0  0  0  0
   57.5100   31.4210   43.7550 C   0  0  0  0  0  0  0  0  0  0  0  0
   56.8450   30.7790   42.7530 N   0  0  0  0  0  0  0  0  0  0  0  0
   56.3800   29.5270   42.9720 C   0  0  0  0  0  0  0  0  0  0  0  0
   56.5830   28.9470   44.1640 N   0  0  0  0  0  0  0  0  0  0  0  0
   57.2210   29.5340   45.1600 C   0  0  0  0  0  0  0  0  0  0  0  0
   57.3870   28.9350   46.2780 N   0  0  0  0  0  0  0  0  0  0  0  0
   57.9400   27.6210   46.4520 C   0  0  0  0  0  0  0  0  0  0  0  0
   57.0170   26.5260   46.0660 C   0  0  0  0  0  0  0  0  0  0  0  0
   57.2650   25.2160   45.7430 C   0  0  0  0  0  0  0  0  0  0  0  0
   56.0730   24.6060   45.4600 C   0  0  0  0  0  0  0  0  0  0  0  0
   55.1080   25.5880   45.6230 C   0  0  0  0  0  0  0  0  0  0  0  0
   55.7160   26.6920   45.9790 O   0  0  0  0  0  0  0  0  0  0  0  0
   57.7100   30.8110   44.9760 C   0  0  0  0  0  0  0  0  0  0  0  0
   58.4260   31.4560   46.1060 C   0  0  0  0  0  0  0  0  0  0  0  0
   61.9380   34.0410   46.3740 N   0  0  0  0  0  0  0  0  0  0  0  0
   63.2760   33.8430   46.5140 C   0  0  0  0  0  0  0  0  0  0  0  0
   64.7916   32.5810   47.4000 H   0  0  0  0  0  0  0  0  0  0  0  0
   63.1365   31.0608   48.4822 H   0  0  0  0  0  0  0  0  0  0  0  0
   60.6899   31.4858   48.1794 H   0  0  0  0  0  0  0  0  0  0  0  0
   59.0585   33.1884   47.7195 H   0  0  0  0  0  0  0  0  0  0  0  0
   59.4398   34.5297   46.5366 H   0  0  0  0  0  0  0  0  0  0  0  0
   57.1913   33.6118   45.2628 H   0  0  0  0  0  0  0  0  0  0  0  0
   58.7092   34.4214   44.6388 H   0  0  0  0  0  0  0  0  0  0  0  0
   57.2805   33.3669   42.8672 H   0  0  0  0  0  0  0  0  0  0  0  0
   58.9557   32.7930   42.9081 H   0  0  0  0  0  0  0  0  0  0  0  0
   55.8399   28.9895   42.1787 H   0  0  0  0  0  0  0  0  0  0  0  0
   56.2150   27.9920   44.2970 H   0  0  0  0  0  0  0  0  0  0  0  0
   58.8477   27.5426   45.8357 H   0  0  0  0  0  0  0  0  0  0  0  0
   58.1476   27.5009   47.5255 H   0  0  0  0  0  0  0  0  0  0  0  0
   58.2548   24.7368   45.7160 H   0  0  0  0  0  0  0  0  0  0  0  0
   55.9142   23.5581   45.1655 H   0  0  0  0  0  0  0  0  0  0  0  0
   54.0247   25.4623   45.4790 H   0  0  0  0  0  0  0  0  0  0  0  0
   57.7191   31.6122   46.9342 H   0  0  0  0  0  0  0  0  0  0  0  0
   59.2505   30.7958   46.4133 H   0  0  0  0  0  0  0  0  0  0  0  0
   63.9972   34.5222   46.0358 H   0  0  0  0  0  0  0  0  0  0  0  0
  1  2  2  0
  2  3  1  0
  3  4  2  0
  4  5  1  0
  5  6  1  0
  6  7  1  0
  7  8  1  0
  8  9  1  0
  9 10  1  0
 10 11  2  0
 11 12  1  0
 12 13  1  0
 13 14  2  0
 14 15  1  0
 15 16  1  0
 16 17  2  0
 17 18  1  0
 18 19  2  0
 19 20  1  0
 13 21  1  0
 21 22  1  0
  4 23  1  0
 23 24  2  0
 24  1  1  0
 22  6  1  0
 21  9  2  0
 20 16  1  0
  1 25  1  0
  2 26  1  0
  3 27  1  0
  5 28  1  0
  5 29  1  0
  7 30  1  0
  7 31  1  0
  8 32  1  0
  8 33  1  0
 11 34  1  0
 12 35  1  0
 15 36  1  0
 15 37  1  0
 17 38  1  0
 18 39  1  0
 19 40  1  0
 22 41  1  0
 22 42  1  0
 24 43  1  0
M  END
>  <smiles>  (23) 
c1ccc(CN2CCc3nc[nH]c(=NCc4ccco4)c3C2)nc1

>  <score_type>  (23) 
oracle

>  <origin>  (23) 
adg

>  <m_score__min__energy>  (23) 
-8.1099999999999994

>  <m_primary>  (23) 
energy

$$$$
23:0
     RDKit          3D

 39 42  0  0  0  0  0  0  0  0999 V2000
   59.7160   35.6380   45.7080 C   0  0  0  0  0  0  0  0  0  0  0  0
   59.2970   34.3310   46.2050 N   0  0  0  0  0  0  0  0  0  0  0  0
   59.3200   33.8700   47.4800 C   0  0  0  0  0  0  0  0  0  0  0  0
   59.7910   34.5220   48.4500 O   0  0  0  0  0  0  0  0  0  0  0  0
   58.7890   32.6660   47.6050 O   0  0  0  0  0  0  0  0  0  0  0  0
   58.3960   32.3280   46.3990 C   0  0  0  0  0  0  0  0  0  0  0  0
   57.7620   31.1600   45.9880 C   0  0  0  0  0  0  0  0  0  0  0  0
   57.4220   31.0420   44.6240 C   0  0  0  0  0  0  0  0  0  0  0  0
   56.5900   29.5960   44.0580 S   0  0  0  0  0  0  0  0  0  0  0  0
   55.1540   29.6180   44.5020 O   0  0  0  0  0  0  0  0  0  0  0  0
   56.6230   29.5670   42.5560 O   0  0  0  0  0  0  0  0  0  0  0  0
   57.3700   28.1710   44.6740 N   0  0  0  0  0  0  0  0  0  0  0  0
   58.8160   28.2670   44.4670 C   0  0  0  0  0  0  0  0  0  0  0  0
   59.4760   28.7420   45.7300 C   0  0  0  0  0  0  0  0  0  0  0  0
   59.0240   28.2720   46.9910 C   0  0  0  0  0  0  0  0  0  0  0  0
   59.6130   28.7400   48.1800 C   0  0  0  0  0  0  0  0  0  0  0  0
   60.6360   29.6770   48.0720 C   0  0  0  0  0  0  0  0  0  0  0  0
   61.0650   30.1400   46.8710 C   0  0  0  0  0  0  0  0  0  0  0  0
   60.5090   29.7030   45.6720 C   0  0  0  0  0  0  0  0  0  0  0  0
   62.0780   31.0580   47.0660 O   0  0  0  0  0  0  0  0  0  0  0  0
   62.3010   31.1790   48.4780 C   0  0  0  0  0  0  0  0  0  0  0  0
   61.3590   30.2810   49.0830 O   0  0  0  0  0  0  0  0  0  0  0  0
   57.7190   32.0980   43.7230 C   0  0  0  0  0  0  0  0  0  0  0  0
   58.3620   33.2650   44.1750 C   0  0  0  0  0  0  0  0  0  0  0  0
   58.6920   33.3380   45.5280 C   0  0  0  0  0  0  0  0  0  0  0  0
   59.9290   36.3025   46.5583 H   0  0  0  0  0  0  0  0  0  0  0  0
   60.6226   35.5240   45.0956 H   0  0  0  0  0  0  0  0  0  0  0  0
   58.9121   36.0724   45.0956 H   0  0  0  0  0  0  0  0  0  0  0  0
   57.5335   30.3555   46.7025 H   0  0  0  0  0  0  0  0  0  0  0  0
   57.0130   27.3640   44.1110 H   0  0  0  0  0  0  0  0  0  0  0  0
   59.2134   27.2777   44.1961 H   0  0  0  0  0  0  0  0  0  0  0  0
   59.0221   28.9815   43.6564 H   0  0  0  0  0  0  0  0  0  0  0  0
   58.2074   27.5366   47.0389 H   0  0  0  0  0  0  0  0  0  0  0  0
   59.2760   28.3772   49.1622 H   0  0  0  0  0  0  0  0  0  0  0  0
   60.8640   30.0949   44.7074 H   0  0  0  0  0  0  0  0  0  0  0  0
   63.3307   30.8879   48.7328 H   0  0  0  0  0  0  0  0  0  0  0  0
   62.1691   32.2131   48.8292 H   0  0  0  0  0  0  0  0  0  0  0  0
   57.4440   32.0031   42.6622 H   0  0  0  0  0  0  0  0  0  0  0  0
   58.5960   34.0900   43.4861 H   0  0  0  0  0  0  0  0  0  0  0  0
  1  2  1  0
  2  3  1  0
  3  4  2  0
  3  5  1  0
  5  6  1  0
  6  7  2  0
  7  8  1  0
  8  9  1  0
  9 10  2  0
  9 11  2  0
  9 12  1  0
 12 13  1  0
 13 14  1  0
 14 15  2  0
 15 16  1  0
 16 17  2  0
 17 18  1  0
 18 19  2  0
 18 20  1  0
 20 21  1  0
 21 22  1  0
  8 23  2  0
 23 24  1  0
 24 25  2  0
 25  2  1  0
 25  6  1  0
 19 14  1  0
 22 17  1  0
  1 26  1  0
  1 27  1  0
  1 28  1  0
  7 29  1  0
 12 30  1  0
 13 31  1  0
 13 32  1  0
 15 33  1  0
 16 34  1  0
 19 35  1  0
 21 36  1  0
 21 37  1  0
 23 38  1  0
 24 39  1  0
M  END
>  <UniqueID>  (24) 
22

>  <SMILES>  (24) 
Cn1c(=O)oc2cc(S(=O)(=O)NCc3ccc4c(c3)OCO4)ccc21

>  <Energy>  (24) 
108.53195695137521

>  <Genealogy>  (24) 
Cn1c(=O)oc2cc(S(=O)(=O)NCc3ccc4c(c3)OCO4)ccc21 (3D coordinates assigned)
Cn1c(=O)oc2cc(S(=O)(=O)NCc3ccc4c(c3)OCO4)ccc21 (nonaromatic ring conformer: 108.53195695137521 kcal/mol)

>  <smiles>  (24) 
Cn1c(=O)oc2cc(S(=O)(=O)NCc3ccc4c(c3)OCO4)ccc21

>  <score_type>  (24) 
oracle

>  <origin>  (24) 
adg

>  <m_score__min__energy>  (24) 
-8.8000000000000007

>  <m_primary>  (24) 
energy

$$$$
24:0
     RDKit          3D

 27 29  0  0  0  0  0  0  0  0999 V2000
   56.2920   29.6760   42.6960 C   0  0  0  0  0  0  0  0  0  0  0  0
   55.1560   29.7200   43.7040 C   0  0  0  0  0  0  0  0  0  0  0  0
   55.5160   28.9710   44.8610 O   0  0  0  0  0  0  0  0  0  0  0  0
   56.8430   28.7830   45.2540 C   0  0  0  0  0  0  0  0  0  0  0  0
   57.3290   27.6230   45.3440 O   0  0  0  0  0  0  0  0  0  0  0  0
   57.6750   29.9520   45.5630 C   0  0  0  0  0  0  0  0  0  0  0  0
   58.9440   29.9140   46.1440 C   0  0  0  0  0  0  0  0  0  0  0  0
   59.3260   31.1900   46.2420 N   0  0  0  0  0  0  0  0  0  0  0  0
   58.3490   31.9310   45.7520 C   0  0  0  0  0  0  0  0  0  0  0  0
   57.2860   31.2360   45.3080 N   0  0  0  0  0  0  0  0  0  0  0  0
   58.6740   33.5870   45.8010 S   0  0  0  0  0  0  0  0  0  0  0  0
   60.1990   33.2740   46.5140 C   0  0  0  0  0  0  0  0  0  0  0  0
   61.1760   34.1860   46.9050 C   0  0  0  0  0  0  0  0  0  0  0  0
   62.3610   33.6880   47.4750 C   0  0  0  0  0  0  0  0  0  0  0  0
   62.5490   32.3010   47.6440 C   0  0  0  0  0  0  0  0  0  0  0  0
   61.5540   31.3910   47.2450 C   0  0  0  0  0  0  0  0  0  0  0  0
   60.3850   31.8990   46.6810 C   0  0  0  0  0  0  0  0  0  0  0  0
   57.2537   29.6388   43.2287 H   0  0  0  0  0  0  0  0  0  0  0  0
   56.1876   28.7812   42.0647 H   0  0  0  0  0  0  0  0  0  0  0  0
   56.2571   30.5762   42.0647 H   0  0  0  0  0  0  0  0  0  0  0  0
   54.9601   30.7640   43.9898 H   0  0  0  0  0  0  0  0  0  0  0  0
   54.2508   29.2859   43.2542 H   0  0  0  0  0  0  0  0  0  0  0  0
   59.5089   29.0228   46.4549 H   0  0  0  0  0  0  0  0  0  0  0  0
   61.0247   35.2673   46.7715 H   0  0  0  0  0  0  0  0  0  0  0  0
   63.1488   34.3872   47.7920 H   0  0  0  0  0  0  0  0  0  0  0  0
   63.4818   31.9276   48.0917 H   0  0  0  0  0  0  0  0  0  0  0  0
   61.6944   30.3077   47.3745 H   0  0  0  0  0  0  0  0  0  0  0  0
  1  2  1  0
  2  3  1  0
  3  4  1  0
  4  5  2  0
  4  6  1  0
  6  7  2  0
  7  8  1  0
  8  9  1  0
  9 10  2  0
  9 11  1  0
 11 12  1  0
 12 13  2  0
 13 14  1  0
 14 15  2  0
 15 16  1  0
 16 17  2  0
 10  6  1  0
 17 12  1  0
 17  8  1  0
  1 18  1  0
  1 19  1  0
  1 20  1  0
  2 21  1  0
  2 22  1  0
  7 23  1  0
 13 24  1  0
 14 25  1  0
 15 26  1  0
 16 27  1  0
M  END
>  <UniqueID>  (25) 
23

>  <SMILES>  (25) 
CCOC(=O)c1cn2c(n1)sc1ccccc12

>  <Energy>  (25) 
106.7197282541357

>  <Genealogy>  (25) 
CCOC(=O)c1cn2c(n1)sc1ccccc12 (3D coordinates assigned)
CCOC(=O)c1cn2c(n1)sc1ccccc12 (optimized conformer: 106.7197282541357 kcal/mol)

>  <smiles>  (25) 
CCOC(=O)c1cn2c(n1)sc1ccccc12

>  <score_type>  (25) 
oracle

>  <origin>  (25) 
adg

>  <m_score__min__energy>  (25) 
-6.29

>  <m_primary>  (25) 
energy

$$$$
25:0
     RDKit          3D

 43 45  0  0  0  0  0  0  0  0999 V2000
   58.2038   20.8592   42.8419 H   0  0  0  0  0  0  0  0  0  0  0  0
   57.6120   21.5850   43.4190 C   0  0  0  0  0  0  0  0  0  0  0  0
   56.5590   22.2700   42.8090 C   0  0  0  0  0  0  0  0  0  0  0  0
   56.3140   22.0741   41.7547 H   0  0  0  0  0  0  0  0  0  0  0  0
   55.8160   23.2040   43.5360 C   0  0  0  0  0  0  0  0  0  0  0  0
   54.9792   23.7322   43.0556 H   0  0  0  0  0  0  0  0  0  0  0  0
   56.1330   23.4700   44.8740 C   0  0  0  0  0  0  0  0  0  0  0  0
   55.3610   24.4320   45.6010 N   0  0  0  0  0  0  0  0  0  0  0  0
   55.8540   25.6760   46.1160 C   0  0  0  0  0  0  0  0  0  0  0  0
   55.1470   26.7110   45.9830 O   0  0  0  0  0  0  0  0  0  0  0  0
   57.2170   25.7990   46.7480 C   0  0  0  0  0  0  0  0  0  0  0  0
   57.7807   24.8711   46.5712 H   0  0  0  0  0  0  0  0  0  0  0  0
   57.0890   25.9723   47.8267 H   0  0  0  0  0  0  0  0  0  0  0  0
   57.9630   26.9320   46.1760 N   0  0  0  0  0  0  0  0  0  0  0  0
   59.3130   26.8330   45.9570 C   0  0  0  0  0  0  0  0  0  0  0  0
   59.9310   25.7590   46.1930 O   0  0  0  0  0  0  0  0  0  0  0  0
   60.0170   27.9310   45.4670 C   0  0  0  0  0  0  0  0  0  0  0  0
   61.0982   27.8573   45.2784 H   0  0  0  0  0  0  0  0  0  0  0  0
   59.3430   29.1180   45.2190 C   0  0  0  0  0  0  0  0  0  0  0  0
   59.8864   29.9966   44.8411 H   0  0  0  0  0  0  0  0  0  0  0  0
   57.9610   29.1870   45.4550 C   0  0  0  0  0  0  0  0  0  0  0  0
   57.2700   30.2770   45.2510 N   0  0  0  0  0  0  0  0  0  0  0  0
   57.7240   31.6300   45.4110 C   0  0  0  0  0  0  0  0  0  0  0  0
   57.4620   32.5550   44.3910 C   0  0  0  0  0  0  0  0  0  0  0  0
   56.9401   32.2304   43.4787 H   0  0  0  0  0  0  0  0  0  0  0  0
   57.8600   33.8860   44.5270 C   0  0  0  0  0  0  0  0  0  0  0  0
   57.6662   34.6031   43.7157 H   0  0  0  0  0  0  0  0  0  0  0  0
   58.5040   34.3080   45.6920 C   0  0  0  0  0  0  0  0  0  0  0  0
   58.8263   35.3549   45.7927 H   0  0  0  0  0  0  0  0  0  0  0  0
   58.7400   33.4020   46.7310 C   0  0  0  0  0  0  0  0  0  0  0  0
   59.2409   33.7409   47.6498 H   0  0  0  0  0  0  0  0  0  0  0  0
   58.3390   32.0570   46.6060 C   0  0  0  0  0  0  0  0  0  0  0  0
   58.5210   31.1290   47.6440 O   0  0  0  0  0  0  0  0  0  0  0  0
   59.7710   30.8390   48.2590 C   0  0  0  0  0  0  0  0  0  0  0  0
   59.6565   30.8656   49.3527 H   0  0  0  0  0  0  0  0  0  0  0  0
   60.1084   29.8387   47.9499 H   0  0  0  0  0  0  0  0  0  0  0  0
   60.5144   31.5885   47.9499 H   0  0  0  0  0  0  0  0  0  0  0  0
   57.3140   28.0720   45.8930 N   0  0  0  0  0  0  0  0  0  0  0  0
   56.2800   28.1290   46.0370 H   0  0  0  0  0  0  0  0  0  0  0  0
   57.1700   22.7540   45.4950 C   0  0  0  0  0  0  0  0  0  0  0  0
   57.3971   22.9265   46.5574 H   0  0  0  0  0  0  0  0  0  0  0  0
   57.9140   21.8220   44.7640 C   0  0  0  0  0  0  0  0  0  0  0  0
   58.7371   21.2751   45.2472 H   0  0  0  0  0  0  0  0  0  0  0  0
  1  2  1  0
  2  3  2  0
  3  4  1  0
  3  5  1  0
  5  6  1  0
  5  7  2  0
  7  8  1  0
  8  9  1  0
  9 10  2  0
  9 11  1  0
 11 12  1  0
 11 13  1  0
 11 14  1  0
 14 15  1  0
 15 16  2  0
 15 17  1  0
 17 18  1  0
 17 19  2  0
 19 20  1  0
 19 21  1  0
 21 22  2  0
 22 23  1  0
 23 24  2  0
 24 25  1  0
 24 26  1  0
 26 27  1  0
 26 28  2  0
 28 29  1  0
 28 30  1  0
 30 31  1  0
 30 32  2  0
 32 33  1  0
 33 34  1  0
 34 35  1  0
 34 36  1  0
 34 37  1  0
 21 38  1  0
 38 39  1  0
  7 40  1  0
 40 41  1  0
 40 42  2  0
 42 43  1  0
 42  2  1  0
 38 14  1  0
 32 23  1  0
M  CHG  1   8  -1
M  END
>  <UniqueID>  (26) 
24

>  <SMILES>  (26) 
COc1ccccc1/N=c1\ccc(=O)n(CC(=O)[N-]c2ccccc2)[nH]1

>  <Energy>  (26) 
58.589136805540086

>  <Genealogy>  (26) 
COc1ccccc1N=c1ccc(=O)n(CC(=O)[N-]c2ccccc2)[nH]1 (protonated)
COc1ccccc1/N=c1\ccc(=O)n(CC(=O)[N-]c2ccccc2)[nH]1 (cis-trans isomerization)
COc1ccccc1/N=c1\ccc(=O)n(CC(=O)[N-]c2ccccc2)[nH]1 (3D coordinates assigned)
COc1ccccc1/N=c1\ccc(=O)n(CC(=O)[N-]c2ccccc2)[nH]1 (optimized conformer: 58.589136805540086 kcal/mol)

>  <smiles>  (26) 
COc1ccccc1N=c1ccc(=O)n(CC(=O)Nc2ccccc2)[nH]1

>  <score_type>  (26) 
oracle

>  <origin>  (26) 
adg

>  <m_score__min__energy>  (26) 
-9.7100000000000009

>  <m_primary>  (26) 
energy

$$$$
26:0
     RDKit          3D

 30 32  0  0  0  0  0  0  0  0999 V2000
   52.0120   23.4490   45.1700 H   0  0  0  0  0  0  0  0  0  0  0  0
   52.8920   22.9110   45.3380 N   0  0  0  0  0  0  0  0  0  0  0  0
   53.9760   23.4960   45.7290 C   0  0  0  0  0  0  0  0  0  0  0  0
   54.9820   22.7520   46.2950 N   0  0  0  0  0  0  0  0  0  0  0  0
   56.1440   23.3340   46.7130 C   0  0  0  0  0  0  0  0  0  0  0  0
   57.0630   22.6410   47.2220 O   0  0  0  0  0  0  0  0  0  0  0  0
   56.2760   24.7060   46.5530 C   0  0  0  0  0  0  0  0  0  0  0  0
   57.3150   25.5020   46.8420 N   0  0  0  0  0  0  0  0  0  0  0  0
   56.8620   26.7170   46.4260 C   0  0  0  0  0  0  0  0  0  0  0  0
   57.8730   28.1950   46.4760 S   0  0  0  0  0  0  0  0  0  0  0  0
   57.4450   28.7410   44.7840 C   0  0  0  0  0  0  0  0  0  0  0  0
   58.3291   29.2052   44.3225 H   0  0  0  0  0  0  0  0  0  0  0  0
   57.1216   27.8626   44.2062 H   0  0  0  0  0  0  0  0  0  0  0  0
   56.3260   29.7340   44.8020 C   0  0  0  0  0  0  0  0  0  0  0  0
   55.1560   29.3560   45.0810 O   0  0  0  0  0  0  0  0  0  0  0  0
   56.6020   31.1060   44.4920 N   0  0  0  0  0  0  0  0  0  0  0  0
   57.4000   32.0180   45.2600 C   0  0  0  0  0  0  0  0  0  0  0  0
   58.1560   31.5130   46.3250 C   0  0  0  0  0  0  0  0  0  0  0  0
   58.0913   30.4455   46.5826 H   0  0  0  0  0  0  0  0  0  0  0  0
   58.9920   32.3550   47.0630 C   0  0  0  0  0  0  0  0  0  0  0  0
   59.5751   31.9510   47.9037 H   0  0  0  0  0  0  0  0  0  0  0  0
   59.0880   33.7100   46.7340 C   0  0  0  0  0  0  0  0  0  0  0  0
   59.9030   34.5250   47.4470 F   0  0  0  0  0  0  0  0  0  0  0  0
   58.3530   34.2200   45.6610 C   0  0  0  0  0  0  0  0  0  0  0  0
   58.4337   35.2849   45.3976 H   0  0  0  0  0  0  0  0  0  0  0  0
   57.5150   33.3800   44.9210 C   0  0  0  0  0  0  0  0  0  0  0  0
   56.9442   33.7841   44.0720 H   0  0  0  0  0  0  0  0  0  0  0  0
   55.6070   26.7130   45.9010 N   0  0  0  0  0  0  0  0  0  0  0  0
   55.2730   25.4220   46.0010 C   0  0  0  0  0  0  0  0  0  0  0  0
   54.1210   24.8500   45.5770 N   0  0  0  0  0  0  0  0  0  0  0  0
  1  2  1  0
  2  3  2  0
  3  4  1  0
  4  5  1  0
  5  6  2  0
  5  7  1  0
  7  8  1  0
  8  9  1  0
  9 10  1  0
 10 11  1  0
 11 12  1  0
 11 13  1  0
 11 14  1  0
 14 15  2  0
 14 16  1  0
 16 17  1  0
 17 18  2  0
 18 19  1  0
 18 20  1  0
 20 21  1  0
 20 22  2  0
 22 23  1  0
 22 24  1  0
 24 25  1  0
 24 26  2  0
 26 27  1  0
  9 28  2  0
 28 29  1  0
 29 30  1  0
 30  3  1  0
 29  7  2  0
 26 17  1  0
M  CHG  4   4  -1   8  -1  16  -1  30  -1
M  END
>  <UniqueID>  (27) 
25

>  <SMILES>  (27) 
[H]/N=c1/[n-]c(=O)c2[n-]c(SCC(=O)[N-]c3ccc(F)cc3)nc2[n-]1

>  <Energy>  (27) 
67.904886776867

>  <Genealogy>  (27) 
N=c1[n-]c(=O)c2[n-]c(SCC(=O)[N-]c3ccc(F)cc3)nc2[n-]1 (protonated)
[H]/N=c1/[n-]c(=O)c2[n-]c(SCC(=O)[N-]c3ccc(F)cc3)nc2[n-]1 (cis-trans isomerization)
[H]/N=c1/[n-]c(=O)c2[n-]c(SCC(=O)[N-]c3ccc(F)cc3)nc2[n-]1 (3D coordinates assigned)
[H]/N=c1/[n-]c(=O)c2[n-]c(SCC(=O)[N-]c3ccc(F)cc3)nc2[n-]1 (optimized conformer: 67.904886776867 kcal/mol)

>  <smiles>  (27) 
N=c1[nH]c(=O)c2[nH]c(SCC(=O)Nc3ccc(F)cc3)nc2[nH]1

>  <score_type>  (27) 
oracle

>  <origin>  (27) 
adg

>  <m_score__min__energy>  (27) 
-14.58

>  <m_primary>  (27) 
energy

$$$$
27:0
     RDKit          3D

 39 40  0  0  0  0  0  0  0  0999 V2000
   56.6940   24.4550   44.1170 C   0  0  0  0  0  0  0  0  0  0  0  0
   56.7160   24.6630   45.6280 C   0  0  0  0  0  0  0  0  0  0  0  0
   55.9920   25.9270   46.0040 C   0  0  0  0  0  0  0  0  0  0  0  0
   54.7350   25.9430   45.9440 O   0  0  0  0  0  0  0  0  0  0  0  0
   56.6710   27.1120   46.4450 N   0  0  0  0  0  0  0  0  0  0  0  0
   57.9300   27.6510   45.9250 C   0  0  0  0  0  0  0  0  0  0  0  0
   57.8860   27.6310   44.3830 C   0  0  0  0  0  0  0  0  0  0  0  0
   57.3560   28.9590   43.8330 C   0  0  0  0  0  0  0  0  0  0  0  0
   58.2580   30.0840   44.1710 N   0  0  0  0  0  0  0  0  0  0  0  0
   57.3910   31.5970   44.0680 S   0  0  0  0  0  0  0  0  0  0  0  0
   55.9660   31.3950   44.5060 O   0  0  0  0  0  0  0  0  0  0  0  0
   57.3880   32.0940   42.6480 O   0  0  0  0  0  0  0  0  0  0  0  0
   58.1410   32.7950   45.1200 C   0  0  0  0  0  0  0  0  0  0  0  0
   58.9050   33.8300   44.5650 C   0  0  0  0  0  0  0  0  0  0  0  0
   59.4860   34.7960   45.3910 C   0  0  0  0  0  0  0  0  0  0  0  0
   59.3040   34.7350   46.7760 C   0  0  0  0  0  0  0  0  0  0  0  0
   58.5370   33.7080   47.3350 C   0  0  0  0  0  0  0  0  0  0  0  0
   57.9540   32.7410   46.5100 C   0  0  0  0  0  0  0  0  0  0  0  0
   58.9450   29.9510   45.4790 C   0  0  0  0  0  0  0  0  0  0  0  0
   58.1690   29.0770   46.4770 C   0  0  0  0  0  0  0  0  0  0  0  0
   56.5807   23.3834   43.8960 H   0  0  0  0  0  0  0  0  0  0  0  0
   55.8496   25.0103   43.6827 H   0  0  0  0  0  0  0  0  0  0  0  0
   57.6359   24.8213   43.6827 H   0  0  0  0  0  0  0  0  0  0  0  0
   56.2263   23.8079   46.1169 H   0  0  0  0  0  0  0  0  0  0  0  0
   57.7623   24.7448   45.9574 H   0  0  0  0  0  0  0  0  0  0  0  0
   58.7744   27.0288   46.2564 H   0  0  0  0  0  0  0  0  0  0  0  0
   58.9015   27.4608   43.9961 H   0  0  0  0  0  0  0  0  0  0  0  0
   57.2115   26.8237   44.0615 H   0  0  0  0  0  0  0  0  0  0  0  0
   57.2716   28.8847   42.7388 H   0  0  0  0  0  0  0  0  0  0  0  0
   56.3741   29.1545   44.2887 H   0  0  0  0  0  0  0  0  0  0  0  0
   59.0480   33.8824   43.4756 H   0  0  0  0  0  0  0  0  0  0  0  0
   60.0872   35.6053   44.9511 H   0  0  0  0  0  0  0  0  0  0  0  0
   59.7639   35.4944   47.4255 H   0  0  0  0  0  0  0  0  0  0  0  0
   58.3921   33.6608   48.4244 H   0  0  0  0  0  0  0  0  0  0  0  0
   57.3476   31.9364   46.9514 H   0  0  0  0  0  0  0  0  0  0  0  0
   59.9337   29.4989   45.3116 H   0  0  0  0  0  0  0  0  0  0  0  0
   59.0233   30.9582   45.9142 H   0  0  0  0  0  0  0  0  0  0  0  0
   58.7453   29.0055   47.4112 H   0  0  0  0  0  0  0  0  0  0  0  0
   57.1892   29.5451   46.6526 H   0  0  0  0  0  0  0  0  0  0  0  0
  1  2  1  0
  2  3  1  0
  3  4  2  0
  3  5  1  0
  5  6  1  0
  6  7  1  0
  7  8  1  0
  8  9  1  0
  9 10  1  0
 10 11  2  0
 10 12  2  0
 10 13  1  0
 13 14  2  0
 14 15  1  0
 15 16  2  0
 16 17  1  0
 17 18  2  0
  9 19  1  0
 19 20  1  0
 20  6  1  0
 18 13  1  0
  1 21  1  0
  1 22  1  0
  1 23  1  0
  2 24  1  0
  2 25  1  0
  6 26  1  0
  7 27  1  0
  7 28  1  0
  8 29  1  0
  8 30  1  0
 14 31  1  0
 15 32  1  0
 16 33  1  0
 17 34  1  0
 18 35  1  0
 19 36  1  0
 19 37  1  0
 20 38  1  0
 20 39  1  0
M  CHG  1   5  -1
M  END
>  <UniqueID>  (28) 
26

>  <SMILES>  (28) 
CCC(=O)[N-]C1CCN(S(=O)(=O)c2ccccc2)CC1

>  <Energy>  (28) 
39.662215098978514

>  <Genealogy>  (28) 
CCC(=O)[N-]C1CCN(S(=O)(=O)c2ccccc2)CC1 (protonated)
CCC(=O)[N-]C1CCN(S(=O)(=O)c2ccccc2)CC1 (3D coordinates assigned)
CCC(=O)[N-]C1CCN(S(=O)(=O)c2ccccc2)CC1 (nonaromatic ring conformer: 39.662215098978514 kcal/mol)

>  <smiles>  (28) 
CCC(=O)NC1CCN(S(=O)(=O)c2ccccc2)CC1

>  <score_type>  (28) 
oracle

>  <origin>  (28) 
adg

>  <m_score__min__energy>  (28) 
-10.19

>  <m_primary>  (28) 
energy

$$$$
28:0
     RDKit          3D

 23 24  0  0  0  0  0  0  0  0999 V2000
   53.0630   28.3550   56.0200 C   0  0  0  0  0  0  0  0  0  0  0  0
   51.9170   29.1730   55.8080 O   0  0  0  0  0  0  0  0  0  0  0  0
   51.7320   30.0020   54.6910 C   0  0  0  0  0  0  0  0  0  0  0  0
   50.8160   31.0720   54.6870 C   0  0  0  0  0  0  0  0  0  0  0  0
   50.6700   31.8710   53.5500 C   0  0  0  0  0  0  0  0  0  0  0  0
   51.4490   31.6260   52.4030 C   0  0  0  0  0  0  0  0  0  0  0  0
   51.3060   32.4000   51.2000 N   0  0  0  0  0  0  0  0  0  0  0  0
   51.1280   31.9400   49.9960 C   0  0  0  0  0  0  0  0  0  0  0  0
   51.3540   30.6580   49.6370 N   0  0  0  0  0  0  0  0  0  0  0  0
   51.0060   30.6280   48.3390 C   0  0  0  0  0  0  0  0  0  0  0  0
   50.5760   31.8760   47.9540 C   0  0  0  0  0  0  0  0  0  0  0  0
   50.6450   32.7150   49.0030 N   0  0  0  0  0  0  0  0  0  0  0  0
   52.3340   30.5410   52.4020 C   0  0  0  0  0  0  0  0  0  0  0  0
   52.4820   29.7430   53.5390 C   0  0  0  0  0  0  0  0  0  0  0  0
   53.2324   28.2341   57.1001 H   0  0  0  0  0  0  0  0  0  0  0  0
   52.8992   27.3685   55.5618 H   0  0  0  0  0  0  0  0  0  0  0  0
   53.9428   28.8305   55.5618 H   0  0  0  0  0  0  0  0  0  0  0  0
   50.2128   31.2796   55.5831 H   0  0  0  0  0  0  0  0  0  0  0  0
   49.9424   32.6960   53.5510 H   0  0  0  0  0  0  0  0  0  0  0  0
   51.0572   29.7436   47.6869 H   0  0  0  0  0  0  0  0  0  0  0  0
   50.2296   32.1461   46.9455 H   0  0  0  0  0  0  0  0  0  0  0  0
   52.9180   30.3149   51.4977 H   0  0  0  0  0  0  0  0  0  0  0  0
   53.1938   28.9045   53.5283 H   0  0  0  0  0  0  0  0  0  0  0  0
  1  2  1  0
  2  3  1  0
  3  4  2  0
  4  5  1  0
  5  6  2  0
  6  7  1  0
  7  8  2  3
  8  9  1  0
  9 10  1  0
 10 11  2  0
 11 12  1  0
  6 13  1  0
 13 14  2  0
 14  3  1  0
 12  8  1  0
  1 15  1  0
  1 16  1  0
  1 17  1  0
  4 18  1  0
  5 19  1  0
 10 20  1  0
 11 21  1  0
 13 22  1  0
 14 23  1  0
M  CHG  2   9  -1  12  -1
M  END
>  <UniqueID>  (29) 
27

>  <SMILES>  (29) 
COc1ccc(N=c2[n-]cc[n-]2)cc1

>  <Energy>  (29) 
56.16368667755015

>  <Genealogy>  (29) 
COc1ccc(N=c2[n-]cc[n-]2)cc1 (protonated)
COc1ccc(N=c2[n-]cc[n-]2)cc1 (3D coordinates assigned)
COc1ccc(N=c2[n-]cc[n-]2)cc1 (optimized conformer: 56.16368667755015 kcal/mol)

>  <smiles>  (29) 
COc1ccc(N=c2[nH]cc[nH]2)cc1

>  <score_type>  (29) 
oracle

>  <origin>  (29) 
adg

>  <m_score__min__energy>  (29) 
-9.0600000000000005

>  <m_primary>  (29) 
energy

$$$$
29:0
     RDKit          3D

  8  8  0  0  0  0  0  0  0  0999 V2000
   52.5030   31.0910   51.8790 S   0  0  0  0  0  0  0  0  0  0  0  0
   51.7270   31.2250   50.4470 C   0  0  0  0  0  0  0  0  0  0  0  0
   51.7510   30.1980   49.4790 C   0  0  0  0  0  0  0  0  0  0  0  0
   51.0320   30.5030   48.3330 C   0  0  0  0  0  0  0  0  0  0  0  0
   50.4210   32.0280   48.6140 S   0  0  0  0  0  0  0  0  0  0  0  0
   51.0220   32.3390   50.1300 N   0  0  0  0  0  0  0  0  0  0  0  0
   52.2877   29.2482   49.6199 H   0  0  0  0  0  0  0  0  0  0  0  0
   50.8954   29.8779   47.4382 H   0  0  0  0  0  0  0  0  0  0  0  0
  1  2  2  0
  2  3  1  0
  3  4  2  0
  4  5  1  0
  5  6  1  0
  6  2  1  0
  3  7  1  0
  4  8  1  0
M  CHG  1   6  -1
M  END
>  <UniqueID>  (30) 
28

>  <SMILES>  (30) 
S=c1ccs[n-]1

>  <Energy>  (30) 
37.67805705948136

>  <Genealogy>  (30) 
S=c1ccs[n-]1 (protonated)
S=c1ccs[n-]1 (3D coordinates assigned)
S=c1ccs[n-]1 (optimized conformer: 37.67805705948136 kcal/mol)

>  <smiles>  (30) 
S=c1ccs[nH]1

>  <score_type>  (30) 
oracle

>  <origin>  (30) 
adg

>  <m_score__min__energy>  (30) 
-6.6399999999999997

>  <m_primary>  (30) 
energy

$$$$
30:0
     RDKit          3D

 52 55  0  0  0  0  0  0  0  0999 V2000
   63.0350   33.8400   46.3740 C   0  0  0  0  0  0  0  0  0  0  0  0
   63.7080   33.4360   47.6830 C   0  0  0  0  0  0  0  0  0  0  0  0
   62.9900   32.2380   48.3320 C   0  0  0  0  0  0  0  0  0  0  0  0
   62.3600   32.5720   49.6390 N   0  0  0  0  0  0  0  0  0  0  0  0
   61.3620   31.5730   50.0940 C   0  0  0  0  0  0  0  0  0  0  0  0
   60.1750   31.4660   49.1220 C   0  0  0  0  0  0  0  0  0  0  0  0
   59.8620   32.7800   48.5500 N   0  0  0  0  0  0  0  0  0  0  0  0
   59.2330   32.8820   47.2580 C   0  0  0  0  0  0  0  0  0  0  0  0
   59.0610   34.1340   46.6250 C   0  0  0  0  0  0  0  0  0  0  0  0
   58.4630   34.2210   45.3490 C   0  0  0  0  0  0  0  0  0  0  0  0
   58.0270   33.0530   44.6780 C   0  0  0  0  0  0  0  0  0  0  0  0
   57.4260   33.0750   43.4120 O   0  0  0  0  0  0  0  0  0  0  0  0
   57.8280   32.2520   42.3230 C   0  0  0  0  0  0  0  0  0  0  0  0
   58.2180   31.8360   45.3290 C   0  0  0  0  0  0  0  0  0  0  0  0
   57.8800   30.6150   44.8900 N   0  0  0  0  0  0  0  0  0  0  0  0
   58.2770   29.8070   45.9090 C   0  0  0  0  0  0  0  0  0  0  0  0
   58.1100   28.3370   45.8850 C   0  0  0  0  0  0  0  0  0  0  0  0
   57.9040   27.6630   44.6670 C   0  0  0  0  0  0  0  0  0  0  0  0
   57.7480   26.2730   44.6460 C   0  0  0  0  0  0  0  0  0  0  0  0
   57.7940   25.5450   45.8370 C   0  0  0  0  0  0  0  0  0  0  0  0
   57.9990   26.2030   47.0510 C   0  0  0  0  0  0  0  0  0  0  0  0
   58.1560   27.5930   47.0780 C   0  0  0  0  0  0  0  0  0  0  0  0
   58.8410   30.4690   46.9540 N   0  0  0  0  0  0  0  0  0  0  0  0
   58.7970   31.7500   46.5600 C   0  0  0  0  0  0  0  0  0  0  0  0
   60.2650   33.9790   49.2920 C   0  0  0  0  0  0  0  0  0  0  0  0
   61.7760   33.9440   49.6140 C   0  0  0  0  0  0  0  0  0  0  0  0
   62.1107   34.3948   46.5929 H   0  0  0  0  0  0  0  0  0  0  0  0
   63.7169   34.4782   45.7929 H   0  0  0  0  0  0  0  0  0  0  0  0
   62.7924   32.9381   45.7929 H   0  0  0  0  0  0  0  0  0  0  0  0
   64.7531   33.1603   47.4789 H   0  0  0  0  0  0  0  0  0  0  0  0
   63.6600   34.2883   48.3768 H   0  0  0  0  0  0  0  0  0  0  0  0
   62.2060   31.8860   47.6454 H   0  0  0  0  0  0  0  0  0  0  0  0
   63.7490   31.4648   48.5221 H   0  0  0  0  0  0  0  0  0  0  0  0
   63.1290   32.5820   50.3510 H   0  0  0  0  0  0  0  0  0  0  0  0
   61.8507   30.5903   50.1684 H   0  0  0  0  0  0  0  0  0  0  0  0
   60.9749   31.8978   51.0711 H   0  0  0  0  0  0  0  0  0  0  0  0
   60.4328   30.7696   48.3105 H   0  0  0  0  0  0  0  0  0  0  0  0
   59.2961   31.0977   49.6715 H   0  0  0  0  0  0  0  0  0  0  0  0
   59.3967   35.0506   47.1321 H   0  0  0  0  0  0  0  0  0  0  0  0
   58.3348   35.2041   44.8724 H   0  0  0  0  0  0  0  0  0  0  0  0
   58.2799   31.3268   42.7099 H   0  0  0  0  0  0  0  0  0  0  0  0
   56.9504   32.0023   41.7086 H   0  0  0  0  0  0  0  0  0  0  0  0
   58.5644   32.7907   41.7086 H   0  0  0  0  0  0  0  0  0  0  0  0
   57.8654   28.2321   43.7265 H   0  0  0  0  0  0  0  0  0  0  0  0
   57.5889   25.7526   43.6900 H   0  0  0  0  0  0  0  0  0  0  0  0
   57.6686   24.4523   45.8184 H   0  0  0  0  0  0  0  0  0  0  0  0
   58.0372   25.6277   47.9878 H   0  0  0  0  0  0  0  0  0  0  0  0
   58.3163   28.1069   48.0373 H   0  0  0  0  0  0  0  0  0  0  0  0
   60.0465   34.8695   48.6843 H   0  0  0  0  0  0  0  0  0  0  0  0
   59.7040   34.0132   50.2376 H   0  0  0  0  0  0  0  0  0  0  0  0
   62.3060   34.5315   48.8499 H   0  0  0  0  0  0  0  0  0  0  0  0
   61.8951   34.3587   50.6258 H   0  0  0  0  0  0  0  0  0  0  0  0
  1  2  1  0
  2  3  1  0
  3  4  1  0
  4  5  1  0
  5  6  1  0
  6  7  1  0
  7  8  1  0
  8  9  2  0
  9 10  1  0
 10 11  2  0
 11 12  1  0
 12 13  1  0
 11 14  1  0
 14 15  1  0
 15 16  1  0
 16 17  1  0
 17 18  2  0
 18 19  1  0
 19 20  2  0
 20 21  1  0
 21 22  2  0
 16 23  2  0
 23 24  1  0
  7 25  1  0
 25 26  1  0
 26  4  1  0
 24  8  1  0
 24 14  2  0
 22 17  1  0
  1 27  1  0
  1 28  1  0
  1 29  1  0
  2 30  1  0
  2 31  1  0
  3 32  1  0
  3 33  1  0
  4 34  1  0
  5 35  1  0
  5 36  1  0
  6 37  1  0
  6 38  1  0
  9 39  1  0
 10 40  1  0
 13 41  1  0
 13 42  1  0
 13 43  1  0
 18 44  1  0
 19 45  1  0
 20 46  1  0
 21 47  1  0
 22 48  1  0
 25 49  1  0
 25 50  1  0
 26 51  1  0
 26 52  1  0
M  CHG  2   4   1  15  -1
M  END
>  <UniqueID>  (31) 
29

>  <SMILES>  (31) 
CCC[NH+]1CCN(c2ccc(OC)c3[n-]c(-c4ccccc4)nc23)CC1

>  <Energy>  (31) 
98.94119527355438

>  <Genealogy>  (31) 
CCC[NH+]1CCN(c2ccc(OC)c3[n-]c(-c4ccccc4)nc23)CC1 (protonated)
CCC[NH+]1CCN(c2ccc(OC)c3[n-]c(-c4ccccc4)nc23)CC1 (3D coordinates assigned)
CCC[NH+]1CCN(c2ccc(OC)c3[n-]c(-c4ccccc4)nc23)CC1 (nonaromatic ring conformer: 98.94119527355438 kcal/mol)

>  <smiles>  (31) 
CCCN1CCN(c2ccc(OC)c3[nH]c(-c4ccccc4)nc23)CC1

>  <score_type>  (31) 
oracle

>  <origin>  (31) 
adg

>  <m_score__min__energy>  (31) 
-6.96

>  <m_primary>  (31) 
energy

$$$$
31:0
     RDKit          3D

 39 41  0  0  0  0  0  0  0  0999 V2000
   63.3850   33.6630   46.7640 C   0  0  0  0  0  0  0  0  0  0  0  0
   61.9090   33.8260   46.4150 C   0  0  0  0  0  0  0  0  0  0  0  0
   61.0430   33.6500   47.6410 C   0  0  0  0  0  0  0  0  0  0  0  0
   61.5360   34.0730   48.8890 C   0  0  0  0  0  0  0  0  0  0  0  0
   60.7930   33.8670   50.0530 C   0  0  0  0  0  0  0  0  0  0  0  0
   59.5540   33.2300   49.9900 C   0  0  0  0  0  0  0  0  0  0  0  0
   59.0560   32.7910   48.7620 C   0  0  0  0  0  0  0  0  0  0  0  0
   59.7910   32.9880   47.5810 C   0  0  0  0  0  0  0  0  0  0  0  0
   59.2550   32.5390   46.3280 N   0  0  0  0  0  0  0  0  0  0  0  0
   58.3010   33.3050   45.5770 C   0  0  0  0  0  0  0  0  0  0  0  0
   57.9780   34.4670   45.9440 O   0  0  0  0  0  0  0  0  0  0  0  0
   57.6450   32.7020   44.3720 C   0  0  0  0  0  0  0  0  0  0  0  0
   57.1320   31.3790   44.7040 N   0  0  0  0  0  0  0  0  0  0  0  0
   55.8900   30.9840   44.4860 N   0  0  0  0  0  0  0  0  0  0  0  0
   55.7860   29.7040   44.8060 N   0  0  0  0  0  0  0  0  0  0  0  0
   57.0200   29.3470   45.2160 C   0  0  0  0  0  0  0  0  0  0  0  0
   57.3870   27.9850   45.6310 C   0  0  0  0  0  0  0  0  0  0  0  0
   58.7320   27.5830   45.6900 C   0  0  0  0  0  0  0  0  0  0  0  0
   59.0400   26.2770   46.0760 C   0  0  0  0  0  0  0  0  0  0  0  0
   58.0150   25.3860   46.3980 C   0  0  0  0  0  0  0  0  0  0  0  0
   56.6890   25.8180   46.3270 C   0  0  0  0  0  0  0  0  0  0  0  0
   56.4070   27.0940   45.9480 N   0  0  0  0  0  0  0  0  0  0  0  0
   57.8780   30.3850   45.1540 N   0  0  0  0  0  0  0  0  0  0  0  0
   63.5039   33.6499   47.8575 H   0  0  0  0  0  0  0  0  0  0  0  0
   63.7591   32.7181   46.3431 H   0  0  0  0  0  0  0  0  0  0  0  0
   63.9563   34.5035   46.3431 H   0  0  0  0  0  0  0  0  0  0  0  0
   61.7458   34.8316   46.0000 H   0  0  0  0  0  0  0  0  0  0  0  0
   61.6350   33.0572   45.6775 H   0  0  0  0  0  0  0  0  0  0  0  0
   62.5154   34.5704   48.9482 H   0  0  0  0  0  0  0  0  0  0  0  0
   61.1859   34.2080   51.0222 H   0  0  0  0  0  0  0  0  0  0  0  0
   58.9689   33.0734   50.9083 H   0  0  0  0  0  0  0  0  0  0  0  0
   58.0795   32.2864   48.7187 H   0  0  0  0  0  0  0  0  0  0  0  0
   59.4800   31.5740   46.0020 H   0  0  0  0  0  0  0  0  0  0  0  0
   56.8142   33.3456   44.0471 H   0  0  0  0  0  0  0  0  0  0  0  0
   58.3826   32.6143   43.5606 H   0  0  0  0  0  0  0  0  0  0  0  0
   59.5347   28.2904   45.4345 H   0  0  0  0  0  0  0  0  0  0  0  0
   60.0893   25.9507   46.1263 H   0  0  0  0  0  0  0  0  0  0  0  0
   58.2490   24.3557   46.7041 H   0  0  0  0  0  0  0  0  0  0  0  0
   55.8715   25.1260   46.5777 H   0  0  0  0  0  0  0  0  0  0  0  0
  1  2  1  0
  2  3  1  0
  3  4  2  0
  4  5  1  0
  5  6  2  0
  6  7  1  0
  7  8  2  0
  8  9  1  0
  9 10  1  0
 10 11  2  0
 10 12  1  0
 12 13  1  0
 13 14  1  0
 14 15  2  0
 15 16  1  0
 16 17  1  0
 17 18  2  0
 18 19  1  0
 19 20  2  0
 20 21  1  0
 21 22  2  0
 16 23  2  0
  8  3  1  0
 23 13  1  0
 22 17  1  0
  1 24  1  0
  1 25  1  0
  1 26  1  0
  2 27  1  0
  2 28  1  0
  4 29  1  0
  5 30  1  0
  6 31  1  0
  7 32  1  0
  9 33  1  0
 12 34  1  0
 12 35  1  0
 18 36  1  0
 19 37  1  0
 20 38  1  0
 21 39  1  0
M  END
>  <UniqueID>  (32) 
30

>  <SMILES>  (32) 
CCc1ccccc1NC(=O)Cn1nnc(-c2ccccn2)n1

>  <Energy>  (32) 
78.38785176239173

>  <Genealogy>  (32) 
CCc1ccccc1NC(=O)Cn1nnc(-c2ccccn2)n1 (3D coordinates assigned)
CCc1ccccc1NC(=O)Cn1nnc(-c2ccccn2)n1 (optimized conformer: 78.38785176239173 kcal/mol)

>  <smiles>  (32) 
CCc1ccccc1NC(=O)Cn1nnc(-c2ccccn2)n1

>  <score_type>  (32) 
oracle

>  <origin>  (32) 
adg

>  <m_score__min__energy>  (32) 
-8.0099999999999998

>  <m_primary>  (32) 
energy

$$$$
32:0
     RDKit          3D

 30 32  0  0  0  0  0  0  0  0999 V2000
   55.4620   30.3770   44.1480 O   0  0  0  0  0  0  0  0  0  0  0  0
   56.6270   30.1160   44.5550 C   0  0  0  0  0  0  0  0  0  0  0  0
   57.0840   28.8340   44.4960 N   0  0  0  0  0  0  0  0  0  0  0  0
   58.3330   28.4990   44.9200 C   0  0  0  0  0  0  0  0  0  0  0  0
   59.1900   29.4730   45.4320 C   0  0  0  0  0  0  0  0  0  0  0  0
   58.7540   30.8010   45.5120 C   0  0  0  0  0  0  0  0  0  0  0  0
   59.5970   31.7980   46.0250 C   0  0  0  0  0  0  0  0  0  0  0  0
   59.1540   33.1300   46.1140 C   0  0  0  0  0  0  0  0  0  0  0  0
   60.0110   34.1700   46.6170 N   0  0  0  0  0  0  0  0  0  0  0  0
   61.2990   33.9340   47.2130 C   0  0  0  0  0  0  0  0  0  0  0  0
   62.4490   33.8390   46.4090 C   0  0  0  0  0  0  0  0  0  0  0  0
   63.6960   33.5800   46.9850 C   0  0  0  0  0  0  0  0  0  0  0  0
   63.8060   33.4020   48.3650 C   0  0  0  0  0  0  0  0  0  0  0  0
   62.6680   33.4780   49.1720 C   0  0  0  0  0  0  0  0  0  0  0  0
   61.4150   33.7370   48.6040 C   0  0  0  0  0  0  0  0  0  0  0  0
   60.0130   33.8440   49.6610 Cl  0  0  0  0  0  0  0  0  0  0  0  0
   57.8730   33.4590   45.6510 C   0  0  0  0  0  0  0  0  0  0  0  0
   57.0260   32.4730   45.1370 C   0  0  0  0  0  0  0  0  0  0  0  0
   57.4550   31.1360   45.0660 C   0  0  0  0  0  0  0  0  0  0  0  0
   56.4660   28.0820   44.1160 H   0  0  0  0  0  0  0  0  0  0  0  0
   58.6688   27.4533   44.8585 H   0  0  0  0  0  0  0  0  0  0  0  0
   60.2004   29.1999   45.7703 H   0  0  0  0  0  0  0  0  0  0  0  0
   60.6115   31.5363   46.3600 H   0  0  0  0  0  0  0  0  0  0  0  0
   59.6620   35.1540   46.5740 H   0  0  0  0  0  0  0  0  0  0  0  0
   62.3666   33.9694   45.3199 H   0  0  0  0  0  0  0  0  0  0  0  0
   64.5918   33.5164   46.3499 H   0  0  0  0  0  0  0  0  0  0  0  0
   64.7886   33.2019   48.8172 H   0  0  0  0  0  0  0  0  0  0  0  0
   62.7570   33.3336   50.2588 H   0  0  0  0  0  0  0  0  0  0  0  0
   57.5306   34.5035   45.6925 H   0  0  0  0  0  0  0  0  0  0  0  0
   56.0193   32.7443   44.7865 H   0  0  0  0  0  0  0  0  0  0  0  0
  1  2  2  0
  2  3  1  0
  3  4  1  0
  4  5  2  0
  5  6  1  0
  6  7  2  0
  7  8  1  0
  8  9  1  0
  9 10  1  0
 10 11  2  0
 11 12  1  0
 12 13  2  0
 13 14  1  0
 14 15  2  0
 15 16  1  0
  8 17  2  0
 17 18  1  0
 18 19  2  0
 19  2  1  0
 19  6  1  0
 15 10  1  0
  3 20  1  0
  4 21  1  0
  5 22  1  0
  7 23  1  0
  9 24  1  0
 11 25  1  0
 12 26  1  0
 13 27  1  0
 14 28  1  0
 17 29  1  0
 18 30  1  0
M  END
>  <UniqueID>  (33) 
31

>  <SMILES>  (33) 
O=c1[nH]ccc2cc(Nc3ccccc3Cl)ccc12

>  <Energy>  (33) 
43.713492183245656

>  <Genealogy>  (33) 
O=c1[nH]ccc2cc(Nc3ccccc3Cl)ccc12 (3D coordinates assigned)
O=c1[nH]ccc2cc(Nc3ccccc3Cl)ccc12 (optimized conformer: 43.713492183245656 kcal/mol)

>  <smiles>  (33) 
O=c1[nH]ccc2cc(Nc3ccccc3Cl)ccc12

>  <score_type>  (33) 
oracle

>  <origin>  (33) 
adg

>  <m_score__min__energy>  (33) 
-7.4900000000000002

>  <m_primary>  (33) 
energy

$$$$
33:0
     RDKit          3D

 28 28  0  0  0  0  0  0  0  0999 V2000
   54.4860   24.1080   45.2280 C   0  0  0  0  0  0  0  0  0  0  0  0
   55.6400   24.3440   46.1960 C   0  0  0  0  0  0  0  0  0  0  0  0
   55.8860   25.7760   46.3690 N   0  0  0  0  0  0  0  0  0  0  0  0
   57.1010   26.4550   45.9920 C   0  0  0  0  0  0  0  0  0  0  0  0
   58.3330   25.9220   46.3990 C   0  0  0  0  0  0  0  0  0  0  0  0
   59.5280   26.5540   46.0520 C   0  0  0  0  0  0  0  0  0  0  0  0
   59.5090   27.7300   45.3000 C   0  0  0  0  0  0  0  0  0  0  0  0
   58.2870   28.2930   44.8910 C   0  0  0  0  0  0  0  0  0  0  0  0
   58.2260   29.5050   44.1160 N   0  0  0  0  0  0  0  0  0  0  0  0
   57.3390   30.9250   44.5740 S   0  0  0  0  0  0  0  0  0  0  0  0
   57.7600   32.2850   43.5030 C   0  0  0  0  0  0  0  0  0  0  0  0
   57.7100   31.2950   45.9820 O   0  0  0  0  0  0  0  0  0  0  0  0
   55.8620   30.6510   44.5210 O   0  0  0  0  0  0  0  0  0  0  0  0
   57.0890   27.6460   45.2390 C   0  0  0  0  0  0  0  0  0  0  0  0
   53.5634   23.9193   45.7964 H   0  0  0  0  0  0  0  0  0  0  0  0
   54.3511   24.9971   44.5946 H   0  0  0  0  0  0  0  0  0  0  0  0
   54.7110   23.2373   44.5946 H   0  0  0  0  0  0  0  0  0  0  0  0
   55.3898   23.9003   47.1710 H   0  0  0  0  0  0  0  0  0  0  0  0
   56.5471   23.8767   45.7852 H   0  0  0  0  0  0  0  0  0  0  0  0
   55.1140   26.3410   46.7910 H   0  0  0  0  0  0  0  0  0  0  0  0
   58.3575   24.9987   46.9964 H   0  0  0  0  0  0  0  0  0  0  0  0
   60.4884   26.1239   46.3723 H   0  0  0  0  0  0  0  0  0  0  0  0
   60.4554   28.2191   45.0258 H   0  0  0  0  0  0  0  0  0  0  0  0
   58.6920   29.5280   43.1810 H   0  0  0  0  0  0  0  0  0  0  0  0
   58.0310   33.1605   44.1113 H   0  0  0  0  0  0  0  0  0  0  0  0
   58.6124   32.0015   42.8682 H   0  0  0  0  0  0  0  0  0  0  0  0
   56.8965   32.5327   42.8682 H   0  0  0  0  0  0  0  0  0  0  0  0
   56.1282   28.0754   44.9190 H   0  0  0  0  0  0  0  0  0  0  0  0
  1  2  1  0
  2  3  1  0
  3  4  1  0
  4  5  2  0
  5  6  1  0
  6  7  2  0
  7  8  1  0
  8  9  1  0
  9 10  1  0
 10 11  1  0
 10 12  2  0
 10 13  2  0
  8 14  2  0
 14  4  1  0
  1 15  1  0
  1 16  1  0
  1 17  1  0
  2 18  1  0
  2 19  1  0
  3 20  1  0
  5 21  1  0
  6 22  1  0
  7 23  1  0
  9 24  1  0
 11 25  1  0
 11 26  1  0
 11 27  1  0
 14 28  1  0
M  END
>  <UniqueID>  (34) 
32

>  <SMILES>  (34) 
CCNc1cccc(NS(C)(=O)=O)c1

>  <Energy>  (34) 
21.853905004180405

>  <Genealogy>  (34) 
CCNc1cccc(NS(C)(=O)=O)c1 (3D coordinates assigned)
CCNc1cccc(NS(C)(=O)=O)c1 (optimized conformer: 21.853905004180405 kcal/mol)

>  <smiles>  (34) 
CCNc1cccc(NS(C)(=O)=O)c1

>  <score_type>  (34) 
oracle

>  <origin>  (34) 
adg

>  <m_score__min__energy>  (34) 
-5.7699999999999996

>  <m_primary>  (34) 
energy

$$$$
34:0
     RDKit          3D

 47 50  0  0  0  0  0  0  0  0999 V2000
   56.6220   29.1790   42.5200 O   0  0  0  0  0  0  0  0  0  0  0  0
   56.8360   29.9310   43.8030 S   0  0  0  0  0  0  0  0  0  0  0  0
   55.5120   30.1130   44.4890 O   0  0  0  0  0  0  0  0  0  0  0  0
   57.5130   31.4880   43.4430 N   0  0  0  0  0  0  0  0  0  0  0  0
   57.8750   32.4510   44.4490 C   0  0  0  0  0  0  0  0  0  0  0  0
   57.1340   33.6300   44.6460 C   0  0  0  0  0  0  0  0  0  0  0  0
   57.5150   34.5460   45.6260 C   0  0  0  0  0  0  0  0  0  0  0  0
   58.6350   34.3000   46.4240 C   0  0  0  0  0  0  0  0  0  0  0  0
   59.3920   33.1280   46.2470 C   0  0  0  0  0  0  0  0  0  0  0  0
   60.5830   32.8410   47.0870 C   0  0  0  0  0  0  0  0  0  0  0  0
   61.0160   31.5330   47.3420 C   0  0  0  0  0  0  0  0  0  0  0  0
   62.1390   31.3230   48.1380 C   0  0  0  0  0  0  0  0  0  0  0  0
   62.8160   32.4250   48.6790 C   0  0  0  0  0  0  0  0  0  0  0  0
   63.9800   32.2640   49.5130 N   0  0  0  0  0  0  0  0  0  0  0  0
   64.1100   31.2680   50.5650 C   0  0  0  0  0  0  0  0  0  0  0  0
   65.4240   31.5810   51.2680 C   0  0  0  0  0  0  0  0  0  0  0  0
   66.2010   32.4870   50.3170 C   0  0  0  0  0  0  0  0  0  0  0  0
   65.1650   33.0920   49.3790 C   0  0  0  0  0  0  0  0  0  0  0  0
   62.3490   33.6740   48.4080 N   0  0  0  0  0  0  0  0  0  0  0  0
   61.2740   33.8740   47.6430 N   0  0  0  0  0  0  0  0  0  0  0  0
   58.9910   32.2040   45.2630 C   0  0  0  0  0  0  0  0  0  0  0  0
   57.9140   29.0470   44.8790 C   0  0  0  0  0  0  0  0  0  0  0  0
   59.3020   29.0810   44.6870 C   0  0  0  0  0  0  0  0  0  0  0  0
   60.1490   28.3860   45.5570 C   0  0  0  0  0  0  0  0  0  0  0  0
   59.6120   27.6570   46.6230 C   0  0  0  0  0  0  0  0  0  0  0  0
   60.7660   26.7200   47.8180 Br  0  0  0  0  0  0  0  0  0  0  0  0
   58.2270   27.6150   46.8120 C   0  0  0  0  0  0  0  0  0  0  0  0
   57.3790   28.3070   45.9420 C   0  0  0  0  0  0  0  0  0  0  0  0
   57.5470   31.7670   42.4370 H   0  0  0  0  0  0  0  0  0  0  0  0
   56.2493   33.8306   44.0238 H   0  0  0  0  0  0  0  0  0  0  0  0
   56.9309   35.4667   45.7714 H   0  0  0  0  0  0  0  0  0  0  0  0
   58.9266   35.0276   47.1957 H   0  0  0  0  0  0  0  0  0  0  0  0
   60.4720   30.6772   46.9159 H   0  0  0  0  0  0  0  0  0  0  0  0
   62.4920   30.3011   48.3406 H   0  0  0  0  0  0  0  0  0  0  0  0
   63.2698   31.3437   51.2709 H   0  0  0  0  0  0  0  0  0  0  0  0
   64.0997   30.2454   50.1597 H   0  0  0  0  0  0  0  0  0  0  0  0
   65.2349   32.0981   52.2203 H   0  0  0  0  0  0  0  0  0  0  0  0
   65.9854   30.6645   51.5020 H   0  0  0  0  0  0  0  0  0  0  0  0
   66.7173   33.2791   50.8791 H   0  0  0  0  0  0  0  0  0  0  0  0
   66.9698   31.9278   49.7636 H   0  0  0  0  0  0  0  0  0  0  0  0
   64.9429   34.1290   49.6710 H   0  0  0  0  0  0  0  0  0  0  0  0
   65.5255   33.1185   48.3401 H   0  0  0  0  0  0  0  0  0  0  0  0
   59.5620   31.2732   45.1302 H   0  0  0  0  0  0  0  0  0  0  0  0
   59.7263   29.6554   43.8504 H   0  0  0  0  0  0  0  0  0  0  0  0
   61.2378   28.4129   45.4026 H   0  0  0  0  0  0  0  0  0  0  0  0
   57.8040   27.0365   47.6466 H   0  0  0  0  0  0  0  0  0  0  0  0
   56.2899   28.2705   46.0922 H   0  0  0  0  0  0  0  0  0  0  0  0
  1  2  2  0
  2  3  2  0
  2  4  1  0
  4  5  1  0
  5  6  2  0
  6  7  1  0
  7  8  2  0
  8  9  1  0
  9 10  1  0
 10 11  2  0
 11 12  1  0
 12 13  2  0
 13 14  1  0
 14 15  1  0
 15 16  1  0
 16 17  1  0
 17 18  1  0
 13 19  1  0
 19 20  2  0
  9 21  2  0
  2 22  1  0
 22 23  2  0
 23 24  1  0
 24 25  2  0
 25 26  1  0
 25 27  1  0
 27 28  2  0
 21  5  1  0
 28 22  1  0
 20 10  1  0
 18 14  1  0
  4 29  1  0
  6 30  1  0
  7 31  1  0
  8 32  1  0
 11 33  1  0
 12 34  1  0
 15 35  1  0
 15 36  1  0
 16 37  1  0
 16 38  1  0
 17 39  1  0
 17 40  1  0
 18 41  1  0
 18 42  1  0
 21 43  1  0
 23 44  1  0
 24 45  1  0
 27 46  1  0
 28 47  1  0
M  END
>  <UniqueID>  (35) 
33

>  <SMILES>  (35) 
O=S(=O)(Nc1cccc(-c2ccc(N3CCCC3)nn2)c1)c1ccc(Br)cc1

>  <Energy>  (35) 
58.0385912253779

>  <Genealogy>  (35) 
O=S(=O)(Nc1cccc(-c2ccc(N3CCCC3)nn2)c1)c1ccc(Br)cc1 (3D coordinates assigned)
O=S(=O)(Nc1cccc(-c2ccc(N3CCCC3)nn2)c1)c1ccc(Br)cc1 (nonaromatic ring conformer: 58.0385912253779 kcal/mol)

>  <smiles>  (35) 
O=S(=O)(Nc1cccc(-c2ccc(N3CCCC3)nn2)c1)c1ccc(Br)cc1

>  <score_type>  (35) 
oracle

>  <origin>  (35) 
adg

>  <m_score__min__energy>  (35) 
-9.7100000000000009

>  <m_primary>  (35) 
energy

$$$$
35:0
     RDKit          3D

 43 44  0  0  0  0  0  0  0  0999 V2000
   58.7580   25.7120   46.8160 C   0  0  0  0  0  0  0  0  0  0  0  0
   58.4640   27.0810   46.1460 C   0  0  0  0  0  0  0  0  0  0  0  0
   57.1690   26.8760   45.3130 C   0  0  0  0  0  0  0  0  0  0  0  0
   59.6380   27.4520   45.1880 C   0  0  0  0  0  0  0  0  0  0  0  0
   59.8340   28.9660   45.0410 C   0  0  0  0  0  0  0  0  0  0  0  0
   58.6630   29.5880   44.4290 N   0  0  0  0  0  0  0  0  0  0  0  0
   57.7320   30.4160   45.1320 C   0  0  0  0  0  0  0  0  0  0  0  0
   56.6890   29.9020   45.6220 O   0  0  0  0  0  0  0  0  0  0  0  0
   58.0010   31.8640   45.3300 C   0  0  0  0  0  0  0  0  0  0  0  0
   58.1270   32.3510   46.6470 C   0  0  0  0  0  0  0  0  0  0  0  0
   58.4060   33.6970   46.8890 C   0  0  0  0  0  0  0  0  0  0  0  0
   58.5610   34.5810   45.8220 C   0  0  0  0  0  0  0  0  0  0  0  0
   58.4310   34.1240   44.5120 C   0  0  0  0  0  0  0  0  0  0  0  0
   58.1500   32.7750   44.2520 C   0  0  0  0  0  0  0  0  0  0  0  0
   57.9380   32.3140   42.5640 Cl  0  0  0  0  0  0  0  0  0  0  0  0
   60.1190   29.6240   46.4020 C   0  0  0  0  0  0  0  0  0  0  0  0
   59.3930   28.9520   47.6150 C   0  0  0  0  0  0  0  0  0  0  0  0
   58.8850   30.0680   48.5630 C   0  0  0  0  0  0  0  0  0  0  0  0
   60.3970   28.0970   48.4280 C   0  0  0  0  0  0  0  0  0  0  0  0
   58.2190   28.1420   47.1750 N   0  0  0  0  0  0  0  0  0  0  0  0
   58.7335   25.8263   47.9098 H   0  0  0  0  0  0  0  0  0  0  0  0
   57.9963   24.9812   46.5065 H   0  0  0  0  0  0  0  0  0  0  0  0
   59.7526   25.3584   46.5065 H   0  0  0  0  0  0  0  0  0  0  0  0
   56.3140   26.7407   45.9917 H   0  0  0  0  0  0  0  0  0  0  0  0
   56.9975   27.7582   44.6787 H   0  0  0  0  0  0  0  0  0  0  0  0
   57.2784   25.9840   44.6787 H   0  0  0  0  0  0  0  0  0  0  0  0
   60.5662   27.0150   45.5850 H   0  0  0  0  0  0  0  0  0  0  0  0
   59.3901   27.0535   44.1931 H   0  0  0  0  0  0  0  0  0  0  0  0
   60.7033   29.1219   44.3853 H   0  0  0  0  0  0  0  0  0  0  0  0
   58.0038   31.6612   47.4949 H   0  0  0  0  0  0  0  0  0  0  0  0
   58.5037   34.0607   47.9225 H   0  0  0  0  0  0  0  0  0  0  0  0
   58.7862   35.6404   46.0145 H   0  0  0  0  0  0  0  0  0  0  0  0
   58.5498   34.8275   43.6747 H   0  0  0  0  0  0  0  0  0  0  0  0
   61.2030   29.5806   46.5839 H   0  0  0  0  0  0  0  0  0  0  0  0
   59.7333   30.6522   46.3382 H   0  0  0  0  0  0  0  0  0  0  0  0
   59.0276   29.7547   49.6077 H   0  0  0  0  0  0  0  0  0  0  0  0
   59.4509   30.9928   48.3770 H   0  0  0  0  0  0  0  0  0  0  0  0
   57.8160   30.2486   48.3770 H   0  0  0  0  0  0  0  0  0  0  0  0
   60.2203   28.2475   49.5032 H   0  0  0  0  0  0  0  0  0  0  0  0
   60.2595   27.0344   48.1790 H   0  0  0  0  0  0  0  0  0  0  0  0
   61.4241   28.4020   48.1790 H   0  0  0  0  0  0  0  0  0  0  0  0
   57.5120   28.8170   46.7950 H   0  0  0  0  0  0  0  0  0  0  0  0
   57.7590   27.7160   48.0150 H   0  0  0  0  0  0  0  0  0  0  0  0
  1  2  1  0
  2  3  1  0
  2  4  1  0
  4  5  1  0
  5  6  1  0
  6  7  1  0
  7  8  2  0
  7  9  1  0
  9 10  2  0
 10 11  1  0
 11 12  2  0
 12 13  1  0
 13 14  2  0
 14 15  1  0
  5 16  1  0
 16 17  1  0
 17 18  1  0
 17 19  1  0
 17 20  1  0
 20  2  1  0
 14  9  1  0
  1 21  1  0
  1 22  1  0
  1 23  1  0
  3 24  1  0
  3 25  1  0
  3 26  1  0
  4 27  1  0
  4 28  1  0
  5 29  1  0
 10 30  1  0
 11 31  1  0
 12 32  1  0
 13 33  1  0
 16 34  1  0
 16 35  1  0
 18 36  1  0
 18 37  1  0
 18 38  1  0
 19 39  1  0
 19 40  1  0
 19 41  1  0
 20 42  1  0
 20 43  1  0
M  CHG  2   6  -1  20   1
M  END
>  <UniqueID>  (36) 
34

>  <SMILES>  (36) 
CC1(C)CC([N-]C(=O)c2ccccc2Cl)CC(C)(C)[NH2+]1

>  <Energy>  (36) 
55.885717557902055

>  <Genealogy>  (36) 
CC1(C)CC([N-]C(=O)c2ccccc2Cl)CC(C)(C)[NH2+]1 (protonated)
CC1(C)CC([N-]C(=O)c2ccccc2Cl)CC(C)(C)[NH2+]1 (3D coordinates assigned)
CC1(C)CC([N-]C(=O)c2ccccc2Cl)CC(C)(C)[NH2+]1 (nonaromatic ring conformer: 55.885717557902055 kcal/mol)

>  <smiles>  (36) 
CC1(C)CC(NC(=O)c2ccccc2Cl)CC(C)(C)N1

>  <score_type>  (36) 
oracle

>  <origin>  (36) 
adg

>  <m_score__min__energy>  (36) 
-7.1500000000000004

>  <m_primary>  (36) 
energy

$$$$
36:0
     RDKit          3D

 38 41  0  0  0  0  0  0  0  0999 V2000
   59.6480   28.0090   48.2200 C   0  0  0  0  0  0  0  0  0  0  0  0
   60.0800   29.4080   48.1720 C   0  0  0  0  0  0  0  0  0  0  0  0
   60.2050   30.2200   49.2420 N   0  0  0  0  0  0  0  0  0  0  0  0
   60.6220   31.4340   48.8350 C   0  0  0  0  0  0  0  0  0  0  0  0
   60.8980   32.5980   49.5270 C   0  0  0  0  0  0  0  0  0  0  0  0
   61.3250   33.7220   48.8250 C   0  0  0  0  0  0  0  0  0  0  0  0
   61.4520   33.6210   47.4540 C   0  0  0  0  0  0  0  0  0  0  0  0
   61.1790   32.4630   46.7550 C   0  0  0  0  0  0  0  0  0  0  0  0
   60.7530   31.3400   47.4650 C   0  0  0  0  0  0  0  0  0  0  0  0
   60.4150   30.0800   47.0570 N   0  0  0  0  0  0  0  0  0  0  0  0
   60.4540   29.6840   45.6840 C   0  0  0  0  0  0  0  0  0  0  0  0
   59.1670   29.3760   45.0690 C   0  0  0  0  0  0  0  0  0  0  0  0
   58.8180   28.1280   44.6370 N   0  0  0  0  0  0  0  0  0  0  0  0
   57.5950   28.2400   44.1490 N   0  0  0  0  0  0  0  0  0  0  0  0
   57.1390   29.4900   44.2440 C   0  0  0  0  0  0  0  0  0  0  0  0
   55.6730   30.0700   43.7610 S   0  0  0  0  0  0  0  0  0  0  0  0
   58.1300   30.1960   44.8220 N   0  0  0  0  0  0  0  0  0  0  0  0
   58.0390   31.5870   45.1050 C   0  0  0  0  0  0  0  0  0  0  0  0
   58.1500   32.5540   44.1220 C   0  0  0  0  0  0  0  0  0  0  0  0
   58.0450   33.8740   44.5090 C   0  0  0  0  0  0  0  0  0  0  0  0
   57.8370   34.2080   45.8310 C   0  0  0  0  0  0  0  0  0  0  0  0
   57.7250   33.2510   46.8150 C   0  0  0  0  0  0  0  0  0  0  0  0
   57.8280   31.9300   46.4460 C   0  0  0  0  0  0  0  0  0  0  0  0
   59.5499   27.6913   49.2685 H   0  0  0  0  0  0  0  0  0  0  0  0
   58.6767   27.9076   47.7137 H   0  0  0  0  0  0  0  0  0  0  0  0
   60.3930   27.3776   47.7137 H   0  0  0  0  0  0  0  0  0  0  0  0
   60.7816   32.6360   50.6202 H   0  0  0  0  0  0  0  0  0  0  0  0
   61.5544   34.6626   49.3472 H   0  0  0  0  0  0  0  0  0  0  0  0
   61.7867   34.5055   46.8922 H   0  0  0  0  0  0  0  0  0  0  0  0
   61.2947   32.4260   45.6617 H   0  0  0  0  0  0  0  0  0  0  0  0
   60.9133   30.5028   45.1107 H   0  0  0  0  0  0  0  0  0  0  0  0
   61.0245   28.7438   45.6632 H   0  0  0  0  0  0  0  0  0  0  0  0
   57.0070   27.4640   43.7230 H   0  0  0  0  0  0  0  0  0  0  0  0
   58.3160   32.2803   43.0696 H   0  0  0  0  0  0  0  0  0  0  0  0
   58.1282   34.6698   43.7541 H   0  0  0  0  0  0  0  0  0  0  0  0
   57.7583   35.2698   46.1074 H   0  0  0  0  0  0  0  0  0  0  0  0
   57.5582   33.5346   47.8646 H   0  0  0  0  0  0  0  0  0  0  0  0
   57.7443   31.1402   47.2071 H   0  0  0  0  0  0  0  0  0  0  0  0
  1  2  1  0
  2  3  2  0
  3  4  1  0
  4  5  2  0
  5  6  1  0
  6  7  2  0
  7  8  1  0
  8  9  2  0
  9 10  1  0
 10 11  1  0
 11 12  1  0
 12 13  2  0
 13 14  1  0
 14 15  1  0
 15 16  2  0
 15 17  1  0
 17 18  1  0
 18 19  2  0
 19 20  1  0
 20 21  2  0
 21 22  1  0
 22 23  2  0
 10  2  1  0
 17 12  1  0
 23 18  1  0
  9  4  1  0
  1 24  1  0
  1 25  1  0
  1 26  1  0
  5 27  1  0
  6 28  1  0
  7 29  1  0
  8 30  1  0
 11 31  1  0
 11 32  1  0
 14 33  1  0
 19 34  1  0
 20 35  1  0
 21 36  1  0
 22 37  1  0
 23 38  1  0
M  END
>  <smiles>  (37) 
Cc1nc2ccccc2n1Cc1n[nH]c(=S)n1-c1ccccc1

>  <score_type>  (37) 
oracle

>  <origin>  (37) 
adg

>  <m_score__min__energy>  (37) 
-7.3399999999999999

>  <m_primary>  (37) 
energy

$$$$
37:0
     RDKit          3D

 31 32  0  0  0  0  0  0  0  0999 V2000
   55.1620   26.2280   45.9970 N   0  0  0  0  0  0  0  0  0  0  0  0
   56.8740   26.4490   45.9300 S   0  0  0  0  0  0  0  0  0  0  0  0
   57.4420   26.4070   47.3210 O   0  0  0  0  0  0  0  0  0  0  0  0
   57.4900   25.3390   45.1250 O   0  0  0  0  0  0  0  0  0  0  0  0
   57.2380   28.0020   45.1850 C   0  0  0  0  0  0  0  0  0  0  0  0
   58.5350   28.2780   44.7330 C   0  0  0  0  0  0  0  0  0  0  0  0
   58.8300   29.5160   44.1550 C   0  0  0  0  0  0  0  0  0  0  0  0
   57.8330   30.4980   44.0340 C   0  0  0  0  0  0  0  0  0  0  0  0
   58.1430   31.8330   43.4080 C   0  0  0  0  0  0  0  0  0  0  0  0
   57.5920   32.9220   44.2150 N   0  0  0  0  0  0  0  0  0  0  0  0
   58.2430   33.4980   45.3640 C   0  0  0  0  0  0  0  0  0  0  0  0
   59.0500   34.6490   45.2650 C   0  0  0  0  0  0  0  0  0  0  0  0
   59.6700   35.1760   46.4020 C   0  0  0  0  0  0  0  0  0  0  0  0
   59.4910   34.5680   47.6460 C   0  0  0  0  0  0  0  0  0  0  0  0
   58.6870   33.4310   47.7570 C   0  0  0  0  0  0  0  0  0  0  0  0
   58.0660   32.8980   46.6230 C   0  0  0  0  0  0  0  0  0  0  0  0
   56.5330   30.2160   44.4830 C   0  0  0  0  0  0  0  0  0  0  0  0
   56.2390   28.9770   45.0610 C   0  0  0  0  0  0  0  0  0  0  0  0
   54.7580   27.0950   46.4160 H   0  0  0  0  0  0  0  0  0  0  0  0
   59.3238   27.5179   44.8333 H   0  0  0  0  0  0  0  0  0  0  0  0
   59.8481   29.7223   43.7931 H   0  0  0  0  0  0  0  0  0  0  0  0
   59.2340   31.9534   43.3355 H   0  0  0  0  0  0  0  0  0  0  0  0
   57.6882   31.8689   42.4071 H   0  0  0  0  0  0  0  0  0  0  0  0
   56.6400   33.2710   43.9560 H   0  0  0  0  0  0  0  0  0  0  0  0
   59.1928   35.1351   44.2886 H   0  0  0  0  0  0  0  0  0  0  0  0
   60.3011   36.0729   46.3161 H   0  0  0  0  0  0  0  0  0  0  0  0
   59.9826   34.9839   48.5379 H   0  0  0  0  0  0  0  0  0  0  0  0
   58.5422   32.9543   48.7377 H   0  0  0  0  0  0  0  0  0  0  0  0
   57.4342   32.0024   46.7168 H   0  0  0  0  0  0  0  0  0  0  0  0
   55.7419   30.9733   44.3796 H   0  0  0  0  0  0  0  0  0  0  0  0
   55.2204   28.7671   45.4194 H   0  0  0  0  0  0  0  0  0  0  0  0
  1  2  1  0
  2  3  2  0
  2  4  2  0
  2  5  1  0
  5  6  2  0
  6  7  1  0
  7  8  2  0
  8  9  1  0
  9 10  1  0
 10 11  1  0
 11 12  2  0
 12 13  1  0
 13 14  2  0
 14 15  1  0
 15 16  2  0
  8 17  1  0
 17 18  2  0
 18  5  1  0
 16 11  1  0
  1 19  1  0
  6 20  1  0
  7 21  1  0
  9 22  1  0
  9 23  1  0
 10 24  1  0
 12 25  1  0
 13 26  1  0
 14 27  1  0
 15 28  1  0
 16 29  1  0
 17 30  1  0
 18 31  1  0
M  CHG  1   1  -1
M  END
>  <UniqueID>  (38) 
35

>  <SMILES>  (38) 
[NH-]S(=O)(=O)c1ccc(CNc2ccccc2)cc1

>  <Energy>  (38) 
30.396800880967813

>  <Genealogy>  (38) 
[NH-]S(=O)(=O)c1ccc(CNc2ccccc2)cc1 (protonated)
[NH-]S(=O)(=O)c1ccc(CNc2ccccc2)cc1 (3D coordinates assigned)
[NH-]S(=O)(=O)c1ccc(CNc2ccccc2)cc1 (optimized conformer: 30.396800880967813 kcal/mol)

>  <smiles>  (38) 
NS(=O)(=O)c1ccc(CNc2ccccc2)cc1

>  <score_type>  (38) 
oracle

>  <origin>  (38) 
adg

>  <m_score__min__energy>  (38) 
-10.19

>  <m_primary>  (38) 
energy

$$$$
38:0
     RDKit          3D

 35 35  0  0  0  0  0  0  0  0999 V2000
   57.7750   31.5670   45.4350 C   0  0  0  0  0  0  0  0  0  0  0  0
   58.4080   32.8860   45.7620 C   0  0  0  0  0  0  0  0  0  0  0  0
   58.6150   33.8390   44.7540 C   0  0  0  0  0  0  0  0  0  0  0  0
   59.2410   35.0500   45.0520 C   0  0  0  0  0  0  0  0  0  0  0  0
   59.6730   35.3190   46.3540 C   0  0  0  0  0  0  0  0  0  0  0  0
   59.4810   34.3700   47.3760 C   0  0  0  0  0  0  0  0  0  0  0  0
   59.9220   34.6050   48.7270 N   0  0  0  0  0  0  0  0  0  0  0  0
   60.8940   33.7750   49.4420 C   0  0  0  0  0  0  0  0  0  0  0  0
   62.3300   34.2980   49.2820 C   0  0  0  0  0  0  0  0  0  0  0  0
   63.0750   33.8520   47.9950 C   0  0  0  0  0  0  0  0  0  0  0  0
   63.6770   32.4910   47.9990 N   0  0  0  0  0  0  0  0  0  0  0  0
   62.8120   31.4570   47.4080 C   0  0  0  0  0  0  0  0  0  0  0  0
   64.1720   32.0770   49.3250 C   0  0  0  0  0  0  0  0  0  0  0  0
   58.8600   33.1500   47.0650 C   0  0  0  0  0  0  0  0  0  0  0  0
   57.5223   31.0404   46.3671 H   0  0  0  0  0  0  0  0  0  0  0  0
   56.8594   31.7350   44.8490 H   0  0  0  0  0  0  0  0  0  0  0  0
   58.4788   30.9578   44.8490 H   0  0  0  0  0  0  0  0  0  0  0  0
   58.2831   33.6313   43.7260 H   0  0  0  0  0  0  0  0  0  0  0  0
   59.3952   35.7963   44.2588 H   0  0  0  0  0  0  0  0  0  0  0  0
   60.1651   36.2763   46.5810 H   0  0  0  0  0  0  0  0  0  0  0  0
   59.5410   35.4360   49.2340 H   0  0  0  0  0  0  0  0  0  0  0  0
   60.6361   33.7684   50.5113 H   0  0  0  0  0  0  0  0  0  0  0  0
   60.8531   32.7620   49.0151 H   0  0  0  0  0  0  0  0  0  0  0  0
   62.2905   35.3973   49.2847 H   0  0  0  0  0  0  0  0  0  0  0  0
   62.8986   33.8672   50.1193 H   0  0  0  0  0  0  0  0  0  0  0  0
   62.3556   33.8940   47.1639 H   0  0  0  0  0  0  0  0  0  0  0  0
   63.9279   34.5409   47.9059 H   0  0  0  0  0  0  0  0  0  0  0  0
   64.5250   32.5500   47.3860 H   0  0  0  0  0  0  0  0  0  0  0  0
   62.3294   30.8801   48.2106 H   0  0  0  0  0  0  0  0  0  0  0  0
   62.0412   31.9354   46.7859 H   0  0  0  0  0  0  0  0  0  0  0  0
   63.4190   30.7828   46.7859 H   0  0  0  0  0  0  0  0  0  0  0  0
   63.5798   32.5723   50.1085 H   0  0  0  0  0  0  0  0  0  0  0  0
   64.0765   30.9860   49.4278 H   0  0  0  0  0  0  0  0  0  0  0  0
   65.2289   32.3639   49.4278 H   0  0  0  0  0  0  0  0  0  0  0  0
   58.7260   32.3922   47.8510 H   0  0  0  0  0  0  0  0  0  0  0  0
  1  2  1  0
  2  3  2  0
  3  4  1  0
  4  5  2  0
  5  6  1  0
  6  7  1  0
  7  8  1  0
  8  9  1  0
  9 10  1  0
 10 11  1  0
 11 12  1  0
 11 13  1  0
  6 14  2  0
 14  2  1  0
  1 15  1  0
  1 16  1  0
  1 17  1  0
  3 18  1  0
  4 19  1  0
  5 20  1  0
  7 21  1  0
  8 22  1  0
  8 23  1  0
  9 24  1  0
  9 25  1  0
 10 26  1  0
 10 27  1  0
 11 28  1  0
 12 29  1  0
 12 30  1  0
 12 31  1  0
 13 32  1  0
 13 33  1  0
 13 34  1  0
 14 35  1  0
M  CHG  1  11   1
M  END
>  <UniqueID>  (39) 
36

>  <SMILES>  (39) 
Cc1cccc(NCCC[NH+](C)C)c1

>  <Energy>  (39) 
35.662951894894846

>  <Genealogy>  (39) 
Cc1cccc(NCCC[NH+](C)C)c1 (protonated)
Cc1cccc(NCCC[NH+](C)C)c1 (3D coordinates assigned)
Cc1cccc(NCCC[NH+](C)C)c1 (optimized conformer: 35.662951894894846 kcal/mol)

>  <smiles>  (39) 
Cc1cccc(NCCCN(C)C)c1

>  <score_type>  (39) 
oracle

>  <origin>  (39) 
adg

>  <m_score__min__energy>  (39) 
-3.8700000000000001

>  <m_primary>  (39) 
energy

$$$$
39:0
     RDKit          3D

 37 40  0  0  0  0  0  0  0  0999 V2000
   59.4520   30.8080   45.5610 O   0  0  0  0  0  0  0  0  0  0  0  0
   58.7100   30.0680   44.8580 C   0  0  0  0  0  0  0  0  0  0  0  0
   58.6110   28.6240   45.1280 C   0  0  0  0  0  0  0  0  0  0  0  0
   59.1780   28.0610   46.2760 C   0  0  0  0  0  0  0  0  0  0  0  0
   59.1050   26.7250   46.4890 N   0  0  0  0  0  0  0  0  0  0  0  0
   58.5110   25.8860   45.6020 C   0  0  0  0  0  0  0  0  0  0  0  0
   58.5020   24.5120   45.8620 C   0  0  0  0  0  0  0  0  0  0  0  0
   57.9420   23.6260   44.9420 C   0  0  0  0  0  0  0  0  0  0  0  0
   57.3990   24.1080   43.7510 C   0  0  0  0  0  0  0  0  0  0  0  0
   57.3950   25.4790   43.4800 C   0  0  0  0  0  0  0  0  0  0  0  0
   57.9290   26.3970   44.4120 C   0  0  0  0  0  0  0  0  0  0  0  0
   57.9280   27.8040   44.2000 C   0  0  0  0  0  0  0  0  0  0  0  0
   57.3510   28.3960   43.0020 N   0  0  0  0  0  0  0  0  0  0  0  0
   56.8850   29.7770   43.2160 C   0  0  0  0  0  0  0  0  0  0  0  0
   57.9580   30.6100   43.7650 N   0  0  0  0  0  0  0  0  0  0  0  0
   58.1320   31.9990   43.3270 C   0  0  0  0  0  0  0  0  0  0  0  0
   58.2120   32.9150   44.5170 C   0  0  0  0  0  0  0  0  0  0  0  0
   57.2810   32.8020   45.5610 C   0  0  0  0  0  0  0  0  0  0  0  0
   57.3890   33.6390   46.6740 C   0  0  0  0  0  0  0  0  0  0  0  0
   58.3940   34.5510   46.7470 N   0  0  0  0  0  0  0  0  0  0  0  0
   59.3140   34.6780   45.7540 C   0  0  0  0  0  0  0  0  0  0  0  0
   59.2420   33.8610   44.6220 C   0  0  0  0  0  0  0  0  0  0  0  0
   59.6853   28.7056   47.0089 H   0  0  0  0  0  0  0  0  0  0  0  0
   58.9384   24.1284   46.7960 H   0  0  0  0  0  0  0  0  0  0  0  0
   57.9285   22.5470   45.1556 H   0  0  0  0  0  0  0  0  0  0  0  0
   56.9715   23.4050   43.0209 H   0  0  0  0  0  0  0  0  0  0  0  0
   56.9726   25.8465   42.5332 H   0  0  0  0  0  0  0  0  0  0  0  0
   58.0670   28.3830   42.2390 H   0  0  0  0  0  0  0  0  0  0  0  0
   56.5100   27.8600   42.6960 H   0  0  0  0  0  0  0  0  0  0  0  0
   56.5565   30.1996   42.2550 H   0  0  0  0  0  0  0  0  0  0  0  0
   56.0506   29.7601   43.9326 H   0  0  0  0  0  0  0  0  0  0  0  0
   59.0601   32.0816   42.7423 H   0  0  0  0  0  0  0  0  0  0  0  0
   57.2701   32.2900   42.7086 H   0  0  0  0  0  0  0  0  0  0  0  0
   56.4717   32.0593   45.5032 H   0  0  0  0  0  0  0  0  0  0  0  0
   56.6591   33.5598   47.4931 H   0  0  0  0  0  0  0  0  0  0  0  0
   60.1166   35.4251   45.8416 H   0  0  0  0  0  0  0  0  0  0  0  0
   59.9878   33.9594   43.8194 H   0  0  0  0  0  0  0  0  0  0  0  0
  1  2  2  0
  2  3  1  0
  3  4  2  0
  4  5  1  0
  5  6  2  0
  6  7  1  0
  7  8  2  0
  8  9  1  0
  9 10  2  0
 10 11  1  0
 11 12  2  0
 12 13  1  0
 13 14  1  0
 14 15  1  0
 15 16  1  0
 16 17  1  0
 17 18  2  0
 18 19  1  0
 19 20  2  0
 20 21  1  0
 21 22  2  0
 15  2  1  0
 22 17  1  0
 12  3  1  0
 11  6  1  0
  4 23  1  0
  7 24  1  0
  8 25  1  0
  9 26  1  0
 10 27  1  0
 13 28  1  0
 13 29  1  0
 14 30  1  0
 14 31  1  0
 16 32  1  0
 16 33  1  0
 18 34  1  0
 19 35  1  0
 21 36  1  0
 22 37  1  0
M  CHG  1  13   1
M  END
>  <UniqueID>  (40) 
37

>  <SMILES>  (40) 
O=C1c2cnc3ccccc3c2[NH2+]CN1Cc1ccncc1

>  <Energy>  (40) 
51.94117611368499

>  <Genealogy>  (40) 
O=C1c2cnc3ccccc3c2[NH2+]CN1Cc1ccncc1 (protonated)
O=C1c2cnc3ccccc3c2[NH2+]CN1Cc1ccncc1 (3D coordinates assigned)
O=C1c2cnc3ccccc3c2[NH2+]CN1Cc1ccncc1 (nonaromatic ring conformer: 51.94117611368499 kcal/mol)

>  <smiles>  (40) 
O=C1c2cnc3ccccc3c2NCN1Cc1ccncc1

>  <score_type>  (40) 
oracle

>  <origin>  (40) 
adg

>  <m_score__min__energy>  (40) 
-6.0999999999999996

>  <m_primary>  (40) 
energy

$$$$
40:0
     RDKit          3D

 48 49  0  0  0  0  0  0  0  0999 V2000
   59.1780   34.5110   44.9370 C   0  0  0  0  0  0  0  0  0  0  0  0
   57.7620   34.0980   45.3270 C   0  0  0  0  0  0  0  0  0  0  0  0
   57.4230   32.6940   44.8040 C   0  0  0  0  0  0  0  0  0  0  0  0
   57.9530   32.4620   43.3710 C   0  0  0  0  0  0  0  0  0  0  0  0
   57.3490   31.2250   42.6760 C   0  0  0  0  0  0  0  0  0  0  0  0
   56.7200   30.1950   43.6290 C   0  0  0  0  0  0  0  0  0  0  0  0
   57.3930   28.8130   43.5440 C   0  0  0  0  0  0  0  0  0  0  0  0
   57.7380   28.2520   44.9330 C   0  0  0  0  0  0  0  0  0  0  0  0
   58.6570   29.1760   45.6870 C   0  0  0  0  0  0  0  0  0  0  0  0
   58.1640   30.0600   46.6540 C   0  0  0  0  0  0  0  0  0  0  0  0
   58.9960   30.9590   47.2390 N   0  0  0  0  0  0  0  0  0  0  0  0
   60.3140   31.0200   46.9130 C   0  0  0  0  0  0  0  0  0  0  0  0
   61.1800   31.9970   47.5220 N   0  0  0  0  0  0  0  0  0  0  0  0
   62.4930   31.8450   47.6220 N   0  0  0  0  0  0  0  0  0  0  0  0
   63.0110   32.9330   48.2180 C   0  0  0  0  0  0  0  0  0  0  0  0
   64.4540   33.0960   48.5690 C   0  0  0  0  0  0  0  0  0  0  0  0
   61.9940   33.8140   48.5300 C   0  0  0  0  0  0  0  0  0  0  0  0
   60.8470   33.1940   48.0650 C   0  0  0  0  0  0  0  0  0  0  0  0
   59.4690   33.7760   48.1490 C   0  0  0  0  0  0  0  0  0  0  0  0
   60.8140   30.1570   45.9890 N   0  0  0  0  0  0  0  0  0  0  0  0
   60.0190   29.2430   45.3750 C   0  0  0  0  0  0  0  0  0  0  0  0
   59.7728   34.6845   45.8459 H   0  0  0  0  0  0  0  0  0  0  0  0
   59.6425   33.7109   44.3420 H   0  0  0  0  0  0  0  0  0  0  0  0
   59.1396   35.4354   44.3420 H   0  0  0  0  0  0  0  0  0  0  0  0
   57.6776   34.1013   46.4238 H   0  0  0  0  0  0  0  0  0  0  0  0
   57.0571   34.8137   44.8788 H   0  0  0  0  0  0  0  0  0  0  0  0
   57.8746   31.9476   45.4740 H   0  0  0  0  0  0  0  0  0  0  0  0
   56.3275   32.5980   44.7789 H   0  0  0  0  0  0  0  0  0  0  0  0
   57.7164   33.3497   42.7659 H   0  0  0  0  0  0  0  0  0  0  0  0
   59.0355   32.2854   43.4548 H   0  0  0  0  0  0  0  0  0  0  0  0
   56.5692   31.5693   41.9808 H   0  0  0  0  0  0  0  0  0  0  0  0
   58.1828   30.7136   42.1727 H   0  0  0  0  0  0  0  0  0  0  0  0
   56.8124   30.5679   44.6597 H   0  0  0  0  0  0  0  0  0  0  0  0
   55.6682   30.0694   43.3326 H   0  0  0  0  0  0  0  0  0  0  0  0
   56.7082   28.1153   43.0396 H   0  0  0  0  0  0  0  0  0  0  0  0
   58.3316   28.9271   42.9818 H   0  0  0  0  0  0  0  0  0  0  0  0
   56.8090   28.1240   45.5079 H   0  0  0  0  0  0  0  0  0  0  0  0
   58.2507   27.2881   44.7990 H   0  0  0  0  0  0  0  0  0  0  0  0
   57.1023   30.0261   46.9398 H   0  0  0  0  0  0  0  0  0  0  0  0
   63.0300   31.0090   47.2980 H   0  0  0  0  0  0  0  0  0  0  0  0
   64.5660   33.1087   49.6632 H   0  0  0  0  0  0  0  0  0  0  0  0
   65.0300   32.2572   48.1511 H   0  0  0  0  0  0  0  0  0  0  0  0
   64.8284   34.0421   48.1511 H   0  0  0  0  0  0  0  0  0  0  0  0
   62.0768   34.7882   49.0341 H   0  0  0  0  0  0  0  0  0  0  0  0
   59.1853   33.8958   49.2050 H   0  0  0  0  0  0  0  0  0  0  0  0
   59.4544   34.7571   47.6518 H   0  0  0  0  0  0  0  0  0  0  0  0
   58.7555   33.1024   47.6518 H   0  0  0  0  0  0  0  0  0  0  0  0
   60.4467   28.5545   44.6313 H   0  0  0  0  0  0  0  0  0  0  0  0
  1  2  1  0
  2  3  1  0
  3  4  1  0
  4  5  1  0
  5  6  1  0
  6  7  1  0
  7  8  1  0
  8  9  1  0
  9 10  2  0
 10 11  1  0
 11 12  2  0
 12 13  1  0
 13 14  1  0
 14 15  2  0
 15 16  1  0
 15 17  1  0
 17 18  2  0
 18 19  1  0
 12 20  1  0
 20 21  2  0
 21  9  1  0
 18 13  1  0
  1 22  1  0
  1 23  1  0
  1 24  1  0
  2 25  1  0
  2 26  1  0
  3 27  1  0
  3 28  1  0
  4 29  1  0
  4 30  1  0
  5 31  1  0
  5 32  1  0
  6 33  1  0
  6 34  1  0
  7 35  1  0
  7 36  1  0
  8 37  1  0
  8 38  1  0
 10 39  1  0
 14 40  1  0
 16 41  1  0
 16 42  1  0
 16 43  1  0
 17 44  1  0
 19 45  1  0
 19 46  1  0
 19 47  1  0
 21 48  1  0
M  CHG  1  14   1
M  END
>  <UniqueID>  (41) 
38

>  <SMILES>  (41) 
CCCCCCCCc1cnc(-n2[nH+]c(C)cc2C)nc1

>  <Energy>  (41) 
64.67739808827467

>  <Genealogy>  (41) 
CCCCCCCCc1cnc(-n2[nH+]c(C)cc2C)nc1 (protonated)
CCCCCCCCc1cnc(-n2[nH+]c(C)cc2C)nc1 (3D coordinates assigned)
CCCCCCCCc1cnc(-n2[nH+]c(C)cc2C)nc1 (optimized conformer: 64.67739808827467 kcal/mol)

>  <smiles>  (41) 
CCCCCCCCc1cnc(-n2nc(C)cc2C)nc1

>  <score_type>  (41) 
oracle

>  <origin>  (41) 
adg

>  <m_score__min__energy>  (41) 
-5.9800000000000004

>  <m_primary>  (41) 
energy

$$$$
41:0
     RDKit          3D

 51 54  0  0  0  0  0  0  0  0999 V2000
   61.9560   29.4700   50.6130 C   0  0  0  0  0  0  0  0  0  0  0  0
   60.6910   28.5920   50.4610 C   0  0  0  0  0  0  0  0  0  0  0  0
   59.6940   29.0320   51.5530 C   0  0  0  0  0  0  0  0  0  0  0  0
   61.1290   27.1270   50.6810 C   0  0  0  0  0  0  0  0  0  0  0  0
   60.0680   28.7670   49.0670 C   0  0  0  0  0  0  0  0  0  0  0  0
   59.7150   27.7240   48.2660 N   0  0  0  0  0  0  0  0  0  0  0  0
   59.1990   28.2740   47.1580 C   0  0  0  0  0  0  0  0  0  0  0  0
   58.6880   27.5830   46.0590 C   0  0  0  0  0  0  0  0  0  0  0  0
   58.1700   28.3400   44.9960 C   0  0  0  0  0  0  0  0  0  0  0  0
   58.1690   29.7470   45.0610 C   0  0  0  0  0  0  0  0  0  0  0  0
   57.5090   30.6970   43.7440 Cl  0  0  0  0  0  0  0  0  0  0  0  0
   58.6970   30.3840   46.1940 C   0  0  0  0  0  0  0  0  0  0  0  0
   59.2000   29.6140   47.1970 N   0  0  0  0  0  0  0  0  0  0  0  0
   59.7510   29.9610   48.3800 C   0  0  0  0  0  0  0  0  0  0  0  0
   59.9380   31.4000   48.8120 C   0  0  0  0  0  0  0  0  0  0  0  0
   61.2040   32.0290   48.2630 C   0  0  0  0  0  0  0  0  0  0  0  0
   62.2510   31.2230   47.7730 C   0  0  0  0  0  0  0  0  0  0  0  0
   63.3950   31.8020   47.2280 C   0  0  0  0  0  0  0  0  0  0  0  0
   63.4830   33.1870   47.1410 C   0  0  0  0  0  0  0  0  0  0  0  0
   62.4570   33.9600   47.5770 N   0  0  0  0  0  0  0  0  0  0  0  0
   61.3300   33.4330   48.1280 C   0  0  0  0  0  0  0  0  0  0  0  0
   60.0270   34.5770   48.6140 S   0  0  0  0  0  0  0  0  0  0  0  0
   59.0700   34.3140   47.1190 C   0  0  0  0  0  0  0  0  0  0  0  0
   59.5460   34.7860   45.8880 C   0  0  0  0  0  0  0  0  0  0  0  0
   58.7880   34.6070   44.7260 C   0  0  0  0  0  0  0  0  0  0  0  0
   57.5590   33.9440   44.7880 C   0  0  0  0  0  0  0  0  0  0  0  0
   57.0900   33.4530   46.0120 C   0  0  0  0  0  0  0  0  0  0  0  0
   57.8480   33.6300   47.1740 C   0  0  0  0  0  0  0  0  0  0  0  0
   62.1721   29.6200   51.6811 H   0  0  0  0  0  0  0  0  0  0  0  0
   62.8097   28.9693   50.1330 H   0  0  0  0  0  0  0  0  0  0  0  0
   61.7855   30.4449   50.1330 H   0  0  0  0  0  0  0  0  0  0  0  0
   60.1286   28.8402   52.5451 H   0  0  0  0  0  0  0  0  0  0  0  0
   59.4839   30.1065   51.4462 H   0  0  0  0  0  0  0  0  0  0  0  0
   58.7586   28.4631   51.4462 H   0  0  0  0  0  0  0  0  0  0  0  0
   61.1907   26.9208   51.7597 H   0  0  0  0  0  0  0  0  0  0  0  0
   60.3936   26.4513   50.2200 H   0  0  0  0  0  0  0  0  0  0  0  0
   62.1146   26.9658   50.2200 H   0  0  0  0  0  0  0  0  0  0  0  0
   59.8050   26.7000   48.4490 H   0  0  0  0  0  0  0  0  0  0  0  0
   58.6908   26.4835   46.0264 H   0  0  0  0  0  0  0  0  0  0  0  0
   57.7634   27.8323   44.1090 H   0  0  0  0  0  0  0  0  0  0  0  0
   58.7042   31.4814   46.2699 H   0  0  0  0  0  0  0  0  0  0  0  0
   59.0758   31.9855   48.4602 H   0  0  0  0  0  0  0  0  0  0  0  0
   60.0203   31.4039   49.9089 H   0  0  0  0  0  0  0  0  0  0  0  0
   62.1643   30.1275   47.8212 H   0  0  0  0  0  0  0  0  0  0  0  0
   64.2207   31.1696   46.8699 H   0  0  0  0  0  0  0  0  0  0  0  0
   64.3842   33.6556   46.7188 H   0  0  0  0  0  0  0  0  0  0  0  0
   60.5180   35.2984   45.8356 H   0  0  0  0  0  0  0  0  0  0  0  0
   59.1592   34.9881   43.7632 H   0  0  0  0  0  0  0  0  0  0  0  0
   56.9605   33.8081   43.8751 H   0  0  0  0  0  0  0  0  0  0  0  0
   56.1248   32.9276   46.0600 H   0  0  0  0  0  0  0  0  0  0  0  0
   57.4844   33.2317   48.1327 H   0  0  0  0  0  0  0  0  0  0  0  0
  1  2  1  0
  2  3  1  0
  2  4  1  0
  2  5  1  0
  5  6  1  0
  6  7  2  0
  7  8  1  0
  8  9  2  0
  9 10  1  0
 10 11  1  0
 10 12  2  0
 12 13  1  0
 13 14  1  0
 14 15  1  0
 15 16  1  0
 16 17  2  0
 17 18  1  0
 18 19  2  0
 19 20  1  0
 20 21  2  0
 21 22  1  0
 22 23  1  0
 23 24  2  0
 24 25  1  0
 25 26  2  0
 26 27  1  0
 27 28  2  0
 14  5  2  0
 21 16  1  0
 28 23  1  0
 13  7  1  0
  1 29  1  0
  1 30  1  0
  1 31  1  0
  3 32  1  0
  3 33  1  0
  3 34  1  0
  4 35  1  0
  4 36  1  0
  4 37  1  0
  6 38  1  0
  8 39  1  0
  9 40  1  0
 12 41  1  0
 15 42  1  0
 15 43  1  0
 17 44  1  0
 18 45  1  0
 19 46  1  0
 24 47  1  0
 25 48  1  0
 26 49  1  0
 27 50  1  0
 28 51  1  0
M  CHG  1   6   1
M  END
>  <UniqueID>  (42) 
39

>  <SMILES>  (42) 
CC(C)(C)c1[nH+]c2ccc(Cl)cn2c1Cc1cccnc1Sc1ccccc1

>  <Energy>  (42) 
88.58288533920565

>  <Genealogy>  (42) 
CC(C)(C)c1[nH+]c2ccc(Cl)cn2c1Cc1cccnc1Sc1ccccc1 (protonated)
CC(C)(C)c1[nH+]c2ccc(Cl)cn2c1Cc1cccnc1Sc1ccccc1 (3D coordinates assigned)
CC(C)(C)c1[nH+]c2ccc(Cl)cn2c1Cc1cccnc1Sc1ccccc1 (optimized conformer: 88.58288533920565 kcal/mol)

>  <smiles>  (42) 
CC(C)(C)c1nc2ccc(Cl)cn2c1Cc1cccnc1Sc1ccccc1

>  <score_type>  (42) 
oracle

>  <origin>  (42) 
adg

>  <m_score__min__energy>  (42) 
-7.4100000000000001

>  <m_primary>  (42) 
energy

$$$$
42:0
     RDKit          3D

 46 49  0  0  1  0  0  0  0  0999 V2000
   59.0760   33.9470   52.7920 C   0  0  0  0  0  0  0  0  0  0  0  0
   60.0410   33.7920   51.7640 O   0  0  0  0  0  0  0  0  0  0  0  0
   59.6850   33.5380   50.4480 C   0  0  0  0  0  0  0  0  0  0  0  0
   58.9160   32.3990   50.2230 C   0  0  0  0  0  0  0  0  0  0  0  0
   58.5160   32.0700   48.9370 C   0  0  0  0  0  0  0  0  0  0  0  0
   58.8840   32.8710   47.8780 C   0  0  0  0  0  0  0  0  0  0  0  0
   58.4700   32.5350   46.5220 C   0  0  0  0  0  0  0  0  0  0  0  0
   58.7470   33.2720   45.3890 C   0  0  0  0  0  0  0  0  0  0  0  0
   58.1520   32.5580   44.3510 C   0  0  0  0  0  0  0  0  0  0  0  0
   58.1410   32.8680   43.0420 N   0  0  0  0  0  0  0  0  0  0  0  0
   57.5040   32.0360   42.1930 C   0  0  0  0  0  0  0  0  0  0  0  0
   57.4630   32.3370   40.7240 C   0  0  0  0  0  0  0  0  0  0  0  0
   56.8730   30.8930   42.6330 C   0  0  0  0  0  0  0  0  0  0  0  0
   56.9210   30.6320   43.9850 C   0  0  0  0  0  0  0  0  0  0  0  0
   56.3640   29.5990   44.4600 N   0  0  0  0  0  0  0  0  0  0  0  0
   57.0140   28.3650   44.7740 C   0  0  0  0  0  0  0  0  0  0  0  0
   58.2000   28.5230   45.6600 C   0  0  0  0  0  0  0  0  0  0  0  0
   58.1550   28.3400   47.0230 C   0  0  0  0  0  0  0  0  0  0  0  0
   59.2550   28.4870   47.8470 C   0  0  0  0  0  0  0  0  0  0  0  0
   60.4760   28.8360   47.3150 C   0  0  0  0  0  0  0  0  0  0  0  0
   60.5580   29.0280   45.9520 C   0  0  0  0  0  0  0  0  0  0  0  0
   59.4530   28.8770   45.1420 C   0  0  0  0  0  0  0  0  0  0  0  0
   57.5570   31.4580   44.8490 N   0  0  0  0  0  0  0  0  0  0  0  0
   57.7550   31.4500   46.1690 N   0  0  0  0  0  0  0  0  0  0  0  0
   59.6470   33.9970   48.1140 C   0  0  0  0  0  0  0  0  0  0  0  0
   60.0520   34.3380   49.3880 C   0  0  0  0  0  0  0  0  0  0  0  0
   59.5687   33.8679   53.7723 H   0  0  0  0  0  0  0  0  0  0  0  0
   58.5979   34.9334   52.7004 H   0  0  0  0  0  0  0  0  0  0  0  0
   58.3131   33.1599   52.7004 H   0  0  0  0  0  0  0  0  0  0  0  0
   58.6250   31.7582   51.0684 H   0  0  0  0  0  0  0  0  0  0  0  0
   57.9061   31.1714   48.7624 H   0  0  0  0  0  0  0  0  0  0  0  0
   59.3117   34.2135   45.3205 H   0  0  0  0  0  0  0  0  0  0  0  0
   58.6070   33.7230   42.6740 H   0  0  0  0  0  0  0  0  0  0  0  0
   57.3159   33.4169   40.5750 H   0  0  0  0  0  0  0  0  0  0  0  0
   58.4114   32.0286   40.2599 H   0  0  0  0  0  0  0  0  0  0  0  0
   56.6316   31.7862   40.2599 H   0  0  0  0  0  0  0  0  0  0  0  0
   56.3540   30.2188   41.9359 H   0  0  0  0  0  0  0  0  0  0  0  0
   56.2890   27.7087   45.2776 H   0  0  0  0  0  0  0  0  0  0  0  0
   57.3750   27.9408   43.8254 H   0  0  0  0  0  0  0  0  0  0  0  0
   57.1940   28.0624   47.4805 H   0  0  0  0  0  0  0  0  0  0  0  0
   59.1547   28.3248   48.9303 H   0  0  0  0  0  0  0  0  0  0  0  0
   61.3599   28.9581   47.9582 H   0  0  0  0  0  0  0  0  0  0  0  0
   61.5227   29.3067   45.5030 H   0  0  0  0  0  0  0  0  0  0  0  0
   59.5576   29.0389   44.0590 H   0  0  0  0  0  0  0  0  0  0  0  0
   59.9385   34.6364   47.2677 H   0  0  0  0  0  0  0  0  0  0  0  0
   60.6611   35.2385   49.5556 H   0  0  0  0  0  0  0  0  0  0  0  0
  1  2  1  0
  2  3  1  0
  3  4  2  0
  4  5  1  0
  5  6  2  0
  6  7  1  0
  7  8  1  0
  8  9  2  0
  9 10  1  0
 10 11  1  0
 11 12  1  0
 11 13  2  0
 13 14  1  0
 14 15  2  0
 15 16  1  0
 16 17  1  0
 17 18  2  0
 18 19  1  0
 19 20  2  0
 20 21  1  0
 21 22  2  0
 14 23  1  0
 23 24  1  0
  6 25  1  0
 25 26  2  0
 26  3  1  0
 24  7  2  0
 23  9  1  0
 22 17  1  0
  1 27  1  0
  1 28  1  0
  1 29  1  0
  4 30  1  0
  5 31  1  0
  8 32  1  0
 10 33  1  0
 12 34  1  0
 12 35  1  0
 12 36  1  0
 13 37  1  0
 16 38  1  0
 16 39  1  0
 18 40  1  0
 19 41  1  0
 20 42  1  0
 21 43  1  0
 22 44  1  0
 25 45  1  0
 26 46  1  0
M  END
>  <smiles>  (43) 
COc1ccc(-c2cc3[nH]c(C)cc(=NCc4ccccc4)n3n2)cc1

>  <score_type>  (43) 
oracle

>  <origin>  (43) 
adg

>  <m_score__min__energy>  (43) 
-8.0199999999999996

>  <m_primary>  (43) 
energy

$$$$
43:0
     RDKit          3D

 50 53  0  0  0  0  0  0  0  0999 V2000
   58.9090   33.7690   48.1030 C   0  0  0  0  0  0  0  0  0  0  0  0
   58.4200   32.9350   47.0950 C   0  0  0  0  0  0  0  0  0  0  0  0
   58.5590   33.3110   45.7480 C   0  0  0  0  0  0  0  0  0  0  0  0
   58.0160   32.4390   44.6820 C   0  0  0  0  0  0  0  0  0  0  0  0
   58.0290   32.6840   43.3170 C   0  0  0  0  0  0  0  0  0  0  0  0
   57.4140   31.5980   42.7320 C   0  0  0  0  0  0  0  0  0  0  0  0
   57.0600   30.7620   43.7720 C   0  0  0  0  0  0  0  0  0  0  0  0
   56.3820   29.4300   43.6340 C   0  0  0  0  0  0  0  0  0  0  0  0
   57.3370   28.3720   43.2620 N   0  0  0  0  0  0  0  0  0  0  0  0
   57.7990   27.6140   44.4350 C   0  0  0  0  0  0  0  0  0  0  0  0
   58.6880   28.4660   45.3020 C   0  0  0  0  0  0  0  0  0  0  0  0
   59.9360   28.8970   44.8250 C   0  0  0  0  0  0  0  0  0  0  0  0
   60.7540   29.7070   45.6200 C   0  0  0  0  0  0  0  0  0  0  0  0
   60.3350   30.0960   46.9030 C   0  0  0  0  0  0  0  0  0  0  0  0
   61.1720   30.9280   47.7290 N   0  0  0  0  0  0  0  0  0  0  0  0
   61.8390   32.0980   47.1490 C   0  0  0  0  0  0  0  0  0  0  0  0
   63.1350   32.3860   47.9150 C   0  0  0  0  0  0  0  0  0  0  0  0
   62.8910   32.4700   49.3070 O   0  0  0  0  0  0  0  0  0  0  0  0
   62.4540   31.2140   49.7940 C   0  0  0  0  0  0  0  0  0  0  0  0
   61.0970   30.8370   49.1890 C   0  0  0  0  0  0  0  0  0  0  0  0
   59.0790   29.6800   47.3700 C   0  0  0  0  0  0  0  0  0  0  0  0
   58.2580   28.8760   46.5730 C   0  0  0  0  0  0  0  0  0  0  0  0
   57.4330   31.2850   44.9160 O   0  0  0  0  0  0  0  0  0  0  0  0
   59.1930   34.5290   45.4470 C   0  0  0  0  0  0  0  0  0  0  0  0
   59.6580   35.3380   46.4870 C   0  0  0  0  0  0  0  0  0  0  0  0
   59.5090   34.9440   47.7810 N   0  0  0  0  0  0  0  0  0  0  0  0
   58.8081   33.4741   49.1579 H   0  0  0  0  0  0  0  0  0  0  0  0
   57.9274   31.9864   47.3547 H   0  0  0  0  0  0  0  0  0  0  0  0
   58.4450   33.5647   42.8058 H   0  0  0  0  0  0  0  0  0  0  0  0
   57.2410   31.4318   41.6585 H   0  0  0  0  0  0  0  0  0  0  0  0
   55.9134   29.1667   44.5937 H   0  0  0  0  0  0  0  0  0  0  0  0
   55.6276   29.5086   42.8373 H   0  0  0  0  0  0  0  0  0  0  0  0
   56.8530   27.7150   42.6050 H   0  0  0  0  0  0  0  0  0  0  0  0
   58.1560   28.7910   42.7620 H   0  0  0  0  0  0  0  0  0  0  0  0
   56.9270   27.2888   45.0213 H   0  0  0  0  0  0  0  0  0  0  0  0
   58.3728   26.7415   44.0892 H   0  0  0  0  0  0  0  0  0  0  0  0
   60.2722   28.5965   43.8217 H   0  0  0  0  0  0  0  0  0  0  0  0
   61.7302   30.0409   45.2384 H   0  0  0  0  0  0  0  0  0  0  0  0
   62.0748   31.8985   46.0933 H   0  0  0  0  0  0  0  0  0  0  0  0
   61.1723   32.9700   47.2200 H   0  0  0  0  0  0  0  0  0  0  0  0
   63.8541   31.5759   47.7236 H   0  0  0  0  0  0  0  0  0  0  0  0
   63.5403   33.3488   47.5705 H   0  0  0  0  0  0  0  0  0  0  0  0
   63.1943   30.4459   49.5256 H   0  0  0  0  0  0  0  0  0  0  0  0
   62.3469   31.2778   50.8869 H   0  0  0  0  0  0  0  0  0  0  0  0
   60.8390   29.8079   49.4796 H   0  0  0  0  0  0  0  0  0  0  0  0
   60.3251   31.5270   49.5606 H   0  0  0  0  0  0  0  0  0  0  0  0
   58.7379   29.9882   48.3693 H   0  0  0  0  0  0  0  0  0  0  0  0
   57.2708   28.5637   46.9442 H   0  0  0  0  0  0  0  0  0  0  0  0
   59.3221   34.8428   44.4006 H   0  0  0  0  0  0  0  0  0  0  0  0
   60.1463   36.2969   46.2589 H   0  0  0  0  0  0  0  0  0  0  0  0
  1  2  2  0
  2  3  1  0
  3  4  1  0
  4  5  2  0
  5  6  1  0
  6  7  2  0
  7  8  1  0
  8  9  1  0
  9 10  1  0
 10 11  1  0
 11 12  2  0
 12 13  1  0
 13 14  2  0
 14 15  1  0
 15 16  1  0
 16 17  1  0
 17 18  1  0
 18 19  1  0
 19 20  1  0
 14 21  1  0
 21 22  2  0
  7 23  1  0
  3 24  2  0
 24 25  1  0
 25 26  2  0
 26  1  1  0
 23  4  1  0
 22 11  1  0
 20 15  1  0
  1 27  1  0
  2 28  1  0
  5 29  1  0
  6 30  1  0
  8 31  1  0
  8 32  1  0
  9 33  1  0
  9 34  1  0
 10 35  1  0
 10 36  1  0
 12 37  1  0
 13 38  1  0
 16 39  1  0
 16 40  1  0
 17 41  1  0
 17 42  1  0
 19 43  1  0
 19 44  1  0
 20 45  1  0
 20 46  1  0
 21 47  1  0
 22 48  1  0
 24 49  1  0
 25 50  1  0
M  CHG  1   9   1
M  END
>  <UniqueID>  (44) 
40

>  <SMILES>  (44) 
c1cc(-c2ccc(C[NH2+]Cc3ccc(N4CCOCC4)cc3)o2)ccn1

>  <Energy>  (44) 
85.1755883284888

>  <Genealogy>  (44) 
c1cc(-c2ccc(C[NH2+]Cc3ccc(N4CCOCC4)cc3)o2)ccn1 (protonated)
c1cc(-c2ccc(C[NH2+]Cc3ccc(N4CCOCC4)cc3)o2)ccn1 (3D coordinates assigned)
c1cc(-c2ccc(C[NH2+]Cc3ccc(N4CCOCC4)cc3)o2)ccn1 (nonaromatic ring conformer: 85.1755883284888 kcal/mol)

>  <smiles>  (44) 
c1cc(-c2ccc(CNCc3ccc(N4CCOCC4)cc3)o2)ccn1

>  <score_type>  (44) 
oracle

>  <origin>  (44) 
adg

>  <m_score__min__energy>  (44) 
-6.8799999999999999

>  <m_primary>  (44) 
energy

$$$$
44:0
     RDKit          3D

 29 31  0  0  0  0  0  0  0  0999 V2000
   58.3707   27.7876   43.6031 H   0  0  0  0  0  0  0  0  0  0  0  0
   57.7770   27.0440   44.1550 C   0  0  0  0  0  0  0  0  0  0  0  0
   57.7790   25.7070   43.7430 C   0  0  0  0  0  0  0  0  0  0  0  0
   58.3699   25.4086   42.8645 H   0  0  0  0  0  0  0  0  0  0  0  0
   57.0330   24.7410   44.4410 C   0  0  0  0  0  0  0  0  0  0  0  0
   57.0510   23.3250   43.9910 C   0  0  0  0  0  0  0  0  0  0  0  0
   56.2120   22.9220   42.9990 N   0  0  0  0  0  0  0  0  0  0  0  0
   56.1940   21.6590   42.5700 N   0  0  0  0  0  0  0  0  0  0  0  0
   57.0170   20.7290   43.1160 C   0  0  0  0  0  0  0  0  0  0  0  0
   56.9986   19.6915   42.7510 H   0  0  0  0  0  0  0  0  0  0  0  0
   57.8630   21.0860   44.1150 N   0  0  0  0  0  0  0  0  0  0  0  0
   58.4900   20.3680   44.5430 H   0  0  0  0  0  0  0  0  0  0  0  0
   57.8970   22.3660   44.5670 C   0  0  0  0  0  0  0  0  0  0  0  0
   58.5831   22.6487   45.3790 H   0  0  0  0  0  0  0  0  0  0  0  0
   56.3110   25.1390   45.5830 C   0  0  0  0  0  0  0  0  0  0  0  0
   55.7409   24.3931   46.1563 H   0  0  0  0  0  0  0  0  0  0  0  0
   56.3140   26.4760   45.9930 C   0  0  0  0  0  0  0  0  0  0  0  0
   55.7547   26.7704   46.8933 H   0  0  0  0  0  0  0  0  0  0  0  0
   57.0200   27.4420   45.2710 C   0  0  0  0  0  0  0  0  0  0  0  0
   57.0150   28.7990   45.7490 N   0  0  0  0  0  0  0  0  0  0  0  0
   57.0540   29.8750   45.0220 C   0  0  0  0  0  0  0  0  0  0  0  0
   57.4120   31.1020   45.4570 N   0  0  0  0  0  0  0  0  0  0  0  0
   57.4030   32.0100   44.4320 C   0  0  0  0  0  0  0  0  0  0  0  0
   57.7150   33.4480   44.6710 C   0  0  0  0  0  0  0  0  0  0  0  0
   57.7565   33.6392   45.7535 H   0  0  0  0  0  0  0  0  0  0  0  0
   58.6871   33.6925   44.2179 H   0  0  0  0  0  0  0  0  0  0  0  0
   56.9316   34.0734   44.2179 H   0  0  0  0  0  0  0  0  0  0  0  0
   57.0460   31.5580   43.1950 N   0  0  0  0  0  0  0  0  0  0  0  0
   56.7460   29.9350   43.3960 S   0  0  0  0  0  0  0  0  0  0  0  0
  1  2  1  0
  2  3  2  0
  3  4  1  0
  3  5  1  0
  5  6  1  0
  6  7  2  0
  7  8  1  0
  8  9  2  0
  9 10  1  0
  9 11  1  0
 11 12  1  0
 11 13  2  0
 13 14  1  0
  5 15  2  0
 15 16  1  0
 15 17  1  0
 17 18  1  0
 17 19  2  0
 19 20  1  0
 20 21  2  0
 21 22  1  0
 22 23  1  0
 23 24  1  0
 24 25  1  0
 24 26  1  0
 24 27  1  0
 23 28  2  0
 28 29  1  0
 19  2  1  0
 29 21  1  0
 13  6  1  0
M  CHG  2  11   1  22  -1
M  END
>  <UniqueID>  (45) 
41

>  <SMILES>  (45) 
Cc1ns/c(=N/c2ccc(-c3c[nH+]cnn3)cc2)[n-]1

>  <Energy>  (45) 
78.49754394891022

>  <Genealogy>  (45) 
Cc1nsc(=Nc2ccc(-c3c[nH+]cnn3)cc2)[n-]1 (protonated)
Cc1ns/c(=N/c2ccc(-c3c[nH+]cnn3)cc2)[n-]1 (cis-trans isomerization)
Cc1ns/c(=N/c2ccc(-c3c[nH+]cnn3)cc2)[n-]1 (3D coordinates assigned)
Cc1ns/c(=N/c2ccc(-c3c[nH+]cnn3)cc2)[n-]1 (optimized conformer: 78.49754394891022 kcal/mol)

>  <smiles>  (45) 
Cc1nsc(=Nc2ccc(-c3cncnn3)cc2)[nH]1

>  <score_type>  (45) 
oracle

>  <origin>  (45) 
adg

>  <m_score__min__energy>  (45) 
-7.8200000000000003

>  <m_primary>  (45) 
energy

$$$$
45:0
     RDKit          3D

 26 27  0  0  0  0  0  0  0  0999 V2000
   59.6210   33.3100   50.3120 C   0  0  0  0  0  0  0  0  0  0  0  0
   60.1950   34.2080   49.5120 C   0  0  0  0  0  0  0  0  0  0  0  0
   61.3510   33.8860   48.6420 C   0  0  0  0  0  0  0  0  0  0  0  0
   62.6090   33.7670   49.2570 C   0  0  0  0  0  0  0  0  0  0  0  0
   63.7530   33.5260   48.4960 C   0  0  0  0  0  0  0  0  0  0  0  0
   63.6580   33.3900   47.1120 C   0  0  0  0  0  0  0  0  0  0  0  0
   62.4130   33.4730   46.4850 C   0  0  0  0  0  0  0  0  0  0  0  0
   61.2460   33.7020   47.2360 C   0  0  0  0  0  0  0  0  0  0  0  0
   59.9410   33.6690   46.5320 C   0  0  0  0  0  0  0  0  0  0  0  0
   59.6440   34.6270   45.5460 C   0  0  0  0  0  0  0  0  0  0  0  0
   58.4180   34.5900   44.8760 C   0  0  0  0  0  0  0  0  0  0  0  0
   57.4840   33.5960   45.1770 C   0  0  0  0  0  0  0  0  0  0  0  0
   57.7750   32.6340   46.1480 C   0  0  0  0  0  0  0  0  0  0  0  0
   59.0000   32.6660   46.8210 C   0  0  0  0  0  0  0  0  0  0  0  0
   58.7646   33.5995   50.9387 H   0  0  0  0  0  0  0  0  0  0  0  0
   60.0036   32.2792   50.3456 H   0  0  0  0  0  0  0  0  0  0  0  0
   59.7937   35.2321   49.4967 H   0  0  0  0  0  0  0  0  0  0  0  0
   62.6924   33.8649   50.3495 H   0  0  0  0  0  0  0  0  0  0  0  0
   64.7326   33.4431   48.9894 H   0  0  0  0  0  0  0  0  0  0  0  0
   64.5644   33.2172   46.5133 H   0  0  0  0  0  0  0  0  0  0  0  0
   62.3443   33.3582   45.3932 H   0  0  0  0  0  0  0  0  0  0  0  0
   60.3791   35.4079   45.3014 H   0  0  0  0  0  0  0  0  0  0  0  0
   58.1881   35.3453   44.1100 H   0  0  0  0  0  0  0  0  0  0  0  0
   56.5190   33.5704   44.6495 H   0  0  0  0  0  0  0  0  0  0  0  0
   57.0394   31.8507   46.3831 H   0  0  0  0  0  0  0  0  0  0  0  0
   59.2282   31.9030   47.5798 H   0  0  0  0  0  0  0  0  0  0  0  0
  1  2  2  0
  2  3  1  0
  3  4  2  0
  4  5  1  0
  5  6  2  0
  6  7  1  0
  7  8  2  0
  8  9  1  0
  9 10  2  0
 10 11  1  0
 11 12  2  0
 12 13  1  0
 13 14  2  0
  8  3  1  0
 14  9  1  0
  1 15  1  0
  1 16  1  0
  2 17  1  0
  4 18  1  0
  5 19  1  0
  6 20  1  0
  7 21  1  0
 10 22  1  0
 11 23  1  0
 12 24  1  0
 13 25  1  0
 14 26  1  0
M  END
>  <UniqueID>  (46) 
42

>  <SMILES>  (46) 
C=Cc1ccccc1-c1ccccc1

>  <Energy>  (46) 
37.75133980622317

>  <Genealogy>  (46) 
C=Cc1ccccc1-c1ccccc1 (3D coordinates assigned)
C=Cc1ccccc1-c1ccccc1 (optimized conformer: 37.75133980622317 kcal/mol)

>  <smiles>  (46) 
C=Cc1ccccc1-c1ccccc1

>  <score_type>  (46) 
oracle

>  <origin>  (46) 
adg

>  <m_score__min__energy>  (46) 
-5.9299999999999997

>  <m_primary>  (46) 
energy

$$$$
46:0
     RDKit          3D

 46 49  0  0  0  0  0  0  0  0999 V2000
   56.3880   29.8350   44.0870 C   0  0  0  0  0  0  0  0  0  0  0  0
   57.3750   30.6920   43.5910 C   0  0  0  0  0  0  0  0  0  0  0  0
   58.5870   30.8320   44.2740 C   0  0  0  0  0  0  0  0  0  0  0  0
   58.8080   30.1300   45.4660 C   0  0  0  0  0  0  0  0  0  0  0  0
   60.3630   30.2970   46.3620 S   0  0  0  0  0  0  0  0  0  0  0  0
   60.0030   31.8340   47.3640 C   0  0  0  0  0  0  0  0  0  0  0  0
   59.1700   32.8600   46.5720 C   0  0  0  0  0  0  0  0  0  0  0  0
   57.7560   32.8210   46.5770 C   0  0  0  0  0  0  0  0  0  0  0  0
   57.0100   33.6970   45.7830 C   0  0  0  0  0  0  0  0  0  0  0  0
   57.6540   34.5910   44.9290 C   0  0  0  0  0  0  0  0  0  0  0  0
   59.0460   34.5950   44.8500 C   0  0  0  0  0  0  0  0  0  0  0  0
   59.7970   33.7220   45.6420 C   0  0  0  0  0  0  0  0  0  0  0  0
   61.3220   32.5670   47.6790 C   0  0  0  0  0  0  0  0  0  0  0  0
   62.5500   32.1070   47.1440 C   0  0  0  0  0  0  0  0  0  0  0  0
   63.7570   32.7200   47.4850 C   0  0  0  0  0  0  0  0  0  0  0  0
   63.7750   33.7770   48.3940 C   0  0  0  0  0  0  0  0  0  0  0  0
   62.5850   34.2100   48.9800 C   0  0  0  0  0  0  0  0  0  0  0  0
   61.3720   33.6010   48.6420 C   0  0  0  0  0  0  0  0  0  0  0  0
   59.3170   31.3380   48.6590 C   0  0  0  0  0  0  0  0  0  0  0  0
   58.6820   32.2670   49.5140 C   0  0  0  0  0  0  0  0  0  0  0  0
   58.1240   31.8620   50.7290 C   0  0  0  0  0  0  0  0  0  0  0  0
   58.2230   30.5320   51.1370 C   0  0  0  0  0  0  0  0  0  0  0  0
   58.8960   29.6080   50.3370 C   0  0  0  0  0  0  0  0  0  0  0  0
   59.4530   30.0070   49.1200 C   0  0  0  0  0  0  0  0  0  0  0  0
   57.8290   29.2460   45.9410 C   0  0  0  0  0  0  0  0  0  0  0  0
   56.6160   29.1080   45.2580 C   0  0  0  0  0  0  0  0  0  0  0  0
   55.4308   29.7330   43.5546 H   0  0  0  0  0  0  0  0  0  0  0  0
   57.1981   31.2562   42.6634 H   0  0  0  0  0  0  0  0  0  0  0  0
   59.3687   31.4948   43.8745 H   0  0  0  0  0  0  0  0  0  0  0  0
   57.2360   32.0910   47.2147 H   0  0  0  0  0  0  0  0  0  0  0  0
   55.9112   33.6808   45.8323 H   0  0  0  0  0  0  0  0  0  0  0  0
   57.0652   35.2917   44.3188 H   0  0  0  0  0  0  0  0  0  0  0  0
   59.5545   35.2870   44.1626 H   0  0  0  0  0  0  0  0  0  0  0  0
   60.8922   33.7050   45.5406 H   0  0  0  0  0  0  0  0  0  0  0  0
   62.5528   31.2540   46.4494 H   0  0  0  0  0  0  0  0  0  0  0  0
   64.6970   32.3679   47.0350 H   0  0  0  0  0  0  0  0  0  0  0  0
   64.7255   34.2686   48.6487 H   0  0  0  0  0  0  0  0  0  0  0  0
   62.6009   35.0327   49.7100 H   0  0  0  0  0  0  0  0  0  0  0  0
   60.4442   33.9311   49.1322 H   0  0  0  0  0  0  0  0  0  0  0  0
   58.6263   33.3250   49.2183 H   0  0  0  0  0  0  0  0  0  0  0  0
   57.6052   32.5939   51.3655 H   0  0  0  0  0  0  0  0  0  0  0  0
   57.7714   30.2121   52.0876 H   0  0  0  0  0  0  0  0  0  0  0  0
   58.9881   28.5623   50.6657 H   0  0  0  0  0  0  0  0  0  0  0  0
   60.0053   29.2762   48.5111 H   0  0  0  0  0  0  0  0  0  0  0  0
   58.0151   28.6596   46.8529 H   0  0  0  0  0  0  0  0  0  0  0  0
   55.8421   28.4275   45.6427 H   0  0  0  0  0  0  0  0  0  0  0  0
  1  2  2  0
  2  3  1  0
  3  4  2  0
  4  5  1  0
  5  6  1  0
  6  7  1  0
  7  8  2  0
  8  9  1  0
  9 10  2  0
 10 11  1  0
 11 12  2  0
  6 13  1  0
 13 14  2  0
 14 15  1  0
 15 16  2  0
 16 17  1  0
 17 18  2  0
  6 19  1  0
 19 20  2  0
 20 21  1  0
 21 22  2  0
 22 23  1  0
 23 24  2  0
  4 25  1  0
 25 26  2  0
 26  1  1  0
 12  7  1  0
 18 13  1  0
 24 19  1  0
  1 27  1  0
  2 28  1  0
  3 29  1  0
  8 30  1  0
  9 31  1  0
 10 32  1  0
 11 33  1  0
 12 34  1  0
 14 35  1  0
 15 36  1  0
 16 37  1  0
 17 38  1  0
 18 39  1  0
 20 40  1  0
 21 41  1  0
 22 42  1  0
 23 43  1  0
 24 44  1  0
 25 45  1  0
 26 46  1  0
M  END
>  <UniqueID>  (47) 
43

>  <SMILES>  (47) 
c1ccc(SC(c2ccccc2)(c2ccccc2)c2ccccc2)cc1

>  <Energy>  (47) 
63.803180851939715

>  <Genealogy>  (47) 
c1ccc(SC(c2ccccc2)(c2ccccc2)c2ccccc2)cc1 (3D coordinates assigned)
c1ccc(SC(c2ccccc2)(c2ccccc2)c2ccccc2)cc1 (optimized conformer: 63.803180851939715 kcal/mol)

>  <smiles>  (47) 
c1ccc(SC(c2ccccc2)(c2ccccc2)c2ccccc2)cc1

>  <score_type>  (47) 
oracle

>  <origin>  (47) 
adg

>  <m_score__min__energy>  (47) 
-8.6899999999999995

>  <m_primary>  (47) 
energy

$$$$
47:0
     RDKit          3D

 42 45  0  0  0  0  0  0  0  0999 V2000
   61.1190   33.2850   52.8700 C   0  0  0  0  0  0  0  0  0  0  0  0
   61.1180   33.2570   51.3980 N   0  0  1  0  0  0  0  0  0  0  0  0
   62.0290   32.2200   50.8610 C   0  0  0  0  0  0  0  0  0  0  0  0
   62.4950   32.5490   49.4580 C   0  0  0  0  0  0  0  0  0  0  0  0
   62.4710   31.5530   48.4660 C   0  0  0  0  0  0  0  0  0  0  0  0
   62.9250   31.8310   47.1740 C   0  0  0  0  0  0  0  0  0  0  0  0
   63.4070   33.1040   46.8600 C   0  0  0  0  0  0  0  0  0  0  0  0
   63.4360   34.1000   47.8370 C   0  0  0  0  0  0  0  0  0  0  0  0
   62.9840   33.8290   49.1330 C   0  0  0  0  0  0  0  0  0  0  0  0
   63.0200   34.8170   50.0640 F   0  0  0  0  0  0  0  0  0  0  0  0
   59.7690   33.1730   50.8660 C   0  0  0  0  0  0  0  0  0  0  0  0
   58.8120   33.0530   51.6800 O   0  0  0  0  0  0  0  0  0  0  0  0
   59.4270   33.2310   49.4190 C   0  0  0  0  0  0  0  0  0  0  0  0
   58.8550   32.2460   48.6050 C   0  0  0  0  0  0  0  0  0  0  0  0
   58.6940   32.6490   47.2670 C   0  0  0  0  0  0  0  0  0  0  0  0
   59.1200   33.9500   47.0350 C   0  0  0  0  0  0  0  0  0  0  0  0
   59.7210   34.5910   48.4630 S   0  0  0  0  0  0  0  0  0  0  0  0
   59.1150   34.6110   45.6960 C   0  0  0  0  0  0  0  0  0  0  0  0
   57.5420   34.2180   44.8610 S   0  0  0  0  0  0  0  0  0  0  0  0
   57.7450   32.4240   44.9670 C   0  0  0  0  0  0  0  0  0  0  0  0
   57.4160   31.6410   43.8540 C   0  0  0  0  0  0  0  0  0  0  0  0
   57.4760   30.2480   43.9320 C   0  0  0  0  0  0  0  0  0  0  0  0
   57.8730   29.6300   45.1200 C   0  0  0  0  0  0  0  0  0  0  0  0
   58.2300   30.4020   46.2290 C   0  0  0  0  0  0  0  0  0  0  0  0
   58.1750   31.8060   46.1630 C   0  0  0  0  0  0  0  0  0  0  0  0
   61.0823   32.2557   53.2563 H   0  0  0  0  0  0  0  0  0  0  0  0
   62.0353   33.7781   53.2267 H   0  0  0  0  0  0  0  0  0  0  0  0
   60.2402   33.8421   53.2267 H   0  0  0  0  0  0  0  0  0  0  0  0
   61.5140   34.1830   51.1040 H   0  0  0  0  0  0  0  0  0  0  0  0
   62.9074   32.1433   51.5186 H   0  0  0  0  0  0  0  0  0  0  0  0
   61.4778   31.2688   50.8228 H   0  0  0  0  0  0  0  0  0  0  0  0
   62.0926   30.5490   48.7083 H   0  0  0  0  0  0  0  0  0  0  0  0
   62.9028   31.0465   46.4033 H   0  0  0  0  0  0  0  0  0  0  0  0
   63.7638   33.3213   45.8424 H   0  0  0  0  0  0  0  0  0  0  0  0
   63.8156   35.1018   47.5873 H   0  0  0  0  0  0  0  0  0  0  0  0
   58.5601   31.2533   48.9758 H   0  0  0  0  0  0  0  0  0  0  0  0
   59.2072   35.7001   45.8197 H   0  0  0  0  0  0  0  0  0  0  0  0
   59.9614   34.2486   45.0942 H   0  0  0  0  0  0  0  0  0  0  0  0
   57.1092   32.1247   42.9149 H   0  0  0  0  0  0  0  0  0  0  0  0
   57.2103   29.6368   43.0569 H   0  0  0  0  0  0  0  0  0  0  0  0
   57.9048   28.5323   45.1830 H   0  0  0  0  0  0  0  0  0  0  0  0
   58.5553   29.9096   47.1573 H   0  0  0  0  0  0  0  0  0  0  0  0
  1  2  1  0
  2  3  1  0
  3  4  1  0
  4  5  2  0
  5  6  1  0
  6  7  2  0
  7  8  1  0
  8  9  2  0
  9 10  1  0
  2 11  1  0
 11 12  2  0
 11 13  1  0
 13 14  2  0
 14 15  1  0
 15 16  2  0
 16 17  1  0
 16 18  1  0
 18 19  1  0
 19 20  1  0
 20 21  2  0
 21 22  1  0
 22 23  2  0
 23 24  1  0
 24 25  2  0
  9  4  1  0
 17 13  1  0
 25 20  1  0
 25 15  1  0
  1 26  1  0
  1 27  1  0
  1 28  1  0
  2 29  1  6
  3 30  1  0
  3 31  1  0
  5 32  1  0
  6 33  1  0
  7 34  1  0
  8 35  1  0
 14 36  1  0
 18 37  1  0
 18 38  1  0
 21 39  1  0
 22 40  1  0
 23 41  1  0
 24 42  1  0
M  CHG  1   2   1
M  END
>  <UniqueID>  (48) 
44

>  <SMILES>  (48) 
C[N@@H+](Cc1ccccc1F)C(=O)c1cc2c(s1)CSc1ccccc1-2

>  <Energy>  (48) 
85.63859770743029

>  <Genealogy>  (48) 
C[NH+](Cc1ccccc1F)C(=O)c1cc2c(s1)CSc1ccccc1-2 (protonated)
C[N@@H+](Cc1ccccc1F)C(=O)c1cc2c(s1)CSc1ccccc1-2 (chirality)
C[N@@H+](Cc1ccccc1F)C(=O)c1cc2c(s1)CSc1ccccc1-2 (3D coordinates assigned)
C[N@@H+](Cc1ccccc1F)C(=O)c1cc2c(s1)CSc1ccccc1-2 (nonaromatic ring conformer: 85.63859770743029 kcal/mol)

>  <smiles>  (48) 
CN(Cc1ccccc1F)C(=O)c1cc2c(s1)CSc1ccccc1-2

>  <score_type>  (48) 
oracle

>  <origin>  (48) 
adg

>  <m_score__min__energy>  (48) 
-7.4299999999999997

>  <m_primary>  (48) 
energy

$$$$
48:0
     RDKit          3D

 61 66  0  0  1  0  0  0  0  0999 V2000
   57.0250   30.1040   51.9610 O   0  0  0  0  0  0  0  0  0  0  0  0
   57.6090   31.1740   51.6450 C   0  0  0  0  0  0  0  0  0  0  0  0
   57.7960   32.2770   52.4000 N   0  0  0  0  0  0  0  0  0  0  0  0
   58.4690   33.1780   51.6650 C   0  0  0  0  0  0  0  0  0  0  0  0
   58.8440   34.4460   52.1130 O   0  0  0  0  0  0  0  0  0  0  0  0
   58.7050   32.6180   50.4210 C   0  0  0  0  0  0  0  0  0  0  0  0
   59.4180   33.3140   49.3490 C   0  0  0  0  0  0  0  0  0  0  0  0
   58.6410   29.7580   46.9720 C   0  0  0  0  0  0  0  0  0  0  0  0
   58.1910   30.0570   45.7160 C   0  0  0  0  0  0  0  0  0  0  0  0
   58.2670   33.6220   46.1120 N   0  0  0  0  0  0  0  0  0  0  0  0
   58.2970   32.3200   46.1500 N   0  0  0  0  0  0  0  0  0  0  0  0
   58.0000   31.3770   45.2510 C   0  0  0  0  0  0  0  0  0  0  0  0
   57.5140   31.5480   43.9520 N   0  0  0  0  0  0  0  0  0  0  0  0
   56.6600   30.8190   43.1020 C   0  0  0  0  0  0  0  0  0  0  0  0
   55.5420   29.9390   43.5900 C   0  0  0  0  0  0  0  0  0  0  0  0
   56.6360   29.4120   42.7250 C   0  0  0  0  0  0  0  0  0  0  0  0
   58.6590   34.2070   47.2400 C   0  0  0  0  0  0  0  0  0  0  0  0
   58.9790   33.1890   48.1070 C   0  0  0  0  0  0  0  0  0  0  0  0
   58.8000   28.5360   47.3510 N   0  0  0  0  0  0  0  0  0  0  0  0
   58.3860   27.4470   46.5060 C   0  0  0  0  0  0  0  0  0  0  0  0
   57.0460   27.0940   46.6040 C   0  0  0  0  0  0  0  0  0  0  0  0
   56.6390   26.0480   45.7970 C   0  0  0  0  0  0  0  0  0  0  0  0
   57.4830   25.3930   44.9510 C   0  0  0  0  0  0  0  0  0  0  0  0
   57.0960   24.2700   44.0680 C   0  0  0  0  0  0  0  0  0  0  0  0
   57.2040   22.9850   44.7050 N   0  0  0  0  0  0  0  0  0  0  0  0
   57.9050   22.0700   43.8390 C   0  0  0  0  0  0  0  0  0  0  0  0
   56.9680   21.3010   42.9330 C   0  0  0  0  0  0  0  0  0  0  0  0
   56.2560   20.3370   43.7530 N   0  0  0  0  0  0  0  0  0  0  0  0
   55.9010   20.9370   45.0270 C   0  0  0  0  0  0  0  0  0  0  0  0
   55.8700   22.4570   44.8890 C   0  0  0  0  0  0  0  0  0  0  0  0
   58.7850   25.7820   44.8960 N   0  0  0  0  0  0  0  0  0  0  0  0
   59.2590   26.8010   45.6600 C   0  0  0  0  0  0  0  0  0  0  0  0
   58.9190   30.7610   47.8200 N   0  0  0  0  0  0  0  0  0  0  0  0
   58.7470   32.0270   47.4080 C   0  0  0  0  0  0  0  0  0  0  0  0
   58.1690   31.3870   50.4280 N   0  0  0  0  0  0  0  0  0  0  0  0
   57.4750   32.4170   53.3930 H   0  0  0  0  0  0  0  0  0  0  0  0
   58.4200   35.2340   51.6560 H   0  0  0  0  0  0  0  0  0  0  0  0
   60.3022   33.9294   49.5716 H   0  0  0  0  0  0  0  0  0  0  0  0
   57.9659   29.2258   45.0316 H   0  0  0  0  0  0  0  0  0  0  0  0
   57.8780   32.4740   43.4910 H   0  0  0  0  0  0  0  0  0  0  0  0
   56.7960   31.7352   42.5086 H   0  0  0  0  0  0  0  0  0  0  0  0
   55.4850   29.6507   44.6500 H   0  0  0  0  0  0  0  0  0  0  0  0
   54.4432   29.9625   43.5445 H   0  0  0  0  0  0  0  0  0  0  0  0
   57.3807   28.7208   43.1465 H   0  0  0  0  0  0  0  0  0  0  0  0
   56.6676   28.8709   41.7678 H   0  0  0  0  0  0  0  0  0  0  0  0
   58.7158   35.2873   47.4392 H   0  0  0  0  0  0  0  0  0  0  0  0
   56.3524   27.6141   47.2811 H   0  0  0  0  0  0  0  0  0  0  0  0
   55.5868   25.7302   45.8396 H   0  0  0  0  0  0  0  0  0  0  0  0
   56.0526   24.4171   43.7523 H   0  0  0  0  0  0  0  0  0  0  0  0
   57.7901   24.2711   43.2146 H   0  0  0  0  0  0  0  0  0  0  0  0
   58.6086   22.6419   43.2161 H   0  0  0  0  0  0  0  0  0  0  0  0
   58.4298   21.3417   44.4748 H   0  0  0  0  0  0  0  0  0  0  0  0
   56.2537   21.9909   42.4598 H   0  0  0  0  0  0  0  0  0  0  0  0
   57.5319   20.7902   42.1386 H   0  0  0  0  0  0  0  0  0  0  0  0
   56.9600   19.5750   43.9700 H   0  0  0  0  0  0  0  0  0  0  0  0
   54.9085   20.5776   45.3365 H   0  0  0  0  0  0  0  0  0  0  0  0
   56.6483   20.6550   45.7833 H   0  0  0  0  0  0  0  0  0  0  0  0
   55.2524   22.7274   44.0198 H   0  0  0  0  0  0  0  0  0  0  0  0
   55.4459   22.8853   45.8092 H   0  0  0  0  0  0  0  0  0  0  0  0
   60.3154   27.1025   45.6038 H   0  0  0  0  0  0  0  0  0  0  0  0
   58.2030   30.7460   49.6170 H   0  0  0  0  0  0  0  0  0  0  0  0
  1  2  2  0
  2  3  1  0
  3  4  1  0
  4  5  1  0
  4  6  2  0
  6  7  1  0
  7  8  2  0
  8  9  1  0
  9 10  2  0
 10 11  1  0
 11 12  1  0
 12 13  1  0
 13 14  1  0
 14 15  1  0
 15 16  1  0
 12 17  2  0
 17 18  1  0
 18 19  2  0
 19 20  1  0
 20 21  2  0
 21 22  1  0
 22 23  2  0
 23 24  1  0
 24 25  1  0
 25 26  1  0
 26 27  1  0
 27 28  1  0
 28 29  1  0
 29 30  1  0
 23 31  1  0
 31 32  2  0
 18 33  1  0
 33 34  2  0
  6 35  1  0
 35  2  1  0
 34  8  1  0
 34 11  1  0
 16 14  1  0
 32 20  1  0
 30 25  1  0
  3 36  1  0
  5 37  1  0
  7 38  1  0
  9 39  1  0
 13 40  1  0
 14 41  1  0
 15 42  1  0
 15 43  1  0
 16 44  1  0
 16 45  1  0
 17 46  1  0
 21 47  1  0
 22 48  1  0
 24 49  1  0
 24 50  1  0
 26 51  1  0
 26 52  1  0
 27 53  1  0
 27 54  1  0
 28 55  1  0
 29 56  1  0
 29 57  1  0
 30 58  1  0
 30 59  1  0
 32 60  1  0
 35 61  1  0
M  END
>  <smiles>  (49) 
O=c1[nH]c(O)c(C=c2cnn3c(NC4CC4)cc(=Nc4ccc(CN5CCNCC5)nc4)nc23)[nH]1

>  <score_type>  (49) 
oracle

>  <origin>  (49) 
adg

>  <m_score__min__energy>  (49) 
-10.67

>  <m_primary>  (49) 
energy

$$$$
