0:0
     RDKit          3D

 40 41  0  0  0  0  0  0  0  0999 V2000
   57.0540   34.2160   45.2730 C   0  0  0  0  0  0  0  0  0  0  0  0
   58.4830   33.7540   44.9240 C   0  0  2  0  0  0  0  0  0  0  0  0
   58.5160   33.0300   43.5780 C   0  0  0  0  0  0  0  0  0  0  0  0
   57.7360   31.7570   43.6810 C   0  0  0  0  0  0  0  0  0  0  0  0
   57.0230   31.4130   42.7490 O   0  0  0  0  0  0  0  0  0  0  0  0
   57.8180   30.8990   44.9260 C   0  0  1  0  0  0  0  0  0  0  0  0
   58.3900   29.5250   44.5360 C   0  0  0  0  0  0  0  0  0  0  0  0
   58.6280   31.5410   46.0710 C   0  0  0  0  0  0  0  0  0  0  0  0
   59.0540   32.8480   46.0160 C   0  0  0  0  0  0  0  0  0  0  0  0
   60.0260   33.4480   47.0680 C   0  0  0  0  0  0  0  0  0  0  0  0
   61.1960   34.1940   46.3700 C   0  0  0  0  0  0  0  0  0  0  0  0
   59.2580   34.4900   47.9200 C   0  0  0  0  0  0  0  0  0  0  0  0
   60.6110   32.3420   48.0220 C   0  0  2  0  0  0  0  0  0  0  0  0
   61.7880   31.5390   47.4150 C   0  0  0  0  0  0  0  0  0  0  0  0
   59.4960   31.3910   48.4720 C   0  0  0  0  0  0  0  0  0  0  0  0
   58.9060   30.6530   47.2750 C   0  0  0  0  0  0  0  0  0  0  0  0
   56.9375   34.2537   46.3662 H   0  0  0  0  0  0  0  0  0  0  0  0
   56.8788   35.2166   44.8509 H   0  0  0  0  0  0  0  0  0  0  0  0
   56.3262   33.5074   44.8509 H   0  0  0  0  0  0  0  0  0  0  0  0
   59.1089   34.6558   44.8536 H   0  0  0  0  0  0  0  0  0  0  0  0
   59.5579   32.8016   43.3092 H   0  0  0  0  0  0  0  0  0  0  0  0
   58.0717   33.6724   42.8034 H   0  0  0  0  0  0  0  0  0  0  0  0
   56.8001   30.7906   45.3287 H   0  0  0  0  0  0  0  0  0  0  0  0
   58.6274   28.9549   45.4463 H   0  0  0  0  0  0  0  0  0  0  0  0
   57.6466   28.9737   43.9414 H   0  0  0  0  0  0  0  0  0  0  0  0
   59.3050   29.6641   43.9414 H   0  0  0  0  0  0  0  0  0  0  0  0
   61.8652   34.6207   47.1317 H   0  0  0  0  0  0  0  0  0  0  0  0
   61.7586   33.4875   45.7420 H   0  0  0  0  0  0  0  0  0  0  0  0
   60.7928   35.0021   45.7420 H   0  0  0  0  0  0  0  0  0  0  0  0
   59.4146   34.2776   48.9879 H   0  0  0  0  0  0  0  0  0  0  0  0
   59.6301   35.4989   47.6884 H   0  0  0  0  0  0  0  0  0  0  0  0
   58.1841   34.4332   47.6884 H   0  0  0  0  0  0  0  0  0  0  0  0
   61.0277   32.8775   48.8878 H   0  0  0  0  0  0  0  0  0  0  0  0
   62.4024   31.1198   48.2254 H   0  0  0  0  0  0  0  0  0  0  0  0
   61.3926   30.7215   46.7942 H   0  0  0  0  0  0  0  0  0  0  0  0
   62.4049   32.2053   46.7942 H   0  0  0  0  0  0  0  0  0  0  0  0
   58.7028   31.9715   48.9659 H   0  0  0  0  0  0  0  0  0  0  0  0
   59.9184   30.6539   49.1707 H   0  0  0  0  0  0  0  0  0  0  0  0
   57.9588   30.1894   47.5880 H   0  0  0  0  0  0  0  0  0  0  0  0
   59.6568   29.9146   46.9570 H   0  0  0  0  0  0  0  0  0  0  0  0
  1  2  1  0
  2  3  1  0
  3  4  1  0
  4  5  2  0
  4  6  1  0
  6  7  1  0
  6  8  1  0
  8  9  2  0
  9 10  1  0
 10 11  1  0
 10 12  1  0
 10 13  1  0
 13 14  1  0
 13 15  1  0
 15 16  1  0
  9  2  1  0
 16  8  1  0
  1 17  1  0
  1 18  1  0
  1 19  1  0
  2 20  1  6
  3 21  1  0
  3 22  1  0
  6 23  1  1
  7 24  1  0
  7 25  1  0
  7 26  1  0
 11 27  1  0
 11 28  1  0
 11 29  1  0
 12 30  1  0
 12 31  1  0
 12 32  1  0
 13 33  1  1
 14 34  1  0
 14 35  1  0
 14 36  1  0
 15 37  1  0
 15 38  1  0
 16 39  1  0
 16 40  1  0
M  END
>  <UniqueID>  (1) 
1

>  <SMILES>  (1) 
CC1CCC2=C([C@H](C)CC(=O)[C@H]2C)C1(C)C

>  <Energy>  (1) 
43.6520533948023

>  <Genealogy>  (1) 
CC1CCC2=C([C@H](C)CC(=O)[C@H]2C)C1(C)C (chirality)
CC1CCC2=C([C@H](C)CC(=O)[C@H]2C)C1(C)C (3D coordinates assigned)
CC1CCC2=C([C@H](C)CC(=O)[C@H]2C)C1(C)C (nonaromatic ring conformer: 43.6520533948023 kcal/mol)

>  <smiles>  (1) 
CC1CC(=O)C(C)C2=C1C(C)(C)C(C)CC2

>  <score_type>  (1) 
oracle

>  <origin>  (1) 
adg

>  <m_score__min__energy>  (1) 
-6.9800000000000004

>  <m_primary>  (1) 
energy

$$$$
1:0
     RDKit          3D

 54 56  0  0  0  0  0  0  0  0999 V2000
   62.1740   33.4580   46.7450 C   0  0  0  0  0  0  0  0  0  0  0  0
   60.8560   33.0530   47.1080 O   0  0  0  0  0  0  0  0  0  0  0  0
   59.7190   33.1960   46.2930 C   0  0  0  0  0  0  0  0  0  0  0  0
   59.3500   34.4530   45.7780 C   0  0  0  0  0  0  0  0  0  0  0  0
   58.2020   34.5900   45.0050 C   0  0  0  0  0  0  0  0  0  0  0  0
   57.4040   33.4830   44.7290 C   0  0  0  0  0  0  0  0  0  0  0  0
   57.7530   32.2090   45.2150 C   0  0  0  0  0  0  0  0  0  0  0  0
   56.9670   31.0820   44.9190 O   0  0  0  0  0  0  0  0  0  0  0  0
   57.1130   30.2610   43.7620 C   0  0  0  0  0  0  0  0  0  0  0  0
   58.9230   32.0580   46.0030 C   0  0  0  0  0  0  0  0  0  0  0  0
   59.3170   30.7180   46.5270 C   0  0  0  0  0  0  0  0  0  0  0  0
   60.0730   29.9720   45.8490 O   0  0  0  0  0  0  0  0  0  0  0  0
   58.8590   30.2740   47.8100 N   0  0  0  0  0  0  0  0  0  0  0  0
   59.6720   29.5040   48.7470 C   0  0  0  0  0  0  0  0  0  0  0  0
   59.8880   28.0380   48.2880 C   0  0  0  0  0  0  0  0  0  0  0  0
   59.2770   27.6590   46.9840 N   0  0  0  0  0  0  0  0  0  0  0  0
   60.1570   26.8000   46.1380 C   0  0  0  0  0  0  0  0  0  0  0  0
   59.6600   25.3510   46.0340 C   0  0  0  0  0  0  0  0  0  0  0  0
   58.2760   25.3320   45.5410 N   0  0  0  0  0  0  0  0  0  0  0  0
   57.7820   24.2030   44.7870 C   0  0  0  0  0  0  0  0  0  0  0  0
   58.3510   22.9230   44.9520 C   0  0  0  0  0  0  0  0  0  0  0  0
   57.8730   21.8350   44.2180 C   0  0  0  0  0  0  0  0  0  0  0  0
   56.8250   22.0060   43.3100 C   0  0  0  0  0  0  0  0  0  0  0  0
   56.3690   20.9520   42.5930 F   0  0  0  0  0  0  0  0  0  0  0  0
   56.2500   23.2700   43.1390 C   0  0  0  0  0  0  0  0  0  0  0  0
   56.7230   24.3620   43.8720 C   0  0  0  0  0  0  0  0  0  0  0  0
   57.3860   26.4510   45.8730 C   0  0  0  0  0  0  0  0  0  0  0  0
   57.8850   27.1640   47.1350 C   0  0  0  0  0  0  0  0  0  0  0  0
   62.7653   33.6397   47.6546 H   0  0  0  0  0  0  0  0  0  0  0  0
   62.6506   32.6648   46.1502 H   0  0  0  0  0  0  0  0  0  0  0  0
   62.1229   34.3819   46.1502 H   0  0  0  0  0  0  0  0  0  0  0  0
   59.9745   35.3337   45.9886 H   0  0  0  0  0  0  0  0  0  0  0  0
   57.9231   35.5779   44.6097 H   0  0  0  0  0  0  0  0  0  0  0  0
   56.4924   33.6052   44.1256 H   0  0  0  0  0  0  0  0  0  0  0  0
   57.2978   29.2216   44.0709 H   0  0  0  0  0  0  0  0  0  0  0  0
   56.1926   30.3068   43.1613 H   0  0  0  0  0  0  0  0  0  0  0  0
   57.9612   30.6213   43.1613 H   0  0  0  0  0  0  0  0  0  0  0  0
   60.6537   29.9908   48.8435 H   0  0  0  0  0  0  0  0  0  0  0  0
   59.1356   29.4759   49.7069 H   0  0  0  0  0  0  0  0  0  0  0  0
   60.9719   27.8664   48.2129 H   0  0  0  0  0  0  0  0  0  0  0  0
   59.3814   27.4167   49.0413 H   0  0  0  0  0  0  0  0  0  0  0  0
   59.1840   28.5650   46.4630 H   0  0  0  0  0  0  0  0  0  0  0  0
   60.1985   27.2298   45.1263 H   0  0  0  0  0  0  0  0  0  0  0  0
   61.1482   26.7745   46.6143 H   0  0  0  0  0  0  0  0  0  0  0  0
   60.3033   24.7938   45.3371 H   0  0  0  0  0  0  0  0  0  0  0  0
   59.6969   24.8828   47.0287 H   0  0  0  0  0  0  0  0  0  0  0  0
   59.1773   22.7805   45.6640 H   0  0  0  0  0  0  0  0  0  0  0  0
   58.3230   20.8407   44.3552 H   0  0  0  0  0  0  0  0  0  0  0  0
   55.4235   23.4047   42.4258 H   0  0  0  0  0  0  0  0  0  0  0  0
   56.2651   25.3525   43.7334 H   0  0  0  0  0  0  0  0  0  0  0  0
   57.3691   27.1635   45.0351 H   0  0  0  0  0  0  0  0  0  0  0  0
   56.3727   26.0635   46.0551 H   0  0  0  0  0  0  0  0  0  0  0  0
   57.2252   28.0191   47.3435 H   0  0  0  0  0  0  0  0  0  0  0  0
   57.8715   26.4383   47.9616 H   0  0  0  0  0  0  0  0  0  0  0  0
  1  2  1  0
  2  3  1  0
  3  4  2  0
  4  5  1  0
  5  6  2  0
  6  7  1  0
  7  8  1  0
  8  9  1  0
  7 10  2  0
 10 11  1  0
 11 12  2  0
 11 13  1  0
 13 14  1  0
 14 15  1  0
 15 16  1  0
 16 17  1  0
 17 18  1  0
 18 19  1  0
 19 20  1  0
 20 21  2  0
 21 22  1  0
 22 23  2  0
 23 24  1  0
 23 25  1  0
 25 26  2  0
 19 27  1  0
 27 28  1  0
 10  3  1  0
 28 16  1  0
 26 20  1  0
  1 29  1  0
  1 30  1  0
  1 31  1  0
  4 32  1  0
  5 33  1  0
  6 34  1  0
  9 35  1  0
  9 36  1  0
  9 37  1  0
 14 38  1  0
 14 39  1  0
 15 40  1  0
 15 41  1  0
 16 42  1  0
 17 43  1  0
 17 44  1  0
 18 45  1  0
 18 46  1  0
 21 47  1  0
 22 48  1  0
 25 49  1  0
 26 50  1  0
 27 51  1  0
 27 52  1  0
 28 53  1  0
 28 54  1  0
M  CHG  2  13  -1  16   1
M  END
>  <UniqueID>  (2) 
2

>  <SMILES>  (2) 
COc1cccc(OC)c1C(=O)[N-]CC[NH+]1CCN(c2ccc(F)cc2)CC1

>  <Energy>  (2) 
70.05991524086724

>  <Genealogy>  (2) 
COc1cccc(OC)c1C(=O)[N-]CC[NH+]1CCN(c2ccc(F)cc2)CC1 (protonated)
COc1cccc(OC)c1C(=O)[N-]CC[NH+]1CCN(c2ccc(F)cc2)CC1 (3D coordinates assigned)
COc1cccc(OC)c1C(=O)[N-]CC[NH+]1CCN(c2ccc(F)cc2)CC1 (nonaromatic ring conformer: 70.05991524086724 kcal/mol)

>  <smiles>  (2) 
COc1cccc(OC)c1C(=O)NCCN1CCN(c2ccc(F)cc2)CC1

>  <score_type>  (2) 
oracle

>  <origin>  (2) 
adg

>  <m_score__min__energy>  (2) 
-8.1199999999999992

>  <m_primary>  (2) 
energy

$$$$
2:0
     RDKit          3D

 63 67  0  0  0  0  0  0  0  0999 V2000
   60.1870   27.2150   45.9290 C   0  0  0  0  0  0  0  0  0  0  0  0
   58.7790   26.9060   46.2330 N   0  0  0  0  0  0  0  0  0  0  0  0
   58.3520   27.4460   47.5460 C   0  0  0  0  0  0  0  0  0  0  0  0
   58.8700   28.8390   47.8350 C   0  0  0  0  0  0  0  0  0  0  0  0
   59.6450   29.2200   48.9160 C   0  0  0  0  0  0  0  0  0  0  0  0
   59.9950   30.5130   48.7870 N   0  0  0  0  0  0  0  0  0  0  0  0
   59.4620   30.9740   47.6660 N   0  0  0  0  0  0  0  0  0  0  0  0
   59.6230   32.3370   47.2320 C   0  0  0  0  0  0  0  0  0  0  0  0
   60.8780   32.8240   46.8270 C   0  0  0  0  0  0  0  0  0  0  0  0
   61.0160   34.1500   46.4020 C   0  0  0  0  0  0  0  0  0  0  0  0
   59.9030   34.9930   46.3660 C   0  0  0  0  0  0  0  0  0  0  0  0
   58.6480   34.5110   46.7480 C   0  0  0  0  0  0  0  0  0  0  0  0
   58.5060   33.1860   47.1730 C   0  0  0  0  0  0  0  0  0  0  0  0
   58.7650   29.9850   47.0580 C   0  0  0  0  0  0  0  0  0  0  0  0
   58.1070   30.0960   45.7390 C   0  0  0  0  0  0  0  0  0  0  0  0
   58.6540   30.9240   44.7470 C   0  0  0  0  0  0  0  0  0  0  0  0
   58.0300   31.0350   43.5010 C   0  0  0  0  0  0  0  0  0  0  0  0
   56.8550   30.3230   43.2390 C   0  0  0  0  0  0  0  0  0  0  0  0
   56.2510   30.4310   42.0310 F   0  0  0  0  0  0  0  0  0  0  0  0
   56.3010   29.5020   44.2260 C   0  0  0  0  0  0  0  0  0  0  0  0
   56.9220   29.3900   45.4750 C   0  0  0  0  0  0  0  0  0  0  0  0
   58.4460   25.4710   46.0400 C   0  0  0  0  0  0  0  0  0  0  0  0
   57.0060   25.3040   45.4600 C   0  0  1  0  0  0  0  0  0  0  0  0
   56.3550   26.5510   45.5700 O   0  0  0  0  0  0  0  0  0  0  0  0
   57.0460   24.9530   43.9500 C   0  0  0  0  0  0  0  0  0  0  0  0
   56.9700   23.5130   43.6960 N   0  0  0  0  0  0  0  0  0  0  0  0
   56.0000   22.8490   43.0450 C   0  0  0  0  0  0  0  0  0  0  0  0
   56.2540   21.5270   43.0120 N   0  0  0  0  0  0  0  0  0  0  0  0
   57.4230   21.4370   43.6830 C   0  0  0  0  0  0  0  0  0  0  0  0
   57.8670   22.6360   44.1080 N   0  0  0  0  0  0  0  0  0  0  0  0
   56.1700   24.2380   46.2030 C   0  0  0  0  0  0  0  0  0  0  0  0
   56.8120   23.4170   47.1590 C   0  0  0  0  0  0  0  0  0  0  0  0
   56.0980   22.4630   47.8870 C   0  0  0  0  0  0  0  0  0  0  0  0
   54.7260   22.3210   47.6970 C   0  0  0  0  0  0  0  0  0  0  0  0
   54.0340   21.3960   48.4070 F   0  0  0  0  0  0  0  0  0  0  0  0
   54.0610   23.1430   46.7880 C   0  0  0  0  0  0  0  0  0  0  0  0
   54.7650   24.1030   46.0530 C   0  0  0  0  0  0  0  0  0  0  0  0
   54.0480   24.9100   45.2350 F   0  0  0  0  0  0  0  0  0  0  0  0
   60.7465   27.3378   46.8681 H   0  0  0  0  0  0  0  0  0  0  0  0
   60.6254   26.3917   45.3460 H   0  0  0  0  0  0  0  0  0  0  0  0
   60.2404   28.1462   45.3460 H   0  0  0  0  0  0  0  0  0  0  0  0
   57.2526   27.4740   47.5679 H   0  0  0  0  0  0  0  0  0  0  0  0
   58.7733   26.7829   48.3159 H   0  0  0  0  0  0  0  0  0  0  0  0
   59.9313   28.5660   49.7529 H   0  0  0  0  0  0  0  0  0  0  0  0
   61.7549   32.1601   46.8443 H   0  0  0  0  0  0  0  0  0  0  0  0
   62.0023   34.5289   46.0959 H   0  0  0  0  0  0  0  0  0  0  0  0
   60.0142   36.0367   46.0369 H   0  0  0  0  0  0  0  0  0  0  0  0
   57.7711   35.1743   46.7144 H   0  0  0  0  0  0  0  0  0  0  0  0
   57.5146   32.8072   47.4624 H   0  0  0  0  0  0  0  0  0  0  0  0
   59.5766   31.4874   44.9504 H   0  0  0  0  0  0  0  0  0  0  0  0
   58.4638   31.6833   42.7254 H   0  0  0  0  0  0  0  0  0  0  0  0
   55.3759   28.9435   44.0204 H   0  0  0  0  0  0  0  0  0  0  0  0
   56.4811   28.7477   46.2516 H   0  0  0  0  0  0  0  0  0  0  0  0
   59.1692   25.0247   45.3415 H   0  0  0  0  0  0  0  0  0  0  0  0
   58.4914   24.9663   47.0163 H   0  0  0  0  0  0  0  0  0  0  0  0
   56.9650   27.2470   45.2070 H   0  0  0  0  0  0  0  0  0  0  0  0
   56.1949   25.4421   43.4536 H   0  0  0  0  0  0  0  0  0  0  0  0
   58.0098   25.3068   43.5550 H   0  0  0  0  0  0  0  0  0  0  0  0
   55.1142   23.3234   42.5975 H   0  0  0  0  0  0  0  0  0  0  0  0
   57.9534   20.4902   43.8624 H   0  0  0  0  0  0  0  0  0  0  0  0
   57.8922   23.5319   47.3320 H   0  0  0  0  0  0  0  0  0  0  0  0
   56.6207   21.8221   48.6123 H   0  0  0  0  0  0  0  0  0  0  0  0
   52.9752   23.0359   46.6478 H   0  0  0  0  0  0  0  0  0  0  0  0
  1  2  1  0
  2  3  1  0
  3  4  1  0
  4  5  1  0
  5  6  2  0
  6  7  1  0
  7  8  1  0
  8  9  2  0
  9 10  1  0
 10 11  2  0
 11 12  1  0
 12 13  2  0
  7 14  1  0
 14 15  1  0
 15 16  2  0
 16 17  1  0
 17 18  2  0
 18 19  1  0
 18 20  1  0
 20 21  2  0
  2 22  1  0
 22 23  1  0
 23 24  1  6
 23 25  1  0
 25 26  1  0
 26 27  1  0
 27 28  2  0
 28 29  1  0
 29 30  2  0
 23 31  1  0
 31 32  2  0
 32 33  1  0
 33 34  2  0
 34 35  1  0
 34 36  1  0
 36 37  2  0
 37 38  1  0
 14  4  2  0
 21 15  1  0
 30 26  1  0
 37 31  1  0
 13  8  1  0
  1 39  1  0
  1 40  1  0
  1 41  1  0
  3 42  1  0
  3 43  1  0
  5 44  1  0
  9 45  1  0
 10 46  1  0
 11 47  1  0
 12 48  1  0
 13 49  1  0
 16 50  1  0
 17 51  1  0
 20 52  1  0
 21 53  1  0
 22 54  1  0
 22 55  1  0
 24 56  1  0
 25 57  1  0
 25 58  1  0
 27 59  1  0
 29 60  1  0
 32 61  1  0
 33 62  1  0
 36 63  1  0
M  END
>  <UniqueID>  (3) 
3

>  <SMILES>  (3) 
CN(Cc1cnn(-c2ccccc2)c1-c1ccc(F)cc1)C[C@@](O)(Cn1cncn1)c1ccc(F)cc1F

>  <Energy>  (3) 
152.60066767348425

>  <Genealogy>  (3) 
CN(Cc1cnn(-c2ccccc2)c1-c1ccc(F)cc1)C[C@@](O)(Cn1cncn1)c1ccc(F)cc1F (chirality)
CN(Cc1cnn(-c2ccccc2)c1-c1ccc(F)cc1)C[C@@](O)(Cn1cncn1)c1ccc(F)cc1F (3D coordinates assigned)
CN(Cc1cnn(-c2ccccc2)c1-c1ccc(F)cc1)C[C@@](O)(Cn1cncn1)c1ccc(F)cc1F (optimized conformer: 152.60066767348425 kcal/mol)

>  <smiles>  (3) 
CN(Cc1cnn(-c2ccccc2)c1-c1ccc(F)cc1)CC(O)(Cn1cncn1)c1ccc(F)cc1F

>  <score_type>  (3) 
oracle

>  <origin>  (3) 
adg

>  <m_score__min__energy>  (3) 
-9.0299999999999994

>  <m_primary>  (3) 
energy

$$$$
3:0
     RDKit          3D

 39 40  0  0  1  0  0  0  0  0999 V2000
   58.8710   31.7980   48.1520 C   0  0  0  0  0  0  0  0  0  0  0  0
   58.2530   32.6260   47.0950 C   0  0  0  0  0  0  0  0  0  0  0  0
   58.9610   32.9060   45.9230 N   0  0  0  0  0  0  0  0  0  0  0  0
   60.0410   33.8440   46.0480 C   0  0  0  0  0  0  0  0  0  0  0  0
   59.6340   35.2610   46.2740 C   0  0  0  0  0  0  0  0  0  0  0  0
   58.2000   33.0710   44.7110 C   0  0  0  0  0  0  0  0  0  0  0  0
   56.8320   32.4690   44.9520 C   0  0  0  0  0  0  0  0  0  0  0  0
   56.6160   31.1700   44.4530 N   0  0  0  0  0  0  0  0  0  0  0  0
   57.1610   30.1220   44.9120 C   0  0  0  0  0  0  0  0  0  0  0  0
   58.4800   30.0760   45.1890 N   0  0  0  0  0  0  0  0  0  0  0  0
   59.1040   29.0240   45.6500 N   0  0  0  0  0  0  0  0  0  0  0  0
   60.4600   28.9880   45.9280 O   0  0  0  0  0  0  0  0  0  0  0  0
   58.4230   27.8860   45.8760 C   0  0  0  0  0  0  0  0  0  0  0  0
   58.9980   26.7310   46.3550 C   0  0  0  0  0  0  0  0  0  0  0  0
   58.2320   25.6040   46.5600 C   0  0  0  0  0  0  0  0  0  0  0  0
   56.8620   25.5770   46.2990 C   0  0  0  0  0  0  0  0  0  0  0  0
   56.2990   26.7400   45.8200 C   0  0  0  0  0  0  0  0  0  0  0  0
   57.0710   27.8880   45.6090 C   0  0  0  0  0  0  0  0  0  0  0  0
   56.4670   28.9860   45.1390 N   0  0  0  0  0  0  0  0  0  0  0  0
   55.1510   28.9690   44.9040 O   0  0  0  0  0  0  0  0  0  0  0  0
   58.5807   32.1869   49.1391 H   0  0  0  0  0  0  0  0  0  0  0  0
   58.5263   30.7582   48.0517 H   0  0  0  0  0  0  0  0  0  0  0  0
   59.9659   31.8326   48.0517 H   0  0  0  0  0  0  0  0  0  0  0  0
   57.3270   32.1152   46.7922 H   0  0  0  0  0  0  0  0  0  0  0  0
   58.1538   33.6122   47.5721 H   0  0  0  0  0  0  0  0  0  0  0  0
   60.6661   33.5308   46.8972 H   0  0  0  0  0  0  0  0  0  0  0  0
   60.5681   33.8301   45.0826 H   0  0  0  0  0  0  0  0  0  0  0  0
   59.5773   35.4583   47.3547 H   0  0  0  0  0  0  0  0  0  0  0  0
   60.3755   35.9328   45.8170 H   0  0  0  0  0  0  0  0  0  0  0  0
   58.6490   35.4369   45.8170 H   0  0  0  0  0  0  0  0  0  0  0  0
   58.1036   34.1399   44.4698 H   0  0  0  0  0  0  0  0  0  0  0  0
   58.7004   32.5744   43.8667 H   0  0  0  0  0  0  0  0  0  0  0  0
   56.6674   32.4401   46.0392 H   0  0  0  0  0  0  0  0  0  0  0  0
   56.1317   33.1116   44.3983 H   0  0  0  0  0  0  0  0  0  0  0  0
   59.0630   30.9470   45.0240 H   0  0  0  0  0  0  0  0  0  0  0  0
   60.0754   26.7073   46.5755 H   0  0  0  0  0  0  0  0  0  0  0  0
   58.7177   24.6942   46.9427 H   0  0  0  0  0  0  0  0  0  0  0  0
   56.2604   24.6716   46.4673 H   0  0  0  0  0  0  0  0  0  0  0  0
   55.2217   26.7665   45.5992 H   0  0  0  0  0  0  0  0  0  0  0  0
  1  2  1  0
  2  3  1  0
  3  4  1  0
  4  5  1  0
  3  6  1  0
  6  7  1  0
  7  8  1  0
  8  9  2  0
  9 10  1  0
 10 11  1  0
 11 12  1  0
 11 13  2  0
 13 14  1  0
 14 15  2  0
 15 16  1  0
 16 17  2  0
 17 18  1  0
 18 19  2  0
 19 20  1  0
 19  9  1  0
 18 13  1  0
  1 21  1  0
  1 22  1  0
  1 23  1  0
  2 24  1  0
  2 25  1  0
  4 26  1  0
  4 27  1  0
  5 28  1  0
  5 29  1  0
  5 30  1  0
  6 31  1  0
  6 32  1  0
  7 33  1  0
  7 34  1  0
 10 35  1  0
 14 36  1  0
 15 37  1  0
 16 38  1  0
 17 39  1  0
M  CHG  4  11   1  12  -1  19   1  20  -1
M  END
>  <smiles>  (4) 
CCN(CC)CCN=c1[nH][n+]([O-])c2ccccc2[n+]1[O-]

>  <score_type>  (4) 
oracle

>  <origin>  (4) 
adg

>  <m_score__min__energy>  (4) 
-7.6600000000000001

>  <m_primary>  (4) 
energy

$$$$
4:0
     RDKit          3D

 56 58  0  0  0  0  0  0  0  0999 V2000
   55.2845   29.3535   43.5530 H   0  0  0  0  0  0  0  0  0  0  0  0
   56.0510   29.5760   44.3100 C   0  0  0  0  0  0  0  0  0  0  0  0
   56.2450   28.6870   45.2460 N   0  0  0  0  0  0  0  0  0  0  0  0
   57.3060   27.6830   45.3430 C   0  0  0  0  0  0  0  0  0  0  0  0
   56.8639   26.7272   45.6608 H   0  0  0  0  0  0  0  0  0  0  0  0
   57.7803   27.5898   44.3549 H   0  0  0  0  0  0  0  0  0  0  0  0
   58.3920   28.0940   46.3600 C   0  0  0  0  0  0  0  0  0  0  0  0
   58.2298   27.5441   47.2988 H   0  0  0  0  0  0  0  0  0  0  0  0
   59.3763   27.8533   45.9321 H   0  0  0  0  0  0  0  0  0  0  0  0
   58.3480   29.5320   46.6360 N   0  0  0  0  0  0  0  0  0  0  0  0
   57.4620   30.0380   46.4100 H   0  0  0  0  0  0  0  0  0  0  0  0
   59.3370   30.2110   47.1450 C   0  0  0  0  0  0  0  0  0  0  0  0
   59.7750   30.0780   48.8630 S   0  0  0  0  0  0  0  0  0  0  0  0
   60.2440   31.8650   48.8100 C   0  0  1  0  0  0  0  0  0  0  0  0
   58.9190   32.6750   49.0370 C   0  0  0  0  0  0  0  0  0  0  0  0
   59.0621   33.7037   48.6746 H   0  0  0  0  0  0  0  0  0  0  0  0
   58.1094   32.1751   48.4851 H   0  0  0  0  0  0  0  0  0  0  0  0
   58.5360   32.7180   50.5190 C   0  0  0  0  0  0  0  0  0  0  0  0
   57.5514   33.1975   50.6224 H   0  0  0  0  0  0  0  0  0  0  0  0
   58.5049   31.6877   50.9032 H   0  0  0  0  0  0  0  0  0  0  0  0
   59.5780   33.5190   51.3380 C   0  0  1  0  0  0  0  0  0  0  0  0
   59.2684   34.5743   51.3173 H   0  0  0  0  0  0  0  0  0  0  0  0
   59.5950   33.0430   52.7950 C   0  0  0  0  0  0  0  0  0  0  0  0
   59.5639   33.9143   53.4658 H   0  0  0  0  0  0  0  0  0  0  0  0
   58.7191   32.4045   52.9824 H   0  0  0  0  0  0  0  0  0  0  0  0
   60.5142   32.4686   52.9824 H   0  0  0  0  0  0  0  0  0  0  0  0
   60.9960   33.4700   50.7100 C   0  0  0  0  0  0  0  0  0  0  0  0
   61.0945   34.2967   49.9911 H   0  0  0  0  0  0  0  0  0  0  0  0
   61.7307   33.5598   51.5237 H   0  0  0  0  0  0  0  0  0  0  0  0
   61.2580   32.1430   49.9790 C   0  0  0  0  0  0  0  0  0  0  0  0
   62.2747   32.1703   49.5600 H   0  0  0  0  0  0  0  0  0  0  0  0
   61.1343   31.3357   50.7159 H   0  0  0  0  0  0  0  0  0  0  0  0
   60.8340   32.0760   47.3440 C   0  0  0  0  0  0  0  0  0  0  0  0
   60.8180   33.5420   46.8590 C   0  0  0  0  0  0  0  0  0  0  0  0
   60.8106   34.2158   47.7285 H   0  0  0  0  0  0  0  0  0  0  0  0
   61.7141   33.7370   46.2515 H   0  0  0  0  0  0  0  0  0  0  0  0
   59.9179   33.7174   46.2515 H   0  0  0  0  0  0  0  0  0  0  0  0
   62.2770   31.5360   47.1850 C   0  0  0  0  0  0  0  0  0  0  0  0
   62.7183   31.3709   48.1790 H   0  0  0  0  0  0  0  0  0  0  0  0
   62.2540   30.5856   46.6316 H   0  0  0  0  0  0  0  0  0  0  0  0
   62.8835   32.2680   46.6316 H   0  0  0  0  0  0  0  0  0  0  0  0
   59.9870   31.2770   46.4650 N   0  0  0  0  0  0  0  0  0  0  0  0
   59.9860   31.3920   45.4270 H   0  0  0  0  0  0  0  0  0  0  0  0
   56.7800   30.8620   44.1840 C   0  0  0  0  0  0  0  0  0  0  0  0
   56.8780   31.7290   45.2290 N   0  0  0  0  0  0  0  0  0  0  0  0
   57.5520   32.9080   45.1400 C   0  0  0  0  0  0  0  0  0  0  0  0
   57.5680   33.8380   46.3100 C   0  0  0  0  0  0  0  0  0  0  0  0
   57.5580   33.2544   47.2424 H   0  0  0  0  0  0  0  0  0  0  0  0
   58.4769   34.4565   46.2743 H   0  0  0  0  0  0  0  0  0  0  0  0
   56.6809   34.4874   46.2743 H   0  0  0  0  0  0  0  0  0  0  0  0
   58.1610   33.2670   43.9320 C   0  0  0  0  0  0  0  0  0  0  0  0
   58.6840   34.2300   43.8373 H   0  0  0  0  0  0  0  0  0  0  0  0
   58.0970   32.3890   42.8490 C   0  0  0  0  0  0  0  0  0  0  0  0
   58.5872   32.6496   41.8994 H   0  0  0  0  0  0  0  0  0  0  0  0
   57.4100   31.1790   42.9720 C   0  0  0  0  0  0  0  0  0  0  0  0
   57.3635   30.4798   42.1241 H   0  0  0  0  0  0  0  0  0  0  0  0
  1  2  1  0
  2  3  2  0
  3  4  1  0
  4  5  1  0
  4  6  1  0
  4  7  1  0
  7  8  1  0
  7  9  1  0
  7 10  1  0
 10 11  1  0
 10 12  2  0
 12 13  1  0
 14 13  1  6
 14 15  1  0
 15 16  1  0
 15 17  1  0
 15 18  1  0
 18 19  1  0
 18 20  1  0
 18 21  1  0
 21 22  1  1
 21 23  1  0
 23 24  1  0
 23 25  1  0
 23 26  1  0
 21 27  1  0
 27 28  1  0
 27 29  1  0
 27 30  1  0
 30 31  1  0
 30 32  1  0
 14 33  1  0
 33 34  1  0
 34 35  1  0
 34 36  1  0
 34 37  1  0
 33 38  1  0
 38 39  1  0
 38 40  1  0
 38 41  1  0
 33 42  1  0
 42 43  1  0
  2 44  1  0
 44 45  2  0
 45 46  1  0
 46 47  1  0
 47 48  1  0
 47 49  1  0
 47 50  1  0
 46 51  2  0
 51 52  1  0
 51 53  1  0
 53 54  1  0
 53 55  2  0
 55 56  1  0
 42 12  1  0
 55 44  1  0
 30 14  1  0
M  CHG  1  10   1
M  END
>  <UniqueID>  (5) 
4

>  <SMILES>  (5) 
Cc1cccc(/C=N\CC/[NH+]=C2\NC(C)(C)C3(CCC(C)CC3)S2)n1

>  <Energy>  (5) 
75.73877284701794

>  <Genealogy>  (5) 
Cc1cccc(C=NCC[NH+]=C2NC(C)(C)C3(CCC(C)CC3)S2)n1 (protonated)
Cc1cccc(/C=N\CC/[NH+]=C2\NC(C)(C)C3(CCC(C)CC3)S2)n1 (cis-trans isomerization)
Cc1cccc(/C=N\CC/[NH+]=C2\NC(C)(C)C3(CCC(C)CC3)S2)n1 (3D coordinates assigned)
Cc1cccc(/C=N\CC/[NH+]=C2\NC(C)(C)C3(CCC(C)CC3)S2)n1 (nonaromatic ring conformer: 75.73877284701794 kcal/mol)

>  <smiles>  (5) 
Cc1cccc(C=NCCN=C2NC(C)(C)C3(CCC(C)CC3)S2)n1

>  <score_type>  (5) 
oracle

>  <origin>  (5) 
adg

>  <m_score__min__energy>  (5) 
-6.7800000000000002

>  <m_primary>  (5) 
energy

$$$$
5:0
     RDKit          3D

 38 40  0  0  0  0  0  0  0  0999 V2000
   57.7320   32.0940   41.8350 C   0  0  0  0  0  0  0  0  0  0  0  0
   57.0220   31.6680   42.9920 O   0  0  0  0  0  0  0  0  0  0  0  0
   57.5320   31.5470   44.3010 C   0  0  0  0  0  0  0  0  0  0  0  0
   57.5810   32.6260   45.2230 C   0  0  0  0  0  0  0  0  0  0  0  0
   57.1350   33.8940   44.8380 O   0  0  0  0  0  0  0  0  0  0  0  0
   58.0820   32.4130   46.5290 C   0  0  0  0  0  0  0  0  0  0  0  0
   58.1480   33.5320   47.5340 C   0  0  0  0  0  0  0  0  0  0  0  0
   58.5170   31.1360   46.9040 C   0  0  0  0  0  0  0  0  0  0  0  0
   58.4770   30.0760   46.0040 C   0  0  0  0  0  0  0  0  0  0  0  0
   58.0080   30.2790   44.6950 C   0  0  0  0  0  0  0  0  0  0  0  0
   57.9290   29.0990   43.7560 C   0  0  0  0  0  0  0  0  0  0  0  0
   58.9930   28.0510   44.0900 C   0  0  0  0  0  0  0  0  0  0  0  0
   58.9550   27.6570   45.5780 C   0  0  2  0  0  0  0  0  0  0  0  0
   57.8380   26.6670   45.8740 C   0  0  0  0  0  0  0  0  0  0  0  0
   58.1970   25.3420   46.1890 C   0  0  0  0  0  0  0  0  0  0  0  0
   57.2210   24.3750   46.4420 C   0  0  0  0  0  0  0  0  0  0  0  0
   55.8700   24.7120   46.3760 C   0  0  0  0  0  0  0  0  0  0  0  0
   55.4900   26.0160   46.0520 C   0  0  0  0  0  0  0  0  0  0  0  0
   54.1390   26.3400   45.9800 O   0  0  0  0  0  0  0  0  0  0  0  0
   56.4620   26.9940   45.7960 C   0  0  0  0  0  0  0  0  0  0  0  0
   56.0410   28.2760   45.4670 O   0  0  0  0  0  0  0  0  0  0  0  0
   58.9070   28.8100   46.4270 O   0  0  0  0  0  0  0  0  0  0  0  0
   58.6382   32.6377   42.1404 H   0  0  0  0  0  0  0  0  0  0  0  0
   58.0155   31.2167   41.2350 H   0  0  0  0  0  0  0  0  0  0  0  0
   57.0913   32.7570   41.2350 H   0  0  0  0  0  0  0  0  0  0  0  0
   56.7120   34.0910   43.9390 H   0  0  0  0  0  0  0  0  0  0  0  0
   58.1233   33.1134   48.5509 H   0  0  0  0  0  0  0  0  0  0  0  0
   59.0810   34.0972   47.3927 H   0  0  0  0  0  0  0  0  0  0  0  0
   57.2879   34.2030   47.3927 H   0  0  0  0  0  0  0  0  0  0  0  0
   58.8952   30.9688   47.9233 H   0  0  0  0  0  0  0  0  0  0  0  0
   56.9335   28.6389   43.8415 H   0  0  0  0  0  0  0  0  0  0  0  0
   58.1048   29.4581   42.7312 H   0  0  0  0  0  0  0  0  0  0  0  0
   58.8145   27.1540   43.4788 H   0  0  0  0  0  0  0  0  0  0  0  0
   59.9810   28.4838   43.8744 H   0  0  0  0  0  0  0  0  0  0  0  0
   59.8972   27.1369   45.8054 H   0  0  0  0  0  0  0  0  0  0  0  0
   59.2604   25.0648   46.2365 H   0  0  0  0  0  0  0  0  0  0  0  0
   57.5190   23.3464   46.6936 H   0  0  0  0  0  0  0  0  0  0  0  0
   55.1029   23.9503   46.5793 H   0  0  0  0  0  0  0  0  0  0  0  0
  1  2  1  0
  2  3  1  0
  3  4  2  0
  4  5  1  0
  4  6  1  0
  6  7  1  0
  6  8  2  0
  8  9  1  0
  9 10  2  0
 10 11  1  0
 11 12  1  0
 12 13  1  0
 13 14  1  0
 14 15  2  0
 15 16  1  0
 16 17  2  0
 17 18  1  0
 18 19  1  0
 18 20  2  0
 20 21  1  0
 13 22  1  0
 10  3  1  0
 20 14  1  0
 22  9  1  0
  1 23  1  0
  1 24  1  0
  1 25  1  0
  5 26  1  0
  7 27  1  0
  7 28  1  0
  7 29  1  0
  8 30  1  0
 11 31  1  0
 11 32  1  0
 12 33  1  0
 12 34  1  0
 13 35  1  1
 15 36  1  0
 16 37  1  0
 17 38  1  0
M  CHG  2  19  -1  21  -1
M  END
>  <UniqueID>  (6) 
5

>  <SMILES>  (6) 
COc1c(O)c(C)cc2c1CC[C@H](c1cccc([O-])c1[O-])O2

>  <Energy>  (6) 
48.3935542856051

>  <Genealogy>  (6) 
COc1c(O)c(C)cc2c1CCC(c1cccc([O-])c1[O-])O2 (protonated)
COc1c(O)c(C)cc2c1CC[C@H](c1cccc([O-])c1[O-])O2 (chirality)
COc1c(O)c(C)cc2c1CC[C@H](c1cccc([O-])c1[O-])O2 (3D coordinates assigned)
COc1c(O)c(C)cc2c1CC[C@H](c1cccc([O-])c1[O-])O2 (nonaromatic ring conformer: 48.3935542856051 kcal/mol)

>  <smiles>  (6) 
COc1c(O)c(C)cc2c1CCC(c1cccc(O)c1O)O2

>  <score_type>  (6) 
oracle

>  <origin>  (6) 
adg

>  <m_score__min__energy>  (6) 
-14.539999999999999

>  <m_primary>  (6) 
energy

$$$$
6:0
     RDKit          3D

 50 52  0  0  0  0  0  0  0  0999 V2000
   56.2090   29.7120   43.2210 C   0  0  0  0  0  0  0  0  0  0  0  0
   55.9340   30.6380   44.4030 C   0  0  0  0  0  0  0  0  0  0  0  0
   57.1660   31.3610   44.7930 N   0  0  0  0  0  0  0  0  0  0  0  0
   58.1750   31.3410   43.7090 C   0  0  0  0  0  0  0  0  0  0  0  0
   57.7980   32.3210   42.5990 C   0  0  0  0  0  0  0  0  0  0  0  0
   56.8780   32.7450   45.2540 C   0  0  0  0  0  0  0  0  0  0  0  0
   58.1860   33.4800   45.5690 C   0  0  0  0  0  0  0  0  0  0  0  0
   58.9660   32.7610   46.5780 N   0  0  0  0  0  0  0  0  0  0  0  0
   58.5130   31.7280   47.3280 C   0  0  0  0  0  0  0  0  0  0  0  0
   59.5540   31.2060   48.0900 C   0  0  0  0  0  0  0  0  0  0  0  0
   59.5110   30.1220   48.9740 O   0  0  0  0  0  0  0  0  0  0  0  0
   59.8390   28.7850   48.5970 C   0  0  0  0  0  0  0  0  0  0  0  0
   59.4830   28.5430   47.1550 C   0  0  0  0  0  0  0  0  0  0  0  0
   58.2240   28.0200   46.8220 C   0  0  0  0  0  0  0  0  0  0  0  0
   57.8900   27.7790   45.4860 C   0  0  0  0  0  0  0  0  0  0  0  0
   58.8120   28.0570   44.4730 C   0  0  0  0  0  0  0  0  0  0  0  0
   60.0690   28.5770   44.7950 C   0  0  0  0  0  0  0  0  0  0  0  0
   60.4040   28.8250   46.1300 C   0  0  0  0  0  0  0  0  0  0  0  0
   60.6680   31.9560   47.7890 C   0  0  0  0  0  0  0  0  0  0  0  0
   61.9830   31.8560   48.2350 C   0  0  0  0  0  0  0  0  0  0  0  0
   62.9240   32.7580   47.7050 C   0  0  0  0  0  0  0  0  0  0  0  0
   62.5330   33.7220   46.7500 C   0  0  0  0  0  0  0  0  0  0  0  0
   61.1970   33.7940   46.3150 C   0  0  0  0  0  0  0  0  0  0  0  0
   60.2800   32.8910   46.8610 C   0  0  0  0  0  0  0  0  0  0  0  0
   56.5037   28.7198   43.5934 H   0  0  0  0  0  0  0  0  0  0  0  0
   55.2998   29.6188   42.6089 H   0  0  0  0  0  0  0  0  0  0  0  0
   57.0217   30.1302   42.6089 H   0  0  0  0  0  0  0  0  0  0  0  0
   55.1608   31.3672   44.1194 H   0  0  0  0  0  0  0  0  0  0  0  0
   55.5909   30.0339   45.2559 H   0  0  0  0  0  0  0  0  0  0  0  0
   59.1543   31.6238   44.1225 H   0  0  0  0  0  0  0  0  0  0  0  0
   58.2170   30.3269   43.2849 H   0  0  0  0  0  0  0  0  0  0  0  0
   57.4370   33.2593   43.0453 H   0  0  0  0  0  0  0  0  0  0  0  0
   58.6810   32.5271   41.9763 H   0  0  0  0  0  0  0  0  0  0  0  0
   57.0045   31.8821   41.9763 H   0  0  0  0  0  0  0  0  0  0  0  0
   56.3380   33.2866   44.4634 H   0  0  0  0  0  0  0  0  0  0  0  0
   56.2629   32.6997   46.1648 H   0  0  0  0  0  0  0  0  0  0  0  0
   58.7813   33.5643   44.6479 H   0  0  0  0  0  0  0  0  0  0  0  0
   57.9398   34.4769   45.9634 H   0  0  0  0  0  0  0  0  0  0  0  0
   57.4774   31.3572   47.3339 H   0  0  0  0  0  0  0  0  0  0  0  0
   60.9183   28.6240   48.7356 H   0  0  0  0  0  0  0  0  0  0  0  0
   59.2681   28.0869   49.2269 H   0  0  0  0  0  0  0  0  0  0  0  0
   57.4961   27.7985   47.6164 H   0  0  0  0  0  0  0  0  0  0  0  0
   56.9009   27.3703   45.2319 H   0  0  0  0  0  0  0  0  0  0  0  0
   58.5484   27.8666   43.4222 H   0  0  0  0  0  0  0  0  0  0  0  0
   60.7955   28.7914   43.9974 H   0  0  0  0  0  0  0  0  0  0  0  0
   61.3909   29.2419   46.3792 H   0  0  0  0  0  0  0  0  0  0  0  0
   62.2763   31.0980   48.9762 H   0  0  0  0  0  0  0  0  0  0  0  0
   63.9717   32.7119   48.0370 H   0  0  0  0  0  0  0  0  0  0  0  0
   63.2782   34.4215   46.3434 H   0  0  0  0  0  0  0  0  0  0  0  0
   60.8835   34.5381   45.5680 H   0  0  0  0  0  0  0  0  0  0  0  0
  1  2  1  0
  2  3  1  0
  3  4  1  0
  4  5  1  0
  3  6  1  0
  6  7  1  0
  7  8  1  0
  8  9  1  0
  9 10  2  0
 10 11  1  0
 11 12  1  0
 12 13  1  0
 13 14  2  0
 14 15  1  0
 15 16  2  0
 16 17  1  0
 17 18  2  0
 10 19  1  0
 19 20  2  0
 20 21  1  0
 21 22  2  0
 22 23  1  0
 23 24  2  0
 24  8  1  0
 18 13  1  0
 24 19  1  0
  1 25  1  0
  1 26  1  0
  1 27  1  0
  2 28  1  0
  2 29  1  0
  4 30  1  0
  4 31  1  0
  5 32  1  0
  5 33  1  0
  5 34  1  0
  6 35  1  0
  6 36  1  0
  7 37  1  0
  7 38  1  0
  9 39  1  0
 12 40  1  0
 12 41  1  0
 14 42  1  0
 15 43  1  0
 16 44  1  0
 17 45  1  0
 18 46  1  0
 20 47  1  0
 21 48  1  0
 22 49  1  0
 23 50  1  0
M  END
>  <UniqueID>  (7) 
6

>  <SMILES>  (7) 
CCN(CC)CCn1cc(OCc2ccccc2)c2ccccc21

>  <Energy>  (7) 
77.1536845301132

>  <Genealogy>  (7) 
CCN(CC)CCn1cc(OCc2ccccc2)c2ccccc21 (3D coordinates assigned)
CCN(CC)CCn1cc(OCc2ccccc2)c2ccccc21 (optimized conformer: 77.1536845301132 kcal/mol)

>  <smiles>  (7) 
CCN(CC)CCn1cc(OCc2ccccc2)c2ccccc21

>  <score_type>  (7) 
oracle

>  <origin>  (7) 
adg

>  <m_score__min__energy>  (7) 
-7.0999999999999996

>  <m_primary>  (7) 
energy

$$$$
7:0
     RDKit          3D

 32 35  0  0  0  0  0  0  0  0999 V2000
   60.2940   28.0480   46.2470 C   0  0  0  0  0  0  0  0  0  0  0  0
   59.8170   29.4670   46.2460 C   0  0  0  0  0  0  0  0  0  0  0  0
   60.6340   30.4430   46.7510 N   0  0  0  0  0  0  0  0  0  0  0  0
   60.2850   31.7680   46.7530 C   0  0  0  0  0  0  0  0  0  0  0  0
   61.1370   32.6960   47.2620 N   0  0  0  0  0  0  0  0  0  0  0  0
   60.8270   34.0220   47.2680 C   0  0  0  0  0  0  0  0  0  0  0  0
   59.6100   34.4690   46.7390 C   0  0  0  0  0  0  0  0  0  0  0  0
   59.3070   35.8280   46.7510 O   0  0  0  0  0  0  0  0  0  0  0  0
   58.7090   33.5380   46.2040 C   0  0  0  0  0  0  0  0  0  0  0  0
   59.0430   32.1790   46.2120 C   0  0  0  0  0  0  0  0  0  0  0  0
   58.2130   31.1810   45.7080 C   0  0  0  0  0  0  0  0  0  0  0  0
   57.0100   31.3010   45.1170 N   0  0  0  0  0  0  0  0  0  0  0  0
   56.6390   30.0620   44.8000 N   0  0  0  0  0  0  0  0  0  0  0  0
   57.5590   29.1770   45.1690 N   0  0  0  0  0  0  0  0  0  0  0  0
   57.4030   27.7650   45.0010 C   0  0  0  0  0  0  0  0  0  0  0  0
   57.9020   27.1290   43.8550 C   0  0  0  0  0  0  0  0  0  0  0  0
   57.7700   25.7440   43.7070 C   0  0  0  0  0  0  0  0  0  0  0  0
   57.1560   24.9890   44.7110 C   0  0  0  0  0  0  0  0  0  0  0  0
   56.6790   25.6170   45.8660 C   0  0  0  0  0  0  0  0  0  0  0  0
   56.8080   27.0010   46.0150 C   0  0  0  0  0  0  0  0  0  0  0  0
   58.5670   29.8650   45.7420 C   0  0  0  0  0  0  0  0  0  0  0  0
   60.4106   27.7011   47.2843 H   0  0  0  0  0  0  0  0  0  0  0  0
   59.5596   27.4139   45.7287 H   0  0  0  0  0  0  0  0  0  0  0  0
   61.2623   27.9863   45.7287 H   0  0  0  0  0  0  0  0  0  0  0  0
   61.5376   34.7471   47.6914 H   0  0  0  0  0  0  0  0  0  0  0  0
   58.8900   36.2700   47.5610 H   0  0  0  0  0  0  0  0  0  0  0  0
   57.7495   33.8721   45.7823 H   0  0  0  0  0  0  0  0  0  0  0  0
   58.3981   27.7201   43.0711 H   0  0  0  0  0  0  0  0  0  0  0  0
   58.1493   25.2491   42.8008 H   0  0  0  0  0  0  0  0  0  0  0  0
   57.0481   23.9008   44.5924 H   0  0  0  0  0  0  0  0  0  0  0  0
   56.2018   25.0213   46.6581 H   0  0  0  0  0  0  0  0  0  0  0  0
   56.4421   27.4914   46.9292 H   0  0  0  0  0  0  0  0  0  0  0  0
  1  2  1  0
  2  3  2  0
  3  4  1  0
  4  5  2  0
  5  6  1  0
  6  7  2  0
  7  8  1  0
  7  9  1  0
  9 10  2  0
 10 11  1  0
 11 12  1  0
 12 13  2  0
 13 14  1  0
 14 15  1  0
 15 16  2  0
 16 17  1  0
 17 18  2  0
 18 19  1  0
 19 20  2  0
 14 21  1  0
 21  2  1  0
 10  4  1  0
 21 11  2  0
 20 15  1  0
  1 22  1  0
  1 23  1  0
  1 24  1  0
  6 25  1  0
  8 26  1  0
  9 27  1  0
 16 28  1  0
 17 29  1  0
 18 30  1  0
 19 31  1  0
 20 32  1  0
M  END
>  <UniqueID>  (8) 
7

>  <SMILES>  (8) 
Cc1nc2ncc(O)cc2c2nnn(-c3ccccc3)c12

>  <Energy>  (8) 
93.0766867146234

>  <Genealogy>  (8) 
Cc1nc2ncc(O)cc2c2nnn(-c3ccccc3)c12 (3D coordinates assigned)
Cc1nc2ncc(O)cc2c2nnn(-c3ccccc3)c12 (optimized conformer: 93.0766867146234 kcal/mol)

>  <smiles>  (8) 
Cc1nc2ncc(O)cc2c2nnn(-c3ccccc3)c12

>  <score_type>  (8) 
oracle

>  <origin>  (8) 
adg

>  <m_score__min__energy>  (8) 
-7.21

>  <m_primary>  (8) 
energy

$$$$
8:0
     RDKit          3D

 45 47  0  0  0  0  0  0  0  0999 V2000
   61.9590   31.2440   48.2710 C   0  0  0  0  0  0  0  0  0  0  0  0
   61.3540   30.9600   46.9000 C   0  0  0  0  0  0  0  0  0  0  0  0
   60.6860   29.6110   46.8810 C   0  0  0  0  0  0  0  0  0  0  0  0
   60.7280   28.8170   45.7250 C   0  0  0  0  0  0  0  0  0  0  0  0
   60.0780   27.5790   45.6960 C   0  0  0  0  0  0  0  0  0  0  0  0
   59.3750   27.1210   46.8200 C   0  0  0  0  0  0  0  0  0  0  0  0
   58.6560   25.8000   46.7710 C   0  0  0  0  0  0  0  0  0  0  0  0
   57.6270   25.8230   45.7370 N   0  0  0  0  0  0  0  0  0  0  0  0
   56.6320   26.8470   45.6310 C   0  0  0  0  0  0  0  0  0  0  0  0
   55.4460   26.6230   45.9950 O   0  0  0  0  0  0  0  0  0  0  0  0
   56.9930   28.1640   45.0910 C   0  0  0  0  0  0  0  0  0  0  0  0
   57.3300   29.2850   45.8230 C   0  0  0  0  0  0  0  0  0  0  0  0
   57.5760   30.2530   44.8580 C   0  0  0  0  0  0  0  0  0  0  0  0
   57.9790   31.6620   45.0730 C   0  0  0  0  0  0  0  0  0  0  0  0
   58.1420   32.5120   43.9660 C   0  0  0  0  0  0  0  0  0  0  0  0
   58.5200   33.8420   44.1460 C   0  0  0  0  0  0  0  0  0  0  0  0
   58.7410   34.3420   45.4310 C   0  0  0  0  0  0  0  0  0  0  0  0
   58.5860   33.5160   46.5490 C   0  0  0  0  0  0  0  0  0  0  0  0
   58.8210   34.0670   47.8180 O   0  0  0  0  0  0  0  0  0  0  0  0
   60.1090   34.2120   48.4080 C   0  0  0  0  0  0  0  0  0  0  0  0
   58.2030   32.1720   46.3660 C   0  0  0  0  0  0  0  0  0  0  0  0
   57.3900   29.7150   43.6710 O   0  0  0  0  0  0  0  0  0  0  0  0
   57.0410   28.4680   43.7820 N   0  0  0  0  0  0  0  0  0  0  0  0
   59.3170   27.9230   47.9710 C   0  0  0  0  0  0  0  0  0  0  0  0
   59.9670   29.1610   48.0000 C   0  0  0  0  0  0  0  0  0  0  0  0
   61.2606   30.9161   49.0550 H   0  0  0  0  0  0  0  0  0  0  0  0
   62.9080   30.6973   48.3734 H   0  0  0  0  0  0  0  0  0  0  0  0
   62.1447   32.3234   48.3734 H   0  0  0  0  0  0  0  0  0  0  0  0
   60.6090   31.7349   46.6668 H   0  0  0  0  0  0  0  0  0  0  0  0
   62.1592   30.9660   46.1506 H   0  0  0  0  0  0  0  0  0  0  0  0
   61.2744   29.1697   44.8378 H   0  0  0  0  0  0  0  0  0  0  0  0
   60.1183   26.9611   44.7868 H   0  0  0  0  0  0  0  0  0  0  0  0
   59.3785   25.0015   46.5466 H   0  0  0  0  0  0  0  0  0  0  0  0
   58.1807   25.6143   47.7455 H   0  0  0  0  0  0  0  0  0  0  0  0
   57.3898   29.3876   46.9166 H   0  0  0  0  0  0  0  0  0  0  0  0
   57.9702   32.1255   42.9505 H   0  0  0  0  0  0  0  0  0  0  0  0
   58.6445   34.4995   43.2730 H   0  0  0  0  0  0  0  0  0  0  0  0
   59.0390   35.3924   45.5648 H   0  0  0  0  0  0  0  0  0  0  0  0
   60.0137   34.2013   49.5038 H   0  0  0  0  0  0  0  0  0  0  0  0
   60.7546   33.3809   48.0880 H   0  0  0  0  0  0  0  0  0  0  0  0
   60.5536   35.1659   48.0880 H   0  0  0  0  0  0  0  0  0  0  0  0
   58.0781   31.5163   47.2404 H   0  0  0  0  0  0  0  0  0  0  0  0
   56.8390   27.8320   42.9790 H   0  0  0  0  0  0  0  0  0  0  0  0
   58.7584   27.5764   48.8530 H   0  0  0  0  0  0  0  0  0  0  0  0
   59.9147   29.7854   48.9041 H   0  0  0  0  0  0  0  0  0  0  0  0
  1  2  1  0
  2  3  1  0
  3  4  2  0
  4  5  1  0
  5  6  2  0
  6  7  1  0
  7  8  1  0
  8  9  1  0
  9 10  2  0
  9 11  1  0
 11 12  1  0
 12 13  2  0
 13 14  1  0
 14 15  2  0
 15 16  1  0
 16 17  2  0
 17 18  1  0
 18 19  1  0
 19 20  1  0
 18 21  2  0
 13 22  1  0
 22 23  1  0
  6 24  1  0
 24 25  2  0
 25  3  1  0
 23 11  2  0
 21 14  1  0
  1 26  1  0
  1 27  1  0
  1 28  1  0
  2 29  1  0
  2 30  1  0
  4 31  1  0
  5 32  1  0
  7 33  1  0
  7 34  1  0
 12 35  1  0
 15 36  1  0
 16 37  1  0
 17 38  1  0
 20 39  1  0
 20 40  1  0
 20 41  1  0
 21 42  1  0
 23 43  1  0
 24 44  1  0
 25 45  1  0
M  CHG  2   8  -1  23   1
M  END
>  <UniqueID>  (9) 
8

>  <SMILES>  (9) 
CCc1ccc(C[N-]C(=O)c2cc(-c3cccc(OC)c3)o[nH+]2)cc1

>  <Energy>  (9) 
71.58273524663524

>  <Genealogy>  (9) 
CCc1ccc(C[N-]C(=O)c2cc(-c3cccc(OC)c3)o[nH+]2)cc1 (protonated)
CCc1ccc(C[N-]C(=O)c2cc(-c3cccc(OC)c3)o[nH+]2)cc1 (3D coordinates assigned)
CCc1ccc(C[N-]C(=O)c2cc(-c3cccc(OC)c3)o[nH+]2)cc1 (optimized conformer: 71.58273524663524 kcal/mol)

>  <smiles>  (9) 
CCc1ccc(CNC(=O)c2cc(-c3cccc(OC)c3)on2)cc1

>  <score_type>  (9) 
oracle

>  <origin>  (9) 
adg

>  <m_score__min__energy>  (9) 
-7.6200000000000001

>  <m_primary>  (9) 
energy

$$$$
9:0
     RDKit          3D

 42 43  0  0  0  0  0  0  0  0999 V2000
   60.4770   27.1500   48.8700 C   0  0  0  0  0  0  0  0  0  0  0  0
   60.1230   26.3410   47.7530 O   0  0  0  0  0  0  0  0  0  0  0  0
   59.0000   26.5400   46.9350 C   0  0  0  0  0  0  0  0  0  0  0  0
   59.0310   27.4770   45.8830 C   0  0  0  0  0  0  0  0  0  0  0  0
   57.9160   27.6850   45.0640 C   0  0  0  0  0  0  0  0  0  0  0  0
   57.9860   28.6730   44.0200 N   0  0  0  0  0  0  0  0  0  0  0  0
   56.8730   29.9970   43.8720 S   0  0  0  0  0  0  0  0  0  0  0  0
   55.6230   29.6630   44.6380 O   0  0  0  0  0  0  0  0  0  0  0  0
   56.5090   30.1870   42.4260 O   0  0  0  0  0  0  0  0  0  0  0  0
   57.6040   31.4920   44.4820 C   0  0  0  0  0  0  0  0  0  0  0  0
   57.7420   31.6580   45.8700 C   0  0  0  0  0  0  0  0  0  0  0  0
   58.3560   32.7970   46.3930 C   0  0  0  0  0  0  0  0  0  0  0  0
   58.8440   33.7840   45.5370 C   0  0  0  0  0  0  0  0  0  0  0  0
   59.7010   35.3310   46.2570 Br  0  0  0  0  0  0  0  0  0  0  0  0
   58.7090   33.6380   44.1550 C   0  0  0  0  0  0  0  0  0  0  0  0
   58.0790   32.5050   43.6110 C   0  0  0  0  0  0  0  0  0  0  0  0
   57.9840   32.3790   42.1140 C   0  0  0  0  0  0  0  0  0  0  0  0
   56.7580   26.9280   45.2850 C   0  0  0  0  0  0  0  0  0  0  0  0
   56.6970   25.9980   46.3360 C   0  0  0  0  0  0  0  0  0  0  0  0
   55.5350   25.2510   46.5950 O   0  0  0  0  0  0  0  0  0  0  0  0
   54.8400   24.4720   45.6250 C   0  0  0  0  0  0  0  0  0  0  0  0
   57.8140   25.7960   47.1630 C   0  0  0  0  0  0  0  0  0  0  0  0
   57.6740   24.8420   48.1900 O   0  0  0  0  0  0  0  0  0  0  0  0
   57.0280   23.5780   48.0940 C   0  0  0  0  0  0  0  0  0  0  0  0
   60.2420   26.6130   49.8008 H   0  0  0  0  0  0  0  0  0  0  0  0
   61.5540   27.3709   48.8361 H   0  0  0  0  0  0  0  0  0  0  0  0
   59.9084   28.0910   48.8361 H   0  0  0  0  0  0  0  0  0  0  0  0
   59.9489   28.0556   45.7024 H   0  0  0  0  0  0  0  0  0  0  0  0
   58.8120   28.6780   43.3810 H   0  0  0  0  0  0  0  0  0  0  0  0
   57.3623   30.8825   46.5515 H   0  0  0  0  0  0  0  0  0  0  0  0
   58.4552   32.9164   47.4820 H   0  0  0  0  0  0  0  0  0  0  0  0
   59.0997   34.4178   43.4847 H   0  0  0  0  0  0  0  0  0  0  0  0
   57.3400   31.5248   41.8581 H   0  0  0  0  0  0  0  0  0  0  0  0
   57.5542   33.3008   41.6950 H   0  0  0  0  0  0  0  0  0  0  0  0
   58.9885   32.2194   41.6950 H   0  0  0  0  0  0  0  0  0  0  0  0
   55.8864   27.0635   44.6278 H   0  0  0  0  0  0  0  0  0  0  0  0
   54.1912   23.7448   46.1352 H   0  0  0  0  0  0  0  0  0  0  0  0
   54.2260   25.1329   44.9955 H   0  0  0  0  0  0  0  0  0  0  0  0
   55.5663   23.9370   44.9955 H   0  0  0  0  0  0  0  0  0  0  0  0
   56.8297   23.1899   49.1040 H   0  0  0  0  0  0  0  0  0  0  0  0
   56.0777   23.6921   47.5519 H   0  0  0  0  0  0  0  0  0  0  0  0
   57.6772   22.8747   47.5519 H   0  0  0  0  0  0  0  0  0  0  0  0
  1  2  1  0
  2  3  1  0
  3  4  2  0
  4  5  1  0
  5  6  1  0
  6  7  1  0
  7  8  2  0
  7  9  2  0
  7 10  1  0
 10 11  2  0
 11 12  1  0
 12 13  2  0
 13 14  1  0
 13 15  1  0
 15 16  2  0
 16 17  1  0
  5 18  2  0
 18 19  1  0
 19 20  1  0
 20 21  1  0
 19 22  2  0
 22 23  1  0
 23 24  1  0
 22  3  1  0
 16 10  1  0
  1 25  1  0
  1 26  1  0
  1 27  1  0
  4 28  1  0
  6 29  1  0
 11 30  1  0
 12 31  1  0
 15 32  1  0
 17 33  1  0
 17 34  1  0
 17 35  1  0
 18 36  1  0
 21 37  1  0
 21 38  1  0
 21 39  1  0
 24 40  1  0
 24 41  1  0
 24 42  1  0
M  END
>  <UniqueID>  (10) 
9

>  <SMILES>  (10) 
COc1cc(NS(=O)(=O)c2ccc(Br)cc2C)cc(OC)c1OC

>  <Energy>  (10) 
46.16060933895086

>  <Genealogy>  (10) 
COc1cc(NS(=O)(=O)c2ccc(Br)cc2C)cc(OC)c1OC (3D coordinates assigned)
COc1cc(NS(=O)(=O)c2ccc(Br)cc2C)cc(OC)c1OC (optimized conformer: 46.16060933895086 kcal/mol)

>  <smiles>  (10) 
COc1cc(NS(=O)(=O)c2ccc(Br)cc2C)cc(OC)c1OC

>  <score_type>  (10) 
oracle

>  <origin>  (10) 
adg

>  <m_score__min__energy>  (10) 
-8.2799999999999994

>  <m_primary>  (10) 
energy

$$$$
10:0
     RDKit          3D

 52 55  0  0  0  0  0  0  0  0999 V2000
   53.8200   23.1030   46.4740 C   0  0  0  0  0  0  0  0  0  0  0  0
   54.5260   23.5130   45.1870 C   0  0  0  0  0  0  0  0  0  0  0  0
   55.7280   24.2840   45.4930 N   0  0  0  0  0  0  0  0  0  0  0  0
   56.9610   23.8160   45.3880 N   0  0  0  0  0  0  0  0  0  0  0  0
   57.7810   24.8490   45.6880 C   0  0  0  0  0  0  0  0  0  0  0  0
   59.2720   24.7260   45.7040 C   0  0  0  0  0  0  0  0  0  0  0  0
   57.0840   25.9800   45.9620 N   0  0  0  0  0  0  0  0  0  0  0  0
   57.5710   27.2890   46.3080 C   0  0  0  0  0  0  0  0  0  0  0  0
   58.3050   27.4900   47.4870 C   0  0  0  0  0  0  0  0  0  0  0  0
   58.7800   28.7620   47.8150 C   0  0  0  0  0  0  0  0  0  0  0  0
   58.5370   29.8540   46.9670 C   0  0  0  0  0  0  0  0  0  0  0  0
   59.0140   31.1680   47.3150 N   0  0  0  0  0  0  0  0  0  0  0  0
   58.9030   31.6360   48.7060 C   0  0  0  0  0  0  0  0  0  0  0  0
   59.6860   32.9370   48.9230 C   0  0  0  0  0  0  0  0  0  0  0  0
   60.9890   32.8490   48.2470 N   0  0  0  0  0  0  0  0  0  0  0  0
   62.2120   33.0770   48.9730 C   0  0  0  0  0  0  0  0  0  0  0  0
   62.2320   33.9390   50.0830 C   0  0  0  0  0  0  0  0  0  0  0  0
   63.4240   34.1680   50.7780 C   0  0  0  0  0  0  0  0  0  0  0  0
   64.6060   33.5430   50.3700 C   0  0  0  0  0  0  0  0  0  0  0  0
   66.0990   33.8330   51.2430 Cl  0  0  0  0  0  0  0  0  0  0  0  0
   64.5970   32.6900   49.2630 C   0  0  0  0  0  0  0  0  0  0  0  0
   63.4070   32.4580   48.5660 C   0  0  0  0  0  0  0  0  0  0  0  0
   61.0480   32.4550   46.8300 C   0  0  0  0  0  0  0  0  0  0  0  0
   59.6730   32.0170   46.3130 C   0  0  0  0  0  0  0  0  0  0  0  0
   57.8020   29.6520   45.7870 C   0  0  0  0  0  0  0  0  0  0  0  0
   57.3290   28.3790   45.4570 C   0  0  0  0  0  0  0  0  0  0  0  0
   55.8040   25.5830   45.8300 C   0  0  0  0  0  0  0  0  0  0  0  0
   54.8050   26.3400   45.9720 O   0  0  0  0  0  0  0  0  0  0  0  0
   54.4075   23.4442   47.3392 H   0  0  0  0  0  0  0  0  0  0  0  0
   52.8205   23.5611   46.5059 H   0  0  0  0  0  0  0  0  0  0  0  0
   53.7225   22.0078   46.5059 H   0  0  0  0  0  0  0  0  0  0  0  0
   54.8069   22.6109   44.6237 H   0  0  0  0  0  0  0  0  0  0  0  0
   53.8449   24.1344   44.5870 H   0  0  0  0  0  0  0  0  0  0  0  0
   59.6263   24.6968   46.7450 H   0  0  0  0  0  0  0  0  0  0  0  0
   59.5691   23.8003   45.1894 H   0  0  0  0  0  0  0  0  0  0  0  0
   59.7168   25.5905   45.1894 H   0  0  0  0  0  0  0  0  0  0  0  0
   58.5074   26.6411   48.1566 H   0  0  0  0  0  0  0  0  0  0  0  0
   59.3488   28.9091   48.7449 H   0  0  0  0  0  0  0  0  0  0  0  0
   57.8430   31.8129   48.9406 H   0  0  0  0  0  0  0  0  0  0  0  0
   59.3252   30.8637   49.3658 H   0  0  0  0  0  0  0  0  0  0  0  0
   59.1151   33.7810   48.5085 H   0  0  0  0  0  0  0  0  0  0  0  0
   59.8440   33.0921   50.0005 H   0  0  0  0  0  0  0  0  0  0  0  0
   61.3056   34.4360   50.4067 H   0  0  0  0  0  0  0  0  0  0  0  0
   63.4314   34.8415   51.6477 H   0  0  0  0  0  0  0  0  0  0  0  0
   65.5273   32.2003   48.9394 H   0  0  0  0  0  0  0  0  0  0  0  0
   63.4059   31.7873   47.6942 H   0  0  0  0  0  0  0  0  0  0  0  0
   61.3979   33.3113   46.2348 H   0  0  0  0  0  0  0  0  0  0  0  0
   61.7399   31.6050   46.7358 H   0  0  0  0  0  0  0  0  0  0  0  0
   59.0537   32.9060   46.1229 H   0  0  0  0  0  0  0  0  0  0  0  0
   59.7992   31.4481   45.3800 H   0  0  0  0  0  0  0  0  0  0  0  0
   57.5974   30.5012   45.1185 H   0  0  0  0  0  0  0  0  0  0  0  0
   56.7638   28.2302   44.5251 H   0  0  0  0  0  0  0  0  0  0  0  0
  1  2  1  0
  2  3  1  0
  3  4  1  0
  4  5  2  0
  5  6  1  0
  5  7  1  0
  7  8  1  0
  8  9  2  0
  9 10  1  0
 10 11  2  0
 11 12  1  0
 12 13  1  0
 13 14  1  0
 14 15  1  0
 15 16  1  0
 16 17  2  0
 17 18  1  0
 18 19  2  0
 19 20  1  0
 19 21  1  0
 21 22  2  0
 15 23  1  0
 23 24  1  0
 11 25  1  0
 25 26  2  0
  7 27  1  0
 27 28  2  0
 27  3  1  0
 26  8  1  0
 24 12  1  0
 22 16  1  0
  1 29  1  0
  1 30  1  0
  1 31  1  0
  2 32  1  0
  2 33  1  0
  6 34  1  0
  6 35  1  0
  6 36  1  0
  9 37  1  0
 10 38  1  0
 13 39  1  0
 13 40  1  0
 14 41  1  0
 14 42  1  0
 17 43  1  0
 18 44  1  0
 21 45  1  0
 22 46  1  0
 23 47  1  0
 23 48  1  0
 24 49  1  0
 24 50  1  0
 25 51  1  0
 26 52  1  0
M  END
>  <UniqueID>  (11) 
10

>  <SMILES>  (11) 
CCn1nc(C)n(-c2ccc(N3CCN(c4ccc(Cl)cc4)CC3)cc2)c1=O

>  <Energy>  (11) 
102.51677465471919

>  <Genealogy>  (11) 
CCn1nc(C)n(-c2ccc(N3CCN(c4ccc(Cl)cc4)CC3)cc2)c1=O (3D coordinates assigned)
CCn1nc(C)n(-c2ccc(N3CCN(c4ccc(Cl)cc4)CC3)cc2)c1=O (nonaromatic ring conformer: 102.51677465471919 kcal/mol)

>  <smiles>  (11) 
CCn1nc(C)n(-c2ccc(N3CCN(c4ccc(Cl)cc4)CC3)cc2)c1=O

>  <score_type>  (11) 
oracle

>  <origin>  (11) 
adg

>  <m_score__min__energy>  (11) 
-7.5099999999999998

>  <m_primary>  (11) 
energy

$$$$
11:0
     RDKit          3D

 54 57  0  0  0  0  0  0  0  0999 V2000
   55.4870   26.7040   45.9960 O   0  0  0  0  0  0  0  0  0  0  0  0
   56.7140   26.8880   45.7740 C   0  0  0  0  0  0  0  0  0  0  0  0
   57.1530   28.0670   44.9680 C   0  0  0  0  0  0  0  0  0  0  0  0
   58.5490   27.7960   44.4090 C   0  0  0  0  0  0  0  0  0  0  0  0
   59.5980   27.4640   45.5010 C   0  0  2  0  0  0  0  0  0  0  0  0
   59.0720   26.4360   46.5430 C   0  0  1  0  0  0  0  0  0  0  0  0
   59.1330   27.1490   47.8940 C   0  0  0  0  0  0  0  0  0  0  0  0
   59.3780   28.6090   47.5600 C   0  0  0  0  0  0  0  0  0  0  0  0
   60.1110   28.6170   46.2890 N   0  0  2  0  0  0  0  0  0  0  0  0
   60.3090   29.9360   45.6130 C   0  0  0  0  0  0  0  0  0  0  0  0
   59.2930   31.0300   45.9210 C   0  0  0  0  0  0  0  0  0  0  0  0
   59.4380   31.8180   47.0810 C   0  0  0  0  0  0  0  0  0  0  0  0
   58.5330   32.8450   47.3640 C   0  0  0  0  0  0  0  0  0  0  0  0
   57.5040   33.1370   46.4690 C   0  0  0  0  0  0  0  0  0  0  0  0
   57.4000   32.4260   45.2730 C   0  0  0  0  0  0  0  0  0  0  0  0
   58.3030   31.3970   44.9820 C   0  0  0  0  0  0  0  0  0  0  0  0
   58.2440   30.8180   43.7570 F   0  0  0  0  0  0  0  0  0  0  0  0
   57.6980   25.9680   46.2790 N   0  0  0  0  0  0  0  0  0  0  0  0
   57.3240   24.5750   46.5640 C   0  0  0  0  0  0  0  0  0  0  0  0
   58.2980   23.6040   45.8870 C   0  0  0  0  0  0  0  0  0  0  0  0
   57.9240   23.3880   44.4740 N   0  0  0  0  0  0  0  0  0  0  0  0
   57.9090   21.9710   44.0960 C   0  0  0  0  0  0  0  0  0  0  0  0
   56.9360   21.8410   42.9350 C   0  0  0  0  0  0  0  0  0  0  0  0
   56.0710   23.0900   42.9900 C   0  0  0  0  0  0  0  0  0  0  0  0
   56.5710   23.8710   44.1940 C   0  0  0  0  0  0  0  0  0  0  0  0
   56.4489   28.2295   44.1387 H   0  0  0  0  0  0  0  0  0  0  0  0
   57.1753   28.9642   45.6040 H   0  0  0  0  0  0  0  0  0  0  0  0
   58.4871   26.9446   43.7152 H   0  0  0  0  0  0  0  0  0  0  0  0
   58.8823   28.7176   43.9094 H   0  0  0  0  0  0  0  0  0  0  0  0
   60.4211   27.0608   44.8928 H   0  0  0  0  0  0  0  0  0  0  0  0
   59.6920   25.5282   46.5040 H   0  0  0  0  0  0  0  0  0  0  0  0
   58.1832   27.0310   48.4361 H   0  0  0  0  0  0  0  0  0  0  0  0
   59.9203   26.7368   48.5423 H   0  0  0  0  0  0  0  0  0  0  0  0
   58.4217   29.1420   47.4528 H   0  0  0  0  0  0  0  0  0  0  0  0
   59.9461   29.1138   48.3553 H   0  0  0  0  0  0  0  0  0  0  0  0
   61.0870   28.3300   46.5540 H   0  0  0  0  0  0  0  0  0  0  0  0
   61.3008   30.3126   45.9038 H   0  0  0  0  0  0  0  0  0  0  0  0
   60.1889   29.7281   44.5395 H   0  0  0  0  0  0  0  0  0  0  0  0
   60.2723   31.6225   47.7708 H   0  0  0  0  0  0  0  0  0  0  0  0
   58.6326   33.4238   48.2941 H   0  0  0  0  0  0  0  0  0  0  0  0
   56.7756   33.9266   46.7056 H   0  0  0  0  0  0  0  0  0  0  0  0
   56.6045   32.6754   44.5554 H   0  0  0  0  0  0  0  0  0  0  0  0
   57.3468   24.4101   47.6513 H   0  0  0  0  0  0  0  0  0  0  0  0
   56.3126   24.3927   46.1719 H   0  0  0  0  0  0  0  0  0  0  0  0
   59.3142   24.0227   45.9314 H   0  0  0  0  0  0  0  0  0  0  0  0
   58.2587   22.6394   46.4142 H   0  0  0  0  0  0  0  0  0  0  0  0
   58.9145   21.6503   43.7861 H   0  0  0  0  0  0  0  0  0  0  0  0
   57.6035   21.3381   44.9422 H   0  0  0  0  0  0  0  0  0  0  0  0
   57.4805   21.7919   41.9805 H   0  0  0  0  0  0  0  0  0  0  0  0
   56.3338   20.9233   43.0073 H   0  0  0  0  0  0  0  0  0  0  0  0
   56.1898   23.6818   42.0704 H   0  0  0  0  0  0  0  0  0  0  0  0
   55.0020   22.8452   43.0750 H   0  0  0  0  0  0  0  0  0  0  0  0
   56.5918   24.9470   43.9664 H   0  0  0  0  0  0  0  0  0  0  0  0
   55.9110   23.7267   45.0621 H   0  0  0  0  0  0  0  0  0  0  0  0
  1  2  2  0
  2  3  1  0
  3  4  1  0
  4  5  1  0
  5  6  1  0
  6  7  1  0
  7  8  1  0
  8  9  1  0
  9 10  1  0
 10 11  1  0
 11 12  2  0
 12 13  1  0
 13 14  2  0
 14 15  1  0
 15 16  2  0
 16 17  1  0
  6 18  1  0
 18 19  1  0
 19 20  1  0
 20 21  1  0
 21 22  1  0
 22 23  1  0
 23 24  1  0
 24 25  1  0
 18  2  1  0
 25 21  1  0
  9  5  1  0
 16 11  1  0
  3 26  1  0
  3 27  1  0
  4 28  1  0
  4 29  1  0
  5 30  1  6
  6 31  1  1
  7 32  1  0
  7 33  1  0
  8 34  1  0
  8 35  1  0
  9 36  1  1
 10 37  1  0
 10 38  1  0
 12 39  1  0
 13 40  1  0
 14 41  1  0
 15 42  1  0
 19 43  1  0
 19 44  1  0
 20 45  1  0
 20 46  1  0
 22 47  1  0
 22 48  1  0
 23 49  1  0
 23 50  1  0
 24 51  1  0
 24 52  1  0
 25 53  1  0
 25 54  1  0
M  CHG  1   9   1
M  END
>  <UniqueID>  (12) 
11

>  <SMILES>  (12) 
O=C1CC[C@@H]2[C@@H](CC[NH+]2Cc2ccccc2F)N1CCN1CCCC1

>  <Energy>  (12) 
77.18577877971464

>  <Genealogy>  (12) 
O=C1CCC2C(CC[NH+]2Cc2ccccc2F)N1CCN1CCCC1 (protonated)
O=C1CC[C@@H]2[C@@H](CC[NH+]2Cc2ccccc2F)N1CCN1CCCC1 (chirality)
O=C1CC[C@@H]2[C@@H](CC[NH+]2Cc2ccccc2F)N1CCN1CCCC1 (3D coordinates assigned)
O=C1CC[C@@H]2[C@@H](CC[NH+]2Cc2ccccc2F)N1CCN1CCCC1 (nonaromatic ring conformer: 77.18577877971464 kcal/mol)

>  <smiles>  (12) 
O=C1CCC2C(CCN2Cc2ccccc2F)N1CCN1CCCC1

>  <score_type>  (12) 
oracle

>  <origin>  (12) 
adg

>  <m_score__min__energy>  (12) 
-6.4199999999999999

>  <m_primary>  (12) 
energy

$$$$
12:0
     RDKit          3D

 43 46  0  0  0  0  0  0  0  0999 V2000
   56.7370   21.0740   43.0790 C   0  0  0  0  0  0  0  0  0  0  0  0
   55.9030   22.1360   43.5260 O   0  0  0  0  0  0  0  0  0  0  0  0
   56.3680   23.3120   44.1370 C   0  0  0  0  0  0  0  0  0  0  0  0
   56.9770   24.3450   43.4030 C   0  0  0  0  0  0  0  0  0  0  0  0
   57.4180   25.5180   44.0270 C   0  0  0  0  0  0  0  0  0  0  0  0
   57.2880   25.6480   45.4360 C   0  0  0  0  0  0  0  0  0  0  0  0
   56.6860   24.6050   46.1630 C   0  0  0  0  0  0  0  0  0  0  0  0
   56.2200   23.4440   45.5220 C   0  0  0  0  0  0  0  0  0  0  0  0
   55.6070   22.3960   46.2280 O   0  0  0  0  0  0  0  0  0  0  0  0
   56.2790   21.2270   46.6860 C   0  0  0  0  0  0  0  0  0  0  0  0
   57.8010   26.8160   46.1940 C   0  0  0  0  0  0  0  0  0  0  0  0
   58.2480   26.6490   47.3620 O   0  0  0  0  0  0  0  0  0  0  0  0
   57.7560   28.1380   45.6460 N   0  0  0  0  0  0  0  0  0  0  0  0
   58.1830   29.3150   46.3110 C   0  0  0  0  0  0  0  0  0  0  0  0
   57.9820   30.3960   45.5710 C   0  0  0  0  0  0  0  0  0  0  0  0
   58.3210   31.7940   45.9650 C   0  0  0  0  0  0  0  0  0  0  0  0
   58.8300   32.0580   47.2520 C   0  0  0  0  0  0  0  0  0  0  0  0
   59.1490   33.3640   47.6370 C   0  0  0  0  0  0  0  0  0  0  0  0
   58.9590   34.4230   46.7490 C   0  0  0  0  0  0  0  0  0  0  0  0
   59.2690   35.6880   47.1270 F   0  0  0  0  0  0  0  0  0  0  0  0
   58.4480   34.1800   45.4740 C   0  0  0  0  0  0  0  0  0  0  0  0
   58.1270   32.8770   45.0820 C   0  0  0  0  0  0  0  0  0  0  0  0
   57.3380   30.0140   44.2680 C   0  0  0  0  0  0  0  0  0  0  0  0
   57.2310   28.4750   44.3380 C   0  0  1  0  0  0  0  0  0  0  0  0
   58.0500   27.7790   43.2930 C   0  0  0  0  0  0  0  0  0  0  0  0
   58.0820   26.4850   43.1920 N   0  0  0  0  0  0  0  0  0  0  0  0
   57.1533   20.5439   43.9483 H   0  0  0  0  0  0  0  0  0  0  0  0
   56.1450   20.3737   42.4715 H   0  0  0  0  0  0  0  0  0  0  0  0
   57.5577   21.4831   42.4715 H   0  0  0  0  0  0  0  0  0  0  0  0
   57.1095   24.2292   42.3172 H   0  0  0  0  0  0  0  0  0  0  0  0
   56.5779   24.6997   47.2536 H   0  0  0  0  0  0  0  0  0  0  0  0
   56.2858   21.2152   47.7859 H   0  0  0  0  0  0  0  0  0  0  0  0
   55.7565   20.3338   46.3129 H   0  0  0  0  0  0  0  0  0  0  0  0
   57.3138   21.2290   46.3129 H   0  0  0  0  0  0  0  0  0  0  0  0
   58.6266   29.3293   47.3175 H   0  0  0  0  0  0  0  0  0  0  0  0
   58.9778   31.2294   47.9603 H   0  0  0  0  0  0  0  0  0  0  0  0
   59.5508   33.5568   48.6427 H   0  0  0  0  0  0  0  0  0  0  0  0
   58.2972   35.0159   44.7751 H   0  0  0  0  0  0  0  0  0  0  0  0
   57.7197   32.6947   44.0766 H   0  0  0  0  0  0  0  0  0  0  0  0
   56.3416   30.4710   44.1760 H   0  0  0  0  0  0  0  0  0  0  0  0
   57.9132   30.3581   43.3958 H   0  0  0  0  0  0  0  0  0  0  0  0
   56.1920   28.1565   44.1678 H   0  0  0  0  0  0  0  0  0  0  0  0
   58.6422   28.3833   42.5900 H   0  0  0  0  0  0  0  0  0  0  0  0
  1  2  1  0
  2  3  1  0
  3  4  2  0
  4  5  1  0
  5  6  2  0
  6  7  1  0
  7  8  2  0
  8  9  1  0
  9 10  1  0
  6 11  1  0
 11 12  2  0
 11 13  1  0
 13 14  1  0
 14 15  2  0
 15 16  1  0
 16 17  2  0
 17 18  1  0
 18 19  2  0
 19 20  1  0
 19 21  1  0
 21 22  2  0
 15 23  1  0
 23 24  1  0
 24 25  1  0
 25 26  2  0
  8  3  1  0
 24 13  1  0
 26  5  1  0
 22 16  1  0
  1 27  1  0
  1 28  1  0
  1 29  1  0
  4 30  1  0
  7 31  1  0
 10 32  1  0
 10 33  1  0
 10 34  1  0
 14 35  1  0
 17 36  1  0
 18 37  1  0
 21 38  1  0
 22 39  1  0
 23 40  1  0
 23 41  1  0
 24 42  1  1
 25 43  1  0
M  END
>  <UniqueID>  (13) 
12

>  <SMILES>  (13) 
COc1cc2c(cc1OC)C(=O)N1C=C(c3ccc(F)cc3)C[C@H]1C=N2

>  <Energy>  (13) 
70.35778302343884

>  <Genealogy>  (13) 
COc1cc2c(cc1OC)C(=O)N1C=C(c3ccc(F)cc3)C[C@H]1C=N2 (chirality)
COc1cc2c(cc1OC)C(=O)N1C=C(c3ccc(F)cc3)C[C@H]1C=N2 (3D coordinates assigned)
COc1cc2c(cc1OC)C(=O)N1C=C(c3ccc(F)cc3)C[C@H]1C=N2 (nonaromatic ring conformer: 70.35778302343884 kcal/mol)

>  <smiles>  (13) 
COc1cc2c(cc1OC)C(=O)N1C=C(c3ccc(F)cc3)CC1C=N2

>  <score_type>  (13) 
oracle

>  <origin>  (13) 
adg

>  <m_score__min__energy>  (13) 
-6.3499999999999996

>  <m_primary>  (13) 
energy

$$$$
13:0
     RDKit          3D

 46 49  0  0  0  0  0  0  0  0999 V2000
   57.8010   31.8020   43.4720 O   0  0  0  0  0  0  0  0  0  0  0  0
   57.2640   31.7470   44.6140 C   0  0  0  0  0  0  0  0  0  0  0  0
   57.0680   32.9900   45.4300 C   0  0  0  0  0  0  0  0  0  0  0  0
   58.3460   33.5380   45.8800 N   0  0  0  0  0  0  0  0  0  0  0  0
   59.2700   32.8860   46.6110 C   0  0  0  0  0  0  0  0  0  0  0  0
   60.3450   33.7340   46.7680 C   0  0  0  0  0  0  0  0  0  0  0  0
   61.5920   33.4450   47.4230 N   0  0  0  0  0  0  0  0  0  0  0  0
   62.8700   33.4510   46.8120 C   0  0  0  0  0  0  0  0  0  0  0  0
   63.0900   33.8460   45.6380 O   0  0  0  0  0  0  0  0  0  0  0  0
   63.8780   32.9370   47.6490 N   0  0  0  0  0  0  0  0  0  0  0  0
   63.2750   32.6000   48.9330 C   0  0  1  0  0  0  0  0  0  0  0  0
   63.8640   33.5030   50.0280 C   0  0  0  0  0  0  0  0  0  0  0  0
   62.9940   33.5060   51.3070 C   0  0  0  0  0  0  0  0  0  0  0  0
   61.6130   33.2320   51.1050 O   0  0  0  0  0  0  0  0  0  0  0  0
   61.1640   33.7110   49.8550 C   0  0  0  0  0  0  0  0  0  0  0  0
   61.7400   32.8260   48.7410 C   0  0  1  0  0  0  0  0  0  0  0  0
   60.0110   34.8940   46.0930 C   0  0  0  0  0  0  0  0  0  0  0  0
   58.7840   34.7470   45.5580 N   0  0  0  0  0  0  0  0  0  0  0  0
   56.8150   30.4940   45.1370 N   0  0  0  0  0  0  0  0  0  0  0  0
   56.9790   29.2370   44.4190 C   0  0  0  0  0  0  0  0  0  0  0  0
   57.4210   28.1650   45.3780 C   0  0  0  0  0  0  0  0  0  0  0  0
   56.5610   27.0840   45.6420 C   0  0  0  0  0  0  0  0  0  0  0  0
   56.9480   26.0660   46.5160 C   0  0  0  0  0  0  0  0  0  0  0  0
   58.2020   26.1070   47.1260 C   0  0  0  0  0  0  0  0  0  0  0  0
   59.0790   27.1590   46.8510 C   0  0  0  0  0  0  0  0  0  0  0  0
   58.7030   28.1850   45.9740 C   0  0  0  0  0  0  0  0  0  0  0  0
   59.9740   29.5780   45.6190 Br  0  0  0  0  0  0  0  0  0  0  0  0
   56.5514   33.7431   44.8169 H   0  0  0  0  0  0  0  0  0  0  0  0
   56.4699   32.7322   46.3164 H   0  0  0  0  0  0  0  0  0  0  0  0
   59.1828   31.8644   47.0095 H   0  0  0  0  0  0  0  0  0  0  0  0
   64.8910   32.8600   47.4090 H   0  0  0  0  0  0  0  0  0  0  0  0
   63.4739   31.5643   49.2457 H   0  0  0  0  0  0  0  0  0  0  0  0
   64.8705   33.1404   50.2840 H   0  0  0  0  0  0  0  0  0  0  0  0
   63.8986   34.5311   49.6383 H   0  0  0  0  0  0  0  0  0  0  0  0
   63.3947   32.7443   51.9920 H   0  0  0  0  0  0  0  0  0  0  0  0
   63.0451   34.5296   51.7064 H   0  0  0  0  0  0  0  0  0  0  0  0
   60.0650   33.6773   49.8209 H   0  0  0  0  0  0  0  0  0  0  0  0
   61.4994   34.7491   49.7140 H   0  0  0  0  0  0  0  0  0  0  0  0
   61.1809   31.8804   48.7984 H   0  0  0  0  0  0  0  0  0  0  0  0
   60.6438   35.7897   46.0072 H   0  0  0  0  0  0  0  0  0  0  0  0
   56.0209   28.9480   43.9623 H   0  0  0  0  0  0  0  0  0  0  0  0
   57.7379   29.3606   43.6324 H   0  0  0  0  0  0  0  0  0  0  0  0
   55.5752   27.0400   45.1559 H   0  0  0  0  0  0  0  0  0  0  0  0
   56.2632   25.2306   46.7238 H   0  0  0  0  0  0  0  0  0  0  0  0
   58.5003   25.3107   47.8238 H   0  0  0  0  0  0  0  0  0  0  0  0
   60.0709   27.1820   47.3259 H   0  0  0  0  0  0  0  0  0  0  0  0
  1  2  2  0
  2  3  1  0
  3  4  1  0
  4  5  1  0
  5  6  2  0
  6  7  1  0
  7  8  1  0
  8  9  2  0
  8 10  1  0
 10 11  1  0
 11 12  1  0
 12 13  1  0
 13 14  1  0
 14 15  1  0
 15 16  1  0
  6 17  1  0
 17 18  2  0
  2 19  1  0
 19 20  1  0
 20 21  1  0
 21 22  2  0
 22 23  1  0
 23 24  2  0
 24 25  1  0
 25 26  2  0
 26 27  1  0
 18  4  1  0
 26 21  1  0
 16  7  1  0
 16 11  1  0
  3 28  1  0
  3 29  1  0
  5 30  1  0
 10 31  1  0
 11 32  1  1
 12 33  1  0
 12 34  1  0
 13 35  1  0
 13 36  1  0
 15 37  1  0
 15 38  1  0
 16 39  1  6
 17 40  1  0
 20 41  1  0
 20 42  1  0
 22 43  1  0
 23 44  1  0
 24 45  1  0
 25 46  1  0
M  CHG  1  19  -1
M  END
>  <UniqueID>  (14) 
13

>  <SMILES>  (14) 
O=C(Cn1cc(N2C(=O)N[C@H]3CCOC[C@H]32)cn1)[N-]Cc1ccccc1Br

>  <Energy>  (14) 
99.27692103297439

>  <Genealogy>  (14) 
O=C(Cn1cc(N2C(=O)NC3CCOCC32)cn1)[N-]Cc1ccccc1Br (protonated)
O=C(Cn1cc(N2C(=O)N[C@H]3CCOC[C@H]32)cn1)[N-]Cc1ccccc1Br (chirality)
O=C(Cn1cc(N2C(=O)N[C@H]3CCOC[C@H]32)cn1)[N-]Cc1ccccc1Br (3D coordinates assigned)
O=C(Cn1cc(N2C(=O)N[C@H]3CCOC[C@H]32)cn1)[N-]Cc1ccccc1Br (nonaromatic ring conformer: 99.27692103297439 kcal/mol)

>  <smiles>  (14) 
O=C(Cn1cc(N2C(=O)NC3CCOCC32)cn1)NCc1ccccc1Br

>  <score_type>  (14) 
oracle

>  <origin>  (14) 
adg

>  <m_score__min__energy>  (14) 
-10.23

>  <m_primary>  (14) 
energy

$$$$
14:0
     RDKit          3D

 54 57  0  0  0  0  0  0  0  0999 V2000
   59.0982   29.6046   46.8949 H   0  0  0  0  0  0  0  0  0  0  0  0
   59.3420   29.6630   47.9660 C   0  0  0  0  0  0  0  0  0  0  0  0
   60.0440   28.6200   48.5720 C   0  0  0  0  0  0  0  0  0  0  0  0
   60.3665   27.7554   47.9733 H   0  0  0  0  0  0  0  0  0  0  0  0
   60.3390   28.6710   49.9400 C   0  0  0  0  0  0  0  0  0  0  0  0
   61.1380   27.5740   50.5810 C   0  0  0  0  0  0  0  0  0  0  0  0
   61.0724   27.6640   51.6753 H   0  0  0  0  0  0  0  0  0  0  0  0
   60.7376   26.5982   50.2687 H   0  0  0  0  0  0  0  0  0  0  0  0
   62.1896   27.6558   50.2687 H   0  0  0  0  0  0  0  0  0  0  0  0
   59.9320   29.7800   50.6940 C   0  0  0  0  0  0  0  0  0  0  0  0
   60.1836   29.8324   51.7636 H   0  0  0  0  0  0  0  0  0  0  0  0
   59.2060   30.8260   50.0990 C   0  0  0  0  0  0  0  0  0  0  0  0
   58.7450   31.9640   50.9720 C   0  0  0  0  0  0  0  0  0  0  0  0
   58.8584   31.6840   52.0297 H   0  0  0  0  0  0  0  0  0  0  0  0
   59.3524   32.8567   50.7619 H   0  0  0  0  0  0  0  0  0  0  0  0
   57.6875   32.1822   50.7619 H   0  0  0  0  0  0  0  0  0  0  0  0
   58.9450   30.7820   48.7060 C   0  0  0  0  0  0  0  0  0  0  0  0
   58.2310   31.8240   48.0230 N   0  0  0  0  0  0  0  0  0  0  0  0
   58.2640   32.0300   46.7390 C   0  0  0  0  0  0  0  0  0  0  0  0
   57.5220   31.2790   45.9260 O   0  0  0  0  0  0  0  0  0  0  0  0
   57.4840   31.4550   44.6100 C   0  0  0  0  0  0  0  0  0  0  0  0
   56.6910   30.6170   43.8170 C   0  0  0  0  0  0  0  0  0  0  0  0
   56.1029   29.8128   44.2833 H   0  0  0  0  0  0  0  0  0  0  0  0
   56.6470   30.8030   42.4310 C   0  0  0  0  0  0  0  0  0  0  0  0
   56.0236   30.1439   41.8089 H   0  0  0  0  0  0  0  0  0  0  0  0
   57.3930   31.8240   41.8340 C   0  0  0  0  0  0  0  0  0  0  0  0
   57.3538   31.9663   40.7439 H   0  0  0  0  0  0  0  0  0  0  0  0
   58.1890   32.6650   42.6190 C   0  0  0  0  0  0  0  0  0  0  0  0
   58.7753   33.4673   42.1472 H   0  0  0  0  0  0  0  0  0  0  0  0
   58.2380   32.4830   44.0100 C   0  0  0  0  0  0  0  0  0  0  0  0
   59.0210   33.2990   44.8270 C   0  0  0  0  0  0  0  0  0  0  0  0
   59.6088   34.1180   44.3869 H   0  0  0  0  0  0  0  0  0  0  0  0
   59.0570   33.0730   46.2090 C   0  0  0  0  0  0  0  0  0  0  0  0
   59.8810   33.9560   47.0680 C   0  0  0  0  0  0  0  0  0  0  0  0
   59.6710   35.1990   47.0400 O   0  0  0  0  0  0  0  0  0  0  0  0
   60.9180   33.4320   47.9220 N   0  0  0  0  0  0  0  0  0  0  0  0
   61.6950   32.2490   47.5310 C   0  0  0  0  0  0  0  0  0  0  0  0
   61.2987   31.3619   48.0467 H   0  0  0  0  0  0  0  0  0  0  0  0
   61.6204   32.1015   46.4435 H   0  0  0  0  0  0  0  0  0  0  0  0
   63.1610   32.4560   47.9220 C   0  0  0  0  0  0  0  0  0  0  0  0
   63.7338   31.5629   47.6317 H   0  0  0  0  0  0  0  0  0  0  0  0
   63.5241   33.3540   47.4006 H   0  0  0  0  0  0  0  0  0  0  0  0
   63.3310   32.6790   49.3830 N   0  0  0  0  0  0  0  0  0  0  0  0
   63.4810   31.7410   49.8280 H   0  0  0  0  0  0  0  0  0  0  0  0
   64.5520   33.4650   49.6370 C   0  0  0  0  0  0  0  0  0  0  0  0
   64.7054   33.5638   50.7218 H   0  0  0  0  0  0  0  0  0  0  0  0
   65.4170   32.9537   49.1894 H   0  0  0  0  0  0  0  0  0  0  0  0
   64.4447   34.4641   49.1894 H   0  0  0  0  0  0  0  0  0  0  0  0
   62.1530   33.2990   50.0530 C   0  0  0  0  0  0  0  0  0  0  0  0
   61.5059   32.4968   50.4374 H   0  0  0  0  0  0  0  0  0  0  0  0
   62.5341   33.9415   50.8604 H   0  0  0  0  0  0  0  0  0  0  0  0
   61.3250   34.1870   49.1110 C   0  0  0  0  0  0  0  0  0  0  0  0
   60.4279   34.5396   49.6409 H   0  0  0  0  0  0  0  0  0  0  0  0
   61.9397   35.0433   48.7964 H   0  0  0  0  0  0  0  0  0  0  0  0
  1  2  1  0
  2  3  2  0
  3  4  1  0
  3  5  1  0
  5  6  1  0
  6  7  1  0
  6  8  1  0
  6  9  1  0
  5 10  2  0
 10 11  1  0
 10 12  1  0
 12 13  1  0
 13 14  1  0
 13 15  1  0
 13 16  1  0
 12 17  2  0
 17 18  1  0
 18 19  2  0
 19 20  1  0
 20 21  1  0
 21 22  2  0
 22 23  1  0
 22 24  1  0
 24 25  1  0
 24 26  2  0
 26 27  1  0
 26 28  1  0
 28 29  1  0
 28 30  2  0
 30 31  1  0
 31 32  1  0
 31 33  2  0
 33 34  1  0
 34 35  2  0
 34 36  1  0
 36 37  1  0
 37 38  1  0
 37 39  1  0
 37 40  1  0
 40 41  1  0
 40 42  1  0
 40 43  1  0
 43 44  1  0
 43 45  1  0
 45 46  1  0
 45 47  1  0
 45 48  1  0
 43 49  1  0
 49 50  1  0
 49 51  1  0
 49 52  1  0
 52 53  1  0
 52 54  1  0
 17  2  1  0
 33 19  1  0
 52 36  1  0
 30 21  1  0
M  CHG  1  43   1
M  END
>  <UniqueID>  (15) 
14

>  <SMILES>  (15) 
Cc1ccc(/N=c2\oc3ccccc3cc2C(=O)N2CC[NH+](C)CC2)c(C)c1

>  <Energy>  (15) 
79.46223769275451

>  <Genealogy>  (15) 
Cc1ccc(N=c2oc3ccccc3cc2C(=O)N2CC[NH+](C)CC2)c(C)c1 (protonated)
Cc1ccc(/N=c2\oc3ccccc3cc2C(=O)N2CC[NH+](C)CC2)c(C)c1 (cis-trans isomerization)
Cc1ccc(/N=c2\oc3ccccc3cc2C(=O)N2CC[NH+](C)CC2)c(C)c1 (3D coordinates assigned)
Cc1ccc(/N=c2\oc3ccccc3cc2C(=O)N2CC[NH+](C)CC2)c(C)c1 (nonaromatic ring conformer: 79.46223769275451 kcal/mol)

>  <smiles>  (15) 
Cc1ccc(N=c2oc3ccccc3cc2C(=O)N2CCN(C)CC2)c(C)c1

>  <score_type>  (15) 
oracle

>  <origin>  (15) 
adg

>  <m_score__min__energy>  (15) 
-6.9699999999999998

>  <m_primary>  (15) 
energy

$$$$
15:0
     RDKit          3D

 64 64  0  0  0  0  0  0  0  0999 V2000
   59.9250   34.9790   46.3260 C   0  0  0  0  0  0  0  0  0  0  0  0
   59.2690   34.6000   45.0000 C   0  0  0  0  0  0  0  0  0  0  0  0
   57.8610   34.0040   45.1840 C   0  0  0  0  0  0  0  0  0  0  0  0
   57.4560   33.8260   46.6590 C   0  0  0  0  0  0  0  0  0  0  0  0
   57.8620   32.5250   47.1910 N   0  0  0  0  0  0  0  0  0  0  0  0
   58.6700   32.3950   48.3780 C   0  0  0  0  0  0  0  0  0  0  0  0
   59.0390   33.4400   48.9850 O   0  0  0  0  0  0  0  0  0  0  0  0
   59.1360   31.0220   48.8690 C   0  0  2  0  0  0  0  0  0  0  0  0
   58.5380   30.7950   50.2710 C   0  0  0  0  0  0  0  0  0  0  0  0
   60.6850   30.9380   48.9510 C   0  0  0  0  0  0  0  0  0  0  0  0
   61.3950   30.9030   47.5810 C   0  0  0  0  0  0  0  0  0  0  0  0
   60.4430   30.8430   46.3810 C   0  0  0  0  0  0  0  0  0  0  0  0
   59.3400   29.8960   46.6210 N   0  0  0  0  0  0  0  0  0  0  0  0
   58.8600   28.9850   45.5980 C   0  0  0  0  0  0  0  0  0  0  0  0
   59.6960   28.3000   44.9420 O   0  0  0  0  0  0  0  0  0  0  0  0
   57.3950   28.8600   45.2360 C   0  0  2  0  0  0  0  0  0  0  0  0
   57.0900   27.4420   45.0490 N   0  0  0  0  0  0  0  0  0  0  0  0
   56.4450   26.6380   46.0380 C   0  0  0  0  0  0  0  0  0  0  0  0
   55.1920   26.4960   46.0060 O   0  0  0  0  0  0  0  0  0  0  0  0
   57.2840   25.8790   47.0410 C   0  0  1  0  0  0  0  0  0  0  0  0
   56.8130   24.4160   47.1720 C   0  0  0  0  0  0  0  0  0  0  0  0
   58.7300   25.9850   46.7410 N   0  0  0  0  0  0  0  0  0  0  0  0
   59.5160   26.6400   47.7990 C   0  0  0  0  0  0  0  0  0  0  0  0
   57.0150   29.7160   43.9920 C   0  0  0  0  0  0  0  0  0  0  0  0
   55.5360   30.1280   44.0250 C   0  0  0  0  0  0  0  0  0  0  0  0
   57.8960   30.9720   43.8870 C   0  0  0  0  0  0  0  0  0  0  0  0
   58.6540   29.8830   47.9250 C   0  0  0  0  0  0  0  0  0  0  0  0
   59.3028   34.6195   47.1589 H   0  0  0  0  0  0  0  0  0  0  0  0
   60.9217   34.5176   46.3871 H   0  0  0  0  0  0  0  0  0  0  0  0
   60.0230   36.0729   46.3871 H   0  0  0  0  0  0  0  0  0  0  0  0
   59.1907   35.5020   44.3753 H   0  0  0  0  0  0  0  0  0  0  0  0
   59.8966   33.8310   44.5260 H   0  0  0  0  0  0  0  0  0  0  0  0
   57.1338   34.6740   44.7019 H   0  0  0  0  0  0  0  0  0  0  0  0
   57.8721   33.0026   44.7289 H   0  0  0  0  0  0  0  0  0  0  0  0
   57.9338   34.6172   47.2554 H   0  0  0  0  0  0  0  0  0  0  0  0
   56.3593   33.8872   46.7175 H   0  0  0  0  0  0  0  0  0  0  0  0
   57.6690   31.6850   46.6020 H   0  0  0  0  0  0  0  0  0  0  0  0
   59.2778   31.0758   51.0351 H   0  0  0  0  0  0  0  0  0  0  0  0
   57.6359   31.4132   50.3894 H   0  0  0  0  0  0  0  0  0  0  0  0
   58.2734   29.7339   50.3894 H   0  0  0  0  0  0  0  0  0  0  0  0
   61.0484   31.8164   49.5045 H   0  0  0  0  0  0  0  0  0  0  0  0
   60.9218   29.9876   49.4517 H   0  0  0  0  0  0  0  0  0  0  0  0
   62.0103   31.8101   47.4881 H   0  0  0  0  0  0  0  0  0  0  0  0
   61.9914   29.9790   47.5577 H   0  0  0  0  0  0  0  0  0  0  0  0
   60.0237   31.8447   46.2055 H   0  0  0  0  0  0  0  0  0  0  0  0
   61.0108   30.5002   45.5035 H   0  0  0  0  0  0  0  0  0  0  0  0
   56.7813   29.2620   46.0556 H   0  0  0  0  0  0  0  0  0  0  0  0
   57.1375   26.3507   48.0239 H   0  0  0  0  0  0  0  0  0  0  0  0
   56.7280   24.1521   48.2365 H   0  0  0  0  0  0  0  0  0  0  0  0
   55.8326   24.3016   46.6865 H   0  0  0  0  0  0  0  0  0  0  0  0
   57.5425   23.7511   46.6865 H   0  0  0  0  0  0  0  0  0  0  0  0
   58.8480   26.5400   45.8610 H   0  0  0  0  0  0  0  0  0  0  0  0
   59.1391   26.3259   48.7835 H   0  0  0  0  0  0  0  0  0  0  0  0
   60.5732   26.3518   47.7021 H   0  0  0  0  0  0  0  0  0  0  0  0
   59.4232   27.7318   47.7021 H   0  0  0  0  0  0  0  0  0  0  0  0
   57.1870   29.0860   43.1069 H   0  0  0  0  0  0  0  0  0  0  0  0
   55.2043   30.2204   45.0697 H   0  0  0  0  0  0  0  0  0  0  0  0
   55.4131   31.0946   43.5145 H   0  0  0  0  0  0  0  0  0  0  0  0
   54.9311   29.3642   43.5145 H   0  0  0  0  0  0  0  0  0  0  0  0
   58.1467   31.3295   44.8966 H   0  0  0  0  0  0  0  0  0  0  0  0
   58.8210   30.7267   43.3446 H   0  0  0  0  0  0  0  0  0  0  0  0
   57.3504   31.7583   43.3446 H   0  0  0  0  0  0  0  0  0  0  0  0
   57.5735   30.0003   47.7553 H   0  0  0  0  0  0  0  0  0  0  0  0
   58.8877   28.9256   48.4136 H   0  0  0  0  0  0  0  0  0  0  0  0
  1  2  1  0
  2  3  1  0
  3  4  1  0
  4  5  1  0
  5  6  1  0
  6  7  2  0
  6  8  1  0
  8  9  1  1
  8 10  1  0
 10 11  1  0
 11 12  1  0
 12 13  1  0
 13 14  1  0
 14 15  2  0
 14 16  1  0
 16 17  1  0
 17 18  1  0
 18 19  2  0
 18 20  1  0
 20 21  1  0
 20 22  1  0
 22 23  1  0
 16 24  1  0
 24 25  1  0
 24 26  1  0
 13 27  1  0
 27  8  1  0
  1 28  1  0
  1 29  1  0
  1 30  1  0
  2 31  1  0
  2 32  1  0
  3 33  1  0
  3 34  1  0
  4 35  1  0
  4 36  1  0
  5 37  1  0
  9 38  1  0
  9 39  1  0
  9 40  1  0
 10 41  1  0
 10 42  1  0
 11 43  1  0
 11 44  1  0
 12 45  1  0
 12 46  1  0
 16 47  1  1
 20 48  1  1
 21 49  1  0
 21 50  1  0
 21 51  1  0
 22 52  1  0
 23 53  1  0
 23 54  1  0
 23 55  1  0
 24 56  1  0
 25 57  1  0
 25 58  1  0
 25 59  1  0
 26 60  1  0
 26 61  1  0
 26 62  1  0
 27 63  1  0
 27 64  1  0
M  CHG  1  17  -1
M  END
>  <UniqueID>  (16) 
15

>  <SMILES>  (16) 
CCCCNC(=O)[C@]1(C)CCCN(C(=O)[C@H]([N-]C(=O)C(C)NC)C(C)C)C1

>  <Energy>  (16) 
59.98685026780262

>  <Genealogy>  (16) 
CCCCNC(=O)C1(C)CCCN(C(=O)C([N-]C(=O)C(C)NC)C(C)C)C1 (protonated)
CCCCNC(=O)[C@]1(C)CCCN(C(=O)[C@H]([N-]C(=O)C(C)NC)C(C)C)C1 (chirality)
CCCCNC(=O)[C@]1(C)CCCN(C(=O)[C@H]([N-]C(=O)C(C)NC)C(C)C)C1 (3D coordinates assigned)
CCCCNC(=O)[C@]1(C)CCCN(C(=O)[C@H]([N-]C(=O)C(C)NC)C(C)C)C1 (nonaromatic ring conformer: 59.98685026780262 kcal/mol)

>  <smiles>  (16) 
CCCCNC(=O)C1(C)CCCN(C(=O)C(NC(=O)C(C)NC)C(C)C)C1

>  <score_type>  (16) 
oracle

>  <origin>  (16) 
adg

>  <m_score__min__energy>  (16) 
-9.5600000000000005

>  <m_primary>  (16) 
energy

$$$$
16:0
     RDKit          3D

 53 57  0  0  0  0  0  0  0  0999 V2000
   64.7170   32.9720   51.8060 C   0  0  0  0  0  0  0  0  0  0  0  0
   64.6050   31.7980   50.8410 C   0  0  0  0  0  0  0  0  0  0  0  0
   63.9840   32.2270   49.5870 N   0  0  0  0  0  0  0  0  0  0  0  0
   64.6580   32.8050   48.6040 N   0  0  0  0  0  0  0  0  0  0  0  0
   63.8210   33.0430   47.5780 C   0  0  0  0  0  0  0  0  0  0  0  0
   62.5570   32.5970   47.9200 C   0  0  0  0  0  0  0  0  0  0  0  0
   61.3620   32.6940   47.0610 C   0  0  0  0  0  0  0  0  0  0  0  0
   60.9740   33.7590   46.2770 C   0  0  0  0  0  0  0  0  0  0  0  0
   59.8470   33.4090   45.6330 N   0  0  0  0  0  0  0  0  0  0  0  0
   59.5710   32.1430   46.0190 C   0  0  0  0  0  0  0  0  0  0  0  0
   60.4940   31.6770   46.8910 N   0  0  0  0  0  0  0  0  0  0  0  0
   58.4480   31.2900   45.5220 C   0  0  0  0  0  0  0  0  0  0  0  0
   58.5670   29.8980   45.7360 C   0  0  0  0  0  0  0  0  0  0  0  0
   57.5990   28.9970   45.2740 C   0  0  0  0  0  0  0  0  0  0  0  0
   57.7560   27.5460   45.5230 C   0  0  0  0  0  0  0  0  0  0  0  0
   57.7820   27.0850   46.8480 C   0  0  0  0  0  0  0  0  0  0  0  0
   57.8890   25.7580   47.1150 N   0  0  0  0  0  0  0  0  0  0  0  0
   57.9760   24.8350   46.1240 C   0  0  0  0  0  0  0  0  0  0  0  0
   57.9690   25.2380   44.7880 C   0  0  0  0  0  0  0  0  0  0  0  0
   58.0540   24.2970   43.8130 F   0  0  0  0  0  0  0  0  0  0  0  0
   57.8810   26.6050   44.4710 C   0  0  0  0  0  0  0  0  0  0  0  0
   57.8990   27.0310   43.0230 C   0  0  0  0  0  0  0  0  0  0  0  0
   56.4780   29.4840   44.6000 C   0  0  0  0  0  0  0  0  0  0  0  0
   56.3320   30.8510   44.3830 C   0  0  0  0  0  0  0  0  0  0  0  0
   57.2870   31.7680   44.8400 C   0  0  0  0  0  0  0  0  0  0  0  0
   56.9940   33.1150   44.5730 O   0  0  0  0  0  0  0  0  0  0  0  0
   57.6450   34.2560   45.1080 C   0  0  0  0  0  0  0  0  0  0  0  0
   59.1070   34.2550   44.7110 C   0  0  0  0  0  0  0  0  0  0  0  0
   62.6980   32.0580   49.1970 C   0  0  0  0  0  0  0  0  0  0  0  0
   61.6270   31.3950   50.0150 C   0  0  0  0  0  0  0  0  0  0  0  0
   64.6816   32.6007   52.8408 H   0  0  0  0  0  0  0  0  0  0  0  0
   65.6692   33.4961   51.6369 H   0  0  0  0  0  0  0  0  0  0  0  0
   63.8811   33.6667   51.6369 H   0  0  0  0  0  0  0  0  0  0  0  0
   65.6103   31.4036   50.6315 H   0  0  0  0  0  0  0  0  0  0  0  0
   63.9811   31.0168   51.2997 H   0  0  0  0  0  0  0  0  0  0  0  0
   65.6760   33.0340   48.6300 H   0  0  0  0  0  0  0  0  0  0  0  0
   64.0966   33.5150   46.6234 H   0  0  0  0  0  0  0  0  0  0  0  0
   61.4943   34.7245   46.1930 H   0  0  0  0  0  0  0  0  0  0  0  0
   59.4422   29.5122   46.2793 H   0  0  0  0  0  0  0  0  0  0  0  0
   57.7151   27.8046   47.6773 H   0  0  0  0  0  0  0  0  0  0  0  0
   58.0522   23.7666   46.3744 H   0  0  0  0  0  0  0  0  0  0  0  0
   57.9454   28.1284   42.9642 H   0  0  0  0  0  0  0  0  0  0  0  0
   58.7797   26.5996   42.5248 H   0  0  0  0  0  0  0  0  0  0  0  0
   56.9850   26.6754   42.5248 H   0  0  0  0  0  0  0  0  0  0  0  0
   55.7082   28.7858   44.2395 H   0  0  0  0  0  0  0  0  0  0  0  0
   55.4482   31.2189   43.8413 H   0  0  0  0  0  0  0  0  0  0  0  0
   57.1631   35.1654   44.7196 H   0  0  0  0  0  0  0  0  0  0  0  0
   57.5698   34.2321   46.2052 H   0  0  0  0  0  0  0  0  0  0  0  0
   59.2111   33.8648   43.6878 H   0  0  0  0  0  0  0  0  0  0  0  0
   59.5030   35.2806   44.7481 H   0  0  0  0  0  0  0  0  0  0  0  0
   61.8458   31.5304   51.0845 H   0  0  0  0  0  0  0  0  0  0  0  0
   60.6527   31.8481   49.7798 H   0  0  0  0  0  0  0  0  0  0  0  0
   61.5981   30.3208   49.7798 H   0  0  0  0  0  0  0  0  0  0  0  0
  1  2  1  0
  2  3  1  0
  3  4  1  0
  4  5  2  0
  5  6  1  0
  6  7  1  0
  7  8  2  0
  8  9  1  0
  9 10  1  0
 10 11  2  0
 10 12  1  0
 12 13  2  0
 13 14  1  0
 14 15  1  0
 15 16  2  0
 16 17  1  0
 17 18  2  0
 18 19  1  0
 19 20  1  0
 19 21  2  0
 21 22  1  0
 14 23  2  0
 23 24  1  0
 24 25  2  0
 25 26  1  0
 26 27  1  0
 27 28  1  0
  6 29  2  0
 29 30  1  0
 29  3  1  0
 11  7  1  0
 25 12  1  0
 28  9  1  0
 21 15  1  0
  1 31  1  0
  1 32  1  0
  1 33  1  0
  2 34  1  0
  2 35  1  0
  4 36  1  0
  5 37  1  0
  8 38  1  0
 13 39  1  0
 16 40  1  0
 18 41  1  0
 22 42  1  0
 22 43  1  0
 22 44  1  0
 23 45  1  0
 24 46  1  0
 27 47  1  0
 27 48  1  0
 28 49  1  0
 28 50  1  0
 30 51  1  0
 30 52  1  0
 30 53  1  0
M  CHG  1   4   1
M  END
>  <UniqueID>  (17) 
16

>  <SMILES>  (17) 
CCn1[nH+]cc(-c2cn3c(n2)-c2cc(-c4cncc(F)c4C)ccc2OCC3)c1C

>  <Energy>  (17) 
133.83109281832733

>  <Genealogy>  (17) 
CCn1[nH+]cc(-c2cn3c(n2)-c2cc(-c4cncc(F)c4C)ccc2OCC3)c1C (protonated)
CCn1[nH+]cc(-c2cn3c(n2)-c2cc(-c4cncc(F)c4C)ccc2OCC3)c1C (3D coordinates assigned)
CCn1[nH+]cc(-c2cn3c(n2)-c2cc(-c4cncc(F)c4C)ccc2OCC3)c1C (nonaromatic ring conformer: 133.83109281832733 kcal/mol)

>  <smiles>  (17) 
CCn1ncc(-c2cn3c(n2)-c2cc(-c4cncc(F)c4C)ccc2OCC3)c1C

>  <score_type>  (17) 
oracle

>  <origin>  (17) 
adg

>  <m_score__min__energy>  (17) 
-5.9299999999999997

>  <m_primary>  (17) 
energy

$$$$
17:0
     RDKit          3D

 39 41  0  0  0  0  0  0  0  0999 V2000
   54.2358   24.3367   45.9222 H   0  0  0  0  0  0  0  0  0  0  0  0
   55.1830   24.8600   45.7250 C   0  0  0  0  0  0  0  0  0  0  0  0
   55.4150   26.1260   45.9840 O   0  0  0  0  0  0  0  0  0  0  0  0
   56.6460   26.4110   45.6210 C   0  0  0  0  0  0  0  0  0  0  0  0
   57.2650   27.7410   45.7580 C   0  0  0  0  0  0  0  0  0  0  0  0
   58.0760   27.9970   46.8230 N   0  0  0  0  0  0  0  0  0  0  0  0
   58.6430   29.2180   46.9470 C   0  0  0  0  0  0  0  0  0  0  0  0
   59.6590   29.7510   48.1430 S   0  0  0  0  0  0  0  0  0  0  0  0
   59.9080   31.2990   47.5840 N   0  0  0  0  0  0  0  0  0  0  0  0
   59.1820   31.4120   46.4320 C   0  0  0  0  0  0  0  0  0  0  0  0
   59.1740   32.5100   45.7380 N   0  0  0  0  0  0  0  0  0  0  0  0
   59.0260   33.8530   46.2970 C   0  0  0  0  0  0  0  0  0  0  0  0
   58.3282   33.8112   47.1463 H   0  0  0  0  0  0  0  0  0  0  0  0
   58.6431   34.5145   45.5060 H   0  0  0  0  0  0  0  0  0  0  0  0
   60.3740   34.4160   46.7850 C   0  0  0  0  0  0  0  0  0  0  0  0
   60.2021   34.9937   47.7051 H   0  0  0  0  0  0  0  0  0  0  0  0
   60.7827   35.0456   45.9809 H   0  0  0  0  0  0  0  0  0  0  0  0
   61.3640   33.3550   47.0700 N   0  0  0  0  0  0  0  0  0  0  0  0
   61.2150   32.5720   46.3900 H   0  0  0  0  0  0  0  0  0  0  0  0
   61.2280   32.9670   48.0340 H   0  0  0  0  0  0  0  0  0  0  0  0
   62.7480   33.8360   46.9170 C   0  0  0  0  0  0  0  0  0  0  0  0
   62.9351   34.6334   47.6512 H   0  0  0  0  0  0  0  0  0  0  0  0
   62.8756   34.2177   45.8933 H   0  0  0  0  0  0  0  0  0  0  0  0
   63.7480   32.7040   47.1430 C   0  0  0  0  0  0  0  0  0  0  0  0
   63.8865   32.5472   48.2229 H   0  0  0  0  0  0  0  0  0  0  0  0
   63.3658   31.7801   46.6844 H   0  0  0  0  0  0  0  0  0  0  0  0
   64.7120   32.9693   46.6844 H   0  0  0  0  0  0  0  0  0  0  0  0
   58.4520   30.2510   46.0460 C   0  0  0  0  0  0  0  0  0  0  0  0
   57.6150   30.0280   44.9240 C   0  0  0  0  0  0  0  0  0  0  0  0
   57.3420   31.0980   43.8870 C   0  0  0  0  0  0  0  0  0  0  0  0
   56.7880   32.2100   44.4970 F   0  0  0  0  0  0  0  0  0  0  0  0
   56.4580   30.6580   42.9170 F   0  0  0  0  0  0  0  0  0  0  0  0
   58.5220   31.4530   43.2580 F   0  0  0  0  0  0  0  0  0  0  0  0
   57.0230   28.7480   44.7970 C   0  0  0  0  0  0  0  0  0  0  0  0
   56.3670   28.5352   43.9401 H   0  0  0  0  0  0  0  0  0  0  0  0
   57.2530   25.2850   45.0990 C   0  0  0  0  0  0  0  0  0  0  0  0
   58.2784   25.2035   44.7092 H   0  0  0  0  0  0  0  0  0  0  0  0
   56.3070   24.2850   45.1680 C   0  0  0  0  0  0  0  0  0  0  0  0
   56.4242   23.2402   44.8446 H   0  0  0  0  0  0  0  0  0  0  0  0
  1  2  1  0
  2  3  1  0
  3  4  1  0
  4  5  1  0
  5  6  2  0
  6  7  1  0
  7  8  1  0
  8  9  1  0
  9 10  1  0
 10 11  2  0
 11 12  1  0
 12 13  1  0
 12 14  1  0
 12 15  1  0
 15 16  1  0
 15 17  1  0
 15 18  1  0
 18 19  1  0
 18 20  1  0
 18 21  1  0
 21 22  1  0
 21 23  1  0
 21 24  1  0
 24 25  1  0
 24 26  1  0
 24 27  1  0
 10 28  1  0
 28 29  1  0
 29 30  1  0
 30 31  1  0
 30 32  1  0
 30 33  1  0
 29 34  2  0
 34 35  1  0
  4 36  2  0
 36 37  1  0
 36 38  1  0
 38 39  1  0
 38  2  2  0
 34  5  1  0
 28  7  2  0
M  CHG  2   9  -1  18   1
M  END
>  <UniqueID>  (18) 
17

>  <SMILES>  (18) 
CC[NH2+]CC/N=c1/[n-]sc2nc(-c3ccco3)cc(C(F)(F)F)c12

>  <Energy>  (18) 
106.42661507014878

>  <Genealogy>  (18) 
CC[NH2+]CCN=c1[n-]sc2nc(-c3ccco3)cc(C(F)(F)F)c12 (protonated)
CC[NH2+]CC/N=c1/[n-]sc2nc(-c3ccco3)cc(C(F)(F)F)c12 (cis-trans isomerization)
CC[NH2+]CC/N=c1/[n-]sc2nc(-c3ccco3)cc(C(F)(F)F)c12 (3D coordinates assigned)
CC[NH2+]CC/N=c1/[n-]sc2nc(-c3ccco3)cc(C(F)(F)F)c12 (optimized conformer: 106.42661507014878 kcal/mol)

>  <smiles>  (18) 
CCNCCN=c1[nH]sc2nc(-c3ccco3)cc(C(F)(F)F)c12

>  <score_type>  (18) 
oracle

>  <origin>  (18) 
adg

>  <m_score__min__energy>  (18) 
-5.9699999999999998

>  <m_primary>  (18) 
energy

$$$$
18:0
     RDKit          3D

 36 38  0  0  0  0  0  0  0  0999 V2000
   58.0928   33.9385   42.9696 H   0  0  0  0  0  0  0  0  0  0  0  0
   58.1750   33.4690   43.9610 C   0  0  0  0  0  0  0  0  0  0  0  0
   57.8440   32.1210   44.1220 C   0  0  0  0  0  0  0  0  0  0  0  0
   57.4350   31.3980   43.0490 F   0  0  0  0  0  0  0  0  0  0  0  0
   57.9280   31.5200   45.3840 C   0  0  0  0  0  0  0  0  0  0  0  0
   57.6450   30.1180   45.5160 N   0  0  0  0  0  0  0  0  0  0  0  0
   58.5000   29.1350   45.6300 C   0  0  0  0  0  0  0  0  0  0  0  0
   59.8910   29.3560   45.6420 C   0  0  0  0  0  0  0  0  0  0  0  0
   60.2857   30.3782   45.5455 H   0  0  0  0  0  0  0  0  0  0  0  0
   60.7680   28.2810   45.7760 C   0  0  0  0  0  0  0  0  0  0  0  0
   61.8535   28.4589   45.7748 H   0  0  0  0  0  0  0  0  0  0  0  0
   60.2930   27.0160   45.9080 N   0  0  0  0  0  0  0  0  0  0  0  0
   60.9820   26.2350   46.0070 H   0  0  0  0  0  0  0  0  0  0  0  0
   58.9550   26.7540   45.9250 C   0  0  0  0  0  0  0  0  0  0  0  0
   58.4980   25.4370   46.0760 C   0  0  0  0  0  0  0  0  0  0  0  0
   59.2228   24.6161   46.1795 H   0  0  0  0  0  0  0  0  0  0  0  0
   57.1300   25.1600   46.0960 C   0  0  0  0  0  0  0  0  0  0  0  0
   56.7836   24.1227   46.2149 H   0  0  0  0  0  0  0  0  0  0  0  0
   56.1920   26.2000   45.9650 C   0  0  0  0  0  0  0  0  0  0  0  0
   54.8080   25.9690   45.9800 O   0  0  0  0  0  0  0  0  0  0  0  0
   54.1940   24.7370   45.6180 C   0  0  0  0  0  0  0  0  0  0  0  0
   53.9182   24.1836   46.5277 H   0  0  0  0  0  0  0  0  0  0  0  0
   53.2908   24.9383   45.0232 H   0  0  0  0  0  0  0  0  0  0  0  0
   54.8985   24.1370   45.0232 H   0  0  0  0  0  0  0  0  0  0  0  0
   56.6430   27.5150   45.8140 C   0  0  0  0  0  0  0  0  0  0  0  0
   55.9116   28.3301   45.7108 H   0  0  0  0  0  0  0  0  0  0  0  0
   58.0220   27.8120   45.7920 C   0  0  0  0  0  0  0  0  0  0  0  0
   58.4000   32.2690   46.4760 C   0  0  0  0  0  0  0  0  0  0  0  0
   58.5212   31.7873   47.4575 H   0  0  0  0  0  0  0  0  0  0  0  0
   58.7180   33.6290   46.3220 C   0  0  0  0  0  0  0  0  0  0  0  0
   59.2350   34.4220   47.4890 C   0  0  0  0  0  0  0  0  0  0  0  0
   58.9213   33.9408   48.4271 H   0  0  0  0  0  0  0  0  0  0  0  0
   60.3335   34.4623   47.4471 H   0  0  0  0  0  0  0  0  0  0  0  0
   58.8287   35.4434   47.4471 H   0  0  0  0  0  0  0  0  0  0  0  0
   58.6100   34.2230   45.0540 C   0  0  0  0  0  0  0  0  0  0  0  0
   58.9400   35.5270   44.8730 F   0  0  0  0  0  0  0  0  0  0  0  0
  1  2  1  0
  2  3  2  0
  3  4  1  0
  3  5  1  0
  5  6  1  0
  6  7  2  0
  7  8  1  0
  8  9  1  0
  8 10  2  0
 10 11  1  0
 10 12  1  0
 12 13  1  0
 12 14  1  0
 14 15  2  0
 15 16  1  0
 15 17  1  0
 17 18  1  0
 17 19  2  0
 19 20  1  0
 20 21  1  0
 21 22  1  0
 21 23  1  0
 21 24  1  0
 19 25  1  0
 25 26  1  0
 25 27  2  0
  5 28  2  0
 28 29  1  0
 28 30  1  0
 30 31  1  0
 31 32  1  0
 31 33  1  0
 31 34  1  0
 30 35  2  0
 35 36  1  0
 35  2  1  0
 27  7  1  0
 27 14  1  0
M  END
>  <UniqueID>  (19) 
18

>  <SMILES>  (19) 
COc1ccc2[nH]cc/c(=N\c3cc(C)c(F)cc3F)c2c1

>  <Energy>  (19) 
52.20585108234321

>  <Genealogy>  (19) 
COc1ccc2[nH]cc/c(=N\c3cc(C)c(F)cc3F)c2c1 (cis-trans isomerization)
COc1ccc2[nH]cc/c(=N\c3cc(C)c(F)cc3F)c2c1 (3D coordinates assigned)
COc1ccc2[nH]cc/c(=N\c3cc(C)c(F)cc3F)c2c1 (optimized conformer: 52.20585108234321 kcal/mol)

>  <smiles>  (19) 
COc1ccc2[nH]ccc(=Nc3cc(C)c(F)cc3F)c2c1

>  <score_type>  (19) 
oracle

>  <origin>  (19) 
adg

>  <m_score__min__energy>  (19) 
-7.1600000000000001

>  <m_primary>  (19) 
energy

$$$$
19:0
     RDKit          3D

 42 43  0  0  0  0  0  0  0  0999 V2000
   56.6350   29.3190   42.6740 C   0  0  0  0  0  0  0  0  0  0  0  0
   57.5050   30.3080   43.3000 N   0  0  0  0  0  0  0  0  0  0  0  0
   57.0390   31.1530   44.3630 C   0  0  0  0  0  0  0  0  0  0  0  0
   55.8990   30.9490   44.8640 O   0  0  0  0  0  0  0  0  0  0  0  0
   57.8820   32.2500   44.8990 C   0  0  0  0  0  0  0  0  0  0  0  0
   58.1620   33.3920   44.1280 C   0  0  0  0  0  0  0  0  0  0  0  0
   58.9510   34.4190   44.6490 C   0  0  0  0  0  0  0  0  0  0  0  0
   59.4650   34.3260   45.9440 C   0  0  0  0  0  0  0  0  0  0  0  0
   59.1880   33.1990   46.7380 C   0  0  0  0  0  0  0  0  0  0  0  0
   59.6980   33.0720   48.0800 N   0  0  0  0  0  0  0  0  0  0  0  0
   59.7850   31.7940   48.7900 C   0  0  0  0  0  0  0  0  0  0  0  0
   59.0820   31.8770   50.1220 C   0  0  0  0  0  0  0  0  0  0  0  0
   58.1570   30.8850   50.4830 C   0  0  0  0  0  0  0  0  0  0  0  0
   57.4700   30.9510   51.6980 C   0  0  0  0  0  0  0  0  0  0  0  0
   56.5640   29.9250   52.0080 O   0  0  0  0  0  0  0  0  0  0  0  0
   56.6910   29.0500   53.1240 C   0  0  0  0  0  0  0  0  0  0  0  0
   57.7050   32.0340   52.5620 C   0  0  0  0  0  0  0  0  0  0  0  0
   58.6110   33.0360   52.2050 C   0  0  0  0  0  0  0  0  0  0  0  0
   59.3020   32.9730   50.9820 C   0  0  0  0  0  0  0  0  0  0  0  0
   60.2060   33.9750   50.5880 O   0  0  0  0  0  0  0  0  0  0  0  0
   61.6220   33.8310   50.5890 C   0  0  0  0  0  0  0  0  0  0  0  0
   58.3930   32.1700   46.2070 C   0  0  0  0  0  0  0  0  0  0  0  0
   56.1222   28.7361   43.4533 H   0  0  0  0  0  0  0  0  0  0  0  0
   55.8889   29.8307   42.0483 H   0  0  0  0  0  0  0  0  0  0  0  0
   57.2376   28.6442   42.0483 H   0  0  0  0  0  0  0  0  0  0  0  0
   58.5000   30.3540   42.9870 H   0  0  0  0  0  0  0  0  0  0  0  0
   57.7571   33.4766   43.1087 H   0  0  0  0  0  0  0  0  0  0  0  0
   59.1690   35.3061   44.0362 H   0  0  0  0  0  0  0  0  0  0  0  0
   60.0894   35.1380   46.3448 H   0  0  0  0  0  0  0  0  0  0  0  0
   60.0260   33.9390   48.5650 H   0  0  0  0  0  0  0  0  0  0  0  0
   59.3131   31.0092   48.1806 H   0  0  0  0  0  0  0  0  0  0  0  0
   60.8450   31.5562   48.9630 H   0  0  0  0  0  0  0  0  0  0  0  0
   57.9702   30.0435   49.7996 H   0  0  0  0  0  0  0  0  0  0  0  0
   56.6069   29.6291   54.0554 H   0  0  0  0  0  0  0  0  0  0  0  0
   55.8933   28.2934   53.0894 H   0  0  0  0  0  0  0  0  0  0  0  0
   57.6709   28.5514   53.0894 H   0  0  0  0  0  0  0  0  0  0  0  0
   57.1736   32.0932   53.5233 H   0  0  0  0  0  0  0  0  0  0  0  0
   58.7852   33.8815   52.8867 H   0  0  0  0  0  0  0  0  0  0  0  0
   61.9861   33.7940   51.6263 H   0  0  0  0  0  0  0  0  0  0  0  0
   61.8963   32.9003   50.0707 H   0  0  0  0  0  0  0  0  0  0  0  0
   62.0780   34.6874   50.0707 H   0  0  0  0  0  0  0  0  0  0  0  0
   58.1665   31.2878   46.8237 H   0  0  0  0  0  0  0  0  0  0  0  0
  1  2  1  0
  2  3  1  0
  3  4  2  0
  3  5  1  0
  5  6  2  0
  6  7  1  0
  7  8  2  0
  8  9  1  0
  9 10  1  0
 10 11  1  0
 11 12  1  0
 12 13  2  0
 13 14  1  0
 14 15  1  0
 15 16  1  0
 14 17  2  0
 17 18  1  0
 18 19  2  0
 19 20  1  0
 20 21  1  0
  9 22  2  0
 22  5  1  0
 19 12  1  0
  1 23  1  0
  1 24  1  0
  1 25  1  0
  2 26  1  0
  6 27  1  0
  7 28  1  0
  8 29  1  0
 10 30  1  0
 11 31  1  0
 11 32  1  0
 13 33  1  0
 16 34  1  0
 16 35  1  0
 16 36  1  0
 17 37  1  0
 18 38  1  0
 21 39  1  0
 21 40  1  0
 21 41  1  0
 22 42  1  0
M  END
>  <UniqueID>  (20) 
19

>  <SMILES>  (20) 
CNC(=O)c1cccc(NCc2cc(OC)ccc2OC)c1

>  <Energy>  (20) 
40.38928204336001

>  <Genealogy>  (20) 
CNC(=O)c1cccc(NCc2cc(OC)ccc2OC)c1 (3D coordinates assigned)
CNC(=O)c1cccc(NCc2cc(OC)ccc2OC)c1 (optimized conformer: 40.38928204336001 kcal/mol)

>  <smiles>  (20) 
CNC(=O)c1cccc(NCc2cc(OC)ccc2OC)c1

>  <score_type>  (20) 
oracle

>  <origin>  (20) 
adg

>  <m_score__min__energy>  (20) 
-6.5999999999999996

>  <m_primary>  (20) 
energy

$$$$
20:0
     RDKit          3D

 45 47  0  0  0  0  0  0  0  0999 V2000
   57.7450   32.0330   42.6490 C   0  0  0  0  0  0  0  0  0  0  0  0
   57.5550   31.3310   43.9280 N   0  0  0  0  0  0  0  0  0  0  0  0
   57.0730   32.2350   45.0040 C   0  0  0  0  0  0  0  0  0  0  0  0
   58.1140   33.2220   45.4930 C   0  0  0  0  0  0  0  0  0  0  0  0
   58.2800   34.4580   44.8540 C   0  0  0  0  0  0  0  0  0  0  0  0
   59.2200   35.3330   45.2920 N   0  0  0  0  0  0  0  0  0  0  0  0
   60.0160   35.0570   46.3570 C   0  0  0  0  0  0  0  0  0  0  0  0
   59.8780   33.8450   47.0530 C   0  0  0  0  0  0  0  0  0  0  0  0
   60.7910   33.5170   48.2270 C   0  0  0  0  0  0  0  0  0  0  0  0
   62.2200   33.9110   48.0960 N   0  0  0  0  0  0  0  0  0  0  0  0
   63.1960   32.9370   48.6040 C   0  0  0  0  0  0  0  0  0  0  0  0
   63.7740   32.6810   47.2250 C   0  0  0  0  0  0  0  0  0  0  0  0
   62.7830   33.7290   46.7520 C   0  0  0  0  0  0  0  0  0  0  0  0
   58.9480   32.9090   46.5750 C   0  0  0  0  0  0  0  0  0  0  0  0
   58.7650   30.5610   44.2900 C   0  0  0  0  0  0  0  0  0  0  0  0
   58.4540   29.4520   45.2760 C   0  0  0  0  0  0  0  0  0  0  0  0
   57.3180   28.6470   45.0630 C   0  0  0  0  0  0  0  0  0  0  0  0
   57.0130   27.6000   45.9350 C   0  0  0  0  0  0  0  0  0  0  0  0
   55.9070   26.8440   45.7260 F   0  0  0  0  0  0  0  0  0  0  0  0
   57.8480   27.3260   47.0200 C   0  0  0  0  0  0  0  0  0  0  0  0
   58.9970   28.0910   47.2280 C   0  0  0  0  0  0  0  0  0  0  0  0
   59.3150   29.1440   46.3590 C   0  0  0  0  0  0  0  0  0  0  0  0
   60.5360   29.8800   46.5950 C   0  0  0  0  0  0  0  0  0  0  0  0
   61.5130   30.4700   46.7830 N   0  0  0  0  0  0  0  0  0  0  0  0
   58.0279   33.0782   42.8429 H   0  0  0  0  0  0  0  0  0  0  0  0
   58.5415   31.5382   42.0739 H   0  0  0  0  0  0  0  0  0  0  0  0
   56.8076   32.0075   42.0739 H   0  0  0  0  0  0  0  0  0  0  0  0
   56.2125   32.8021   44.6195 H   0  0  0  0  0  0  0  0  0  0  0  0
   56.8116   31.5976   45.8615 H   0  0  0  0  0  0  0  0  0  0  0  0
   57.6459   34.7199   43.9941 H   0  0  0  0  0  0  0  0  0  0  0  0
   60.7738   35.7875   46.6766 H   0  0  0  0  0  0  0  0  0  0  0  0
   60.3861   34.0240   49.1153 H   0  0  0  0  0  0  0  0  0  0  0  0
   60.7995   32.4187   48.2870 H   0  0  0  0  0  0  0  0  0  0  0  0
   63.9208   33.3707   49.3086 H   0  0  0  0  0  0  0  0  0  0  0  0
   62.8345   32.0824   49.1948 H   0  0  0  0  0  0  0  0  0  0  0  0
   64.8333   32.9519   47.1049 H   0  0  0  0  0  0  0  0  0  0  0  0
   63.8384   31.6765   46.7814 H   0  0  0  0  0  0  0  0  0  0  0  0
   63.2618   34.6349   46.3518 H   0  0  0  0  0  0  0  0  0  0  0  0
   62.1051   33.4817   45.9218 H   0  0  0  0  0  0  0  0  0  0  0  0
   58.8730   31.9214   47.0536 H   0  0  0  0  0  0  0  0  0  0  0  0
   59.1905   30.1172   43.3779 H   0  0  0  0  0  0  0  0  0  0  0  0
   59.4787   31.2501   44.7652 H   0  0  0  0  0  0  0  0  0  0  0  0
   56.6643   28.8452   44.2008 H   0  0  0  0  0  0  0  0  0  0  0  0
   57.6003   26.5069   47.7112 H   0  0  0  0  0  0  0  0  0  0  0  0
   59.6568   27.8662   48.0789 H   0  0  0  0  0  0  0  0  0  0  0  0
  1  2  1  0
  2  3  1  0
  3  4  1  0
  4  5  2  0
  5  6  1  0
  6  7  2  0
  7  8  1  0
  8  9  1  0
  9 10  1  0
 10 11  1  0
 11 12  1  0
 12 13  1  0
  8 14  2  0
  2 15  1  0
 15 16  1  0
 16 17  2  0
 17 18  1  0
 18 19  1  0
 18 20  2  0
 20 21  1  0
 21 22  2  0
 22 23  1  0
 23 24  3  0
 14  4  1  0
 22 16  1  0
 13 10  1  0
  1 25  1  0
  1 26  1  0
  1 27  1  0
  3 28  1  0
  3 29  1  0
  5 30  1  0
  7 31  1  0
  9 32  1  0
  9 33  1  0
 11 34  1  0
 11 35  1  0
 12 36  1  0
 12 37  1  0
 13 38  1  0
 13 39  1  0
 14 40  1  0
 15 41  1  0
 15 42  1  0
 17 43  1  0
 20 44  1  0
 21 45  1  0
M  END
>  <UniqueID>  (21) 
20

>  <SMILES>  (21) 
CN(Cc1cncc(CN2CCC2)c1)Cc1cc(F)ccc1C#N

>  <Energy>  (21) 
126.0787749657914

>  <Genealogy>  (21) 
CN(Cc1cncc(CN2CCC2)c1)Cc1cc(F)ccc1C#N (3D coordinates assigned)
CN(Cc1cncc(CN2CCC2)c1)Cc1cc(F)ccc1C#N (nonaromatic ring conformer: 126.0787749657914 kcal/mol)

>  <smiles>  (21) 
CN(Cc1cncc(CN2CCC2)c1)Cc1cc(F)ccc1C#N

>  <score_type>  (21) 
oracle

>  <origin>  (21) 
adg

>  <m_score__min__energy>  (21) 
-7.4900000000000002

>  <m_primary>  (21) 
energy

$$$$
21:0
     RDKit          3D

 61 64  0  0  0  0  0  0  0  0999 V2000
   63.9760   34.3840   51.2610 C   0  0  0  0  0  0  0  0  0  0  0  0
   63.3930   33.4970   50.2020 C   0  0  0  0  0  0  0  0  0  0  0  0
   63.4020   33.9050   48.8490 C   0  0  0  0  0  0  0  0  0  0  0  0
   62.8180   33.0870   47.8640 C   0  0  0  0  0  0  0  0  0  0  0  0
   62.8090   33.4990   46.4210 C   0  0  0  0  0  0  0  0  0  0  0  0
   62.2440   31.9190   48.2670 N   0  0  0  0  0  0  0  0  0  0  0  0
   61.6060   30.9710   47.5630 C   0  0  0  0  0  0  0  0  0  0  0  0
   61.2010   30.0010   48.4650 C   0  0  0  0  0  0  0  0  0  0  0  0
   60.3900   28.7860   48.1340 C   0  0  0  0  0  0  0  0  0  0  0  0
   59.6830   28.9650   46.8490 N   0  0  0  0  0  0  0  0  0  0  0  0
   60.5690   28.6830   45.6850 C   0  0  0  0  0  0  0  0  0  0  0  0
   59.8700   28.7440   44.3110 C   0  0  0  0  0  0  0  0  0  0  0  0
   58.5760   27.9000   44.2350 C   0  0  0  0  0  0  0  0  0  0  0  0
   57.3760   28.7050   44.5630 N   0  0  0  0  0  0  0  0  0  0  0  0
   57.3470   29.9680   43.7980 C   0  0  0  0  0  0  0  0  0  0  0  0
   57.4710   31.1390   44.7270 C   0  0  0  0  0  0  0  0  0  0  0  0
   56.4780   31.8980   44.8920 O   0  0  0  0  0  0  0  0  0  0  0  0
   58.7250   31.4230   45.3700 N   0  0  0  0  0  0  0  0  0  0  0  0
   58.8940   32.4100   46.4020 C   0  0  0  0  0  0  0  0  0  0  0  0
   59.3260   33.6980   46.0550 C   0  0  0  0  0  0  0  0  0  0  0  0
   59.5300   34.6650   47.0410 C   0  0  0  0  0  0  0  0  0  0  0  0
   59.3110   34.3560   48.3840 C   0  0  0  0  0  0  0  0  0  0  0  0
   58.8750   33.0720   48.7560 C   0  0  0  0  0  0  0  0  0  0  0  0
   58.7000   32.7080   50.2090 C   0  0  0  0  0  0  0  0  0  0  0  0
   59.0480   33.7780   51.0170 F   0  0  0  0  0  0  0  0  0  0  0  0
   59.4970   31.6300   50.5510 F   0  0  0  0  0  0  0  0  0  0  0  0
   57.3770   32.3810   50.4400 F   0  0  0  0  0  0  0  0  0  0  0  0
   58.6970   32.0960   47.7590 C   0  0  0  0  0  0  0  0  0  0  0  0
   57.2780   28.9860   46.0110 C   0  0  0  0  0  0  0  0  0  0  0  0
   58.3680   28.2810   46.8500 C   0  0  0  0  0  0  0  0  0  0  0  0
   61.5670   30.3410   49.7240 N   0  0  0  0  0  0  0  0  0  0  0  0
   62.2070   31.5150   49.5490 C   0  0  0  0  0  0  0  0  0  0  0  0
   62.7710   32.2870   50.5620 C   0  0  0  0  0  0  0  0  0  0  0  0
   63.7162   33.9888   52.2541 H   0  0  0  0  0  0  0  0  0  0  0  0
   65.0703   34.4137   51.1529 H   0  0  0  0  0  0  0  0  0  0  0  0
   63.5692   35.4003   51.1529 H   0  0  0  0  0  0  0  0  0  0  0  0
   63.8653   34.8616   48.5659 H   0  0  0  0  0  0  0  0  0  0  0  0
   62.7850   34.5966   46.3532 H   0  0  0  0  0  0  0  0  0  0  0  0
   63.7156   33.1208   45.9260 H   0  0  0  0  0  0  0  0  0  0  0  0
   61.9198   33.0816   45.9260 H   0  0  0  0  0  0  0  0  0  0  0  0
   61.4369   30.9654   46.4761 H   0  0  0  0  0  0  0  0  0  0  0  0
   61.0578   27.9150   48.0606 H   0  0  0  0  0  0  0  0  0  0  0  0
   59.6457   28.6300   48.9288 H   0  0  0  0  0  0  0  0  0  0  0  0
   61.3836   29.4222   45.6878 H   0  0  0  0  0  0  0  0  0  0  0  0
   60.9219   27.6484   45.8076 H   0  0  0  0  0  0  0  0  0  0  0  0
   59.6142   29.7923   44.0975 H   0  0  0  0  0  0  0  0  0  0  0  0
   60.5712   28.3253   43.5741 H   0  0  0  0  0  0  0  0  0  0  0  0
   58.4699   27.5013   43.2153 H   0  0  0  0  0  0  0  0  0  0  0  0
   58.6541   27.0859   44.9707 H   0  0  0  0  0  0  0  0  0  0  0  0
   58.1841   29.9800   43.0845 H   0  0  0  0  0  0  0  0  0  0  0  0
   56.3917   30.0383   43.2572 H   0  0  0  0  0  0  0  0  0  0  0  0
   59.5820   30.9510   45.0010 H   0  0  0  0  0  0  0  0  0  0  0  0
   59.5053   33.9482   44.9989 H   0  0  0  0  0  0  0  0  0  0  0  0
   59.8645   35.6740   46.7582 H   0  0  0  0  0  0  0  0  0  0  0  0
   59.4804   35.1211   49.1560 H   0  0  0  0  0  0  0  0  0  0  0  0
   58.4004   31.0757   48.0436 H   0  0  0  0  0  0  0  0  0  0  0  0
   57.3699   30.0717   46.1622 H   0  0  0  0  0  0  0  0  0  0  0  0
   56.3063   28.5987   46.3512 H   0  0  0  0  0  0  0  0  0  0  0  0
   58.0142   28.2182   47.8897 H   0  0  0  0  0  0  0  0  0  0  0  0
   58.5280   27.2949   46.3897 H   0  0  0  0  0  0  0  0  0  0  0  0
   62.7314   31.9607   51.6117 H   0  0  0  0  0  0  0  0  0  0  0  0
  1  2  1  0
  2  3  1  0
  3  4  2  0
  4  5  1  0
  4  6  1  0
  6  7  1  0
  7  8  2  0
  8  9  1  0
  9 10  1  0
 10 11  1  0
 11 12  1  0
 12 13  1  0
 13 14  1  0
 14 15  1  0
 15 16  1  0
 16 17  2  0
 16 18  1  0
 18 19  1  0
 19 20  2  0
 20 21  1  0
 21 22  2  0
 22 23  1  0
 23 24  1  0
 24 25  1  0
 24 26  1  0
 24 27  1  0
 23 28  2  0
 14 29  1  0
 29 30  1  0
  8 31  1  0
 31 32  2  0
 32 33  1  0
 33  2  2  0
 32  6  1  0
 30 10  1  0
 28 19  1  0
  1 34  1  0
  1 35  1  0
  1 36  1  0
  3 37  1  0
  5 38  1  0
  5 39  1  0
  5 40  1  0
  7 41  1  0
  9 42  1  0
  9 43  1  0
 11 44  1  0
 11 45  1  0
 12 46  1  0
 12 47  1  0
 13 48  1  0
 13 49  1  0
 15 50  1  0
 15 51  1  0
 18 52  1  0
 20 53  1  0
 21 54  1  0
 22 55  1  0
 28 56  1  0
 29 57  1  0
 29 58  1  0
 30 59  1  0
 30 60  1  0
 33 61  1  0
M  END
>  <UniqueID>  (22) 
21

>  <SMILES>  (22) 
Cc1cc(C)n2cc(CN3CCCN(CC(=O)Nc4cccc(C(F)(F)F)c4)CC3)nc2c1

>  <Energy>  (22) 
115.9101512918374

>  <Genealogy>  (22) 
Cc1cc(C)n2cc(CN3CCCN(CC(=O)Nc4cccc(C(F)(F)F)c4)CC3)nc2c1 (3D coordinates assigned)
Cc1cc(C)n2cc(CN3CCCN(CC(=O)Nc4cccc(C(F)(F)F)c4)CC3)nc2c1 (nonaromatic ring conformer: 115.9101512918374 kcal/mol)

>  <smiles>  (22) 
Cc1cc(C)n2cc(CN3CCCN(CC(=O)Nc4cccc(C(F)(F)F)c4)CC3)nc2c1

>  <score_type>  (22) 
oracle

>  <origin>  (22) 
adg

>  <m_score__min__energy>  (22) 
-6.5199999999999996

>  <m_primary>  (22) 
energy

$$$$
22:0
     RDKit          3D

 37 38  0  0  0  0  0  0  0  0999 V2000
   60.0300   34.2390   48.6840 C   0  0  0  0  0  0  0  0  0  0  0  0
   59.6160   34.6810   47.3950 O   0  0  0  0  0  0  0  0  0  0  0  0
   58.9970   33.8620   46.4400 C   0  0  0  0  0  0  0  0  0  0  0  0
   58.6090   34.3390   45.1720 C   0  0  0  0  0  0  0  0  0  0  0  0
   57.9890   33.4830   44.2580 C   0  0  0  0  0  0  0  0  0  0  0  0
   57.7520   32.1410   44.5910 C   0  0  0  0  0  0  0  0  0  0  0  0
   57.0220   31.2360   43.6370 C   0  0  0  0  0  0  0  0  0  0  0  0
   57.5470   29.8770   43.7440 N   0  0  0  0  0  0  0  0  0  0  0  0
   56.8580   28.8380   44.4550 C   0  0  0  0  0  0  0  0  0  0  0  0
   55.6850   29.0260   44.8780 O   0  0  0  0  0  0  0  0  0  0  0  0
   57.5190   27.5120   44.6830 C   0  0  0  0  0  0  0  0  0  0  0  0
   57.2980   27.0330   46.0490 N   0  0  0  0  0  0  0  0  0  0  0  0
   56.1690   25.7070   46.0890 S   0  0  0  0  0  0  0  0  0  0  0  0
   56.0840   25.1580   47.4860 O   0  0  0  0  0  0  0  0  0  0  0  0
   54.8100   26.2100   45.6930 O   0  0  0  0  0  0  0  0  0  0  0  0
   56.6390   24.4280   44.9820 C   0  0  0  0  0  0  0  0  0  0  0  0
   55.9980   24.1030   43.7970 C   0  0  0  0  0  0  0  0  0  0  0  0
   56.5830   23.0130   43.1440 C   0  0  0  0  0  0  0  0  0  0  0  0
   57.6800   22.4840   43.8130 C   0  0  0  0  0  0  0  0  0  0  0  0
   57.9210   23.3710   45.2240 S   0  0  0  0  0  0  0  0  0  0  0  0
   58.1330   31.6690   45.8560 C   0  0  0  0  0  0  0  0  0  0  0  0
   58.7560   32.5240   46.7700 C   0  0  0  0  0  0  0  0  0  0  0  0
   59.4949   34.8103   49.4569 H   0  0  0  0  0  0  0  0  0  0  0  0
   59.8019   33.1687   48.7954 H   0  0  0  0  0  0  0  0  0  0  0  0
   61.1129   34.3966   48.7954 H   0  0  0  0  0  0  0  0  0  0  0  0
   58.7948   35.3887   44.9008 H   0  0  0  0  0  0  0  0  0  0  0  0
   57.6850   33.8636   43.2717 H   0  0  0  0  0  0  0  0  0  0  0  0
   55.9500   31.2338   43.8837 H   0  0  0  0  0  0  0  0  0  0  0  0
   57.1651   31.6007   42.6091 H   0  0  0  0  0  0  0  0  0  0  0  0
   58.5020   29.6880   43.3640 H   0  0  0  0  0  0  0  0  0  0  0  0
   57.1045   26.7790   43.9752 H   0  0  0  0  0  0  0  0  0  0  0  0
   58.6014   27.6337   44.5296 H   0  0  0  0  0  0  0  0  0  0  0  0
   55.1220   24.6448   43.4109 H   0  0  0  0  0  0  0  0  0  0  0  0
   56.2095   22.6121   42.1901 H   0  0  0  0  0  0  0  0  0  0  0  0
   58.2878   21.6307   43.4778 H   0  0  0  0  0  0  0  0  0  0  0  0
   57.9406   30.6212   46.1300 H   0  0  0  0  0  0  0  0  0  0  0  0
   59.0590   32.1418   47.7560 H   0  0  0  0  0  0  0  0  0  0  0  0
  1  2  1  0
  2  3  1  0
  3  4  2  0
  4  5  1  0
  5  6  2  0
  6  7  1  0
  7  8  1  0
  8  9  1  0
  9 10  2  0
  9 11  1  0
 11 12  1  0
 12 13  1  0
 13 14  2  0
 13 15  2  0
 13 16  1  0
 16 17  2  0
 17 18  1  0
 18 19  2  0
 19 20  1  0
  6 21  1  0
 21 22  2  0
 22  3  1  0
 20 16  1  0
  1 23  1  0
  1 24  1  0
  1 25  1  0
  4 26  1  0
  5 27  1  0
  7 28  1  0
  7 29  1  0
  8 30  1  0
 11 31  1  0
 11 32  1  0
 17 33  1  0
 18 34  1  0
 19 35  1  0
 21 36  1  0
 22 37  1  0
M  CHG  1  12  -1
M  END
>  <UniqueID>  (23) 
22

>  <SMILES>  (23) 
COc1ccc(CNC(=O)C[N-]S(=O)(=O)c2cccs2)cc1

>  <Energy>  (23) 
55.777806303850085

>  <Genealogy>  (23) 
COc1ccc(CNC(=O)C[N-]S(=O)(=O)c2cccs2)cc1 (protonated)
COc1ccc(CNC(=O)C[N-]S(=O)(=O)c2cccs2)cc1 (3D coordinates assigned)
COc1ccc(CNC(=O)C[N-]S(=O)(=O)c2cccs2)cc1 (optimized conformer: 55.777806303850085 kcal/mol)

>  <smiles>  (23) 
COc1ccc(CNC(=O)CNS(=O)(=O)c2cccs2)cc1

>  <score_type>  (23) 
oracle

>  <origin>  (23) 
adg

>  <m_score__min__energy>  (23) 
-9.5800000000000001

>  <m_primary>  (23) 
energy

$$$$
23:0
     RDKit          3D

 38 41  0  0  0  0  0  0  0  0999 V2000
   56.9790   30.7000   44.8670 O   0  0  0  0  0  0  0  0  0  0  0  0
   57.7810   30.3630   45.7820 C   0  0  0  0  0  0  0  0  0  0  0  0
   58.1120   31.2520   46.8130 O   0  0  0  0  0  0  0  0  0  0  0  0
   58.8590   32.4310   46.6610 C   0  0  0  0  0  0  0  0  0  0  0  0
   58.2570   33.6340   46.2480 C   0  0  0  0  0  0  0  0  0  0  0  0
   59.0180   34.7940   46.0910 C   0  0  0  0  0  0  0  0  0  0  0  0
   60.3920   34.7720   46.3310 C   0  0  0  0  0  0  0  0  0  0  0  0
   61.0160   33.5810   46.7240 C   0  0  0  0  0  0  0  0  0  0  0  0
   62.3960   33.5390   46.9580 C   0  0  0  0  0  0  0  0  0  0  0  0
   62.9980   32.3430   47.3460 C   0  0  0  0  0  0  0  0  0  0  0  0
   62.2170   31.1970   47.4970 C   0  0  0  0  0  0  0  0  0  0  0  0
   60.8760   31.2430   47.2690 N   0  0  0  0  0  0  0  0  0  0  0  0
   60.2520   32.3990   46.8870 C   0  0  0  0  0  0  0  0  0  0  0  0
   58.3300   29.0040   45.8080 C   0  0  0  0  0  0  0  0  0  0  0  0
   57.7090   27.8660   45.3330 C   0  0  0  0  0  0  0  0  0  0  0  0
   58.6020   26.8320   45.5640 C   0  0  0  0  0  0  0  0  0  0  0  0
   58.4120   25.3960   45.2320 C   0  0  0  0  0  0  0  0  0  0  0  0
   59.2680   24.4160   45.7700 C   0  0  0  0  0  0  0  0  0  0  0  0
   59.0880   23.0660   45.4550 C   0  0  0  0  0  0  0  0  0  0  0  0
   58.0550   22.6760   44.6020 C   0  0  0  0  0  0  0  0  0  0  0  0
   57.1970   23.6370   44.0610 C   0  0  0  0  0  0  0  0  0  0  0  0
   55.8950   23.1430   42.9920 Cl  0  0  0  0  0  0  0  0  0  0  0  0
   57.3730   24.9890   44.3720 C   0  0  0  0  0  0  0  0  0  0  0  0
   59.7070   27.4140   46.1680 C   0  0  0  0  0  0  0  0  0  0  0  0
   59.5100   28.7060   46.2970 O   0  0  0  0  0  0  0  0  0  0  0  0
   57.1759   33.6607   46.0468 H   0  0  0  0  0  0  0  0  0  0  0  0
   58.5320   35.7294   45.7767 H   0  0  0  0  0  0  0  0  0  0  0  0
   60.9857   35.6903   46.2116 H   0  0  0  0  0  0  0  0  0  0  0  0
   63.0037   34.4477   46.8359 H   0  0  0  0  0  0  0  0  0  0  0  0
   64.0815   32.3032   47.5318 H   0  0  0  0  0  0  0  0  0  0  0  0
   62.6877   30.2508   47.8021 H   0  0  0  0  0  0  0  0  0  0  0  0
   60.3310   30.3610   47.3960 H   0  0  0  0  0  0  0  0  0  0  0  0
   56.7143   27.7951   44.8687 H   0  0  0  0  0  0  0  0  0  0  0  0
   60.0847   24.7150   46.4434 H   0  0  0  0  0  0  0  0  0  0  0  0
   59.7628   22.3089   45.8809 H   0  0  0  0  0  0  0  0  0  0  0  0
   57.9162   21.6130   44.3556 H   0  0  0  0  0  0  0  0  0  0  0  0
   56.6948   25.7406   43.9417 H   0  0  0  0  0  0  0  0  0  0  0  0
   60.6105   26.8754   46.4898 H   0  0  0  0  0  0  0  0  0  0  0  0
  1  2  2  0
  2  3  1  0
  3  4  1  0
  4  5  2  0
  5  6  1  0
  6  7  2  0
  7  8  1  0
  8  9  2  0
  9 10  1  0
 10 11  2  0
 11 12  1  0
 12 13  2  0
  2 14  1  0
 14 15  2  0
 15 16  1  0
 16 17  1  0
 17 18  2  0
 18 19  1  0
 19 20  2  0
 20 21  1  0
 21 22  1  0
 21 23  2  0
 16 24  2  0
 24 25  1  0
 13  4  1  0
 25 14  1  0
 13  8  1  0
 23 17  1  0
  5 26  1  0
  6 27  1  0
  7 28  1  0
  9 29  1  0
 10 30  1  0
 11 31  1  0
 12 32  1  0
 15 33  1  0
 18 34  1  0
 19 35  1  0
 20 36  1  0
 23 37  1  0
 24 38  1  0
M  CHG  1  12   1
M  END
>  <UniqueID>  (24) 
23

>  <SMILES>  (24) 
O=C(Oc1cccc2ccc[nH+]c12)c1cc(-c2cccc(Cl)c2)co1

>  <Energy>  (24) 
78.92485661300495

>  <Genealogy>  (24) 
O=C(Oc1cccc2ccc[nH+]c12)c1cc(-c2cccc(Cl)c2)co1 (protonated)
O=C(Oc1cccc2ccc[nH+]c12)c1cc(-c2cccc(Cl)c2)co1 (3D coordinates assigned)
O=C(Oc1cccc2ccc[nH+]c12)c1cc(-c2cccc(Cl)c2)co1 (optimized conformer: 78.92485661300495 kcal/mol)

>  <smiles>  (24) 
O=C(Oc1cccc2cccnc12)c1cc(-c2cccc(Cl)c2)co1

>  <score_type>  (24) 
oracle

>  <origin>  (24) 
adg

>  <m_score__min__energy>  (24) 
-7.1200000000000001

>  <m_primary>  (24) 
energy

$$$$
24:0
     RDKit          3D

 33 34  0  0  1  0  0  0  0  0999 V2000
   60.6420   33.8840   49.4880 C   0  0  0  0  0  0  0  0  0  0  0  0
   59.3440   33.8580   48.9220 O   0  0  0  0  0  0  0  0  0  0  0  0
   59.2490   34.0360   47.5400 C   0  0  0  0  0  0  0  0  0  0  0  0
   59.7380   35.1900   46.9840 C   0  0  0  0  0  0  0  0  0  0  0  0
   59.6290   35.3320   45.6190 C   0  0  0  0  0  0  0  0  0  0  0  0
   59.0390   34.3350   44.8270 C   0  0  0  0  0  0  0  0  0  0  0  0
   58.5450   33.1710   45.3820 C   0  0  0  0  0  0  0  0  0  0  0  0
   57.9340   32.1410   44.5530 C   0  0  0  0  0  0  0  0  0  0  0  0
   57.5210   30.9390   45.0970 C   0  0  0  0  0  0  0  0  0  0  0  0
   56.9330   29.9410   44.3110 C   0  0  0  0  0  0  0  0  0  0  0  0
   56.5460   28.8170   44.8150 N   0  0  0  0  0  0  0  0  0  0  0  0
   57.4840   27.8380   45.2660 C   0  0  0  0  0  0  0  0  0  0  0  0
   56.8240   26.6960   46.0510 C   0  0  0  0  0  0  0  0  0  0  0  0
   55.4560   26.8220   46.0020 O   0  0  0  0  0  0  0  0  0  0  0  0
   56.7650   30.1590   42.9870 N   0  0  0  0  0  0  0  0  0  0  0  0
   57.1720   31.3370   42.4680 C   0  0  0  0  0  0  0  0  0  0  0  0
   57.7410   32.2980   43.2340 N   0  0  0  0  0  0  0  0  0  0  0  0
   58.6600   33.0400   46.7480 C   0  0  0  0  0  0  0  0  0  0  0  0
   60.5637   33.8824   50.5852 H   0  0  0  0  0  0  0  0  0  0  0  0
   61.2032   32.9969   49.1592 H   0  0  0  0  0  0  0  0  0  0  0  0
   61.1673   34.7928   49.1592 H   0  0  0  0  0  0  0  0  0  0  0  0
   60.1996   35.9721   47.6046 H   0  0  0  0  0  0  0  0  0  0  0  0
   60.0120   36.2450   45.1397 H   0  0  0  0  0  0  0  0  0  0  0  0
   58.9684   34.4841   43.7394 H   0  0  0  0  0  0  0  0  0  0  0  0
   57.6578   30.7625   46.1741 H   0  0  0  0  0  0  0  0  0  0  0  0
   57.9955   27.4122   44.3902 H   0  0  0  0  0  0  0  0  0  0  0  0
   58.1870   28.3425   45.9452 H   0  0  0  0  0  0  0  0  0  0  0  0
   57.1173   25.7326   45.6086 H   0  0  0  0  0  0  0  0  0  0  0  0
   57.1537   26.7404   47.0995 H   0  0  0  0  0  0  0  0  0  0  0  0
   55.1440   27.5040   45.3500 H   0  0  0  0  0  0  0  0  0  0  0  0
   57.0376   31.5215   41.3920 H   0  0  0  0  0  0  0  0  0  0  0  0
   58.0170   33.1660   42.7300 H   0  0  0  0  0  0  0  0  0  0  0  0
   58.2791   32.1283   47.2315 H   0  0  0  0  0  0  0  0  0  0  0  0
  1  2  1  0
  2  3  1  0
  3  4  2  0
  4  5  1  0
  5  6  2  0
  6  7  1  0
  7  8  1  0
  8  9  2  0
  9 10  1  0
 10 11  2  0
 11 12  1  0
 12 13  1  0
 13 14  1  0
 10 15  1  0
 15 16  2  0
 16 17  1  0
  7 18  2  0
 18  3  1  0
 17  8  1  0
  1 19  1  0
  1 20  1  0
  1 21  1  0
  4 22  1  0
  5 23  1  0
  6 24  1  0
  9 25  1  0
 12 26  1  0
 12 27  1  0
 13 28  1  0
 13 29  1  0
 14 30  1  0
 16 31  1  0
 17 32  1  0
 18 33  1  0
M  END
>  <smiles>  (25) 
COc1cccc(-c2cc(=NCCO)nc[nH]2)c1

>  <score_type>  (25) 
oracle

>  <origin>  (25) 
adg

>  <m_score__min__energy>  (25) 
-6.71

>  <m_primary>  (25) 
energy

$$$$
25:0
     RDKit          3D

 65 68  0  0  0  0  0  0  0  0999 V2000
   66.5930   32.7440   50.6800 C   0  0  0  0  0  0  0  0  0  0  0  0
   65.2130   32.9950   50.9270 O   0  0  0  0  0  0  0  0  0  0  0  0
   64.2280   33.0570   49.9290 C   0  0  0  0  0  0  0  0  0  0  0  0
   64.1570   32.1160   48.8840 C   0  0  0  0  0  0  0  0  0  0  0  0
   63.1600   32.2150   47.9110 C   0  0  0  0  0  0  0  0  0  0  0  0
   62.2210   33.2550   47.9610 C   0  0  0  0  0  0  0  0  0  0  0  0
   61.1410   33.3410   46.9150 C   0  0  0  0  0  0  0  0  0  0  0  0
   60.2420   34.4770   47.2130 N   0  0  0  0  0  0  0  0  0  0  0  0
   59.9990   35.3440   46.0320 C   0  0  0  0  0  0  0  0  0  0  0  0
   58.7350   34.9550   45.2380 C   0  0  0  0  0  0  0  0  0  0  0  0
   58.4230   33.5340   45.4580 N   0  0  0  0  0  0  0  0  0  0  0  0
   57.4510   32.9800   44.4900 C   0  0  0  0  0  0  0  0  0  0  0  0
   57.5040   31.4720   44.3550 C   0  0  0  0  0  0  0  0  0  0  0  0
   56.5160   30.7820   43.6410 C   0  0  0  0  0  0  0  0  0  0  0  0
   56.5790   29.3940   43.5170 C   0  0  0  0  0  0  0  0  0  0  0  0
   57.6300   28.6870   44.1290 C   0  0  0  0  0  0  0  0  0  0  0  0
   57.7380   27.2510   44.0130 N   0  0  0  0  0  0  0  0  0  0  0  0
   58.1330   26.6570   42.7340 C   0  0  0  0  0  0  0  0  0  0  0  0
   57.6230   26.3990   45.1660 C   0  0  0  0  0  0  0  0  0  0  0  0
   56.4880   25.5880   45.3240 C   0  0  0  0  0  0  0  0  0  0  0  0
   56.3630   24.7590   46.4400 C   0  0  0  0  0  0  0  0  0  0  0  0
   55.2630   23.9790   46.5860 F   0  0  0  0  0  0  0  0  0  0  0  0
   57.3680   24.7360   47.4080 C   0  0  0  0  0  0  0  0  0  0  0  0
   58.5020   25.5380   47.2620 C   0  0  0  0  0  0  0  0  0  0  0  0
   58.6430   26.3750   46.1370 C   0  0  0  0  0  0  0  0  0  0  0  0
   59.7750   27.1820   45.9460 O   0  0  0  0  0  0  0  0  0  0  0  0
   60.3820   27.9740   46.9610 C   0  0  0  0  0  0  0  0  0  0  0  0
   58.5730   29.3820   44.8260 N   0  0  0  0  0  0  0  0  0  0  0  0
   58.5340   30.7340   44.9560 C   0  0  0  0  0  0  0  0  0  0  0  0
   58.0700   33.2640   46.8650 C   0  0  0  0  0  0  0  0  0  0  0  0
   58.9780   34.0430   47.8430 C   0  0  0  0  0  0  0  0  0  0  0  0
   62.2880   34.1920   49.0030 C   0  0  0  0  0  0  0  0  0  0  0  0
   63.2860   34.0950   49.9820 C   0  0  0  0  0  0  0  0  0  0  0  0
   63.3500   35.0280   51.0160 O   0  0  0  0  0  0  0  0  0  0  0  0
   67.1252   32.6472   51.6378 H   0  0  0  0  0  0  0  0  0  0  0  0
   66.6991   31.8118   50.1057 H   0  0  0  0  0  0  0  0  0  0  0  0
   67.0205   33.5791   50.1057 H   0  0  0  0  0  0  0  0  0  0  0  0
   64.8910   31.2982   48.8337 H   0  0  0  0  0  0  0  0  0  0  0  0
   63.1112   31.4727   47.1007 H   0  0  0  0  0  0  0  0  0  0  0  0
   61.6010   33.4892   45.9269 H   0  0  0  0  0  0  0  0  0  0  0  0
   60.5588   32.4077   46.9175 H   0  0  0  0  0  0  0  0  0  0  0  0
   59.8879   36.3822   46.3782 H   0  0  0  0  0  0  0  0  0  0  0  0
   60.8583   35.2216   45.3562 H   0  0  0  0  0  0  0  0  0  0  0  0
   57.8883   35.5708   45.5755 H   0  0  0  0  0  0  0  0  0  0  0  0
   58.9142   35.1247   44.1660 H   0  0  0  0  0  0  0  0  0  0  0  0
   56.4392   33.2623   44.8164 H   0  0  0  0  0  0  0  0  0  0  0  0
   57.7112   33.3961   43.5055 H   0  0  0  0  0  0  0  0  0  0  0  0
   55.6874   31.3367   43.1764 H   0  0  0  0  0  0  0  0  0  0  0  0
   55.8106   28.8549   42.9435 H   0  0  0  0  0  0  0  0  0  0  0  0
   58.7334   25.7541   42.9189 H   0  0  0  0  0  0  0  0  0  0  0  0
   57.2332   26.3881   42.1612 H   0  0  0  0  0  0  0  0  0  0  0  0
   58.7290   27.3827   42.1612 H   0  0  0  0  0  0  0  0  0  0  0  0
   55.6928   25.6060   44.5641 H   0  0  0  0  0  0  0  0  0  0  0  0
   57.2667   24.0844   48.2884 H   0  0  0  0  0  0  0  0  0  0  0  0
   59.2897   25.5162   48.0295 H   0  0  0  0  0  0  0  0  0  0  0  0
   60.0885   27.5910   47.9495 H   0  0  0  0  0  0  0  0  0  0  0  0
   61.4762   27.9252   46.8589 H   0  0  0  0  0  0  0  0  0  0  0  0
   60.0504   29.0179   46.8589 H   0  0  0  0  0  0  0  0  0  0  0  0
   59.3132   31.2515   45.5348 H   0  0  0  0  0  0  0  0  0  0  0  0
   57.0251   33.5633   47.0339 H   0  0  0  0  0  0  0  0  0  0  0  0
   58.2080   32.1889   47.0523 H   0  0  0  0  0  0  0  0  0  0  0  0
   58.4357   34.9324   48.1963 H   0  0  0  0  0  0  0  0  0  0  0  0
   59.2316   33.3691   48.6746 H   0  0  0  0  0  0  0  0  0  0  0  0
   61.5522   35.0083   49.0519 H   0  0  0  0  0  0  0  0  0  0  0  0
   64.0560   34.9700   51.7400 H   0  0  0  0  0  0  0  0  0  0  0  0
  1  2  1  0
  2  3  1  0
  3  4  2  0
  4  5  1  0
  5  6  2  0
  6  7  1  0
  7  8  1  0
  8  9  1  0
  9 10  1  0
 10 11  1  0
 11 12  1  0
 12 13  1  0
 13 14  2  0
 14 15  1  0
 15 16  2  0
 16 17  1  0
 17 18  1  0
 17 19  1  0
 19 20  2  0
 20 21  1  0
 21 22  1  0
 21 23  2  0
 23 24  1  0
 24 25  2  0
 25 26  1  0
 26 27  1  0
 16 28  1  0
 28 29  2  0
 11 30  1  0
 30 31  1  0
  6 32  1  0
 32 33  2  0
 33 34  1  0
 33  3  1  0
 31  8  1  0
 29 13  1  0
 25 19  1  0
  1 35  1  0
  1 36  1  0
  1 37  1  0
  4 38  1  0
  5 39  1  0
  7 40  1  0
  7 41  1  0
  9 42  1  0
  9 43  1  0
 10 44  1  0
 10 45  1  0
 12 46  1  0
 12 47  1  0
 14 48  1  0
 15 49  1  0
 18 50  1  0
 18 51  1  0
 18 52  1  0
 20 53  1  0
 23 54  1  0
 24 55  1  0
 27 56  1  0
 27 57  1  0
 27 58  1  0
 29 59  1  0
 30 60  1  0
 30 61  1  0
 31 62  1  0
 31 63  1  0
 32 64  1  0
 34 65  1  0
M  END
>  <UniqueID>  (26) 
24

>  <SMILES>  (26) 
COc1ccc(CN2CCN(Cc3ccc(N(C)c4cc(F)ccc4OC)nc3)CC2)cc1O

>  <Energy>  (26) 
88.38857225176763

>  <Genealogy>  (26) 
COc1ccc(CN2CCN(Cc3ccc(N(C)c4cc(F)ccc4OC)nc3)CC2)cc1O (3D coordinates assigned)
COc1ccc(CN2CCN(Cc3ccc(N(C)c4cc(F)ccc4OC)nc3)CC2)cc1O (nonaromatic ring conformer: 88.38857225176763 kcal/mol)

>  <smiles>  (26) 
COc1ccc(CN2CCN(Cc3ccc(N(C)c4cc(F)ccc4OC)nc3)CC2)cc1O

>  <score_type>  (26) 
oracle

>  <origin>  (26) 
adg

>  <m_score__min__energy>  (26) 
-9.4399999999999995

>  <m_primary>  (26) 
energy

$$$$
26:0
     RDKit          3D

 38 40  0  0  1  0  0  0  0  0999 V2000
   54.6600   25.3230   45.6190 C   0  0  0  0  0  0  0  0  0  0  0  0
   55.2290   26.5820   45.9100 O   0  0  0  0  0  0  0  0  0  0  0  0
   56.5860   26.7260   46.1450 C   0  0  0  0  0  0  0  0  0  0  0  0
   57.3190   25.7500   46.8100 C   0  0  0  0  0  0  0  0  0  0  0  0
   58.6710   25.9240   47.0300 C   0  0  0  0  0  0  0  0  0  0  0  0
   59.2570   27.0950   46.5670 C   0  0  0  0  0  0  0  0  0  0  0  0
   58.5440   28.0730   45.9060 C   0  0  0  0  0  0  0  0  0  0  0  0
   57.1900   27.8970   45.6870 C   0  0  0  0  0  0  0  0  0  0  0  0
   56.3920   28.8740   45.0080 N   0  0  0  0  0  0  0  0  0  0  0  0
   56.8830   30.0250   44.6540 C   0  0  0  0  0  0  0  0  0  0  0  0
   56.8430   30.3230   43.3160 C   0  0  0  0  0  0  0  0  0  0  0  0
   57.3670   31.5500   42.9340 C   0  0  0  0  0  0  0  0  0  0  0  0
   57.3590   31.9420   41.5020 C   0  0  0  0  0  0  0  0  0  0  0  0
   57.8770   32.3710   43.8880 N   0  0  0  0  0  0  0  0  0  0  0  0
   57.8980   32.0460   45.1910 C   0  0  0  0  0  0  0  0  0  0  0  0
   58.4480   32.9370   46.2000 C   0  0  0  0  0  0  0  0  0  0  0  0
   58.7750   34.2530   45.9680 C   0  0  0  0  0  0  0  0  0  0  0  0
   59.2930   35.0250   46.9860 C   0  0  0  0  0  0  0  0  0  0  0  0
   59.5070   34.5650   48.2310 N   0  0  0  0  0  0  0  0  0  0  0  0
   59.1960   33.2830   48.4850 C   0  0  0  0  0  0  0  0  0  0  0  0
   58.6740   32.4700   47.4910 C   0  0  0  0  0  0  0  0  0  0  0  0
   57.3960   30.8610   45.5720 N   0  0  0  0  0  0  0  0  0  0  0  0
   54.4242   24.8013   46.5583 H   0  0  0  0  0  0  0  0  0  0  0  0
   53.7378   25.4633   45.0360 H   0  0  0  0  0  0  0  0  0  0  0  0
   55.3747   24.7235   45.0360 H   0  0  0  0  0  0  0  0  0  0  0  0
   56.8200   24.8353   47.1624 H   0  0  0  0  0  0  0  0  0  0  0  0
   59.2643   25.1605   47.5545 H   0  0  0  0  0  0  0  0  0  0  0  0
   60.3333   27.2485   46.7343 H   0  0  0  0  0  0  0  0  0  0  0  0
   59.0483   28.9857   45.5558 H   0  0  0  0  0  0  0  0  0  0  0  0
   56.4165   29.6238   42.5816 H   0  0  0  0  0  0  0  0  0  0  0  0
   57.3366   33.0389   41.4222 H   0  0  0  0  0  0  0  0  0  0  0  0
   58.2652   31.5571   41.0114 H   0  0  0  0  0  0  0  0  0  0  0  0
   56.4693   31.5205   41.0114 H   0  0  0  0  0  0  0  0  0  0  0  0
   58.2530   33.2780   43.5360 H   0  0  0  0  0  0  0  0  0  0  0  0
   58.6231   34.6895   44.9698 H   0  0  0  0  0  0  0  0  0  0  0  0
   59.5447   36.0734   46.7679 H   0  0  0  0  0  0  0  0  0  0  0  0
   59.3574   32.8738   49.4932 H   0  0  0  0  0  0  0  0  0  0  0  0
   58.4311   31.4241   47.7301 H   0  0  0  0  0  0  0  0  0  0  0  0
  1  2  1  0
  2  3  1  0
  3  4  2  0
  4  5  1  0
  5  6  2  0
  6  7  1  0
  7  8  2  0
  8  9  1  0
  9 10  2  0
 10 11  1  0
 11 12  2  0
 12 13  1  0
 12 14  1  0
 14 15  1  0
 15 16  1  0
 16 17  2  0
 17 18  1  0
 18 19  2  0
 19 20  1  0
 20 21  2  0
 15 22  2  0
  8  3  1  0
 22 10  1  0
 21 16  1  0
  1 23  1  0
  1 24  1  0
  1 25  1  0
  4 26  1  0
  5 27  1  0
  6 28  1  0
  7 29  1  0
 11 30  1  0
 13 31  1  0
 13 32  1  0
 13 33  1  0
 14 34  1  0
 17 35  1  0
 18 36  1  0
 20 37  1  0
 21 38  1  0
M  END
>  <smiles>  (27) 
COc1ccccc1N=c1cc(C)[nH]c(-c2ccncc2)n1

>  <score_type>  (27) 
oracle

>  <origin>  (27) 
adg

>  <m_score__min__energy>  (27) 
-8.4299999999999997

>  <m_primary>  (27) 
energy

$$$$
27:0
     RDKit          3D

 41 43  0  0  0  0  0  0  0  0999 V2000
   59.6010   31.0760   48.5130 C   0  0  0  0  0  0  0  0  0  0  0  0
   58.5940   32.2220   48.5590 C   0  0  0  0  0  0  0  0  0  0  0  0
   58.8140   33.1580   47.4330 N   0  0  0  0  0  0  0  0  0  0  0  0
   59.3780   34.3870   47.7020 C   0  0  0  0  0  0  0  0  0  0  0  0
   59.6710   34.7200   48.8840 O   0  0  0  0  0  0  0  0  0  0  0  0
   59.6400   35.2970   46.6770 C   0  0  0  0  0  0  0  0  0  0  0  0
   59.3180   34.9760   45.3680 C   0  0  0  0  0  0  0  0  0  0  0  0
   58.7110   33.7550   45.0810 C   0  0  0  0  0  0  0  0  0  0  0  0
   58.3640   33.4420   43.7580 C   0  0  0  0  0  0  0  0  0  0  0  0
   57.7370   32.2350   43.4620 C   0  0  0  0  0  0  0  0  0  0  0  0
   57.4360   31.3300   44.4820 C   0  0  0  0  0  0  0  0  0  0  0  0
   56.6490   29.7970   44.1130 S   0  0  0  0  0  0  0  0  0  0  0  0
   55.3450   29.7310   44.8570 O   0  0  0  0  0  0  0  0  0  0  0  0
   56.3650   29.7060   42.6380 O   0  0  0  0  0  0  0  0  0  0  0  0
   57.6780   28.4760   44.6070 N   0  0  0  0  0  0  0  0  0  0  0  0
   59.0880   28.9020   44.6030 C   0  0  0  0  0  0  0  0  0  0  0  0
   60.0080   27.7510   45.0730 C   0  0  0  0  0  0  0  0  0  0  0  0
   59.2780   26.6440   45.5740 O   0  0  0  0  0  0  0  0  0  0  0  0
   58.3640   27.0820   46.5590 C   0  0  0  0  0  0  0  0  0  0  0  0
   57.2800   27.9910   45.9440 C   0  0  0  0  0  0  0  0  0  0  0  0
   57.7870   31.6260   45.8050 C   0  0  0  0  0  0  0  0  0  0  0  0
   58.4430   32.8400   46.1350 C   0  0  0  0  0  0  0  0  0  0  0  0
   59.8635   30.7772   49.5386 H   0  0  0  0  0  0  0  0  0  0  0  0
   59.1579   30.2196   47.9836 H   0  0  0  0  0  0  0  0  0  0  0  0
   60.5073   31.4053   47.9836 H   0  0  0  0  0  0  0  0  0  0  0  0
   57.5759   31.8108   48.4930 H   0  0  0  0  0  0  0  0  0  0  0  0
   58.7243   32.7693   49.5042 H   0  0  0  0  0  0  0  0  0  0  0  0
   60.1017   36.2683   46.9079 H   0  0  0  0  0  0  0  0  0  0  0  0
   59.5413   35.6842   44.5565 H   0  0  0  0  0  0  0  0  0  0  0  0
   58.5886   34.1543   42.9504 H   0  0  0  0  0  0  0  0  0  0  0  0
   57.4777   31.9932   42.4207 H   0  0  0  0  0  0  0  0  0  0  0  0
   57.5540   27.7030   43.9100 H   0  0  0  0  0  0  0  0  0  0  0  0
   59.3728   29.1983   43.5827 H   0  0  0  0  0  0  0  0  0  0  0  0
   59.2030   29.7510   45.2930 H   0  0  0  0  0  0  0  0  0  0  0  0
   60.6171   27.4156   44.2207 H   0  0  0  0  0  0  0  0  0  0  0  0
   60.6349   28.1362   45.8907 H   0  0  0  0  0  0  0  0  0  0  0  0
   57.8813   26.2058   47.0165 H   0  0  0  0  0  0  0  0  0  0  0  0
   58.9154   27.6583   47.3165 H   0  0  0  0  0  0  0  0  0  0  0  0
   56.3438   27.4207   45.8537 H   0  0  0  0  0  0  0  0  0  0  0  0
   57.1447   28.8621   46.6020 H   0  0  0  0  0  0  0  0  0  0  0  0
   57.5502   30.9053   46.6016 H   0  0  0  0  0  0  0  0  0  0  0  0
  1  2  1  0
  2  3  1  0
  3  4  1  0
  4  5  2  0
  4  6  1  0
  6  7  2  0
  7  8  1  0
  8  9  2  0
  9 10  1  0
 10 11  2  0
 11 12  1  0
 12 13  2  0
 12 14  2  0
 12 15  1  0
 15 16  1  0
 16 17  1  0
 17 18  1  0
 18 19  1  0
 19 20  1  0
 11 21  1  0
 21 22  2  0
 22  3  1  0
 22  8  1  0
 20 15  1  0
  1 23  1  0
  1 24  1  0
  1 25  1  0
  2 26  1  0
  2 27  1  0
  6 28  1  0
  7 29  1  0
  9 30  1  0
 10 31  1  0
 15 32  1  0
 16 33  1  0
 16 34  1  0
 17 35  1  0
 17 36  1  0
 19 37  1  0
 19 38  1  0
 20 39  1  0
 20 40  1  0
 21 41  1  0
M  CHG  1  15   1
M  END
>  <UniqueID>  (28) 
25

>  <SMILES>  (28) 
CCn1c(=O)ccc2ccc(S(=O)(=O)[NH+]3CCOCC3)cc21

>  <Energy>  (28) 
57.047454579165496

>  <Genealogy>  (28) 
CCn1c(=O)ccc2ccc(S(=O)(=O)[NH+]3CCOCC3)cc21 (protonated)
CCn1c(=O)ccc2ccc(S(=O)(=O)[NH+]3CCOCC3)cc21 (3D coordinates assigned)
CCn1c(=O)ccc2ccc(S(=O)(=O)[NH+]3CCOCC3)cc21 (nonaromatic ring conformer: 57.047454579165496 kcal/mol)

>  <smiles>  (28) 
CCn1c(=O)ccc2ccc(S(=O)(=O)N3CCOCC3)cc21

>  <score_type>  (28) 
oracle

>  <origin>  (28) 
adg

>  <m_score__min__energy>  (28) 
-6.4199999999999999

>  <m_primary>  (28) 
energy

$$$$
28:0
     RDKit          3D

 43 43  0  0  0  0  0  0  0  0999 V2000
   60.6840   29.7970   47.1960 C   0  0  0  0  0  0  0  0  0  0  0  0
   59.9930   29.0830   46.0270 C   0  0  0  0  0  0  0  0  0  0  0  0
   61.0190   28.6390   44.9750 C   0  0  0  0  0  0  0  0  0  0  0  0
   59.0640   27.9260   46.4770 C   0  0  0  0  0  0  0  0  0  0  0  0
   57.5590   28.1250   46.2020 C   0  0  1  0  0  0  0  0  0  0  0  0
   57.3530   28.5270   44.8150 N   0  0  0  0  0  0  0  0  0  0  0  0
   56.3090   29.4090   44.3850 C   0  0  0  0  0  0  0  0  0  0  0  0
   55.1460   29.2960   44.8550 O   0  0  0  0  0  0  0  0  0  0  0  0
   56.6120   30.5050   43.4100 C   0  0  0  0  0  0  0  0  0  0  0  0
   57.7410   31.3100   43.8700 N   0  0  0  0  0  0  0  0  0  0  0  0
   57.5790   32.4240   44.7590 C   0  0  0  0  0  0  0  0  0  0  0  0
   56.4510   32.6800   45.2610 O   0  0  0  0  0  0  0  0  0  0  0  0
   58.7390   33.3260   45.0490 C   0  0  0  0  0  0  0  0  0  0  0  0
   59.0450   33.3120   46.5230 C   0  0  0  0  0  0  0  0  0  0  0  0
   58.3790   32.4110   47.3700 C   0  0  0  0  0  0  0  0  0  0  0  0
   58.6740   32.3770   48.7370 C   0  0  0  0  0  0  0  0  0  0  0  0
   59.6430   33.2320   49.2660 C   0  0  0  0  0  0  0  0  0  0  0  0
   60.3260   34.1180   48.4280 C   0  0  0  0  0  0  0  0  0  0  0  0
   61.2780   34.9340   48.9430 F   0  0  0  0  0  0  0  0  0  0  0  0
   60.0330   34.1600   47.0600 C   0  0  0  0  0  0  0  0  0  0  0  0
   60.7130   35.0190   46.2600 F   0  0  0  0  0  0  0  0  0  0  0  0
   56.8250   26.8390   46.4630 C   0  0  0  0  0  0  0  0  0  0  0  0
   55.4690   26.6900   46.0460 N   0  0  0  0  0  0  0  0  0  0  0  0
   57.4140   25.8800   47.0290 O   0  0  0  0  0  0  0  0  0  0  0  0
   60.2996   29.3998   48.1470 H   0  0  0  0  0  0  0  0  0  0  0  0
   61.7693   29.6270   47.1396 H   0  0  0  0  0  0  0  0  0  0  0  0
   60.4785   30.8762   47.1396 H   0  0  0  0  0  0  0  0  0  0  0  0
   59.3238   29.8171   45.5545 H   0  0  0  0  0  0  0  0  0  0  0  0
   61.9163   28.2507   45.4790 H   0  0  0  0  0  0  0  0  0  0  0  0
   60.5812   27.8498   44.3461 H   0  0  0  0  0  0  0  0  0  0  0  0
   61.2946   29.4984   44.3461 H   0  0  0  0  0  0  0  0  0  0  0  0
   59.3845   27.0132   45.9535 H   0  0  0  0  0  0  0  0  0  0  0  0
   59.1624   27.8734   47.5713 H   0  0  0  0  0  0  0  0  0  0  0  0
   57.1746   28.9121   46.8673 H   0  0  0  0  0  0  0  0  0  0  0  0
   56.8589   30.0616   42.4341 H   0  0  0  0  0  0  0  0  0  0  0  0
   55.7282   31.1540   43.3226 H   0  0  0  0  0  0  0  0  0  0  0  0
   58.6950   31.0850   43.5060 H   0  0  0  0  0  0  0  0  0  0  0  0
   59.6202   32.9774   44.4905 H   0  0  0  0  0  0  0  0  0  0  0  0
   58.4851   34.3514   44.7422 H   0  0  0  0  0  0  0  0  0  0  0  0
   57.6217   31.7288   46.9564 H   0  0  0  0  0  0  0  0  0  0  0  0
   58.1417   31.6756   49.3963 H   0  0  0  0  0  0  0  0  0  0  0  0
   59.8689   33.2083   50.3423 H   0  0  0  0  0  0  0  0  0  0  0  0
   55.1360   27.0980   45.1460 H   0  0  0  0  0  0  0  0  0  0  0  0
  1  2  1  0
  2  3  1  0
  2  4  1  0
  4  5  1  0
  5  6  1  0
  6  7  1  0
  7  8  2  0
  7  9  1  0
  9 10  1  0
 10 11  1  0
 11 12  2  0
 11 13  1  0
 13 14  1  0
 14 15  2  0
 15 16  1  0
 16 17  2  0
 17 18  1  0
 18 19  1  0
 18 20  2  0
 20 21  1  0
  5 22  1  0
 22 23  1  0
 22 24  2  0
 20 14  1  0
  1 25  1  0
  1 26  1  0
  1 27  1  0
  2 28  1  0
  3 29  1  0
  3 30  1  0
  3 31  1  0
  4 32  1  0
  4 33  1  0
  5 34  1  1
  9 35  1  0
  9 36  1  0
 10 37  1  0
 13 38  1  0
 13 39  1  0
 15 40  1  0
 16 41  1  0
 17 42  1  0
 23 43  1  0
M  CHG  2   6  -1  23  -1
M  END
>  <UniqueID>  (29) 
26

>  <SMILES>  (29) 
CC(C)C[C@@H]([N-]C(=O)CNC(=O)Cc1cccc(F)c1F)C([NH-])=O

>  <Energy>  (29) 
23.984789655247123

>  <Genealogy>  (29) 
CC(C)CC([N-]C(=O)CNC(=O)Cc1cccc(F)c1F)C([NH-])=O (protonated)
CC(C)C[C@@H]([N-]C(=O)CNC(=O)Cc1cccc(F)c1F)C([NH-])=O (chirality)
CC(C)C[C@@H]([N-]C(=O)CNC(=O)Cc1cccc(F)c1F)C([NH-])=O (3D coordinates assigned)
CC(C)C[C@@H]([N-]C(=O)CNC(=O)Cc1cccc(F)c1F)C([NH-])=O (optimized conformer: 23.984789655247123 kcal/mol)

>  <smiles>  (29) 
CC(C)CC(NC(=O)CNC(=O)Cc1cccc(F)c1F)C(N)=O

>  <score_type>  (29) 
oracle

>  <origin>  (29) 
adg

>  <m_score__min__energy>  (29) 
-12.26

>  <m_primary>  (29) 
energy

$$$$
29:0
     RDKit          3D

 36 38  0  0  1  0  0  0  0  0999 V2000
   58.2040   24.5170   45.7500 C   0  0  0  0  0  0  0  0  0  0  0  0
   57.8770   25.5150   46.7020 O   0  0  0  0  0  0  0  0  0  0  0  0
   57.8710   26.8320   46.2860 C   0  0  0  0  0  0  0  0  0  0  0  0
   56.7300   27.2970   45.6780 C   0  0  0  0  0  0  0  0  0  0  0  0
   56.7220   28.6000   45.2640 C   0  0  0  0  0  0  0  0  0  0  0  0
   55.6010   29.0490   44.6700 N   0  0  0  0  0  0  0  0  0  0  0  0
   55.5590   30.3190   44.2520 C   0  0  0  0  0  0  0  0  0  0  0  0
   56.6180   31.1030   44.4330 N   0  0  0  0  0  0  0  0  0  0  0  0
   57.7550   30.6760   45.0270 C   0  0  0  0  0  0  0  0  0  0  0  0
   58.6820   31.4660   45.1510 N   0  0  0  0  0  0  0  0  0  0  0  0
   58.8460   32.5960   45.8610 C   0  0  0  0  0  0  0  0  0  0  0  0
   58.8790   32.5610   47.2610 C   0  0  0  0  0  0  0  0  0  0  0  0
   59.1700   33.7260   47.9810 C   0  0  0  0  0  0  0  0  0  0  0  0
   59.4260   34.9170   47.3160 C   0  0  0  0  0  0  0  0  0  0  0  0
   59.3920   34.9500   45.9210 C   0  0  0  0  0  0  0  0  0  0  0  0
   59.1080   33.8140   45.1820 C   0  0  0  0  0  0  0  0  0  0  0  0
   57.8410   29.3820   45.4700 C   0  0  0  0  0  0  0  0  0  0  0  0
   58.9630   28.8960   46.0770 C   0  0  0  0  0  0  0  0  0  0  0  0
   58.9970   27.5580   46.5130 C   0  0  0  0  0  0  0  0  0  0  0  0
   60.0830   27.0000   47.1270 O   0  0  0  0  0  0  0  0  0  0  0  0
   60.4110   27.1930   48.4910 C   0  0  0  0  0  0  0  0  0  0  0  0
   58.5055   23.5969   46.2721 H   0  0  0  0  0  0  0  0  0  0  0  0
   57.3267   24.3101   45.1195 H   0  0  0  0  0  0  0  0  0  0  0  0
   59.0336   24.8694   45.1195 H   0  0  0  0  0  0  0  0  0  0  0  0
   55.8561   26.6456   45.5299 H   0  0  0  0  0  0  0  0  0  0  0  0
   54.7670   28.4570   44.5190 H   0  0  0  0  0  0  0  0  0  0  0  0
   54.6557   30.7118   43.7624 H   0  0  0  0  0  0  0  0  0  0  0  0
   58.6767   31.6201   47.7936 H   0  0  0  0  0  0  0  0  0  0  0  0
   59.1959   33.6972   49.0803 H   0  0  0  0  0  0  0  0  0  0  0  0
   59.6545   35.8301   47.8853 H   0  0  0  0  0  0  0  0  0  0  0  0
   59.5947   35.8966   45.3987 H   0  0  0  0  0  0  0  0  0  0  0  0
   59.0858   33.8553   44.0830 H   0  0  0  0  0  0  0  0  0  0  0  0
   59.8370   29.5473   46.2248 H   0  0  0  0  0  0  0  0  0  0  0  0
   59.6350   26.7364   49.1229 H   0  0  0  0  0  0  0  0  0  0  0  0
   61.3819   26.7222   48.7048 H   0  0  0  0  0  0  0  0  0  0  0  0
   60.4709   28.2704   48.7048 H   0  0  0  0  0  0  0  0  0  0  0  0
  1  2  1  0
  2  3  1  0
  3  4  2  0
  4  5  1  0
  5  6  1  0
  6  7  1  0
  7  8  2  0
  8  9  1  0
  9 10  2  0
 10 11  1  0
 11 12  2  0
 12 13  1  0
 13 14  2  0
 14 15  1  0
 15 16  2  0
  9 17  1  0
 17 18  1  0
 18 19  2  0
 19 20  1  0
 20 21  1  0
 19  3  1  0
 17  5  2  0
 16 11  1  0
  1 22  1  0
  1 23  1  0
  1 24  1  0
  4 25  1  0
  6 26  1  0
  7 27  1  0
 12 28  1  0
 13 29  1  0
 14 30  1  0
 15 31  1  0
 16 32  1  0
 18 33  1  0
 21 34  1  0
 21 35  1  0
 21 36  1  0
M  END
>  <smiles>  (30) 
COc1cc2[nH]cnc(=Nc3ccccc3)c2cc1OC

>  <score_type>  (30) 
oracle

>  <origin>  (30) 
adg

>  <m_score__min__energy>  (30) 
-6.9000000000000004

>  <m_primary>  (30) 
energy

$$$$
30:0
     RDKit          3D

 51 55  0  0  0  0  0  0  0  0999 V2000
   56.0910   28.9810   44.4960 C   0  0  0  0  0  0  0  0  0  0  0  0
   55.8760   27.9090   45.4090 O   0  0  0  0  0  0  0  0  0  0  0  0
   56.7650   26.8400   45.6190 C   0  0  0  0  0  0  0  0  0  0  0  0
   56.4220   25.5270   45.2410 C   0  0  0  0  0  0  0  0  0  0  0  0
   57.3050   24.4580   45.4560 C   0  0  0  0  0  0  0  0  0  0  0  0
   56.9350   23.1180   45.0740 N   0  0  0  0  0  0  0  0  0  0  0  0
   56.2520   22.2250   46.0180 C   0  0  0  0  0  0  0  0  0  0  0  0
   56.9680   20.8610   46.0910 C   0  0  0  0  0  0  0  0  0  0  0  0
   57.7240   20.5250   44.8650 N   0  0  0  0  0  0  0  0  0  0  0  0
   57.1280   21.1070   43.6540 C   0  0  0  0  0  0  0  0  0  0  0  0
   57.2020   22.6390   43.7130 C   0  0  0  0  0  0  0  0  0  0  0  0
   58.5360   24.7050   46.0740 C   0  0  0  0  0  0  0  0  0  0  0  0
   58.8910   25.9990   46.4520 C   0  0  0  0  0  0  0  0  0  0  0  0
   58.0220   27.0830   46.2300 C   0  0  0  0  0  0  0  0  0  0  0  0
   58.4540   28.4460   46.6480 C   0  0  0  0  0  0  0  0  0  0  0  0
   58.3460   29.5060   45.8020 N   0  0  0  0  0  0  0  0  0  0  0  0
   58.7410   30.7460   46.1800 C   0  0  0  0  0  0  0  0  0  0  0  0
   58.6180   31.8220   45.2950 C   0  0  0  0  0  0  0  0  0  0  0  0
   59.0280   33.1050   45.6870 C   0  0  0  0  0  0  0  0  0  0  0  0
   58.9090   34.1930   44.8070 C   0  0  0  0  0  0  0  0  0  0  0  0
   59.3190   35.4670   45.2060 C   0  0  0  0  0  0  0  0  0  0  0  0
   59.8510   35.6680   46.4820 C   0  0  0  0  0  0  0  0  0  0  0  0
   59.9740   34.5950   47.3700 C   0  0  0  0  0  0  0  0  0  0  0  0
   59.5660   33.3090   46.9830 C   0  0  0  0  0  0  0  0  0  0  0  0
   59.6870   32.2240   47.8660 C   0  0  0  0  0  0  0  0  0  0  0  0
   59.2740   30.9420   47.4660 C   0  0  0  0  0  0  0  0  0  0  0  0
   59.3680   29.8180   48.3020 C   0  0  0  0  0  0  0  0  0  0  0  0
   59.8370   29.9170   49.4680 O   0  0  0  0  0  0  0  0  0  0  0  0
   58.9610   28.6310   47.8660 O   0  0  0  0  0  0  0  0  0  0  0  0
   56.2771   29.9087   45.0570 H   0  0  0  0  0  0  0  0  0  0  0  0
   56.9616   28.7545   43.8630 H   0  0  0  0  0  0  0  0  0  0  0  0
   55.2004   29.1077   43.8630 H   0  0  0  0  0  0  0  0  0  0  0  0
   55.4464   25.3368   44.7698 H   0  0  0  0  0  0  0  0  0  0  0  0
   56.2515   22.6867   47.0164 H   0  0  0  0  0  0  0  0  0  0  0  0
   55.2202   22.0655   45.6716 H   0  0  0  0  0  0  0  0  0  0  0  0
   57.6695   20.8809   46.9381 H   0  0  0  0  0  0  0  0  0  0  0  0
   56.1897   20.0931   46.2117 H   0  0  0  0  0  0  0  0  0  0  0  0
   57.7530   19.4840   44.7590 H   0  0  0  0  0  0  0  0  0  0  0  0
   58.7110   20.8620   44.9600 H   0  0  0  0  0  0  0  0  0  0  0  0
   57.6776   20.7501   42.7705 H   0  0  0  0  0  0  0  0  0  0  0  0
   56.0737   20.8000   43.5886 H   0  0  0  0  0  0  0  0  0  0  0  0
   58.2070   22.9643   43.4062 H   0  0  0  0  0  0  0  0  0  0  0  0
   56.4428   23.0566   43.0353 H   0  0  0  0  0  0  0  0  0  0  0  0
   59.2288   23.8717   46.2630 H   0  0  0  0  0  0  0  0  0  0  0  0
   59.8654   26.1752   46.9311 H   0  0  0  0  0  0  0  0  0  0  0  0
   58.1993   31.6620   44.2905 H   0  0  0  0  0  0  0  0  0  0  0  0
   58.4917   34.0413   43.8006 H   0  0  0  0  0  0  0  0  0  0  0  0
   59.2226   36.3156   44.5128 H   0  0  0  0  0  0  0  0  0  0  0  0
   60.1742   36.6736   46.7891 H   0  0  0  0  0  0  0  0  0  0  0  0
   60.3915   34.7591   48.3744 H   0  0  0  0  0  0  0  0  0  0  0  0
   60.1054   32.3778   48.8716 H   0  0  0  0  0  0  0  0  0  0  0  0
  1  2  1  0
  2  3  1  0
  3  4  2  0
  4  5  1  0
  5  6  1  0
  6  7  1  0
  7  8  1  0
  8  9  1  0
  9 10  1  0
 10 11  1  0
  5 12  2  0
 12 13  1  0
 13 14  2  0
 14 15  1  0
 15 16  2  0
 16 17  1  0
 17 18  2  0
 18 19  1  0
 19 20  2  0
 20 21  1  0
 21 22  2  0
 22 23  1  0
 23 24  2  0
 24 25  1  0
 25 26  2  0
 26 27  1  0
 27 28  2  0
 27 29  1  0
 14  3  1  0
 29 15  1  0
 11  6  1  0
 26 17  1  0
 24 19  1  0
  1 30  1  0
  1 31  1  0
  1 32  1  0
  4 33  1  0
  7 34  1  0
  7 35  1  0
  8 36  1  0
  8 37  1  0
  9 38  1  0
  9 39  1  0
 10 40  1  0
 10 41  1  0
 11 42  1  0
 11 43  1  0
 12 44  1  0
 13 45  1  0
 18 46  1  0
 20 47  1  0
 21 48  1  0
 22 49  1  0
 23 50  1  0
 25 51  1  0
M  CHG  1   9   1
M  END
>  <UniqueID>  (31) 
27

>  <SMILES>  (31) 
COc1cc(N2CC[NH2+]CC2)ccc1-c1nc2cc3ccccc3cc2c(=O)o1

>  <Energy>  (31) 
75.27524422263961

>  <Genealogy>  (31) 
COc1cc(N2CC[NH2+]CC2)ccc1-c1nc2cc3ccccc3cc2c(=O)o1 (protonated)
COc1cc(N2CC[NH2+]CC2)ccc1-c1nc2cc3ccccc3cc2c(=O)o1 (3D coordinates assigned)
COc1cc(N2CC[NH2+]CC2)ccc1-c1nc2cc3ccccc3cc2c(=O)o1 (nonaromatic ring conformer: 75.27524422263961 kcal/mol)

>  <smiles>  (31) 
COc1cc(N2CCNCC2)ccc1-c1nc2cc3ccccc3cc2c(=O)o1

>  <score_type>  (31) 
oracle

>  <origin>  (31) 
adg

>  <m_score__min__energy>  (31) 
-7.5499999999999998

>  <m_primary>  (31) 
energy

$$$$
31:0
     RDKit          3D

 44 46  0  0  0  0  0  0  0  0999 V2000
   64.1030   33.4910   48.1340 S   0  0  0  0  0  0  0  0  0  0  0  0
   62.5620   33.0370   48.4940 C   0  0  0  0  0  0  0  0  0  0  0  0
   62.3400   31.9780   49.4500 N   0  0  0  0  0  0  0  0  0  0  0  0
   61.8740   30.7500   48.7860 C   0  0  0  0  0  0  0  0  0  0  0  0
   60.4640   30.4120   49.1730 C   0  0  0  0  0  0  0  0  0  0  0  0
   59.7590   29.2970   48.7620 C   0  0  0  0  0  0  0  0  0  0  0  0
   58.5330   29.3870   49.3850 C   0  0  0  0  0  0  0  0  0  0  0  0
   58.5660   30.5470   50.1340 C   0  0  0  0  0  0  0  0  0  0  0  0
   59.7310   31.1340   49.9890 O   0  0  0  0  0  0  0  0  0  0  0  0
   61.4540   33.6320   47.7860 N   0  0  0  0  0  0  0  0  0  0  0  0
   61.5780   33.9840   46.3670 C   0  0  0  0  0  0  0  0  0  0  0  0
   60.2160   33.8440   45.6840 C   0  0  0  0  0  0  0  0  0  0  0  0
   59.1860   34.7130   46.3020 N   0  0  0  0  0  0  0  0  0  0  0  0
   57.8310   34.2140   45.9910 C   0  0  0  0  0  0  0  0  0  0  0  0
   57.8900   32.7770   45.5410 C   0  0  0  0  0  0  0  0  0  0  0  0
   57.6910   32.4580   44.1870 C   0  0  0  0  0  0  0  0  0  0  0  0
   57.7370   31.1270   43.7630 C   0  0  0  0  0  0  0  0  0  0  0  0
   57.9820   30.1040   44.6870 C   0  0  0  0  0  0  0  0  0  0  0  0
   58.0380   28.4340   44.1520 Cl  0  0  0  0  0  0  0  0  0  0  0  0
   58.1820   30.4160   46.0350 C   0  0  0  0  0  0  0  0  0  0  0  0
   58.1360   31.7460   46.4630 C   0  0  0  0  0  0  0  0  0  0  0  0
   59.3730   34.9570   47.7570 C   0  0  0  0  0  0  0  0  0  0  0  0
   60.1720   33.8520   48.4650 C   0  0  0  0  0  0  0  0  0  0  0  0
   63.2160   31.7750   49.9860 H   0  0  0  0  0  0  0  0  0  0  0  0
   61.6190   32.2820   50.1410 H   0  0  0  0  0  0  0  0  0  0  0  0
   61.9201   30.8942   47.6965 H   0  0  0  0  0  0  0  0  0  0  0  0
   62.5247   29.9210   49.1012 H   0  0  0  0  0  0  0  0  0  0  0  0
   60.1036   28.5047   48.0812 H   0  0  0  0  0  0  0  0  0  0  0  0
   57.6964   28.6776   49.3024 H   0  0  0  0  0  0  0  0  0  0  0  0
   57.7410   30.9220   50.7575 H   0  0  0  0  0  0  0  0  0  0  0  0
   61.9281   35.0228   46.2765 H   0  0  0  0  0  0  0  0  0  0  0  0
   62.3004   33.3093   45.8844 H   0  0  0  0  0  0  0  0  0  0  0  0
   60.3216   34.1190   44.6242 H   0  0  0  0  0  0  0  0  0  0  0  0
   59.8881   32.8001   45.7968 H   0  0  0  0  0  0  0  0  0  0  0  0
   57.2028   34.2863   46.8911 H   0  0  0  0  0  0  0  0  0  0  0  0
   57.4036   34.8238   45.1814 H   0  0  0  0  0  0  0  0  0  0  0  0
   57.4983   33.2589   43.4580 H   0  0  0  0  0  0  0  0  0  0  0  0
   57.5805   30.8829   42.7019 H   0  0  0  0  0  0  0  0  0  0  0  0
   58.3761   29.6127   46.7609 H   0  0  0  0  0  0  0  0  0  0  0  0
   58.2929   31.9860   47.5250 H   0  0  0  0  0  0  0  0  0  0  0  0
   59.9078   35.9098   47.8845 H   0  0  0  0  0  0  0  0  0  0  0  0
   58.3724   34.9764   48.2135 H   0  0  0  0  0  0  0  0  0  0  0  0
   60.3603   34.1517   49.5065 H   0  0  0  0  0  0  0  0  0  0  0  0
   59.5901   32.9189   48.4392 H   0  0  0  0  0  0  0  0  0  0  0  0
  1  2  2  0
  2  3  1  0
  3  4  1  0
  4  5  1  0
  5  6  2  0
  6  7  1  0
  7  8  2  0
  8  9  1  0
  2 10  1  0
 10 11  1  0
 11 12  1  0
 12 13  1  0
 13 14  1  0
 14 15  1  0
 15 16  2  0
 16 17  1  0
 17 18  2  0
 18 19  1  0
 18 20  1  0
 20 21  2  0
 13 22  1  0
 22 23  1  0
  9  5  1  0
 23 10  1  0
 21 15  1  0
  3 24  1  0
  3 25  1  0
  4 26  1  0
  4 27  1  0
  6 28  1  0
  7 29  1  0
  8 30  1  0
 11 31  1  0
 11 32  1  0
 12 33  1  0
 12 34  1  0
 14 35  1  0
 14 36  1  0
 16 37  1  0
 17 38  1  0
 20 39  1  0
 21 40  1  0
 22 41  1  0
 22 42  1  0
 23 43  1  0
 23 44  1  0
M  CHG  1   3   1
M  END
>  <UniqueID>  (32) 
28

>  <SMILES>  (32) 
S=C([NH2+]Cc1ccco1)N1CCN(Cc2ccc(Cl)cc2)CC1

>  <Energy>  (32) 
78.70131929223159

>  <Genealogy>  (32) 
S=C([NH2+]Cc1ccco1)N1CCN(Cc2ccc(Cl)cc2)CC1 (protonated)
S=C([NH2+]Cc1ccco1)N1CCN(Cc2ccc(Cl)cc2)CC1 (3D coordinates assigned)
S=C([NH2+]Cc1ccco1)N1CCN(Cc2ccc(Cl)cc2)CC1 (nonaromatic ring conformer: 78.70131929223159 kcal/mol)

>  <smiles>  (32) 
S=C(NCc1ccco1)N1CCN(Cc2ccc(Cl)cc2)CC1

>  <score_type>  (32) 
oracle

>  <origin>  (32) 
adg

>  <m_score__min__energy>  (32) 
-5.4199999999999999

>  <m_primary>  (32) 
energy

$$$$
32:0
     RDKit          3D

 59 62  0  0  0  0  0  0  0  0999 V2000
   60.4770   33.1700   50.0620 C   0  0  0  0  0  0  0  0  0  0  0  0
   61.4460   34.2120   49.4980 C   0  0  0  0  0  0  0  0  0  0  0  0
   62.7920   33.6860   49.1990 N   0  0  0  0  0  0  0  0  0  0  0  0
   63.5360   33.0330   50.2950 C   0  0  0  0  0  0  0  0  0  0  0  0
   65.0610   33.1170   50.1600 C   0  0  0  0  0  0  0  0  0  0  0  0
   63.0180   33.0530   47.5820 S   0  0  0  0  0  0  0  0  0  0  0  0
   63.4150   34.1830   46.6750 O   0  0  0  0  0  0  0  0  0  0  0  0
   64.1350   32.0470   47.5750 O   0  0  0  0  0  0  0  0  0  0  0  0
   61.5500   32.3130   46.9400 C   0  0  0  0  0  0  0  0  0  0  0  0
   61.4560   30.9200   46.8450 C   0  0  0  0  0  0  0  0  0  0  0  0
   60.3170   30.3210   46.3070 C   0  0  0  0  0  0  0  0  0  0  0  0
   59.2340   31.1060   45.8520 C   0  0  0  0  0  0  0  0  0  0  0  0
   59.3210   32.5140   45.9870 C   0  0  0  0  0  0  0  0  0  0  0  0
   58.2500   33.3100   45.5730 C   0  0  0  0  0  0  0  0  0  0  0  0
   57.1170   32.7180   45.0290 C   0  0  0  0  0  0  0  0  0  0  0  0
   57.0560   31.3310   44.8880 C   0  0  0  0  0  0  0  0  0  0  0  0
   56.0230   30.8170   44.3770 O   0  0  0  0  0  0  0  0  0  0  0  0
   58.1050   30.5410   45.2910 N   0  0  0  0  0  0  0  0  0  0  0  0
   58.0090   29.1160   45.0910 C   0  0  0  0  0  0  0  0  0  0  0  0
   57.9840   28.5980   43.7900 C   0  0  0  0  0  0  0  0  0  0  0  0
   57.8860   27.2210   43.5780 C   0  0  0  0  0  0  0  0  0  0  0  0
   57.8230   26.7560   42.3040 F   0  0  0  0  0  0  0  0  0  0  0  0
   57.8130   26.3380   44.6720 C   0  0  0  0  0  0  0  0  0  0  0  0
   57.7100   24.8740   44.4640 C   0  0  0  0  0  0  0  0  0  0  0  0
   56.7520   24.3490   43.5760 C   0  0  0  0  0  0  0  0  0  0  0  0
   56.6490   22.9670   43.3840 C   0  0  0  0  0  0  0  0  0  0  0  0
   55.7270   22.4710   42.5230 F   0  0  0  0  0  0  0  0  0  0  0  0
   57.4960   22.0980   44.0770 C   0  0  0  0  0  0  0  0  0  0  0  0
   58.4470   22.6090   44.9640 C   0  0  0  0  0  0  0  0  0  0  0  0
   59.2630   21.7640   45.6420 F   0  0  0  0  0  0  0  0  0  0  0  0
   58.5530   23.9900   45.1600 C   0  0  0  0  0  0  0  0  0  0  0  0
   57.8360   26.8610   45.9770 C   0  0  0  0  0  0  0  0  0  0  0  0
   57.9360   28.2490   46.1940 C   0  0  0  0  0  0  0  0  0  0  0  0
   57.9640   28.8040   47.4850 O   0  0  0  0  0  0  0  0  0  0  0  0
   58.9670   28.5360   48.4580 C   0  0  0  0  0  0  0  0  0  0  0  0
   60.4710   33.1050   46.5310 C   0  0  0  0  0  0  0  0  0  0  0  0
   60.5051   33.2002   51.1612 H   0  0  0  0  0  0  0  0  0  0  0  0
   59.4570   33.3921   49.7150 H   0  0  0  0  0  0  0  0  0  0  0  0
   60.7725   32.1688   49.7150 H   0  0  0  0  0  0  0  0  0  0  0  0
   61.0179   34.6135   48.5677 H   0  0  0  0  0  0  0  0  0  0  0  0
   61.5719   34.9803   50.2751 H   0  0  0  0  0  0  0  0  0  0  0  0
   63.2470   33.5132   51.2415 H   0  0  0  0  0  0  0  0  0  0  0  0
   63.2750   31.9650   50.2603 H   0  0  0  0  0  0  0  0  0  0  0  0
   65.5169   33.1421   51.1608 H   0  0  0  0  0  0  0  0  0  0  0  0
   65.4295   32.2378   49.6112 H   0  0  0  0  0  0  0  0  0  0  0  0
   65.3307   34.0314   49.6112 H   0  0  0  0  0  0  0  0  0  0  0  0
   62.2875   30.2920   47.1976 H   0  0  0  0  0  0  0  0  0  0  0  0
   60.2613   29.2247   46.2361 H   0  0  0  0  0  0  0  0  0  0  0  0
   58.3038   34.4037   45.6776 H   0  0  0  0  0  0  0  0  0  0  0  0
   56.2691   33.3418   44.7098 H   0  0  0  0  0  0  0  0  0  0  0  0
   58.0420   29.2804   42.9292 H   0  0  0  0  0  0  0  0  0  0  0  0
   56.0811   25.0288   43.0304 H   0  0  0  0  0  0  0  0  0  0  0  0
   57.4140   21.0118   43.9242 H   0  0  0  0  0  0  0  0  0  0  0  0
   59.3004   24.3867   45.8629 H   0  0  0  0  0  0  0  0  0  0  0  0
   57.7752   26.1787   46.8377 H   0  0  0  0  0  0  0  0  0  0  0  0
   58.5403   28.6500   49.4654 H   0  0  0  0  0  0  0  0  0  0  0  0
   59.3362   27.5077   48.3304 H   0  0  0  0  0  0  0  0  0  0  0  0
   59.7999   29.2431   48.3304 H   0  0  0  0  0  0  0  0  0  0  0  0
   60.5251   34.1986   46.6369 H   0  0  0  0  0  0  0  0  0  0  0  0
  1  2  1  0
  2  3  1  0
  3  4  1  0
  4  5  1  0
  3  6  1  0
  6  7  2  0
  6  8  2  0
  6  9  1  0
  9 10  2  0
 10 11  1  0
 11 12  2  0
 12 13  1  0
 13 14  1  0
 14 15  2  0
 15 16  1  0
 16 17  2  0
 16 18  1  0
 18 19  1  0
 19 20  2  0
 20 21  1  0
 21 22  1  0
 21 23  2  0
 23 24  1  0
 24 25  2  0
 25 26  1  0
 26 27  1  0
 26 28  2  0
 28 29  1  0
 29 30  1  0
 29 31  2  0
 23 32  1  0
 32 33  2  0
 33 34  1  0
 34 35  1  0
 13 36  2  0
 36  9  1  0
 18 12  1  0
 33 19  1  0
 31 24  1  0
  1 37  1  0
  1 38  1  0
  1 39  1  0
  2 40  1  0
  2 41  1  0
  4 42  1  0
  4 43  1  0
  5 44  1  0
  5 45  1  0
  5 46  1  0
 10 47  1  0
 11 48  1  0
 14 49  1  0
 15 50  1  0
 20 51  1  0
 25 52  1  0
 28 53  1  0
 31 54  1  0
 32 55  1  0
 35 56  1  0
 35 57  1  0
 35 58  1  0
 36 59  1  0
M  END
>  <UniqueID>  (33) 
29

>  <SMILES>  (33) 
CCN(CC)S(=O)(=O)c1ccc2c(ccc(=O)n2-c2cc(F)c(-c3cc(F)cc(F)c3)cc2OC)c1

>  <Energy>  (33) 
90.08041103701134

>  <Genealogy>  (33) 
CCN(CC)S(=O)(=O)c1ccc2c(ccc(=O)n2-c2cc(F)c(-c3cc(F)cc(F)c3)cc2OC)c1 (3D coordinates assigned)
CCN(CC)S(=O)(=O)c1ccc2c(ccc(=O)n2-c2cc(F)c(-c3cc(F)cc(F)c3)cc2OC)c1 (optimized conformer: 90.08041103701134 kcal/mol)

>  <smiles>  (33) 
CCN(CC)S(=O)(=O)c1ccc2c(ccc(=O)n2-c2cc(F)c(-c3cc(F)cc(F)c3)cc2OC)c1

>  <score_type>  (33) 
oracle

>  <origin>  (33) 
adg

>  <m_score__min__energy>  (33) 
-9.5199999999999996

>  <m_primary>  (33) 
energy

$$$$
33:0
     RDKit          3D

 29 30  0  0  0  0  0  0  0  0999 V2000
   55.1800   29.7430   44.8950 N   0  0  0  0  0  0  0  0  0  0  0  0
   55.8470   29.6850   43.5950 C   0  0  0  0  0  0  0  0  0  0  0  0
   56.8290   30.8510   43.4000 C   0  0  0  0  0  0  0  0  0  0  0  0
   57.3010   31.3730   44.7010 N   0  0  0  0  0  0  0  0  0  0  0  0
   58.2670   30.4490   45.3260 C   0  0  0  0  0  0  0  0  0  0  0  0
   58.5250   30.8750   46.7720 C   0  0  0  0  0  0  0  0  0  0  0  0
   58.8300   32.3480   46.8750 C   0  0  0  0  0  0  0  0  0  0  0  0
   59.3860   32.8650   48.0580 C   0  0  0  0  0  0  0  0  0  0  0  0
   59.6910   32.0420   49.0940 F   0  0  0  0  0  0  0  0  0  0  0  0
   59.6320   34.2360   48.1810 C   0  0  0  0  0  0  0  0  0  0  0  0
   59.3170   35.1010   47.1320 C   0  0  0  0  0  0  0  0  0  0  0  0
   58.7510   34.6020   45.9580 C   0  0  0  0  0  0  0  0  0  0  0  0
   58.4840   33.2290   45.8270 C   0  0  0  0  0  0  0  0  0  0  0  0
   57.9240   32.7020   44.5280 C   0  0  0  0  0  0  0  0  0  0  0  0
   55.8700   30.0440   45.6200 H   0  0  0  0  0  0  0  0  0  0  0  0
   54.4200   30.4610   44.8570 H   0  0  0  0  0  0  0  0  0  0  0  0
   56.4013   28.7377   43.5221 H   0  0  0  0  0  0  0  0  0  0  0  0
   55.0759   29.7555   42.8137 H   0  0  0  0  0  0  0  0  0  0  0  0
   57.6941   30.4988   42.8190 H   0  0  0  0  0  0  0  0  0  0  0  0
   56.3088   31.6604   42.8668 H   0  0  0  0  0  0  0  0  0  0  0  0
   57.8577   29.4281   45.3129 H   0  0  0  0  0  0  0  0  0  0  0  0
   59.2123   30.4748   44.7641 H   0  0  0  0  0  0  0  0  0  0  0  0
   57.6311   30.6534   47.3735 H   0  0  0  0  0  0  0  0  0  0  0  0
   59.3983   30.3180   47.1423 H   0  0  0  0  0  0  0  0  0  0  0  0
   60.0746   34.6335   49.1063 H   0  0  0  0  0  0  0  0  0  0  0  0
   59.5153   36.1785   47.2308 H   0  0  0  0  0  0  0  0  0  0  0  0
   58.5127   35.2872   45.1311 H   0  0  0  0  0  0  0  0  0  0  0  0
   57.1652   33.4057   44.1553 H   0  0  0  0  0  0  0  0  0  0  0  0
   58.7534   32.6016   43.8125 H   0  0  0  0  0  0  0  0  0  0  0  0
  1  2  1  0
  2  3  1  0
  3  4  1  0
  4  5  1  0
  5  6  1  0
  6  7  1  0
  7  8  2  0
  8  9  1  0
  8 10  1  0
 10 11  2  0
 11 12  1  0
 12 13  2  0
 13 14  1  0
 14  4  1  0
 13  7  1  0
  1 15  1  0
  1 16  1  0
  2 17  1  0
  2 18  1  0
  3 19  1  0
  3 20  1  0
  5 21  1  0
  5 22  1  0
  6 23  1  0
  6 24  1  0
 10 25  1  0
 11 26  1  0
 12 27  1  0
 14 28  1  0
 14 29  1  0
M  END
>  <UniqueID>  (34) 
30

>  <SMILES>  (34) 
NCCN1CCc2c(F)cccc2C1

>  <Energy>  (34) 
30.19777619648264

>  <Genealogy>  (34) 
NCCN1CCc2c(F)cccc2C1 (3D coordinates assigned)
NCCN1CCc2c(F)cccc2C1 (nonaromatic ring conformer: 30.19777619648264 kcal/mol)

>  <smiles>  (34) 
NCCN1CCc2c(F)cccc2C1

>  <score_type>  (34) 
oracle

>  <origin>  (34) 
adg

>  <m_score__min__energy>  (34) 
-6.4900000000000002

>  <m_primary>  (34) 
energy

$$$$
34:0
     RDKit          3D

 52 55  0  0  1  0  0  0  0  0999 V2000
   56.9880   30.9800   42.9030 C   0  0  0  0  0  0  0  0  0  0  0  0
   56.5410   30.9040   44.2580 O   0  0  0  0  0  0  0  0  0  0  0  0
   57.1150   29.9530   45.0850 C   0  0  0  0  0  0  0  0  0  0  0  0
   56.6170   28.6600   45.1620 C   0  0  0  0  0  0  0  0  0  0  0  0
   57.2010   27.7030   46.0010 C   0  0  0  0  0  0  0  0  0  0  0  0
   56.6080   26.3840   46.0120 C   0  0  0  0  0  0  0  0  0  0  0  0
   55.3470   26.3350   46.0110 O   0  0  0  0  0  0  0  0  0  0  0  0
   57.3190   25.1270   46.0220 C   0  0  0  0  0  0  0  0  0  0  0  0
   58.0010   24.7700   47.0600 O   0  0  0  0  0  0  0  0  0  0  0  0
   57.3580   24.1870   44.9730 N   0  0  0  0  0  0  0  0  0  0  0  0
   58.1370   22.9470   45.1980 C   0  0  0  0  0  0  0  0  0  0  0  0
   57.1830   21.8010   44.9450 C   0  0  0  0  0  0  0  0  0  0  0  0
   56.2860   21.9610   43.8660 N   0  0  0  0  0  0  0  0  0  0  0  0
   56.6990   21.3950   42.6220 C   0  0  0  0  0  0  0  0  0  0  0  0
   55.6050   23.2270   43.7630 C   0  0  0  0  0  0  0  0  0  0  0  0
   56.7280   24.2770   43.6840 C   0  0  0  0  0  0  0  0  0  0  0  0
   58.2760   28.1160   46.7260 C   0  0  0  0  0  0  0  0  0  0  0  0
   58.7870   29.4060   46.6590 C   0  0  0  0  0  0  0  0  0  0  0  0
   58.2060   30.3340   45.8350 C   0  0  0  0  0  0  0  0  0  0  0  0
   58.7040   31.6580   45.7460 N   0  0  0  0  0  0  0  0  0  0  0  0
   59.3610   32.2470   46.6630 C   0  0  0  0  0  0  0  0  0  0  0  0
   60.6480   31.9660   46.8470 N   0  0  0  0  0  0  0  0  0  0  0  0
   61.3020   32.6130   47.8290 C   0  0  0  0  0  0  0  0  0  0  0  0
   62.6100   32.4020   48.1010 N   0  0  0  0  0  0  0  0  0  0  0  0
   63.2700   33.0530   49.0880 C   0  0  0  0  0  0  0  0  0  0  0  0
   64.9830   32.7360   49.3990 Cl  0  0  0  0  0  0  0  0  0  0  0  0
   62.6280   33.9950   49.8960 C   0  0  0  0  0  0  0  0  0  0  0  0
   61.2750   34.2330   49.6370 C   0  0  0  0  0  0  0  0  0  0  0  0
   60.6390   33.5510   48.6240 C   0  0  0  0  0  0  0  0  0  0  0  0
   59.2980   33.8220   48.4070 C   0  0  0  0  0  0  0  0  0  0  0  0
   58.6800   33.1550   47.4160 N   0  0  0  0  0  0  0  0  0  0  0  0
   58.0723   31.1644   42.8844 H   0  0  0  0  0  0  0  0  0  0  0  0
   56.7685   30.0316   42.3907 H   0  0  0  0  0  0  0  0  0  0  0  0
   56.4674   31.8025   42.3907 H   0  0  0  0  0  0  0  0  0  0  0  0
   55.7456   28.3811   44.5514 H   0  0  0  0  0  0  0  0  0  0  0  0
   58.9863   22.8978   44.5007 H   0  0  0  0  0  0  0  0  0  0  0  0
   58.5483   22.9101   46.2176 H   0  0  0  0  0  0  0  0  0  0  0  0
   57.7845   20.9008   44.7503 H   0  0  0  0  0  0  0  0  0  0  0  0
   56.5525   21.7398   45.8443 H   0  0  0  0  0  0  0  0  0  0  0  0
   57.3377   20.5197   42.8115 H   0  0  0  0  0  0  0  0  0  0  0  0
   55.8132   21.0852   42.0480 H   0  0  0  0  0  0  0  0  0  0  0  0
   57.2643   22.1440   42.0480 H   0  0  0  0  0  0  0  0  0  0  0  0
   54.9817   23.2584   42.8572 H   0  0  0  0  0  0  0  0  0  0  0  0
   54.9316   23.4049   44.6144 H   0  0  0  0  0  0  0  0  0  0  0  0
   57.4387   24.0338   42.8804 H   0  0  0  0  0  0  0  0  0  0  0  0
   56.3568   25.2872   43.4565 H   0  0  0  0  0  0  0  0  0  0  0  0
   58.7637   27.3938   47.3972 H   0  0  0  0  0  0  0  0  0  0  0  0
   59.6597   29.6831   47.2686 H   0  0  0  0  0  0  0  0  0  0  0  0
   63.1623   34.5246   50.6985 H   0  0  0  0  0  0  0  0  0  0  0  0
   60.7190   34.9644   50.2419 H   0  0  0  0  0  0  0  0  0  0  0  0
   58.7581   34.5562   49.0230 H   0  0  0  0  0  0  0  0  0  0  0  0
   57.6540   33.3300   47.2150 H   0  0  0  0  0  0  0  0  0  0  0  0
  1  2  1  0
  2  3  1  0
  3  4  2  0
  4  5  1  0
  5  6  1  0
  6  7  2  0
  6  8  1  0
  8  9  2  0
  8 10  1  0
 10 11  1  0
 11 12  1  0
 12 13  1  0
 13 14  1  0
 13 15  1  0
 15 16  1  0
  5 17  2  0
 17 18  1  0
 18 19  2  0
 19 20  1  0
 20 21  2  0
 21 22  1  0
 22 23  2  0
 23 24  1  0
 24 25  2  0
 25 26  1  0
 25 27  1  0
 27 28  2  0
 28 29  1  0
 29 30  2  0
 30 31  1  0
 19  3  1  0
 31 21  1  0
 16 10  1  0
 29 23  1  0
  1 32  1  0
  1 33  1  0
  1 34  1  0
  4 35  1  0
 11 36  1  0
 11 37  1  0
 12 38  1  0
 12 39  1  0
 14 40  1  0
 14 41  1  0
 14 42  1  0
 15 43  1  0
 15 44  1  0
 16 45  1  0
 16 46  1  0
 17 47  1  0
 18 48  1  0
 27 49  1  0
 28 50  1  0
 30 51  1  0
 31 52  1  0
M  END
>  <smiles>  (35) 
COc1cc(C(=O)C(=O)N2CCN(C)CC2)ccc1N=c1nc2nc(Cl)ccc2c[nH]1

>  <score_type>  (35) 
oracle

>  <origin>  (35) 
adg

>  <m_score__min__energy>  (35) 
-9.7599999999999998

>  <m_primary>  (35) 
energy

$$$$
35:0
     RDKit          3D

 40 42  0  0  0  0  0  0  0  0999 V2000
   55.3899   22.7014   42.4592 H   0  0  0  0  0  0  0  0  0  0  0  0
   56.0650   22.6330   43.3250 C   0  0  0  0  0  0  0  0  0  0  0  0
   56.0240   23.6140   44.3200 C   0  0  0  0  0  0  0  0  0  0  0  0
   55.3161   24.4513   44.2310 H   0  0  0  0  0  0  0  0  0  0  0  0
   56.8820   23.5400   45.4370 C   0  0  0  0  0  0  0  0  0  0  0  0
   56.8340   24.5880   46.4960 C   0  0  0  0  0  0  0  0  0  0  0  0
   56.5610   24.2380   47.7230 N   0  0  0  0  0  0  0  0  0  0  0  0
   56.0800   22.9310   48.1770 C   0  0  0  0  0  0  0  0  0  0  0  0
   56.1774   22.8704   49.2710 H   0  0  0  0  0  0  0  0  0  0  0  0
   56.6821   22.1459   47.6963 H   0  0  0  0  0  0  0  0  0  0  0  0
   54.6110   22.7310   47.7910 C   0  0  0  0  0  0  0  0  0  0  0  0
   54.5372   21.8955   47.0793 H   0  0  0  0  0  0  0  0  0  0  0  0
   54.2399   23.6610   47.3357 H   0  0  0  0  0  0  0  0  0  0  0  0
   53.7580   22.4180   49.0170 C   0  0  0  0  0  0  0  0  0  0  0  0
   54.3353   22.6298   49.9291 H   0  0  0  0  0  0  0  0  0  0  0  0
   52.8525   23.0424   49.0028 H   0  0  0  0  0  0  0  0  0  0  0  0
   53.4713   21.3561   49.0028 H   0  0  0  0  0  0  0  0  0  0  0  0
   57.0940   26.0080   46.1450 C   0  0  0  0  0  0  0  0  0  0  0  0
   56.0290   26.8390   45.7620 C   0  0  0  0  0  0  0  0  0  0  0  0
   54.7350   26.3310   45.6900 O   0  0  0  0  0  0  0  0  0  0  0  0
   56.2590   28.1810   45.4410 C   0  0  0  0  0  0  0  0  0  0  0  0
   55.1870   28.9790   45.0530 O   0  0  0  0  0  0  0  0  0  0  0  0
   57.5600   28.7120   45.5110 C   0  0  0  0  0  0  0  0  0  0  0  0
   57.8100   30.0590   45.1870 C   0  0  0  0  0  0  0  0  0  0  0  0
   56.9811   30.7076   44.8675 H   0  0  0  0  0  0  0  0  0  0  0  0
   59.1040   30.5760   45.2690 C   0  0  0  0  0  0  0  0  0  0  0  0
   59.2901   31.6299   45.0149 H   0  0  0  0  0  0  0  0  0  0  0  0
   60.1620   29.7610   45.6720 C   0  0  0  0  0  0  0  0  0  0  0  0
   61.1794   30.1746   45.7348 H   0  0  0  0  0  0  0  0  0  0  0  0
   59.9340   28.4220   45.9960 C   0  0  0  0  0  0  0  0  0  0  0  0
   60.7732   27.7855   46.3132 H   0  0  0  0  0  0  0  0  0  0  0  0
   58.6360   27.8820   45.9190 C   0  0  0  0  0  0  0  0  0  0  0  0
   58.3940   26.5340   46.2420 C   0  0  0  0  0  0  0  0  0  0  0  0
   59.4370   25.7140   46.6680 O   0  0  0  0  0  0  0  0  0  0  0  0
   57.7820   22.4590   45.5240 C   0  0  0  0  0  0  0  0  0  0  0  0
   58.4615   22.3834   46.3858 H   0  0  0  0  0  0  0  0  0  0  0  0
   57.8190   21.4810   44.5240 C   0  0  0  0  0  0  0  0  0  0  0  0
   58.5266   20.6425   44.6025 H   0  0  0  0  0  0  0  0  0  0  0  0
   56.9600   21.5670   43.4270 C   0  0  0  0  0  0  0  0  0  0  0  0
   56.9990   20.6180   42.4600 F   0  0  0  0  0  0  0  0  0  0  0  0
  1  2  1  0
  2  3  2  0
  3  4  1  0
  3  5  1  0
  5  6  1  0
  6  7  2  0
  7  8  1  0
  8  9  1  0
  8 10  1  0
  8 11  1  0
 11 12  1  0
 11 13  1  0
 11 14  1  0
 14 15  1  0
 14 16  1  0
 14 17  1  0
  6 18  1  0
 18 19  2  0
 19 20  1  0
 19 21  1  0
 21 22  1  0
 21 23  2  0
 23 24  1  0
 24 25  1  0
 24 26  2  0
 26 27  1  0
 26 28  1  0
 28 29  1  0
 28 30  2  0
 30 31  1  0
 30 32  1  0
 32 33  2  0
 33 34  1  0
  5 35  2  0
 35 36  1  0
 35 37  1  0
 37 38  1  0
 37 39  2  0
 39 40  1  0
 39  2  1  0
 33 18  1  0
 32 23  1  0
M  CHG  3  20  -1  22  -1  34  -1
M  END
>  <UniqueID>  (36) 
31

>  <SMILES>  (36) 
CCC/N=C(/c1ccc(F)cc1)c1c([O-])c([O-])c2ccccc2c1[O-]

>  <Energy>  (36) 
52.797118508083834

>  <Genealogy>  (36) 
CCCN=C(c1ccc(F)cc1)c1c([O-])c([O-])c2ccccc2c1[O-] (protonated)
CCC/N=C(/c1ccc(F)cc1)c1c([O-])c([O-])c2ccccc2c1[O-] (cis-trans isomerization)
CCC/N=C(/c1ccc(F)cc1)c1c([O-])c([O-])c2ccccc2c1[O-] (3D coordinates assigned)
CCC/N=C(/c1ccc(F)cc1)c1c([O-])c([O-])c2ccccc2c1[O-] (optimized conformer: 52.797118508083834 kcal/mol)

>  <smiles>  (36) 
CCCN=C(c1ccc(F)cc1)c1c(O)c(O)c2ccccc2c1O

>  <score_type>  (36) 
oracle

>  <origin>  (36) 
adg

>  <m_score__min__energy>  (36) 
-16.02

>  <m_primary>  (36) 
energy

$$$$
36:0
     RDKit          3D

 40 43  0  0  0  0  0  0  0  0999 V2000
   56.3550   26.3990   45.6780 N   0  0  0  0  0  0  0  0  0  0  0  0
   57.0280   27.6570   45.7370 C   0  0  0  0  0  0  0  0  0  0  0  0
   57.7860   27.9330   46.7570 N   0  0  0  0  0  0  0  0  0  0  0  0
   58.5640   29.1670   46.9120 C   0  0  0  0  0  0  0  0  0  0  0  0
   58.1470   30.2550   45.9540 C   0  0  0  0  0  0  0  0  0  0  0  0
   58.6340   31.5600   46.1190 C   0  0  0  0  0  0  0  0  0  0  0  0
   58.3060   32.5630   45.1920 C   0  0  0  0  0  0  0  0  0  0  0  0
   58.7910   33.9720   45.3970 C   0  0  0  0  0  0  0  0  0  0  0  0
   59.7840   34.0150   46.5210 C   0  0  0  0  0  0  0  0  0  0  0  0
   59.4420   34.5710   47.7630 C   0  0  0  0  0  0  0  0  0  0  0  0
   60.3490   34.5600   48.7770 N   0  0  0  0  0  0  0  0  0  0  0  0
   61.5810   34.0100   48.6120 C   0  0  0  0  0  0  0  0  0  0  0  0
   62.5040   34.0040   49.6620 C   0  0  0  0  0  0  0  0  0  0  0  0
   63.7700   33.4140   49.4880 C   0  0  0  0  0  0  0  0  0  0  0  0
   64.7860   33.4500   50.6020 C   0  0  0  0  0  0  0  0  0  0  0  0
   64.6060   34.6010   51.3450 F   0  0  0  0  0  0  0  0  0  0  0  0
   64.6410   32.3510   51.4320 F   0  0  0  0  0  0  0  0  0  0  0  0
   66.0730   33.4390   50.0920 F   0  0  0  0  0  0  0  0  0  0  0  0
   64.1080   32.8710   48.2330 C   0  0  0  0  0  0  0  0  0  0  0  0
   63.1850   32.8760   47.1830 C   0  0  0  0  0  0  0  0  0  0  0  0
   61.9220   33.4420   47.3690 C   0  0  0  0  0  0  0  0  0  0  0  0
   61.0140   33.4570   46.3580 N   0  0  0  0  0  0  0  0  0  0  0  0
   57.4780   32.2520   44.1020 C   0  0  0  0  0  0  0  0  0  0  0  0
   57.0000   30.9500   43.9290 C   0  0  0  0  0  0  0  0  0  0  0  0
   57.3350   29.9500   44.8510 C   0  0  0  0  0  0  0  0  0  0  0  0
   56.8300   28.6210   44.6990 N   0  0  0  0  0  0  0  0  0  0  0  0
   55.7310   26.1690   44.8740 H   0  0  0  0  0  0  0  0  0  0  0  0
   56.4810   25.6940   46.4390 H   0  0  0  0  0  0  0  0  0  0  0  0
   58.4328   29.5366   47.9397 H   0  0  0  0  0  0  0  0  0  0  0  0
   59.6137   28.9221   46.6926 H   0  0  0  0  0  0  0  0  0  0  0  0
   59.2764   31.7993   46.9792 H   0  0  0  0  0  0  0  0  0  0  0  0
   59.2701   34.3302   44.4739 H   0  0  0  0  0  0  0  0  0  0  0  0
   57.9347   34.6156   45.6471 H   0  0  0  0  0  0  0  0  0  0  0  0
   58.4465   35.0132   47.9160 H   0  0  0  0  0  0  0  0  0  0  0  0
   62.2401   34.4617   50.6268 H   0  0  0  0  0  0  0  0  0  0  0  0
   65.1076   32.4390   48.0777 H   0  0  0  0  0  0  0  0  0  0  0  0
   63.4532   32.4347   46.2117 H   0  0  0  0  0  0  0  0  0  0  0  0
   57.2042   33.0363   43.3809 H   0  0  0  0  0  0  0  0  0  0  0  0
   56.3596   30.7102   43.0674 H   0  0  0  0  0  0  0  0  0  0  0  0
   56.2420   28.3750   43.8700 H   0  0  0  0  0  0  0  0  0  0  0  0
  1  2  1  0
  2  3  2  0
  3  4  1  0
  4  5  1  0
  5  6  2  0
  6  7  1  0
  7  8  1  0
  8  9  1  0
  9 10  2  0
 10 11  1  0
 11 12  2  0
 12 13  1  0
 13 14  2  0
 14 15  1  0
 15 16  1  0
 15 17  1  0
 15 18  1  0
 14 19  1  0
 19 20  2  0
 20 21  1  0
 21 22  2  0
  7 23  2  0
 23 24  1  0
 24 25  2  0
 25 26  1  0
 26  2  1  0
 25  5  1  0
 22  9  1  0
 21 12  1  0
  1 27  1  0
  1 28  1  0
  4 29  1  0
  4 30  1  0
  6 31  1  0
  8 32  1  0
  8 33  1  0
 10 34  1  0
 13 35  1  0
 19 36  1  0
 20 37  1  0
 23 38  1  0
 24 39  1  0
 26 40  1  0
M  END
>  <UniqueID>  (37) 
32

>  <SMILES>  (37) 
NC1=NCc2cc(Cc3cnc4cc(C(F)(F)F)ccc4n3)ccc2N1

>  <Energy>  (37) 
48.06983923634402

>  <Genealogy>  (37) 
NC1=NCc2cc(Cc3cnc4cc(C(F)(F)F)ccc4n3)ccc2N1 (3D coordinates assigned)
NC1=NCc2cc(Cc3cnc4cc(C(F)(F)F)ccc4n3)ccc2N1 (nonaromatic ring conformer: 48.06983923634402 kcal/mol)

>  <smiles>  (37) 
NC1=NCc2cc(Cc3cnc4cc(C(F)(F)F)ccc4n3)ccc2N1

>  <score_type>  (37) 
oracle

>  <origin>  (37) 
adg

>  <m_score__min__energy>  (37) 
-8.5

>  <m_primary>  (37) 
energy

$$$$
37:0
     RDKit          3D

 33 33  0  0  0  0  0  0  0  0999 V2000
   54.8960   23.6030   46.0430 C   0  0  0  0  0  0  0  0  0  0  0  0
   55.4800   24.9620   45.7980 C   0  0  0  0  0  0  0  0  0  0  0  0
   54.7610   25.9780   45.9900 O   0  0  0  0  0  0  0  0  0  0  0  0
   56.8770   25.1370   45.3340 C   0  0  0  0  0  0  0  0  0  0  0  0
   57.6980   24.0820   45.1580 C   0  0  0  0  0  0  0  0  0  0  0  0
   57.6060   23.2050   44.0240 N   0  0  0  0  0  0  0  0  0  0  0  0
   58.1540   21.8580   44.1560 C   0  0  0  0  0  0  0  0  0  0  0  0
   56.5480   23.4240   43.0360 C   0  0  0  0  0  0  0  0  0  0  0  0
   57.3800   26.5060   45.0460 C   0  0  0  0  0  0  0  0  0  0  0  0
   58.3260   26.6570   44.2250 O   0  0  0  0  0  0  0  0  0  0  0  0
   56.8160   27.6540   45.7070 N   0  0  0  0  0  0  0  0  0  0  0  0
   57.1400   29.0140   45.3670 C   0  0  0  0  0  0  0  0  0  0  0  0
   56.5860   29.5830   44.2130 C   0  0  0  0  0  0  0  0  0  0  0  0
   56.9030   30.8940   43.8480 C   0  0  0  0  0  0  0  0  0  0  0  0
   57.7890   31.6480   44.6240 C   0  0  0  0  0  0  0  0  0  0  0  0
   58.1640   33.2950   44.1340 Cl  0  0  0  0  0  0  0  0  0  0  0  0
   58.3700   31.0780   45.7700 C   0  0  0  0  0  0  0  0  0  0  0  0
   59.5100   31.9810   46.7580 Cl  0  0  0  0  0  0  0  0  0  0  0  0
   58.0500   29.7640   46.1330 C   0  0  0  0  0  0  0  0  0  0  0  0
   54.8201   23.4264   47.1261 H   0  0  0  0  0  0  0  0  0  0  0  0
   53.8945   23.5474   45.5913 H   0  0  0  0  0  0  0  0  0  0  0  0
   55.5449   22.8382   45.5913 H   0  0  0  0  0  0  0  0  0  0  0  0
   58.4712   23.8845   45.9151 H   0  0  0  0  0  0  0  0  0  0  0  0
   58.2563   21.6066   45.2220 H   0  0  0  0  0  0  0  0  0  0  0  0
   57.4773   21.1379   43.6727 H   0  0  0  0  0  0  0  0  0  0  0  0
   59.1412   21.8148   43.6727 H   0  0  0  0  0  0  0  0  0  0  0  0
   55.5977   23.6207   43.5539 H   0  0  0  0  0  0  0  0  0  0  0  0
   56.8077   24.2874   42.4059 H   0  0  0  0  0  0  0  0  0  0  0  0
   56.4436   22.5284   42.4059 H   0  0  0  0  0  0  0  0  0  0  0  0
   56.1800   27.5080   46.5220 H   0  0  0  0  0  0  0  0  0  0  0  0
   55.8969   28.9939   43.5901 H   0  0  0  0  0  0  0  0  0  0  0  0
   56.4535   31.3350   42.9461 H   0  0  0  0  0  0  0  0  0  0  0  0
   58.5138   29.3152   47.0238 H   0  0  0  0  0  0  0  0  0  0  0  0
  1  2  1  0
  2  3  2  0
  2  4  1  0
  4  5  2  3
  5  6  1  0
  6  7  1  0
  6  8  1  0
  4  9  1  0
  9 10  2  0
  9 11  1  0
 11 12  1  0
 12 13  2  0
 13 14  1  0
 14 15  2  0
 15 16  1  0
 15 17  1  0
 17 18  1  0
 17 19  2  0
 19 12  1  0
  1 20  1  0
  1 21  1  0
  1 22  1  0
  5 23  1  0
  7 24  1  0
  7 25  1  0
  7 26  1  0
  8 27  1  0
  8 28  1  0
  8 29  1  0
 11 30  1  0
 13 31  1  0
 14 32  1  0
 19 33  1  0
M  END
>  <UniqueID>  (38) 
33

>  <SMILES>  (38) 
CC(=O)C(=CN(C)C)C(=O)Nc1ccc(Cl)c(Cl)c1

>  <Energy>  (38) 
43.21220579643029

>  <Genealogy>  (38) 
CC(=O)C(=CN(C)C)C(=O)Nc1ccc(Cl)c(Cl)c1 (3D coordinates assigned)
CC(=O)C(=CN(C)C)C(=O)Nc1ccc(Cl)c(Cl)c1 (optimized conformer: 43.21220579643029 kcal/mol)

>  <smiles>  (38) 
CC(=O)C(=CN(C)C)C(=O)Nc1ccc(Cl)c(Cl)c1

>  <score_type>  (38) 
oracle

>  <origin>  (38) 
adg

>  <m_score__min__energy>  (38) 
-6.6699999999999999

>  <m_primary>  (38) 
energy

$$$$
38:0
     RDKit          3D

 58 62  0  0  0  0  0  0  0  0999 V2000
   57.4460   28.9340   45.8640 F   0  0  0  0  0  0  0  0  0  0  0  0
   58.5350   29.4070   46.5210 C   0  0  0  0  0  0  0  0  0  0  0  0
   59.6580   29.8250   45.8010 C   0  0  0  0  0  0  0  0  0  0  0  0
   60.7780   30.3200   46.4750 C   0  0  0  0  0  0  0  0  0  0  0  0
   60.7890   30.4050   47.8810 C   0  0  0  0  0  0  0  0  0  0  0  0
   62.0140   30.9780   48.5740 C   0  0  1  0  0  0  0  0  0  0  0  0
   62.5230   32.2480   47.8920 C   0  0  0  0  0  0  0  0  0  0  0  0
   63.6880   32.3050   47.2220 N   0  0  0  0  0  0  0  0  0  0  0  0
   63.7820   33.5230   46.7150 N   0  0  0  0  0  0  0  0  0  0  0  0
   62.7020   34.2140   47.0480 N   0  0  0  0  0  0  0  0  0  0  0  0
   61.9050   33.4560   47.7910 N   0  0  0  0  0  0  0  0  0  0  0  0
   60.5480   33.8560   48.1850 C   0  0  0  0  0  0  0  0  0  0  0  0
   59.5970   33.7330   47.0210 C   0  0  0  0  0  0  0  0  0  0  0  0
   59.9270   34.2940   45.7750 C   0  0  0  0  0  0  0  0  0  0  0  0
   59.0200   34.2290   44.7110 C   0  0  0  0  0  0  0  0  0  0  0  0
   57.7750   33.6130   44.8910 C   0  0  0  0  0  0  0  0  0  0  0  0
   57.4350   33.0590   46.1320 C   0  0  0  0  0  0  0  0  0  0  0  0
   58.3400   33.1210   47.1940 C   0  0  0  0  0  0  0  0  0  0  0  0
   61.8070   31.1030   50.0500 N   0  0  0  0  0  0  0  0  0  0  0  0
   61.6020   32.4530   50.6170 C   0  0  0  0  0  0  0  0  0  0  0  0
   62.8640   33.0720   51.2680 C   0  0  0  0  0  0  0  0  0  0  0  0
   64.1140   32.3440   50.9740 N   0  0  0  0  0  0  0  0  0  0  0  0
   65.3760   33.0520   51.0530 C   0  0  0  0  0  0  0  0  0  0  0  0
   66.5210   32.5690   50.3850 C   0  0  0  0  0  0  0  0  0  0  0  0
   67.7300   33.2700   50.4400 C   0  0  0  0  0  0  0  0  0  0  0  0
   67.8190   34.4540   51.1710 C   0  0  0  0  0  0  0  0  0  0  0  0
   68.9890   35.1390   51.2130 F   0  0  0  0  0  0  0  0  0  0  0  0
   66.7020   34.9360   51.8550 C   0  0  0  0  0  0  0  0  0  0  0  0
   65.4910   34.2400   51.8020 C   0  0  0  0  0  0  0  0  0  0  0  0
   64.1210   30.8710   50.8880 C   0  0  0  0  0  0  0  0  0  0  0  0
   62.7070   30.2890   50.8820 C   0  0  0  0  0  0  0  0  0  0  0  0
   59.6570   29.9630   48.5950 C   0  0  0  0  0  0  0  0  0  0  0  0
   58.5360   29.4730   47.9160 C   0  0  0  0  0  0  0  0  0  0  0  0
   59.6602   29.7643   44.7027 H   0  0  0  0  0  0  0  0  0  0  0  0
   61.6587   30.6461   45.9023 H   0  0  0  0  0  0  0  0  0  0  0  0
   62.8360   30.2559   48.4602 H   0  0  0  0  0  0  0  0  0  0  0  0
   64.3750   31.5350   47.0630 H   0  0  0  0  0  0  0  0  0  0  0  0
   60.2033   33.2065   49.0031 H   0  0  0  0  0  0  0  0  0  0  0  0
   60.5701   34.9053   48.5143 H   0  0  0  0  0  0  0  0  0  0  0  0
   60.9011   34.7856   45.6358 H   0  0  0  0  0  0  0  0  0  0  0  0
   59.2846   34.6611   43.7347 H   0  0  0  0  0  0  0  0  0  0  0  0
   57.0617   33.5641   44.0550 H   0  0  0  0  0  0  0  0  0  0  0  0
   56.4565   32.5758   46.2698 H   0  0  0  0  0  0  0  0  0  0  0  0
   58.0701   32.6902   48.1695 H   0  0  0  0  0  0  0  0  0  0  0  0
   61.2705   33.1196   49.8072 H   0  0  0  0  0  0  0  0  0  0  0  0
   60.8555   32.3471   51.4179 H   0  0  0  0  0  0  0  0  0  0  0  0
   62.9709   34.1036   50.9013 H   0  0  0  0  0  0  0  0  0  0  0  0
   62.7162   33.0206   52.3568 H   0  0  0  0  0  0  0  0  0  0  0  0
   66.4622   31.6304   49.8144 H   0  0  0  0  0  0  0  0  0  0  0  0
   68.6119   32.8867   49.9058 H   0  0  0  0  0  0  0  0  0  0  0  0
   66.7749   35.8663   52.4375 H   0  0  0  0  0  0  0  0  0  0  0  0
   64.6184   34.6238   52.3509 H   0  0  0  0  0  0  0  0  0  0  0  0
   64.6316   30.5722   49.9607 H   0  0  0  0  0  0  0  0  0  0  0  0
   64.6438   30.4822   51.7743 H   0  0  0  0  0  0  0  0  0  0  0  0
   62.7407   29.2654   50.4807 H   0  0  0  0  0  0  0  0  0  0  0  0
   62.3244   30.2854   51.9133 H   0  0  0  0  0  0  0  0  0  0  0  0
   59.6548   30.0036   49.6943 H   0  0  0  0  0  0  0  0  0  0  0  0
   57.6539   29.1391   48.4820 H   0  0  0  0  0  0  0  0  0  0  0  0
  1  2  1  0
  2  3  2  0
  3  4  1  0
  4  5  2  0
  5  6  1  0
  6  7  1  0
  7  8  2  0
  8  9  1  0
  9 10  2  0
 10 11  1  0
 11 12  1  0
 12 13  1  0
 13 14  2  0
 14 15  1  0
 15 16  2  0
 16 17  1  0
 17 18  2  0
  6 19  1  0
 19 20  1  0
 20 21  1  0
 21 22  1  0
 22 23  1  0
 23 24  2  0
 24 25  1  0
 25 26  2  0
 26 27  1  0
 26 28  1  0
 28 29  2  0
 22 30  1  0
 30 31  1  0
  5 32  1  0
 32 33  2  0
 33  2  1  0
 11  7  1  0
 18 13  1  0
 31 19  1  0
 29 23  1  0
  3 34  1  0
  4 35  1  0
  6 36  1  1
  8 37  1  0
 12 38  1  0
 12 39  1  0
 14 40  1  0
 15 41  1  0
 16 42  1  0
 17 43  1  0
 18 44  1  0
 20 45  1  0
 20 46  1  0
 21 47  1  0
 21 48  1  0
 24 49  1  0
 25 50  1  0
 28 51  1  0
 29 52  1  0
 30 53  1  0
 30 54  1  0
 31 55  1  0
 31 56  1  0
 32 57  1  0
 33 58  1  0
M  CHG  1   8   1
M  END
>  <UniqueID>  (39) 
34

>  <SMILES>  (39) 
Fc1ccc([C@@H](c2[nH+]nnn2Cc2ccccc2)N2CCN(c3ccc(F)cc3)CC2)cc1

>  <Energy>  (39) 
127.15196254666033

>  <Genealogy>  (39) 
Fc1ccc(C(c2[nH+]nnn2Cc2ccccc2)N2CCN(c3ccc(F)cc3)CC2)cc1 (protonated)
Fc1ccc([C@@H](c2[nH+]nnn2Cc2ccccc2)N2CCN(c3ccc(F)cc3)CC2)cc1 (chirality)
Fc1ccc([C@@H](c2[nH+]nnn2Cc2ccccc2)N2CCN(c3ccc(F)cc3)CC2)cc1 (3D coordinates assigned)
Fc1ccc([C@@H](c2[nH+]nnn2Cc2ccccc2)N2CCN(c3ccc(F)cc3)CC2)cc1 (nonaromatic ring conformer: 127.15196254666033 kcal/mol)

>  <smiles>  (39) 
Fc1ccc(C(c2nnnn2Cc2ccccc2)N2CCN(c3ccc(F)cc3)CC2)cc1

>  <score_type>  (39) 
oracle

>  <origin>  (39) 
adg

>  <m_score__min__energy>  (39) 
-7.7400000000000002

>  <m_primary>  (39) 
energy

$$$$
39:0
     RDKit          3D

 58 62  0  0  0  0  0  0  0  0999 V2000
   57.6470   31.7120   43.0130 C   0  0  0  0  0  0  0  0  0  0  0  0
   56.6370   30.3430   43.5380 S   0  0  0  0  0  0  0  0  0  0  0  0
   55.5770   30.8420   44.4790 O   0  0  0  0  0  0  0  0  0  0  0  0
   55.9710   29.7140   42.3450 O   0  0  0  0  0  0  0  0  0  0  0  0
   57.6480   29.1460   44.3450 C   0  0  0  0  0  0  0  0  0  0  0  0
   57.7730   27.8520   43.8240 C   0  0  0  0  0  0  0  0  0  0  0  0
   58.5660   26.9070   44.4810 C   0  0  0  0  0  0  0  0  0  0  0  0
   59.2340   27.2440   45.6650 C   0  0  0  0  0  0  0  0  0  0  0  0
   59.1030   28.5300   46.2140 C   0  0  0  0  0  0  0  0  0  0  0  0
   59.7980   28.8680   47.4810 C   0  0  0  0  0  0  0  0  0  0  0  0
   59.7170   28.0360   48.6180 C   0  0  0  0  0  0  0  0  0  0  0  0
   60.4010   28.3650   49.7460 N   0  0  0  0  0  0  0  0  0  0  0  0
   61.1640   29.4880   49.8030 C   0  0  0  0  0  0  0  0  0  0  0  0
   61.8720   29.8070   50.9610 C   0  0  0  0  0  0  0  0  0  0  0  0
   62.6520   30.9660   51.0010 C   0  0  0  0  0  0  0  0  0  0  0  0
   62.7250   31.8420   49.8910 C   0  0  0  0  0  0  0  0  0  0  0  0
   63.5340   33.0540   49.9430 N   0  0  0  0  0  0  0  0  0  0  0  0
   62.8690   34.3820   49.9710 C   0  0  0  0  0  0  0  0  0  0  0  0
   61.3940   34.3140   49.5050 C   0  0  0  0  0  0  0  0  0  0  0  0
   61.3060   34.2210   48.0730 O   0  0  0  0  0  0  0  0  0  0  0  0
   60.1240   34.1020   47.3220 C   0  0  0  0  0  0  0  0  0  0  0  0
   59.9400   34.7440   46.0790 C   0  0  0  0  0  0  0  0  0  0  0  0
   58.7570   34.5560   45.3590 C   0  0  0  0  0  0  0  0  0  0  0  0
   57.7520   33.7270   45.8690 C   0  0  0  0  0  0  0  0  0  0  0  0
   57.9200   33.1010   47.1050 C   0  0  0  0  0  0  0  0  0  0  0  0
   59.0960   33.2950   47.8360 C   0  0  0  0  0  0  0  0  0  0  0  0
   59.2610   32.6640   49.0260 F   0  0  0  0  0  0  0  0  0  0  0  0
   64.9400   33.0140   49.4970 C   0  0  0  0  0  0  0  0  0  0  0  0
   65.9630   33.4420   50.5390 C   0  0  0  0  0  0  0  0  0  0  0  0
   65.8080   31.9730   50.2020 C   0  0  0  0  0  0  0  0  0  0  0  0
   61.9960   31.5050   48.7280 C   0  0  0  0  0  0  0  0  0  0  0  0
   61.2370   30.3310   48.6780 C   0  0  0  0  0  0  0  0  0  0  0  0
   60.5610   29.9940   47.5470 N   0  0  0  0  0  0  0  0  0  0  0  0
   58.3120   29.4810   45.5370 C   0  0  0  0  0  0  0  0  0  0  0  0
   58.0366   32.2400   43.8959 H   0  0  0  0  0  0  0  0  0  0  0  0
   58.4870   31.3377   42.4094 H   0  0  0  0  0  0  0  0  0  0  0  0
   57.0415   32.4041   42.4094 H   0  0  0  0  0  0  0  0  0  0  0  0
   57.2468   27.5793   42.8973 H   0  0  0  0  0  0  0  0  0  0  0  0
   58.6660   25.8932   44.0660 H   0  0  0  0  0  0  0  0  0  0  0  0
   59.8652   26.4967   46.1681 H   0  0  0  0  0  0  0  0  0  0  0  0
   59.1024   27.1241   48.5917 H   0  0  0  0  0  0  0  0  0  0  0  0
   61.8168   29.1485   51.8404 H   0  0  0  0  0  0  0  0  0  0  0  0
   63.2203   31.2023   51.9127 H   0  0  0  0  0  0  0  0  0  0  0  0
   62.8967   34.7692   51.0002 H   0  0  0  0  0  0  0  0  0  0  0  0
   63.4097   35.0423   49.2770 H   0  0  0  0  0  0  0  0  0  0  0  0
   60.9166   33.4296   49.9522 H   0  0  0  0  0  0  0  0  0  0  0  0
   60.8838   35.2339   49.8268 H   0  0  0  0  0  0  0  0  0  0  0  0
   60.7300   35.3944   45.6755 H   0  0  0  0  0  0  0  0  0  0  0  0
   58.6161   35.0598   44.3914 H   0  0  0  0  0  0  0  0  0  0  0  0
   56.8274   33.5683   45.2946 H   0  0  0  0  0  0  0  0  0  0  0  0
   57.1256   32.4537   47.5049 H   0  0  0  0  0  0  0  0  0  0  0  0
   64.7323   33.2834   48.4509 H   0  0  0  0  0  0  0  0  0  0  0  0
   66.8687   33.9837   50.2288 H   0  0  0  0  0  0  0  0  0  0  0  0
   65.9250   34.0331   51.4659 H   0  0  0  0  0  0  0  0  0  0  0  0
   66.5999   31.4497   49.6461 H   0  0  0  0  0  0  0  0  0  0  0  0
   65.6103   31.0588   50.7810 H   0  0  0  0  0  0  0  0  0  0  0  0
   62.0257   32.1722   47.8539 H   0  0  0  0  0  0  0  0  0  0  0  0
   58.2137   30.4970   45.9469 H   0  0  0  0  0  0  0  0  0  0  0  0
  1  2  1  0
  2  3  2  0
  2  4  2  0
  2  5  1  0
  5  6  2  0
  6  7  1  0
  7  8  2  0
  8  9  1  0
  9 10  1  0
 10 11  2  0
 11 12  1  0
 12 13  2  0
 13 14  1  0
 14 15  2  0
 15 16  1  0
 16 17  1  0
 17 18  1  0
 18 19  1  0
 19 20  1  0
 20 21  1  0
 21 22  2  0
 22 23  1  0
 23 24  2  0
 24 25  1  0
 25 26  2  0
 26 27  1  0
 17 28  1  0
 28 29  1  0
 29 30  1  0
 16 31  2  0
 31 32  1  0
 32 33  2  0
  9 34  2  0
 34  5  1  0
 33 10  1  0
 32 13  1  0
 26 21  1  0
 30 28  1  0
  1 35  1  0
  1 36  1  0
  1 37  1  0
  6 38  1  0
  7 39  1  0
  8 40  1  0
 11 41  1  0
 14 42  1  0
 15 43  1  0
 18 44  1  0
 18 45  1  0
 19 46  1  0
 19 47  1  0
 22 48  1  0
 23 49  1  0
 24 50  1  0
 25 51  1  0
 28 52  1  0
 29 53  1  0
 29 54  1  0
 30 55  1  0
 30 56  1  0
 31 57  1  0
 34 58  1  0
M  END
>  <UniqueID>  (40) 
35

>  <SMILES>  (40) 
CS(=O)(=O)c1cccc(-c2cnc3ccc(N(CCOc4ccccc4F)C4CC4)cc3n2)c1

>  <Energy>  (40) 
338.4820173590695

>  <Genealogy>  (40) 
CS(=O)(=O)c1cccc(-c2cnc3ccc(N(CCOc4ccccc4F)C4CC4)cc3n2)c1 (3D coordinates assigned)
CS(=O)(=O)c1cccc(-c2cnc3ccc(N(CCOc4ccccc4F)C4CC4)cc3n2)c1 (nonaromatic ring conformer: 338.4820173590695 kcal/mol)

>  <smiles>  (40) 
CS(=O)(=O)c1cccc(-c2cnc3ccc(N(CCOc4ccccc4F)C4CC4)cc3n2)c1

>  <score_type>  (40) 
oracle

>  <origin>  (40) 
adg

>  <m_score__min__energy>  (40) 
-9.4499999999999993

>  <m_primary>  (40) 
energy

$$$$
40:0
     RDKit          3D

 27 28  0  0  0  0  0  0  0  0999 V2000
   59.7200   34.4060   48.4510 C   0  0  0  0  0  0  0  0  0  0  0  0
   58.5210   33.8840   47.8880 O   0  0  0  0  0  0  0  0  0  0  0  0
   58.3980   33.4230   46.5690 C   0  0  0  0  0  0  0  0  0  0  0  0
   58.8480   34.2500   45.5340 C   0  0  0  0  0  0  0  0  0  0  0  0
   58.7480   33.8420   44.2020 C   0  0  0  0  0  0  0  0  0  0  0  0
   58.1810   32.6000   43.8860 C   0  0  0  0  0  0  0  0  0  0  0  0
   57.7380   31.7470   44.9160 C   0  0  0  0  0  0  0  0  0  0  0  0
   57.8430   32.1660   46.2560 C   0  0  0  0  0  0  0  0  0  0  0  0
   57.1700   30.4220   44.5410 C   0  0  0  0  0  0  0  0  0  0  0  0
   56.9990   29.3290   45.5670 C   0  0  0  0  0  0  0  0  0  0  0  0
   55.9450   28.4670   45.2260 O   0  0  0  0  0  0  0  0  0  0  0  0
   56.8400   30.1940   43.3010 N   0  0  0  0  0  0  0  0  0  0  0  0
   56.9080   31.2150   42.2540 C   0  0  0  0  0  0  0  0  0  0  0  0
   58.1220   32.1300   42.4560 C   0  0  0  0  0  0  0  0  0  0  0  0
   59.6528   34.3767   49.5486 H   0  0  0  0  0  0  0  0  0  0  0  0
   60.5753   33.7988   48.1197 H   0  0  0  0  0  0  0  0  0  0  0  0
   59.8583   35.4458   48.1197 H   0  0  0  0  0  0  0  0  0  0  0  0
   59.2848   35.2312   45.7717 H   0  0  0  0  0  0  0  0  0  0  0  0
   59.1154   34.4975   43.3986 H   0  0  0  0  0  0  0  0  0  0  0  0
   57.4896   31.5081   47.0637 H   0  0  0  0  0  0  0  0  0  0  0  0
   57.9308   28.7478   45.6295 H   0  0  0  0  0  0  0  0  0  0  0  0
   56.7649   29.7962   46.5349 H   0  0  0  0  0  0  0  0  0  0  0  0
   55.9330   28.4100   44.2340 H   0  0  0  0  0  0  0  0  0  0  0  0
   56.9891   30.7209   41.2746 H   0  0  0  0  0  0  0  0  0  0  0  0
   55.9957   31.8277   42.3025 H   0  0  0  0  0  0  0  0  0  0  0  0
   59.0407   31.5743   42.2171 H   0  0  0  0  0  0  0  0  0  0  0  0
   58.0306   33.0027   41.7927 H   0  0  0  0  0  0  0  0  0  0  0  0
  1  2  1  0
  2  3  1  0
  3  4  2  0
  4  5  1  0
  5  6  2  0
  6  7  1  0
  7  8  2  0
  7  9  1  0
  9 10  1  0
 10 11  1  0
  9 12  2  0
 12 13  1  0
 13 14  1  0
  8  3  1  0
 14  6  1  0
  1 15  1  0
  1 16  1  0
  1 17  1  0
  4 18  1  0
  5 19  1  0
  8 20  1  0
 10 21  1  0
 10 22  1  0
 11 23  1  0
 13 24  1  0
 13 25  1  0
 14 26  1  0
 14 27  1  0
M  END
>  <UniqueID>  (41) 
36

>  <SMILES>  (41) 
COc1ccc2c(c1)C(CO)=NCC2

>  <Energy>  (41) 
29.067043817928006

>  <Genealogy>  (41) 
COc1ccc2c(c1)C(CO)=NCC2 (3D coordinates assigned)
COc1ccc2c(c1)C(CO)=NCC2 (nonaromatic ring conformer: 29.067043817928006 kcal/mol)

>  <smiles>  (41) 
COc1ccc2c(c1)C(CO)=NCC2

>  <score_type>  (41) 
oracle

>  <origin>  (41) 
adg

>  <m_score__min__energy>  (41) 
-5.4299999999999997

>  <m_primary>  (41) 
energy

$$$$
41:0
     RDKit          3D

 71 75  0  0  0  0  0  0  0  0999 V2000
   61.7516   30.3091   46.4299 H   0  0  0  0  0  0  0  0  0  0  0  0
   60.6530   30.2930   46.3760 C   0  0  0  0  0  0  0  0  0  0  0  0
   59.9780   31.4080   46.6840 C   0  0  0  0  0  0  0  0  0  0  0  0
   59.2301   31.3435   47.4880 H   0  0  0  0  0  0  0  0  0  0  0  0
   60.1670   32.7580   46.0060 C   0  0  2  0  0  0  0  0  0  0  0  0
   60.7826   32.4165   45.1608 H   0  0  0  0  0  0  0  0  0  0  0  0
   60.9180   33.8650   46.7960 C   0  0  2  0  0  0  0  0  0  0  0  0
   61.6076   34.2453   46.0280 H   0  0  0  0  0  0  0  0  0  0  0  0
   61.8410   33.5490   47.9800 C   0  0  2  0  0  0  0  0  0  0  0  0
   62.6029   34.3424   47.9796 H   0  0  0  0  0  0  0  0  0  0  0  0
   62.8140   32.3510   47.9250 C   0  0  0  0  0  0  0  0  0  0  0  0
   63.7395   32.6644   47.4198 H   0  0  0  0  0  0  0  0  0  0  0  0
   62.3262   31.5336   47.3737 H   0  0  0  0  0  0  0  0  0  0  0  0
   63.1630   31.8410   49.3460 C   0  0  0  0  0  0  0  0  0  0  0  0
   64.1681   31.3946   49.3232 H   0  0  0  0  0  0  0  0  0  0  0  0
   62.3984   31.1040   49.6327 H   0  0  0  0  0  0  0  0  0  0  0  0
   63.1460   32.9690   50.4030 C   0  0  0  0  0  0  0  0  0  0  0  0
   63.9309   33.6966   50.1491 H   0  0  0  0  0  0  0  0  0  0  0  0
   63.3163   32.4986   51.3826 H   0  0  0  0  0  0  0  0  0  0  0  0
   61.7880   33.7180   50.4840 C   0  0  0  0  0  0  0  0  0  0  0  0
   61.9821   34.7916   50.6247 H   0  0  0  0  0  0  0  0  0  0  0  0
   61.2203   33.3028   51.3298 H   0  0  0  0  0  0  0  0  0  0  0  0
   60.9470   33.5270   49.2050 C   0  0  1  0  0  0  0  0  0  0  0  0
   60.4425   32.5667   49.3874 H   0  0  0  0  0  0  0  0  0  0  0  0
   59.8780   34.5900   48.9300 C   0  0  0  0  0  0  0  0  0  0  0  0
   60.1453   35.5360   49.4237 H   0  0  0  0  0  0  0  0  0  0  0  0
   58.8968   34.2814   49.3199 H   0  0  0  0  0  0  0  0  0  0  0  0
   59.8400   34.7790   47.3910 C   0  0  2  0  0  0  0  0  0  0  0  0
   59.9963   35.8520   47.2060 H   0  0  0  0  0  0  0  0  0  0  0  0
   58.5060   34.4150   46.7140 C   0  0  0  0  0  0  0  0  0  0  0  0
   58.0229   35.3179   46.3124 H   0  0  0  0  0  0  0  0  0  0  0  0
   57.8046   33.9584   47.4278 H   0  0  0  0  0  0  0  0  0  0  0  0
   58.8570   33.4460   45.5740 C   0  0  2  0  0  0  0  0  0  0  0  0
   59.0086   33.9857   44.6276 H   0  0  0  0  0  0  0  0  0  0  0  0
   57.7270   32.5110   45.1660 C   0  0  0  0  0  0  0  0  0  0  0  0
   56.5630   32.6950   45.6130 O   0  0  0  0  0  0  0  0  0  0  0  0
   57.9450   31.4070   44.2790 N   0  0  0  0  0  0  0  0  0  0  0  0
   57.3220   31.2430   42.9710 C   0  0  0  0  0  0  0  0  0  0  0  0
   58.1021   31.1899   42.1973 H   0  0  0  0  0  0  0  0  0  0  0  0
   56.6628   32.1001   42.7687 H   0  0  0  0  0  0  0  0  0  0  0  0
   56.5010   29.9540   42.9560 C   0  0  0  0  0  0  0  0  0  0  0  0
   57.1826   29.0936   43.0276 H   0  0  0  0  0  0  0  0  0  0  0  0
   55.9273   29.9172   42.0182 H   0  0  0  0  0  0  0  0  0  0  0  0
   55.5200   29.9110   44.1250 C   0  0  0  0  0  0  0  0  0  0  0  0
   56.0777   29.9354   45.0728 H   0  0  0  0  0  0  0  0  0  0  0  0
   54.8484   30.7806   44.0722 H   0  0  0  0  0  0  0  0  0  0  0  0
   54.9270   28.9860   44.0722 H   0  0  0  0  0  0  0  0  0  0  0  0
   59.9820   29.0430   45.9670 C   0  0  0  0  0  0  0  0  0  0  0  0
   60.3460   27.8510   46.5110 N   0  0  0  0  0  0  0  0  0  0  0  0
   59.7290   26.6950   46.1570 C   0  0  0  0  0  0  0  0  0  0  0  0
   60.0412   25.7442   46.6136 H   0  0  0  0  0  0  0  0  0  0  0  0
   58.6950   26.7100   45.2110 C   0  0  0  0  0  0  0  0  0  0  0  0
   58.0020   25.4590   44.8080 C   0  0  0  0  0  0  0  0  0  0  0  0
   57.4200   25.3430   43.5340 C   0  0  0  0  0  0  0  0  0  0  0  0
   57.4790   26.1853   42.8290 H   0  0  0  0  0  0  0  0  0  0  0  0
   56.7670   24.1670   43.1550 C   0  0  0  0  0  0  0  0  0  0  0  0
   56.3173   24.0888   42.1542 H   0  0  0  0  0  0  0  0  0  0  0  0
   56.6820   23.0820   44.0480 C   0  0  0  0  0  0  0  0  0  0  0  0
   56.0340   21.8830   43.7170 O   0  0  0  0  0  0  0  0  0  0  0  0
   56.6810   20.7540   43.1380 C   0  0  0  0  0  0  0  0  0  0  0  0
   57.0572   20.0975   43.9365 H   0  0  0  0  0  0  0  0  0  0  0  0
   55.9635   20.1997   42.5152 H   0  0  0  0  0  0  0  0  0  0  0  0
   57.5220   21.0928   42.5152 H   0  0  0  0  0  0  0  0  0  0  0  0
   57.2630   23.1960   45.3160 C   0  0  0  0  0  0  0  0  0  0  0  0
   57.2036   22.3534   46.0206 H   0  0  0  0  0  0  0  0  0  0  0  0
   57.9180   24.3710   45.6950 C   0  0  0  0  0  0  0  0  0  0  0  0
   58.3712   24.4453   46.6945 H   0  0  0  0  0  0  0  0  0  0  0  0
   58.3350   27.9490   44.6620 C   0  0  0  0  0  0  0  0  0  0  0  0
   57.5279   28.0034   43.9166 H   0  0  0  0  0  0  0  0  0  0  0  0
   58.9780   29.0830   45.0460 N   0  0  0  0  0  0  0  0  0  0  0  0
   58.6860   29.9940   44.6240 H   0  0  0  0  0  0  0  0  0  0  0  0
  1  2  1  0
  2  3  2  0
  3  4  1  0
  3  5  1  0
  5  6  1  6
  5  7  1  0
  7  8  1  6
  7  9  1  0
  9 10  1  1
  9 11  1  0
 11 12  1  0
 11 13  1  0
 11 14  1  0
 14 15  1  0
 14 16  1  0
 14 17  1  0
 17 18  1  0
 17 19  1  0
 17 20  1  0
 20 21  1  0
 20 22  1  0
 20 23  1  0
 23 24  1  1
 23 25  1  0
 25 26  1  0
 25 27  1  0
 25 28  1  0
 28 29  1  1
 28 30  1  0
 30 31  1  0
 30 32  1  0
 30 33  1  0
 33 34  1  6
 33 35  1  0
 35 36  2  0
 35 37  1  0
 37 38  1  0
 38 39  1  0
 38 40  1  0
 38 41  1  0
 41 42  1  0
 41 43  1  0
 41 44  1  0
 44 45  1  0
 44 46  1  0
 44 47  1  0
  2 48  1  0
 48 49  2  0
 49 50  1  0
 50 51  1  0
 50 52  2  0
 52 53  1  0
 53 54  2  0
 54 55  1  0
 54 56  1  0
 56 57  1  0
 56 58  2  0
 58 59  1  0
 59 60  1  0
 60 61  1  0
 60 62  1  0
 60 63  1  0
 58 64  1  0
 64 65  1  0
 64 66  2  0
 66 67  1  0
 52 68  1  0
 68 69  1  0
 68 70  2  0
 70 71  1  0
 33  5  1  0
 70 48  1  0
 28  7  1  0
 66 53  1  0
 23  9  1  0
M  CHG  2  37  -1  70   1
M  END
>  <UniqueID>  (42) 
37

>  <SMILES>  (42) 
CCC[N-]C(=O)[C@H]1C[C@H]2CC3CCCCC3C2C1/C=C/c1ncc(-c2ccc(OC)cc2)c[nH+]1

>  <Energy>  (42) 
98.09118783533587

>  <Genealogy>  (42) 
CCC[N-]C(=O)C1CC2CC3CCCCC3C2C1C=Cc1ncc(-c2ccc(OC)cc2)c[nH+]1 (protonated)
CCC[N-]C(=O)[C@H]1C[C@H]2CC3CCCCC3C2C1C=Cc1ncc(-c2ccc(OC)cc2)c[nH+]1 (chirality)
CCC[N-]C(=O)[C@H]1C[C@H]2CC3CCCCC3C2C1/C=C/c1ncc(-c2ccc(OC)cc2)c[nH+]1 (cis-trans isomerization)
CCC[N-]C(=O)[C@H]1C[C@H]2CC3CCCCC3C2C1/C=C/c1ncc(-c2ccc(OC)cc2)c[nH+]1 (3D coordinates assigned)
CCC[N-]C(=O)[C@H]1C[C@H]2CC3CCCCC3C2C1/C=C/c1ncc(-c2ccc(OC)cc2)c[nH+]1 (nonaromatic ring conformer: 98.09118783533587 kcal/mol)

>  <smiles>  (42) 
CCCNC(=O)C1CC2CC3CCCCC3C2C1C=Cc1ncc(-c2ccc(OC)cc2)cn1

>  <score_type>  (42) 
oracle

>  <origin>  (42) 
adg

>  <m_score__min__energy>  (42) 
-10.18

>  <m_primary>  (42) 
energy

$$$$
42:0
     RDKit          3D

 42 44  0  0  0  0  0  0  0  0999 V2000
   54.7680   29.2710   42.6260 H   0  0  0  0  0  0  0  0  0  0  0  0
   54.7780   29.7100   43.5740 N   0  0  0  0  0  0  0  0  0  0  0  0
   55.8840   29.9080   44.2140 C   0  0  0  0  0  0  0  0  0  0  0  0
   56.6530   28.8560   44.5960 N   0  0  0  0  0  0  0  0  0  0  0  0
   57.8240   29.0360   45.2680 C   0  0  0  0  0  0  0  0  0  0  0  0
   58.6350   27.8520   45.6490 C   0  0  0  0  0  0  0  0  0  0  0  0
   59.9880   28.0160   45.9960 C   0  0  0  0  0  0  0  0  0  0  0  0
   60.4360   29.0206   45.9869 H   0  0  0  0  0  0  0  0  0  0  0  0
   60.7670   26.9130   46.3520 C   0  0  0  0  0  0  0  0  0  0  0  0
   61.8228   27.0531   46.6269 H   0  0  0  0  0  0  0  0  0  0  0  0
   60.2100   25.6340   46.3600 C   0  0  0  0  0  0  0  0  0  0  0  0
   60.8287   24.7710   46.6471 H   0  0  0  0  0  0  0  0  0  0  0  0
   58.8720   25.4410   46.0060 C   0  0  0  0  0  0  0  0  0  0  0  0
   58.3630   24.1340   46.0200 O   0  0  0  0  0  0  0  0  0  0  0  0
   58.1190   23.3500   44.8560 C   0  0  0  0  0  0  0  0  0  0  0  0
   57.8044   22.3390   45.1542 H   0  0  0  0  0  0  0  0  0  0  0  0
   57.3245   23.8197   44.2575 H   0  0  0  0  0  0  0  0  0  0  0  0
   59.0397   23.2859   44.2575 H   0  0  0  0  0  0  0  0  0  0  0  0
   58.0860   26.5540   45.6460 C   0  0  0  0  0  0  0  0  0  0  0  0
   57.0339   26.4082   45.3599 H   0  0  0  0  0  0  0  0  0  0  0  0
   58.2440   30.3440   45.5600 C   0  0  0  0  0  0  0  0  0  0  0  0
   59.1969   30.5207   46.0804 H   0  0  0  0  0  0  0  0  0  0  0  0
   57.4320   31.4210   45.1790 C   0  0  0  0  0  0  0  0  0  0  0  0
   57.8280   32.7800   45.4400 N   0  0  0  0  0  0  0  0  0  0  0  0
   57.4130   33.4850   46.6580 C   0  0  0  0  0  0  0  0  0  0  0  0
   56.6547   34.2390   46.4000 H   0  0  0  0  0  0  0  0  0  0  0  0
   56.9945   32.7561   47.3676 H   0  0  0  0  0  0  0  0  0  0  0  0
   58.6200   34.1820   47.3110 C   0  0  0  0  0  0  0  0  0  0  0  0
   58.2523   35.0484   47.8804 H   0  0  0  0  0  0  0  0  0  0  0  0
   59.1125   33.4330   47.9485 H   0  0  0  0  0  0  0  0  0  0  0  0
   59.6410   34.6590   46.3430 N   0  0  0  0  0  0  0  0  0  0  0  0
   60.8470   33.8120   46.3560 C   0  0  0  0  0  0  0  0  0  0  0  0
   61.1396   33.6065   47.3963 H   0  0  0  0  0  0  0  0  0  0  0  0
   60.6346   32.8637   45.8407 H   0  0  0  0  0  0  0  0  0  0  0  0
   61.6670   34.3336   45.8407 H   0  0  0  0  0  0  0  0  0  0  0  0
   59.1130   34.8420   44.9740 C   0  0  0  0  0  0  0  0  0  0  0  0
   58.3156   35.5993   44.9983 H   0  0  0  0  0  0  0  0  0  0  0  0
   59.9432   35.1624   44.3274 H   0  0  0  0  0  0  0  0  0  0  0  0
   58.5400   33.5340   44.4030 C   0  0  0  0  0  0  0  0  0  0  0  0
   57.8418   33.7722   43.5870 H   0  0  0  0  0  0  0  0  0  0  0  0
   59.3716   32.9190   44.0286 H   0  0  0  0  0  0  0  0  0  0  0  0
   56.2770   31.1750   44.5030 N   0  0  0  0  0  0  0  0  0  0  0  0
  1  2  1  0
  2  3  2  0
  3  4  1  0
  4  5  2  0
  5  6  1  0
  6  7  2  0
  7  8  1  0
  7  9  1  0
  9 10  1  0
  9 11  2  0
 11 12  1  0
 11 13  1  0
 13 14  1  0
 14 15  1  0
 15 16  1  0
 15 17  1  0
 15 18  1  0
 13 19  2  0
 19 20  1  0
  5 21  1  0
 21 22  1  0
 21 23  2  0
 23 24  1  0
 24 25  1  0
 25 26  1  0
 25 27  1  0
 25 28  1  0
 28 29  1  0
 28 30  1  0
 28 31  1  0
 31 32  1  0
 32 33  1  0
 32 34  1  0
 32 35  1  0
 31 36  1  0
 36 37  1  0
 36 38  1  0
 36 39  1  0
 39 40  1  0
 39 41  1  0
 23 42  1  0
 42  3  1  0
 19  6  1  0
 39 24  1  0
M  CHG  1  42  -1
M  END
>  <UniqueID>  (43) 
38

>  <SMILES>  (43) 
[H]/N=c1\nc(-c2cccc(OC)c2)cc(N2CCN(C)CC2)[n-]1

>  <Energy>  (43) 
57.23127514746352

>  <Genealogy>  (43) 
COc1cccc(-c2cc(N3CCN(C)CC3)[n-]c(=N)n2)c1 (protonated)
[H]/N=c1\nc(-c2cccc(OC)c2)cc(N2CCN(C)CC2)[n-]1 (cis-trans isomerization)
[H]/N=c1\nc(-c2cccc(OC)c2)cc(N2CCN(C)CC2)[n-]1 (3D coordinates assigned)
[H]/N=c1\nc(-c2cccc(OC)c2)cc(N2CCN(C)CC2)[n-]1 (nonaromatic ring conformer: 57.23127514746352 kcal/mol)

>  <smiles>  (43) 
COc1cccc(-c2cc(N3CCN(C)CC3)[nH]c(=N)n2)c1

>  <score_type>  (43) 
oracle

>  <origin>  (43) 
adg

>  <m_score__min__energy>  (43) 
-8.9199999999999999

>  <m_primary>  (43) 
energy

$$$$
43:0
     RDKit          3D

 45 47  0  0  0  0  0  0  0  0999 V2000
   59.3440   24.8180   45.9980 C   0  0  0  0  0  0  0  0  0  0  0  0
   58.2570   25.6740   45.6600 O   0  0  0  0  0  0  0  0  0  0  0  0
   58.3210   27.0760   45.6660 C   0  0  0  0  0  0  0  0  0  0  0  0
   58.3020   27.8380   44.4840 C   0  0  0  0  0  0  0  0  0  0  0  0
   58.3680   29.2320   44.5440 C   0  0  0  0  0  0  0  0  0  0  0  0
   58.4550   29.8890   45.7800 C   0  0  0  0  0  0  0  0  0  0  0  0
   58.5040   31.3280   45.8250 N   0  0  0  0  0  0  0  0  0  0  0  0
   59.7050   32.0020   46.3370 C   0  0  0  0  0  0  0  0  0  0  0  0
   59.3420   33.3440   47.0350 C   0  0  0  0  0  0  0  0  0  0  0  0
   60.6390   34.1290   47.4510 C   0  0  0  0  0  0  0  0  0  0  0  0
   61.0310   34.0040   48.9360 C   0  0  0  0  0  0  0  0  0  0  0  0
   60.7680   32.6590   49.4490 N   0  0  0  0  0  0  0  0  0  0  0  0
   59.3320   32.3200   49.4320 C   0  0  0  0  0  0  0  0  0  0  0  0
   58.5250   33.0530   48.3340 C   0  0  0  0  0  0  0  0  0  0  0  0
   58.5250   34.1820   46.0940 N   0  0  0  0  0  0  0  0  0  0  0  0
   59.2370   34.5920   44.8580 C   0  0  0  0  0  0  0  0  0  0  0  0
   57.2380   33.5500   45.7200 C   0  0  0  0  0  0  0  0  0  0  0  0
   57.3980   32.1070   45.3280 C   0  0  0  0  0  0  0  0  0  0  0  0
   56.5180   31.5680   44.6010 O   0  0  0  0  0  0  0  0  0  0  0  0
   58.4740   29.1270   46.9620 C   0  0  0  0  0  0  0  0  0  0  0  0
   58.5840   29.7290   48.1720 F   0  0  0  0  0  0  0  0  0  0  0  0
   58.4090   27.7320   46.8990 C   0  0  0  0  0  0  0  0  0  0  0  0
   59.4305   24.7499   47.0925 H   0  0  0  0  0  0  0  0  0  0  0  0
   59.1649   23.8159   45.5813 H   0  0  0  0  0  0  0  0  0  0  0  0
   60.2762   25.2271   45.5813 H   0  0  0  0  0  0  0  0  0  0  0  0
   58.2349   27.3342   43.5084 H   0  0  0  0  0  0  0  0  0  0  0  0
   58.3516   29.8193   43.6141 H   0  0  0  0  0  0  0  0  0  0  0  0
   60.2042   31.3434   47.0630 H   0  0  0  0  0  0  0  0  0  0  0  0
   60.3710   32.2193   45.4889 H   0  0  0  0  0  0  0  0  0  0  0  0
   61.4753   33.7507   46.8448 H   0  0  0  0  0  0  0  0  0  0  0  0
   60.4205   35.1935   47.2805 H   0  0  0  0  0  0  0  0  0  0  0  0
   62.1036   34.2236   49.0422 H   0  0  0  0  0  0  0  0  0  0  0  0
   60.4259   34.7181   49.5138 H   0  0  0  0  0  0  0  0  0  0  0  0
   61.3170   31.9630   48.8940 H   0  0  0  0  0  0  0  0  0  0  0  0
   61.1150   32.6060   50.4360 H   0  0  0  0  0  0  0  0  0  0  0  0
   59.2343   31.2367   49.2680 H   0  0  0  0  0  0  0  0  0  0  0  0
   58.9178   32.6412   50.3991 H   0  0  0  0  0  0  0  0  0  0  0  0
   57.6593   32.4295   48.0661 H   0  0  0  0  0  0  0  0  0  0  0  0
   58.2311   34.0275   48.7510 H   0  0  0  0  0  0  0  0  0  0  0  0
   60.1614   35.1243   45.1268 H   0  0  0  0  0  0  0  0  0  0  0  0
   59.4869   33.6995   44.2656 H   0  0  0  0  0  0  0  0  0  0  0  0
   58.5905   35.2561   44.2656 H   0  0  0  0  0  0  0  0  0  0  0  0
   56.5534   33.6085   46.5790 H   0  0  0  0  0  0  0  0  0  0  0  0
   56.8404   34.0911   44.8487 H   0  0  0  0  0  0  0  0  0  0  0  0
   58.4272   27.1438   47.8283 H   0  0  0  0  0  0  0  0  0  0  0  0
  1  2  1  0
  2  3  1  0
  3  4  2  0
  4  5  1  0
  5  6  2  0
  6  7  1  0
  7  8  1  0
  8  9  1  0
  9 10  1  0
 10 11  1  0
 11 12  1  0
 12 13  1  0
 13 14  1  0
  9 15  1  0
 15 16  1  0
 15 17  1  0
 17 18  1  0
 18 19  2  0
  6 20  1  0
 20 21  1  0
 20 22  2  0
 22  3  1  0
 18  7  1  0
 14  9  1  0
  1 23  1  0
  1 24  1  0
  1 25  1  0
  4 26  1  0
  5 27  1  0
  8 28  1  0
  8 29  1  0
 10 30  1  0
 10 31  1  0
 11 32  1  0
 11 33  1  0
 12 34  1  0
 12 35  1  0
 13 36  1  0
 13 37  1  0
 14 38  1  0
 14 39  1  0
 16 40  1  0
 16 41  1  0
 16 42  1  0
 17 43  1  0
 17 44  1  0
 22 45  1  0
M  CHG  1  12   1
M  END
>  <UniqueID>  (44) 
39

>  <SMILES>  (44) 
COc1ccc(N2CC3(CC[NH2+]CC3)N(C)CC2=O)c(F)c1

>  <Energy>  (44) 
70.11961396592736

>  <Genealogy>  (44) 
COc1ccc(N2CC3(CC[NH2+]CC3)N(C)CC2=O)c(F)c1 (protonated)
COc1ccc(N2CC3(CC[NH2+]CC3)N(C)CC2=O)c(F)c1 (3D coordinates assigned)
COc1ccc(N2CC3(CC[NH2+]CC3)N(C)CC2=O)c(F)c1 (nonaromatic ring conformer: 70.11961396592736 kcal/mol)

>  <smiles>  (44) 
COc1ccc(N2CC3(CCNCC3)N(C)CC2=O)c(F)c1

>  <score_type>  (44) 
oracle

>  <origin>  (44) 
adg

>  <m_score__min__energy>  (44) 
-5.1500000000000004

>  <m_primary>  (44) 
energy

$$$$
44:0
     RDKit          3D

 38 40  0  0  0  0  0  0  0  0999 V2000
   66.6120   31.6500   50.7400 C   0  0  0  0  0  0  0  0  0  0  0  0
   66.1000   32.6870   49.9110 O   0  0  0  0  0  0  0  0  0  0  0  0
   64.7730   32.7200   49.4740 C   0  0  0  0  0  0  0  0  0  0  0  0
   63.7600   32.2100   50.3100 C   0  0  0  0  0  0  0  0  0  0  0  0
   62.4210   32.2350   49.8880 C   0  0  0  0  0  0  0  0  0  0  0  0
   62.1300   32.7720   48.6330 C   0  0  0  0  0  0  0  0  0  0  0  0
   63.1610   33.2630   47.8440 C   0  0  0  0  0  0  0  0  0  0  0  0
   64.4550   33.2390   48.2490 N   0  0  0  0  0  0  0  0  0  0  0  0
   62.5770   33.8570   46.3770 S   0  0  0  0  0  0  0  0  0  0  0  0
   60.9700   33.4840   46.7540 C   0  0  0  0  0  0  0  0  0  0  0  0
   59.8230   33.6800   45.9970 C   0  0  0  0  0  0  0  0  0  0  0  0
   59.9040   34.2000   44.8500 O   0  0  0  0  0  0  0  0  0  0  0  0
   58.6110   33.2970   46.5200 N   0  0  0  0  0  0  0  0  0  0  0  0
   57.3700   33.4570   45.7450 C   0  0  0  0  0  0  0  0  0  0  0  0
   57.3830   32.5300   44.5230 C   0  0  0  0  0  0  0  0  0  0  0  0
   57.0190   31.1500   44.9100 N   0  0  0  0  0  0  0  0  0  0  0  0
   56.2940   30.4690   43.8220 C   0  0  0  0  0  0  0  0  0  0  0  0
   58.2270   30.3800   45.2460 C   0  0  0  0  0  0  0  0  0  0  0  0
   58.5520   32.7070   47.7620 C   0  0  0  0  0  0  0  0  0  0  0  0
   59.6810   32.5150   48.5050 N   0  0  0  0  0  0  0  0  0  0  0  0
   60.8840   32.9010   48.0060 C   0  0  0  0  0  0  0  0  0  0  0  0
   66.4764   31.9246   51.7965 H   0  0  0  0  0  0  0  0  0  0  0  0
   66.0723   30.7143   50.5322 H   0  0  0  0  0  0  0  0  0  0  0  0
   67.6830   31.5095   50.5322 H   0  0  0  0  0  0  0  0  0  0  0  0
   64.0183   31.7919   51.2941 H   0  0  0  0  0  0  0  0  0  0  0  0
   61.6204   31.8408   50.5312 H   0  0  0  0  0  0  0  0  0  0  0  0
   56.5092   33.2057   46.3821 H   0  0  0  0  0  0  0  0  0  0  0  0
   57.2935   34.4996   45.4027 H   0  0  0  0  0  0  0  0  0  0  0  0
   56.6595   32.8998   43.7815 H   0  0  0  0  0  0  0  0  0  0  0  0
   58.3967   32.5219   44.0960 H   0  0  0  0  0  0  0  0  0  0  0  0
   55.5558   29.7756   44.2512 H   0  0  0  0  0  0  0  0  0  0  0  0
   55.7777   31.2163   43.2015 H   0  0  0  0  0  0  0  0  0  0  0  0
   57.0075   29.9070   43.2015 H   0  0  0  0  0  0  0  0  0  0  0  0
   58.3283   30.3154   46.3394 H   0  0  0  0  0  0  0  0  0  0  0  0
   58.1451   29.3671   44.8249 H   0  0  0  0  0  0  0  0  0  0  0  0
   59.1106   30.8818   44.8249 H   0  0  0  0  0  0  0  0  0  0  0  0
   57.5794   32.3850   48.1624 H   0  0  0  0  0  0  0  0  0  0  0  0
   59.6050   32.0680   49.4450 H   0  0  0  0  0  0  0  0  0  0  0  0
  1  2  1  0
  2  3  1  0
  3  4  2  0
  4  5  1  0
  5  6  2  0
  6  7  1  0
  7  8  2  0
  7  9  1  0
  9 10  1  0
 10 11  1  0
 11 12  2  0
 11 13  1  0
 13 14  1  0
 14 15  1  0
 15 16  1  0
 16 17  1  0
 16 18  1  0
 13 19  1  0
 19 20  2  0
 20 21  1  0
  8  3  1  0
 21 10  2  0
 21  6  1  0
  1 22  1  0
  1 23  1  0
  1 24  1  0
  4 25  1  0
  5 26  1  0
 14 27  1  0
 14 28  1  0
 15 29  1  0
 15 30  1  0
 17 31  1  0
 17 32  1  0
 17 33  1  0
 18 34  1  0
 18 35  1  0
 18 36  1  0
 19 37  1  0
 20 38  1  0
M  CHG  1  20   1
M  END
>  <UniqueID>  (45) 
40

>  <SMILES>  (45) 
COc1ccc2c(n1)sc1c(=O)n(CCN(C)C)c[nH+]c12

>  <Energy>  (45) 
77.67655127407133

>  <Genealogy>  (45) 
COc1ccc2c(n1)sc1c(=O)n(CCN(C)C)c[nH+]c12 (protonated)
COc1ccc2c(n1)sc1c(=O)n(CCN(C)C)c[nH+]c12 (3D coordinates assigned)
COc1ccc2c(n1)sc1c(=O)n(CCN(C)C)c[nH+]c12 (optimized conformer: 77.67655127407133 kcal/mol)

>  <smiles>  (45) 
COc1ccc2c(n1)sc1c(=O)n(CCN(C)C)cnc12

>  <score_type>  (45) 
oracle

>  <origin>  (45) 
adg

>  <m_score__min__energy>  (45) 
-4.96

>  <m_primary>  (45) 
energy

$$$$
45:0
     RDKit          3D

 40 42  0  0  0  0  0  0  0  0999 V2000
   59.2530   34.5900   47.5700 C   0  0  0  0  0  0  0  0  0  0  0  0
   58.8450   33.4400   46.7480 N   0  0  0  0  0  0  0  0  0  0  0  0
   58.4120   33.7830   45.3760 C   0  0  0  0  0  0  0  0  0  0  0  0
   57.9350   32.6070   44.5730 C   0  0  0  0  0  0  0  0  0  0  0  0
   56.9080   31.8040   44.9260 N   0  0  0  0  0  0  0  0  0  0  0  0
   56.8870   30.9260   43.9010 C   0  0  0  0  0  0  0  0  0  0  0  0
   55.8830   29.8270   43.7650 C   0  0  0  0  0  0  0  0  0  0  0  0
   55.8930   28.9890   44.9200 O   0  0  0  0  0  0  0  0  0  0  0  0
   57.0360   28.3960   45.4800 C   0  0  0  0  0  0  0  0  0  0  0  0
   57.3960   27.0560   45.2340 C   0  0  0  0  0  0  0  0  0  0  0  0
   58.5450   26.5160   45.8220 C   0  0  0  0  0  0  0  0  0  0  0  0
   59.3430   27.3050   46.6550 C   0  0  0  0  0  0  0  0  0  0  0  0
   58.9940   28.6340   46.9000 C   0  0  0  0  0  0  0  0  0  0  0  0
   57.8460   29.1770   46.3150 C   0  0  0  0  0  0  0  0  0  0  0  0
   57.8460   31.1900   42.9970 N   0  0  0  0  0  0  0  0  0  0  0  0
   58.4800   32.2280   43.4400 O   0  0  0  0  0  0  0  0  0  0  0  0
   59.7030   32.2420   46.8760 C   0  0  0  0  0  0  0  0  0  0  0  0
   61.1650   32.5460   47.0770 C   0  0  0  0  0  0  0  0  0  0  0  0
   62.0170   31.8830   47.9520 C   0  0  0  0  0  0  0  0  0  0  0  0
   63.3150   32.4080   47.9660 C   0  0  0  0  0  0  0  0  0  0  0  0
   63.4860   33.4980   47.1250 C   0  0  0  0  0  0  0  0  0  0  0  0
   62.0200   33.8090   46.3640 S   0  0  0  0  0  0  0  0  0  0  0  0
   59.1609   34.3305   48.6350 H   0  0  0  0  0  0  0  0  0  0  0  0
   60.2980   34.8493   47.3448 H   0  0  0  0  0  0  0  0  0  0  0  0
   58.6051   35.4499   47.3448 H   0  0  0  0  0  0  0  0  0  0  0  0
   57.5902   34.5109   45.4447 H   0  0  0  0  0  0  0  0  0  0  0  0
   59.2935   34.1863   44.8561 H   0  0  0  0  0  0  0  0  0  0  0  0
   54.8813   30.2657   43.6458 H   0  0  0  0  0  0  0  0  0  0  0  0
   56.1407   29.2194   42.8850 H   0  0  0  0  0  0  0  0  0  0  0  0
   56.7715   26.4324   44.5774 H   0  0  0  0  0  0  0  0  0  0  0  0
   58.8207   25.4689   45.6284 H   0  0  0  0  0  0  0  0  0  0  0  0
   60.2456   26.8788   47.1173 H   0  0  0  0  0  0  0  0  0  0  0  0
   59.6231   29.2552   47.5544 H   0  0  0  0  0  0  0  0  0  0  0  0
   57.5767   30.2252   46.5118 H   0  0  0  0  0  0  0  0  0  0  0  0
   58.0500   30.6810   42.1090 H   0  0  0  0  0  0  0  0  0  0  0  0
   59.3510   31.6565   47.7381 H   0  0  0  0  0  0  0  0  0  0  0  0
   59.6227   31.6936   45.9259 H   0  0  0  0  0  0  0  0  0  0  0  0
   61.7029   31.0304   48.5720 H   0  0  0  0  0  0  0  0  0  0  0  0
   64.1240   31.9946   48.5862 H   0  0  0  0  0  0  0  0  0  0  0  0
   64.4197   34.0614   46.9811 H   0  0  0  0  0  0  0  0  0  0  0  0
  1  2  1  0
  2  3  1  0
  3  4  1  0
  4  5  2  0
  5  6  1  0
  6  7  1  0
  7  8  1  0
  8  9  1  0
  9 10  2  0
 10 11  1  0
 11 12  2  0
 12 13  1  0
 13 14  2  0
  6 15  2  0
 15 16  1  0
  2 17  1  0
 17 18  1  0
 18 19  2  0
 19 20  1  0
 20 21  2  0
 21 22  1  0
 16  4  1  0
 22 18  1  0
 14  9  1  0
  1 23  1  0
  1 24  1  0
  1 25  1  0
  3 26  1  0
  3 27  1  0
  7 28  1  0
  7 29  1  0
 10 30  1  0
 11 31  1  0
 12 32  1  0
 13 33  1  0
 14 34  1  0
 15 35  1  0
 17 36  1  0
 17 37  1  0
 19 38  1  0
 20 39  1  0
 21 40  1  0
M  CHG  1  15   1
M  END
>  <UniqueID>  (46) 
41

>  <SMILES>  (46) 
CN(Cc1nc(COc2ccccc2)[nH+]o1)Cc1cccs1

>  <Energy>  (46) 
105.48800084811337

>  <Genealogy>  (46) 
CN(Cc1nc(COc2ccccc2)[nH+]o1)Cc1cccs1 (protonated)
CN(Cc1nc(COc2ccccc2)[nH+]o1)Cc1cccs1 (3D coordinates assigned)
CN(Cc1nc(COc2ccccc2)[nH+]o1)Cc1cccs1 (optimized conformer: 105.48800084811337 kcal/mol)

>  <smiles>  (46) 
CN(Cc1nc(COc2ccccc2)no1)Cc1cccs1

>  <score_type>  (46) 
oracle

>  <origin>  (46) 
adg

>  <m_score__min__energy>  (46) 
-6.4500000000000002

>  <m_primary>  (46) 
energy

$$$$
46:0
     RDKit          3D

 53 56  0  0  0  0  0  0  0  0999 V2000
   64.7030   32.3550   47.0600 H   0  0  0  0  0  0  0  0  0  0  0  0
   63.7140   32.5450   47.1370 O   0  0  0  0  0  0  0  0  0  0  0  0
   63.0600   32.7330   48.3450 N   0  0  0  0  0  0  0  0  0  0  0  0
   61.6890   32.6300   48.4310 C   0  0  0  0  0  0  0  0  0  0  0  0
   61.0200   32.9870   49.6330 C   0  0  0  0  0  0  0  0  0  0  0  0
   61.7990   33.3230   50.7630 C   0  0  0  0  0  0  0  0  0  0  0  0
   61.2460   33.6070   51.8620 O   0  0  0  0  0  0  0  0  0  0  0  0
   63.1990   33.3400   50.6770 C   0  0  0  0  0  0  0  0  0  0  0  0
   63.9950   33.6620   51.7970 C   0  0  0  0  0  0  0  0  0  0  0  0
   63.5154   33.8887   52.7606 H   0  0  0  0  0  0  0  0  0  0  0  0
   65.3870   33.6950   51.6910 C   0  0  0  0  0  0  0  0  0  0  0  0
   66.3640   34.0970   53.0910 Cl  0  0  0  0  0  0  0  0  0  0  0  0
   66.0010   33.4100   50.4720 C   0  0  0  0  0  0  0  0  0  0  0  0
   67.0976   33.4366   50.3904 H   0  0  0  0  0  0  0  0  0  0  0  0
   65.2270   33.0910   49.3550 C   0  0  0  0  0  0  0  0  0  0  0  0
   65.7199   32.8722   48.3963 H   0  0  0  0  0  0  0  0  0  0  0  0
   63.8190   33.0460   49.4420 C   0  0  0  0  0  0  0  0  0  0  0  0
   59.5170   33.0050   49.6780 C   0  0  0  0  0  0  0  0  0  0  0  0
   58.9120   33.4190   50.7590 N   0  0  0  0  0  0  0  0  0  0  0  0
   58.1640   32.6300   51.7400 C   0  0  0  0  0  0  0  0  0  0  0  0
   57.1110   32.9473   51.7175 H   0  0  0  0  0  0  0  0  0  0  0  0
   58.6209   32.8054   52.7252 H   0  0  0  0  0  0  0  0  0  0  0  0
   58.2290   31.1110   51.4590 C   0  0  0  0  0  0  0  0  0  0  0  0
   59.0169   30.6822   52.0957 H   0  0  0  0  0  0  0  0  0  0  0  0
   58.4261   31.0118   50.3814 H   0  0  0  0  0  0  0  0  0  0  0  0
   56.9770   30.3600   51.7140 N   0  0  0  0  0  0  0  0  0  0  0  0
   57.1170   29.3070   52.7310 C   0  0  0  0  0  0  0  0  0  0  0  0
   57.0574   29.7554   53.7337 H   0  0  0  0  0  0  0  0  0  0  0  0
   56.3089   28.5706   52.6100 H   0  0  0  0  0  0  0  0  0  0  0  0
   58.0895   28.8074   52.6100 H   0  0  0  0  0  0  0  0  0  0  0  0
   55.8130   31.2200   51.9820 C   0  0  0  0  0  0  0  0  0  0  0  0
   55.6749   31.3220   53.0685 H   0  0  0  0  0  0  0  0  0  0  0  0
   55.9808   32.2127   51.5389 H   0  0  0  0  0  0  0  0  0  0  0  0
   54.9134   30.7680   51.5389 H   0  0  0  0  0  0  0  0  0  0  0  0
   58.7420   32.6570   48.4280 C   0  0  0  0  0  0  0  0  0  0  0  0
   57.7641   32.2406   48.7115 H   0  0  0  0  0  0  0  0  0  0  0  0
   58.6039   33.5682   47.8275 H   0  0  0  0  0  0  0  0  0  0  0  0
   59.5070   31.6270   47.5990 C   0  0  1  0  0  0  0  0  0  0  0  0
   59.6444   30.7244   48.2125 H   0  0  0  0  0  0  0  0  0  0  0  0
   58.7230   31.2130   46.3660 C   0  0  0  0  0  0  0  0  0  0  0  0
   58.0690   32.1870   45.5920 C   0  0  0  0  0  0  0  0  0  0  0  0
   58.1292   33.2462   45.8828 H   0  0  0  0  0  0  0  0  0  0  0  0
   57.3430   31.8200   44.4560 C   0  0  0  0  0  0  0  0  0  0  0  0
   56.8365   32.5915   43.8575 H   0  0  0  0  0  0  0  0  0  0  0  0
   57.2570   30.4770   44.0760 C   0  0  0  0  0  0  0  0  0  0  0  0
   56.3340   30.0570   42.6400 Cl  0  0  0  0  0  0  0  0  0  0  0  0
   57.9040   29.4940   44.8410 C   0  0  0  0  0  0  0  0  0  0  0  0
   57.8210   27.7940   44.3980 Cl  0  0  0  0  0  0  0  0  0  0  0  0
   58.6310   29.8620   45.9790 C   0  0  0  0  0  0  0  0  0  0  0  0
   59.1354   29.0886   46.5769 H   0  0  0  0  0  0  0  0  0  0  0  0
   60.8910   32.1730   47.2220 C   0  0  0  0  0  0  0  0  0  0  0  0
   61.4541   31.3803   46.7076 H   0  0  0  0  0  0  0  0  0  0  0  0
   60.7380   33.0486   46.5740 H   0  0  0  0  0  0  0  0  0  0  0  0
  1  2  1  0
  2  3  1  0
  3  4  1  0
  4  5  2  0
  5  6  1  0
  6  7  2  0
  6  8  1  0
  8  9  2  0
  9 10  1  0
  9 11  1  0
 11 12  1  0
 11 13  2  0
 13 14  1  0
 13 15  1  0
 15 16  1  0
 15 17  2  0
  5 18  1  0
 18 19  2  0
 19 20  1  0
 20 21  1  0
 20 22  1  0
 20 23  1  0
 23 24  1  0
 23 25  1  0
 23 26  1  0
 26 27  1  0
 27 28  1  0
 27 29  1  0
 27 30  1  0
 26 31  1  0
 31 32  1  0
 31 33  1  0
 31 34  1  0
 18 35  1  0
 35 36  1  0
 35 37  1  0
 35 38  1  0
 38 39  1  1
 38 40  1  0
 40 41  2  0
 41 42  1  0
 41 43  1  0
 43 44  1  0
 43 45  2  0
 45 46  1  0
 45 47  1  0
 47 48  1  0
 47 49  2  0
 49 50  1  0
 38 51  1  0
 51 52  1  0
 51 53  1  0
 17  3  1  0
 49 40  1  0
 51  4  1  0
 17  8  1  0
M  END
>  <UniqueID>  (47) 
42

>  <SMILES>  (47) 
CN(C)CC/N=C1\C[C@@H](c2ccc(Cl)c(Cl)c2)Cc2c1c(=O)c1cc(Cl)ccc1n2O

>  <Energy>  (47) 
75.86520008232982

>  <Genealogy>  (47) 
CN(C)CCN=C1C[C@@H](c2ccc(Cl)c(Cl)c2)Cc2c1c(=O)c1cc(Cl)ccc1n2O (chirality)
CN(C)CC/N=C1\C[C@@H](c2ccc(Cl)c(Cl)c2)Cc2c1c(=O)c1cc(Cl)ccc1n2O (cis-trans isomerization)
CN(C)CC/N=C1\C[C@@H](c2ccc(Cl)c(Cl)c2)Cc2c1c(=O)c1cc(Cl)ccc1n2O (3D coordinates assigned)
CN(C)CC/N=C1\C[C@@H](c2ccc(Cl)c(Cl)c2)Cc2c1c(=O)c1cc(Cl)ccc1n2O (nonaromatic ring conformer: 75.86520008232982 kcal/mol)

>  <smiles>  (47) 
CN(C)CCN=C1CC(c2ccc(Cl)c(Cl)c2)Cc2c1c(=O)c1cc(Cl)ccc1n2O

>  <score_type>  (47) 
oracle

>  <origin>  (47) 
adg

>  <m_score__min__energy>  (47) 
-8.9499999999999993

>  <m_primary>  (47) 
energy

$$$$
47:0
     RDKit          3D

 42 43  0  0  0  0  0  0  0  0999 V2000
   59.0750   34.2170   47.2610 C   0  0  0  0  0  0  0  0  0  0  0  0
   58.7900   34.5640   46.0030 C   0  0  0  0  0  0  0  0  0  0  0  0
   57.7640   33.8230   45.1980 C   0  0  0  0  0  0  0  0  0  0  0  0
   58.3760   33.3120   43.9740 N   0  0  0  0  0  0  0  0  0  0  0  0
   58.0690   32.1930   43.3790 C   0  0  0  0  0  0  0  0  0  0  0  0
   58.0650   32.1500   41.9520 N   0  0  0  0  0  0  0  0  0  0  0  0
   57.7830   30.9530   44.1330 C   0  0  0  0  0  0  0  0  0  0  0  0
   56.5280   30.3320   44.0400 C   0  0  0  0  0  0  0  0  0  0  0  0
   56.2750   29.1500   44.7420 C   0  0  0  0  0  0  0  0  0  0  0  0
   57.2770   28.5590   45.5250 C   0  0  0  0  0  0  0  0  0  0  0  0
   56.9850   27.3580   46.2590 N   0  0  0  0  0  0  0  0  0  0  0  0
   57.4440   26.0460   45.8900 C   0  0  0  0  0  0  0  0  0  0  0  0
   58.7680   25.6430   46.1280 C   0  0  0  0  0  0  0  0  0  0  0  0
   59.2030   24.3740   45.7360 C   0  0  0  0  0  0  0  0  0  0  0  0
   58.3240   23.4900   45.0840 C   0  0  0  0  0  0  0  0  0  0  0  0
   58.7760   22.1370   44.6690 C   0  0  0  0  0  0  0  0  0  0  0  0
   57.8130   21.1640   44.2450 N   0  0  0  0  0  0  0  0  0  0  0  0
   60.0380   21.8260   44.6780 N   0  0  0  0  0  0  0  0  0  0  0  0
   57.0060   23.9040   44.8300 C   0  0  0  0  0  0  0  0  0  0  0  0
   56.5750   25.1750   45.2210 C   0  0  0  0  0  0  0  0  0  0  0  0
   58.5320   29.1860   45.6190 C   0  0  0  0  0  0  0  0  0  0  0  0
   58.7860   30.3670   44.9170 C   0  0  0  0  0  0  0  0  0  0  0  0
   59.8322   34.7782   47.8282 H   0  0  0  0  0  0  0  0  0  0  0  0
   58.5525   33.3701   47.7297 H   0  0  0  0  0  0  0  0  0  0  0  0
   59.3201   35.4130   45.5467 H   0  0  0  0  0  0  0  0  0  0  0  0
   57.3719   32.9826   45.7895 H   0  0  0  0  0  0  0  0  0  0  0  0
   56.9418   34.5057   44.9375 H   0  0  0  0  0  0  0  0  0  0  0  0
   57.8280   31.2680   41.4460 H   0  0  0  0  0  0  0  0  0  0  0  0
   58.2890   33.0040   41.3940 H   0  0  0  0  0  0  0  0  0  0  0  0
   55.7412   30.7766   43.4129 H   0  0  0  0  0  0  0  0  0  0  0  0
   55.2825   28.6799   44.6797 H   0  0  0  0  0  0  0  0  0  0  0  0
   56.3980   27.4450   47.1210 H   0  0  0  0  0  0  0  0  0  0  0  0
   59.4673   26.3306   46.6262 H   0  0  0  0  0  0  0  0  0  0  0  0
   60.2390   24.0645   45.9385 H   0  0  0  0  0  0  0  0  0  0  0  0
   58.1180   20.2230   43.9090 H   0  0  0  0  0  0  0  0  0  0  0  0
   56.7890   21.3550   44.3110 H   0  0  0  0  0  0  0  0  0  0  0  0
   60.3640   20.8530   44.8700 H   0  0  0  0  0  0  0  0  0  0  0  0
   60.7680   22.5560   44.5170 H   0  0  0  0  0  0  0  0  0  0  0  0
   56.3083   23.2235   44.3200 H   0  0  0  0  0  0  0  0  0  0  0  0
   55.5453   25.4935   45.0015 H   0  0  0  0  0  0  0  0  0  0  0  0
   59.3183   28.7442   46.2488 H   0  0  0  0  0  0  0  0  0  0  0  0
   59.7776   30.8389   44.9800 H   0  0  0  0  0  0  0  0  0  0  0  0
  1  2  2  0
  2  3  1  0
  3  4  1  0
  4  5  2  3
  5  6  1  0
  5  7  1  0
  7  8  2  0
  8  9  1  0
  9 10  2  0
 10 11  1  0
 11 12  1  0
 12 13  2  0
 13 14  1  0
 14 15  2  0
 15 16  1  0
 16 17  1  0
 16 18  2  0
 15 19  1  0
 19 20  2  0
 10 21  1  0
 21 22  2  0
 22  7  1  0
 20 12  1  0
  1 23  1  0
  1 24  1  0
  2 25  1  0
  3 26  1  0
  3 27  1  0
  6 28  1  0
  6 29  1  0
  8 30  1  0
  9 31  1  0
 11 32  1  0
 13 33  1  0
 14 34  1  0
 17 35  1  0
 17 36  1  0
 18 37  1  0
 18 38  1  0
 19 39  1  0
 20 40  1  0
 21 41  1  0
 22 42  1  0
M  CHG  1  18   1
M  END
>  <UniqueID>  (48) 
43

>  <SMILES>  (48) 
C=CCN=C(N)c1ccc(Nc2ccc(C(N)=[NH2+])cc2)cc1

>  <Energy>  (48) 
51.09955883162759

>  <Genealogy>  (48) 
C=CCN=C(N)c1ccc(Nc2ccc(C(N)=[NH2+])cc2)cc1 (protonated)
C=CCN=C(N)c1ccc(Nc2ccc(C(N)=[NH2+])cc2)cc1 (3D coordinates assigned)
C=CCN=C(N)c1ccc(Nc2ccc(C(N)=[NH2+])cc2)cc1 (optimized conformer: 51.09955883162759 kcal/mol)

>  <smiles>  (48) 
C=CCN=C(N)c1ccc(Nc2ccc(C(=N)N)cc2)cc1

>  <score_type>  (48) 
oracle

>  <origin>  (48) 
adg

>  <m_score__min__energy>  (48) 
-6.3700000000000001

>  <m_primary>  (48) 
energy

$$$$
48:0
     RDKit          3D

 54 56  0  0  0  0  0  0  0  0999 V2000
   60.7840   28.2830   50.2570 C   0  0  0  0  0  0  0  0  0  0  0  0
   61.3300   29.5670   50.8740 C   0  0  0  0  0  0  0  0  0  0  0  0
   61.7370   30.5150   49.8380 N   0  0  0  0  0  0  0  0  0  0  0  0
   63.0540   31.0800   49.8220 C   0  0  0  0  0  0  0  0  0  0  0  0
   63.8890   30.7550   50.7120 O   0  0  0  0  0  0  0  0  0  0  0  0
   63.4200   32.1260   48.7960 C   0  0  0  0  0  0  0  0  0  0  0  0
   62.5460   31.9460   47.5360 C   0  0  0  0  0  0  0  0  0  0  0  0
   62.3450   33.2760   46.7920 C   0  0  0  0  0  0  0  0  0  0  0  0
   61.7060   34.3180   47.6320 N   0  0  0  0  0  0  0  0  0  0  0  0
   59.9870   34.4300   47.3240 S   0  0  0  0  0  0  0  0  0  0  0  0
   59.2620   34.7210   48.6100 O   0  0  0  0  0  0  0  0  0  0  0  0
   59.7240   35.5650   46.3750 O   0  0  0  0  0  0  0  0  0  0  0  0
   59.3660   32.9300   46.6320 C   0  0  0  0  0  0  0  0  0  0  0  0
   58.6600   32.9510   45.4240 C   0  0  0  0  0  0  0  0  0  0  0  0
   58.0530   31.7910   44.9420 C   0  0  0  0  0  0  0  0  0  0  0  0
   58.1360   30.5860   45.6650 C   0  0  0  0  0  0  0  0  0  0  0  0
   58.9320   30.5450   46.8280 C   0  0  0  0  0  0  0  0  0  0  0  0
   59.5220   31.7190   47.3180 C   0  0  0  0  0  0  0  0  0  0  0  0
   59.0990   29.2500   47.5740 C   0  0  0  0  0  0  0  0  0  0  0  0
   59.0630   28.0750   46.5990 C   0  0  0  0  0  0  0  0  0  0  0  0
   57.7490   28.0750   45.8110 C   0  0  0  0  0  0  0  0  0  0  0  0
   57.4570   29.3870   45.2100 N   0  0  0  0  0  0  0  0  0  0  0  0
   56.2990   29.4620   44.3590 C   0  0  0  0  0  0  0  0  0  0  0  0
   56.4310   29.7210   42.8890 C   0  0  0  0  0  0  0  0  0  0  0  0
   55.1480   29.3580   44.8600 O   0  0  0  0  0  0  0  0  0  0  0  0
   61.9640   34.1900   49.0850 C   0  0  0  0  0  0  0  0  0  0  0  0
   63.3310   33.5590   49.3750 C   0  0  0  0  0  0  0  0  0  0  0  0
   60.4886   27.5884   51.0572 H   0  0  0  0  0  0  0  0  0  0  0  0
   59.9083   28.5189   49.6345 H   0  0  0  0  0  0  0  0  0  0  0  0
   61.5614   27.8159   49.6345 H   0  0  0  0  0  0  0  0  0  0  0  0
   60.5485   30.0277   51.4960 H   0  0  0  0  0  0  0  0  0  0  0  0
   62.2102   29.3157   51.4840 H   0  0  0  0  0  0  0  0  0  0  0  0
   61.0520   30.8110   49.1040 H   0  0  0  0  0  0  0  0  0  0  0  0
   64.4721   31.9845   48.5077 H   0  0  0  0  0  0  0  0  0  0  0  0
   63.0367   31.2297   46.8606 H   0  0  0  0  0  0  0  0  0  0  0  0
   61.5594   31.5758   47.8516 H   0  0  0  0  0  0  0  0  0  0  0  0
   63.3272   33.6452   46.4620 H   0  0  0  0  0  0  0  0  0  0  0  0
   61.6740   33.0802   45.9427 H   0  0  0  0  0  0  0  0  0  0  0  0
   58.5832   33.8871   44.8514 H   0  0  0  0  0  0  0  0  0  0  0  0
   57.5048   31.8182   43.9887 H   0  0  0  0  0  0  0  0  0  0  0  0
   60.1108   31.6886   48.2466 H   0  0  0  0  0  0  0  0  0  0  0  0
   60.0642   29.2557   48.1015 H   0  0  0  0  0  0  0  0  0  0  0  0
   58.2778   29.1427   48.2980 H   0  0  0  0  0  0  0  0  0  0  0  0
   59.9062   28.1600   45.8977 H   0  0  0  0  0  0  0  0  0  0  0  0
   59.1378   27.1366   47.1681 H   0  0  0  0  0  0  0  0  0  0  0  0
   57.8180   27.3259   45.0084 H   0  0  0  0  0  0  0  0  0  0  0  0
   56.9359   27.8384   46.5131 H   0  0  0  0  0  0  0  0  0  0  0  0
   56.9253   30.6908   42.7305 H   0  0  0  0  0  0  0  0  0  0  0  0
   57.0325   28.9233   42.4287 H   0  0  0  0  0  0  0  0  0  0  0  0
   55.4321   29.7390   42.4287 H   0  0  0  0  0  0  0  0  0  0  0  0
   61.9316   35.1908   49.5405 H   0  0  0  0  0  0  0  0  0  0  0  0
   61.1908   33.5328   49.5096 H   0  0  0  0  0  0  0  0  0  0  0  0
   64.1166   34.1796   48.9193 H   0  0  0  0  0  0  0  0  0  0  0  0
   63.4647   33.5031   50.4654 H   0  0  0  0  0  0  0  0  0  0  0  0
  1  2  1  0
  2  3  1  0
  3  4  1  0
  4  5  2  0
  4  6  1  0
  6  7  1  0
  7  8  1  0
  8  9  1  0
  9 10  1  0
 10 11  2  0
 10 12  2  0
 10 13  1  0
 13 14  2  0
 14 15  1  0
 15 16  2  0
 16 17  1  0
 17 18  2  0
 17 19  1  0
 19 20  1  0
 20 21  1  0
 21 22  1  0
 22 23  1  0
 23 24  1  0
 23 25  2  0
  9 26  1  0
 26 27  1  0
 27  6  1  0
 18 13  1  0
 22 16  1  0
  1 28  1  0
  1 29  1  0
  1 30  1  0
  2 31  1  0
  2 32  1  0
  3 33  1  0
  6 34  1  0
  7 35  1  0
  7 36  1  0
  8 37  1  0
  8 38  1  0
 14 39  1  0
 15 40  1  0
 18 41  1  0
 19 42  1  0
 19 43  1  0
 20 44  1  0
 20 45  1  0
 21 46  1  0
 21 47  1  0
 24 48  1  0
 24 49  1  0
 24 50  1  0
 26 51  1  0
 26 52  1  0
 27 53  1  0
 27 54  1  0
M  END
>  <UniqueID>  (49) 
44

>  <SMILES>  (49) 
CCNC(=O)C1CCN(S(=O)(=O)c2ccc3c(c2)CCCN3C(C)=O)CC1

>  <Energy>  (49) 
58.442996395938295

>  <Genealogy>  (49) 
CCNC(=O)C1CCN(S(=O)(=O)c2ccc3c(c2)CCCN3C(C)=O)CC1 (3D coordinates assigned)
CCNC(=O)C1CCN(S(=O)(=O)c2ccc3c(c2)CCCN3C(C)=O)CC1 (nonaromatic ring conformer: 58.442996395938295 kcal/mol)

>  <smiles>  (49) 
CCNC(=O)C1CCN(S(=O)(=O)c2ccc3c(c2)CCCN3C(C)=O)CC1

>  <score_type>  (49) 
oracle

>  <origin>  (49) 
adg

>  <m_score__min__energy>  (49) 
-9.1199999999999992

>  <m_primary>  (49) 
energy

$$$$
49:0
     RDKit          3D

 47 49  0  0  0  0  0  0  0  0999 V2000
   57.1420   32.9730   45.3660 C   0  0  0  0  0  0  0  0  0  0  0  0
   58.1340   32.3350   44.3960 C   0  0  0  0  0  0  0  0  0  0  0  0
   57.5540   31.1000   43.6940 C   0  0  0  0  0  0  0  0  0  0  0  0
   57.6860   29.9060   44.5260 N   0  0  0  0  0  0  0  0  0  0  0  0
   58.8850   29.1790   44.8100 C   0  0  0  0  0  0  0  0  0  0  0  0
   60.0430   29.5780   44.5160 O   0  0  0  0  0  0  0  0  0  0  0  0
   58.5580   27.9170   45.4650 C   0  0  0  0  0  0  0  0  0  0  0  0
   59.3810   26.8880   45.9120 C   0  0  0  0  0  0  0  0  0  0  0  0
   58.7730   25.7620   46.4960 C   0  0  0  0  0  0  0  0  0  0  0  0
   57.3630   25.6880   46.6290 C   0  0  0  0  0  0  0  0  0  0  0  0
   56.7260   24.5000   47.2290 C   0  0  0  0  0  0  0  0  0  0  0  0
   57.3920   23.7860   48.0250 O   0  0  0  0  0  0  0  0  0  0  0  0
   55.3860   24.1060   46.9080 N   0  0  0  0  0  0  0  0  0  0  0  0
   55.0200   22.8520   46.2560 C   0  0  0  0  0  0  0  0  0  0  0  0
   56.2810   22.0990   45.8340 C   0  0  0  0  0  0  0  0  0  0  0  0
   57.0640   22.9020   44.8660 N   0  0  0  0  0  0  0  0  0  0  0  0
   58.0230   22.0770   44.1070 C   0  0  0  0  0  0  0  0  0  0  0  0
   57.3060   21.1520   43.0930 C   0  0  0  0  0  0  0  0  0  0  0  0
   55.9660   21.5390   42.8380 O   0  0  0  0  0  0  0  0  0  0  0  0
   55.8950   22.9340   42.6390 C   0  0  0  0  0  0  0  0  0  0  0  0
   56.2020   23.6870   43.9490 C   0  0  0  0  0  0  0  0  0  0  0  0
   56.5570   26.7390   46.1420 C   0  0  0  0  0  0  0  0  0  0  0  0
   57.1870   27.8440   45.5730 C   0  0  0  0  0  0  0  0  0  0  0  0
   56.6300   29.0600   44.9900 C   0  0  0  0  0  0  0  0  0  0  0  0
   55.4050   29.3330   44.8880 O   0  0  0  0  0  0  0  0  0  0  0  0
   57.4579   32.7698   46.3999 H   0  0  0  0  0  0  0  0  0  0  0  0
   57.1126   34.0598   45.1984 H   0  0  0  0  0  0  0  0  0  0  0  0
   56.1409   32.5490   45.1984 H   0  0  0  0  0  0  0  0  0  0  0  0
   58.4097   33.0780   43.6332 H   0  0  0  0  0  0  0  0  0  0  0  0
   59.0095   32.0100   44.9772 H   0  0  0  0  0  0  0  0  0  0  0  0
   56.4884   31.2745   43.4840 H   0  0  0  0  0  0  0  0  0  0  0  0
   58.1127   30.9365   42.7606 H   0  0  0  0  0  0  0  0  0  0  0  0
   60.4745   26.9531   45.8117 H   0  0  0  0  0  0  0  0  0  0  0  0
   59.3977   24.9301   46.8533 H   0  0  0  0  0  0  0  0  0  0  0  0
   54.4418   22.2316   46.9566 H   0  0  0  0  0  0  0  0  0  0  0  0
   54.4128   23.0703   45.3651 H   0  0  0  0  0  0  0  0  0  0  0  0
   56.8983   21.8998   46.7224 H   0  0  0  0  0  0  0  0  0  0  0  0
   55.9877   21.1523   45.3567 H   0  0  0  0  0  0  0  0  0  0  0  0
   58.7096   22.7404   43.5607 H   0  0  0  0  0  0  0  0  0  0  0  0
   58.5707   21.4440   44.8207 H   0  0  0  0  0  0  0  0  0  0  0  0
   57.8631   21.1736   42.1448 H   0  0  0  0  0  0  0  0  0  0  0  0
   57.2783   20.1436   43.5316 H   0  0  0  0  0  0  0  0  0  0  0  0
   56.6283   23.2274   41.8733 H   0  0  0  0  0  0  0  0  0  0  0  0
   54.8774   23.1935   42.3117 H   0  0  0  0  0  0  0  0  0  0  0  0
   56.7142   24.6288   43.7029 H   0  0  0  0  0  0  0  0  0  0  0  0
   55.2462   23.8690   44.4621 H   0  0  0  0  0  0  0  0  0  0  0  0
   55.4603   26.6873   46.2098 H   0  0  0  0  0  0  0  0  0  0  0  0
  1  2  1  0
  2  3  1  0
  3  4  1  0
  4  5  1  0
  5  6  2  0
  5  7  1  0
  7  8  2  0
  8  9  1  0
  9 10  2  0
 10 11  1  0
 11 12  2  0
 11 13  1  0
 13 14  1  0
 14 15  1  0
 15 16  1  0
 16 17  1  0
 17 18  1  0
 18 19  1  0
 19 20  1  0
 20 21  1  0
 10 22  1  0
 22 23  2  0
 23 24  1  0
 24 25  2  0
 24  4  1  0
 23  7  1  0
 21 16  1  0
  1 26  1  0
  1 27  1  0
  1 28  1  0
  2 29  1  0
  2 30  1  0
  3 31  1  0
  3 32  1  0
  8 33  1  0
  9 34  1  0
 14 35  1  0
 14 36  1  0
 15 37  1  0
 15 38  1  0
 17 39  1  0
 17 40  1  0
 18 41  1  0
 18 42  1  0
 20 43  1  0
 20 44  1  0
 21 45  1  0
 21 46  1  0
 22 47  1  0
M  CHG  1  13  -1
M  END
>  <UniqueID>  (50) 
45

>  <SMILES>  (50) 
CCCN1C(=O)c2ccc(C(=O)[N-]CCN3CCOCC3)cc2C1=O

>  <Energy>  (50) 
88.41942200087354

>  <Genealogy>  (50) 
CCCN1C(=O)c2ccc(C(=O)[N-]CCN3CCOCC3)cc2C1=O (protonated)
CCCN1C(=O)c2ccc(C(=O)[N-]CCN3CCOCC3)cc2C1=O (3D coordinates assigned)
CCCN1C(=O)c2ccc(C(=O)[N-]CCN3CCOCC3)cc2C1=O (nonaromatic ring conformer: 88.41942200087354 kcal/mol)

>  <smiles>  (50) 
CCCN1C(=O)c2ccc(C(=O)NCCN3CCOCC3)cc2C1=O

>  <score_type>  (50) 
oracle

>  <origin>  (50) 
adg

>  <m_score__min__energy>  (50) 
-9.5600000000000005

>  <m_primary>  (50) 
energy

$$$$
