0:0
     RDKit          3D

 46 47  0  0  0  0  0  0  0  0999 V2000
   57.0630   34.5690   44.8630 C   0  0  0  0  0  0  0  0  0  0  0  0
   57.2480   33.3610   45.7790 C   0  0  0  0  0  0  0  0  0  0  0  0
   58.3930   32.5270   45.3450 N   0  0  0  0  0  0  0  0  0  0  0  0
   58.0400   31.6660   44.1970 C   0  0  0  0  0  0  0  0  0  0  0  0
   57.6920   30.2850   44.6710 C   0  0  0  0  0  0  0  0  0  0  0  0
   56.5060   30.0300   45.0110 O   0  0  0  0  0  0  0  0  0  0  0  0
   58.7080   29.2780   44.7740 N   0  0  0  0  0  0  0  0  0  0  0  0
   58.4140   27.9500   45.2340 C   0  0  0  0  0  0  0  0  0  0  0  0
   58.1240   26.9200   44.3100 C   0  0  0  0  0  0  0  0  0  0  0  0
   58.1140   27.1780   42.8280 C   0  0  0  0  0  0  0  0  0  0  0  0
   57.8080   25.6370   44.7840 C   0  0  0  0  0  0  0  0  0  0  0  0
   57.8170   25.3670   46.1520 C   0  0  0  0  0  0  0  0  0  0  0  0
   58.1330   26.3730   47.0640 C   0  0  0  0  0  0  0  0  0  0  0  0
   58.4380   27.6680   46.6170 C   0  0  0  0  0  0  0  0  0  0  0  0
   58.7370   28.7520   47.6180 C   0  0  0  0  0  0  0  0  0  0  0  0
   59.0230   31.7570   46.4490 C   0  0  0  0  0  0  0  0  0  0  0  0
   60.4550   32.1580   46.7450 C   0  0  0  0  0  0  0  0  0  0  0  0
   61.3700   31.2190   47.2520 C   0  0  0  0  0  0  0  0  0  0  0  0
   62.6890   31.5950   47.5250 C   0  0  0  0  0  0  0  0  0  0  0  0
   63.1090   32.9050   47.2860 C   0  0  0  0  0  0  0  0  0  0  0  0
   64.3890   33.2680   47.5500 F   0  0  0  0  0  0  0  0  0  0  0  0
   62.2110   33.8430   46.7680 C   0  0  0  0  0  0  0  0  0  0  0  0
   60.8910   33.4710   46.4940 C   0  0  0  0  0  0  0  0  0  0  0  0
   56.9244   35.4739   45.4729 H   0  0  0  0  0  0  0  0  0  0  0  0
   57.9535   34.6876   44.2282 H   0  0  0  0  0  0  0  0  0  0  0  0
   56.1779   34.4156   44.2282 H   0  0  0  0  0  0  0  0  0  0  0  0
   57.4301   33.7137   46.8049 H   0  0  0  0  0  0  0  0  0  0  0  0
   56.3355   32.7484   45.7344 H   0  0  0  0  0  0  0  0  0  0  0  0
   57.1757   32.0980   43.6713 H   0  0  0  0  0  0  0  0  0  0  0  0
   58.9021   31.6048   43.5165 H   0  0  0  0  0  0  0  0  0  0  0  0
   59.7080   29.5470   44.6390 H   0  0  0  0  0  0  0  0  0  0  0  0
   58.0720   28.2618   42.6448 H   0  0  0  0  0  0  0  0  0  0  0  0
   59.0288   26.7652   42.3778 H   0  0  0  0  0  0  0  0  0  0  0  0
   57.2339   26.6956   42.3778 H   0  0  0  0  0  0  0  0  0  0  0  0
   57.5515   24.8392   44.0714 H   0  0  0  0  0  0  0  0  0  0  0  0
   57.5739   24.3567   46.5128 H   0  0  0  0  0  0  0  0  0  0  0  0
   58.1434   26.1503   48.1412 H   0  0  0  0  0  0  0  0  0  0  0  0
   58.6265   28.3513   48.6364 H   0  0  0  0  0  0  0  0  0  0  0  0
   59.7673   29.1096   47.4745 H   0  0  0  0  0  0  0  0  0  0  0  0
   58.0357   29.5872   47.4745 H   0  0  0  0  0  0  0  0  0  0  0  0
   58.4263   31.9090   47.3605 H   0  0  0  0  0  0  0  0  0  0  0  0
   59.0481   30.7052   46.1280 H   0  0  0  0  0  0  0  0  0  0  0  0
   61.0470   30.1835   47.4349 H   0  0  0  0  0  0  0  0  0  0  0  0
   63.3974   30.8569   47.9291 H   0  0  0  0  0  0  0  0  0  0  0  0
   62.5428   34.8740   46.5759 H   0  0  0  0  0  0  0  0  0  0  0  0
   60.1896   34.2101   46.0796 H   0  0  0  0  0  0  0  0  0  0  0  0
  1  2  1  0
  2  3  1  0
  3  4  1  0
  4  5  1  0
  5  6  2  0
  5  7  1  0
  7  8  1  0
  8  9  2  0
  9 10  1  0
  9 11  1  0
 11 12  2  0
 12 13  1  0
 13 14  2  0
 14 15  1  0
  3 16  1  0
 16 17  1  0
 17 18  2  0
 18 19  1  0
 19 20  2  0
 20 21  1  0
 20 22  1  0
 22 23  2  0
 14  8  1  0
 23 17  1  0
  1 24  1  0
  1 25  1  0
  1 26  1  0
  2 27  1  0
  2 28  1  0
  4 29  1  0
  4 30  1  0
  7 31  1  0
 10 32  1  0
 10 33  1  0
 10 34  1  0
 11 35  1  0
 12 36  1  0
 13 37  1  0
 15 38  1  0
 15 39  1  0
 15 40  1  0
 16 41  1  0
 16 42  1  0
 18 43  1  0
 19 44  1  0
 22 45  1  0
 23 46  1  0
M  END
>  <UniqueID>  (1) 
1

>  <SMILES>  (1) 
CCN(CC(=O)Nc1c(C)cccc1C)Cc1ccc(F)cc1

>  <Energy>  (1) 
52.73649498908613

>  <Genealogy>  (1) 
CCN(CC(=O)Nc1c(C)cccc1C)Cc1ccc(F)cc1 (3D coordinates assigned)
CCN(CC(=O)Nc1c(C)cccc1C)Cc1ccc(F)cc1 (optimized conformer: 52.73649498908613 kcal/mol)

>  <smiles>  (1) 
CCN(CC(=O)Nc1c(C)cccc1C)Cc1ccc(F)cc1

>  <score_type>  (1) 
oracle

>  <origin>  (1) 
adg

>  <m_score__min__energy>  (1) 
-7.71

>  <m_primary>  (1) 
energy

$$$$
1:0
     RDKit          3D

 25 24  0  0  0  0  0  0  0  0999 V2000
   55.0401   29.8703   42.9317 H   0  0  0  0  0  0  0  0  0  0  0  0
   55.8580   30.0890   43.6340 C   0  0  0  0  0  0  0  0  0  0  0  0
   55.7480   29.7420   44.8740 N   0  0  0  0  0  0  0  0  0  0  0  0
   55.8880   28.4250   45.2470 O   0  0  0  0  0  0  0  0  0  0  0  0
   57.1580   27.9170   45.6210 C   0  0  0  0  0  0  0  0  0  0  0  0
   57.0239   27.0513   46.2863 H   0  0  0  0  0  0  0  0  0  0  0  0
   57.7240   28.7016   46.1445 H   0  0  0  0  0  0  0  0  0  0  0  0
   57.9240   27.4870   44.3810 C   0  0  0  0  0  0  0  0  0  0  0  0
   58.8468   26.9690   44.6813 H   0  0  0  0  0  0  0  0  0  0  0  0
   57.3002   26.8072   43.7820 H   0  0  0  0  0  0  0  0  0  0  0  0
   58.1795   28.3736   43.7820 H   0  0  0  0  0  0  0  0  0  0  0  0
   57.0910   30.7870   43.1450 C   0  0  0  0  0  0  0  0  0  0  0  0
   57.7634   30.0413   42.6957 H   0  0  0  0  0  0  0  0  0  0  0  0
   56.7769   31.5439   42.4112 H   0  0  0  0  0  0  0  0  0  0  0  0
   57.8450   31.5150   44.2730 C   0  0  0  0  0  0  0  0  0  0  0  0
   57.4222   31.1915   45.2356 H   0  0  0  0  0  0  0  0  0  0  0  0
   58.9076   31.2517   44.1650 H   0  0  0  0  0  0  0  0  0  0  0  0
   57.7590   33.0510   44.1990 C   0  0  0  0  0  0  0  0  0  0  0  0
   58.6646   33.4242   43.6985 H   0  0  0  0  0  0  0  0  0  0  0  0
   56.8391   33.2915   43.6459 H   0  0  0  0  0  0  0  0  0  0  0  0
   57.6460   33.7390   45.5700 C   0  0  0  0  0  0  0  0  0  0  0  0
   56.7391   34.3614   45.5836 H   0  0  0  0  0  0  0  0  0  0  0  0
   57.5981   32.9589   46.3440 H   0  0  0  0  0  0  0  0  0  0  0  0
   58.8120   34.5890   45.8450 C   0  0  0  0  0  0  0  0  0  0  0  0
   59.7310   35.2590   46.0590 N   0  0  0  0  0  0  0  0  0  0  0  0
  1  2  1  0
  2  3  2  0
  3  4  1  0
  4  5  1  0
  5  6  1  0
  5  7  1  0
  5  8  1  0
  8  9  1  0
  8 10  1  0
  8 11  1  0
  2 12  1  0
 12 13  1  0
 12 14  1  0
 12 15  1  0
 15 16  1  0
 15 17  1  0
 15 18  1  0
 18 19  1  0
 18 20  1  0
 18 21  1  0
 21 22  1  0
 21 23  1  0
 21 24  1  0
 24 25  3  0
M  END
>  <UniqueID>  (2) 
2

>  <SMILES>  (2) 
CCO/N=C/CCCCC#N

>  <Energy>  (2) 
7.743826747573152

>  <Genealogy>  (2) 
CCO/N=C/CCCCC#N (cis-trans isomerization)
CCO/N=C/CCCCC#N (3D coordinates assigned)
CCO/N=C/CCCCC#N (optimized conformer: 7.743826747573152 kcal/mol)

>  <smiles>  (2) 
CCON=CCCCCC#N

>  <score_type>  (2) 
oracle

>  <origin>  (2) 
adg

>  <m_score__min__energy>  (2) 
-4.4000000000000004

>  <m_primary>  (2) 
energy

$$$$
2:0
     RDKit          3D

 65 67  0  0  0  0  0  0  0  0999 V2000
   63.2590   33.8340   46.3840 C   0  0  0  0  0  0  0  0  0  0  0  0
   63.7320   32.7400   47.3550 C   0  0  0  0  0  0  0  0  0  0  0  0
   63.0110   32.7840   48.6580 N   0  0  0  0  0  0  0  0  0  0  0  0
   62.5350   34.1670   48.9380 C   0  0  0  0  0  0  0  0  0  0  0  0
   61.3470   34.1980   49.9050 C   0  0  0  0  0  0  0  0  0  0  0  0
   63.9150   32.3230   49.7520 C   0  0  0  0  0  0  0  0  0  0  0  0
   63.3450   31.1450   50.5810 C   0  0  0  0  0  0  0  0  0  0  0  0
   62.2390   30.5050   49.9670 O   0  0  0  0  0  0  0  0  0  0  0  0
   61.0270   30.8010   50.6340 C   0  0  0  0  0  0  0  0  0  0  0  0
   59.9190   31.1590   49.6350 C   0  0  0  0  0  0  0  0  0  0  0  0
   60.4130   31.1270   48.2520 N   0  0  0  0  0  0  0  0  0  0  0  0
   59.5230   31.1270   47.1220 C   0  0  0  0  0  0  0  0  0  0  0  0
   59.0340   32.3450   46.6130 C   0  0  0  0  0  0  0  0  0  0  0  0
   58.2300   32.3470   45.4550 C   0  0  0  0  0  0  0  0  0  0  0  0
   57.8610   31.1590   44.8590 N   0  0  0  0  0  0  0  0  0  0  0  0
   56.8400   31.1460   43.7940 C   0  0  0  0  0  0  0  0  0  0  0  0
   58.4450   29.9780   45.2690 C   0  0  0  0  0  0  0  0  0  0  0  0
   59.2120   29.9340   46.4490 C   0  0  0  0  0  0  0  0  0  0  0  0
   59.5950   28.5710   46.9770 C   0  0  0  0  0  0  0  0  0  0  0  0
   60.2750   27.7360   45.8800 C   0  0  0  0  0  0  0  0  0  0  0  0
   59.6360   27.9090   44.4790 C   0  0  0  0  0  0  0  0  0  0  0  0
   58.3020   28.6790   44.4900 C   0  0  0  0  0  0  0  0  0  0  0  0
   57.8130   33.7030   44.9090 C   0  0  0  0  0  0  0  0  0  0  0  0
   58.9970   34.6810   44.9300 C   0  0  0  0  0  0  0  0  0  0  0  0
   59.7270   34.7500   46.2900 C   0  0  0  0  0  0  0  0  0  0  0  0
   59.2970   33.6690   47.2970 C   0  0  0  0  0  0  0  0  0  0  0  0
   62.8862   34.6962   46.9565 H   0  0  0  0  0  0  0  0  0  0  0  0
   64.1006   34.1507   45.7504 H   0  0  0  0  0  0  0  0  0  0  0  0
   62.4518   33.4379   45.7504 H   0  0  0  0  0  0  0  0  0  0  0  0
   63.5613   31.7578   46.8902 H   0  0  0  0  0  0  0  0  0  0  0  0
   64.7996   32.9112   47.5574 H   0  0  0  0  0  0  0  0  0  0  0  0
   62.1830   32.1490   48.5960 H   0  0  0  0  0  0  0  0  0  0  0  0
   63.3628   34.7418   49.3788 H   0  0  0  0  0  0  0  0  0  0  0  0
   62.1998   34.6027   47.9852 H   0  0  0  0  0  0  0  0  0  0  0  0
   61.7170   34.1883   50.9408 H   0  0  0  0  0  0  0  0  0  0  0  0
   60.7589   35.1118   49.7342 H   0  0  0  0  0  0  0  0  0  0  0  0
   60.7121   33.3161   49.7342 H   0  0  0  0  0  0  0  0  0  0  0  0
   64.8667   32.0024   49.3032 H   0  0  0  0  0  0  0  0  0  0  0  0
   64.0388   33.1700   50.4429 H   0  0  0  0  0  0  0  0  0  0  0  0
   64.1428   30.4012   50.7234 H   0  0  0  0  0  0  0  0  0  0  0  0
   62.9891   31.5624   51.5345 H   0  0  0  0  0  0  0  0  0  0  0  0
   60.7143   29.9225   51.2174 H   0  0  0  0  0  0  0  0  0  0  0  0
   61.1940   31.6647   51.2944 H   0  0  0  0  0  0  0  0  0  0  0  0
   59.0968   30.4356   49.7381 H   0  0  0  0  0  0  0  0  0  0  0  0
   59.5713   32.1792   49.8548 H   0  0  0  0  0  0  0  0  0  0  0  0
   61.4100   30.8600   48.0910 H   0  0  0  0  0  0  0  0  0  0  0  0
   55.8377   31.1332   44.2471 H   0  0  0  0  0  0  0  0  0  0  0  0
   56.9491   32.0456   43.1705 H   0  0  0  0  0  0  0  0  0  0  0  0
   56.9720   30.2495   43.1705 H   0  0  0  0  0  0  0  0  0  0  0  0
   60.2896   28.6927   47.8212 H   0  0  0  0  0  0  0  0  0  0  0  0
   58.6838   28.0495   47.3053 H   0  0  0  0  0  0  0  0  0  0  0  0
   61.3314   28.0367   45.8194 H   0  0  0  0  0  0  0  0  0  0  0  0
   60.1548   26.6790   46.1597 H   0  0  0  0  0  0  0  0  0  0  0  0
   60.3455   28.4553   43.8402 H   0  0  0  0  0  0  0  0  0  0  0  0
   59.4176   26.8991   44.1017 H   0  0  0  0  0  0  0  0  0  0  0  0
   58.0071   28.9077   43.4552 H   0  0  0  0  0  0  0  0  0  0  0  0
   57.5348   28.0561   44.9732 H   0  0  0  0  0  0  0  0  0  0  0  0
   57.4612   33.5833   43.8737 H   0  0  0  0  0  0  0  0  0  0  0  0
   57.0077   34.1072   45.5400 H   0  0  0  0  0  0  0  0  0  0  0  0
   59.7206   34.3655   44.1640 H   0  0  0  0  0  0  0  0  0  0  0  0
   58.5872   35.6832   44.7360 H   0  0  0  0  0  0  0  0  0  0  0  0
   60.8062   34.6404   46.1073 H   0  0  0  0  0  0  0  0  0  0  0  0
   59.4647   35.7195   46.7386 H   0  0  0  0  0  0  0  0  0  0  0  0
   60.0970   33.5345   48.0400 H   0  0  0  0  0  0  0  0  0  0  0  0
   58.3650   33.9987   47.7793 H   0  0  0  0  0  0  0  0  0  0  0  0
  1  2  1  0
  2  3  1  0
  3  4  1  0
  4  5  1  0
  3  6  1  0
  6  7  1  0
  7  8  1  0
  8  9  1  0
  9 10  1  0
 10 11  1  0
 11 12  1  0
 12 13  2  0
 13 14  1  0
 14 15  2  0
 15 16  1  0
 15 17  1  0
 17 18  2  0
 18 19  1  0
 19 20  1  0
 20 21  1  0
 21 22  1  0
 14 23  1  0
 23 24  1  0
 24 25  1  0
 25 26  1  0
 18 12  1  0
 26 13  1  0
 22 17  1  0
  1 27  1  0
  1 28  1  0
  1 29  1  0
  2 30  1  0
  2 31  1  0
  3 32  1  0
  4 33  1  0
  4 34  1  0
  5 35  1  0
  5 36  1  0
  5 37  1  0
  6 38  1  0
  6 39  1  0
  7 40  1  0
  7 41  1  0
  9 42  1  0
  9 43  1  0
 10 44  1  0
 10 45  1  0
 11 46  1  0
 16 47  1  0
 16 48  1  0
 16 49  1  0
 19 50  1  0
 19 51  1  0
 20 52  1  0
 20 53  1  0
 21 54  1  0
 21 55  1  0
 22 56  1  0
 22 57  1  0
 23 58  1  0
 23 59  1  0
 24 60  1  0
 24 61  1  0
 25 62  1  0
 25 63  1  0
 26 64  1  0
 26 65  1  0
M  CHG  2   3   1  15   1
M  END
>  <UniqueID>  (3) 
3

>  <SMILES>  (3) 
CC[NH+](CC)CCOCCNc1c2c([n+](C)c3c1CCCC3)CCCC2

>  <Energy>  (3) 
90.53617596772452

>  <Genealogy>  (3) 
CC[NH+](CC)CCOCCNc1c2c([n+](C)c3c1CCCC3)CCCC2 (protonated)
CC[NH+](CC)CCOCCNc1c2c([n+](C)c3c1CCCC3)CCCC2 (3D coordinates assigned)
CC[NH+](CC)CCOCCNc1c2c([n+](C)c3c1CCCC3)CCCC2 (nonaromatic ring conformer: 90.53617596772452 kcal/mol)

>  <smiles>  (3) 
CCN(CC)CCOCCNc1c2c([n+](C)c3c1CCCC3)CCCC2

>  <score_type>  (3) 
oracle

>  <origin>  (3) 
adg

>  <m_score__min__energy>  (3) 
-4.79

>  <m_primary>  (3) 
energy

$$$$
3:0
     RDKit          3D

 50 52  0  0  0  0  0  0  0  0999 V2000
   57.4340   31.8830   51.6200 C   0  0  0  0  0  0  0  0  0  0  0  0
   58.3350   30.7380   51.4280 C   0  0  0  0  0  0  0  0  0  0  0  0
   59.0870   29.7940   51.2610 C   0  0  0  0  0  0  0  0  0  0  0  0
   60.0100   28.6590   51.0740 C   0  0  0  0  0  0  0  0  0  0  0  0
   60.8230   28.9210   49.9560 O   0  0  0  0  0  0  0  0  0  0  0  0
   60.7210   27.8880   49.0020 C   0  0  0  0  0  0  0  0  0  0  0  0
   59.9420   28.3580   47.7680 C   0  0  0  0  0  0  0  0  0  0  0  0
   59.1350   29.5410   48.0690 N   0  0  0  0  0  0  0  0  0  0  0  0
   58.9820   30.6060   47.1130 C   0  0  0  0  0  0  0  0  0  0  0  0
   58.2200   30.3710   45.9490 C   0  0  0  0  0  0  0  0  0  0  0  0
   57.8310   29.0600   45.5880 C   0  0  0  0  0  0  0  0  0  0  0  0
   57.0250   28.8340   44.4750 C   0  0  0  0  0  0  0  0  0  0  0  0
   56.5810   29.9040   43.7070 C   0  0  0  0  0  0  0  0  0  0  0  0
   56.9590   31.2060   44.0350 C   0  0  0  0  0  0  0  0  0  0  0  0
   57.8100   31.4660   45.1410 C   0  0  0  0  0  0  0  0  0  0  0  0
   58.1980   32.7490   45.4670 N   0  0  0  0  0  0  0  0  0  0  0  0
   57.9940   33.8510   44.4950 C   0  0  0  0  0  0  0  0  0  0  0  0
   58.8360   32.9990   46.6660 C   0  0  0  0  0  0  0  0  0  0  0  0
   58.9470   34.3160   47.1690 C   0  0  0  0  0  0  0  0  0  0  0  0
   59.7100   34.5900   48.2980 C   0  0  0  0  0  0  0  0  0  0  0  0
   60.4260   33.5770   48.9140 C   0  0  0  0  0  0  0  0  0  0  0  0
   60.3110   32.2410   48.4860 C   0  0  0  0  0  0  0  0  0  0  0  0
   61.2880   31.2900   48.9930 N   0  0  0  0  0  0  0  0  0  0  0  0
   62.6730   31.7480   48.7670 C   0  0  0  0  0  0  0  0  0  0  0  0
   59.3850   31.9280   47.4310 C   0  0  0  0  0  0  0  0  0  0  0  0
   57.2930   32.0622   52.6961 H   0  0  0  0  0  0  0  0  0  0  0  0
   57.8731   32.7773   51.1538 H   0  0  0  0  0  0  0  0  0  0  0  0
   56.4615   31.6665   51.1538 H   0  0  0  0  0  0  0  0  0  0  0  0
   60.6380   28.5407   51.9693 H   0  0  0  0  0  0  0  0  0  0  0  0
   59.4388   27.7325   50.9144 H   0  0  0  0  0  0  0  0  0  0  0  0
   61.7314   27.5806   48.6945 H   0  0  0  0  0  0  0  0  0  0  0  0
   60.1836   27.0423   49.4558 H   0  0  0  0  0  0  0  0  0  0  0  0
   60.6542   28.6042   46.9667 H   0  0  0  0  0  0  0  0  0  0  0  0
   59.2677   27.5480   47.4531 H   0  0  0  0  0  0  0  0  0  0  0  0
   58.8880   29.7210   49.0680 H   0  0  0  0  0  0  0  0  0  0  0  0
   58.1697   28.2072   46.1947 H   0  0  0  0  0  0  0  0  0  0  0  0
   56.7393   27.8071   44.2033 H   0  0  0  0  0  0  0  0  0  0  0  0
   55.9302   29.7237   42.8387 H   0  0  0  0  0  0  0  0  0  0  0  0
   56.5915   32.0454   43.4264 H   0  0  0  0  0  0  0  0  0  0  0  0
   57.8199   34.7915   45.0382 H   0  0  0  0  0  0  0  0  0  0  0  0
   58.8886   33.9528   43.8630 H   0  0  0  0  0  0  0  0  0  0  0  0
   57.1223   33.6258   43.8630 H   0  0  0  0  0  0  0  0  0  0  0  0
   58.4212   35.1365   46.6587 H   0  0  0  0  0  0  0  0  0  0  0  0
   59.7452   35.6123   48.7026 H   0  0  0  0  0  0  0  0  0  0  0  0
   61.0958   33.8206   49.7518 H   0  0  0  0  0  0  0  0  0  0  0  0
   61.1540   30.3870   48.4830 H   0  0  0  0  0  0  0  0  0  0  0  0
   61.1430   31.0480   49.9990 H   0  0  0  0  0  0  0  0  0  0  0  0
   63.1678   31.9116   49.7357 H   0  0  0  0  0  0  0  0  0  0  0  0
   63.2236   30.9841   48.1984 H   0  0  0  0  0  0  0  0  0  0  0  0
   62.6597   32.6896   48.1984 H   0  0  0  0  0  0  0  0  0  0  0  0
  1  2  1  0
  2  3  3  0
  3  4  1  0
  4  5  1  0
  5  6  1  0
  6  7  1  0
  7  8  1  0
  8  9  1  0
  9 10  2  0
 10 11  1  0
 11 12  2  0
 12 13  1  0
 13 14  2  0
 14 15  1  0
 15 16  2  0
 16 17  1  0
 16 18  1  0
 18 19  2  0
 19 20  1  0
 20 21  2  0
 21 22  1  0
 22 23  1  0
 23 24  1  0
 22 25  2  0
 25  9  1  0
 15 10  1  0
 25 18  1  0
  1 26  1  0
  1 27  1  0
  1 28  1  0
  4 29  1  0
  4 30  1  0
  6 31  1  0
  6 32  1  0
  7 33  1  0
  7 34  1  0
  8 35  1  0
 11 36  1  0
 12 37  1  0
 13 38  1  0
 14 39  1  0
 17 40  1  0
 17 41  1  0
 17 42  1  0
 19 43  1  0
 20 44  1  0
 21 45  1  0
 23 46  1  0
 23 47  1  0
 24 48  1  0
 24 49  1  0
 24 50  1  0
M  CHG  2  16   1  23   1
M  END
>  <UniqueID>  (4) 
4

>  <SMILES>  (4) 
CC#CCOCCNc1c2ccccc2[n+](C)c2cccc([NH2+]C)c12

>  <Energy>  (4) 
82.97587274769292

>  <Genealogy>  (4) 
CC#CCOCCNc1c2ccccc2[n+](C)c2cccc([NH2+]C)c12 (protonated)
CC#CCOCCNc1c2ccccc2[n+](C)c2cccc([NH2+]C)c12 (3D coordinates assigned)
CC#CCOCCNc1c2ccccc2[n+](C)c2cccc([NH2+]C)c12 (optimized conformer: 82.97587274769292 kcal/mol)

>  <smiles>  (4) 
CC#CCOCCNc1c2ccccc2[n+](C)c2cccc(NC)c12

>  <score_type>  (4) 
oracle

>  <origin>  (4) 
adg

>  <m_score__min__energy>  (4) 
-3.1400000000000001

>  <m_primary>  (4) 
energy

$$$$
4:0
     RDKit          3D

 51 53  0  0  0  0  0  0  0  0999 V2000
   52.4880   29.7870   52.0130 C   0  0  0  0  0  0  0  0  0  0  0  0
   53.2430   30.6710   51.0170 C   0  0  0  0  0  0  0  0  0  0  0  0
   54.4950   31.2100   51.5900 N   0  0  0  0  0  0  0  0  0  0  0  0
   55.0000   30.4130   52.7300 C   0  0  0  0  0  0  0  0  0  0  0  0
   56.3400   29.7190   52.4310 C   0  0  0  0  0  0  0  0  0  0  0  0
   57.0860   30.5040   51.5200 O   0  0  0  0  0  0  0  0  0  0  0  0
   57.6930   31.5980   52.1740 C   0  0  0  0  0  0  0  0  0  0  0  0
   58.3240   32.5230   51.1310 C   0  0  0  0  0  0  0  0  0  0  0  0
   58.7650   31.7850   49.9400 N   0  0  0  0  0  0  0  0  0  0  0  0
   59.7700   32.2950   49.0390 C   0  0  0  0  0  0  0  0  0  0  0  0
   59.3990   32.9960   47.8760 C   0  0  0  0  0  0  0  0  0  0  0  0
   58.0480   33.0820   47.4820 C   0  0  0  0  0  0  0  0  0  0  0  0
   57.6740   33.8570   46.3880 C   0  0  0  0  0  0  0  0  0  0  0  0
   58.6360   34.5560   45.6680 C   0  0  0  0  0  0  0  0  0  0  0  0
   59.9830   34.4420   46.0070 C   0  0  0  0  0  0  0  0  0  0  0  0
   60.4020   33.6190   47.0840 C   0  0  0  0  0  0  0  0  0  0  0  0
   61.7390   33.4330   47.3810 N   0  0  0  0  0  0  0  0  0  0  0  0
   62.7750   33.8480   46.4090 C   0  0  0  0  0  0  0  0  0  0  0  0
   62.1080   32.8300   48.5690 C   0  0  0  0  0  0  0  0  0  0  0  0
   63.4520   32.8430   49.0270 C   0  0  0  0  0  0  0  0  0  0  0  0
   63.8180   32.1970   50.2100 C   0  0  0  0  0  0  0  0  0  0  0  0
   65.6380   32.2350   50.7970 Br  0  0  0  0  0  0  0  0  0  0  0  0
   62.8600   31.5370   50.9710 C   0  0  0  0  0  0  0  0  0  0  0  0
   61.5260   31.5470   50.5730 C   0  0  0  0  0  0  0  0  0  0  0  0
   61.1290   32.2080   49.3900 C   0  0  0  0  0  0  0  0  0  0  0  0
   52.7454   30.0884   53.0391 H   0  0  0  0  0  0  0  0  0  0  0  0
   51.4051   29.9020   51.8578 H   0  0  0  0  0  0  0  0  0  0  0  0
   52.7710   28.7354   51.8578 H   0  0  0  0  0  0  0  0  0  0  0  0
   53.4888   30.0728   50.1272 H   0  0  0  0  0  0  0  0  0  0  0  0
   52.5946   31.5214   50.7594 H   0  0  0  0  0  0  0  0  0  0  0  0
   54.3400   32.1960   51.9100 H   0  0  0  0  0  0  0  0  0  0  0  0
   55.2150   31.2590   50.8340 H   0  0  0  0  0  0  0  0  0  0  0  0
   55.1364   31.0821   53.5924 H   0  0  0  0  0  0  0  0  0  0  0  0
   54.2598   29.6254   52.9346 H   0  0  0  0  0  0  0  0  0  0  0  0
   56.9087   29.6022   53.3653 H   0  0  0  0  0  0  0  0  0  0  0  0
   56.1495   28.7291   51.9909 H   0  0  0  0  0  0  0  0  0  0  0  0
   56.9337   32.1521   52.7453 H   0  0  0  0  0  0  0  0  0  0  0  0
   58.4704   31.2320   52.8608 H   0  0  0  0  0  0  0  0  0  0  0  0
   57.5817   33.2762   50.8281 H   0  0  0  0  0  0  0  0  0  0  0  0
   59.2069   32.9967   51.5850 H   0  0  0  0  0  0  0  0  0  0  0  0
   58.4300   30.8030   49.8080 H   0  0  0  0  0  0  0  0  0  0  0  0
   57.2810   32.5305   48.0455 H   0  0  0  0  0  0  0  0  0  0  0  0
   56.6160   33.9164   46.0928 H   0  0  0  0  0  0  0  0  0  0  0  0
   58.3335   35.2002   44.8292 H   0  0  0  0  0  0  0  0  0  0  0  0
   60.7346   35.0000   45.4293 H   0  0  0  0  0  0  0  0  0  0  0  0
   63.6640   34.2041   46.9502 H   0  0  0  0  0  0  0  0  0  0  0  0
   63.0495   32.9904   45.7772 H   0  0  0  0  0  0  0  0  0  0  0  0
   62.3816   34.6579   45.7772 H   0  0  0  0  0  0  0  0  0  0  0  0
   64.2180   33.3709   48.4400 H   0  0  0  0  0  0  0  0  0  0  0  0
   63.1561   31.0066   51.8881 H   0  0  0  0  0  0  0  0  0  0  0  0
   60.7719   31.0337   51.1876 H   0  0  0  0  0  0  0  0  0  0  0  0
  1  2  1  0
  2  3  1  0
  3  4  1  0
  4  5  1  0
  5  6  1  0
  6  7  1  0
  7  8  1  0
  8  9  1  0
  9 10  1  0
 10 11  2  0
 11 12  1  0
 12 13  2  0
 13 14  1  0
 14 15  2  0
 15 16  1  0
 16 17  2  0
 17 18  1  0
 17 19  1  0
 19 20  2  0
 20 21  1  0
 21 22  1  0
 21 23  2  0
 23 24  1  0
 24 25  2  0
 25 10  1  0
 16 11  1  0
 25 19  1  0
  1 26  1  0
  1 27  1  0
  1 28  1  0
  2 29  1  0
  2 30  1  0
  3 31  1  0
  3 32  1  0
  4 33  1  0
  4 34  1  0
  5 35  1  0
  5 36  1  0
  7 37  1  0
  7 38  1  0
  8 39  1  0
  8 40  1  0
  9 41  1  0
 12 42  1  0
 13 43  1  0
 14 44  1  0
 15 45  1  0
 18 46  1  0
 18 47  1  0
 18 48  1  0
 20 49  1  0
 23 50  1  0
 24 51  1  0
M  CHG  2   3   1  17   1
M  END
>  <UniqueID>  (5) 
5

>  <SMILES>  (5) 
CC[NH2+]CCOCCNc1c2ccccc2[n+](C)c2cc(Br)ccc12

>  <Energy>  (5) 
72.80974264572095

>  <Genealogy>  (5) 
CC[NH2+]CCOCCNc1c2ccccc2[n+](C)c2cc(Br)ccc12 (protonated)
CC[NH2+]CCOCCNc1c2ccccc2[n+](C)c2cc(Br)ccc12 (3D coordinates assigned)
CC[NH2+]CCOCCNc1c2ccccc2[n+](C)c2cc(Br)ccc12 (optimized conformer: 72.80974264572095 kcal/mol)

>  <smiles>  (5) 
CCNCCOCCNc1c2ccccc2[n+](C)c2cc(Br)ccc12

>  <score_type>  (5) 
oracle

>  <origin>  (5) 
adg

>  <m_score__min__energy>  (5) 
-4.6200000000000001

>  <m_primary>  (5) 
energy

$$$$
5:0
     RDKit          3D

 53 55  0  0  0  0  0  0  0  0999 V2000
   65.7610   32.4140   50.1680 C   0  0  0  0  0  0  0  0  0  0  0  0
   64.4430   32.9270   49.5790 C   0  0  0  0  0  0  0  0  0  0  0  0
   64.4830   33.0240   48.1080 N   0  0  0  0  0  0  0  0  0  0  0  0
   63.3700   33.8310   47.5730 C   0  0  0  0  0  0  0  0  0  0  0  0
   62.2070   32.9440   47.0760 C   0  0  0  0  0  0  0  0  0  0  0  0
   62.3660   31.5260   47.4480 N   0  0  0  0  0  0  0  0  0  0  0  0
   61.4750   31.1270   48.5480 C   0  0  0  0  0  0  0  0  0  0  0  0
   60.6640   29.8930   48.1470 C   0  0  0  0  0  0  0  0  0  0  0  0
   59.2540   30.2340   47.9610 N   0  0  0  0  0  0  0  0  0  0  0  0
   58.7600   30.5720   46.6590 C   0  0  0  0  0  0  0  0  0  0  0  0
   58.3860   29.5600   45.7820 C   0  0  0  0  0  0  0  0  0  0  0  0
   57.9470   29.8470   44.5160 C   0  0  0  0  0  0  0  0  0  0  0  0
   57.8490   31.1370   44.0560 N   0  0  0  0  0  0  0  0  0  0  0  0
   57.3830   31.4020   42.6820 C   0  0  0  0  0  0  0  0  0  0  0  0
   58.1830   32.1820   44.9040 C   0  0  0  0  0  0  0  0  0  0  0  0
   58.0800   33.5340   44.4970 C   0  0  0  0  0  0  0  0  0  0  0  0
   58.4050   34.5730   45.3700 C   0  0  0  0  0  0  0  0  0  0  0  0
   58.8310   34.2960   46.6660 C   0  0  0  0  0  0  0  0  0  0  0  0
   58.9460   32.9760   47.0990 C   0  0  0  0  0  0  0  0  0  0  0  0
   58.6410   31.9100   46.2320 C   0  0  0  0  0  0  0  0  0  0  0  0
   57.6350   28.6020   43.7590 C   0  0  0  0  0  0  0  0  0  0  0  0
   57.9110   27.4620   44.7560 C   0  0  0  0  0  0  0  0  0  0  0  0
   58.4400   28.1020   46.0470 C   0  0  0  0  0  0  0  0  0  0  0  0
   65.7049   32.4358   51.2663 H   0  0  0  0  0  0  0  0  0  0  0  0
   65.9364   31.3819   49.8303 H   0  0  0  0  0  0  0  0  0  0  0  0
   66.5880   33.0559   49.8303 H   0  0  0  0  0  0  0  0  0  0  0  0
   63.6360   32.2366   49.8654 H   0  0  0  0  0  0  0  0  0  0  0  0
   64.2697   33.9379   49.9765 H   0  0  0  0  0  0  0  0  0  0  0  0
   65.4030   33.4230   47.8100 H   0  0  0  0  0  0  0  0  0  0  0  0
   64.4110   32.0540   47.7250 H   0  0  0  0  0  0  0  0  0  0  0  0
   62.9975   34.4950   48.3670 H   0  0  0  0  0  0  0  0  0  0  0  0
   63.7477   34.4111   46.7181 H   0  0  0  0  0  0  0  0  0  0  0  0
   61.2692   33.3181   47.5125 H   0  0  0  0  0  0  0  0  0  0  0  0
   62.1978   32.9975   45.9773 H   0  0  0  0  0  0  0  0  0  0  0  0
   62.1830   30.9120   46.6210 H   0  0  0  0  0  0  0  0  0  0  0  0
   62.0779   30.8927   49.4377 H   0  0  0  0  0  0  0  0  0  0  0  0
   60.7851   31.9544   48.7704 H   0  0  0  0  0  0  0  0  0  0  0  0
   61.0643   29.4892   47.2054 H   0  0  0  0  0  0  0  0  0  0  0  0
   60.7421   29.1447   48.9494 H   0  0  0  0  0  0  0  0  0  0  0  0
   58.5570   30.0160   48.7090 H   0  0  0  0  0  0  0  0  0  0  0  0
   56.4273   31.9455   42.7174 H   0  0  0  0  0  0  0  0  0  0  0  0
   58.1311   32.0098   42.1519 H   0  0  0  0  0  0  0  0  0  0  0  0
   57.2431   30.4483   42.1519 H   0  0  0  0  0  0  0  0  0  0  0  0
   57.7389   33.7689   43.4779 H   0  0  0  0  0  0  0  0  0  0  0  0
   58.3241   35.6167   45.0322 H   0  0  0  0  0  0  0  0  0  0  0  0
   59.0776   35.1211   47.3504 H   0  0  0  0  0  0  0  0  0  0  0  0
   59.2778   32.7658   48.1265 H   0  0  0  0  0  0  0  0  0  0  0  0
   56.5818   28.5940   43.4418 H   0  0  0  0  0  0  0  0  0  0  0  0
   58.2361   28.5093   42.8424 H   0  0  0  0  0  0  0  0  0  0  0  0
   56.9824   26.9098   44.9628 H   0  0  0  0  0  0  0  0  0  0  0  0
   58.6446   26.7536   44.3438 H   0  0  0  0  0  0  0  0  0  0  0  0
   57.8016   27.8376   46.9029 H   0  0  0  0  0  0  0  0  0  0  0  0
   59.4534   27.7584   46.3017 H   0  0  0  0  0  0  0  0  0  0  0  0
  1  2  1  0
  2  3  1  0
  3  4  1  0
  4  5  1  0
  5  6  1  0
  6  7  1  0
  7  8  1  0
  8  9  1  0
  9 10  1  0
 10 11  2  0
 11 12  1  0
 12 13  2  0
 13 14  1  0
 13 15  1  0
 15 16  2  0
 16 17  1  0
 17 18  2  0
 18 19  1  0
 19 20  2  0
 12 21  1  0
 21 22  1  0
 22 23  1  0
 20 10  1  0
 23 11  1  0
 20 15  1  0
  1 24  1  0
  1 25  1  0
  1 26  1  0
  2 27  1  0
  2 28  1  0
  3 29  1  0
  3 30  1  0
  4 31  1  0
  4 32  1  0
  5 33  1  0
  5 34  1  0
  6 35  1  0
  7 36  1  0
  7 37  1  0
  8 38  1  0
  8 39  1  0
  9 40  1  0
 14 41  1  0
 14 42  1  0
 14 43  1  0
 16 44  1  0
 17 45  1  0
 18 46  1  0
 19 47  1  0
 21 48  1  0
 21 49  1  0
 22 50  1  0
 22 51  1  0
 23 52  1  0
 23 53  1  0
M  CHG  2   3   1  13   1
M  END
>  <UniqueID>  (6) 
6

>  <SMILES>  (6) 
CC[NH2+]CCNCCNc1c2c([n+](C)c3ccccc13)CCC2

>  <Energy>  (6) 
72.69052588896994

>  <Genealogy>  (6) 
CC[NH2+]CCNCCNc1c2c([n+](C)c3ccccc13)CCC2 (protonated)
CC[NH2+]CCNCCNc1c2c([n+](C)c3ccccc13)CCC2 (3D coordinates assigned)
CC[NH2+]CCNCCNc1c2c([n+](C)c3ccccc13)CCC2 (nonaromatic ring conformer: 72.69052588896994 kcal/mol)

>  <smiles>  (6) 
CCNCCNCCNc1c2c([n+](C)c3ccccc13)CCC2

>  <score_type>  (6) 
oracle

>  <origin>  (6) 
adg

>  <m_score__min__energy>  (6) 
-4

>  <m_primary>  (6) 
energy

$$$$
6:0
     RDKit          3D

 42 43  0  0  0  0  0  0  0  0999 V2000
   55.5280   23.9460   44.4900 C   0  0  0  0  0  0  0  0  0  0  0  0
   54.6680   24.8090   45.4060 C   0  0  0  0  0  0  0  0  0  0  0  0
   55.4850   25.8710   46.0050 N   0  0  0  0  0  0  0  0  0  0  0  0
   56.6330   25.2960   46.7170 C   0  0  0  0  0  0  0  0  0  0  0  0
   57.9520   25.8270   46.1400 C   0  0  0  0  0  0  0  0  0  0  0  0
   58.1630   27.3150   46.4280 C   0  0  0  0  0  0  0  0  0  0  0  0
   57.2060   28.0940   45.7130 O   0  0  0  0  0  0  0  0  0  0  0  0
   57.3710   29.4420   45.3630 C   0  0  0  0  0  0  0  0  0  0  0  0
   56.9010   29.8580   44.1160 C   0  0  0  0  0  0  0  0  0  0  0  0
   57.0400   31.1840   43.7120 C   0  0  0  0  0  0  0  0  0  0  0  0
   57.6560   32.1220   44.5540 C   0  0  0  0  0  0  0  0  0  0  0  0
   57.8000   33.4490   44.1280 C   0  0  0  0  0  0  0  0  0  0  0  0
   58.4200   34.3860   44.9480 C   0  0  0  0  0  0  0  0  0  0  0  0
   58.8950   34.0150   46.2050 C   0  0  0  0  0  0  0  0  0  0  0  0
   58.7510   32.6960   46.6720 C   0  0  0  0  0  0  0  0  0  0  0  0
   59.3010   32.3690   48.0450 C   0  0  0  0  0  0  0  0  0  0  0  0
   59.6390   33.6390   48.8190 C   0  0  0  0  0  0  0  0  0  0  0  0
   58.1360   31.7260   45.8310 C   0  0  0  0  0  0  0  0  0  0  0  0
   57.9890   30.3750   46.2170 C   0  0  0  0  0  0  0  0  0  0  0  0
   56.1748   23.2970   45.0986 H   0  0  0  0  0  0  0  0  0  0  0  0
   54.8787   23.3252   43.8552 H   0  0  0  0  0  0  0  0  0  0  0  0
   56.1511   24.5931   43.8552 H   0  0  0  0  0  0  0  0  0  0  0  0
   53.8534   25.2615   44.8215 H   0  0  0  0  0  0  0  0  0  0  0  0
   54.2481   24.1810   46.2056 H   0  0  0  0  0  0  0  0  0  0  0  0
   55.8560   26.4690   45.2290 H   0  0  0  0  0  0  0  0  0  0  0  0
   56.5699   25.5665   47.7814 H   0  0  0  0  0  0  0  0  0  0  0  0
   56.6105   24.2026   46.5985 H   0  0  0  0  0  0  0  0  0  0  0  0
   58.7841   25.2607   46.5838 H   0  0  0  0  0  0  0  0  0  0  0  0
   57.9128   25.7011   45.0479 H   0  0  0  0  0  0  0  0  0  0  0  0
   58.0469   27.4967   47.5067 H   0  0  0  0  0  0  0  0  0  0  0  0
   59.1744   27.6037   46.1061 H   0  0  0  0  0  0  0  0  0  0  0  0
   56.4165   29.1322   43.4463 H   0  0  0  0  0  0  0  0  0  0  0  0
   56.6645   31.4975   42.7268 H   0  0  0  0  0  0  0  0  0  0  0  0
   57.4210   33.7512   43.1406 H   0  0  0  0  0  0  0  0  0  0  0  0
   58.5360   35.4241   44.6032 H   0  0  0  0  0  0  0  0  0  0  0  0
   59.3894   34.7643   46.8407 H   0  0  0  0  0  0  0  0  0  0  0  0
   58.5482   31.7961   48.6063 H   0  0  0  0  0  0  0  0  0  0  0  0
   60.2220   31.7805   47.9209 H   0  0  0  0  0  0  0  0  0  0  0  0
   59.5849   33.4357   49.8987 H   0  0  0  0  0  0  0  0  0  0  0  0
   60.6559   33.9676   48.5583 H   0  0  0  0  0  0  0  0  0  0  0  0
   58.9200   34.4296   48.5583 H   0  0  0  0  0  0  0  0  0  0  0  0
   58.3626   30.0476   47.1984 H   0  0  0  0  0  0  0  0  0  0  0  0
  1  2  1  0
  2  3  1  0
  3  4  1  0
  4  5  1  0
  5  6  1  0
  6  7  1  0
  7  8  1  0
  8  9  2  0
  9 10  1  0
 10 11  2  0
 11 12  1  0
 12 13  2  0
 13 14  1  0
 14 15  2  0
 15 16  1  0
 16 17  1  0
 15 18  1  0
 18 19  2  0
 19  8  1  0
 18 11  1  0
  1 20  1  0
  1 21  1  0
  1 22  1  0
  2 23  1  0
  2 24  1  0
  3 25  1  0
  4 26  1  0
  4 27  1  0
  5 28  1  0
  5 29  1  0
  6 30  1  0
  6 31  1  0
  9 32  1  0
 10 33  1  0
 12 34  1  0
 13 35  1  0
 14 36  1  0
 16 37  1  0
 16 38  1  0
 17 39  1  0
 17 40  1  0
 17 41  1  0
 19 42  1  0
M  END
>  <UniqueID>  (7) 
7

>  <SMILES>  (7) 
CCNCCCOc1ccc2cccc(CC)c2c1

>  <Energy>  (7) 
35.43336178800814

>  <Genealogy>  (7) 
CCNCCCOc1ccc2cccc(CC)c2c1 (3D coordinates assigned)
CCNCCCOc1ccc2cccc(CC)c2c1 (optimized conformer: 35.43336178800814 kcal/mol)

>  <smiles>  (7) 
CCNCCCOc1ccc2cccc(CC)c2c1

>  <score_type>  (7) 
oracle

>  <origin>  (7) 
adg

>  <m_score__min__energy>  (7) 
-6.79

>  <m_primary>  (7) 
energy

$$$$
7:0
     RDKit          3D

 59 62  0  0  1  0  0  0  0  0999 V2000
   63.9670   33.5700   50.3110 C   0  0  0  0  0  0  0  0  0  0  0  0
   63.8440   32.3570   49.4580 C   0  0  0  0  0  0  0  0  0  0  0  0
   62.8540   32.3390   48.4590 N   0  0  0  0  0  0  0  0  0  0  0  0
   63.4620   32.4920   47.1410 C   0  0  0  0  0  0  0  0  0  0  0  0
   63.1310   33.7790   46.4620 C   0  0  0  0  0  0  0  0  0  0  0  0
   61.9070   31.3080   48.3800 C   0  0  0  0  0  0  0  0  0  0  0  0
   60.5070   31.5410   48.8270 C   0  0  0  0  0  0  0  0  0  0  0  0
   59.4460   30.8360   48.2000 N   0  0  0  0  0  0  0  0  0  0  0  0
   58.9040   31.1200   46.9160 C   0  0  0  0  0  0  0  0  0  0  0  0
   59.0130   32.3770   46.3190 C   0  0  0  0  0  0  0  0  0  0  0  0
   59.5510   33.4380   46.9900 C   0  0  0  0  0  0  0  0  0  0  0  0
   59.6760   34.7120   46.4840 C   0  0  0  0  0  0  0  0  0  0  0  0
   59.2230   34.9310   45.2070 C   0  0  0  0  0  0  0  0  0  0  0  0
   58.6660   33.8790   44.4940 C   0  0  0  0  0  0  0  0  0  0  0  0
   58.5570   32.6010   45.0400 C   0  0  0  0  0  0  0  0  0  0  0  0
   57.9760   31.5890   44.3160 N   0  0  0  0  0  0  0  0  0  0  0  0
   57.5430   31.9590   42.9930 C   0  0  0  0  0  0  0  0  0  0  0  0
   57.8620   30.3840   44.8770 C   0  0  0  0  0  0  0  0  0  0  0  0
   57.2600   29.3890   44.1430 C   0  0  0  0  0  0  0  0  0  0  0  0
   57.1260   28.1780   44.7120 N   0  0  0  0  0  0  0  0  0  0  0  0
   57.5740   27.9320   45.9850 C   0  0  0  0  0  0  0  0  0  0  0  0
   57.3610   26.7360   46.3990 N   0  0  0  0  0  0  0  0  0  0  0  0
   56.9520   25.7000   45.5430 C   0  0  0  0  0  0  0  0  0  0  0  0
   57.6650   25.1430   44.5260 C   0  0  0  0  0  0  0  0  0  0  0  0
   57.1050   24.1170   43.7650 C   0  0  0  0  0  0  0  0  0  0  0  0
   55.8370   23.6280   43.9940 C   0  0  0  0  0  0  0  0  0  0  0  0
   55.1150   24.1950   45.0250 C   0  0  0  0  0  0  0  0  0  0  0  0
   55.6630   25.1950   45.7660 C   0  0  0  0  0  0  0  0  0  0  0  0
   58.1670   28.8820   46.7230 N   0  0  0  0  0  0  0  0  0  0  0  0
   58.3120   30.1030   46.1750 C   0  0  0  0  0  0  0  0  0  0  0  0
   63.9373   33.2774   51.3710 H   0  0  0  0  0  0  0  0  0  0  0  0
   64.9209   34.0740   50.0963 H   0  0  0  0  0  0  0  0  0  0  0  0
   63.1337   34.2553   50.0963 H   0  0  0  0  0  0  0  0  0  0  0  0
   64.8130   32.2114   48.9582 H   0  0  0  0  0  0  0  0  0  0  0  0
   63.5370   31.5651   50.1570 H   0  0  0  0  0  0  0  0  0  0  0  0
   64.5544   32.4332   47.2558 H   0  0  0  0  0  0  0  0  0  0  0  0
   63.0567   31.6874   46.5098 H   0  0  0  0  0  0  0  0  0  0  0  0
   62.9321   34.5522   47.2187 H   0  0  0  0  0  0  0  0  0  0  0  0
   63.9783   34.0904   45.8334 H   0  0  0  0  0  0  0  0  0  0  0  0
   62.2386   33.6430   45.8334 H   0  0  0  0  0  0  0  0  0  0  0  0
   61.8557   31.0056   47.3236 H   0  0  0  0  0  0  0  0  0  0  0  0
   62.2810   30.5685   49.1034 H   0  0  0  0  0  0  0  0  0  0  0  0
   60.4675   31.2923   49.8978 H   0  0  0  0  0  0  0  0  0  0  0  0
   60.3190   32.5891   48.5511 H   0  0  0  0  0  0  0  0  0  0  0  0
   58.9940   30.0180   48.7040 H   0  0  0  0  0  0  0  0  0  0  0  0
   59.9123   33.2608   48.0138 H   0  0  0  0  0  0  0  0  0  0  0  0
   60.1213   35.5226   47.0795 H   0  0  0  0  0  0  0  0  0  0  0  0
   59.3007   35.9302   44.7535 H   0  0  0  0  0  0  0  0  0  0  0  0
   58.3011   34.0580   43.4718 H   0  0  0  0  0  0  0  0  0  0  0  0
   56.7086   32.6720   43.0663 H   0  0  0  0  0  0  0  0  0  0  0  0
   58.3783   32.4266   42.4512 H   0  0  0  0  0  0  0  0  0  0  0  0
   57.2114   31.0610   42.4512 H   0  0  0  0  0  0  0  0  0  0  0  0
   56.8990   29.5780   43.1213 H   0  0  0  0  0  0  0  0  0  0  0  0
   56.6710   27.4180   44.1620 H   0  0  0  0  0  0  0  0  0  0  0  0
   58.6811   25.5015   44.3047 H   0  0  0  0  0  0  0  0  0  0  0  0
   57.6995   23.6804   42.9489 H   0  0  0  0  0  0  0  0  0  0  0  0
   55.4169   22.8180   43.3796 H   0  0  0  0  0  0  0  0  0  0  0  0
   54.0983   23.8386   45.2468 H   0  0  0  0  0  0  0  0  0  0  0  0
   55.0653   25.6294   46.5809 H   0  0  0  0  0  0  0  0  0  0  0  0
  1  2  1  0
  2  3  1  0
  3  4  1  0
  4  5  1  0
  3  6  1  0
  6  7  1  0
  7  8  1  0
  8  9  1  0
  9 10  2  0
 10 11  1  0
 11 12  2  0
 12 13  1  0
 13 14  2  0
 14 15  1  0
 15 16  2  0
 16 17  1  0
 16 18  1  0
 18 19  2  0
 19 20  1  0
 20 21  1  0
 21 22  2  0
 22 23  1  0
 23 24  2  0
 24 25  1  0
 25 26  2  0
 26 27  1  0
 27 28  2  0
 21 29  1  0
 29 30  2  0
 30  9  1  0
 15 10  1  0
 30 18  1  0
 28 23  1  0
  1 31  1  0
  1 32  1  0
  1 33  1  0
  2 34  1  0
  2 35  1  0
  4 36  1  0
  4 37  1  0
  5 38  1  0
  5 39  1  0
  5 40  1  0
  6 41  1  0
  6 42  1  0
  7 43  1  0
  7 44  1  0
  8 45  1  0
 11 46  1  0
 12 47  1  0
 13 48  1  0
 14 49  1  0
 17 50  1  0
 17 51  1  0
 17 52  1  0
 19 53  1  0
 20 54  1  0
 24 55  1  0
 25 56  1  0
 26 57  1  0
 27 58  1  0
 28 59  1  0
M  CHG  1  16   1
M  END
>  <smiles>  (8) 
CCN(CC)CCNc1c2ccccc2[n+](C)c2c[nH]c(=Nc3ccccc3)nc12

>  <score_type>  (8) 
oracle

>  <origin>  (8) 
adg

>  <m_score__min__energy>  (8) 
-7

>  <m_primary>  (8) 
energy

$$$$
8:0
     RDKit          3D

 39 41  0  0  0  0  0  0  0  0999 V2000
   57.0290   31.1980   42.2820 C   0  0  0  0  0  0  0  0  0  0  0  0
   56.2780   30.2160   43.1750 C   0  0  0  0  0  0  0  0  0  0  0  0
   56.3450   30.6220   44.5420 O   0  0  0  0  0  0  0  0  0  0  0  0
   57.5170   30.9570   45.2400 C   0  0  0  0  0  0  0  0  0  0  0  0
   58.5410   30.0280   45.5020 C   0  0  0  0  0  0  0  0  0  0  0  0
   59.6860   30.4160   46.2050 C   0  0  0  0  0  0  0  0  0  0  0  0
   59.8440   31.7500   46.6300 C   0  0  0  0  0  0  0  0  0  0  0  0
   58.8070   32.6630   46.3970 C   0  0  0  0  0  0  0  0  0  0  0  0
   57.6530   32.2690   45.7050 C   0  0  0  0  0  0  0  0  0  0  0  0
   58.9450   34.0440   46.9600 C   0  0  0  0  0  0  0  0  0  0  0  0
   60.3630   34.5610   46.6900 C   0  0  0  0  0  0  0  0  0  0  0  0
   61.4530   33.6120   47.0850 N   0  0  1  0  0  0  0  0  0  0  0  0
   62.2990   34.2020   48.1560 C   0  0  0  0  0  0  0  0  0  0  0  0
   63.2550   33.1800   48.8200 C   0  0  0  0  0  0  0  0  0  0  0  0
   63.5380   31.9850   47.9070 C   0  0  0  0  0  0  0  0  0  0  0  0
   62.2410   31.2820   47.4610 C   0  0  0  0  0  0  0  0  0  0  0  0
   61.0160   32.2360   47.4730 C   0  0  2  0  0  0  0  0  0  0  0  0
   57.5785   31.9165   42.9080 H   0  0  0  0  0  0  0  0  0  0  0  0
   57.7385   30.6473   41.6469 H   0  0  0  0  0  0  0  0  0  0  0  0
   56.3117   31.7385   41.6469 H   0  0  0  0  0  0  0  0  0  0  0  0
   55.2243   30.1765   42.8616 H   0  0  0  0  0  0  0  0  0  0  0  0
   56.7433   29.2239   43.0782 H   0  0  0  0  0  0  0  0  0  0  0  0
   58.4402   28.9902   45.1517 H   0  0  0  0  0  0  0  0  0  0  0  0
   60.4681   29.6751   46.4275 H   0  0  0  0  0  0  0  0  0  0  0  0
   56.8483   32.9974   45.5264 H   0  0  0  0  0  0  0  0  0  0  0  0
   58.2131   34.7111   46.4811 H   0  0  0  0  0  0  0  0  0  0  0  0
   58.7613   34.0203   48.0443 H   0  0  0  0  0  0  0  0  0  0  0  0
   60.4563   34.7631   45.6127 H   0  0  0  0  0  0  0  0  0  0  0  0
   60.4918   35.4620   47.3078 H   0  0  0  0  0  0  0  0  0  0  0  0
   62.0640   33.5150   46.2370 H   0  0  0  0  0  0  0  0  0  0  0  0
   62.9029   35.0101   47.7175 H   0  0  0  0  0  0  0  0  0  0  0  0
   61.6203   34.5679   48.9405 H   0  0  0  0  0  0  0  0  0  0  0  0
   64.2056   33.6820   49.0532 H   0  0  0  0  0  0  0  0  0  0  0  0
   62.7702   32.8037   49.7329 H   0  0  0  0  0  0  0  0  0  0  0  0
   64.0756   32.3387   47.0148 H   0  0  0  0  0  0  0  0  0  0  0  0
   64.1415   31.2597   48.4724 H   0  0  0  0  0  0  0  0  0  0  0  0
   62.3803   30.8989   46.4393 H   0  0  0  0  0  0  0  0  0  0  0  0
   62.0390   30.4681   48.1729 H   0  0  0  0  0  0  0  0  0  0  0  0
   60.6253   32.2523   48.5011 H   0  0  0  0  0  0  0  0  0  0  0  0
  1  2  1  0
  2  3  1  0
  3  4  1  0
  4  5  2  0
  5  6  1  0
  6  7  2  0
  7  8  1  0
  8  9  2  0
  8 10  1  0
 10 11  1  0
 11 12  1  0
 12 13  1  0
 13 14  1  0
 14 15  1  0
 15 16  1  0
 16 17  1  0
  9  4  1  0
 17 12  1  0
 17  7  1  0
  1 18  1  0
  1 19  1  0
  1 20  1  0
  2 21  1  0
  2 22  1  0
  5 23  1  0
  6 24  1  0
  9 25  1  0
 10 26  1  0
 10 27  1  0
 11 28  1  0
 11 29  1  0
 12 30  1  6
 13 31  1  0
 13 32  1  0
 14 33  1  0
 14 34  1  0
 15 35  1  0
 15 36  1  0
 16 37  1  0
 16 38  1  0
 17 39  1  1
M  CHG  1  12   1
M  END
>  <UniqueID>  (9) 
8

>  <SMILES>  (9) 
CCOc1ccc2c(c1)CC[N@H+]1CCCC[C@H]21

>  <Energy>  (9) 
57.58154219090901

>  <Genealogy>  (9) 
CCOc1ccc2c(c1)CC[NH+]1CCCCC21 (protonated)
CCOc1ccc2c(c1)CC[N@H+]1CCCC[C@H]21 (chirality)
CCOc1ccc2c(c1)CC[N@H+]1CCCC[C@H]21 (3D coordinates assigned)
CCOc1ccc2c(c1)CC[N@H+]1CCCC[C@H]21 (nonaromatic ring conformer: 57.58154219090901 kcal/mol)

>  <smiles>  (9) 
CCOc1ccc2c(c1)CCN1CCCCC21

>  <score_type>  (9) 
oracle

>  <origin>  (9) 
adg

>  <m_score__min__energy>  (9) 
-5.1299999999999999

>  <m_primary>  (9) 
energy

$$$$
9:0
     RDKit          3D

 93 96  0  0  0  0  0  0  0  0999 V2000
   64.8720   32.7450   49.4640 C   0  0  0  0  0  0  0  0  0  0  0  0
   63.6620   31.8470   49.4940 C   0  0  0  0  0  0  0  0  0  0  0  0
   62.7470   32.2090   48.3520 N   0  0  0  0  0  0  0  0  0  0  0  0
   63.3160   31.6610   47.1290 C   0  0  0  0  0  0  0  0  0  0  0  0
   62.6740   33.6720   48.1670 C   0  0  0  0  0  0  0  0  0  0  0  0
   61.9530   34.3900   49.2870 C   0  0  0  0  0  0  0  0  0  0  0  0
   60.6870   33.7670   49.6950 O   0  0  0  0  0  0  0  0  0  0  0  0
   60.7020   33.7280   51.1330 C   0  0  0  0  0  0  0  0  0  0  0  0
   59.2870   33.7060   51.6370 C   0  0  0  0  0  0  0  0  0  0  0  0
   58.7770   32.3700   51.7370 O   0  0  0  0  0  0  0  0  0  0  0  0
   58.3910   31.9630   50.4050 C   0  0  0  0  0  0  0  0  0  0  0  0
   59.3690   30.9540   49.7860 C   0  0  0  0  0  0  0  0  0  0  0  0
   60.2680   31.4140   48.6500 N   0  0  0  0  0  0  0  0  0  0  0  0
   59.7160   31.1910   47.2790 C   0  0  0  0  0  0  0  0  0  0  0  0
   59.1030   32.2720   46.6110 C   0  0  0  0  0  0  0  0  0  0  0  0
   59.2250   33.5720   47.1120 C   0  0  0  0  0  0  0  0  0  0  0  0
   58.5170   34.6270   46.5400 C   0  0  0  0  0  0  0  0  0  0  0  0
   57.5780   34.3120   45.5510 C   0  0  0  0  0  0  0  0  0  0  0  0
   57.4650   33.0480   45.0530 C   0  0  0  0  0  0  0  0  0  0  0  0
   58.3070   32.0300   45.5230 C   0  0  0  0  0  0  0  0  0  0  0  0
   58.4370   30.9010   44.8340 N   0  0  0  0  0  0  0  0  0  0  0  0
   57.9370   30.8840   43.4120 C   0  0  0  0  0  0  0  0  0  0  0  0
   58.9210   29.7790   45.4100 C   0  0  0  0  0  0  0  0  0  0  0  0
   58.8280   28.5430   44.8040 C   0  0  0  0  0  0  0  0  0  0  0  0
   59.3130   27.4110   45.3660 C   0  0  0  0  0  0  0  0  0  0  0  0
   59.9650   27.4800   46.6010 C   0  0  0  0  0  0  0  0  0  0  0  0
   60.1020   28.7390   47.2980 C   0  0  0  0  0  0  0  0  0  0  0  0
   60.7120   28.7420   48.5770 O   0  0  0  0  0  0  0  0  0  0  0  0
   60.3980   27.6660   49.4250 C   0  0  0  0  0  0  0  0  0  0  0  0
   61.3260   27.4000   50.5920 C   0  0  0  0  0  0  0  0  0  0  0  0
   61.4570   28.3880   51.7050 N   0  0  0  0  0  0  0  0  0  0  0  0
   60.1020   28.6900   52.2150 C   0  0  0  0  0  0  0  0  0  0  0  0
   62.0630   29.6110   51.1850 C   0  0  0  0  0  0  0  0  0  0  0  0
   62.0350   30.7180   52.2300 C   0  0  0  0  0  0  0  0  0  0  0  0
   62.7540   30.3510   53.4640 N   0  0  0  0  0  0  0  0  0  0  0  0
   64.2170   30.5810   53.2470 C   0  0  0  0  0  0  0  0  0  0  0  0
   62.3240   31.1920   54.5670 C   0  0  0  0  0  0  0  0  0  0  0  0
   62.4950   28.9290   53.9370 C   0  0  0  0  0  0  0  0  0  0  0  0
   62.2230   27.8500   52.8560 C   0  0  0  0  0  0  0  0  0  0  0  0
   59.6240   29.9070   46.6960 C   0  0  0  0  0  0  0  0  0  0  0  0
   65.1830   32.9758   50.4936 H   0  0  0  0  0  0  0  0  0  0  0  0
   65.6934   32.2361   48.9383 H   0  0  0  0  0  0  0  0  0  0  0  0
   64.6228   33.6785   48.9383 H   0  0  0  0  0  0  0  0  0  0  0  0
   63.9794   30.7986   49.3929 H   0  0  0  0  0  0  0  0  0  0  0  0
   63.1303   31.9755   50.4483 H   0  0  0  0  0  0  0  0  0  0  0  0
   64.0868   30.9187   47.3837 H   0  0  0  0  0  0  0  0  0  0  0  0
   62.5225   31.1782   46.5396 H   0  0  0  0  0  0  0  0  0  0  0  0
   63.7686   32.4721   46.5396 H   0  0  0  0  0  0  0  0  0  0  0  0
   63.6991   34.0660   48.1047 H   0  0  0  0  0  0  0  0  0  0  0  0
   62.0994   33.8520   47.2465 H   0  0  0  0  0  0  0  0  0  0  0  0
   62.6194   34.4185   50.1617 H   0  0  0  0  0  0  0  0  0  0  0  0
   61.7005   35.3903   48.9055 H   0  0  0  0  0  0  0  0  0  0  0  0
   61.2282   32.8234   51.4718 H   0  0  0  0  0  0  0  0  0  0  0  0
   61.2215   34.6156   51.5232 H   0  0  0  0  0  0  0  0  0  0  0  0
   59.2564   34.1740   52.6320 H   0  0  0  0  0  0  0  0  0  0  0  0
   58.6608   34.2577   50.9205 H   0  0  0  0  0  0  0  0  0  0  0  0
   57.3935   31.5018   50.4533 H   0  0  0  0  0  0  0  0  0  0  0  0
   58.3942   32.8609   49.7696 H   0  0  0  0  0  0  0  0  0  0  0  0
   60.0247   30.5999   50.5951 H   0  0  0  0  0  0  0  0  0  0  0  0
   58.7171   30.1988   49.3227 H   0  0  0  0  0  0  0  0  0  0  0  0
   60.6240   32.3480   48.8250 H   0  0  0  0  0  0  0  0  0  0  0  0
   61.0900   30.8500   48.7770 H   0  0  0  0  0  0  0  0  0  0  0  0
   59.8882   33.7640   47.9683 H   0  0  0  0  0  0  0  0  0  0  0  0
   58.6894   35.6672   46.8536 H   0  0  0  0  0  0  0  0  0  0  0  0
   56.9162   35.1023   45.1669 H   0  0  0  0  0  0  0  0  0  0  0  0
   56.7126   32.8265   44.2818 H   0  0  0  0  0  0  0  0  0  0  0  0
   56.8376   30.8466   43.4103 H   0  0  0  0  0  0  0  0  0  0  0  0
   58.2737   31.7941   42.8940 H   0  0  0  0  0  0  0  0  0  0  0  0
   58.3348   29.9989   42.8940 H   0  0  0  0  0  0  0  0  0  0  0  0
   58.3384   28.4744   43.8214 H   0  0  0  0  0  0  0  0  0  0  0  0
   59.1951   26.4441   44.8549 H   0  0  0  0  0  0  0  0  0  0  0  0
   60.3791   26.5642   47.0481 H   0  0  0  0  0  0  0  0  0  0  0  0
   59.3957   27.8535   49.8375 H   0  0  0  0  0  0  0  0  0  0  0  0
   60.4861   26.7732   48.7884 H   0  0  0  0  0  0  0  0  0  0  0  0
   60.9940   26.4557   51.0481 H   0  0  0  0  0  0  0  0  0  0  0  0
   62.3211   27.4259   50.1238 H   0  0  0  0  0  0  0  0  0  0  0  0
   60.1151   28.6871   53.3149 H   0  0  0  0  0  0  0  0  0  0  0  0
   59.7869   29.6804   51.8547 H   0  0  0  0  0  0  0  0  0  0  0  0
   59.3962   27.9271   51.8547 H   0  0  0  0  0  0  0  0  0  0  0  0
   63.1070   29.4053   50.9062 H   0  0  0  0  0  0  0  0  0  0  0  0
   61.4889   29.9419   50.3070 H   0  0  0  0  0  0  0  0  0  0  0  0
   62.5035   31.6172   51.8034 H   0  0  0  0  0  0  0  0  0  0  0  0
   60.9832   30.8969   52.4978 H   0  0  0  0  0  0  0  0  0  0  0  0
   64.7239   30.6607   54.2200 H   0  0  0  0  0  0  0  0  0  0  0  0
   64.6406   29.7384   52.6808 H   0  0  0  0  0  0  0  0  0  0  0  0
   64.3616   31.5129   52.6808 H   0  0  0  0  0  0  0  0  0  0  0  0
   62.5740   30.7030   55.5201 H   0  0  0  0  0  0  0  0  0  0  0  0
   62.8358   32.1639   54.5082 H   0  0  0  0  0  0  0  0  0  0  0  0
   61.2364   31.3462   54.5082 H   0  0  0  0  0  0  0  0  0  0  0  0
   63.3777   28.6066   54.5088 H   0  0  0  0  0  0  0  0  0  0  0  0
   61.5583   28.9919   54.5103 H   0  0  0  0  0  0  0  0  0  0  0  0
   63.1862   27.4642   52.4908 H   0  0  0  0  0  0  0  0  0  0  0  0
   61.6212   27.0538   53.3186 H   0  0  0  0  0  0  0  0  0  0  0  0
  1  2  1  0
  2  3  1  0
  3  4  1  0
  3  5  1  0
  5  6  1  0
  6  7  1  0
  7  8  1  0
  8  9  1  0
  9 10  1  0
 10 11  1  0
 11 12  1  0
 12 13  1  0
 13 14  1  0
 14 15  2  0
 15 16  1  0
 16 17  2  0
 17 18  1  0
 18 19  2  0
 19 20  1  0
 20 21  2  0
 21 22  1  0
 21 23  1  0
 23 24  2  0
 24 25  1  0
 25 26  2  0
 26 27  1  0
 27 28  1  0
 28 29  1  0
 29 30  1  0
 30 31  1  0
 31 32  1  0
 31 33  1  0
 33 34  1  0
 34 35  1  0
 35 36  1  0
 35 37  1  0
 35 38  1  0
 38 39  1  0
 27 40  2  0
 40 14  1  0
 20 15  1  0
 40 23  1  0
 39 31  1  0
  1 41  1  0
  1 42  1  0
  1 43  1  0
  2 44  1  0
  2 45  1  0
  4 46  1  0
  4 47  1  0
  4 48  1  0
  5 49  1  0
  5 50  1  0
  6 51  1  0
  6 52  1  0
  8 53  1  0
  8 54  1  0
  9 55  1  0
  9 56  1  0
 11 57  1  0
 11 58  1  0
 12 59  1  0
 12 60  1  0
 13 61  1  0
 13 62  1  0
 16 63  1  0
 17 64  1  0
 18 65  1  0
 19 66  1  0
 22 67  1  0
 22 68  1  0
 22 69  1  0
 24 70  1  0
 25 71  1  0
 26 72  1  0
 29 73  1  0
 29 74  1  0
 30 75  1  0
 30 76  1  0
 32 77  1  0
 32 78  1  0
 32 79  1  0
 33 80  1  0
 33 81  1  0
 34 82  1  0
 34 83  1  0
 36 84  1  0
 36 85  1  0
 36 86  1  0
 37 87  1  0
 37 88  1  0
 37 89  1  0
 38 90  1  0
 38 91  1  0
 39 92  1  0
 39 93  1  0
M  CHG  4  13   1  21   1  31   1  35   1
M  END
>  <UniqueID>  (10) 
9

>  <SMILES>  (10) 
CCN(C)CCOCCOCC[NH2+]c1c2ccccc2[n+](C)c2cccc(OCC[N+]3(C)CC[N+](C)(C)CC3)c12

>  <Energy>  (10) 
265.50012733476495

>  <Genealogy>  (10) 
CCN(C)CCOCCOCC[NH2+]c1c2ccccc2[n+](C)c2cccc(OCC[N+]3(C)CC[N+](C)(C)CC3)c12 (protonated)
CCN(C)CCOCCOCC[NH2+]c1c2ccccc2[n+](C)c2cccc(OCC[N+]3(C)CC[N+](C)(C)CC3)c12 (3D coordinates assigned)
CCN(C)CCOCCOCC[NH2+]c1c2ccccc2[n+](C)c2cccc(OCC[N+]3(C)CC[N+](C)(C)CC3)c12 (nonaromatic ring conformer: 265.50012733476495 kcal/mol)

>  <smiles>  (10) 
CCN(C)CCOCCOCCNc1c2ccccc2[n+](C)c2cccc(OCC[N+]3(C)CC[N+](C)(C)CC3)c12

>  <score_type>  (10) 
oracle

>  <origin>  (10) 
adg

>  <m_score__min__energy>  (10) 
-3.1299999999999999

>  <m_primary>  (10) 
energy

$$$$
10:0
     RDKit          3D

 44 45  0  0  0  0  0  0  0  0999 V2000
   58.8900   28.9470   47.9440 C   0  0  0  0  0  0  0  0  0  0  0  0
   58.2120   28.0700   46.8950 C   0  0  0  0  0  0  0  0  0  0  0  0
   57.7220   28.8900   45.7770 N   0  0  0  0  0  0  0  0  0  0  0  0
   57.7070   28.1300   44.5190 C   0  0  0  0  0  0  0  0  0  0  0  0
   57.0370   28.9580   43.4180 C   0  0  0  0  0  0  0  0  0  0  0  0
   55.8020   29.7230   43.9390 C   0  0  0  0  0  0  0  0  0  0  0  0
   56.2010   30.8820   44.7510 N   0  0  0  0  0  0  0  0  0  0  0  0
   57.2020   31.7000   44.0570 C   0  0  0  0  0  0  0  0  0  0  0  0
   58.0330   32.4440   45.0660 C   0  0  0  0  0  0  0  0  0  0  0  0
   57.7170   33.7710   45.3960 C   0  0  0  0  0  0  0  0  0  0  0  0
   58.4610   34.4580   46.3570 C   0  0  0  0  0  0  0  0  0  0  0  0
   59.5260   33.8230   47.0140 C   0  0  0  0  0  0  0  0  0  0  0  0
   60.2780   34.5040   47.9820 C   0  0  0  0  0  0  0  0  0  0  0  0
   61.3380   33.8670   48.6400 C   0  0  0  0  0  0  0  0  0  0  0  0
   62.0570   34.5950   49.6000 O   0  0  0  0  0  0  0  0  0  0  0  0
   63.1000   34.0540   50.4040 C   0  0  0  0  0  0  0  0  0  0  0  0
   61.6450   32.5310   48.3220 C   0  0  0  0  0  0  0  0  0  0  0  0
   60.9000   31.8430   47.3590 C   0  0  0  0  0  0  0  0  0  0  0  0
   59.8410   32.4800   46.6980 C   0  0  0  0  0  0  0  0  0  0  0  0
   59.0880   31.7970   45.7290 C   0  0  0  0  0  0  0  0  0  0  0  0
   58.6169   28.5937   48.9493 H   0  0  0  0  0  0  0  0  0  0  0  0
   59.9814   28.8904   47.8194 H   0  0  0  0  0  0  0  0  0  0  0  0
   58.5603   29.9890   47.8194 H   0  0  0  0  0  0  0  0  0  0  0  0
   58.9366   27.3350   46.5145 H   0  0  0  0  0  0  0  0  0  0  0  0
   57.3581   27.5552   47.3596 H   0  0  0  0  0  0  0  0  0  0  0  0
   56.7320   29.1580   45.9930 H   0  0  0  0  0  0  0  0  0  0  0  0
   58.7399   27.8959   44.2219 H   0  0  0  0  0  0  0  0  0  0  0  0
   57.1420   27.1976   44.6657 H   0  0  0  0  0  0  0  0  0  0  0  0
   57.7652   29.6838   43.0269 H   0  0  0  0  0  0  0  0  0  0  0  0
   56.7010   28.2671   42.6308 H   0  0  0  0  0  0  0  0  0  0  0  0
   55.2078   30.0724   43.0817 H   0  0  0  0  0  0  0  0  0  0  0  0
   55.2096   29.0427   44.5685 H   0  0  0  0  0  0  0  0  0  0  0  0
   56.6450   30.5150   45.6270 H   0  0  0  0  0  0  0  0  0  0  0  0
   57.8531   31.0491   43.4550 H   0  0  0  0  0  0  0  0  0  0  0  0
   56.6931   32.4208   43.4001 H   0  0  0  0  0  0  0  0  0  0  0  0
   56.8771   34.2734   44.8938 H   0  0  0  0  0  0  0  0  0  0  0  0
   58.2113   35.5013   46.6002 H   0  0  0  0  0  0  0  0  0  0  0  0
   60.0333   35.5481   48.2269 H   0  0  0  0  0  0  0  0  0  0  0  0
   62.8487   34.1843   51.4670 H   0  0  0  0  0  0  0  0  0  0  0  0
   63.2150   32.9826   50.1831 H   0  0  0  0  0  0  0  0  0  0  0  0
   64.0421   34.5771   50.1831 H   0  0  0  0  0  0  0  0  0  0  0  0
   62.4764   32.0245   48.8342 H   0  0  0  0  0  0  0  0  0  0  0  0
   61.1461   30.7980   47.1194 H   0  0  0  0  0  0  0  0  0  0  0  0
   59.3259   30.7503   45.4884 H   0  0  0  0  0  0  0  0  0  0  0  0
  1  2  1  0
  2  3  1  0
  3  4  1  0
  4  5  1  0
  5  6  1  0
  6  7  1  0
  7  8  1  0
  8  9  1  0
  9 10  2  0
 10 11  1  0
 11 12  2  0
 12 13  1  0
 13 14  2  0
 14 15  1  0
 15 16  1  0
 14 17  1  0
 17 18  2  0
 18 19  1  0
 19 20  2  0
 20  9  1  0
 19 12  1  0
  1 21  1  0
  1 22  1  0
  1 23  1  0
  2 24  1  0
  2 25  1  0
  3 26  1  0
  4 27  1  0
  4 28  1  0
  5 29  1  0
  5 30  1  0
  6 31  1  0
  6 32  1  0
  7 33  1  0
  8 34  1  0
  8 35  1  0
 10 36  1  0
 11 37  1  0
 13 38  1  0
 16 39  1  0
 16 40  1  0
 16 41  1  0
 17 42  1  0
 18 43  1  0
 20 44  1  0
M  END
>  <UniqueID>  (11) 
10

>  <SMILES>  (11) 
CCNCCCNCc1ccc2cc(OC)ccc2c1

>  <Energy>  (11) 
40.690200216434775

>  <Genealogy>  (11) 
CCNCCCNCc1ccc2cc(OC)ccc2c1 (3D coordinates assigned)
CCNCCCNCc1ccc2cc(OC)ccc2c1 (optimized conformer: 40.690200216434775 kcal/mol)

>  <smiles>  (11) 
CCNCCCNCc1ccc2cc(OC)ccc2c1

>  <score_type>  (11) 
oracle

>  <origin>  (11) 
adg

>  <m_score__min__energy>  (11) 
-7.0700000000000003

>  <m_primary>  (11) 
energy

$$$$
11:0
     RDKit          3D

 50 51  0  0  0  0  0  0  0  0999 V2000
   59.6360   33.7490   51.1380 C   0  0  0  0  0  0  0  0  0  0  0  0
   59.2770   33.2550   49.7320 C   0  0  0  0  0  0  0  0  0  0  0  0
   59.8010   34.1410   48.6580 N   0  0  1  0  0  0  0  0  0  0  0  0
   61.2720   34.2220   48.7940 C   0  0  0  0  0  0  0  0  0  0  0  0
   59.3070   33.7170   47.2930 C   0  0  0  0  0  0  0  0  0  0  0  0
   59.6680   34.6590   46.1120 C   0  0  0  0  0  0  0  0  0  0  0  0
   59.2150   34.0740   44.7530 C   0  0  0  0  0  0  0  0  0  0  0  0
   58.1990   33.0120   44.9130 N   0  0  0  0  0  0  0  0  0  0  0  0
   57.6850   32.4810   43.6290 C   0  0  0  0  0  0  0  0  0  0  0  0
   57.3410   30.9730   43.6140 C   0  0  0  0  0  0  0  0  0  0  0  0
   57.0150   30.4660   44.9530 N   0  0  0  0  0  0  0  0  0  0  0  0
   57.8060   29.2760   45.2890 C   0  0  0  0  0  0  0  0  0  0  0  0
   58.8090   29.6230   46.3530 C   0  0  0  0  0  0  0  0  0  0  0  0
   60.0020   30.2800   46.0120 C   0  0  0  0  0  0  0  0  0  0  0  0
   60.9160   30.6420   47.0070 C   0  0  0  0  0  0  0  0  0  0  0  0
   60.6420   30.3590   48.3480 C   0  0  0  0  0  0  0  0  0  0  0  0
   61.8900   30.8580   49.7050 Br  0  0  0  0  0  0  0  0  0  0  0  0
   59.4490   29.7170   48.6960 C   0  0  0  0  0  0  0  0  0  0  0  0
   58.5340   29.3530   47.7030 C   0  0  0  0  0  0  0  0  0  0  0  0
   57.1600   33.3740   45.8920 C   0  0  0  0  0  0  0  0  0  0  0  0
   57.7660   33.5050   47.3030 C   0  0  0  0  0  0  0  0  0  0  0  0
   59.1627   33.0977   51.8875 H   0  0  0  0  0  0  0  0  0  0  0  0
   60.7280   33.7239   51.2677 H   0  0  0  0  0  0  0  0  0  0  0  0
   59.2749   34.7799   51.2677 H   0  0  0  0  0  0  0  0  0  0  0  0
   59.6994   32.2487   49.5946 H   0  0  0  0  0  0  0  0  0  0  0  0
   58.1799   33.2516   49.6524 H   0  0  0  0  0  0  0  0  0  0  0  0
   59.4610   35.1090   48.8740 H   0  0  0  0  0  0  0  0  0  0  0  0
   61.5414   34.2368   49.8604 H   0  0  0  0  0  0  0  0  0  0  0  0
   61.7335   33.3479   48.3114 H   0  0  0  0  0  0  0  0  0  0  0  0
   61.6348   35.1415   48.3114 H   0  0  0  0  0  0  0  0  0  0  0  0
   59.8474   32.7772   47.1068 H   0  0  0  0  0  0  0  0  0  0  0  0
   59.1722   35.6289   46.2655 H   0  0  0  0  0  0  0  0  0  0  0  0
   60.7617   34.7743   46.0878 H   0  0  0  0  0  0  0  0  0  0  0  0
   58.7879   34.8839   44.1434 H   0  0  0  0  0  0  0  0  0  0  0  0
   60.0954   33.6286   44.2667 H   0  0  0  0  0  0  0  0  0  0  0  0
   56.7713   33.0382   43.3749 H   0  0  0  0  0  0  0  0  0  0  0  0
   58.5026   32.6083   42.9042 H   0  0  0  0  0  0  0  0  0  0  0  0
   56.4754   30.8135   42.9542 H   0  0  0  0  0  0  0  0  0  0  0  0
   58.2254   30.4281   43.2522 H   0  0  0  0  0  0  0  0  0  0  0  0
   57.2570   31.2130   45.6460 H   0  0  0  0  0  0  0  0  0  0  0  0
   57.1379   28.4846   45.6595 H   0  0  0  0  0  0  0  0  0  0  0  0
   58.3331   28.9214   44.3910 H   0  0  0  0  0  0  0  0  0  0  0  0
   60.2187   30.5109   44.9586 H   0  0  0  0  0  0  0  0  0  0  0  0
   61.8523   31.1504   46.7335 H   0  0  0  0  0  0  0  0  0  0  0  0
   59.2303   29.4982   49.7516 H   0  0  0  0  0  0  0  0  0  0  0  0
   57.5945   28.8529   47.9810 H   0  0  0  0  0  0  0  0  0  0  0  0
   56.7088   34.3343   45.6018 H   0  0  0  0  0  0  0  0  0  0  0  0
   56.3955   32.5832   45.9065 H   0  0  0  0  0  0  0  0  0  0  0  0
   57.2985   34.3646   47.8054 H   0  0  0  0  0  0  0  0  0  0  0  0
   57.5703   32.5600   47.8309 H   0  0  0  0  0  0  0  0  0  0  0  0
  1  2  1  0
  2  3  1  0
  3  4  1  0
  3  5  1  0
  5  6  1  0
  6  7  1  0
  7  8  1  0
  8  9  1  0
  9 10  1  0
 10 11  1  0
 11 12  1  0
 12 13  1  0
 13 14  2  0
 14 15  1  0
 15 16  2  0
 16 17  1  0
 16 18  1  0
 18 19  2  0
  8 20  1  0
 20 21  1  0
 21  5  1  0
 19 13  1  0
  1 22  1  0
  1 23  1  0
  1 24  1  0
  2 25  1  0
  2 26  1  0
  3 27  1  1
  4 28  1  0
  4 29  1  0
  4 30  1  0
  5 31  1  0
  6 32  1  0
  6 33  1  0
  7 34  1  0
  7 35  1  0
  9 36  1  0
  9 37  1  0
 10 38  1  0
 10 39  1  0
 11 40  1  0
 12 41  1  0
 12 42  1  0
 14 43  1  0
 15 44  1  0
 18 45  1  0
 19 46  1  0
 20 47  1  0
 20 48  1  0
 21 49  1  0
 21 50  1  0
M  CHG  1   3   1
M  END
>  <UniqueID>  (12) 
11

>  <SMILES>  (12) 
CC[N@@H+](C)C1CCN(CCNCc2ccc(Br)cc2)CC1

>  <Energy>  (12) 
67.99232127337118

>  <Genealogy>  (12) 
CC[NH+](C)C1CCN(CCNCc2ccc(Br)cc2)CC1 (protonated)
CC[N@@H+](C)C1CCN(CCNCc2ccc(Br)cc2)CC1 (chirality)
CC[N@@H+](C)C1CCN(CCNCc2ccc(Br)cc2)CC1 (3D coordinates assigned)
CC[N@@H+](C)C1CCN(CCNCc2ccc(Br)cc2)CC1 (nonaromatic ring conformer: 67.99232127337118 kcal/mol)

>  <smiles>  (12) 
CCN(C)C1CCN(CCNCc2ccc(Br)cc2)CC1

>  <score_type>  (12) 
oracle

>  <origin>  (12) 
adg

>  <m_score__min__energy>  (12) 
-5.7599999999999998

>  <m_primary>  (12) 
energy

$$$$
12:0
     RDKit          3D

 84 87  0  0  0  0  0  0  0  0999 V2000
   63.3560   34.1850   46.6470 C   0  0  0  0  0  0  0  0  0  0  0  0
   63.2810   33.8140   48.1330 C   0  0  0  0  0  0  0  0  0  0  0  0
   63.1640   32.3500   48.2910 N   0  0  0  0  0  0  0  0  0  0  0  0
   63.5980   31.5930   47.0960 C   0  0  0  0  0  0  0  0  0  0  0  0
   63.7590   31.8480   49.5410 C   0  0  0  0  0  0  0  0  0  0  0  0
   62.7620   31.0990   50.4420 C   0  0  0  0  0  0  0  0  0  0  0  0
   61.4390   31.2920   49.9590 O   0  0  0  0  0  0  0  0  0  0  0  0
   60.7880   30.0330   49.9280 C   0  0  0  0  0  0  0  0  0  0  0  0
   60.1490   29.7480   48.5720 C   0  0  0  0  0  0  0  0  0  0  0  0
   60.8630   30.4250   47.4580 N   0  0  0  0  0  0  0  0  0  0  0  0
   59.9320   30.6990   46.3660 C   0  0  0  0  0  0  0  0  0  0  0  0
   59.4680   29.5990   45.5730 C   0  0  0  0  0  0  0  0  0  0  0  0
   59.9510   28.2730   45.7510 C   0  0  0  0  0  0  0  0  0  0  0  0
   59.2690   27.1890   45.2120 C   0  0  0  0  0  0  0  0  0  0  0  0
   58.1480   27.3750   44.4130 C   0  0  0  0  0  0  0  0  0  0  0  0
   57.7750   28.6660   44.0790 C   0  0  0  0  0  0  0  0  0  0  0  0
   58.4460   29.8100   44.6210 C   0  0  0  0  0  0  0  0  0  0  0  0
   58.1050   31.0670   44.2280 N   0  0  0  0  0  0  0  0  0  0  0  0
   57.3620   31.2360   42.9560 C   0  0  0  0  0  0  0  0  0  0  0  0
   58.4700   32.1540   44.9870 C   0  0  0  0  0  0  0  0  0  0  0  0
   57.9350   33.4290   44.6900 C   0  0  0  0  0  0  0  0  0  0  0  0
   58.5150   34.5700   45.1890 C   0  0  0  0  0  0  0  0  0  0  0  0
   59.5050   34.4710   46.1440 C   0  0  0  0  0  0  0  0  0  0  0  0
   59.8030   33.2440   46.7650 C   0  0  0  0  0  0  0  0  0  0  0  0
   60.2390   33.2740   48.1470 N   0  0  0  0  0  0  0  0  0  0  0  0
   59.3390   33.6530   49.2650 C   0  0  0  0  0  0  0  0  0  0  0  0
   60.0640   33.8330   50.6090 C   0  0  0  0  0  0  0  0  0  0  0  0
   59.0830   33.7470   51.7960 C   0  0  0  0  0  0  0  0  0  0  0  0
   58.9070   32.3950   52.4160 N   0  0  0  0  0  0  0  0  0  0  0  0
   60.2660   31.8590   52.7450 C   0  0  0  0  0  0  0  0  0  0  0  0
   58.1530   32.5680   53.7040 C   0  0  0  0  0  0  0  0  0  0  0  0
   57.5310   31.2600   54.2060 C   0  0  0  0  0  0  0  0  0  0  0  0
   56.5350   30.6830   53.1750 C   0  0  0  0  0  0  0  0  0  0  0  0
   56.7430   31.2490   51.7480 C   0  0  0  0  0  0  0  0  0  0  0  0
   58.2500   31.4130   51.4780 C   0  0  0  0  0  0  0  0  0  0  0  0
   59.4140   32.0120   46.0640 C   0  0  0  0  0  0  0  0  0  0  0  0
   63.5731   35.2588   46.5477 H   0  0  0  0  0  0  0  0  0  0  0  0
   64.1547   33.6032   46.1637 H   0  0  0  0  0  0  0  0  0  0  0  0
   62.3940   33.9591   46.1637 H   0  0  0  0  0  0  0  0  0  0  0  0
   64.1929   34.1619   48.6403 H   0  0  0  0  0  0  0  0  0  0  0  0
   62.3962   34.2935   48.5771 H   0  0  0  0  0  0  0  0  0  0  0  0
   64.1221   30.6788   47.4115 H   0  0  0  0  0  0  0  0  0  0  0  0
   62.7181   31.3220   46.4941 H   0  0  0  0  0  0  0  0  0  0  0  0
   64.2764   32.2154   46.4941 H   0  0  0  0  0  0  0  0  0  0  0  0
   64.5791   31.1613   49.2842 H   0  0  0  0  0  0  0  0  0  0  0  0
   64.1080   32.7247   50.1063 H   0  0  0  0  0  0  0  0  0  0  0  0
   63.0000   30.0251   50.4364 H   0  0  0  0  0  0  0  0  0  0  0  0
   62.8351   31.4890   51.4680 H   0  0  0  0  0  0  0  0  0  0  0  0
   61.5265   29.2469   50.1439 H   0  0  0  0  0  0  0  0  0  0  0  0
   59.9874   30.0480   50.6822 H   0  0  0  0  0  0  0  0  0  0  0  0
   60.1652   28.6625   48.3946 H   0  0  0  0  0  0  0  0  0  0  0  0
   59.1200   30.1359   48.5969 H   0  0  0  0  0  0  0  0  0  0  0  0
   61.3920   31.2560   47.7880 H   0  0  0  0  0  0  0  0  0  0  0  0
   61.6500   29.8230   47.1240 H   0  0  0  0  0  0  0  0  0  0  0  0
   60.8756   28.1037   46.3223 H   0  0  0  0  0  0  0  0  0  0  0  0
   59.6220   26.1684   45.4211 H   0  0  0  0  0  0  0  0  0  0  0  0
   57.5676   26.5130   44.0524 H   0  0  0  0  0  0  0  0  0  0  0  0
   56.9407   28.8174   43.3783 H   0  0  0  0  0  0  0  0  0  0  0  0
   56.3108   31.4751   43.1744 H   0  0  0  0  0  0  0  0  0  0  0  0
   57.8112   32.0549   42.3750 H   0  0  0  0  0  0  0  0  0  0  0  0
   57.4128   30.3034   42.3750 H   0  0  0  0  0  0  0  0  0  0  0  0
   57.0430   33.5081   44.0512 H   0  0  0  0  0  0  0  0  0  0  0  0
   58.1914   35.5576   44.8286 H   0  0  0  0  0  0  0  0  0  0  0  0
   60.0733   35.3696   46.4260 H   0  0  0  0  0  0  0  0  0  0  0  0
   61.0940   32.7390   48.4220 H   0  0  0  0  0  0  0  0  0  0  0  0
   58.8454   34.6016   49.0070 H   0  0  0  0  0  0  0  0  0  0  0  0
   58.6226   32.8284   49.3944 H   0  0  0  0  0  0  0  0  0  0  0  0
   60.8228   33.0436   50.7144 H   0  0  0  0  0  0  0  0  0  0  0  0
   60.5312   34.8288   50.6186 H   0  0  0  0  0  0  0  0  0  0  0  0
   59.4439   34.4301   52.5790 H   0  0  0  0  0  0  0  0  0  0  0  0
   58.0984   34.0097   51.3818 H   0  0  0  0  0  0  0  0  0  0  0  0
   60.3868   31.8114   53.8373 H   0  0  0  0  0  0  0  0  0  0  0  0
   60.3752   30.8504   52.3197 H   0  0  0  0  0  0  0  0  0  0  0  0
   61.0343   32.5215   52.3197 H   0  0  0  0  0  0  0  0  0  0  0  0
   58.8469   32.9444   54.4701 H   0  0  0  0  0  0  0  0  0  0  0  0
   57.3319   33.2754   53.5157 H   0  0  0  0  0  0  0  0  0  0  0  0
   58.3314   30.5261   54.3812 H   0  0  0  0  0  0  0  0  0  0  0  0
   56.9855   31.4689   55.1381 H   0  0  0  0  0  0  0  0  0  0  0  0
   56.6603   29.5907   53.1403 H   0  0  0  0  0  0  0  0  0  0  0  0
   55.5238   30.9710   53.4984 H   0  0  0  0  0  0  0  0  0  0  0  0
   56.3115   30.5553   51.0114 H   0  0  0  0  0  0  0  0  0  0  0  0
   56.2460   32.2267   51.6643 H   0  0  0  0  0  0  0  0  0  0  0  0
   58.7371   30.4338   51.5962 H   0  0  0  0  0  0  0  0  0  0  0  0
   58.3634   31.8036   50.4560 H   0  0  0  0  0  0  0  0  0  0  0  0
  1  2  1  0
  2  3  1  0
  3  4  1  0
  3  5  1  0
  5  6  1  0
  6  7  1  0
  7  8  1  0
  8  9  1  0
  9 10  1  0
 10 11  1  0
 11 12  2  0
 12 13  1  0
 13 14  2  0
 14 15  1  0
 15 16  2  0
 16 17  1  0
 17 18  2  0
 18 19  1  0
 18 20  1  0
 20 21  2  0
 21 22  1  0
 22 23  2  0
 23 24  1  0
 24 25  1  0
 25 26  1  0
 26 27  1  0
 27 28  1  0
 28 29  1  0
 29 30  1  0
 29 31  1  0
 31 32  1  0
 32 33  1  0
 33 34  1  0
 34 35  1  0
 24 36  2  0
 36 11  1  0
 17 12  1  0
 36 20  1  0
 35 29  1  0
  1 37  1  0
  1 38  1  0
  1 39  1  0
  2 40  1  0
  2 41  1  0
  4 42  1  0
  4 43  1  0
  4 44  1  0
  5 45  1  0
  5 46  1  0
  6 47  1  0
  6 48  1  0
  8 49  1  0
  8 50  1  0
  9 51  1  0
  9 52  1  0
 10 53  1  0
 10 54  1  0
 13 55  1  0
 14 56  1  0
 15 57  1  0
 16 58  1  0
 19 59  1  0
 19 60  1  0
 19 61  1  0
 21 62  1  0
 22 63  1  0
 23 64  1  0
 25 65  1  0
 26 66  1  0
 26 67  1  0
 27 68  1  0
 27 69  1  0
 28 70  1  0
 28 71  1  0
 30 72  1  0
 30 73  1  0
 30 74  1  0
 31 75  1  0
 31 76  1  0
 32 77  1  0
 32 78  1  0
 33 79  1  0
 33 80  1  0
 34 81  1  0
 34 82  1  0
 35 83  1  0
 35 84  1  0
M  CHG  3  10   1  18   1  29   1
M  END
>  <UniqueID>  (13) 
12

>  <SMILES>  (13) 
CCN(C)CCOCC[NH2+]c1c2ccccc2[n+](C)c2cccc(NCCC[N+]3(C)CCCCC3)c12

>  <Energy>  (13) 
164.20417227339655

>  <Genealogy>  (13) 
CCN(C)CCOCC[NH2+]c1c2ccccc2[n+](C)c2cccc(NCCC[N+]3(C)CCCCC3)c12 (protonated)
CCN(C)CCOCC[NH2+]c1c2ccccc2[n+](C)c2cccc(NCCC[N+]3(C)CCCCC3)c12 (3D coordinates assigned)
CCN(C)CCOCC[NH2+]c1c2ccccc2[n+](C)c2cccc(NCCC[N+]3(C)CCCCC3)c12 (nonaromatic ring conformer: 164.20417227339655 kcal/mol)

>  <smiles>  (13) 
CCN(C)CCOCCNc1c2ccccc2[n+](C)c2cccc(NCCC[N+]3(C)CCCCC3)c12

>  <score_type>  (13) 
oracle

>  <origin>  (13) 
adg

>  <m_score__min__energy>  (13) 
-3.6299999999999999

>  <m_primary>  (13) 
energy

$$$$
13:0
     RDKit          3D

 45 46  0  0  0  0  0  0  0  0999 V2000
   60.1400   34.5670   48.3090 C   0  0  0  0  0  0  0  0  0  0  0  0
   59.8130   34.9530   46.8710 C   0  0  0  0  0  0  0  0  0  0  0  0
   58.9330   33.9170   46.2270 C   0  0  0  0  0  0  0  0  0  0  0  0
   58.8930   32.6080   46.7300 C   0  0  0  0  0  0  0  0  0  0  0  0
   58.0900   31.6400   46.1200 C   0  0  0  0  0  0  0  0  0  0  0  0
   57.3470   31.9570   44.9730 C   0  0  0  0  0  0  0  0  0  0  0  0
   56.4730   30.9170   44.3180 C   0  0  0  0  0  0  0  0  0  0  0  0
   57.0600   29.5120   44.4760 C   0  0  0  0  0  0  0  0  0  0  0  0
   56.0450   28.6020   45.0030 N   0  0  0  0  0  0  0  0  0  0  0  0
   56.2860   27.3640   45.6840 C   0  0  0  0  0  0  0  0  0  0  0  0
   55.3010   26.6490   46.0070 O   0  0  0  0  0  0  0  0  0  0  0  0
   57.6690   26.8920   46.0260 C   0  0  0  0  0  0  0  0  0  0  0  0
   57.6080   25.6390   46.7850 N   0  0  0  0  0  0  0  0  0  0  0  0
   58.5940   24.6850   46.2640 C   0  0  0  0  0  0  0  0  0  0  0  0
   57.9720   23.8370   45.1910 C   0  0  0  0  0  0  0  0  0  0  0  0
   58.3520   22.4940   45.0400 C   0  0  0  0  0  0  0  0  0  0  0  0
   57.7730   21.7060   44.0400 C   0  0  0  0  0  0  0  0  0  0  0  0
   56.8010   22.2510   43.1940 C   0  0  0  0  0  0  0  0  0  0  0  0
   56.2360   21.4840   42.2290 F   0  0  0  0  0  0  0  0  0  0  0  0
   56.4040   23.5810   43.3520 C   0  0  0  0  0  0  0  0  0  0  0  0
   56.9820   24.3720   44.3520 C   0  0  0  0  0  0  0  0  0  0  0  0
   57.4020   33.2630   44.4580 C   0  0  0  0  0  0  0  0  0  0  0  0
   58.1870   34.2360   45.0820 C   0  0  0  0  0  0  0  0  0  0  0  0
   59.5863   35.2206   48.9991 H   0  0  0  0  0  0  0  0  0  0  0  0
   59.8495   33.5204   48.4828 H   0  0  0  0  0  0  0  0  0  0  0  0
   61.2201   34.6815   48.4828 H   0  0  0  0  0  0  0  0  0  0  0  0
   59.2918   35.9217   46.8672 H   0  0  0  0  0  0  0  0  0  0  0  0
   60.7519   35.0212   46.3020 H   0  0  0  0  0  0  0  0  0  0  0  0
   59.4972   32.3417   47.6098 H   0  0  0  0  0  0  0  0  0  0  0  0
   58.0404   30.6251   46.5412 H   0  0  0  0  0  0  0  0  0  0  0  0
   55.4766   30.9427   44.7833 H   0  0  0  0  0  0  0  0  0  0  0  0
   56.4091   31.1460   43.2440 H   0  0  0  0  0  0  0  0  0  0  0  0
   57.4020   29.1479   43.4960 H   0  0  0  0  0  0  0  0  0  0  0  0
   57.9075   29.5516   45.1761 H   0  0  0  0  0  0  0  0  0  0  0  0
   58.2354   26.7263   45.0977 H   0  0  0  0  0  0  0  0  0  0  0  0
   58.1657   27.6575   46.6402 H   0  0  0  0  0  0  0  0  0  0  0  0
   56.6550   25.2220   46.6480 H   0  0  0  0  0  0  0  0  0  0  0  0
   59.4475   25.2367   45.8432 H   0  0  0  0  0  0  0  0  0  0  0  0
   58.9365   24.0362   47.0836 H   0  0  0  0  0  0  0  0  0  0  0  0
   59.1080   22.0598   45.7107 H   0  0  0  0  0  0  0  0  0  0  0  0
   58.0820   20.6573   43.9186 H   0  0  0  0  0  0  0  0  0  0  0  0
   55.6361   24.0073   42.6897 H   0  0  0  0  0  0  0  0  0  0  0  0
   56.6594   25.4157   44.4806 H   0  0  0  0  0  0  0  0  0  0  0  0
   56.8238   33.5210   43.5585 H   0  0  0  0  0  0  0  0  0  0  0  0
   58.2204   35.2569   44.6738 H   0  0  0  0  0  0  0  0  0  0  0  0
  1  2  1  0
  2  3  1  0
  3  4  2  0
  4  5  1  0
  5  6  2  0
  6  7  1  0
  7  8  1  0
  8  9  1  0
  9 10  1  0
 10 11  2  0
 10 12  1  0
 12 13  1  0
 13 14  1  0
 14 15  1  0
 15 16  2  0
 16 17  1  0
 17 18  2  0
 18 19  1  0
 18 20  1  0
 20 21  2  0
  6 22  1  0
 22 23  2  0
 23  3  1  0
 21 15  1  0
  1 24  1  0
  1 25  1  0
  1 26  1  0
  2 27  1  0
  2 28  1  0
  4 29  1  0
  5 30  1  0
  7 31  1  0
  7 32  1  0
  8 33  1  0
  8 34  1  0
 12 35  1  0
 12 36  1  0
 13 37  1  0
 14 38  1  0
 14 39  1  0
 16 40  1  0
 17 41  1  0
 20 42  1  0
 21 43  1  0
 22 44  1  0
 23 45  1  0
M  CHG  1   9  -1
M  END
>  <UniqueID>  (14) 
13

>  <SMILES>  (14) 
CCc1ccc(CC[N-]C(=O)CNCc2ccc(F)cc2)cc1

>  <Energy>  (14) 
30.820539193800954

>  <Genealogy>  (14) 
CCc1ccc(CC[N-]C(=O)CNCc2ccc(F)cc2)cc1 (protonated)
CCc1ccc(CC[N-]C(=O)CNCc2ccc(F)cc2)cc1 (3D coordinates assigned)
CCc1ccc(CC[N-]C(=O)CNCc2ccc(F)cc2)cc1 (optimized conformer: 30.820539193800954 kcal/mol)

>  <smiles>  (14) 
CCc1ccc(CCNC(=O)CNCc2ccc(F)cc2)cc1

>  <score_type>  (14) 
oracle

>  <origin>  (14) 
adg

>  <m_score__min__energy>  (14) 
-9.3599999999999994

>  <m_primary>  (14) 
energy

$$$$
14:0
     RDKit          3D

 43 43  0  0  0  0  0  0  0  0999 V2000
   58.0130   32.6790   42.9340 C   0  0  0  0  0  0  0  0  0  0  0  0
   57.4070   31.7270   43.9700 C   0  0  0  0  0  0  0  0  0  0  0  0
   57.7470   32.1900   45.3940 C   0  0  0  0  0  0  0  0  0  0  0  0
   57.9060   30.3660   43.7450 N   0  0  0  0  0  0  0  0  0  0  0  0
   57.2700   29.2110   44.3190 C   0  0  0  0  0  0  0  0  0  0  0  0
   56.3130   29.3440   45.1280 O   0  0  0  0  0  0  0  0  0  0  0  0
   57.7790   27.8400   43.9910 C   0  0  0  0  0  0  0  0  0  0  0  0
   58.8300   27.3980   45.0210 C   0  0  0  0  0  0  0  0  0  0  0  0
   58.6020   28.0650   46.3830 C   0  0  0  0  0  0  0  0  0  0  0  0
   57.4580   27.4480   47.0700 N   0  0  0  0  0  0  0  0  0  0  0  0
   57.4430   25.9870   46.9020 C   0  0  0  0  0  0  0  0  0  0  0  0
   56.3460   25.5300   45.9670 C   0  0  0  0  0  0  0  0  0  0  0  0
   55.2340   26.1290   45.9980 O   0  0  0  0  0  0  0  0  0  0  0  0
   56.5240   24.4120   45.0740 N   0  0  0  0  0  0  0  0  0  0  0  0
   55.4620   23.9280   44.2090 C   0  0  0  0  0  0  0  0  0  0  0  0
   55.9740   22.6180   43.6210 C   0  0  0  0  0  0  0  0  0  0  0  0
   57.4860   22.6260   43.8340 C   0  0  0  0  0  0  0  0  0  0  0  0
   57.7510   23.6400   44.9410 C   0  0  0  0  0  0  0  0  0  0  0  0
   58.5347   33.4985   43.4500 H   0  0  0  0  0  0  0  0  0  0  0  0
   58.7274   32.1287   42.3040 H   0  0  0  0  0  0  0  0  0  0  0  0
   57.2121   33.0933   42.3040 H   0  0  0  0  0  0  0  0  0  0  0  0
   56.3127   31.7325   43.8583 H   0  0  0  0  0  0  0  0  0  0  0  0
   57.2589   31.5253   46.1220 H   0  0  0  0  0  0  0  0  0  0  0  0
   58.8367   32.1566   45.5401 H   0  0  0  0  0  0  0  0  0  0  0  0
   57.3889   33.2198   45.5401 H   0  0  0  0  0  0  0  0  0  0  0  0
   58.7360   30.2190   43.1240 H   0  0  0  0  0  0  0  0  0  0  0  0
   56.9394   27.1294   44.0022 H   0  0  0  0  0  0  0  0  0  0  0  0
   58.2433   27.8609   42.9940 H   0  0  0  0  0  0  0  0  0  0  0  0
   58.7721   26.3064   45.1440 H   0  0  0  0  0  0  0  0  0  0  0  0
   59.8213   27.7000   44.6520 H   0  0  0  0  0  0  0  0  0  0  0  0
   59.5039   27.9448   47.0011 H   0  0  0  0  0  0  0  0  0  0  0  0
   58.3909   29.1332   46.2266 H   0  0  0  0  0  0  0  0  0  0  0  0
   56.5670   27.8530   46.6940 H   0  0  0  0  0  0  0  0  0  0  0  0
   58.4129   25.6676   46.4929 H   0  0  0  0  0  0  0  0  0  0  0  0
   57.2558   25.5360   47.8877 H   0  0  0  0  0  0  0  0  0  0  0  0
   54.5436   23.7550   44.7892 H   0  0  0  0  0  0  0  0  0  0  0  0
   55.2146   24.6567   43.4230 H   0  0  0  0  0  0  0  0  0  0  0  0
   55.5190   21.7618   44.1405 H   0  0  0  0  0  0  0  0  0  0  0  0
   55.7169   22.5259   42.5554 H   0  0  0  0  0  0  0  0  0  0  0  0
   57.8340   21.6280   44.1390 H   0  0  0  0  0  0  0  0  0  0  0  0
   58.0209   22.8905   42.9099 H   0  0  0  0  0  0  0  0  0  0  0  0
   57.9836   23.1248   45.8847 H   0  0  0  0  0  0  0  0  0  0  0  0
   58.6105   24.2838   44.7029 H   0  0  0  0  0  0  0  0  0  0  0  0
  1  2  1  0
  2  3  1  0
  2  4  1  0
  4  5  1  0
  5  6  2  0
  5  7  1  0
  7  8  1  0
  8  9  1  0
  9 10  1  0
 10 11  1  0
 11 12  1  0
 12 13  2  0
 12 14  1  0
 14 15  1  0
 15 16  1  0
 16 17  1  0
 17 18  1  0
 18 14  1  0
  1 19  1  0
  1 20  1  0
  1 21  1  0
  2 22  1  0
  3 23  1  0
  3 24  1  0
  3 25  1  0
  4 26  1  0
  7 27  1  0
  7 28  1  0
  8 29  1  0
  8 30  1  0
  9 31  1  0
  9 32  1  0
 10 33  1  0
 11 34  1  0
 11 35  1  0
 15 36  1  0
 15 37  1  0
 16 38  1  0
 16 39  1  0
 17 40  1  0
 17 41  1  0
 18 42  1  0
 18 43  1  0
M  END
>  <UniqueID>  (15) 
14

>  <SMILES>  (15) 
CC(C)NC(=O)CCCNCC(=O)N1CCCC1

>  <Energy>  (15) 
26.269678714664515

>  <Genealogy>  (15) 
CC(C)NC(=O)CCCNCC(=O)N1CCCC1 (3D coordinates assigned)
CC(C)NC(=O)CCCNCC(=O)N1CCCC1 (nonaromatic ring conformer: 26.269678714664515 kcal/mol)

>  <smiles>  (15) 
CC(C)NC(=O)CCCNCC(=O)N1CCCC1

>  <score_type>  (15) 
oracle

>  <origin>  (15) 
adg

>  <m_score__min__energy>  (15) 
-6.3300000000000001

>  <m_primary>  (15) 
energy

$$$$
15:0
     RDKit          3D

 58 61  0  0  0  0  0  0  0  0999 V2000
   56.6080   30.2670   42.8760 C   0  0  0  0  0  0  0  0  0  0  0  0
   56.1150   30.7430   44.2380 C   0  0  0  0  0  0  0  0  0  0  0  0
   56.6550   29.8830   45.2960 N   0  0  0  0  0  0  0  0  0  0  0  0
   57.0540   28.5840   44.7420 C   0  0  0  0  0  0  0  0  0  0  0  0
   58.5790   28.4300   44.7590 C   0  0  0  0  0  0  0  0  0  0  0  0
   59.0640   27.6680   46.0060 C   0  0  0  0  0  0  0  0  0  0  0  0
   59.7850   28.5810   47.0190 C   0  0  0  0  0  0  0  0  0  0  0  0
   58.9570   29.7030   47.5080 N   0  0  0  0  0  0  0  0  0  0  0  0
   59.7210   30.9180   47.7710 C   0  0  0  0  0  0  0  0  0  0  0  0
   60.8040   30.8930   48.6930 C   0  0  0  0  0  0  0  0  0  0  0  0
   61.6100   32.0410   48.8530 C   0  0  0  0  0  0  0  0  0  0  0  0
   61.1870   33.2550   48.3660 N   0  0  0  0  0  0  0  0  0  0  0  0
   61.7130   34.5090   48.9470 C   0  0  0  0  0  0  0  0  0  0  0  0
   60.1970   33.3080   47.4090 C   0  0  0  0  0  0  0  0  0  0  0  0
   59.9270   34.5140   46.7140 C   0  0  0  0  0  0  0  0  0  0  0  0
   58.9270   34.5830   45.7520 C   0  0  0  0  0  0  0  0  0  0  0  0
   58.1720   33.4600   45.4540 C   0  0  0  0  0  0  0  0  0  0  0  0
   58.4160   32.2570   46.1100 C   0  0  0  0  0  0  0  0  0  0  0  0
   59.4370   32.1420   47.0900 C   0  0  0  0  0  0  0  0  0  0  0  0
   62.8960   31.8770   49.6070 C   0  0  0  0  0  0  0  0  0  0  0  0
   64.0510   32.5940   49.2420 C   0  0  0  0  0  0  0  0  0  0  0  0
   65.2350   32.4070   49.9520 C   0  0  0  0  0  0  0  0  0  0  0  0
   65.2780   31.4860   50.9950 C   0  0  0  0  0  0  0  0  0  0  0  0
   64.1420   30.7320   51.2870 C   0  0  0  0  0  0  0  0  0  0  0  0
   62.9900   30.9050   50.5700 N   0  0  0  0  0  0  0  0  0  0  0  0
   61.8350   30.0380   50.8250 C   0  0  0  0  0  0  0  0  0  0  0  0
   61.1800   29.6500   49.4940 C   0  0  0  0  0  0  0  0  0  0  0  0
   57.3930   29.5090   43.0146 H   0  0  0  0  0  0  0  0  0  0  0  0
   55.7695   29.8281   42.3154 H   0  0  0  0  0  0  0  0  0  0  0  0
   57.0172   31.1204   42.3154 H   0  0  0  0  0  0  0  0  0  0  0  0
   56.4481   31.7780   44.4045 H   0  0  0  0  0  0  0  0  0  0  0  0
   55.0162   30.6962   44.2606 H   0  0  0  0  0  0  0  0  0  0  0  0
   55.8920   29.7130   45.9930 H   0  0  0  0  0  0  0  0  0  0  0  0
   56.6038   27.7814   45.3446 H   0  0  0  0  0  0  0  0  0  0  0  0
   56.7051   28.5228   43.7006 H   0  0  0  0  0  0  0  0  0  0  0  0
   58.8909   27.8773   43.8605 H   0  0  0  0  0  0  0  0  0  0  0  0
   59.0236   29.4360   44.7792 H   0  0  0  0  0  0  0  0  0  0  0  0
   58.1935   27.2123   46.5005 H   0  0  0  0  0  0  0  0  0  0  0  0
   59.7857   26.9084   45.6712 H   0  0  0  0  0  0  0  0  0  0  0  0
   60.0859   27.9702   47.8830 H   0  0  0  0  0  0  0  0  0  0  0  0
   60.6451   29.0233   46.4949 H   0  0  0  0  0  0  0  0  0  0  0  0
   58.4750   29.4040   48.3830 H   0  0  0  0  0  0  0  0  0  0  0  0
   58.1510   29.8480   46.8670 H   0  0  0  0  0  0  0  0  0  0  0  0
   61.6858   34.4442   50.0448 H   0  0  0  0  0  0  0  0  0  0  0  0
   62.7505   34.6604   48.6142 H   0  0  0  0  0  0  0  0  0  0  0  0
   61.0940   35.3552   48.6142 H   0  0  0  0  0  0  0  0  0  0  0  0
   60.5205   35.4120   46.9408 H   0  0  0  0  0  0  0  0  0  0  0  0
   58.7344   35.5300   45.2265 H   0  0  0  0  0  0  0  0  0  0  0  0
   57.3769   33.5195   44.6962 H   0  0  0  0  0  0  0  0  0  0  0  0
   57.8046   31.3763   45.8639 H   0  0  0  0  0  0  0  0  0  0  0  0
   64.0189   33.2997   48.3988 H   0  0  0  0  0  0  0  0  0  0  0  0
   66.1331   32.9853   49.6893 H   0  0  0  0  0  0  0  0  0  0  0  0
   66.1985   31.3544   51.5826 H   0  0  0  0  0  0  0  0  0  0  0  0
   64.1725   29.9921   52.1004 H   0  0  0  0  0  0  0  0  0  0  0  0
   62.1676   29.1293   51.3481 H   0  0  0  0  0  0  0  0  0  0  0  0
   61.1053   30.5752   51.4486 H   0  0  0  0  0  0  0  0  0  0  0  0
   61.8859   29.0431   48.9080 H   0  0  0  0  0  0  0  0  0  0  0  0
   60.2655   29.0763   49.7049 H   0  0  0  0  0  0  0  0  0  0  0  0
  1  2  1  0
  2  3  1  0
  3  4  1  0
  4  5  1  0
  5  6  1  0
  6  7  1  0
  7  8  1  0
  8  9  1  0
  9 10  2  0
 10 11  1  0
 11 12  2  0
 12 13  1  0
 12 14  1  0
 14 15  2  0
 15 16  1  0
 16 17  2  0
 17 18  1  0
 18 19  2  0
 11 20  1  0
 20 21  2  0
 21 22  1  0
 22 23  2  0
 23 24  1  0
 24 25  2  0
 25 26  1  0
 26 27  1  0
 19  9  1  0
 25 20  1  0
 27 10  1  0
 19 14  1  0
  1 28  1  0
  1 29  1  0
  1 30  1  0
  2 31  1  0
  2 32  1  0
  3 33  1  0
  4 34  1  0
  4 35  1  0
  5 36  1  0
  5 37  1  0
  6 38  1  0
  6 39  1  0
  7 40  1  0
  7 41  1  0
  8 42  1  0
  8 43  1  0
 13 44  1  0
 13 45  1  0
 13 46  1  0
 15 47  1  0
 16 48  1  0
 17 49  1  0
 18 50  1  0
 21 51  1  0
 22 52  1  0
 23 53  1  0
 24 54  1  0
 26 55  1  0
 26 56  1  0
 27 57  1  0
 27 58  1  0
M  CHG  3   8   1  12   1  25   1
M  END
>  <UniqueID>  (16) 
15

>  <SMILES>  (16) 
CCNCCCC[NH2+]c1c2c([n+](C)c3ccccc13)-c1cccc[n+]1CC2

>  <Energy>  (16) 
87.62481223313374

>  <Genealogy>  (16) 
CCNCCCC[NH2+]c1c2c([n+](C)c3ccccc13)-c1cccc[n+]1CC2 (protonated)
CCNCCCC[NH2+]c1c2c([n+](C)c3ccccc13)-c1cccc[n+]1CC2 (3D coordinates assigned)
CCNCCCC[NH2+]c1c2c([n+](C)c3ccccc13)-c1cccc[n+]1CC2 (nonaromatic ring conformer: 87.62481223313374 kcal/mol)

>  <smiles>  (16) 
CCNCCCCNc1c2c([n+](C)c3ccccc13)-c1cccc[n+]1CC2

>  <score_type>  (16) 
oracle

>  <origin>  (16) 
adg

>  <m_score__min__energy>  (16) 
-4.0899999999999999

>  <m_primary>  (16) 
energy

$$$$
16:0
     RDKit          3D

 45 48  0  0  0  0  0  0  0  0999 V2000
   62.4190   30.5800   50.7860 C   0  0  0  0  0  0  0  0  0  0  0  0
   62.2240   31.4910   49.6160 C   0  0  0  0  0  0  0  0  0  0  0  0
   60.9410   31.9960   49.3200 C   0  0  0  0  0  0  0  0  0  0  0  0
   60.7830   32.8620   48.2230 C   0  0  0  0  0  0  0  0  0  0  0  0
   59.5000   33.4360   47.9150 N   0  0  0  0  0  0  0  0  0  0  0  0
   59.3930   34.8360   47.4990 C   0  0  0  0  0  0  0  0  0  0  0  0
   58.9310   34.9290   46.0300 C   0  0  0  0  0  0  0  0  0  0  0  0
   58.1090   33.7750   45.5790 N   0  0  0  0  0  0  0  0  0  0  0  0
   58.8930   32.8140   44.7690 C   0  0  0  0  0  0  0  0  0  0  0  0
   58.4270   31.3990   44.9940 C   0  0  0  0  0  0  0  0  0  0  0  0
   59.2300   30.5000   45.7130 C   0  0  0  0  0  0  0  0  0  0  0  0
   58.8100   29.1800   45.9080 C   0  0  0  0  0  0  0  0  0  0  0  0
   57.5880   28.7500   45.3850 C   0  0  0  0  0  0  0  0  0  0  0  0
   57.0170   26.9460   45.6510 Br  0  0  0  0  0  0  0  0  0  0  0  0
   56.7840   29.6390   44.6650 C   0  0  0  0  0  0  0  0  0  0  0  0
   57.2000   30.9590   44.4680 C   0  0  0  0  0  0  0  0  0  0  0  0
   57.3740   33.1340   46.6950 C   0  0  0  0  0  0  0  0  0  0  0  0
   58.3280   32.5700   47.7630 C   0  0  0  0  0  0  0  0  0  0  0  0
   61.8920   33.1630   47.4950 N   0  0  0  0  0  0  0  0  0  0  0  0
   62.0600   33.9000   46.3800 C   0  0  0  0  0  0  0  0  0  0  0  0
   63.4050   33.8410   46.0380 C   0  0  0  0  0  0  0  0  0  0  0  0
   64.0580   33.0670   46.9330 N   0  0  0  0  0  0  0  0  0  0  0  0
   63.1040   32.6730   47.7920 C   0  0  0  0  0  0  0  0  0  0  0  0
   63.2950   31.8380   48.8430 N   0  0  0  0  0  0  0  0  0  0  0  0
   62.2970   31.1500   51.7189 H   0  0  0  0  0  0  0  0  0  0  0  0
   61.6735   29.7720   50.7498 H   0  0  0  0  0  0  0  0  0  0  0  0
   63.4300   30.1480   50.7498 H   0  0  0  0  0  0  0  0  0  0  0  0
   60.0755   31.7164   49.9387 H   0  0  0  0  0  0  0  0  0  0  0  0
   58.6627   35.3498   48.1414 H   0  0  0  0  0  0  0  0  0  0  0  0
   60.3805   35.3115   47.5923 H   0  0  0  0  0  0  0  0  0  0  0  0
   58.3340   35.8454   45.9128 H   0  0  0  0  0  0  0  0  0  0  0  0
   59.8401   34.9328   45.4107 H   0  0  0  0  0  0  0  0  0  0  0  0
   58.7766   33.0644   43.7042 H   0  0  0  0  0  0  0  0  0  0  0  0
   59.9479   32.8841   45.0726 H   0  0  0  0  0  0  0  0  0  0  0  0
   60.1935   30.8348   46.1248 H   0  0  0  0  0  0  0  0  0  0  0  0
   59.4425   28.4800   46.4736 H   0  0  0  0  0  0  0  0  0  0  0  0
   55.8224   29.2991   44.2529 H   0  0  0  0  0  0  0  0  0  0  0  0
   56.5655   31.6551   43.8999 H   0  0  0  0  0  0  0  0  0  0  0  0
   56.7175   33.8816   47.1641 H   0  0  0  0  0  0  0  0  0  0  0  0
   56.7915   32.2969   46.2827 H   0  0  0  0  0  0  0  0  0  0  0  0
   57.7977   32.5069   48.7247 H   0  0  0  0  0  0  0  0  0  0  0  0
   58.6632   31.5709   47.4477 H   0  0  0  0  0  0  0  0  0  0  0  0
   61.2750   34.4486   45.8389 H   0  0  0  0  0  0  0  0  0  0  0  0
   63.8657   34.3445   45.1753 H   0  0  0  0  0  0  0  0  0  0  0  0
   65.0720   32.8160   46.9400 H   0  0  0  0  0  0  0  0  0  0  0  0
  1  2  1  0
  2  3  1  0
  3  4  2  0
  4  5  1  0
  5  6  1  0
  6  7  1  0
  7  8  1  0
  8  9  1  0
  9 10  1  0
 10 11  2  0
 11 12  1  0
 12 13  2  0
 13 14  1  0
 13 15  1  0
 15 16  2  0
  8 17  1  0
 17 18  1  0
  4 19  1  0
 19 20  1  0
 20 21  2  0
 21 22  1  0
 22 23  2  0
 23 24  1  0
 24  2  2  0
 18  5  1  0
 23 19  1  0
 16 10  1  0
  1 25  1  0
  1 26  1  0
  1 27  1  0
  3 28  1  0
  6 29  1  0
  6 30  1  0
  7 31  1  0
  7 32  1  0
  9 33  1  0
  9 34  1  0
 11 35  1  0
 12 36  1  0
 15 37  1  0
 16 38  1  0
 17 39  1  0
 17 40  1  0
 18 41  1  0
 18 42  1  0
 20 43  1  0
 21 44  1  0
 22 45  1  0
M  CHG  1  22   1
M  END
>  <UniqueID>  (17) 
16

>  <SMILES>  (17) 
Cc1cc(N2CCN(Cc3ccc(Br)cc3)CC2)n2cc[nH+]c2n1

>  <Energy>  (17) 
97.14449530650849

>  <Genealogy>  (17) 
Cc1cc(N2CCN(Cc3ccc(Br)cc3)CC2)n2cc[nH+]c2n1 (protonated)
Cc1cc(N2CCN(Cc3ccc(Br)cc3)CC2)n2cc[nH+]c2n1 (3D coordinates assigned)
Cc1cc(N2CCN(Cc3ccc(Br)cc3)CC2)n2cc[nH+]c2n1 (nonaromatic ring conformer: 97.14449530650849 kcal/mol)

>  <smiles>  (17) 
Cc1cc(N2CCN(Cc3ccc(Br)cc3)CC2)n2ccnc2n1

>  <score_type>  (17) 
oracle

>  <origin>  (17) 
adg

>  <m_score__min__energy>  (17) 
-7.2000000000000002

>  <m_primary>  (17) 
energy

$$$$
17:0
     RDKit          3D

 36 38  0  0  0  0  0  0  0  0999 V2000
   56.9770   25.7990   45.6290 C   0  0  0  0  0  0  0  0  0  0  0  0
   57.9130   26.2080   44.4960 C   0  0  0  0  0  0  0  0  0  0  0  0
   58.5720   27.4910   44.8040 N   0  0  0  0  0  0  0  0  0  0  0  0
   59.7610   27.4960   45.6230 C   0  0  0  0  0  0  0  0  0  0  0  0
   60.2270   26.4260   46.0980 O   0  0  0  0  0  0  0  0  0  0  0  0
   60.4800   28.7810   45.8830 C   0  0  0  0  0  0  0  0  0  0  0  0
   59.4710   29.9010   46.1100 C   0  0  0  0  0  0  0  0  0  0  0  0
   58.4630   29.9700   44.9820 C   0  0  0  0  0  0  0  0  0  0  0  0
   57.8730   31.1960   44.5940 C   0  0  0  0  0  0  0  0  0  0  0  0
   58.2780   32.4870   45.1840 C   0  0  0  0  0  0  0  0  0  0  0  0
   58.8500   33.4820   44.3780 C   0  0  0  0  0  0  0  0  0  0  0  0
   59.2490   34.6980   44.9400 C   0  0  0  0  0  0  0  0  0  0  0  0
   59.0890   34.9230   46.3100 C   0  0  0  0  0  0  0  0  0  0  0  0
   58.5300   33.9300   47.1210 C   0  0  0  0  0  0  0  0  0  0  0  0
   58.1290   32.7130   46.5620 C   0  0  0  0  0  0  0  0  0  0  0  0
   56.8650   31.1980   43.6280 C   0  0  0  0  0  0  0  0  0  0  0  0
   56.4530   30.0000   43.0580 C   0  0  0  0  0  0  0  0  0  0  0  0
   57.0160   28.8250   43.4410 N   0  0  0  0  0  0  0  0  0  0  0  0
   58.0000   28.7660   44.3920 C   0  0  0  0  0  0  0  0  0  0  0  0
   57.4579   26.0091   46.5958 H   0  0  0  0  0  0  0  0  0  0  0  0
   56.0395   26.3695   45.5541 H   0  0  0  0  0  0  0  0  0  0  0  0
   56.7587   24.7235   45.5541 H   0  0  0  0  0  0  0  0  0  0  0  0
   58.6798   25.4308   44.3623 H   0  0  0  0  0  0  0  0  0  0  0  0
   57.3240   26.3244   43.5743 H   0  0  0  0  0  0  0  0  0  0  0  0
   61.1114   28.6717   46.7771 H   0  0  0  0  0  0  0  0  0  0  0  0
   61.1074   29.0282   45.0139 H   0  0  0  0  0  0  0  0  0  0  0  0
   58.9391   29.7180   47.0553 H   0  0  0  0  0  0  0  0  0  0  0  0
   60.0152   30.8562   46.1485 H   0  0  0  0  0  0  0  0  0  0  0  0
   58.9850   33.3050   43.3008 H   0  0  0  0  0  0  0  0  0  0  0  0
   59.6896   35.4791   44.3030 H   0  0  0  0  0  0  0  0  0  0  0  0
   59.4027   35.8809   46.7504 H   0  0  0  0  0  0  0  0  0  0  0  0
   58.4058   34.1068   48.1996 H   0  0  0  0  0  0  0  0  0  0  0  0
   57.6959   31.9308   47.2028 H   0  0  0  0  0  0  0  0  0  0  0  0
   56.3985   32.1451   43.3192 H   0  0  0  0  0  0  0  0  0  0  0  0
   55.6648   30.0031   42.2907 H   0  0  0  0  0  0  0  0  0  0  0  0
   56.6590   27.9660   42.9740 H   0  0  0  0  0  0  0  0  0  0  0  0
  1  2  1  0
  2  3  1  0
  3  4  1  0
  4  5  2  0
  4  6  1  0
  6  7  1  0
  7  8  1  0
  8  9  2  0
  9 10  1  0
 10 11  2  0
 11 12  1  0
 12 13  2  0
 13 14  1  0
 14 15  2  0
  9 16  1  0
 16 17  2  0
 17 18  1  0
 18 19  2  0
 19  3  1  0
 19  8  1  0
 15 10  1  0
  1 20  1  0
  1 21  1  0
  1 22  1  0
  2 23  1  0
  2 24  1  0
  6 25  1  0
  6 26  1  0
  7 27  1  0
  7 28  1  0
 11 29  1  0
 12 30  1  0
 13 31  1  0
 14 32  1  0
 15 33  1  0
 16 34  1  0
 17 35  1  0
 18 36  1  0
M  CHG  1  18   1
M  END
>  <UniqueID>  (18) 
17

>  <SMILES>  (18) 
CCN1C(=O)CCc2c(-c3ccccc3)cc[nH+]c21

>  <Energy>  (18) 
47.80125677420285

>  <Genealogy>  (18) 
CCN1C(=O)CCc2c(-c3ccccc3)cc[nH+]c21 (protonated)
CCN1C(=O)CCc2c(-c3ccccc3)cc[nH+]c21 (3D coordinates assigned)
CCN1C(=O)CCc2c(-c3ccccc3)cc[nH+]c21 (nonaromatic ring conformer: 47.80125677420285 kcal/mol)

>  <smiles>  (18) 
CCN1C(=O)CCc2c(-c3ccccc3)ccnc21

>  <score_type>  (18) 
oracle

>  <origin>  (18) 
adg

>  <m_score__min__energy>  (18) 
-6.0599999999999996

>  <m_primary>  (18) 
energy

$$$$
18:0
     RDKit          3D

 64 67  0  0  0  0  0  0  0  0999 V2000
   58.7190   28.7270   53.1850 C   0  0  0  0  0  0  0  0  0  0  0  0
   58.4960   29.6700   52.0080 C   0  0  0  0  0  0  0  0  0  0  0  0
   57.0550   29.9430   51.8100 N   0  0  0  0  0  0  0  0  0  0  0  0
   56.1080   29.3260   52.7720 C   0  0  0  0  0  0  0  0  0  0  0  0
   54.6590   29.8180   52.6580 C   0  0  0  0  0  0  0  0  0  0  0  0
   56.7310   31.3340   51.4160 C   0  0  0  0  0  0  0  0  0  0  0  0
   57.8620   32.3410   51.6590 C   0  0  0  0  0  0  0  0  0  0  0  0
   58.4770   32.6930   50.4270 O   0  0  0  0  0  0  0  0  0  0  0  0
   59.6490   33.4480   50.3360 C   0  0  0  0  0  0  0  0  0  0  0  0
   59.9910   34.2130   51.2800 O   0  0  0  0  0  0  0  0  0  0  0  0
   60.4770   33.3260   49.0770 C   0  0  1  0  0  0  0  0  0  0  0  0
   61.9750   33.1630   49.3260 C   0  0  0  0  0  0  0  0  0  0  0  0
   62.9340   33.2420   48.2940 C   0  0  0  0  0  0  0  0  0  0  0  0
   64.2980   33.1150   48.5770 C   0  0  0  0  0  0  0  0  0  0  0  0
   64.7260   32.9220   49.8920 C   0  0  0  0  0  0  0  0  0  0  0  0
   66.5900   32.7540   50.2760 Br  0  0  0  0  0  0  0  0  0  0  0  0
   63.7910   32.8640   50.9270 C   0  0  0  0  0  0  0  0  0  0  0  0
   62.4280   32.9910   50.6490 C   0  0  0  0  0  0  0  0  0  0  0  0
   59.8610   32.2810   48.1240 C   0  0  0  0  0  0  0  0  0  0  0  0
   59.9400   30.8850   48.4080 C   0  0  0  0  0  0  0  0  0  0  0  0
   60.8230   30.3520   49.3780 C   0  0  0  0  0  0  0  0  0  0  0  0
   60.8450   28.9840   49.6520 C   0  0  0  0  0  0  0  0  0  0  0  0
   60.0030   28.1160   48.9640 C   0  0  0  0  0  0  0  0  0  0  0  0
   59.1450   28.6110   47.9840 C   0  0  0  0  0  0  0  0  0  0  0  0
   59.1140   29.9860   47.6900 C   0  0  0  0  0  0  0  0  0  0  0  0
   58.2840   30.4430   46.7150 N   0  0  0  0  0  0  0  0  0  0  0  0
   58.2770   31.7480   46.3220 C   0  0  0  0  0  0  0  0  0  0  0  0
   57.4520   32.1550   45.2480 C   0  0  0  0  0  0  0  0  0  0  0  0
   56.6000   31.2150   44.6440 O   0  0  0  0  0  0  0  0  0  0  0  0
   56.8610   30.5580   43.4080 C   0  0  0  0  0  0  0  0  0  0  0  0
   57.5040   33.4860   44.8020 C   0  0  0  0  0  0  0  0  0  0  0  0
   58.3750   34.3920   45.3950 C   0  0  0  0  0  0  0  0  0  0  0  0
   59.1780   34.0040   46.4640 C   0  0  0  0  0  0  0  0  0  0  0  0
   59.1110   32.6920   46.9830 C   0  0  0  0  0  0  0  0  0  0  0  0
   58.5884   29.2794   54.1272 H   0  0  0  0  0  0  0  0  0  0  0  0
   57.9907   27.9039   53.1385 H   0  0  0  0  0  0  0  0  0  0  0  0
   59.7388   28.3173   53.1385 H   0  0  0  0  0  0  0  0  0  0  0  0
   59.0178   30.6184   52.2036 H   0  0  0  0  0  0  0  0  0  0  0  0
   58.8895   29.1928   51.0984 H   0  0  0  0  0  0  0  0  0  0  0  0
   56.1136   28.2384   52.6071 H   0  0  0  0  0  0  0  0  0  0  0  0
   56.4543   29.6161   53.7749 H   0  0  0  0  0  0  0  0  0  0  0  0
   54.2398   29.9603   53.6650 H   0  0  0  0  0  0  0  0  0  0  0  0
   54.6380   30.7736   52.1136 H   0  0  0  0  0  0  0  0  0  0  0  0
   54.0605   29.0727   52.1136 H   0  0  0  0  0  0  0  0  0  0  0  0
   56.4895   31.3402   50.3429 H   0  0  0  0  0  0  0  0  0  0  0  0
   55.8876   31.6507   52.0472 H   0  0  0  0  0  0  0  0  0  0  0  0
   57.4490   33.2449   52.1306 H   0  0  0  0  0  0  0  0  0  0  0  0
   58.6144   31.8844   52.3189 H   0  0  0  0  0  0  0  0  0  0  0  0
   60.4305   34.2941   48.5567 H   0  0  0  0  0  0  0  0  0  0  0  0
   62.6058   33.4050   47.2568 H   0  0  0  0  0  0  0  0  0  0  0  0
   65.0349   33.1673   47.7620 H   0  0  0  0  0  0  0  0  0  0  0  0
   64.1283   32.7180   51.9638 H   0  0  0  0  0  0  0  0  0  0  0  0
   61.6998   32.9563   51.4727 H   0  0  0  0  0  0  0  0  0  0  0  0
   61.5008   31.0255   49.9230 H   0  0  0  0  0  0  0  0  0  0  0  0
   61.5315   28.5898   50.4158 H   0  0  0  0  0  0  0  0  0  0  0  0
   60.0146   27.0403   49.1934 H   0  0  0  0  0  0  0  0  0  0  0  0
   58.4867   27.9209   47.4360 H   0  0  0  0  0  0  0  0  0  0  0  0
   57.6690   29.7530   46.2260 H   0  0  0  0  0  0  0  0  0  0  0  0
   57.2606   29.5522   43.6046 H   0  0  0  0  0  0  0  0  0  0  0  0
   55.9273   30.4755   42.8323 H   0  0  0  0  0  0  0  0  0  0  0  0
   57.5967   31.1387   42.8323 H   0  0  0  0  0  0  0  0  0  0  0  0
   56.8517   33.8129   43.9788 H   0  0  0  0  0  0  0  0  0  0  0  0
   58.4304   35.4235   45.0169 H   0  0  0  0  0  0  0  0  0  0  0  0
   59.8742   34.7291   46.9106 H   0  0  0  0  0  0  0  0  0  0  0  0
  1  2  1  0
  2  3  1  0
  3  4  1  0
  4  5  1  0
  3  6  1  0
  6  7  1  0
  7  8  1  0
  8  9  1  0
  9 10  2  0
  9 11  1  0
 11 12  1  0
 12 13  2  0
 13 14  1  0
 14 15  2  0
 15 16  1  0
 15 17  1  0
 17 18  2  0
 11 19  1  0
 19 20  1  0
 20 21  2  0
 21 22  1  0
 22 23  2  0
 23 24  1  0
 24 25  2  0
 25 26  1  0
 26 27  2  0
 27 28  1  0
 28 29  1  0
 29 30  1  0
 28 31  2  0
 31 32  1  0
 32 33  2  0
 33 34  1  0
 18 12  1  0
 34 19  2  0
 25 20  1  0
 34 27  1  0
  1 35  1  0
  1 36  1  0
  1 37  1  0
  2 38  1  0
  2 39  1  0
  4 40  1  0
  4 41  1  0
  5 42  1  0
  5 43  1  0
  5 44  1  0
  6 45  1  0
  6 46  1  0
  7 47  1  0
  7 48  1  0
 11 49  1  6
 13 50  1  0
 14 51  1  0
 17 52  1  0
 18 53  1  0
 21 54  1  0
 22 55  1  0
 23 56  1  0
 24 57  1  0
 26 58  1  0
 30 59  1  0
 30 60  1  0
 30 61  1  0
 31 62  1  0
 32 63  1  0
 33 64  1  0
M  CHG  1  26   1
M  END
>  <UniqueID>  (19) 
18

>  <SMILES>  (19) 
CCN(CC)CCOC(=O)[C@@H](c1ccc(Br)cc1)c1c2ccccc2[nH+]c2c(OC)cccc12

>  <Energy>  (19) 
87.57089884909865

>  <Genealogy>  (19) 
CCN(CC)CCOC(=O)C(c1ccc(Br)cc1)c1c2ccccc2[nH+]c2c(OC)cccc12 (protonated)
CCN(CC)CCOC(=O)[C@@H](c1ccc(Br)cc1)c1c2ccccc2[nH+]c2c(OC)cccc12 (chirality)
CCN(CC)CCOC(=O)[C@@H](c1ccc(Br)cc1)c1c2ccccc2[nH+]c2c(OC)cccc12 (3D coordinates assigned)
CCN(CC)CCOC(=O)[C@@H](c1ccc(Br)cc1)c1c2ccccc2[nH+]c2c(OC)cccc12 (optimized conformer: 87.57089884909865 kcal/mol)

>  <smiles>  (19) 
CCN(CC)CCOC(=O)C(c1ccc(Br)cc1)c1c2ccccc2nc2c(OC)cccc12

>  <score_type>  (19) 
oracle

>  <origin>  (19) 
adg

>  <m_score__min__energy>  (19) 
-7.6500000000000004

>  <m_primary>  (19) 
energy

$$$$
19:0
     RDKit          3D

 35 36  0  0  0  0  0  0  0  0999 V2000
   57.3940   24.9570   44.7870 C   0  0  0  0  0  0  0  0  0  0  0  0
   57.4020   25.0280   43.2580 C   0  0  0  0  0  0  0  0  0  0  0  0
   57.7260   26.3740   42.7470 N   0  0  0  0  0  0  0  0  0  0  0  0
   58.6320   27.1680   43.6030 C   0  0  0  0  0  0  0  0  0  0  0  0
   58.0240   28.4810   44.1280 C   0  0  0  0  0  0  0  0  0  0  0  0
   57.0170   29.0100   43.1950 N   0  0  0  0  0  0  0  0  0  0  0  0
   56.2510   30.1170   43.7880 C   0  0  0  0  0  0  0  0  0  0  0  0
   57.1400   31.1020   44.4940 C   0  0  0  0  0  0  0  0  0  0  0  0
   57.4270   32.3930   44.0480 C   0  0  0  0  0  0  0  0  0  0  0  0
   58.2350   33.0950   44.9480 C   0  0  0  0  0  0  0  0  0  0  0  0
   58.6940   34.4060   44.7930 C   0  0  0  0  0  0  0  0  0  0  0  0
   59.4980   34.9640   45.8020 C   0  0  0  0  0  0  0  0  0  0  0  0
   59.8310   34.2140   46.9470 C   0  0  0  0  0  0  0  0  0  0  0  0
   59.3640   32.8980   47.0930 C   0  0  0  0  0  0  0  0  0  0  0  0
   58.5700   32.3660   46.0800 C   0  0  0  0  0  0  0  0  0  0  0  0
   57.8730   30.8410   45.9970 S   0  0  0  0  0  0  0  0  0  0  0  0
   57.5081   25.9694   45.2017 H   0  0  0  0  0  0  0  0  0  0  0  0
   56.4416   24.5258   45.1291 H   0  0  0  0  0  0  0  0  0  0  0  0
   58.2266   24.3247   45.1291 H   0  0  0  0  0  0  0  0  0  0  0  0
   58.1516   24.3184   42.8777 H   0  0  0  0  0  0  0  0  0  0  0  0
   56.3885   24.7784   42.9108 H   0  0  0  0  0  0  0  0  0  0  0  0
   56.8360   26.9030   42.5990 H   0  0  0  0  0  0  0  0  0  0  0  0
   58.1740   26.2730   41.8050 H   0  0  0  0  0  0  0  0  0  0  0  0
   58.9166   26.5508   44.4679 H   0  0  0  0  0  0  0  0  0  0  0  0
   59.4904   27.4490   42.9751 H   0  0  0  0  0  0  0  0  0  0  0  0
   57.5475   28.2921   45.1013 H   0  0  0  0  0  0  0  0  0  0  0  0
   58.8299   29.2228   44.2289 H   0  0  0  0  0  0  0  0  0  0  0  0
   56.3490   28.2470   42.9420 H   0  0  0  0  0  0  0  0  0  0  0  0
   55.7060   30.6401   42.9884 H   0  0  0  0  0  0  0  0  0  0  0  0
   55.5584   29.6921   44.5295 H   0  0  0  0  0  0  0  0  0  0  0  0
   57.0601   32.8100   43.0985 H   0  0  0  0  0  0  0  0  0  0  0  0
   58.4311   34.9899   43.8986 H   0  0  0  0  0  0  0  0  0  0  0  0
   59.8699   35.9939   45.6967 H   0  0  0  0  0  0  0  0  0  0  0  0
   60.4600   34.6616   47.7306 H   0  0  0  0  0  0  0  0  0  0  0  0
   59.6182   32.3035   47.9829 H   0  0  0  0  0  0  0  0  0  0  0  0
  1  2  1  0
  2  3  1  0
  3  4  1  0
  4  5  1  0
  5  6  1  0
  6  7  1  0
  7  8  1  0
  8  9  2  0
  9 10  1  0
 10 11  2  0
 11 12  1  0
 12 13  2  0
 13 14  1  0
 14 15  2  0
 15 16  1  0
 16  8  1  0
 15 10  1  0
  1 17  1  0
  1 18  1  0
  1 19  1  0
  2 20  1  0
  2 21  1  0
  3 22  1  0
  3 23  1  0
  4 24  1  0
  4 25  1  0
  5 26  1  0
  5 27  1  0
  6 28  1  0
  7 29  1  0
  7 30  1  0
  9 31  1  0
 11 32  1  0
 12 33  1  0
 13 34  1  0
 14 35  1  0
M  CHG  1   3   1
M  END
>  <UniqueID>  (20) 
19

>  <SMILES>  (20) 
CC[NH2+]CCNCc1cc2ccccc2s1

>  <Energy>  (20) 
62.75829842570329

>  <Genealogy>  (20) 
CC[NH2+]CCNCc1cc2ccccc2s1 (protonated)
CC[NH2+]CCNCc1cc2ccccc2s1 (3D coordinates assigned)
CC[NH2+]CCNCc1cc2ccccc2s1 (optimized conformer: 62.75829842570329 kcal/mol)

>  <smiles>  (20) 
CCNCCNCc1cc2ccccc2s1

>  <score_type>  (20) 
oracle

>  <origin>  (20) 
adg

>  <m_score__min__energy>  (20) 
-5.46

>  <m_primary>  (20) 
energy

$$$$
20:0
     RDKit          3D

 59 62  0  0  0  0  0  0  0  0999 V2000
   61.5040   34.1890   47.9550 C   0  0  0  0  0  0  0  0  0  0  0  0
   61.2200   32.7430   48.2700 C   0  0  0  0  0  0  0  0  0  0  0  0
   62.1110   31.9910   49.0720 C   0  0  0  0  0  0  0  0  0  0  0  0
   63.7290   32.7350   49.7950 Br  0  0  0  0  0  0  0  0  0  0  0  0
   61.8380   30.6450   49.3470 C   0  0  0  0  0  0  0  0  0  0  0  0
   60.7060   30.0270   48.8190 C   0  0  0  0  0  0  0  0  0  0  0  0
   59.8400   30.7450   47.9980 C   0  0  0  0  0  0  0  0  0  0  0  0
   60.0920   32.0940   47.7050 C   0  0  0  0  0  0  0  0  0  0  0  0
   59.2040   32.7900   46.8150 N   0  0  0  0  0  0  0  0  0  0  0  0
   59.7750   33.5510   45.6990 C   0  0  0  0  0  0  0  0  0  0  0  0
   58.7730   33.7480   44.5300 C   0  0  0  0  0  0  0  0  0  0  0  0
   57.3650   33.4350   44.8630 N   0  0  0  0  0  0  0  0  0  0  0  0
   57.0370   32.0190   44.5710 C   0  0  0  0  0  0  0  0  0  0  0  0
   58.1520   31.3200   43.7520 C   0  0  0  0  0  0  0  0  0  0  0  0
   58.1930   29.8480   43.9420 N   0  0  0  0  0  0  0  0  0  0  0  0
   59.0880   29.4530   45.0300 C   0  0  0  0  0  0  0  0  0  0  0  0
   60.1390   30.0580   45.1970 O   0  0  0  0  0  0  0  0  0  0  0  0
   58.8140   28.2700   45.9450 C   0  0  0  0  0  0  0  0  0  0  0  0
   57.5210   27.4920   45.5860 C   0  0  0  0  0  0  0  0  0  0  0  0
   57.0940   26.5830   46.7460 C   0  0  0  0  0  0  0  0  0  0  0  0
   57.8640   25.2890   46.5600 C   0  0  0  0  0  0  0  0  0  0  0  0
   58.1740   25.1780   45.0680 C   0  0  0  0  0  0  0  0  0  0  0  0
   57.7760   26.5040   44.4310 C   0  0  0  0  0  0  0  0  0  0  0  0
   56.4170   28.5010   45.2490 C   0  0  0  0  0  0  0  0  0  0  0  0
   56.8440   29.3160   44.0580 C   0  0  0  0  0  0  0  0  0  0  0  0
   56.0350   29.5040   43.1600 O   0  0  0  0  0  0  0  0  0  0  0  0
   57.0550   33.8640   46.2420 C   0  0  0  0  0  0  0  0  0  0  0  0
   57.8350   33.0480   47.2750 C   0  0  0  0  0  0  0  0  0  0  0  0
   61.6149   34.7536   48.8925 H   0  0  0  0  0  0  0  0  0  0  0  0
   62.4335   34.2614   47.3713 H   0  0  0  0  0  0  0  0  0  0  0  0
   60.6709   34.6076   47.3713 H   0  0  0  0  0  0  0  0  0  0  0  0
   62.5241   30.0699   49.9862 H   0  0  0  0  0  0  0  0  0  0  0  0
   60.4965   28.9723   49.0507 H   0  0  0  0  0  0  0  0  0  0  0  0
   58.9522   30.2512   47.5762 H   0  0  0  0  0  0  0  0  0  0  0  0
   60.0822   34.5403   46.0690 H   0  0  0  0  0  0  0  0  0  0  0  0
   60.6292   32.9775   45.3098 H   0  0  0  0  0  0  0  0  0  0  0  0
   58.8237   34.7988   44.2086 H   0  0  0  0  0  0  0  0  0  0  0  0
   59.0709   33.0399   43.7427 H   0  0  0  0  0  0  0  0  0  0  0  0
   56.9054   31.4819   45.5219 H   0  0  0  0  0  0  0  0  0  0  0  0
   56.1145   32.0012   43.9721 H   0  0  0  0  0  0  0  0  0  0  0  0
   57.9831   31.5287   42.6853 H   0  0  0  0  0  0  0  0  0  0  0  0
   59.1132   31.7188   44.1084 H   0  0  0  0  0  0  0  0  0  0  0  0
   58.6050   29.4390   43.0720 H   0  0  0  0  0  0  0  0  0  0  0  0
   59.6657   27.5768   45.8812 H   0  0  0  0  0  0  0  0  0  0  0  0
   58.6764   28.6726   46.9594 H   0  0  0  0  0  0  0  0  0  0  0  0
   57.3501   27.0462   47.7103 H   0  0  0  0  0  0  0  0  0  0  0  0
   56.0074   26.4116   46.7481 H   0  0  0  0  0  0  0  0  0  0  0  0
   58.7977   25.3157   47.1410 H   0  0  0  0  0  0  0  0  0  0  0  0
   57.2797   24.4251   46.9098 H   0  0  0  0  0  0  0  0  0  0  0  0
   59.2481   24.9940   44.9179 H   0  0  0  0  0  0  0  0  0  0  0  0
   57.6219   24.3424   44.6132 H   0  0  0  0  0  0  0  0  0  0  0  0
   58.5879   26.8743   43.7878 H   0  0  0  0  0  0  0  0  0  0  0  0
   56.8794   26.3883   43.8044 H   0  0  0  0  0  0  0  0  0  0  0  0
   55.4862   27.9641   45.0138 H   0  0  0  0  0  0  0  0  0  0  0  0
   56.2443   29.1637   46.1098 H   0  0  0  0  0  0  0  0  0  0  0  0
   57.3188   34.9261   46.3532 H   0  0  0  0  0  0  0  0  0  0  0  0
   55.9809   33.7052   46.4183 H   0  0  0  0  0  0  0  0  0  0  0  0
   57.8728   33.6073   48.2214 H   0  0  0  0  0  0  0  0  0  0  0  0
   57.3253   32.0837   47.4178 H   0  0  0  0  0  0  0  0  0  0  0  0
  1  2  1  0
  2  3  2  0
  3  4  1  0
  3  5  1  0
  5  6  2  0
  6  7  1  0
  7  8  2  0
  8  9  1  0
  9 10  1  0
 10 11  1  0
 11 12  1  0
 12 13  1  0
 13 14  1  0
 14 15  1  0
 15 16  1  0
 16 17  2  0
 16 18  1  0
 18 19  1  0
 19 20  1  0
 20 21  1  0
 21 22  1  0
 22 23  1  0
 19 24  1  0
 24 25  1  0
 25 26  2  0
 12 27  1  0
 27 28  1  0
  8  2  1  0
 28  9  1  0
 25 15  1  0
 23 19  1  0
  1 29  1  0
  1 30  1  0
  1 31  1  0
  5 32  1  0
  6 33  1  0
  7 34  1  0
 10 35  1  0
 10 36  1  0
 11 37  1  0
 11 38  1  0
 13 39  1  0
 13 40  1  0
 14 41  1  0
 14 42  1  0
 15 43  1  0
 18 44  1  0
 18 45  1  0
 20 46  1  0
 20 47  1  0
 21 48  1  0
 21 49  1  0
 22 50  1  0
 22 51  1  0
 23 52  1  0
 23 53  1  0
 24 54  1  0
 24 55  1  0
 27 56  1  0
 27 57  1  0
 28 58  1  0
 28 59  1  0
M  CHG  1  15   1
M  END
>  <UniqueID>  (21) 
20

>  <SMILES>  (21) 
Cc1c(Br)cccc1N1CCN(CC[NH+]2C(=O)CC3(CCCC3)CC2=O)CC1

>  <Energy>  (21) 
85.66067979826522

>  <Genealogy>  (21) 
Cc1c(Br)cccc1N1CCN(CC[NH+]2C(=O)CC3(CCCC3)CC2=O)CC1 (protonated)
Cc1c(Br)cccc1N1CCN(CC[NH+]2C(=O)CC3(CCCC3)CC2=O)CC1 (3D coordinates assigned)
Cc1c(Br)cccc1N1CCN(CC[NH+]2C(=O)CC3(CCCC3)CC2=O)CC1 (nonaromatic ring conformer: 85.66067979826522 kcal/mol)

>  <smiles>  (21) 
Cc1c(Br)cccc1N1CCN(CCN2C(=O)CC3(CCCC3)CC2=O)CC1

>  <score_type>  (21) 
oracle

>  <origin>  (21) 
adg

>  <m_score__min__energy>  (21) 
-8.1199999999999992

>  <m_primary>  (21) 
energy

$$$$
21:0
     RDKit          3D

 52 53  0  0  0  0  0  0  0  0999 V2000
   62.8790   31.4860   49.3790 C   0  0  0  0  0  0  0  0  0  0  0  0
   63.0160   31.4190   47.8580 C   0  0  0  0  0  0  0  0  0  0  0  0
   63.4760   32.7080   47.3170 N   0  0  0  0  0  0  0  0  0  0  0  0
   63.0980   33.8420   48.1800 C   0  0  0  0  0  0  0  0  0  0  0  0
   61.6090   34.1950   48.0660 C   0  0  0  0  0  0  0  0  0  0  0  0
   61.0400   33.4450   47.0140 O   0  0  0  0  0  0  0  0  0  0  0  0
   60.5130   34.3010   46.0160 C   0  0  0  0  0  0  0  0  0  0  0  0
   59.0040   34.4620   46.2110 C   0  0  0  0  0  0  0  0  0  0  0  0
   58.2150   33.8650   45.0380 C   0  0  0  0  0  0  0  0  0  0  0  0
   57.1140   32.9230   45.5350 C   0  0  0  0  0  0  0  0  0  0  0  0
   57.3960   31.5020   45.1090 C   0  0  0  0  0  0  0  0  0  0  0  0
   56.6110   30.9220   44.0960 C   0  0  0  0  0  0  0  0  0  0  0  0
   56.8960   29.6390   43.6230 C   0  0  0  0  0  0  0  0  0  0  0  0
   57.9770   28.9260   44.1410 C   0  0  0  0  0  0  0  0  0  0  0  0
   58.7760   29.4940   45.1360 C   0  0  0  0  0  0  0  0  0  0  0  0
   58.4890   30.7710   45.6340 C   0  0  0  0  0  0  0  0  0  0  0  0
   59.3450   31.3280   46.6410 N   0  0  0  0  0  0  0  0  0  0  0  0
   59.1010   31.1910   48.0530 C   0  0  0  0  0  0  0  0  0  0  0  0
   58.7290   32.3210   48.7990 C   0  0  0  0  0  0  0  0  0  0  0  0
   58.4850   32.2150   50.1720 C   0  0  0  0  0  0  0  0  0  0  0  0
   58.6130   30.9790   50.8120 C   0  0  0  0  0  0  0  0  0  0  0  0
   58.9880   29.8500   50.0810 C   0  0  0  0  0  0  0  0  0  0  0  0
   59.2340   29.9520   48.7090 C   0  0  0  0  0  0  0  0  0  0  0  0
   63.7731   31.0487   49.8473 H   0  0  0  0  0  0  0  0  0  0  0  0
   62.7772   32.5356   49.6921 H   0  0  0  0  0  0  0  0  0  0  0  0
   61.9881   30.9219   49.6921 H   0  0  0  0  0  0  0  0  0  0  0  0
   63.7442   30.6374   47.5957 H   0  0  0  0  0  0  0  0  0  0  0  0
   62.0317   31.1864   47.4254 H   0  0  0  0  0  0  0  0  0  0  0  0
   64.5140   32.6910   47.1810 H   0  0  0  0  0  0  0  0  0  0  0  0
   63.0300   32.8570   46.3810 H   0  0  0  0  0  0  0  0  0  0  0  0
   63.3195   33.5795   49.2250 H   0  0  0  0  0  0  0  0  0  0  0  0
   63.6759   34.7189   47.8527 H   0  0  0  0  0  0  0  0  0  0  0  0
   61.0989   33.9528   49.0100 H   0  0  0  0  0  0  0  0  0  0  0  0
   61.4956   35.2698   47.8609 H   0  0  0  0  0  0  0  0  0  0  0  0
   60.9971   35.2861   46.0878 H   0  0  0  0  0  0  0  0  0  0  0  0
   60.7052   33.8632   45.0253 H   0  0  0  0  0  0  0  0  0  0  0  0
   58.7074   33.9496   47.1381 H   0  0  0  0  0  0  0  0  0  0  0  0
   58.7774   35.5370   46.2659 H   0  0  0  0  0  0  0  0  0  0  0  0
   57.7557   34.6816   44.4616 H   0  0  0  0  0  0  0  0  0  0  0  0
   58.9088   33.2890   44.4080 H   0  0  0  0  0  0  0  0  0  0  0  0
   57.0681   32.9686   46.6331 H   0  0  0  0  0  0  0  0  0  0  0  0
   56.1545   33.2392   45.0999 H   0  0  0  0  0  0  0  0  0  0  0  0
   55.7653   31.4838   43.6726 H   0  0  0  0  0  0  0  0  0  0  0  0
   56.2666   29.1901   42.8404 H   0  0  0  0  0  0  0  0  0  0  0  0
   58.2004   27.9163   43.7659 H   0  0  0  0  0  0  0  0  0  0  0  0
   59.6366   28.9344   45.5311 H   0  0  0  0  0  0  0  0  0  0  0  0
   60.2460   31.7510   46.3250 H   0  0  0  0  0  0  0  0  0  0  0  0
   58.6288   33.2962   48.3001 H   0  0  0  0  0  0  0  0  0  0  0  0
   58.1922   33.1048   50.7486 H   0  0  0  0  0  0  0  0  0  0  0  0
   58.4183   30.8957   51.8914 H   0  0  0  0  0  0  0  0  0  0  0  0
   59.0900   28.8782   50.5861 H   0  0  0  0  0  0  0  0  0  0  0  0
   59.5330   29.0601   48.1388 H   0  0  0  0  0  0  0  0  0  0  0  0
  1  2  1  0
  2  3  1  0
  3  4  1  0
  4  5  1  0
  5  6  1  0
  6  7  1  0
  7  8  1  0
  8  9  1  0
  9 10  1  0
 10 11  1  0
 11 12  2  0
 12 13  1  0
 13 14  2  0
 14 15  1  0
 15 16  2  0
 16 17  1  0
 17 18  1  0
 18 19  2  0
 19 20  1  0
 20 21  2  0
 21 22  1  0
 22 23  2  0
 16 11  1  0
 23 18  1  0
  1 24  1  0
  1 25  1  0
  1 26  1  0
  2 27  1  0
  2 28  1  0
  3 29  1  0
  3 30  1  0
  4 31  1  0
  4 32  1  0
  5 33  1  0
  5 34  1  0
  7 35  1  0
  7 36  1  0
  8 37  1  0
  8 38  1  0
  9 39  1  0
  9 40  1  0
 10 41  1  0
 10 42  1  0
 12 43  1  0
 13 44  1  0
 14 45  1  0
 15 46  1  0
 17 47  1  0
 19 48  1  0
 20 49  1  0
 21 50  1  0
 22 51  1  0
 23 52  1  0
M  CHG  1   3   1
M  END
>  <UniqueID>  (22) 
21

>  <SMILES>  (22) 
CC[NH2+]CCOCCCCc1ccccc1Nc1ccccc1

>  <Energy>  (22) 
50.38792230903476

>  <Genealogy>  (22) 
CC[NH2+]CCOCCCCc1ccccc1Nc1ccccc1 (protonated)
CC[NH2+]CCOCCCCc1ccccc1Nc1ccccc1 (3D coordinates assigned)
CC[NH2+]CCOCCCCc1ccccc1Nc1ccccc1 (optimized conformer: 50.38792230903476 kcal/mol)

>  <smiles>  (22) 
CCNCCOCCCCc1ccccc1Nc1ccccc1

>  <score_type>  (22) 
oracle

>  <origin>  (22) 
adg

>  <m_score__min__energy>  (22) 
-5.5

>  <m_primary>  (22) 
energy

$$$$
22:0
     RDKit          3D

 58 60  0  0  0  0  0  0  0  0999 V2000
   60.3010   28.9320   47.7300 C   0  0  0  0  0  0  0  0  0  0  0  0
   58.9930   29.6830   47.4950 C   0  0  0  0  0  0  0  0  0  0  0  0
   59.0850   30.6800   46.3360 C   0  0  0  0  0  0  0  0  0  0  0  0
   57.7420   30.9040   45.7400 N   0  0  0  0  0  0  0  0  0  0  0  0
   57.2610   29.7200   44.9940 C   0  0  0  0  0  0  0  0  0  0  0  0
   56.0660   30.0980   44.1080 C   0  0  0  0  0  0  0  0  0  0  0  0
   56.3160   29.7210   42.6510 C   0  0  0  0  0  0  0  0  0  0  0  0
   57.7060   32.1260   44.9030 C   0  0  0  0  0  0  0  0  0  0  0  0
   58.4210   33.2870   45.6050 C   0  0  0  0  0  0  0  0  0  0  0  0
   57.8620   33.5290   47.0110 C   0  0  0  0  0  0  0  0  0  0  0  0
   58.9020   34.0740   47.8790 N   0  0  0  0  0  0  0  0  0  0  0  0
   59.8760   33.2160   48.4990 C   0  0  0  0  0  0  0  0  0  0  0  0
   61.1940   33.1700   48.0100 C   0  0  0  0  0  0  0  0  0  0  0  0
   61.5780   33.9250   46.8800 C   0  0  0  0  0  0  0  0  0  0  0  0
   62.8710   33.8380   46.3710 C   0  0  0  0  0  0  0  0  0  0  0  0
   63.8000   32.9950   46.9690 C   0  0  0  0  0  0  0  0  0  0  0  0
   63.4510   32.2560   48.0990 C   0  0  0  0  0  0  0  0  0  0  0  0
   62.1550   32.3540   48.6680 C   0  0  0  0  0  0  0  0  0  0  0  0
   61.8140   31.6750   49.8220 N   0  0  0  0  0  0  0  0  0  0  0  0
   62.8710   31.0740   50.6670 C   0  0  0  0  0  0  0  0  0  0  0  0
   60.4880   31.5750   50.2000 C   0  0  0  0  0  0  0  0  0  0  0  0
   60.0640   30.6730   51.2100 C   0  0  0  0  0  0  0  0  0  0  0  0
   58.7280   30.6040   51.6020 C   0  0  0  0  0  0  0  0  0  0  0  0
   57.7770   31.4110   50.9890 C   0  0  0  0  0  0  0  0  0  0  0  0
   56.4780   31.3340   51.3680 F   0  0  0  0  0  0  0  0  0  0  0  0
   58.1540   32.2800   49.9670 C   0  0  0  0  0  0  0  0  0  0  0  0
   59.5020   32.3710   49.5580 C   0  0  0  0  0  0  0  0  0  0  0  0
   60.4767   28.8311   48.8112 H   0  0  0  0  0  0  0  0  0  0  0  0
   60.2372   27.9330   47.2741 H   0  0  0  0  0  0  0  0  0  0  0  0
   61.1316   29.4907   47.2741 H   0  0  0  0  0  0  0  0  0  0  0  0
   58.2030   28.9518   47.2686 H   0  0  0  0  0  0  0  0  0  0  0  0
   58.7686   30.2540   48.4080 H   0  0  0  0  0  0  0  0  0  0  0  0
   59.4799   31.6360   46.7103 H   0  0  0  0  0  0  0  0  0  0  0  0
   59.7548   30.2714   45.5650 H   0  0  0  0  0  0  0  0  0  0  0  0
   58.0742   29.3347   44.3614 H   0  0  0  0  0  0  0  0  0  0  0  0
   56.9445   28.9490   45.7119 H   0  0  0  0  0  0  0  0  0  0  0  0
   55.1716   29.5678   44.4671 H   0  0  0  0  0  0  0  0  0  0  0  0
   55.9216   31.1870   44.1653 H   0  0  0  0  0  0  0  0  0  0  0  0
   56.9235   28.8049   42.6083 H   0  0  0  0  0  0  0  0  0  0  0  0
   55.3539   29.5467   42.1471 H   0  0  0  0  0  0  0  0  0  0  0  0
   56.8509   30.5395   42.1471 H   0  0  0  0  0  0  0  0  0  0  0  0
   58.2053   31.9216   43.9444 H   0  0  0  0  0  0  0  0  0  0  0  0
   56.6561   32.4079   44.7349 H   0  0  0  0  0  0  0  0  0  0  0  0
   59.4925   33.0509   45.6830 H   0  0  0  0  0  0  0  0  0  0  0  0
   58.2607   34.1985   45.0104 H   0  0  0  0  0  0  0  0  0  0  0  0
   57.0267   34.2423   46.9523 H   0  0  0  0  0  0  0  0  0  0  0  0
   57.5105   32.5735   47.4274 H   0  0  0  0  0  0  0  0  0  0  0  0
   58.7760   35.0440   48.2480 H   0  0  0  0  0  0  0  0  0  0  0  0
   60.8470   34.5896   46.3963 H   0  0  0  0  0  0  0  0  0  0  0  0
   63.1576   34.4374   45.4943 H   0  0  0  0  0  0  0  0  0  0  0  0
   64.8135   32.9104   46.5498 H   0  0  0  0  0  0  0  0  0  0  0  0
   64.1932   31.5857   48.5570 H   0  0  0  0  0  0  0  0  0  0  0  0
   62.6182   31.2177   51.7279 H   0  0  0  0  0  0  0  0  0  0  0  0
   62.9461   29.9981   50.4504 H   0  0  0  0  0  0  0  0  0  0  0  0
   63.8339   31.5597   50.4504 H   0  0  0  0  0  0  0  0  0  0  0  0
   60.8029   30.0163   51.6924 H   0  0  0  0  0  0  0  0  0  0  0  0
   58.4256   29.9087   52.3989 H   0  0  0  0  0  0  0  0  0  0  0  0
   57.3927   32.9020   49.4735 H   0  0  0  0  0  0  0  0  0  0  0  0
  1  2  1  0
  2  3  1  0
  3  4  1  0
  4  5  1  0
  5  6  1  0
  6  7  1  0
  4  8  1  0
  8  9  1  0
  9 10  1  0
 10 11  1  0
 11 12  1  0
 12 13  2  0
 13 14  1  0
 14 15  2  0
 15 16  1  0
 16 17  2  0
 17 18  1  0
 18 19  2  0
 19 20  1  0
 19 21  1  0
 21 22  2  0
 22 23  1  0
 23 24  2  0
 24 25  1  0
 24 26  1  0
 26 27  2  0
 27 12  1  0
 18 13  1  0
 27 21  1  0
  1 28  1  0
  1 29  1  0
  1 30  1  0
  2 31  1  0
  2 32  1  0
  3 33  1  0
  3 34  1  0
  5 35  1  0
  5 36  1  0
  6 37  1  0
  6 38  1  0
  7 39  1  0
  7 40  1  0
  7 41  1  0
  8 42  1  0
  8 43  1  0
  9 44  1  0
  9 45  1  0
 10 46  1  0
 10 47  1  0
 11 48  1  0
 14 49  1  0
 15 50  1  0
 16 51  1  0
 17 52  1  0
 20 53  1  0
 20 54  1  0
 20 55  1  0
 22 56  1  0
 23 57  1  0
 26 58  1  0
M  CHG  1  19   1
M  END
>  <UniqueID>  (23) 
22

>  <SMILES>  (23) 
CCCN(CCC)CCCNc1c2ccccc2[n+](C)c2ccc(F)cc12

>  <Energy>  (23) 
76.18690610456673

>  <Genealogy>  (23) 
CCCN(CCC)CCCNc1c2ccccc2[n+](C)c2ccc(F)cc12 (3D coordinates assigned)
CCCN(CCC)CCCNc1c2ccccc2[n+](C)c2ccc(F)cc12 (optimized conformer: 76.18690610456673 kcal/mol)

>  <smiles>  (23) 
CCCN(CCC)CCCNc1c2ccccc2[n+](C)c2ccc(F)cc12

>  <score_type>  (23) 
oracle

>  <origin>  (23) 
adg

>  <m_score__min__energy>  (23) 
-5.8399999999999999

>  <m_primary>  (23) 
energy

$$$$
