0:0
     RDKit          3D

 46 48  0  0  0  0  0  0  0  0999 V2000
   56.1230   29.7740   43.4570 C   0  0  0  0  0  0  0  0  0  0  0  0
   56.1910   29.8330   44.8760 O   0  0  0  0  0  0  0  0  0  0  0  0
   57.4040   29.6720   45.5520 C   0  0  0  0  0  0  0  0  0  0  0  0
   58.1690   30.8040   45.9060 C   0  0  0  0  0  0  0  0  0  0  0  0
   57.6710   32.2080   45.6640 C   0  0  0  0  0  0  0  0  0  0  0  0
   58.5700   32.8970   44.7130 N   0  0  0  0  0  0  0  0  0  0  0  0
   58.1230   32.6780   43.3270 C   0  0  0  0  0  0  0  0  0  0  0  0
   58.6830   34.3450   45.0090 C   0  0  0  0  0  0  0  0  0  0  0  0
   58.7240   34.5770   46.5220 C   0  0  0  0  0  0  0  0  0  0  0  0
   60.0570   34.1750   47.1010 C   0  0  0  0  0  0  0  0  0  0  0  0
   61.1240   33.8390   46.2500 C   0  0  0  0  0  0  0  0  0  0  0  0
   62.3690   33.4930   46.7830 C   0  0  0  0  0  0  0  0  0  0  0  0
   62.5600   33.4860   48.1670 C   0  0  0  0  0  0  0  0  0  0  0  0
   61.5080   33.8320   49.0200 C   0  0  0  0  0  0  0  0  0  0  0  0
   60.2620   34.1810   48.4910 C   0  0  0  0  0  0  0  0  0  0  0  0
   59.3990   30.6320   46.5570 C   0  0  0  0  0  0  0  0  0  0  0  0
   59.8710   29.3570   46.8630 C   0  0  0  0  0  0  0  0  0  0  0  0
   59.1070   28.2270   46.5510 C   0  0  0  0  0  0  0  0  0  0  0  0
   59.5610   26.9470   46.9030 C   0  0  0  0  0  0  0  0  0  0  0  0
   58.7820   25.8230   46.6170 C   0  0  0  0  0  0  0  0  0  0  0  0
   57.5480   25.9680   45.9810 C   0  0  0  0  0  0  0  0  0  0  0  0
   57.0850   27.2360   45.6220 C   0  0  0  0  0  0  0  0  0  0  0  0
   57.8590   28.3800   45.8960 C   0  0  0  0  0  0  0  0  0  0  0  0
   55.3237   29.0805   43.1567 H   0  0  0  0  0  0  0  0  0  0  0  0
   55.9078   30.7763   43.0582 H   0  0  0  0  0  0  0  0  0  0  0  0
   57.0849   29.4195   43.0582 H   0  0  0  0  0  0  0  0  0  0  0  0
   56.6550   32.1687   45.2442 H   0  0  0  0  0  0  0  0  0  0  0  0
   57.6554   32.7589   46.6160 H   0  0  0  0  0  0  0  0  0  0  0  0
   57.1352   32.1940   43.3325 H   0  0  0  0  0  0  0  0  0  0  0  0
   58.0548   33.6447   42.8066 H   0  0  0  0  0  0  0  0  0  0  0  0
   58.8451   32.0316   42.8066 H   0  0  0  0  0  0  0  0  0  0  0  0
   59.6060   34.7368   44.5568 H   0  0  0  0  0  0  0  0  0  0  0  0
   57.8083   34.8648   44.5911 H   0  0  0  0  0  0  0  0  0  0  0  0
   58.5517   35.6441   46.7259 H   0  0  0  0  0  0  0  0  0  0  0  0
   57.9419   33.9608   46.9895 H   0  0  0  0  0  0  0  0  0  0  0  0
   60.9786   33.8484   45.1597 H   0  0  0  0  0  0  0  0  0  0  0  0
   63.1990   33.2260   46.1123 H   0  0  0  0  0  0  0  0  0  0  0  0
   63.5386   33.2081   48.5856 H   0  0  0  0  0  0  0  0  0  0  0  0
   61.6609   33.8296   50.1093 H   0  0  0  0  0  0  0  0  0  0  0  0
   59.4393   34.4613   49.1652 H   0  0  0  0  0  0  0  0  0  0  0  0
   59.9981   31.5135   46.8292 H   0  0  0  0  0  0  0  0  0  0  0  0
   60.8490   29.2383   47.3522 H   0  0  0  0  0  0  0  0  0  0  0  0
   60.5324   26.8281   47.4053 H   0  0  0  0  0  0  0  0  0  0  0  0
   59.1421   24.8211   46.8938 H   0  0  0  0  0  0  0  0  0  0  0  0
   56.9374   25.0797   45.7615 H   0  0  0  0  0  0  0  0  0  0  0  0
   56.1106   27.3415   45.1226 H   0  0  0  0  0  0  0  0  0  0  0  0
  1  2  1  0
  2  3  1  0
  3  4  2  0
  4  5  1  0
  5  6  1  0
  6  7  1  0
  6  8  1  0
  8  9  1  0
  9 10  1  0
 10 11  2  0
 11 12  1  0
 12 13  2  0
 13 14  1  0
 14 15  2  0
  4 16  1  0
 16 17  2  0
 17 18  1  0
 18 19  2  0
 19 20  1  0
 20 21  2  0
 21 22  1  0
 22 23  2  0
 23  3  1  0
 15 10  1  0
 23 18  1  0
  1 24  1  0
  1 25  1  0
  1 26  1  0
  5 27  1  0
  5 28  1  0
  7 29  1  0
  7 30  1  0
  7 31  1  0
  8 32  1  0
  8 33  1  0
  9 34  1  0
  9 35  1  0
 11 36  1  0
 12 37  1  0
 13 38  1  0
 14 39  1  0
 15 40  1  0
 16 41  1  0
 17 42  1  0
 19 43  1  0
 20 44  1  0
 21 45  1  0
 22 46  1  0
M  END
>  <UniqueID>  (1) 
1

>  <SMILES>  (1) 
COc1c(CN(C)CCc2ccccc2)ccc2ccccc12

>  <Energy>  (1) 
52.22919631476922

>  <Genealogy>  (1) 
COc1c(CN(C)CCc2ccccc2)ccc2ccccc12 (3D coordinates assigned)
COc1c(CN(C)CCc2ccccc2)ccc2ccccc12 (optimized conformer: 52.22919631476922 kcal/mol)

>  <smiles>  (1) 
COc1c(CN(C)CCc2ccccc2)ccc2ccccc12

>  <score_type>  (1) 
oracle

>  <origin>  (1) 
adg

>  <m_score__min__energy>  (1) 
-7.9699999999999998

>  <m_primary>  (1) 
energy

$$$$
1:0
     RDKit          3D

 53 55  0  0  0  0  0  0  0  0999 V2000
   63.4420   31.7960   49.4850 C   0  0  0  0  0  0  0  0  0  0  0  0
   63.9990   33.0760   48.8840 C   0  0  0  0  0  0  0  0  0  0  0  0
   62.9850   34.0780   48.8730 O   0  0  0  0  0  0  0  0  0  0  0  0
   61.7310   33.9320   48.2610 C   0  0  0  0  0  0  0  0  0  0  0  0
   60.5450   34.4110   48.8460 C   0  0  0  0  0  0  0  0  0  0  0  0
   59.3180   34.2380   48.1960 C   0  0  0  0  0  0  0  0  0  0  0  0
   59.2580   33.5820   46.9510 C   0  0  0  0  0  0  0  0  0  0  0  0
   58.0560   33.3820   46.2530 O   0  0  0  0  0  0  0  0  0  0  0  0
   57.7630   33.8720   44.9450 C   0  0  0  0  0  0  0  0  0  0  0  0
   58.1040   32.8130   43.8830 C   0  0  0  0  0  0  0  0  0  0  0  0
   57.8040   31.4430   44.3390 N   0  0  0  0  0  0  0  0  0  0  0  0
   56.7120   30.8280   43.5600 C   0  0  0  0  0  0  0  0  0  0  0  0
   56.2940   29.4470   44.1150 C   0  0  2  0  0  0  0  0  0  0  0  0
   55.3640   29.5990   45.1560 O   0  0  0  0  0  0  0  0  0  0  0  0
   57.5000   28.6250   44.6000 C   0  0  0  0  0  0  0  0  0  0  0  0
   58.1490   29.2770   45.6930 O   0  0  0  0  0  0  0  0  0  0  0  0
   59.0110   28.6700   46.6230 C   0  0  0  0  0  0  0  0  0  0  0  0
   59.5420   27.3680   46.4530 C   0  0  0  0  0  0  0  0  0  0  0  0
   60.3970   26.8090   47.4230 C   0  0  0  0  0  0  0  0  0  0  0  0
   60.7340   27.5320   48.5740 C   0  0  0  0  0  0  0  0  0  0  0  0
   60.2010   28.8070   48.7280 C   0  0  0  0  0  0  0  0  0  0  0  0
   60.4320   29.8820   49.9950 S   0  0  0  0  0  0  0  0  0  0  0  0
   59.4520   31.0980   49.3490 C   0  0  0  0  0  0  0  0  0  0  0  0
   58.9340   30.6650   48.1300 C   0  0  0  0  0  0  0  0  0  0  0  0
   59.3590   29.3750   47.7850 C   0  0  0  0  0  0  0  0  0  0  0  0
   60.4430   33.1130   46.3730 C   0  0  0  0  0  0  0  0  0  0  0  0
   61.6680   33.2840   47.0230 C   0  0  0  0  0  0  0  0  0  0  0  0
   63.4713   31.8632   50.5826 H   0  0  0  0  0  0  0  0  0  0  0  0
   62.4023   31.6575   49.1537 H   0  0  0  0  0  0  0  0  0  0  0  0
   64.0494   30.9408   49.1537 H   0  0  0  0  0  0  0  0  0  0  0  0
   64.8509   33.4234   49.4870 H   0  0  0  0  0  0  0  0  0  0  0  0
   64.3328   32.8817   47.8540 H   0  0  0  0  0  0  0  0  0  0  0  0
   60.5822   34.9237   49.8185 H   0  0  0  0  0  0  0  0  0  0  0  0
   58.3952   34.6164   48.6599 H   0  0  0  0  0  0  0  0  0  0  0  0
   56.6923   34.1163   44.8816 H   0  0  0  0  0  0  0  0  0  0  0  0
   58.3693   34.7706   44.7582 H   0  0  0  0  0  0  0  0  0  0  0  0
   57.5167   33.0201   42.9762 H   0  0  0  0  0  0  0  0  0  0  0  0
   59.1845   32.8718   43.6854 H   0  0  0  0  0  0  0  0  0  0  0  0
   57.5710   31.4510   45.3590 H   0  0  0  0  0  0  0  0  0  0  0  0
   58.6710   30.8730   44.2080 H   0  0  0  0  0  0  0  0  0  0  0  0
   55.8396   31.4975   43.5861 H   0  0  0  0  0  0  0  0  0  0  0  0
   57.0768   30.6790   42.5330 H   0  0  0  0  0  0  0  0  0  0  0  0
   55.8284   28.8926   43.2868 H   0  0  0  0  0  0  0  0  0  0  0  0
   55.8860   29.7140   45.9920 H   0  0  0  0  0  0  0  0  0  0  0  0
   57.1534   27.6331   44.9256 H   0  0  0  0  0  0  0  0  0  0  0  0
   58.2167   28.5260   43.7714 H   0  0  0  0  0  0  0  0  0  0  0  0
   59.2842   26.7877   45.5548 H   0  0  0  0  0  0  0  0  0  0  0  0
   60.8028   25.7973   47.2753 H   0  0  0  0  0  0  0  0  0  0  0  0
   61.4020   27.1030   49.3354 H   0  0  0  0  0  0  0  0  0  0  0  0
   59.2548   32.0743   49.8158 H   0  0  0  0  0  0  0  0  0  0  0  0
   58.2625   31.2717   47.5047 H   0  0  0  0  0  0  0  0  0  0  0  0
   60.4098   32.6050   45.3979 H   0  0  0  0  0  0  0  0  0  0  0  0
   62.5902   32.9060   46.5574 H   0  0  0  0  0  0  0  0  0  0  0  0
  1  2  1  0
  2  3  1  0
  3  4  1  0
  4  5  2  0
  5  6  1  0
  6  7  2  0
  7  8  1  0
  8  9  1  0
  9 10  1  0
 10 11  1  0
 11 12  1  0
 12 13  1  0
 13 14  1  0
 13 15  1  0
 15 16  1  0
 16 17  1  0
 17 18  2  0
 18 19  1  0
 19 20  2  0
 20 21  1  0
 21 22  1  0
 22 23  1  0
 23 24  2  0
 24 25  1  0
  7 26  1  0
 26 27  2  0
 27  4  1  0
 25 17  1  0
 25 21  2  0
  1 28  1  0
  1 29  1  0
  1 30  1  0
  2 31  1  0
  2 32  1  0
  5 33  1  0
  6 34  1  0
  9 35  1  0
  9 36  1  0
 10 37  1  0
 10 38  1  0
 11 39  1  0
 11 40  1  0
 12 41  1  0
 12 42  1  0
 13 43  1  6
 14 44  1  0
 15 45  1  0
 15 46  1  0
 18 47  1  0
 19 48  1  0
 20 49  1  0
 23 50  1  0
 24 51  1  0
 26 52  1  0
 27 53  1  0
M  CHG  1  11   1
M  END
>  <UniqueID>  (2) 
2

>  <SMILES>  (2) 
CCOc1ccc(OCC[NH2+]C[C@H](O)COc2cccc3sccc23)cc1

>  <Energy>  (2) 
80.96149859652844

>  <Genealogy>  (2) 
CCOc1ccc(OCC[NH2+]CC(O)COc2cccc3sccc23)cc1 (protonated)
CCOc1ccc(OCC[NH2+]C[C@H](O)COc2cccc3sccc23)cc1 (chirality)
CCOc1ccc(OCC[NH2+]C[C@H](O)COc2cccc3sccc23)cc1 (3D coordinates assigned)
CCOc1ccc(OCC[NH2+]C[C@H](O)COc2cccc3sccc23)cc1 (optimized conformer: 80.96149859652844 kcal/mol)

>  <smiles>  (2) 
CCOc1ccc(OCCNCC(O)COc2cccc3sccc23)cc1

>  <score_type>  (2) 
oracle

>  <origin>  (2) 
adg

>  <m_score__min__energy>  (2) 
-4.7300000000000004

>  <m_primary>  (2) 
energy

$$$$
2:0
     RDKit          3D

 44 46  0  0  0  0  0  0  0  0999 V2000
   56.0340   26.5450   46.3670 O   0  0  0  0  0  0  0  0  0  0  0  0
   56.8790   27.1300   45.6390 C   0  0  0  0  0  0  0  0  0  0  0  0
   58.1040   26.3880   45.1860 C   0  0  0  0  0  0  0  0  0  0  0  0
   59.0970   26.1140   46.3290 C   0  0  0  0  0  0  0  0  0  0  0  0
   59.9020   27.3530   46.7680 C   0  0  0  0  0  0  0  0  0  0  0  0
   60.3760   28.2090   45.5780 C   0  0  0  0  0  0  0  0  0  0  0  0
   60.7490   29.6470   45.9970 C   0  0  0  0  0  0  0  0  0  0  0  0
   60.0090   30.1380   47.2530 C   0  0  0  0  0  0  0  0  0  0  0  0
   59.9920   31.6400   47.3660 C   0  0  0  0  0  0  0  0  0  0  0  0
   58.9230   32.2940   48.0030 C   0  0  0  0  0  0  0  0  0  0  0  0
   58.9300   33.6850   48.1420 C   0  0  0  0  0  0  0  0  0  0  0  0
   59.9990   34.4330   47.6410 C   0  0  0  0  0  0  0  0  0  0  0  0
   61.0620   33.7920   46.9990 C   0  0  0  0  0  0  0  0  0  0  0  0
   61.0600   32.4010   46.8600 C   0  0  0  0  0  0  0  0  0  0  0  0
   56.6420   28.5280   45.2480 C   0  0  0  0  0  0  0  0  0  0  0  0
   57.5610   29.5100   45.3400 N   0  0  0  0  0  0  0  0  0  0  0  0
   56.8640   30.5650   44.8710 C   0  0  0  0  0  0  0  0  0  0  0  0
   57.4210   31.9160   44.7640 C   0  0  0  0  0  0  0  0  0  0  0  0
   58.4520   32.3050   43.9310 C   0  0  0  0  0  0  0  0  0  0  0  0
   58.6320   33.6510   44.1700 C   0  0  0  0  0  0  0  0  0  0  0  0
   57.7030   33.9980   45.1310 C   0  0  0  0  0  0  0  0  0  0  0  0
   56.9960   32.9420   45.4640 O   0  0  0  0  0  0  0  0  0  0  0  0
   55.6050   30.2410   44.5160 N   0  0  0  0  0  0  0  0  0  0  0  0
   55.5080   28.9710   44.7640 O   0  0  0  0  0  0  0  0  0  0  0  0
   57.7915   25.4255   44.7547 H   0  0  0  0  0  0  0  0  0  0  0  0
   58.6181   27.0208   44.4476 H   0  0  0  0  0  0  0  0  0  0  0  0
   58.5322   25.7427   47.1968 H   0  0  0  0  0  0  0  0  0  0  0  0
   59.8231   25.3790   45.9515 H   0  0  0  0  0  0  0  0  0  0  0  0
   59.2661   27.9737   47.4163 H   0  0  0  0  0  0  0  0  0  0  0  0
   60.7979   26.9957   47.2968 H   0  0  0  0  0  0  0  0  0  0  0  0
   61.2598   27.7316   45.1296 H   0  0  0  0  0  0  0  0  0  0  0  0
   59.5446   28.2744   44.8607 H   0  0  0  0  0  0  0  0  0  0  0  0
   61.8304   29.6811   46.1957 H   0  0  0  0  0  0  0  0  0  0  0  0
   60.4524   30.3093   45.1703 H   0  0  0  0  0  0  0  0  0  0  0  0
   58.9710   29.7760   47.2143 H   0  0  0  0  0  0  0  0  0  0  0  0
   60.5439   29.7442   48.1298 H   0  0  0  0  0  0  0  0  0  0  0  0
   58.0775   31.7088   48.3937 H   0  0  0  0  0  0  0  0  0  0  0  0
   58.0935   34.1912   48.6461 H   0  0  0  0  0  0  0  0  0  0  0  0
   60.0037   35.5274   47.7521 H   0  0  0  0  0  0  0  0  0  0  0  0
   61.9011   34.3826   46.6027 H   0  0  0  0  0  0  0  0  0  0  0  0
   61.8976   31.9000   46.3526 H   0  0  0  0  0  0  0  0  0  0  0  0
   59.0118   31.6736   43.2253 H   0  0  0  0  0  0  0  0  0  0  0  0
   59.3674   34.3146   43.6916 H   0  0  0  0  0  0  0  0  0  0  0  0
   57.5745   35.0055   45.5535 H   0  0  0  0  0  0  0  0  0  0  0  0
  1  2  2  0
  2  3  1  0
  3  4  1  0
  4  5  1  0
  5  6  1  0
  6  7  1  0
  7  8  1  0
  8  9  1  0
  9 10  2  0
 10 11  1  0
 11 12  2  0
 12 13  1  0
 13 14  2  0
  2 15  1  0
 15 16  2  0
 16 17  1  0
 17 18  1  0
 18 19  2  0
 19 20  1  0
 20 21  2  0
 21 22  1  0
 17 23  2  0
 23 24  1  0
 14  9  1  0
 24 15  1  0
 22 18  1  0
  3 25  1  0
  3 26  1  0
  4 27  1  0
  4 28  1  0
  5 29  1  0
  5 30  1  0
  6 31  1  0
  6 32  1  0
  7 33  1  0
  7 34  1  0
  8 35  1  0
  8 36  1  0
 10 37  1  0
 11 38  1  0
 12 39  1  0
 13 40  1  0
 14 41  1  0
 19 42  1  0
 20 43  1  0
 21 44  1  0
M  END
>  <UniqueID>  (3) 
3

>  <SMILES>  (3) 
O=C(CCCCCCc1ccccc1)c1nc(-c2ccco2)no1

>  <Energy>  (3) 
94.69122862650418

>  <Genealogy>  (3) 
O=C(CCCCCCc1ccccc1)c1nc(-c2ccco2)no1 (3D coordinates assigned)
O=C(CCCCCCc1ccccc1)c1nc(-c2ccco2)no1 (optimized conformer: 94.69122862650418 kcal/mol)

>  <smiles>  (3) 
O=C(CCCCCCc1ccccc1)c1nc(-c2ccco2)no1

>  <score_type>  (3) 
oracle

>  <origin>  (3) 
adg

>  <m_score__min__energy>  (3) 
-8.75

>  <m_primary>  (3) 
energy

$$$$
3:0
     RDKit          3D

 39 39  0  0  0  0  0  0  0  0999 V2000
   57.0455   28.7722   42.7003 H   0  0  0  0  0  0  0  0  0  0  0  0
   57.2320   28.9480   43.7700 C   0  0  0  0  0  0  0  0  0  0  0  0
   56.2820   29.8270   44.4830 C   0  0  0  0  0  0  0  0  0  0  0  0
   55.1710   29.3490   44.8390 O   0  0  0  0  0  0  0  0  0  0  0  0
   56.5860   31.1690   44.7400 O   0  0  0  0  0  0  0  0  0  0  0  0
   57.4400   31.9640   43.9200 C   0  0  0  0  0  0  0  0  0  0  0  0
   56.8994   32.2486   43.0053 H   0  0  0  0  0  0  0  0  0  0  0  0
   58.3349   31.3761   43.6678 H   0  0  0  0  0  0  0  0  0  0  0  0
   57.8760   33.2290   44.6590 C   0  0  0  0  0  0  0  0  0  0  0  0
   56.9858   33.8188   44.9231 H   0  0  0  0  0  0  0  0  0  0  0  0
   58.5378   33.8137   44.0031 H   0  0  0  0  0  0  0  0  0  0  0  0
   58.6160   32.8790   45.8990 N   0  0  0  0  0  0  0  0  0  0  0  0
   57.7750   33.0950   47.1000 C   0  0  0  0  0  0  0  0  0  0  0  0
   56.8546   32.5000   47.0062 H   0  0  0  0  0  0  0  0  0  0  0  0
   57.5362   34.1663   47.1720 H   0  0  0  0  0  0  0  0  0  0  0  0
   58.5140   32.6750   48.3700 C   0  0  0  0  0  0  0  0  0  0  0  0
   57.9420   33.0001   49.2516 H   0  0  0  0  0  0  0  0  0  0  0  0
   58.6222   31.5805   48.3863 H   0  0  0  0  0  0  0  0  0  0  0  0
   59.5097   33.1421   48.3863 H   0  0  0  0  0  0  0  0  0  0  0  0
   59.8910   33.6250   45.9950 C   0  0  0  0  0  0  0  0  0  0  0  0
   60.3989   33.3561   46.9329 H   0  0  0  0  0  0  0  0  0  0  0  0
   60.5244   33.3629   45.1347 H   0  0  0  0  0  0  0  0  0  0  0  0
   59.6280   35.1290   45.9780 C   0  0  0  0  0  0  0  0  0  0  0  0
   59.5629   35.5015   47.0109 H   0  0  0  0  0  0  0  0  0  0  0  0
   60.4506   35.6392   45.4554 H   0  0  0  0  0  0  0  0  0  0  0  0
   58.6811   35.3298   45.4554 H   0  0  0  0  0  0  0  0  0  0  0  0
   58.3020   28.3450   44.3110 C   0  0  0  0  0  0  0  0  0  0  0  0
   58.7026   27.4602   43.7946 H   0  0  0  0  0  0  0  0  0  0  0  0
   58.9800   28.7790   45.5440 C   0  0  0  0  0  0  0  0  0  0  0  0
   60.0540   29.6820   45.4930 C   0  0  0  0  0  0  0  0  0  0  0  0
   60.4038   30.0633   44.5223 H   0  0  0  0  0  0  0  0  0  0  0  0
   60.6800   30.0980   46.6710 C   0  0  0  0  0  0  0  0  0  0  0  0
   61.5305   30.7942   46.6257 H   0  0  0  0  0  0  0  0  0  0  0  0
   60.2250   29.6290   47.9080 C   0  0  0  0  0  0  0  0  0  0  0  0
   61.0140   30.1470   49.3870 Cl  0  0  0  0  0  0  0  0  0  0  0  0
   59.1370   28.7510   47.9660 C   0  0  0  0  0  0  0  0  0  0  0  0
   58.7754   28.3877   48.9393 H   0  0  0  0  0  0  0  0  0  0  0  0
   58.5090   28.3350   46.7880 C   0  0  0  0  0  0  0  0  0  0  0  0
   57.6435   27.6579   46.8372 H   0  0  0  0  0  0  0  0  0  0  0  0
  1  2  1  0
  2  3  1  0
  3  4  2  0
  3  5  1  0
  5  6  1  0
  6  7  1  0
  6  8  1  0
  6  9  1  0
  9 10  1  0
  9 11  1  0
  9 12  1  0
 12 13  1  0
 13 14  1  0
 13 15  1  0
 13 16  1  0
 16 17  1  0
 16 18  1  0
 16 19  1  0
 12 20  1  0
 20 21  1  0
 20 22  1  0
 20 23  1  0
 23 24  1  0
 23 25  1  0
 23 26  1  0
  2 27  2  0
 27 28  1  0
 27 29  1  0
 29 30  2  0
 30 31  1  0
 30 32  1  0
 32 33  1  0
 32 34  2  0
 34 35  1  0
 34 36  1  0
 36 37  1  0
 36 38  2  0
 38 39  1  0
 38 29  1  0
M  END
>  <UniqueID>  (4) 
4

>  <SMILES>  (4) 
CCN(CC)CCOC(=O)/C=C\c1ccc(Cl)cc1

>  <Energy>  (4) 
39.68983857082701

>  <Genealogy>  (4) 
CCN(CC)CCOC(=O)/C=C\c1ccc(Cl)cc1 (cis-trans isomerization)
CCN(CC)CCOC(=O)/C=C\c1ccc(Cl)cc1 (3D coordinates assigned)
CCN(CC)CCOC(=O)/C=C\c1ccc(Cl)cc1 (optimized conformer: 39.68983857082701 kcal/mol)

>  <smiles>  (4) 
CCN(CC)CCOC(=O)C=Cc1ccc(Cl)cc1

>  <score_type>  (4) 
oracle

>  <origin>  (4) 
adg

>  <m_score__min__energy>  (4) 
-6.2599999999999998

>  <m_primary>  (4) 
energy

$$$$
4:0
     RDKit          3D

 45 48  0  0  0  0  0  0  0  0999 V2000
   60.1301   34.8022   45.0249 H   0  0  0  0  0  0  0  0  0  0  0  0
   59.9880   33.9000   45.6380 C   0  0  0  0  0  0  0  0  0  0  0  0
   58.8980   33.1320   45.6380 C   0  0  0  0  0  0  0  0  0  0  0  0
   57.7060   33.3350   44.7500 C   0  0  0  0  0  0  0  0  0  0  0  0
   56.7898   33.1235   45.3208 H   0  0  0  0  0  0  0  0  0  0  0  0
   57.7014   34.3762   44.3951 H   0  0  0  0  0  0  0  0  0  0  0  0
   57.7710   32.4020   43.5400 C   0  0  0  0  0  0  0  0  0  0  0  0
   57.1883   32.8360   42.7141 H   0  0  0  0  0  0  0  0  0  0  0  0
   58.8207   32.2814   43.2342 H   0  0  0  0  0  0  0  0  0  0  0  0
   57.2200   31.0940   43.8850 N   0  0  0  0  0  0  0  0  0  0  0  0
   56.0180   30.8400   44.4360 C   0  0  0  0  0  0  0  0  0  0  0  0
   55.2649   31.6137   44.6462 H   0  0  0  0  0  0  0  0  0  0  0  0
   55.8420   29.5290   44.7010 N   0  0  0  0  0  0  0  0  0  0  0  0
   56.9930   28.9490   44.3010 C   0  0  0  0  0  0  0  0  0  0  0  0
   57.2153   27.8734   44.3610 H   0  0  0  0  0  0  0  0  0  0  0  0
   57.8470   29.9100   43.8060 C   0  0  0  0  0  0  0  0  0  0  0  0
   58.8610   29.7378   43.4159 H   0  0  0  0  0  0  0  0  0  0  0  0
   59.1180   32.0010   46.5380 C   0  0  0  0  0  0  0  0  0  0  0  0
   58.3050   30.8930   46.7800 C   0  0  0  0  0  0  0  0  0  0  0  0
   57.3055   30.8181   46.3269 H   0  0  0  0  0  0  0  0  0  0  0  0
   58.7930   29.8770   47.6150 C   0  0  0  0  0  0  0  0  0  0  0  0
   58.1622   29.0048   47.8416 H   0  0  0  0  0  0  0  0  0  0  0  0
   60.0870   29.9680   48.1650 C   0  0  0  0  0  0  0  0  0  0  0  0
   60.7050   28.6650   49.1640 Cl  0  0  0  0  0  0  0  0  0  0  0  0
   60.8970   31.0840   47.8940 C   0  0  0  0  0  0  0  0  0  0  0  0
   61.9208   31.1458   48.2916 H   0  0  0  0  0  0  0  0  0  0  0  0
   60.3710   32.1160   47.1060 C   0  0  0  0  0  0  0  0  0  0  0  0
   60.9700   33.3530   46.5850 C   0  0  0  0  0  0  0  0  0  0  0  0
   62.1420   33.9390   46.8730 C   0  0  0  0  0  0  0  0  0  0  0  0
   62.5704   34.6231   46.1256 H   0  0  0  0  0  0  0  0  0  0  0  0
   62.8930   33.7290   48.1200 C   0  0  0  0  0  0  0  0  0  0  0  0
   64.1430   33.0960   48.0790 C   0  0  0  0  0  0  0  0  0  0  0  0
   64.5405   32.7281   47.1216 H   0  0  0  0  0  0  0  0  0  0  0  0
   64.8860   32.9310   49.2520 C   0  0  0  0  0  0  0  0  0  0  0  0
   65.8572   32.4156   49.2183 H   0  0  0  0  0  0  0  0  0  0  0  0
   64.3970   33.4200   50.4690 C   0  0  0  0  0  0  0  0  0  0  0  0
   65.3490   33.2030   51.9740 S   0  0  0  0  0  0  0  0  0  0  0  0
   66.8680   32.7330   51.0900 C   0  0  0  0  0  0  0  0  0  0  0  0
   67.6556   32.4893   51.8183 H   0  0  0  0  0  0  0  0  0  0  0  0
   66.6680   31.8547   50.4586 H   0  0  0  0  0  0  0  0  0  0  0  0
   67.1989   33.5708   50.4586 H   0  0  0  0  0  0  0  0  0  0  0  0
   63.1620   34.0780   50.5100 C   0  0  0  0  0  0  0  0  0  0  0  0
   62.7765   34.4640   51.4652 H   0  0  0  0  0  0  0  0  0  0  0  0
   62.4180   34.2450   49.3380 C   0  0  0  0  0  0  0  0  0  0  0  0
   61.4583   34.7817   49.3693 H   0  0  0  0  0  0  0  0  0  0  0  0
  1  2  1  0
  2  3  2  0
  3  4  1  0
  4  5  1  0
  4  6  1  0
  4  7  1  0
  7  8  1  0
  7  9  1  0
  7 10  1  0
 10 11  1  0
 11 12  1  0
 11 13  2  0
 13 14  1  0
 14 15  1  0
 14 16  2  0
 16 17  1  0
  3 18  1  0
 18 19  2  0
 19 20  1  0
 19 21  1  0
 21 22  1  0
 21 23  2  0
 23 24  1  0
 23 25  1  0
 25 26  1  0
 25 27  2  0
 27 28  1  0
 28 29  2  0
 29 30  1  0
 29 31  1  0
 31 32  2  0
 32 33  1  0
 32 34  1  0
 34 35  1  0
 34 36  2  0
 36 37  1  0
 37 38  1  0
 38 39  1  0
 38 40  1  0
 38 41  1  0
 36 42  1  0
 42 43  1  0
 42 44  2  0
 44 45  1  0
 28  2  1  0
 44 31  1  0
 16 10  1  0
 27 18  1  0
M  END
>  <UniqueID>  (5) 
5

>  <SMILES>  (5) 
CSc1ccc(/C=C2/C=C(CCn3ccnc3)c3ccc(Cl)cc32)cc1

>  <Energy>  (5) 
104.00623744522166

>  <Genealogy>  (5) 
CSc1ccc(/C=C2/C=C(CCn3ccnc3)c3ccc(Cl)cc32)cc1 (cis-trans isomerization)
CSc1ccc(/C=C2/C=C(CCn3ccnc3)c3ccc(Cl)cc32)cc1 (3D coordinates assigned)
CSc1ccc(/C=C2/C=C(CCn3ccnc3)c3ccc(Cl)cc32)cc1 (nonaromatic ring conformer: 104.00623744522166 kcal/mol)

>  <smiles>  (5) 
CSc1ccc(C=C2C=C(CCn3ccnc3)c3ccc(Cl)cc32)cc1

>  <score_type>  (5) 
oracle

>  <origin>  (5) 
adg

>  <m_score__min__energy>  (5) 
-8.9700000000000006

>  <m_primary>  (5) 
energy

$$$$
5:0
     RDKit          3D

 44 45  0  0  0  0  0  0  0  0999 V2000
   62.7610   33.8430   46.4230 C   0  0  0  0  0  0  0  0  0  0  0  0
   63.7680   32.8080   46.9400 C   0  0  0  0  0  0  0  0  0  0  0  0
   63.3790   32.2400   48.2580 N   0  0  0  0  0  0  0  0  0  0  0  0
   64.2350   32.7860   49.3460 C   0  0  0  0  0  0  0  0  0  0  0  0
   63.5320   33.8030   50.2580 C   0  0  0  0  0  0  0  0  0  0  0  0
   61.9190   32.4170   48.4990 C   0  0  0  0  0  0  0  0  0  0  0  0
   61.0390   31.2320   48.0390 C   0  0  0  0  0  0  0  0  0  0  0  0
   59.6740   31.1550   48.7390 C   0  0  0  0  0  0  0  0  0  0  0  0
   58.9280   32.4040   48.5800 N   0  0  0  0  0  0  0  0  0  0  0  0
   59.0590   33.2080   47.3960 C   0  0  0  0  0  0  0  0  0  0  0  0
   59.5850   34.5050   47.5030 C   0  0  0  0  0  0  0  0  0  0  0  0
   59.6780   35.3320   46.3840 C   0  0  0  0  0  0  0  0  0  0  0  0
   59.2440   34.8820   45.1390 C   0  0  0  0  0  0  0  0  0  0  0  0
   58.7210   33.5890   45.0000 C   0  0  0  0  0  0  0  0  0  0  0  0
   58.3000   33.1340   43.7410 C   0  0  0  0  0  0  0  0  0  0  0  0
   57.7940   31.8430   43.5930 C   0  0  0  0  0  0  0  0  0  0  0  0
   57.7110   30.9900   44.6950 C   0  0  0  0  0  0  0  0  0  0  0  0
   57.0360   29.2160   44.4760 Br  0  0  0  0  0  0  0  0  0  0  0  0
   58.1270   31.4280   45.9560 C   0  0  0  0  0  0  0  0  0  0  0  0
   58.6250   32.7350   46.1320 C   0  0  0  0  0  0  0  0  0  0  0  0
   62.2765   34.3410   47.2758 H   0  0  0  0  0  0  0  0  0  0  0  0
   63.2859   34.5915   45.8112 H   0  0  0  0  0  0  0  0  0  0  0  0
   61.9984   33.3388   45.8112 H   0  0  0  0  0  0  0  0  0  0  0  0
   63.8370   31.9883   46.2097 H   0  0  0  0  0  0  0  0  0  0  0  0
   64.7337   33.3186   47.0694 H   0  0  0  0  0  0  0  0  0  0  0  0
   63.5800   31.2150   48.2240 H   0  0  0  0  0  0  0  0  0  0  0  0
   64.5781   31.9460   49.9679 H   0  0  0  0  0  0  0  0  0  0  0  0
   65.0607   33.3226   48.8559 H   0  0  0  0  0  0  0  0  0  0  0  0
   63.7143   33.5393   51.3102 H   0  0  0  0  0  0  0  0  0  0  0  0
   63.9280   34.8096   50.0584 H   0  0  0  0  0  0  0  0  0  0  0  0
   62.4504   33.7882   50.0584 H   0  0  0  0  0  0  0  0  0  0  0  0
   61.7649   32.5590   49.5789 H   0  0  0  0  0  0  0  0  0  0  0  0
   61.6085   33.2852   47.8991 H   0  0  0  0  0  0  0  0  0  0  0  0
   60.8672   31.3291   46.9569 H   0  0  0  0  0  0  0  0  0  0  0  0
   61.5825   30.3126   48.3023 H   0  0  0  0  0  0  0  0  0  0  0  0
   59.0919   30.3308   48.3010 H   0  0  0  0  0  0  0  0  0  0  0  0
   59.8416   30.9829   49.8125 H   0  0  0  0  0  0  0  0  0  0  0  0
   58.1060   32.5660   49.2040 H   0  0  0  0  0  0  0  0  0  0  0  0
   59.9279   34.8734   48.4811 H   0  0  0  0  0  0  0  0  0  0  0  0
   60.0960   36.3445   46.4848 H   0  0  0  0  0  0  0  0  0  0  0  0
   59.3120   35.5433   44.2626 H   0  0  0  0  0  0  0  0  0  0  0  0
   58.3694   33.7985   42.8672 H   0  0  0  0  0  0  0  0  0  0  0  0
   57.4591   31.4956   42.6045 H   0  0  0  0  0  0  0  0  0  0  0  0
   58.0652   30.7471   46.8178 H   0  0  0  0  0  0  0  0  0  0  0  0
  1  2  1  0
  2  3  1  0
  3  4  1  0
  4  5  1  0
  3  6  1  0
  6  7  1  0
  7  8  1  0
  8  9  1  0
  9 10  1  0
 10 11  2  0
 11 12  1  0
 12 13  2  0
 13 14  1  0
 14 15  2  0
 15 16  1  0
 16 17  2  0
 17 18  1  0
 17 19  1  0
 19 20  2  0
 20 10  1  0
 20 14  1  0
  1 21  1  0
  1 22  1  0
  1 23  1  0
  2 24  1  0
  2 25  1  0
  3 26  1  0
  4 27  1  0
  4 28  1  0
  5 29  1  0
  5 30  1  0
  5 31  1  0
  6 32  1  0
  6 33  1  0
  7 34  1  0
  7 35  1  0
  8 36  1  0
  8 37  1  0
  9 38  1  0
 11 39  1  0
 12 40  1  0
 13 41  1  0
 15 42  1  0
 16 43  1  0
 19 44  1  0
M  CHG  1   3   1
M  END
>  <UniqueID>  (6) 
6

>  <SMILES>  (6) 
CC[NH+](CC)CCCNc1cccc2ccc(Br)cc12

>  <Energy>  (6) 
51.89934034096795

>  <Genealogy>  (6) 
CC[NH+](CC)CCCNc1cccc2ccc(Br)cc12 (protonated)
CC[NH+](CC)CCCNc1cccc2ccc(Br)cc12 (3D coordinates assigned)
CC[NH+](CC)CCCNc1cccc2ccc(Br)cc12 (optimized conformer: 51.89934034096795 kcal/mol)

>  <smiles>  (6) 
CCN(CC)CCCNc1cccc2ccc(Br)cc12

>  <score_type>  (6) 
oracle

>  <origin>  (6) 
adg

>  <m_score__min__energy>  (6) 
-5.8700000000000001

>  <m_primary>  (6) 
energy

$$$$
6:0
     RDKit          3D

 63 68  0  0  0  0  0  0  0  0999 V2000
   58.5970   31.4950   50.8850 C   0  0  0  0  0  0  0  0  0  0  0  0
   59.3900   32.6860   50.3260 C   0  0  2  0  0  0  0  0  0  0  0  0
   59.0510   32.9680   48.8880 C   0  0  0  0  0  0  0  0  0  0  0  0
   57.8160   32.9570   48.3350 N   0  0  0  0  0  0  0  0  0  0  0  0
   57.9930   33.3800   47.0680 C   0  0  0  0  0  0  0  0  0  0  0  0
   57.0190   33.5040   46.0750 C   0  0  0  0  0  0  0  0  0  0  0  0
   57.4300   33.9450   44.8020 C   0  0  0  0  0  0  0  0  0  0  0  0
   58.7850   34.2530   44.5510 C   0  0  0  0  0  0  0  0  0  0  0  0
   59.7480   34.1180   45.5710 C   0  0  0  0  0  0  0  0  0  0  0  0
   59.3120   33.6780   46.8200 C   0  0  0  0  0  0  0  0  0  0  0  0
   59.9960   33.4420   47.9900 C   0  0  0  0  0  0  0  0  0  0  0  0
   61.4630   33.5800   48.2910 C   0  0  0  0  0  0  0  0  0  0  0  0
   61.6810   33.5810   49.8190 C   0  0  0  0  0  0  0  0  0  0  0  0
   60.8600   32.5250   50.4390 N   0  0  0  0  0  0  0  0  0  0  0  0
   61.4940   31.2560   50.6990 C   0  0  0  0  0  0  0  0  0  0  0  0
   62.2470   31.1240   51.7030 O   0  0  0  0  0  0  0  0  0  0  0  0
   61.1670   30.0830   49.8650 C   0  0  0  0  0  0  0  0  0  0  0  0
   61.0780   28.8020   50.4360 C   0  0  0  0  0  0  0  0  0  0  0  0
   60.6890   27.7080   49.6580 C   0  0  0  0  0  0  0  0  0  0  0  0
   60.3980   27.8790   48.2950 C   0  0  0  0  0  0  0  0  0  0  0  0
   59.9240   26.7930   47.4930 N   0  0  0  0  0  0  0  0  0  0  0  0
   58.5560   26.5940   47.1050 C   0  0  0  0  0  0  0  0  0  0  0  0
   57.6430   26.9980   47.8710 O   0  0  0  0  0  0  0  0  0  0  0  0
   58.1860   25.8750   45.8570 C   0  0  0  0  0  0  0  0  0  0  0  0
   58.1680   24.4680   45.8830 C   0  0  0  0  0  0  0  0  0  0  0  0
   57.7750   23.7390   44.7570 C   0  0  0  0  0  0  0  0  0  0  0  0
   57.3990   24.4000   43.5900 C   0  0  0  0  0  0  0  0  0  0  0  0
   57.4350   25.7950   43.5350 C   0  0  0  0  0  0  0  0  0  0  0  0
   57.8380   26.5530   44.6530 C   0  0  0  0  0  0  0  0  0  0  0  0
   57.9230   28.0320   44.5020 C   0  0  0  0  0  0  0  0  0  0  0  0
   56.7710   28.8030   44.2550 C   0  0  0  0  0  0  0  0  0  0  0  0
   56.8620   30.1950   44.1330 C   0  0  0  0  0  0  0  0  0  0  0  0
   58.0970   30.8290   44.2760 C   0  0  0  0  0  0  0  0  0  0  0  0
   59.2450   30.0750   44.5390 C   0  0  0  0  0  0  0  0  0  0  0  0
   59.1610   28.6840   44.6540 C   0  0  0  0  0  0  0  0  0  0  0  0
   60.5570   29.1410   47.7100 C   0  0  0  0  0  0  0  0  0  0  0  0
   60.9110   30.2430   48.4930 C   0  0  0  0  0  0  0  0  0  0  0  0
   58.6169   31.5249   51.9844 H   0  0  0  0  0  0  0  0  0  0  0  0
   57.5555   31.5514   50.5354 H   0  0  0  0  0  0  0  0  0  0  0  0
   59.0507   30.5559   50.5354 H   0  0  0  0  0  0  0  0  0  0  0  0
   59.0856   33.5353   50.9553 H   0  0  0  0  0  0  0  0  0  0  0  0
   56.9140   32.6850   48.7890 H   0  0  0  0  0  0  0  0  0  0  0  0
   55.9651   33.2650   46.2803 H   0  0  0  0  0  0  0  0  0  0  0  0
   56.6888   34.0504   43.9961 H   0  0  0  0  0  0  0  0  0  0  0  0
   59.0908   34.6005   43.5531 H   0  0  0  0  0  0  0  0  0  0  0  0
   60.8072   34.3517   45.3880 H   0  0  0  0  0  0  0  0  0  0  0  0
   62.0092   32.7363   47.8440 H   0  0  0  0  0  0  0  0  0  0  0  0
   61.8349   34.5252   47.8687 H   0  0  0  0  0  0  0  0  0  0  0  0
   62.7428   33.3938   50.0369 H   0  0  0  0  0  0  0  0  0  0  0  0
   61.3865   34.5587   50.2282 H   0  0  0  0  0  0  0  0  0  0  0  0
   61.3157   28.6596   51.5005 H   0  0  0  0  0  0  0  0  0  0  0  0
   60.6106   26.7103   50.1147 H   0  0  0  0  0  0  0  0  0  0  0  0
   58.4662   23.9366   46.7988 H   0  0  0  0  0  0  0  0  0  0  0  0
   57.7626   22.6396   44.7926 H   0  0  0  0  0  0  0  0  0  0  0  0
   57.0737   23.8232   42.7117 H   0  0  0  0  0  0  0  0  0  0  0  0
   57.1450   26.3091   42.6068 H   0  0  0  0  0  0  0  0  0  0  0  0
   55.7932   28.3087   44.1572 H   0  0  0  0  0  0  0  0  0  0  0  0
   55.9599   30.7889   43.9244 H   0  0  0  0  0  0  0  0  0  0  0  0
   58.1675   31.9227   44.1818 H   0  0  0  0  0  0  0  0  0  0  0  0
   60.2166   30.5775   44.6557 H   0  0  0  0  0  0  0  0  0  0  0  0
   60.0669   28.0965   44.8643 H   0  0  0  0  0  0  0  0  0  0  0  0
   60.4024   29.2658   46.6281 H   0  0  0  0  0  0  0  0  0  0  0  0
   60.9895   31.2393   48.0334 H   0  0  0  0  0  0  0  0  0  0  0  0
  1  2  1  0
  2  3  1  0
  3  4  1  0
  4  5  1  0
  5  6  2  0
  6  7  1  0
  7  8  2  0
  8  9  1  0
  9 10  2  0
 10 11  1  0
 11 12  1  0
 12 13  1  0
 13 14  1  0
 14 15  1  0
 15 16  2  0
 15 17  1  0
 17 18  2  0
 18 19  1  0
 19 20  2  0
 20 21  1  0
 21 22  1  0
 22 23  2  0
 22 24  1  0
 24 25  2  0
 25 26  1  0
 26 27  2  0
 27 28  1  0
 28 29  2  0
 29 30  1  0
 30 31  2  0
 31 32  1  0
 32 33  2  0
 33 34  1  0
 34 35  2  0
 20 36  1  0
 36 37  2  0
 14  2  1  0
 37 17  1  0
 11  3  2  0
 29 24  1  0
 35 30  1  0
 10  5  1  0
  1 38  1  0
  1 39  1  0
  1 40  1  0
  2 41  1  1
  4 42  1  0
  6 43  1  0
  7 44  1  0
  8 45  1  0
  9 46  1  0
 12 47  1  0
 12 48  1  0
 13 49  1  0
 13 50  1  0
 18 51  1  0
 19 52  1  0
 25 53  1  0
 26 54  1  0
 27 55  1  0
 28 56  1  0
 31 57  1  0
 32 58  1  0
 33 59  1  0
 34 60  1  0
 35 61  1  0
 36 62  1  0
 37 63  1  0
M  CHG  1  21  -1
M  END
>  <UniqueID>  (7) 
7

>  <SMILES>  (7) 
C[C@@H]1c2[nH]c3ccccc3c2CCN1C(=O)c1ccc([N-]C(=O)c2ccccc2-c2ccccc2)cc1

>  <Energy>  (7) 
128.4551151993522

>  <Genealogy>  (7) 
CC1c2[nH]c3ccccc3c2CCN1C(=O)c1ccc([N-]C(=O)c2ccccc2-c2ccccc2)cc1 (protonated)
C[C@@H]1c2[nH]c3ccccc3c2CCN1C(=O)c1ccc([N-]C(=O)c2ccccc2-c2ccccc2)cc1 (chirality)
C[C@@H]1c2[nH]c3ccccc3c2CCN1C(=O)c1ccc([N-]C(=O)c2ccccc2-c2ccccc2)cc1 (3D coordinates assigned)
C[C@@H]1c2[nH]c3ccccc3c2CCN1C(=O)c1ccc([N-]C(=O)c2ccccc2-c2ccccc2)cc1 (nonaromatic ring conformer: 128.4551151993522 kcal/mol)

>  <smiles>  (7) 
CC1c2[nH]c3ccccc3c2CCN1C(=O)c1ccc(NC(=O)c2ccccc2-c2ccccc2)cc1

>  <score_type>  (7) 
oracle

>  <origin>  (7) 
adg

>  <m_score__min__energy>  (7) 
-11.52

>  <m_primary>  (7) 
energy

$$$$
7:0
     RDKit          3D

 63 67  0  0  0  0  0  0  0  0999 V2000
   59.6220   34.9403   45.6433 H   0  0  0  0  0  0  0  0  0  0  0  0
   59.7630   33.9150   46.0160 C   0  0  0  0  0  0  0  0  0  0  0  0
   58.9600   32.9510   45.5140 C   0  0  0  0  0  0  0  0  0  0  0  0
   59.1400   31.5370   45.9460 C   0  0  0  0  0  0  0  0  0  0  0  0
   60.0540   31.2430   46.7670 O   0  0  0  0  0  0  0  0  0  0  0  0
   58.2500   30.4660   45.4160 C   0  0  0  0  0  0  0  0  0  0  0  0
   58.2930   29.2320   45.9610 C   0  0  0  0  0  0  0  0  0  0  0  0
   58.5898   29.1446   47.0166 H   0  0  0  0  0  0  0  0  0  0  0  0
   57.9670   27.9940   45.2300 C   0  0  0  0  0  0  0  0  0  0  0  0
   58.3990   27.8100   43.9060 C   0  0  0  0  0  0  0  0  0  0  0  0
   58.9635   28.6063   43.3988 H   0  0  0  0  0  0  0  0  0  0  0  0
   58.1150   26.6200   43.2300 C   0  0  0  0  0  0  0  0  0  0  0  0
   58.4440   26.4878   42.1887 H   0  0  0  0  0  0  0  0  0  0  0  0
   57.4130   25.5970   43.8760 C   0  0  0  0  0  0  0  0  0  0  0  0
   57.1360   24.4390   43.2200 N   0  0  0  0  0  0  0  0  0  0  0  0
   56.4590   23.4170   43.8170 C   0  0  0  0  0  0  0  0  0  0  0  0
   56.1850   22.2360   43.1220 O   0  0  0  0  0  0  0  0  0  0  0  0
   57.1320   21.1810   42.9960 C   0  0  0  0  0  0  0  0  0  0  0  0
   57.4373   20.8409   43.9966 H   0  0  0  0  0  0  0  0  0  0  0  0
   56.6769   20.3434   42.4470 H   0  0  0  0  0  0  0  0  0  0  0  0
   58.0137   21.5433   42.4470 H   0  0  0  0  0  0  0  0  0  0  0  0
   56.0300   23.5480   45.1430 C   0  0  0  0  0  0  0  0  0  0  0  0
   55.4821   22.7284   45.6309 H   0  0  0  0  0  0  0  0  0  0  0  0
   56.3020   24.7260   45.8430 C   0  0  0  0  0  0  0  0  0  0  0  0
   55.9699   24.8363   46.8859 H   0  0  0  0  0  0  0  0  0  0  0  0
   56.9980   25.7660   45.2150 C   0  0  0  0  0  0  0  0  0  0  0  0
   57.2840   26.9620   45.8890 C   0  0  0  0  0  0  0  0  0  0  0  0
   56.9721   27.0907   46.9360 H   0  0  0  0  0  0  0  0  0  0  0  0
   57.2000   30.8340   44.3850 C   0  0  0  0  0  0  0  0  0  0  0  0
   57.0844   29.9965   43.6813 H   0  0  0  0  0  0  0  0  0  0  0  0
   56.2593   31.0398   44.9167 H   0  0  0  0  0  0  0  0  0  0  0  0
   57.5830   32.0890   43.6000 C   0  0  0  0  0  0  0  0  0  0  0  0
   58.4922   31.8834   43.0159 H   0  0  0  0  0  0  0  0  0  0  0  0
   56.7470   32.3533   42.9357 H   0  0  0  0  0  0  0  0  0  0  0  0
   57.8480   33.2670   44.5370 C   0  0  0  0  0  0  0  0  0  0  0  0
   58.1351   34.1440   43.9383 H   0  0  0  0  0  0  0  0  0  0  0  0
   56.9303   33.4704   45.1083 H   0  0  0  0  0  0  0  0  0  0  0  0
   60.8170   33.6940   47.0290 C   0  0  0  0  0  0  0  0  0  0  0  0
   62.1570   33.5030   46.6580 C   0  0  0  0  0  0  0  0  0  0  0  0
   62.4335   33.4886   45.5934 H   0  0  0  0  0  0  0  0  0  0  0  0
   63.1420   33.3310   47.6350 C   0  0  0  0  0  0  0  0  0  0  0  0
   64.1869   33.1648   47.3341 H   0  0  0  0  0  0  0  0  0  0  0  0
   62.8060   33.3690   48.9990 C   0  0  0  0  0  0  0  0  0  0  0  0
   63.8200   33.1790   50.0060 N   0  0  0  0  0  0  0  0  0  0  0  0
   65.0990   32.5490   49.6440 C   0  0  0  0  0  0  0  0  0  0  0  0
   64.9393   31.4693   49.5072 H   0  0  0  0  0  0  0  0  0  0  0  0
   65.4607   33.0129   48.7145 H   0  0  0  0  0  0  0  0  0  0  0  0
   66.1610   32.7620   50.7330 C   0  0  0  0  0  0  0  0  0  0  0  0
   65.9661   32.0739   51.5688 H   0  0  0  0  0  0  0  0  0  0  0  0
   67.1551   32.5652   50.3051 H   0  0  0  0  0  0  0  0  0  0  0  0
   66.1180   34.2060   51.2470 C   0  0  0  0  0  0  0  0  0  0  0  0
   66.8642   34.3166   52.0476 H   0  0  0  0  0  0  0  0  0  0  0  0
   66.3331   34.8677   50.3950 H   0  0  0  0  0  0  0  0  0  0  0  0
   64.7330   34.6010   51.8050 C   0  0  0  0  0  0  0  0  0  0  0  0
   64.7897   34.6104   52.9035 H   0  0  0  0  0  0  0  0  0  0  0  0
   64.4875   35.5905   51.3921 H   0  0  0  0  0  0  0  0  0  0  0  0
   63.6080   33.6430   51.3840 C   0  0  0  0  0  0  0  0  0  0  0  0
   63.5978   32.7760   52.0610 H   0  0  0  0  0  0  0  0  0  0  0  0
   62.6469   34.1754   51.4376 H   0  0  0  0  0  0  0  0  0  0  0  0
   61.4680   33.5800   49.3660 C   0  0  0  0  0  0  0  0  0  0  0  0
   61.1918   33.6086   50.4304 H   0  0  0  0  0  0  0  0  0  0  0  0
   60.4840   33.7540   48.3890 C   0  0  0  0  0  0  0  0  0  0  0  0
   59.4421   33.9391   48.6892 H   0  0  0  0  0  0  0  0  0  0  0  0
  1  2  1  0
  2  3  2  3
  3  4  1  0
  4  5  2  0
  4  6  1  0
  6  7  2  0
  7  8  1  0
  7  9  1  0
  9 10  2  0
 10 11  1  0
 10 12  1  0
 12 13  1  0
 12 14  2  0
 14 15  1  0
 15 16  2  0
 16 17  1  0
 17 18  1  0
 18 19  1  0
 18 20  1  0
 18 21  1  0
 16 22  1  0
 22 23  1  0
 22 24  2  0
 24 25  1  0
 24 26  1  0
 26 27  2  0
 27 28  1  0
  6 29  1  0
 29 30  1  0
 29 31  1  0
 29 32  1  0
 32 33  1  0
 32 34  1  0
 32 35  1  0
 35 36  1  0
 35 37  1  0
  2 38  1  0
 38 39  2  0
 39 40  1  0
 39 41  1  0
 41 42  1  0
 41 43  2  0
 43 44  1  0
 44 45  1  0
 45 46  1  0
 45 47  1  0
 45 48  1  0
 48 49  1  0
 48 50  1  0
 48 51  1  0
 51 52  1  0
 51 53  1  0
 51 54  1  0
 54 55  1  0
 54 56  1  0
 54 57  1  0
 57 58  1  0
 57 59  1  0
 43 60  1  0
 60 61  1  0
 60 62  2  0
 62 63  1  0
 35  3  1  0
 62 38  1  0
 27  9  1  0
 57 44  1  0
 26 14  1  0
M  END
>  <UniqueID>  (8) 
8

>  <SMILES>  (8) 
COc1ccc2cc(/C=C3\CCCC(=Cc4ccc(N5CCCCC5)cc4)C3=O)ccc2n1

>  <Energy>  (8) 
88.06633689484879

>  <Genealogy>  (8) 
COc1ccc2cc(/C=C3\CCCC(=Cc4ccc(N5CCCCC5)cc4)C3=O)ccc2n1 (cis-trans isomerization)
COc1ccc2cc(/C=C3\CCCC(=Cc4ccc(N5CCCCC5)cc4)C3=O)ccc2n1 (3D coordinates assigned)
COc1ccc2cc(/C=C3\CCCC(=Cc4ccc(N5CCCCC5)cc4)C3=O)ccc2n1 (nonaromatic ring conformer: 88.06633689484879 kcal/mol)

>  <smiles>  (8) 
COc1ccc2cc(C=C3CCCC(=Cc4ccc(N5CCCCC5)cc4)C3=O)ccc2n1

>  <score_type>  (8) 
oracle

>  <origin>  (8) 
adg

>  <m_score__min__energy>  (8) 
-10.84

>  <m_primary>  (8) 
energy

$$$$
8:0
     RDKit          3D

 26 28  0  0  0  0  0  0  0  0999 V2000
   57.6490   24.6120   44.6760 C   0  0  0  0  0  0  0  0  0  0  0  0
   57.8420   26.0860   44.8810 C   0  0  0  0  0  0  0  0  0  0  0  0
   57.6620   26.6520   46.1510 C   0  0  0  0  0  0  0  0  0  0  0  0
   57.8050   28.0300   46.3350 C   0  0  0  0  0  0  0  0  0  0  0  0
   58.1150   28.8660   45.2470 C   0  0  0  0  0  0  0  0  0  0  0  0
   58.2720   30.2870   45.4290 N   0  0  0  0  0  0  0  0  0  0  0  0
   59.3490   30.8560   45.9750 N   0  0  0  0  0  0  0  0  0  0  0  0
   59.1390   32.1820   45.9690 C   0  0  0  0  0  0  0  0  0  0  0  0
   59.9060   33.2460   46.4000 C   0  0  0  0  0  0  0  0  0  0  0  0
   58.9470   34.6020   46.0270 S   0  0  0  0  0  0  0  0  0  0  0  0
   57.6020   33.8170   45.3380 C   0  0  0  0  0  0  0  0  0  0  0  0
   57.9340   32.4800   45.4170 C   0  0  0  0  0  0  0  0  0  0  0  0
   57.3930   31.2660   45.0740 C   0  0  0  0  0  0  0  0  0  0  0  0
   56.2890   31.0810   44.4950 O   0  0  0  0  0  0  0  0  0  0  0  0
   58.2850   28.2950   43.9760 C   0  0  0  0  0  0  0  0  0  0  0  0
   58.1400   26.9170   43.7920 C   0  0  0  0  0  0  0  0  0  0  0  0
   57.5834   24.1114   45.6533 H   0  0  0  0  0  0  0  0  0  0  0  0
   56.7205   24.4387   44.1122 H   0  0  0  0  0  0  0  0  0  0  0  0
   58.5016   24.2055   44.1122 H   0  0  0  0  0  0  0  0  0  0  0  0
   57.4072   26.0088   47.0062 H   0  0  0  0  0  0  0  0  0  0  0  0
   57.6743   28.4638   47.3374 H   0  0  0  0  0  0  0  0  0  0  0  0
   60.1850   30.3550   46.3510 H   0  0  0  0  0  0  0  0  0  0  0  0
   60.8994   33.2230   46.8717 H   0  0  0  0  0  0  0  0  0  0  0  0
   56.6866   34.2683   44.9277 H   0  0  0  0  0  0  0  0  0  0  0  0
   58.5342   28.9369   43.1182 H   0  0  0  0  0  0  0  0  0  0  0  0
   58.2602   26.4828   42.7885 H   0  0  0  0  0  0  0  0  0  0  0  0
  1  2  1  0
  2  3  2  0
  3  4  1  0
  4  5  2  0
  5  6  1  0
  6  7  1  0
  7  8  1  0
  8  9  2  0
  9 10  1  0
 10 11  1  0
 11 12  2  0
 12 13  1  0
 13 14  2  0
  5 15  1  0
 15 16  2  0
 16  2  1  0
 13  6  1  0
 12  8  1  0
  1 17  1  0
  1 18  1  0
  1 19  1  0
  3 20  1  0
  4 21  1  0
  7 22  1  0
  9 23  1  0
 11 24  1  0
 15 25  1  0
 16 26  1  0
M  END
>  <UniqueID>  (9) 
9

>  <SMILES>  (9) 
Cc1ccc(-n2[nH]c3cscc3c2=O)cc1

>  <Energy>  (9) 
110.82437571949606

>  <Genealogy>  (9) 
Cc1ccc(-n2[nH]c3cscc3c2=O)cc1 (3D coordinates assigned)
Cc1ccc(-n2[nH]c3cscc3c2=O)cc1 (optimized conformer: 110.82437571949606 kcal/mol)

>  <smiles>  (9) 
Cc1ccc(-n2[nH]c3cscc3c2=O)cc1

>  <score_type>  (9) 
oracle

>  <origin>  (9) 
adg

>  <m_score__min__energy>  (9) 
-5.9500000000000002

>  <m_primary>  (9) 
energy

$$$$
9:0
     RDKit          3D

 46 48  0  0  0  0  0  0  0  0999 V2000
   58.1860   24.9260   45.5730 C   0  0  0  0  0  0  0  0  0  0  0  0
   59.0680   26.0230   45.7840 O   0  0  0  0  0  0  0  0  0  0  0  0
   58.6760   27.3710   45.7690 C   0  0  0  0  0  0  0  0  0  0  0  0
   59.5980   28.3310   46.1940 C   0  0  0  0  0  0  0  0  0  0  0  0
   59.2660   29.6990   46.1940 C   0  0  0  0  0  0  0  0  0  0  0  0
   60.1680   30.6810   46.6340 O   0  0  0  0  0  0  0  0  0  0  0  0
   61.1610   30.4770   47.6350 C   0  0  0  0  0  0  0  0  0  0  0  0
   57.9950   30.0980   45.7440 C   0  0  0  0  0  0  0  0  0  0  0  0
   57.6240   31.4800   45.7430 N   0  0  0  0  0  0  0  0  0  0  0  0
   58.2610   32.5180   44.9870 C   0  0  0  0  0  0  0  0  0  0  0  0
   58.3550   32.3790   43.7400 O   0  0  0  0  0  0  0  0  0  0  0  0
   58.9000   33.7330   45.6220 C   0  0  0  0  0  0  0  0  0  0  0  0
   59.3890   33.4940   46.9960 N   0  0  0  0  0  0  0  0  0  0  0  0
   58.4390   33.1350   48.0320 C   0  0  0  0  0  0  0  0  0  0  0  0
   57.2050   33.0810   47.7840 O   0  0  0  0  0  0  0  0  0  0  0  0
   58.9070   32.8200   49.4180 C   0  0  0  0  0  0  0  0  0  0  0  0
   59.9680   34.1770   49.9650 S   0  0  0  0  0  0  0  0  0  0  0  0
   61.1850   33.8530   48.6860 C   0  0  0  0  0  0  0  0  0  0  0  0
   62.5380   33.8310   49.0440 C   0  0  0  0  0  0  0  0  0  0  0  0
   63.5220   33.6870   48.0670 C   0  0  0  0  0  0  0  0  0  0  0  0
   63.1580   33.5730   46.7260 C   0  0  0  0  0  0  0  0  0  0  0  0
   61.8100   33.5660   46.3600 C   0  0  0  0  0  0  0  0  0  0  0  0
   60.7950   33.6660   47.3380 C   0  0  0  0  0  0  0  0  0  0  0  0
   57.0570   29.1440   45.3270 C   0  0  0  0  0  0  0  0  0  0  0  0
   55.8040   29.5920   44.8780 O   0  0  0  0  0  0  0  0  0  0  0  0
   55.5360   30.0570   43.5610 C   0  0  0  0  0  0  0  0  0  0  0  0
   57.4000   27.7800   45.3440 C   0  0  0  0  0  0  0  0  0  0  0  0
   57.8625   24.5236   46.5443 H   0  0  0  0  0  0  0  0  0  0  0  0
   57.3070   25.2661   45.0058 H   0  0  0  0  0  0  0  0  0  0  0  0
   58.7069   24.1405   45.0058 H   0  0  0  0  0  0  0  0  0  0  0  0
   60.5954   28.0140   46.5327 H   0  0  0  0  0  0  0  0  0  0  0  0
   60.7028   30.5711   48.6306 H   0  0  0  0  0  0  0  0  0  0  0  0
   61.5927   29.4714   47.5236 H   0  0  0  0  0  0  0  0  0  0  0  0
   61.9542   31.2309   47.5236 H   0  0  0  0  0  0  0  0  0  0  0  0
   59.7516   34.0438   44.9989 H   0  0  0  0  0  0  0  0  0  0  0  0
   58.1235   34.5094   45.6864 H   0  0  0  0  0  0  0  0  0  0  0  0
   58.0430   32.7255   50.0922 H   0  0  0  0  0  0  0  0  0  0  0  0
   59.4616   31.8701   49.4295 H   0  0  0  0  0  0  0  0  0  0  0  0
   62.8262   33.9278   50.1012 H   0  0  0  0  0  0  0  0  0  0  0  0
   64.5837   33.6634   48.3536 H   0  0  0  0  0  0  0  0  0  0  0  0
   63.9358   33.4882   45.9528 H   0  0  0  0  0  0  0  0  0  0  0  0
   61.5354   33.4817   45.2982 H   0  0  0  0  0  0  0  0  0  0  0  0
   54.9873   31.0090   43.6128 H   0  0  0  0  0  0  0  0  0  0  0  0
   56.4848   30.2093   43.0258 H   0  0  0  0  0  0  0  0  0  0  0  0
   54.9285   29.3124   43.0258 H   0  0  0  0  0  0  0  0  0  0  0  0
   56.6645   27.0279   45.0224 H   0  0  0  0  0  0  0  0  0  0  0  0
  1  2  1  0
  2  3  1  0
  3  4  2  0
  4  5  1  0
  5  6  1  0
  6  7  1  0
  5  8  2  0
  8  9  1  0
  9 10  1  0
 10 11  2  0
 10 12  1  0
 12 13  1  0
 13 14  1  0
 14 15  2  0
 14 16  1  0
 16 17  1  0
 17 18  1  0
 18 19  2  0
 19 20  1  0
 20 21  2  0
 21 22  1  0
 22 23  2  0
  8 24  1  0
 24 25  1  0
 25 26  1  0
 24 27  2  0
 27  3  1  0
 23 13  1  0
 23 18  1  0
  1 28  1  0
  1 29  1  0
  1 30  1  0
  4 31  1  0
  7 32  1  0
  7 33  1  0
  7 34  1  0
 12 35  1  0
 12 36  1  0
 16 37  1  0
 16 38  1  0
 19 39  1  0
 20 40  1  0
 21 41  1  0
 22 42  1  0
 26 43  1  0
 26 44  1  0
 26 45  1  0
 27 46  1  0
M  CHG  1   9  -1
M  END
>  <UniqueID>  (10) 
10

>  <SMILES>  (10) 
COc1cc(OC)c([N-]C(=O)CN2C(=O)CSc3ccccc32)c(OC)c1

>  <Energy>  (10) 
58.02665307888305

>  <Genealogy>  (10) 
COc1cc(OC)c([N-]C(=O)CN2C(=O)CSc3ccccc32)c(OC)c1 (protonated)
COc1cc(OC)c([N-]C(=O)CN2C(=O)CSc3ccccc32)c(OC)c1 (3D coordinates assigned)
COc1cc(OC)c([N-]C(=O)CN2C(=O)CSc3ccccc32)c(OC)c1 (nonaromatic ring conformer: 58.02665307888305 kcal/mol)

>  <smiles>  (10) 
COc1cc(OC)c(NC(=O)CN2C(=O)CSc3ccccc32)c(OC)c1

>  <score_type>  (10) 
oracle

>  <origin>  (10) 
adg

>  <m_score__min__energy>  (10) 
-9.2899999999999991

>  <m_primary>  (10) 
energy

$$$$
10:0
     RDKit          3D

 40 43  0  0  0  0  0  0  0  0999 V2000
   55.7850   29.7160   43.4190 C   0  0  0  0  0  0  0  0  0  0  0  0
   55.6060   29.1970   44.7320 O   0  0  0  0  0  0  0  0  0  0  0  0
   56.6510   28.7400   45.5480 C   0  0  0  0  0  0  0  0  0  0  0  0
   57.6940   29.5770   46.0100 C   0  0  0  0  0  0  0  0  0  0  0  0
   58.7230   29.0590   46.8340 C   0  0  0  0  0  0  0  0  0  0  0  0
   59.7560   29.8920   47.2920 C   0  0  0  0  0  0  0  0  0  0  0  0
   60.7690   29.3740   48.1050 C   0  0  0  0  0  0  0  0  0  0  0  0
   60.7610   28.0240   48.4700 C   0  0  0  0  0  0  0  0  0  0  0  0
   59.7410   27.1790   48.0240 C   0  0  0  0  0  0  0  0  0  0  0  0
   58.7180   27.6860   47.2070 C   0  0  0  0  0  0  0  0  0  0  0  0
   57.6710   26.8890   46.7300 C   0  0  0  0  0  0  0  0  0  0  0  0
   57.3830   25.5510   46.9090 C   0  0  0  0  0  0  0  0  0  0  0  0
   56.2120   25.3450   46.1860 C   0  0  0  0  0  0  0  0  0  0  0  0
   55.4790   24.0750   46.0710 C   0  0  0  0  0  0  0  0  0  0  0  0
   54.5990   23.7950   46.9270 O   0  0  0  0  0  0  0  0  0  0  0  0
   55.7700   23.1420   45.0180 N   0  0  0  0  0  0  0  0  0  0  0  0
   55.6050   23.5480   43.6200 C   0  0  0  0  0  0  0  0  0  0  0  0
   56.5030   22.6850   42.7290 C   0  0  0  0  0  0  0  0  0  0  0  0
   56.2690   21.3090   42.9650 O   0  0  0  0  0  0  0  0  0  0  0  0
   56.6480   20.9770   44.2890 C   0  0  0  0  0  0  0  0  0  0  0  0
   55.7680   21.7080   45.3080 C   0  0  0  0  0  0  0  0  0  0  0  0
   55.8130   26.4690   45.6180 O   0  0  0  0  0  0  0  0  0  0  0  0
   56.6790   27.4020   45.9330 C   0  0  0  0  0  0  0  0  0  0  0  0
   56.1431   30.7542   43.4808 H   0  0  0  0  0  0  0  0  0  0  0  0
   56.5242   29.1046   42.8807 H   0  0  0  0  0  0  0  0  0  0  0  0
   54.8261   29.6903   42.8807 H   0  0  0  0  0  0  0  0  0  0  0  0
   57.7058   30.6398   45.7266 H   0  0  0  0  0  0  0  0  0  0  0  0
   59.7686   30.9553   47.0105 H   0  0  0  0  0  0  0  0  0  0  0  0
   61.5763   30.0318   48.4593 H   0  0  0  0  0  0  0  0  0  0  0  0
   61.5611   27.6254   49.1110 H   0  0  0  0  0  0  0  0  0  0  0  0
   59.7397   26.1176   48.3128 H   0  0  0  0  0  0  0  0  0  0  0  0
   57.9520   24.8125   47.4928 H   0  0  0  0  0  0  0  0  0  0  0  0
   54.5548   23.4149   43.3209 H   0  0  0  0  0  0  0  0  0  0  0  0
   55.8862   24.6057   43.5095 H   0  0  0  0  0  0  0  0  0  0  0  0
   56.2896   22.9117   41.6740 H   0  0  0  0  0  0  0  0  0  0  0  0
   57.5540   22.9100   42.9630 H   0  0  0  0  0  0  0  0  0  0  0  0
   56.5407   19.8918   44.4331 H   0  0  0  0  0  0  0  0  0  0  0  0
   57.6933   21.2831   44.4431 H   0  0  0  0  0  0  0  0  0  0  0  0
   54.7393   21.3233   45.2462 H   0  0  0  0  0  0  0  0  0  0  0  0
   56.1637   21.5392   46.3204 H   0  0  0  0  0  0  0  0  0  0  0  0
  1  2  1  0
  2  3  1  0
  3  4  2  0
  4  5  1  0
  5  6  2  0
  6  7  1  0
  7  8  2  0
  8  9  1  0
  9 10  2  0
 10 11  1  0
 11 12  1  0
 12 13  2  0
 13 14  1  0
 14 15  2  0
 14 16  1  0
 16 17  1  0
 17 18  1  0
 18 19  1  0
 19 20  1  0
 20 21  1  0
 13 22  1  0
 22 23  1  0
 23  3  1  0
 10  5  1  0
 23 11  2  0
 21 16  1  0
  1 24  1  0
  1 25  1  0
  1 26  1  0
  4 27  1  0
  6 28  1  0
  7 29  1  0
  8 30  1  0
  9 31  1  0
 12 32  1  0
 17 33  1  0
 17 34  1  0
 18 35  1  0
 18 36  1  0
 20 37  1  0
 20 38  1  0
 21 39  1  0
 21 40  1  0
M  END
>  <UniqueID>  (11) 
11

>  <SMILES>  (11) 
COc1cc2ccccc2c2cc(C(=O)N3CCOCC3)oc12

>  <Energy>  (11) 
82.85953332756407

>  <Genealogy>  (11) 
COc1cc2ccccc2c2cc(C(=O)N3CCOCC3)oc12 (3D coordinates assigned)
COc1cc2ccccc2c2cc(C(=O)N3CCOCC3)oc12 (nonaromatic ring conformer: 82.85953332756407 kcal/mol)

>  <smiles>  (11) 
COc1cc2ccccc2c2cc(C(=O)N3CCOCC3)oc12

>  <score_type>  (11) 
oracle

>  <origin>  (11) 
adg

>  <m_score__min__energy>  (11) 
-7.5099999999999998

>  <m_primary>  (11) 
energy

$$$$
11:0
     RDKit          3D

 71 75  0  0  0  0  0  0  0  0999 V2000
   59.2940   35.3600   44.4970 N   0  0  0  0  0  0  0  0  0  0  0  0
   59.2160   34.8400   45.5280 C   0  0  0  0  0  0  0  0  0  0  0  0
   59.1190   34.1920   46.8100 C   0  0  0  0  0  0  0  0  0  0  0  0
   58.0510   33.3330   47.0830 C   0  0  0  0  0  0  0  0  0  0  0  0
   57.9630   32.6950   48.3230 C   0  0  0  0  0  0  0  0  0  0  0  0
   58.9390   32.9140   49.3080 C   0  0  0  0  0  0  0  0  0  0  0  0
   58.8960   32.1550   50.5320 N   0  0  0  0  0  0  0  0  0  0  0  0
   58.1890   30.8730   50.5940 C   0  0  0  0  0  0  0  0  0  0  0  0
   58.7560   29.9890   51.7240 C   0  0  0  0  0  0  0  0  0  0  0  0
   60.1870   30.2740   52.0010 N   0  0  0  0  0  0  0  0  0  0  0  0
   61.0740   29.9140   50.8960 C   0  0  0  0  0  0  0  0  0  0  0  0
   61.7820   28.9180   50.9580 O   0  0  0  0  0  0  0  0  0  0  0  0
   61.2600   30.8230   49.7040 C   0  0  0  0  0  0  0  0  0  0  0  0
   60.6380   30.2320   48.5020 N   0  0  0  0  0  0  0  0  0  0  0  0
   60.2920   28.8160   48.7410 C   0  0  0  0  0  0  0  0  0  0  0  0
   59.9260   28.0780   47.4340 C   0  0  0  0  0  0  0  0  0  0  0  0
   59.6070   29.0040   46.3250 N   0  0  0  0  0  0  0  0  0  0  0  0
   58.3300   29.7310   46.5160 C   0  0  0  0  0  0  0  0  0  0  0  0
   57.7350   30.1370   45.1900 C   0  0  0  0  0  0  0  0  0  0  0  0
   58.2830   31.2230   44.4880 C   0  0  0  0  0  0  0  0  0  0  0  0
   57.7610   31.5970   43.2460 C   0  0  0  0  0  0  0  0  0  0  0  0
   56.6900   30.8910   42.6950 C   0  0  0  0  0  0  0  0  0  0  0  0
   56.1390   29.8080   43.3840 C   0  0  0  0  0  0  0  0  0  0  0  0
   56.6560   29.4270   44.6270 C   0  0  0  0  0  0  0  0  0  0  0  0
   56.1080   28.3650   45.2720 F   0  0  0  0  0  0  0  0  0  0  0  0
   60.7410   29.9160   46.0460 C   0  0  0  0  0  0  0  0  0  0  0  0
   61.5020   30.3560   47.3150 C   0  0  0  0  0  0  0  0  0  0  0  0
   60.3690   31.6770   52.4690 C   0  0  0  0  0  0  0  0  0  0  0  0
   59.4610   32.7060   51.7640 C   0  0  0  0  0  0  0  0  0  0  0  0
   60.0000   33.8100   49.0410 C   0  0  0  0  0  0  0  0  0  0  0  0
   60.9730   34.0990   50.0050 O   0  0  0  0  0  0  0  0  0  0  0  0
   62.3230   33.7320   49.8910 C   0  0  0  0  0  0  0  0  0  0  0  0
   62.9230   33.4870   48.6410 C   0  0  0  0  0  0  0  0  0  0  0  0
   64.2730   33.1260   48.5670 C   0  0  0  0  0  0  0  0  0  0  0  0
   65.0280   32.9990   49.7360 C   0  0  0  0  0  0  0  0  0  0  0  0
   64.4330   33.2240   50.9800 C   0  0  0  0  0  0  0  0  0  0  0  0
   63.0840   33.5840   51.0580 C   0  0  0  0  0  0  0  0  0  0  0  0
   62.5170   33.8080   52.2710 F   0  0  0  0  0  0  0  0  0  0  0  0
   60.0930   34.4250   47.7870 C   0  0  0  0  0  0  0  0  0  0  0  0
   57.2780   33.1588   46.3201 H   0  0  0  0  0  0  0  0  0  0  0  0
   57.1225   32.0159   48.5290 H   0  0  0  0  0  0  0  0  0  0  0  0
   57.1213   31.0587   50.7826 H   0  0  0  0  0  0  0  0  0  0  0  0
   58.3231   30.3496   49.6358 H   0  0  0  0  0  0  0  0  0  0  0  0
   58.1755   30.1714   52.6404 H   0  0  0  0  0  0  0  0  0  0  0  0
   58.6791   28.9404   51.4006 H   0  0  0  0  0  0  0  0  0  0  0  0
   60.4610   29.6480   52.7950 H   0  0  0  0  0  0  0  0  0  0  0  0
   60.7908   31.7956   49.9135 H   0  0  0  0  0  0  0  0  0  0  0  0
   62.3366   30.9536   49.5202 H   0  0  0  0  0  0  0  0  0  0  0  0
   61.1547   28.3132   49.2025 H   0  0  0  0  0  0  0  0  0  0  0  0
   59.4134   28.7892   49.4023 H   0  0  0  0  0  0  0  0  0  0  0  0
   60.7780   27.4501   47.1341 H   0  0  0  0  0  0  0  0  0  0  0  0
   59.0270   27.4762   47.6331 H   0  0  0  0  0  0  0  0  0  0  0  0
   57.6197   29.0778   47.0440 H   0  0  0  0  0  0  0  0  0  0  0  0
   58.5285   30.6394   47.1037 H   0  0  0  0  0  0  0  0  0  0  0  0
   59.1273   31.7822   44.9175 H   0  0  0  0  0  0  0  0  0  0  0  0
   58.1949   32.4490   42.7021 H   0  0  0  0  0  0  0  0  0  0  0  0
   56.2800   31.1876   41.7183 H   0  0  0  0  0  0  0  0  0  0  0  0
   55.2956   29.2527   42.9477 H   0  0  0  0  0  0  0  0  0  0  0  0
   61.4465   29.4005   45.3778 H   0  0  0  0  0  0  0  0  0  0  0  0
   60.3217   30.8241   45.5882 H   0  0  0  0  0  0  0  0  0  0  0  0
   62.3892   29.7188   47.4446 H   0  0  0  0  0  0  0  0  0  0  0  0
   61.8045   31.4076   47.2026 H   0  0  0  0  0  0  0  0  0  0  0  0
   60.1547   31.7107   53.5474 H   0  0  0  0  0  0  0  0  0  0  0  0
   61.4056   31.9563   52.2293 H   0  0  0  0  0  0  0  0  0  0  0  0
   58.6407   32.9849   52.4418 H   0  0  0  0  0  0  0  0  0  0  0  0
   60.0670   33.5871   51.5063 H   0  0  0  0  0  0  0  0  0  0  0  0
   62.3288   33.5796   47.7199 H   0  0  0  0  0  0  0  0  0  0  0  0
   64.7401   32.9421   47.5882 H   0  0  0  0  0  0  0  0  0  0  0  0
   66.0909   32.7219   49.6768 H   0  0  0  0  0  0  0  0  0  0  0  0
   65.0269   33.1177   51.8998 H   0  0  0  0  0  0  0  0  0  0  0  0
   60.9371   35.0956   47.5683 H   0  0  0  0  0  0  0  0  0  0  0  0
  1  2  3  0
  2  3  1  0
  3  4  2  0
  4  5  1  0
  5  6  2  0
  6  7  1  0
  7  8  1  0
  8  9  1  0
  9 10  1  0
 10 11  1  0
 11 12  2  0
 11 13  1  0
 13 14  1  0
 14 15  1  0
 15 16  1  0
 16 17  1  0
 17 18  1  0
 18 19  1  0
 19 20  2  0
 20 21  1  0
 21 22  2  0
 22 23  1  0
 23 24  2  0
 24 25  1  0
 17 26  1  0
 26 27  1  0
 10 28  1  0
 28 29  1  0
  6 30  1  0
 30 31  1  0
 31 32  1  0
 32 33  2  0
 33 34  1  0
 34 35  2  0
 35 36  1  0
 36 37  2  0
 37 38  1  0
 30 39  2  0
 39  3  1  0
 29  7  1  0
 37 32  1  0
 27 14  1  0
 24 19  1  0
  4 40  1  0
  5 41  1  0
  8 42  1  0
  8 43  1  0
  9 44  1  0
  9 45  1  0
 10 46  1  0
 13 47  1  0
 13 48  1  0
 15 49  1  0
 15 50  1  0
 16 51  1  0
 16 52  1  0
 18 53  1  0
 18 54  1  0
 20 55  1  0
 21 56  1  0
 22 57  1  0
 23 58  1  0
 26 59  1  0
 26 60  1  0
 27 61  1  0
 27 62  1  0
 28 63  1  0
 28 64  1  0
 29 65  1  0
 29 66  1  0
 33 67  1  0
 34 68  1  0
 35 69  1  0
 36 70  1  0
 39 71  1  0
M  CHG  1  10   1
M  END
>  <UniqueID>  (12) 
12

>  <SMILES>  (12) 
N#Cc1ccc(N2CC[NH+](C(=O)CN3CCN(Cc4ccccc4F)CC3)CC2)c(Oc2ccccc2F)c1

>  <Energy>  (12) 
107.95440514914526

>  <Genealogy>  (12) 
N#Cc1ccc(N2CC[NH+](C(=O)CN3CCN(Cc4ccccc4F)CC3)CC2)c(Oc2ccccc2F)c1 (protonated)
N#Cc1ccc(N2CC[NH+](C(=O)CN3CCN(Cc4ccccc4F)CC3)CC2)c(Oc2ccccc2F)c1 (3D coordinates assigned)
N#Cc1ccc(N2CC[NH+](C(=O)CN3CCN(Cc4ccccc4F)CC3)CC2)c(Oc2ccccc2F)c1 (nonaromatic ring conformer: 107.95440514914526 kcal/mol)

>  <smiles>  (12) 
N#Cc1ccc(N2CCN(C(=O)CN3CCN(Cc4ccccc4F)CC3)CC2)c(Oc2ccccc2F)c1

>  <score_type>  (12) 
oracle

>  <origin>  (12) 
adg

>  <m_score__min__energy>  (12) 
-7.8700000000000001

>  <m_primary>  (12) 
energy

$$$$
12:0
     RDKit          3D

 55 57  0  0  0  0  0  0  0  0999 V2000
   63.3980   32.3620   47.1080 C   0  0  0  0  0  0  0  0  0  0  0  0
   63.1170   33.2920   48.2950 C   0  0  0  0  0  0  0  0  0  0  0  0
   61.9820   34.2240   48.0810 N   0  0  0  0  0  0  0  0  0  0  0  0
   60.9840   34.2170   49.1760 C   0  0  0  0  0  0  0  0  0  0  0  0
   61.3960   33.2780   50.3100 C   0  0  0  0  0  0  0  0  0  0  0  0
   61.3440   34.0330   46.7580 C   0  0  0  0  0  0  0  0  0  0  0  0
   59.8380   34.3320   46.8260 C   0  0  0  0  0  0  0  0  0  0  0  0
   59.0350   33.2480   46.2100 N   0  0  0  0  0  0  0  0  0  0  0  0
   58.5170   32.2050   46.9590 C   0  0  0  0  0  0  0  0  0  0  0  0
   58.7590   32.0270   48.4420 C   0  0  0  0  0  0  0  0  0  0  0  0
   58.6070   30.6150   48.8040 N   0  0  0  0  0  0  0  0  0  0  0  0
   59.9630   29.7010   48.2170 S   0  0  0  0  0  0  0  0  0  0  0  0
   61.1200   30.6160   47.9230 O   0  0  0  0  0  0  0  0  0  0  0  0
   60.3900   28.7180   49.2710 O   0  0  0  0  0  0  0  0  0  0  0  0
   59.4980   28.8240   46.7610 C   0  0  0  0  0  0  0  0  0  0  0  0
   58.4540   27.8890   46.7950 C   0  0  0  0  0  0  0  0  0  0  0  0
   58.1180   27.1680   45.6450 C   0  0  0  0  0  0  0  0  0  0  0  0
   58.8220   27.3790   44.4560 C   0  0  0  0  0  0  0  0  0  0  0  0
   59.8640   28.3090   44.4170 C   0  0  0  0  0  0  0  0  0  0  0  0
   60.2070   29.0250   45.5680 C   0  0  0  0  0  0  0  0  0  0  0  0
   57.7770   31.2380   46.3550 N   0  0  0  0  0  0  0  0  0  0  0  0
   57.5240   31.2470   45.0280 C   0  0  0  0  0  0  0  0  0  0  0  0
   56.7570   30.2260   44.4540 C   0  0  0  0  0  0  0  0  0  0  0  0
   56.5060   30.2290   43.0790 C   0  0  0  0  0  0  0  0  0  0  0  0
   57.0210   31.2500   42.2760 C   0  0  0  0  0  0  0  0  0  0  0  0
   57.7890   32.2710   42.8440 C   0  0  0  0  0  0  0  0  0  0  0  0
   58.0450   32.2760   44.2290 C   0  0  0  0  0  0  0  0  0  0  0  0
   58.8070   33.2790   44.8500 C   0  0  0  0  0  0  0  0  0  0  0  0
   59.2830   34.2120   44.1440 O   0  0  0  0  0  0  0  0  0  0  0  0
   63.6973   31.3714   47.4811 H   0  0  0  0  0  0  0  0  0  0  0  0
   62.4894   32.2640   46.4958 H   0  0  0  0  0  0  0  0  0  0  0  0
   64.2089   32.7836   46.4958 H   0  0  0  0  0  0  0  0  0  0  0  0
   62.8924   32.6708   49.1746 H   0  0  0  0  0  0  0  0  0  0  0  0
   64.0150   33.9127   48.4303 H   0  0  0  0  0  0  0  0  0  0  0  0
   60.8860   35.2371   49.5756 H   0  0  0  0  0  0  0  0  0  0  0  0
   60.0274   33.8608   48.7661 H   0  0  0  0  0  0  0  0  0  0  0  0
   61.1857   33.7572   51.2775 H   0  0  0  0  0  0  0  0  0  0  0  0
   60.8269   32.3397   50.2342 H   0  0  0  0  0  0  0  0  0  0  0  0
   62.4718   33.0615   50.2342 H   0  0  0  0  0  0  0  0  0  0  0  0
   61.8133   34.7118   46.0307 H   0  0  0  0  0  0  0  0  0  0  0  0
   61.4804   32.9857   46.4504 H   0  0  0  0  0  0  0  0  0  0  0  0
   59.5431   34.4390   47.8803 H   0  0  0  0  0  0  0  0  0  0  0  0
   59.6472   35.2600   46.2671 H   0  0  0  0  0  0  0  0  0  0  0  0
   59.7783   32.3594   48.6881 H   0  0  0  0  0  0  0  0  0  0  0  0
   58.0277   32.6267   49.0038 H   0  0  0  0  0  0  0  0  0  0  0  0
   57.7630   30.2330   48.3200 H   0  0  0  0  0  0  0  0  0  0  0  0
   57.8975   27.7221   47.7291 H   0  0  0  0  0  0  0  0  0  0  0  0
   57.2991   26.4342   45.6760 H   0  0  0  0  0  0  0  0  0  0  0  0
   58.5557   26.8130   43.5512 H   0  0  0  0  0  0  0  0  0  0  0  0
   60.4150   28.4780   43.4801 H   0  0  0  0  0  0  0  0  0  0  0  0
   61.0354   29.7480   45.5376 H   0  0  0  0  0  0  0  0  0  0  0  0
   56.3519   29.4214   45.0852 H   0  0  0  0  0  0  0  0  0  0  0  0
   55.9026   29.4270   42.6287 H   0  0  0  0  0  0  0  0  0  0  0  0
   56.8217   31.2505   41.1942 H   0  0  0  0  0  0  0  0  0  0  0  0
   58.1941   33.0719   42.2080 H   0  0  0  0  0  0  0  0  0  0  0  0
  1  2  1  0
  2  3  1  0
  3  4  1  0
  4  5  1  0
  3  6  1  0
  6  7  1  0
  7  8  1  0
  8  9  1  0
  9 10  1  0
 10 11  1  0
 11 12  1  0
 12 13  2  0
 12 14  2  0
 12 15  1  0
 15 16  2  0
 16 17  1  0
 17 18  2  0
 18 19  1  0
 19 20  2  0
  9 21  2  0
 21 22  1  0
 22 23  2  0
 23 24  1  0
 24 25  2  0
 25 26  1  0
 26 27  2  0
 27 28  1  0
 28 29  2  0
 28  8  1  0
 20 15  1  0
 27 22  1  0
  1 30  1  0
  1 31  1  0
  1 32  1  0
  2 33  1  0
  2 34  1  0
  4 35  1  0
  4 36  1  0
  5 37  1  0
  5 38  1  0
  5 39  1  0
  6 40  1  0
  6 41  1  0
  7 42  1  0
  7 43  1  0
 10 44  1  0
 10 45  1  0
 11 46  1  0
 16 47  1  0
 17 48  1  0
 18 49  1  0
 19 50  1  0
 20 51  1  0
 23 52  1  0
 24 53  1  0
 25 54  1  0
 26 55  1  0
M  END
>  <UniqueID>  (13) 
13

>  <SMILES>  (13) 
CCN(CC)CCn1c(CNS(=O)(=O)c2ccccc2)nc2ccccc2c1=O

>  <Energy>  (13) 
61.336260154329025

>  <Genealogy>  (13) 
CCN(CC)CCn1c(CNS(=O)(=O)c2ccccc2)nc2ccccc2c1=O (3D coordinates assigned)
CCN(CC)CCn1c(CNS(=O)(=O)c2ccccc2)nc2ccccc2c1=O (optimized conformer: 61.336260154329025 kcal/mol)

>  <smiles>  (13) 
CCN(CC)CCn1c(CNS(=O)(=O)c2ccccc2)nc2ccccc2c1=O

>  <score_type>  (13) 
oracle

>  <origin>  (13) 
adg

>  <m_score__min__energy>  (13) 
-8.2200000000000006

>  <m_primary>  (13) 
energy

$$$$
13:0
     RDKit          3D

 55 58  0  0  0  0  0  0  0  0999 V2000
   57.7530   25.7110   44.0390 C   0  0  0  0  0  0  0  0  0  0  0  0
   58.0900   26.8580   43.2650 O   0  0  0  0  0  0  0  0  0  0  0  0
   58.1440   28.1680   43.7690 C   0  0  0  0  0  0  0  0  0  0  0  0
   59.2290   28.6390   44.5300 C   0  0  0  0  0  0  0  0  0  0  0  0
   59.2260   29.9470   45.0280 C   0  0  0  0  0  0  0  0  0  0  0  0
   58.1440   30.8090   44.7740 C   0  0  0  0  0  0  0  0  0  0  0  0
   58.1330   32.1490   45.3130 N   0  0  0  0  0  0  0  0  0  0  0  0
   58.1570   32.3220   46.7720 C   0  0  0  0  0  0  0  0  0  0  0  0
   58.0390   33.8000   47.1590 C   0  0  0  0  0  0  0  0  0  0  0  0
   58.8970   34.6400   46.3040 N   0  0  0  0  0  0  0  0  0  0  0  0
   60.3370   34.3660   46.4920 C   0  0  0  0  0  0  0  0  0  0  0  0
   60.6090   34.0740   47.9430 C   0  0  0  0  0  0  0  0  0  0  0  0
   60.2960   34.9130   48.7800 O   0  0  0  0  0  0  0  0  0  0  0  0
   61.2270   32.8250   48.3540 N   0  0  2  0  0  0  0  0  0  0  0  0
   62.3640   33.1020   49.1760 C   0  0  0  0  0  0  0  0  0  0  0  0
   62.3170   33.6190   50.4780 C   0  0  0  0  0  0  0  0  0  0  0  0
   63.5230   33.8610   51.1510 C   0  0  0  0  0  0  0  0  0  0  0  0
   64.7520   33.5910   50.5180 C   0  0  0  0  0  0  0  0  0  0  0  0
   64.7770   33.0770   49.2130 C   0  0  0  0  0  0  0  0  0  0  0  0
   63.5620   32.8390   48.5700 C   0  0  0  0  0  0  0  0  0  0  0  0
   63.3400   32.3400   47.2010 C   0  0  0  0  0  0  0  0  0  0  0  0
   61.8080   32.0990   47.1840 C   0  0  1  0  0  0  0  0  0  0  0  0
   61.5040   30.5910   47.2620 C   0  0  0  0  0  0  0  0  0  0  0  0
   58.4960   34.5910   44.8750 C   0  0  0  0  0  0  0  0  0  0  0  0
   57.7850   33.2880   44.4470 C   0  0  0  0  0  0  0  0  0  0  0  0
   57.0710   30.3370   43.9990 C   0  0  0  0  0  0  0  0  0  0  0  0
   57.0750   29.0290   43.5020 C   0  0  0  0  0  0  0  0  0  0  0  0
   57.8251   25.9565   45.1088 H   0  0  0  0  0  0  0  0  0  0  0  0
   56.7251   25.3985   43.8030 H   0  0  0  0  0  0  0  0  0  0  0  0
   58.4485   24.8921   43.8030 H   0  0  0  0  0  0  0  0  0  0  0  0
   60.0832   27.9768   44.7346 H   0  0  0  0  0  0  0  0  0  0  0  0
   60.0785   30.3045   45.6241 H   0  0  0  0  0  0  0  0  0  0  0  0
   57.3151   31.7678   47.2125 H   0  0  0  0  0  0  0  0  0  0  0  0
   59.1158   31.9390   47.1515 H   0  0  0  0  0  0  0  0  0  0  0  0
   56.9928   34.1197   47.0434 H   0  0  0  0  0  0  0  0  0  0  0  0
   58.3642   33.9159   48.2034 H   0  0  0  0  0  0  0  0  0  0  0  0
   60.6271   33.4972   45.8829 H   0  0  0  0  0  0  0  0  0  0  0  0
   60.9203   35.2449   46.1802 H   0  0  0  0  0  0  0  0  0  0  0  0
   60.5520   32.2310   48.8910 H   0  0  0  0  0  0  0  0  0  0  0  0
   61.3524   33.8308   50.9625 H   0  0  0  0  0  0  0  0  0  0  0  0
   63.5093   34.2624   52.1751 H   0  0  0  0  0  0  0  0  0  0  0  0
   65.6958   33.7839   51.0490 H   0  0  0  0  0  0  0  0  0  0  0  0
   65.7317   32.8666   48.7088 H   0  0  0  0  0  0  0  0  0  0  0  0
   63.6342   33.0890   46.4510 H   0  0  0  0  0  0  0  0  0  0  0  0
   63.9304   31.4447   46.9564 H   0  0  0  0  0  0  0  0  0  0  0  0
   61.3636   32.4728   46.2497 H   0  0  0  0  0  0  0  0  0  0  0  0
   61.4420   30.2835   48.3163 H   0  0  0  0  0  0  0  0  0  0  0  0
   60.5460   30.3838   46.7627 H   0  0  0  0  0  0  0  0  0  0  0  0
   62.3069   30.0288   46.7627 H   0  0  0  0  0  0  0  0  0  0  0  0
   57.8143   35.4324   44.6816 H   0  0  0  0  0  0  0  0  0  0  0  0
   59.4261   34.6433   44.2900 H   0  0  0  0  0  0  0  0  0  0  0  0
   56.6976   33.4474   44.4927 H   0  0  0  0  0  0  0  0  0  0  0  0
   58.1139   33.0460   43.4256 H   0  0  0  0  0  0  0  0  0  0  0  0
   56.2214   31.0009   43.7814 H   0  0  0  0  0  0  0  0  0  0  0  0
   56.2288   28.6745   42.8952 H   0  0  0  0  0  0  0  0  0  0  0  0
  1  2  1  0
  2  3  1  0
  3  4  2  0
  4  5  1  0
  5  6  2  0
  6  7  1  0
  7  8  1  0
  8  9  1  0
  9 10  1  0
 10 11  1  0
 11 12  1  0
 12 13  2  0
 12 14  1  0
 14 15  1  0
 15 16  2  0
 16 17  1  0
 17 18  2  0
 18 19  1  0
 19 20  2  0
 20 21  1  0
 21 22  1  0
 22 23  1  0
 10 24  1  0
 24 25  1  0
  6 26  1  0
 26 27  2  0
 27  3  1  0
 25  7  1  0
 22 14  1  0
 20 15  1  0
  1 28  1  0
  1 29  1  0
  1 30  1  0
  4 31  1  0
  5 32  1  0
  8 33  1  0
  8 34  1  0
  9 35  1  0
  9 36  1  0
 11 37  1  0
 11 38  1  0
 14 39  1  1
 16 40  1  0
 17 41  1  0
 18 42  1  0
 19 43  1  0
 21 44  1  0
 21 45  1  0
 22 46  1  6
 23 47  1  0
 23 48  1  0
 23 49  1  0
 24 50  1  0
 24 51  1  0
 25 52  1  0
 25 53  1  0
 26 54  1  0
 27 55  1  0
M  CHG  1  14   1
M  END
>  <UniqueID>  (14) 
14

>  <SMILES>  (14) 
COc1ccc(N2CCN(CC(=O)[N@@H+]3c4ccccc4C[C@H]3C)CC2)cc1

>  <Energy>  (14) 
79.74850378651254

>  <Genealogy>  (14) 
COc1ccc(N2CCN(CC(=O)[NH+]3c4ccccc4CC3C)CC2)cc1 (protonated)
COc1ccc(N2CCN(CC(=O)[N@@H+]3c4ccccc4C[C@H]3C)CC2)cc1 (chirality)
COc1ccc(N2CCN(CC(=O)[N@@H+]3c4ccccc4C[C@H]3C)CC2)cc1 (3D coordinates assigned)
COc1ccc(N2CCN(CC(=O)[N@@H+]3c4ccccc4C[C@H]3C)CC2)cc1 (nonaromatic ring conformer: 79.74850378651254 kcal/mol)

>  <smiles>  (14) 
COc1ccc(N2CCN(CC(=O)N3c4ccccc4CC3C)CC2)cc1

>  <score_type>  (14) 
oracle

>  <origin>  (14) 
adg

>  <m_score__min__energy>  (14) 
-7.4500000000000002

>  <m_primary>  (14) 
energy

$$$$
14:0
     RDKit          3D

 38 38  0  0  0  0  0  0  0  0999 V2000
   60.6470   28.2080   45.5530 C   0  0  0  0  0  0  0  0  0  0  0  0
   59.9090   28.6290   44.5210 C   0  0  0  0  0  0  0  0  0  0  0  0
   58.9390   27.7260   43.7950 C   0  0  0  0  0  0  0  0  0  0  0  0
   57.6200   27.5550   44.4670 N   0  0  1  0  0  0  0  0  0  0  0  0
   57.3930   26.2070   45.0530 C   0  0  0  0  0  0  0  0  0  0  0  0
   56.5290   26.2300   46.3290 C   0  0  0  0  0  0  0  0  0  0  0  0
   55.1500   26.1560   46.0160 O   0  0  0  0  0  0  0  0  0  0  0  0
   54.8090   24.8580   45.5830 C   0  0  0  0  0  0  0  0  0  0  0  0
   57.3070   28.6510   45.4220 C   0  0  0  0  0  0  0  0  0  0  0  0
   56.3140   29.6600   44.9080 C   0  0  0  0  0  0  0  0  0  0  0  0
   55.0960   29.3510   44.8080 O   0  0  0  0  0  0  0  0  0  0  0  0
   56.7790   30.9360   44.4490 N   0  0  0  0  0  0  0  0  0  0  0  0
   57.5350   31.8820   45.2180 C   0  0  0  0  0  0  0  0  0  0  0  0
   57.1050   33.2160   45.2560 C   0  0  0  0  0  0  0  0  0  0  0  0
   57.8320   34.1730   45.9710 C   0  0  0  0  0  0  0  0  0  0  0  0
   59.0030   33.8080   46.6400 C   0  0  0  0  0  0  0  0  0  0  0  0
   59.4530   32.4860   46.5870 C   0  0  0  0  0  0  0  0  0  0  0  0
   60.6020   32.1360   47.2170 F   0  0  0  0  0  0  0  0  0  0  0  0
   58.7270   31.5250   45.8750 C   0  0  0  0  0  0  0  0  0  0  0  0
   61.3407   28.9007   46.0519 H   0  0  0  0  0  0  0  0  0  0  0  0
   60.5606   27.1689   45.9033 H   0  0  0  0  0  0  0  0  0  0  0  0
   60.0117   29.6722   44.1877 H   0  0  0  0  0  0  0  0  0  0  0  0
   58.7611   28.1487   42.7951 H   0  0  0  0  0  0  0  0  0  0  0  0
   59.4043   26.7296   43.7692 H   0  0  0  0  0  0  0  0  0  0  0  0
   56.9110   27.6720   43.7050 H   0  0  0  0  0  0  0  0  0  0  0  0
   56.8887   25.5811   44.3020 H   0  0  0  0  0  0  0  0  0  0  0  0
   58.3778   25.8066   45.3357 H   0  0  0  0  0  0  0  0  0  0  0  0
   56.7999   25.3715   46.9611 H   0  0  0  0  0  0  0  0  0  0  0  0
   56.7154   27.1760   46.8584 H   0  0  0  0  0  0  0  0  0  0  0  0
   54.6394   24.2125   46.4574 H   0  0  0  0  0  0  0  0  0  0  0  0
   53.8921   24.9027   44.9769 H   0  0  0  0  0  0  0  0  0  0  0  0
   55.6295   24.4463   44.9769 H   0  0  0  0  0  0  0  0  0  0  0  0
   56.8977   28.2018   46.3389 H   0  0  0  0  0  0  0  0  0  0  0  0
   58.2472   29.1955   45.5938 H   0  0  0  0  0  0  0  0  0  0  0  0
   56.1907   33.5114   44.7204 H   0  0  0  0  0  0  0  0  0  0  0  0
   57.4813   35.2150   46.0068 H   0  0  0  0  0  0  0  0  0  0  0  0
   59.5701   34.5603   47.2078 H   0  0  0  0  0  0  0  0  0  0  0  0
   59.0891   30.4873   45.8287 H   0  0  0  0  0  0  0  0  0  0  0  0
  1  2  2  0
  2  3  1  0
  3  4  1  0
  4  5  1  0
  5  6  1  0
  6  7  1  0
  7  8  1  0
  4  9  1  0
  9 10  1  0
 10 11  2  0
 10 12  1  0
 12 13  1  0
 13 14  2  0
 14 15  1  0
 15 16  2  0
 16 17  1  0
 17 18  1  0
 17 19  2  0
 19 13  1  0
  1 20  1  0
  1 21  1  0
  2 22  1  0
  3 23  1  0
  3 24  1  0
  4 25  1  6
  5 26  1  0
  5 27  1  0
  6 28  1  0
  6 29  1  0
  8 30  1  0
  8 31  1  0
  8 32  1  0
  9 33  1  0
  9 34  1  0
 14 35  1  0
 15 36  1  0
 16 37  1  0
 19 38  1  0
M  CHG  2   4   1  12  -1
M  END
>  <UniqueID>  (15) 
15

>  <SMILES>  (15) 
C=CC[N@@H+](CCOC)CC(=O)[N-]c1cccc(F)c1

>  <Energy>  (15) 
45.97448428764222

>  <Genealogy>  (15) 
C=CC[NH+](CCOC)CC(=O)[N-]c1cccc(F)c1 (protonated)
C=CC[N@@H+](CCOC)CC(=O)[N-]c1cccc(F)c1 (chirality)
C=CC[N@@H+](CCOC)CC(=O)[N-]c1cccc(F)c1 (3D coordinates assigned)
C=CC[N@@H+](CCOC)CC(=O)[N-]c1cccc(F)c1 (optimized conformer: 45.97448428764222 kcal/mol)

>  <smiles>  (15) 
C=CCN(CCOC)CC(=O)Nc1cccc(F)c1

>  <score_type>  (15) 
oracle

>  <origin>  (15) 
adg

>  <m_score__min__energy>  (15) 
-6.6600000000000001

>  <m_primary>  (15) 
energy

$$$$
15:0
     RDKit          3D

 33 35  0  0  0  0  0  0  0  0999 V2000
   59.4900   35.0430   46.2430 C   0  0  0  0  0  0  0  0  0  0  0  0
   59.4490   33.6560   46.7050 N   0  0  0  0  0  0  0  0  0  0  0  0
   58.4660   32.7350   46.5040 C   0  0  0  0  0  0  0  0  0  0  0  0
   57.1750   33.0200   45.7960 C   0  0  0  0  0  0  0  0  0  0  0  0
   57.2010   32.4590   44.4440 N   0  0  0  0  0  0  0  0  0  0  0  0
   58.0800   32.9260   43.3850 C   0  0  0  0  0  0  0  0  0  0  0  0
   57.8560   31.9710   42.1960 C   0  0  0  0  0  0  0  0  0  0  0  0
   57.0360   30.7820   42.7190 C   0  0  0  0  0  0  0  0  0  0  0  0
   56.6480   31.2110   44.0770 C   0  0  0  0  0  0  0  0  0  0  0  0
   55.9130   30.5290   44.8400 O   0  0  0  0  0  0  0  0  0  0  0  0
   58.7890   31.4950   46.9550 N   0  0  0  0  0  0  0  0  0  0  0  0
   60.0300   31.6640   47.4470 C   0  0  0  0  0  0  0  0  0  0  0  0
   60.8550   30.6980   48.0160 C   0  0  0  0  0  0  0  0  0  0  0  0
   62.1400   31.0920   48.4290 C   0  0  0  0  0  0  0  0  0  0  0  0
   62.5700   32.4300   48.2580 C   0  0  0  0  0  0  0  0  0  0  0  0
   63.8900   32.8200   48.6790 C   0  0  0  0  0  0  0  0  0  0  0  0
   64.9520   33.1320   49.0160 N   0  0  0  0  0  0  0  0  0  0  0  0
   61.7100   33.3840   47.6750 C   0  0  0  0  0  0  0  0  0  0  0  0
   60.4380   32.9570   47.2880 C   0  0  0  0  0  0  0  0  0  0  0  0
   59.5100   35.7182   47.1112 H   0  0  0  0  0  0  0  0  0  0  0  0
   60.3932   35.2005   45.6352 H   0  0  0  0  0  0  0  0  0  0  0  0
   58.5977   35.2535   45.6352 H   0  0  0  0  0  0  0  0  0  0  0  0
   56.3450   32.5692   46.3598 H   0  0  0  0  0  0  0  0  0  0  0  0
   57.0376   34.1093   45.7283 H   0  0  0  0  0  0  0  0  0  0  0  0
   57.8224   33.9570   43.1011 H   0  0  0  0  0  0  0  0  0  0  0  0
   59.1320   32.9298   43.7065 H   0  0  0  0  0  0  0  0  0  0  0  0
   57.3043   32.4871   41.3964 H   0  0  0  0  0  0  0  0  0  0  0  0
   58.8163   31.6315   41.7806 H   0  0  0  0  0  0  0  0  0  0  0  0
   56.1492   30.6082   42.0918 H   0  0  0  0  0  0  0  0  0  0  0  0
   57.5952   29.8348   42.7092 H   0  0  0  0  0  0  0  0  0  0  0  0
   60.5127   29.6598   48.1386 H   0  0  0  0  0  0  0  0  0  0  0  0
   62.8159   30.3555   48.8882 H   0  0  0  0  0  0  0  0  0  0  0  0
   62.0297   34.4265   47.5304 H   0  0  0  0  0  0  0  0  0  0  0  0
  1  2  1  0
  2  3  1  0
  3  4  1  0
  4  5  1  0
  5  6  1  0
  6  7  1  0
  7  8  1  0
  8  9  1  0
  9 10  2  0
  3 11  2  0
 11 12  1  0
 12 13  2  0
 13 14  1  0
 14 15  2  0
 15 16  1  0
 16 17  3  0
 15 18  1  0
 18 19  2  0
 19  2  1  0
  9  5  1  0
 19 12  1  0
  1 20  1  0
  1 21  1  0
  1 22  1  0
  4 23  1  0
  4 24  1  0
  6 25  1  0
  6 26  1  0
  7 27  1  0
  7 28  1  0
  8 29  1  0
  8 30  1  0
 13 31  1  0
 14 32  1  0
 18 33  1  0
M  END
>  <UniqueID>  (16) 
16

>  <SMILES>  (16) 
Cn1c(CN2CCCC2=O)nc2ccc(C#N)cc21

>  <Energy>  (16) 
74.1709759964873

>  <Genealogy>  (16) 
Cn1c(CN2CCCC2=O)nc2ccc(C#N)cc21 (3D coordinates assigned)
Cn1c(CN2CCCC2=O)nc2ccc(C#N)cc21 (nonaromatic ring conformer: 74.1709759964873 kcal/mol)

>  <smiles>  (16) 
Cn1c(CN2CCCC2=O)nc2ccc(C#N)cc21

>  <score_type>  (16) 
oracle

>  <origin>  (16) 
adg

>  <m_score__min__energy>  (16) 
-6.8200000000000003

>  <m_primary>  (16) 
energy

$$$$
16:0
     RDKit          3D

 39 41  0  0  0  0  0  0  0  0999 V2000
   58.1570   32.0360   50.7530 C   0  0  0  0  0  0  0  0  0  0  0  0
   57.9410   30.5660   50.8680 C   0  0  0  0  0  0  0  0  0  0  0  0
   57.0140   30.1270   51.6000 O   0  0  0  0  0  0  0  0  0  0  0  0
   58.7620   29.6900   50.1510 O   0  0  0  0  0  0  0  0  0  0  0  0
   60.0390   29.2720   50.6250 C   0  0  0  0  0  0  0  0  0  0  0  0
   61.1300   29.7030   49.6430 C   0  0  0  0  0  0  0  0  0  0  0  0
   60.8060   30.9380   49.0280 O   0  0  0  0  0  0  0  0  0  0  0  0
   61.0860   30.9250   47.6400 C   0  0  0  0  0  0  0  0  0  0  0  0
   59.8360   30.9630   46.8420 N   0  0  0  0  0  0  0  0  0  0  0  0
   59.3640   32.1610   46.3280 C   0  0  0  0  0  0  0  0  0  0  0  0
   60.0110   33.3960   46.5900 C   0  0  0  0  0  0  0  0  0  0  0  0
   59.5390   34.5880   46.0390 C   0  0  0  0  0  0  0  0  0  0  0  0
   58.4150   34.5860   45.2200 C   0  0  0  0  0  0  0  0  0  0  0  0
   57.7500   33.3930   44.9530 C   0  0  0  0  0  0  0  0  0  0  0  0
   58.2070   32.1770   45.4990 C   0  0  0  0  0  0  0  0  0  0  0  0
   57.5340   30.9770   45.2300 C   0  0  0  0  0  0  0  0  0  0  0  0
   56.5050   30.9770   44.4960 O   0  0  0  0  0  0  0  0  0  0  0  0
   58.0050   29.7780   45.7740 C   0  0  0  0  0  0  0  0  0  0  0  0
   57.3560   28.5540   45.5240 C   0  0  0  0  0  0  0  0  0  0  0  0
   57.8550   27.3710   46.0690 C   0  0  0  0  0  0  0  0  0  0  0  0
   57.0520   25.8430   45.7590 Cl  0  0  0  0  0  0  0  0  0  0  0  0
   59.0010   27.4170   46.8580 C   0  0  0  0  0  0  0  0  0  0  0  0
   59.6180   28.6030   47.0920 N   0  0  0  0  0  0  0  0  0  0  0  0
   59.1640   29.7870   46.5840 C   0  0  0  0  0  0  0  0  0  0  0  0
   58.2218   32.4769   51.7587 H   0  0  0  0  0  0  0  0  0  0  0  0
   59.0929   32.2275   50.2077 H   0  0  0  0  0  0  0  0  0  0  0  0
   57.3157   32.4887   50.2077 H   0  0  0  0  0  0  0  0  0  0  0  0
   60.2309   29.7303   51.6064 H   0  0  0  0  0  0  0  0  0  0  0  0
   60.0486   28.1758   50.7161 H   0  0  0  0  0  0  0  0  0  0  0  0
   62.0801   29.8111   50.1868 H   0  0  0  0  0  0  0  0  0  0  0  0
   61.2171   28.9356   48.8597 H   0  0  0  0  0  0  0  0  0  0  0  0
   61.6991   31.8031   47.3891 H   0  0  0  0  0  0  0  0  0  0  0  0
   61.6245   29.9960   47.4012 H   0  0  0  0  0  0  0  0  0  0  0  0
   60.8995   33.4143   47.2383 H   0  0  0  0  0  0  0  0  0  0  0  0
   60.0584   35.5336   46.2535 H   0  0  0  0  0  0  0  0  0  0  0  0
   58.0514   35.5278   44.7831 H   0  0  0  0  0  0  0  0  0  0  0  0
   56.8583   33.3994   44.3090 H   0  0  0  0  0  0  0  0  0  0  0  0
   56.4526   28.5305   44.8969 H   0  0  0  0  0  0  0  0  0  0  0  0
   59.4068   26.4913   47.2922 H   0  0  0  0  0  0  0  0  0  0  0  0
  1  2  1  0
  2  3  2  0
  2  4  1  0
  4  5  1  0
  5  6  1  0
  6  7  1  0
  7  8  1  0
  8  9  1  0
  9 10  1  0
 10 11  2  0
 11 12  1  0
 12 13  2  0
 13 14  1  0
 14 15  2  0
 15 16  1  0
 16 17  2  0
 16 18  1  0
 18 19  2  0
 19 20  1  0
 20 21  1  0
 20 22  2  0
 22 23  1  0
 23 24  2  0
 24  9  1  0
 15 10  1  0
 24 18  1  0
  1 25  1  0
  1 26  1  0
  1 27  1  0
  5 28  1  0
  5 29  1  0
  6 30  1  0
  6 31  1  0
  8 32  1  0
  8 33  1  0
 11 34  1  0
 12 35  1  0
 13 36  1  0
 14 37  1  0
 19 38  1  0
 22 39  1  0
M  END
>  <UniqueID>  (17) 
17

>  <SMILES>  (17) 
CC(=O)OCCOCn1c2ccccc2c(=O)c2cc(Cl)cnc21

>  <Energy>  (17) 
52.90950265683041

>  <Genealogy>  (17) 
CC(=O)OCCOCn1c2ccccc2c(=O)c2cc(Cl)cnc21 (3D coordinates assigned)
CC(=O)OCCOCn1c2ccccc2c(=O)c2cc(Cl)cnc21 (optimized conformer: 52.90950265683041 kcal/mol)

>  <smiles>  (17) 
CC(=O)OCCOCn1c2ccccc2c(=O)c2cc(Cl)cnc21

>  <score_type>  (17) 
oracle

>  <origin>  (17) 
adg

>  <m_score__min__energy>  (17) 
-7.3499999999999996

>  <m_primary>  (17) 
energy

$$$$
17:0
     RDKit          3D

 31 32  0  0  0  0  0  0  0  0999 V2000
   57.5280   31.6520   44.6010 C   0  0  0  0  0  0  0  0  0  0  0  0
   57.5090   33.0780   45.1390 C   0  0  0  0  0  0  0  0  0  0  0  0
   58.6800   33.3180   46.0540 C   0  0  0  0  0  0  0  0  0  0  0  0
   58.8830   34.5810   46.6250 C   0  0  0  0  0  0  0  0  0  0  0  0
   59.9540   34.8000   47.4920 C   0  0  0  0  0  0  0  0  0  0  0  0
   60.8450   33.7610   47.8100 C   0  0  0  0  0  0  0  0  0  0  0  0
   60.6200   32.4730   47.2670 C   0  0  0  0  0  0  0  0  0  0  0  0
   59.5470   32.2660   46.3850 C   0  0  0  0  0  0  0  0  0  0  0  0
   61.5620   31.3410   47.5750 C   0  0  0  0  0  0  0  0  0  0  0  0
   62.9920   31.6560   47.1010 C   0  0  0  0  0  0  0  0  0  0  0  0
   63.8070   32.3850   48.0940 N   0  0  0  0  0  0  0  0  0  0  0  0
   63.4230   33.8040   48.2330 C   0  0  0  0  0  0  0  0  0  0  0  0
   61.9840   34.0310   48.7780 C   0  0  0  0  0  0  0  0  0  0  0  0
   57.5374   30.9429   45.4419 H   0  0  0  0  0  0  0  0  0  0  0  0
   56.6321   31.4800   43.9864 H   0  0  0  0  0  0  0  0  0  0  0  0
   58.4282   31.5039   43.9864 H   0  0  0  0  0  0  0  0  0  0  0  0
   57.5595   33.7826   44.2958 H   0  0  0  0  0  0  0  0  0  0  0  0
   56.5796   33.2287   45.7077 H   0  0  0  0  0  0  0  0  0  0  0  0
   58.1939   35.4051   46.3884 H   0  0  0  0  0  0  0  0  0  0  0  0
   60.1026   35.7973   47.9316 H   0  0  0  0  0  0  0  0  0  0  0  0
   59.3847   31.2691   45.9493 H   0  0  0  0  0  0  0  0  0  0  0  0
   61.5744   31.1712   48.6618 H   0  0  0  0  0  0  0  0  0  0  0  0
   61.2108   30.4440   47.0439 H   0  0  0  0  0  0  0  0  0  0  0  0
   63.4967   30.7065   46.8693 H   0  0  0  0  0  0  0  0  0  0  0  0
   62.8990   32.3115   46.2226 H   0  0  0  0  0  0  0  0  0  0  0  0
   63.6570   31.9200   49.0200 H   0  0  0  0  0  0  0  0  0  0  0  0
   64.8270   32.2910   47.8790 H   0  0  0  0  0  0  0  0  0  0  0  0
   64.1318   34.2860   48.9224 H   0  0  0  0  0  0  0  0  0  0  0  0
   63.4468   34.2357   47.2215 H   0  0  0  0  0  0  0  0  0  0  0  0
   61.8476   33.3715   49.6477 H   0  0  0  0  0  0  0  0  0  0  0  0
   61.9243   35.1052   49.0072 H   0  0  0  0  0  0  0  0  0  0  0  0
  1  2  1  0
  2  3  1  0
  3  4  2  0
  4  5  1  0
  5  6  2  0
  6  7  1  0
  7  8  2  0
  7  9  1  0
  9 10  1  0
 10 11  1  0
 11 12  1  0
 12 13  1  0
  8  3  1  0
 13  6  1  0
  1 14  1  0
  1 15  1  0
  1 16  1  0
  2 17  1  0
  2 18  1  0
  4 19  1  0
  5 20  1  0
  8 21  1  0
  9 22  1  0
  9 23  1  0
 10 24  1  0
 10 25  1  0
 11 26  1  0
 11 27  1  0
 12 28  1  0
 12 29  1  0
 13 30  1  0
 13 31  1  0
M  CHG  1  11   1
M  END
>  <UniqueID>  (18) 
18

>  <SMILES>  (18) 
CCc1ccc2c(c1)CC[NH2+]CC2

>  <Energy>  (18) 
37.37258652243808

>  <Genealogy>  (18) 
CCc1ccc2c(c1)CC[NH2+]CC2 (protonated)
CCc1ccc2c(c1)CC[NH2+]CC2 (3D coordinates assigned)
CCc1ccc2c(c1)CC[NH2+]CC2 (nonaromatic ring conformer: 37.37258652243808 kcal/mol)

>  <smiles>  (18) 
CCc1ccc2c(c1)CCNCC2

>  <score_type>  (18) 
oracle

>  <origin>  (18) 
adg

>  <m_score__min__energy>  (18) 
-3.25

>  <m_primary>  (18) 
energy

$$$$
18:0
     RDKit          3D

 49 51  0  0  0  0  0  0  0  0999 V2000
   59.3870   29.5580   47.3610 C   0  0  0  0  0  0  0  0  0  0  0  0
   59.9180   30.0080   45.6750 S   0  0  0  0  0  0  0  0  0  0  0  0
   58.2590   30.2450   45.0090 C   0  0  0  0  0  0  0  0  0  0  0  0
   57.4410   31.3550   45.1550 C   0  0  0  0  0  0  0  0  0  0  0  0
   57.6990   32.5990   45.9650 C   0  0  2  0  0  0  0  0  0  0  0  0
   57.0950   33.8330   45.2880 C   0  0  0  0  0  0  0  0  0  0  0  0
   59.1370   32.7700   46.1920 N   0  0  0  0  0  0  0  0  0  0  0  0
   59.6440   33.6790   47.1840 C   0  0  0  0  0  0  0  0  0  0  0  0
   58.8500   34.4420   47.8000 O   0  0  0  0  0  0  0  0  0  0  0  0
   61.0890   33.7190   47.4990 C   0  0  0  0  0  0  0  0  0  0  0  0
   62.0210   33.7970   46.4490 C   0  0  0  0  0  0  0  0  0  0  0  0
   63.3910   33.8320   46.7190 C   0  0  0  0  0  0  0  0  0  0  0  0
   63.8470   33.7860   48.0360 C   0  0  0  0  0  0  0  0  0  0  0  0
   62.9340   33.7040   49.0890 C   0  0  0  0  0  0  0  0  0  0  0  0
   61.5580   33.6690   48.8320 C   0  0  0  0  0  0  0  0  0  0  0  0
   60.4650   33.4970   50.2050 Cl  0  0  0  0  0  0  0  0  0  0  0  0
   56.2910   31.1520   44.4760 N   0  0  0  0  0  0  0  0  0  0  0  0
   56.4330   29.9290   43.9260 C   0  0  0  0  0  0  0  0  0  0  0  0
   57.6160   29.3580   44.2250 N   0  0  0  0  0  0  0  0  0  0  0  0
   58.0550   28.0180   43.8290 C   0  0  0  0  0  0  0  0  0  0  0  0
   57.8100   27.0340   44.9430 C   0  0  0  0  0  0  0  0  0  0  0  0
   56.5780   27.0100   45.6160 C   0  0  0  0  0  0  0  0  0  0  0  0
   56.3360   26.0620   46.6140 C   0  0  0  0  0  0  0  0  0  0  0  0
   57.3310   25.1370   46.9680 C   0  0  0  0  0  0  0  0  0  0  0  0
   57.0530   24.0840   47.9970 C   0  0  0  0  0  0  0  0  0  0  0  0
   58.5640   25.1620   46.2990 C   0  0  0  0  0  0  0  0  0  0  0  0
   58.8050   26.1110   45.3010 C   0  0  0  0  0  0  0  0  0  0  0  0
   60.0116   30.0873   48.0957 H   0  0  0  0  0  0  0  0  0  0  0  0
   58.3339   29.8428   47.5021 H   0  0  0  0  0  0  0  0  0  0  0  0
   59.4953   28.4725   47.5021 H   0  0  0  0  0  0  0  0  0  0  0  0
   57.2068   32.4844   46.9421 H   0  0  0  0  0  0  0  0  0  0  0  0
   56.7489   34.5401   46.0562 H   0  0  0  0  0  0  0  0  0  0  0  0
   57.8579   34.3174   44.6608 H   0  0  0  0  0  0  0  0  0  0  0  0
   56.2445   33.5277   44.6608 H   0  0  0  0  0  0  0  0  0  0  0  0
   59.8100   32.1680   45.6640 H   0  0  0  0  0  0  0  0  0  0  0  0
   61.6687   33.8307   45.4075 H   0  0  0  0  0  0  0  0  0  0  0  0
   64.1120   33.8960   45.8907 H   0  0  0  0  0  0  0  0  0  0  0  0
   64.9265   33.8143   48.2453 H   0  0  0  0  0  0  0  0  0  0  0  0
   63.2977   33.6667   50.1265 H   0  0  0  0  0  0  0  0  0  0  0  0
   55.6656   29.4493   43.3006 H   0  0  0  0  0  0  0  0  0  0  0  0
   57.4947   27.7021   42.9367 H   0  0  0  0  0  0  0  0  0  0  0  0
   59.1323   28.0463   43.6087 H   0  0  0  0  0  0  0  0  0  0  0  0
   55.7987   27.7416   45.3563 H   0  0  0  0  0  0  0  0  0  0  0  0
   55.3618   26.0405   47.1243 H   0  0  0  0  0  0  0  0  0  0  0  0
   57.1668   24.5150   49.0026 H   0  0  0  0  0  0  0  0  0  0  0  0
   56.0257   23.7112   47.8719 H   0  0  0  0  0  0  0  0  0  0  0  0
   57.7625   23.2527   47.8719 H   0  0  0  0  0  0  0  0  0  0  0  0
   59.3442   24.4321   46.5607 H   0  0  0  0  0  0  0  0  0  0  0  0
   59.7805   26.1345   44.7932 H   0  0  0  0  0  0  0  0  0  0  0  0
  1  2  1  0
  2  3  1  0
  3  4  2  0
  4  5  1  0
  5  6  1  0
  5  7  1  0
  7  8  1  0
  8  9  2  0
  8 10  1  0
 10 11  2  0
 11 12  1  0
 12 13  2  0
 13 14  1  0
 14 15  2  0
 15 16  1  0
  4 17  1  0
 17 18  2  0
 18 19  1  0
 19 20  1  0
 20 21  1  0
 21 22  2  0
 22 23  1  0
 23 24  2  0
 24 25  1  0
 24 26  1  0
 26 27  2  0
 19  3  1  0
 27 21  1  0
 15 10  1  0
  1 28  1  0
  1 29  1  0
  1 30  1  0
  5 31  1  1
  6 32  1  0
  6 33  1  0
  6 34  1  0
  7 35  1  0
 11 36  1  0
 12 37  1  0
 13 38  1  0
 14 39  1  0
 18 40  1  0
 20 41  1  0
 20 42  1  0
 22 43  1  0
 23 44  1  0
 25 45  1  0
 25 46  1  0
 25 47  1  0
 26 48  1  0
 27 49  1  0
M  END
>  <UniqueID>  (19) 
19

>  <SMILES>  (19) 
CSc1c([C@H](C)NC(=O)c2ccccc2Cl)ncn1Cc1ccc(C)cc1

>  <Energy>  (19) 
73.19335222854832

>  <Genealogy>  (19) 
CSc1c([C@H](C)NC(=O)c2ccccc2Cl)ncn1Cc1ccc(C)cc1 (chirality)
CSc1c([C@H](C)NC(=O)c2ccccc2Cl)ncn1Cc1ccc(C)cc1 (3D coordinates assigned)
CSc1c([C@H](C)NC(=O)c2ccccc2Cl)ncn1Cc1ccc(C)cc1 (optimized conformer: 73.19335222854832 kcal/mol)

>  <smiles>  (19) 
CSc1c(C(C)NC(=O)c2ccccc2Cl)ncn1Cc1ccc(C)cc1

>  <score_type>  (19) 
oracle

>  <origin>  (19) 
adg

>  <m_score__min__energy>  (19) 
-8.4800000000000004

>  <m_primary>  (19) 
energy

$$$$
19:0
     RDKit          3D

 38 40  0  0  0  0  0  0  0  0999 V2000
   56.6420   28.9790   44.8240 C   0  0  0  0  0  0  0  0  0  0  0  0
   55.9080   30.1110   44.1170 C   0  0  0  0  0  0  0  0  0  0  0  0
   56.8650   31.0650   43.5530 N   0  0  0  0  0  0  0  0  0  0  0  0
   57.0610   31.3030   42.2460 C   0  0  0  0  0  0  0  0  0  0  0  0
   57.9730   32.3260   42.1280 C   0  0  0  0  0  0  0  0  0  0  0  0
   58.3450   32.7450   43.3550 N   0  0  0  0  0  0  0  0  0  0  0  0
   57.6440   31.9610   44.2020 C   0  0  0  0  0  0  0  0  0  0  0  0
   57.7680   32.0680   45.7000 C   0  0  0  0  0  0  0  0  0  0  0  0
   59.0410   32.7130   46.1020 N   0  0  1  0  0  0  0  0  0  0  0  0
   58.8020   33.7950   47.0840 C   0  0  0  0  0  0  0  0  0  0  0  0
   60.0920   34.5790   47.3530 C   0  0  0  0  0  0  0  0  0  0  0  0
   61.2630   33.6670   47.6040 C   0  0  0  0  0  0  0  0  0  0  0  0
   62.4430   34.1970   48.1490 C   0  0  0  0  0  0  0  0  0  0  0  0
   63.5610   33.3810   48.3430 C   0  0  0  0  0  0  0  0  0  0  0  0
   63.5110   32.0320   47.9880 C   0  0  0  0  0  0  0  0  0  0  0  0
   62.3460   31.4960   47.4330 C   0  0  0  0  0  0  0  0  0  0  0  0
   61.2230   32.3110   47.2190 C   0  0  0  0  0  0  0  0  0  0  0  0
   59.9510   31.6980   46.6790 C   0  0  0  0  0  0  0  0  0  0  0  0
   56.5568   29.1104   45.9128 H   0  0  0  0  0  0  0  0  0  0  0  0
   56.1960   28.0159   44.5349 H   0  0  0  0  0  0  0  0  0  0  0  0
   57.7032   28.9932   44.5349 H   0  0  0  0  0  0  0  0  0  0  0  0
   55.2920   29.6935   43.3069 H   0  0  0  0  0  0  0  0  0  0  0  0
   55.2703   30.6331   44.8455 H   0  0  0  0  0  0  0  0  0  0  0  0
   56.5761   30.7718   41.4137 H   0  0  0  0  0  0  0  0  0  0  0  0
   58.3426   32.7393   41.1780 H   0  0  0  0  0  0  0  0  0  0  0  0
   56.9287   32.6658   46.0850 H   0  0  0  0  0  0  0  0  0  0  0  0
   57.7530   31.0506   46.1180 H   0  0  0  0  0  0  0  0  0  0  0  0
   59.5010   33.1180   45.2510 H   0  0  0  0  0  0  0  0  0  0  0  0
   58.0391   34.4807   46.6869 H   0  0  0  0  0  0  0  0  0  0  0  0
   58.4583   33.3460   48.0276 H   0  0  0  0  0  0  0  0  0  0  0  0
   60.3135   35.2094   46.4792 H   0  0  0  0  0  0  0  0  0  0  0  0
   59.9371   35.1898   48.2546 H   0  0  0  0  0  0  0  0  0  0  0  0
   62.4881   35.2608   48.4250 H   0  0  0  0  0  0  0  0  0  0  0  0
   64.4806   33.8020   48.7756 H   0  0  0  0  0  0  0  0  0  0  0  0
   64.3901   31.3898   48.1454 H   0  0  0  0  0  0  0  0  0  0  0  0
   62.3086   30.4304   47.1625 H   0  0  0  0  0  0  0  0  0  0  0  0
   60.2129   30.9713   45.8959 H   0  0  0  0  0  0  0  0  0  0  0  0
   59.4280   31.2136   47.5168 H   0  0  0  0  0  0  0  0  0  0  0  0
  1  2  1  0
  2  3  1  0
  3  4  1  0
  4  5  2  0
  5  6  1  0
  6  7  2  0
  7  8  1  0
  8  9  1  0
  9 10  1  0
 10 11  1  0
 11 12  1  0
 12 13  2  0
 13 14  1  0
 14 15  2  0
 15 16  1  0
 16 17  2  0
 17 18  1  0
  7  3  1  0
 18  9  1  0
 17 12  1  0
  1 19  1  0
  1 20  1  0
  1 21  1  0
  2 22  1  0
  2 23  1  0
  4 24  1  0
  5 25  1  0
  8 26  1  0
  8 27  1  0
  9 28  1  6
 10 29  1  0
 10 30  1  0
 11 31  1  0
 11 32  1  0
 13 33  1  0
 14 34  1  0
 15 35  1  0
 16 36  1  0
 18 37  1  0
 18 38  1  0
M  CHG  1   9   1
M  END
>  <UniqueID>  (20) 
20

>  <SMILES>  (20) 
CCn1ccnc1C[N@H+]1CCc2ccccc2C1

>  <Energy>  (20) 
68.51908664240835

>  <Genealogy>  (20) 
CCn1ccnc1C[NH+]1CCc2ccccc2C1 (protonated)
CCn1ccnc1C[N@H+]1CCc2ccccc2C1 (chirality)
CCn1ccnc1C[N@H+]1CCc2ccccc2C1 (3D coordinates assigned)
CCn1ccnc1C[N@H+]1CCc2ccccc2C1 (nonaromatic ring conformer: 68.51908664240835 kcal/mol)

>  <smiles>  (20) 
CCn1ccnc1CN1CCc2ccccc2C1

>  <score_type>  (20) 
oracle

>  <origin>  (20) 
adg

>  <m_score__min__energy>  (20) 
-5.5199999999999996

>  <m_primary>  (20) 
energy

$$$$
20:0
     RDKit          3D

 40 42  0  0  0  0  0  0  0  0999 V2000
   57.0160   20.7770   42.9990 C   0  0  0  0  0  0  0  0  0  0  0  0
   56.0770   21.5800   43.7070 O   0  0  0  0  0  0  0  0  0  0  0  0
   56.3300   22.8840   44.1580 C   0  0  0  0  0  0  0  0  0  0  0  0
   55.9400   23.2220   45.4600 C   0  0  0  0  0  0  0  0  0  0  0  0
   56.1660   24.5060   45.9610 C   0  0  0  0  0  0  0  0  0  0  0  0
   56.7870   25.4770   45.1630 C   0  0  0  0  0  0  0  0  0  0  0  0
   57.0180   26.7700   45.6590 C   0  0  0  0  0  0  0  0  0  0  0  0
   57.6380   27.7440   44.8560 C   0  0  0  0  0  0  0  0  0  0  0  0
   57.8940   29.1130   45.3640 C   0  0  0  0  0  0  0  0  0  0  0  0
   57.8500   29.3200   46.6080 O   0  0  0  0  0  0  0  0  0  0  0  0
   58.1830   30.1990   44.4650 N   0  0  0  0  0  0  0  0  0  0  0  0
   58.4750   31.5380   44.9020 C   0  0  0  0  0  0  0  0  0  0  0  0
   59.1650   31.7660   46.1060 C   0  0  0  0  0  0  0  0  0  0  0  0
   59.4710   33.0670   46.5100 C   0  0  0  0  0  0  0  0  0  0  0  0
   59.1020   34.1520   45.7130 C   0  0  0  0  0  0  0  0  0  0  0  0
   58.4340   33.9390   44.5050 C   0  0  0  0  0  0  0  0  0  0  0  0
   58.1180   32.6300   44.0870 C   0  0  0  0  0  0  0  0  0  0  0  0
   57.4480   32.3800   42.8780 O   0  0  0  0  0  0  0  0  0  0  0  0
   58.0750   32.3380   41.6000 C   0  0  0  0  0  0  0  0  0  0  0  0
   58.0440   27.3990   43.5550 C   0  0  0  0  0  0  0  0  0  0  0  0
   57.8170   26.1150   43.0540 C   0  0  0  0  0  0  0  0  0  0  0  0
   57.1880   25.1470   43.8480 C   0  0  0  0  0  0  0  0  0  0  0  0
   56.9560   23.8540   43.3520 C   0  0  0  0  0  0  0  0  0  0  0  0
   57.6497   20.2351   43.7165 H   0  0  0  0  0  0  0  0  0  0  0  0
   56.4781   20.0552   42.3668 H   0  0  0  0  0  0  0  0  0  0  0  0
   57.6456   21.4204   42.3668 H   0  0  0  0  0  0  0  0  0  0  0  0
   55.4506   22.4684   46.0946 H   0  0  0  0  0  0  0  0  0  0  0  0
   55.8554   24.7564   46.9861 H   0  0  0  0  0  0  0  0  0  0  0  0
   56.7114   27.0234   46.6846 H   0  0  0  0  0  0  0  0  0  0  0  0
   58.1440   30.0320   43.4350 H   0  0  0  0  0  0  0  0  0  0  0  0
   59.4655   30.9140   46.7335 H   0  0  0  0  0  0  0  0  0  0  0  0
   60.0034   33.2372   47.4574 H   0  0  0  0  0  0  0  0  0  0  0  0
   59.3377   35.1765   46.0369 H   0  0  0  0  0  0  0  0  0  0  0  0
   58.1530   34.7969   43.8765 H   0  0  0  0  0  0  0  0  0  0  0  0
   59.1650   32.2650   41.7286 H   0  0  0  0  0  0  0  0  0  0  0  0
   57.7121   31.4622   41.0421 H   0  0  0  0  0  0  0  0  0  0  0  0
   57.8322   33.2544   41.0421 H   0  0  0  0  0  0  0  0  0  0  0  0
   58.5457   28.1481   42.9249 H   0  0  0  0  0  0  0  0  0  0  0  0
   58.1336   25.8626   42.0312 H   0  0  0  0  0  0  0  0  0  0  0  0
   57.2651   23.5975   42.3280 H   0  0  0  0  0  0  0  0  0  0  0  0
  1  2  1  0
  2  3  1  0
  3  4  2  0
  4  5  1  0
  5  6  2  0
  6  7  1  0
  7  8  2  0
  8  9  1  0
  9 10  2  0
  9 11  1  0
 11 12  1  0
 12 13  2  0
 13 14  1  0
 14 15  2  0
 15 16  1  0
 16 17  2  0
 17 18  1  0
 18 19  1  0
  8 20  1  0
 20 21  2  0
 21 22  1  0
 22 23  2  0
 23  3  1  0
 22  6  1  0
 17 12  1  0
  1 24  1  0
  1 25  1  0
  1 26  1  0
  4 27  1  0
  5 28  1  0
  7 29  1  0
 11 30  1  0
 13 31  1  0
 14 32  1  0
 15 33  1  0
 16 34  1  0
 19 35  1  0
 19 36  1  0
 19 37  1  0
 20 38  1  0
 21 39  1  0
 23 40  1  0
M  END
>  <UniqueID>  (21) 
21

>  <SMILES>  (21) 
COc1ccc2cc(C(=O)Nc3ccccc3OC)ccc2c1

>  <Energy>  (21) 
51.80883358687227

>  <Genealogy>  (21) 
COc1ccc2cc(C(=O)Nc3ccccc3OC)ccc2c1 (3D coordinates assigned)
COc1ccc2cc(C(=O)Nc3ccccc3OC)ccc2c1 (optimized conformer: 51.80883358687227 kcal/mol)

>  <smiles>  (21) 
COc1ccc2cc(C(=O)Nc3ccccc3OC)ccc2c1

>  <score_type>  (21) 
oracle

>  <origin>  (21) 
adg

>  <m_score__min__energy>  (21) 
-7.0199999999999996

>  <m_primary>  (21) 
energy

$$$$
21:0
     RDKit          3D

 39 41  0  0  0  0  0  0  0  0999 V2000
   54.4100   25.0430   45.6090 C   0  0  0  0  0  0  0  0  0  0  0  0
   54.8840   26.3460   45.9320 O   0  0  0  0  0  0  0  0  0  0  0  0
   56.2390   26.6840   46.0780 C   0  0  0  0  0  0  0  0  0  0  0  0
   57.1650   25.8090   46.6810 C   0  0  0  0  0  0  0  0  0  0  0  0
   58.4940   26.1960   46.8480 C   0  0  0  0  0  0  0  0  0  0  0  0
   58.9150   27.4560   46.4240 C   0  0  0  0  0  0  0  0  0  0  0  0
   58.0100   28.3310   45.8190 C   0  0  0  0  0  0  0  0  0  0  0  0
   56.6690   27.9430   45.6200 C   0  0  0  0  0  0  0  0  0  0  0  0
   55.6860   28.8360   45.0690 N   0  0  0  0  0  0  0  0  0  0  0  0
   55.8600   29.8440   44.0650 C   0  0  0  0  0  0  0  0  0  0  0  0
   55.6500   29.5970   42.8480 O   0  0  0  0  0  0  0  0  0  0  0  0
   56.3030   31.2120   44.4800 C   0  0  0  0  0  0  0  0  0  0  0  0
   57.7790   31.7520   43.5420 S   0  0  0  0  0  0  0  0  0  0  0  0
   58.5060   32.6930   44.8880 C   0  0  0  0  0  0  0  0  0  0  0  0
   58.7410   34.0830   44.7400 C   0  0  0  0  0  0  0  0  0  0  0  0
   59.1990   34.8500   45.8280 C   0  0  0  0  0  0  0  0  0  0  0  0
   59.4070   34.1920   47.0370 C   0  0  0  0  0  0  0  0  0  0  0  0
   59.7540   34.6910   48.1970 O   0  0  0  0  0  0  0  0  0  0  0  0
   59.7740   33.6690   49.0380 C   0  0  0  0  0  0  0  0  0  0  0  0
   60.0660   33.8020   50.4940 C   0  0  0  0  0  0  0  0  0  0  0  0
   59.4450   32.4960   48.4440 N   0  0  0  0  0  0  0  0  0  0  0  0
   59.2210   32.8480   47.1700 C   0  0  0  0  0  0  0  0  0  0  0  0
   58.7780   32.0540   46.1150 C   0  0  0  0  0  0  0  0  0  0  0  0
   54.2075   24.4863   46.5359 H   0  0  0  0  0  0  0  0  0  0  0  0
   53.4841   25.1250   45.0208 H   0  0  0  0  0  0  0  0  0  0  0  0
   55.1722   24.5109   45.0208 H   0  0  0  0  0  0  0  0  0  0  0  0
   56.8374   24.8157   47.0216 H   0  0  0  0  0  0  0  0  0  0  0  0
   59.2120   25.5059   47.3152 H   0  0  0  0  0  0  0  0  0  0  0  0
   59.9621   27.7614   46.5663 H   0  0  0  0  0  0  0  0  0  0  0  0
   58.3450   29.3278   45.4961 H   0  0  0  0  0  0  0  0  0  0  0  0
   55.4840   31.9235   44.2983 H   0  0  0  0  0  0  0  0  0  0  0  0
   56.5649   31.1810   45.5479 H   0  0  0  0  0  0  0  0  0  0  0  0
   58.5642   34.5660   43.7677 H   0  0  0  0  0  0  0  0  0  0  0  0
   59.3856   35.9293   45.7266 H   0  0  0  0  0  0  0  0  0  0  0  0
   59.2161   33.4149   51.0753 H   0  0  0  0  0  0  0  0  0  0  0  0
   60.9709   33.2273   50.7405 H   0  0  0  0  0  0  0  0  0  0  0  0
   60.2264   34.8620   50.7405 H   0  0  0  0  0  0  0  0  0  0  0  0
   59.3550   31.5500   48.8790 H   0  0  0  0  0  0  0  0  0  0  0  0
   58.6452   30.9686   46.2346 H   0  0  0  0  0  0  0  0  0  0  0  0
  1  2  1  0
  2  3  1  0
  3  4  2  0
  4  5  1  0
  5  6  2  0
  6  7  1  0
  7  8  2  0
  8  9  1  0
  9 10  1  0
 10 11  2  0
 10 12  1  0
 12 13  1  0
 13 14  1  0
 14 15  2  0
 15 16  1  0
 16 17  2  0
 17 18  1  0
 18 19  1  0
 19 20  1  0
 19 21  2  0
 21 22  1  0
 22 23  2  0
  8  3  1  0
 23 14  1  0
 22 17  1  0
  1 24  1  0
  1 25  1  0
  1 26  1  0
  4 27  1  0
  5 28  1  0
  6 29  1  0
  7 30  1  0
 12 31  1  0
 12 32  1  0
 15 33  1  0
 16 34  1  0
 20 35  1  0
 20 36  1  0
 20 37  1  0
 21 38  1  0
 23 39  1  0
M  CHG  2   9  -1  21   1
M  END
>  <UniqueID>  (22) 
22

>  <SMILES>  (22) 
COc1ccccc1[N-]C(=O)CSc1ccc2oc(C)[nH+]c2c1

>  <Energy>  (22) 
72.97245073700569

>  <Genealogy>  (22) 
COc1ccccc1[N-]C(=O)CSc1ccc2oc(C)[nH+]c2c1 (protonated)
COc1ccccc1[N-]C(=O)CSc1ccc2oc(C)[nH+]c2c1 (3D coordinates assigned)
COc1ccccc1[N-]C(=O)CSc1ccc2oc(C)[nH+]c2c1 (optimized conformer: 72.97245073700569 kcal/mol)

>  <smiles>  (22) 
COc1ccccc1NC(=O)CSc1ccc2oc(C)nc2c1

>  <score_type>  (22) 
oracle

>  <origin>  (22) 
adg

>  <m_score__min__energy>  (22) 
-9.1099999999999994

>  <m_primary>  (22) 
energy

$$$$
22:0
     RDKit          3D

 40 42  0  0  0  0  0  0  0  0999 V2000
   54.0840   25.0190   45.6030 C   0  0  0  0  0  0  0  0  0  0  0  0
   54.7870   26.2260   45.8780 O   0  0  0  0  0  0  0  0  0  0  0  0
   56.1730   26.3080   46.0950 C   0  0  0  0  0  0  0  0  0  0  0  0
   56.9120   25.2260   46.6160 C   0  0  0  0  0  0  0  0  0  0  0  0
   58.2900   25.3420   46.8090 C   0  0  0  0  0  0  0  0  0  0  0  0
   58.9460   26.5280   46.4770 C   0  0  0  0  0  0  0  0  0  0  0  0
   58.2250   27.6060   45.9610 C   0  0  0  0  0  0  0  0  0  0  0  0
   56.8310   27.5100   45.7840 C   0  0  0  0  0  0  0  0  0  0  0  0
   56.0690   28.5930   45.2320 N   0  0  0  0  0  0  0  0  0  0  0  0
   56.4420   29.4200   44.1220 C   0  0  0  0  0  0  0  0  0  0  0  0
   56.9140   28.9130   43.0690 O   0  0  0  0  0  0  0  0  0  0  0  0
   56.2770   30.9010   44.2220 C   0  0  0  0  0  0  0  0  0  0  0  0
   57.4340   31.4950   44.9770 C   0  0  0  0  0  0  0  0  0  0  0  0
   58.4360   30.6660   45.5020 C   0  0  0  0  0  0  0  0  0  0  0  0
   59.4910   31.2130   46.2380 C   0  0  0  0  0  0  0  0  0  0  0  0
   59.5600   32.5990   46.4680 C   0  0  0  0  0  0  0  0  0  0  0  0
   60.6490   33.1640   47.2280 N   0  0  0  0  0  0  0  0  0  0  0  0
   61.9500   33.1950   46.8690 C   0  0  0  0  0  0  0  0  0  0  0  0
   62.6950   33.8160   47.8500 C   0  0  0  0  0  0  0  0  0  0  0  0
   61.8130   34.1780   48.8470 C   0  0  0  0  0  0  0  0  0  0  0  0
   60.5630   33.7630   48.4360 C   0  0  0  0  0  0  0  0  0  0  0  0
   58.5450   33.4240   45.9480 C   0  0  0  0  0  0  0  0  0  0  0  0
   57.4900   32.8760   45.2150 C   0  0  0  0  0  0  0  0  0  0  0  0
   53.8021   24.5350   46.5497 H   0  0  0  0  0  0  0  0  0  0  0  0
   53.1772   25.2467   45.0234 H   0  0  0  0  0  0  0  0  0  0  0  0
   54.7294   24.3426   45.0234 H   0  0  0  0  0  0  0  0  0  0  0  0
   56.4006   24.2863   46.8716 H   0  0  0  0  0  0  0  0  0  0  0  0
   58.8594   24.4970   47.2235 H   0  0  0  0  0  0  0  0  0  0  0  0
   60.0330   26.6135   46.6222 H   0  0  0  0  0  0  0  0  0  0  0  0
   58.7481   28.5353   45.6912 H   0  0  0  0  0  0  0  0  0  0  0  0
   56.2408   31.3331   43.2111 H   0  0  0  0  0  0  0  0  0  0  0  0
   55.3421   31.1260   44.7562 H   0  0  0  0  0  0  0  0  0  0  0  0
   58.3915   29.5799   45.3337 H   0  0  0  0  0  0  0  0  0  0  0  0
   60.2741   30.5538   46.6408 H   0  0  0  0  0  0  0  0  0  0  0  0
   62.3562   32.7855   45.9323 H   0  0  0  0  0  0  0  0  0  0  0  0
   63.7813   33.9889   47.8393 H   0  0  0  0  0  0  0  0  0  0  0  0
   62.0582   34.6961   49.7859 H   0  0  0  0  0  0  0  0  0  0  0  0
   59.6332   33.8997   49.0077 H   0  0  0  0  0  0  0  0  0  0  0  0
   58.5830   34.5097   46.1204 H   0  0  0  0  0  0  0  0  0  0  0  0
   56.6986   33.5312   44.8222 H   0  0  0  0  0  0  0  0  0  0  0  0
  1  2  1  0
  2  3  1  0
  3  4  2  0
  4  5  1  0
  5  6  2  0
  6  7  1  0
  7  8  2  0
  8  9  1  0
  9 10  1  0
 10 11  2  0
 10 12  1  0
 12 13  1  0
 13 14  2  0
 14 15  1  0
 15 16  2  0
 16 17  1  0
 17 18  1  0
 18 19  2  0
 19 20  1  0
 20 21  2  0
 16 22  1  0
 22 23  2  0
  8  3  1  0
 23 13  1  0
 21 17  1  0
  1 24  1  0
  1 25  1  0
  1 26  1  0
  4 27  1  0
  5 28  1  0
  6 29  1  0
  7 30  1  0
 12 31  1  0
 12 32  1  0
 14 33  1  0
 15 34  1  0
 18 35  1  0
 19 36  1  0
 20 37  1  0
 21 38  1  0
 22 39  1  0
 23 40  1  0
M  CHG  1   9  -1
M  END
>  <UniqueID>  (23) 
23

>  <SMILES>  (23) 
COc1ccccc1[N-]C(=O)Cc1ccc(-n2cccc2)cc1

>  <Energy>  (23) 
72.50866371149947

>  <Genealogy>  (23) 
COc1ccccc1[N-]C(=O)Cc1ccc(-n2cccc2)cc1 (protonated)
COc1ccccc1[N-]C(=O)Cc1ccc(-n2cccc2)cc1 (3D coordinates assigned)
COc1ccccc1[N-]C(=O)Cc1ccc(-n2cccc2)cc1 (optimized conformer: 72.50866371149947 kcal/mol)

>  <smiles>  (23) 
COc1ccccc1NC(=O)Cc1ccc(-n2cccc2)cc1

>  <score_type>  (23) 
oracle

>  <origin>  (23) 
adg

>  <m_score__min__energy>  (23) 
-10.1

>  <m_primary>  (23) 
energy

$$$$
23:0
     RDKit          3D

 35 37  0  0  1  0  0  0  0  0999 V2000
   60.1460   27.2490   48.0470 C   0  0  0  0  0  0  0  0  0  0  0  0
   59.8210   28.6280   47.6640 C   0  0  0  0  0  0  0  0  0  0  0  0
   60.6400   29.6100   48.0430 N   0  0  0  0  0  0  0  0  0  0  0  0
   60.3750   30.9250   47.7040 C   0  0  0  0  0  0  0  0  0  0  0  0
   61.2520   32.3620   48.0620 S   0  0  0  0  0  0  0  0  0  0  0  0
   60.1120   33.4370   47.2100 C   0  0  0  0  0  0  0  0  0  0  0  0
   59.1530   32.6120   46.7210 C   0  0  0  0  0  0  0  0  0  0  0  0
   59.2920   31.3000   46.9800 C   0  0  0  0  0  0  0  0  0  0  0  0
   58.4410   30.2360   46.5910 C   0  0  0  0  0  0  0  0  0  0  0  0
   57.3840   30.4150   45.9120 N   0  0  0  0  0  0  0  0  0  0  0  0
   57.2450   30.3820   44.4920 C   0  0  0  0  0  0  0  0  0  0  0  0
   55.9640   29.6790   44.0940 C   0  0  0  0  0  0  0  0  0  0  0  0
   55.1540   29.3290   45.1420 O   0  0  0  0  0  0  0  0  0  0  0  0
   58.7410   28.9740   46.9450 N   0  0  0  0  0  0  0  0  0  0  0  0
   58.0590   33.3490   45.9390 C   0  0  0  0  0  0  0  0  0  0  0  0
   58.7250   34.3240   44.9910 C   0  0  0  0  0  0  0  0  0  0  0  0
   59.6120   35.3190   45.6610 C   0  0  0  0  0  0  0  0  0  0  0  0
   60.1090   34.9310   47.0150 C   0  0  0  0  0  0  0  0  0  0  0  0
   60.1651   27.1679   49.1438 H   0  0  0  0  0  0  0  0  0  0  0  0
   59.3840   26.5667   47.6421 H   0  0  0  0  0  0  0  0  0  0  0  0
   61.1324   26.9788   47.6421 H   0  0  0  0  0  0  0  0  0  0  0  0
   57.2256   31.4124   44.1074 H   0  0  0  0  0  0  0  0  0  0  0  0
   58.0968   29.8310   44.0667 H   0  0  0  0  0  0  0  0  0  0  0  0
   55.3968   30.3494   43.4315 H   0  0  0  0  0  0  0  0  0  0  0  0
   56.2636   28.7400   43.6056 H   0  0  0  0  0  0  0  0  0  0  0  0
   55.5640   29.7170   45.9780 H   0  0  0  0  0  0  0  0  0  0  0  0
   58.1110   28.1880   46.6560 H   0  0  0  0  0  0  0  0  0  0  0  0
   57.4593   32.6255   45.3673 H   0  0  0  0  0  0  0  0  0  0  0  0
   57.3963   33.8879   46.6321 H   0  0  0  0  0  0  0  0  0  0  0  0
   59.3304   33.7495   44.2744 H   0  0  0  0  0  0  0  0  0  0  0  0
   57.9190   34.8947   44.5066 H   0  0  0  0  0  0  0  0  0  0  0  0
   60.4861   35.4832   45.0137 H   0  0  0  0  0  0  0  0  0  0  0  0
   58.9960   36.2177   45.8124 H   0  0  0  0  0  0  0  0  0  0  0  0
   61.1355   35.3069   47.1374 H   0  0  0  0  0  0  0  0  0  0  0  0
   59.4321   35.3693   47.7631 H   0  0  0  0  0  0  0  0  0  0  0  0
  1  2  1  0
  2  3  2  0
  3  4  1  0
  4  5  1  0
  5  6  1  0
  6  7  2  0
  7  8  1  0
  8  9  1  0
  9 10  2  0
 10 11  1  0
 11 12  1  0
 12 13  1  0
  9 14  1  0
  7 15  1  0
 15 16  1  0
 16 17  1  0
 17 18  1  0
 14  2  1  0
  8  4  2  0
 18  6  1  0
  1 19  1  0
  1 20  1  0
  1 21  1  0
 11 22  1  0
 11 23  1  0
 12 24  1  0
 12 25  1  0
 13 26  1  0
 14 27  1  0
 15 28  1  0
 15 29  1  0
 16 30  1  0
 16 31  1  0
 17 32  1  0
 17 33  1  0
 18 34  1  0
 18 35  1  0
M  END
>  <smiles>  (24) 
Cc1nc2sc3c(c2c(=NCCO)[nH]1)CCCC3

>  <score_type>  (24) 
oracle

>  <origin>  (24) 
adg

>  <m_score__min__energy>  (24) 
-7.5499999999999998

>  <m_primary>  (24) 
energy

$$$$
24:0
     RDKit          3D

 48 50  0  0  0  0  0  0  0  0999 V2000
   56.0210   27.8420   45.5810 O   0  0  0  0  0  0  0  0  0  0  0  0
   56.2380   26.6340   45.8610 C   0  0  0  0  0  0  0  0  0  0  0  0
   57.6470   26.1650   46.1310 C   0  0  0  0  0  0  0  0  0  0  0  0
   58.2900   26.8830   47.3260 C   0  0  0  0  0  0  0  0  0  0  0  0
   58.6420   28.2700   46.9580 N   0  0  0  0  0  0  0  0  0  0  0  0
   58.9270   29.0820   48.1650 C   0  0  0  0  0  0  0  0  0  0  0  0
   59.6690   30.3970   47.8440 C   0  0  0  0  0  0  0  0  0  0  0  0
   59.5460   30.7330   46.4210 N   0  0  0  0  0  0  0  0  0  0  0  0
   59.0670   32.0290   46.0130 C   0  0  0  0  0  0  0  0  0  0  0  0
   59.7990   33.1830   46.3430 C   0  0  0  0  0  0  0  0  0  0  0  0
   59.3330   34.4470   45.9690 C   0  0  0  0  0  0  0  0  0  0  0  0
   58.1340   34.5700   45.2650 C   0  0  0  0  0  0  0  0  0  0  0  0
   57.3970   33.4310   44.9340 C   0  0  0  0  0  0  0  0  0  0  0  0
   57.8560   32.1620   45.3060 C   0  0  0  0  0  0  0  0  0  0  0  0
   57.1370   31.0690   44.9500 F   0  0  0  0  0  0  0  0  0  0  0  0
   59.8790   29.7170   45.4150 C   0  0  0  0  0  0  0  0  0  0  0  0
   59.7800   28.3110   46.0190 C   0  0  0  0  0  0  0  0  0  0  0  0
   55.1150   25.7490   45.9880 N   0  0  0  0  0  0  0  0  0  0  0  0
   55.1780   24.3390   46.3660 C   0  0  0  0  0  0  0  0  0  0  0  0
   55.9070   23.5350   45.3200 C   0  0  0  0  0  0  0  0  0  0  0  0
   55.5140   23.6010   43.9720 C   0  0  0  0  0  0  0  0  0  0  0  0
   56.1950   22.8620   43.0010 C   0  0  0  0  0  0  0  0  0  0  0  0
   57.2680   22.0450   43.3670 C   0  0  0  0  0  0  0  0  0  0  0  0
   57.6610   21.9650   44.7060 C   0  0  0  0  0  0  0  0  0  0  0  0
   56.9850   22.7040   45.6820 C   0  0  0  0  0  0  0  0  0  0  0  0
   57.3800   22.6100   46.9770 F   0  0  0  0  0  0  0  0  0  0  0  0
   57.6249   25.0851   46.3392 H   0  0  0  0  0  0  0  0  0  0  0  0
   58.2507   26.3945   45.2406 H   0  0  0  0  0  0  0  0  0  0  0  0
   57.5796   26.8989   48.1657 H   0  0  0  0  0  0  0  0  0  0  0  0
   59.2044   26.3458   47.6182 H   0  0  0  0  0  0  0  0  0  0  0  0
   57.9736   29.3279   48.6555 H   0  0  0  0  0  0  0  0  0  0  0  0
   59.5814   28.4849   48.8171 H   0  0  0  0  0  0  0  0  0  0  0  0
   59.2366   31.2106   48.4449 H   0  0  0  0  0  0  0  0  0  0  0  0
   60.7346   30.2671   48.0839 H   0  0  0  0  0  0  0  0  0  0  0  0
   60.7439   33.0909   46.8987 H   0  0  0  0  0  0  0  0  0  0  0  0
   59.9118   35.3453   46.2298 H   0  0  0  0  0  0  0  0  0  0  0  0
   57.7693   35.5652   44.9706 H   0  0  0  0  0  0  0  0  0  0  0  0
   56.4526   33.5313   44.3791 H   0  0  0  0  0  0  0  0  0  0  0  0
   59.1775   29.7990   44.5717 H   0  0  0  0  0  0  0  0  0  0  0  0
   60.9096   29.8837   45.0684 H   0  0  0  0  0  0  0  0  0  0  0  0
   59.6226   27.5752   45.2166 H   0  0  0  0  0  0  0  0  0  0  0  0
   60.7110   28.0697   46.5529 H   0  0  0  0  0  0  0  0  0  0  0  0
   55.7077   24.2465   47.3256 H   0  0  0  0  0  0  0  0  0  0  0  0
   54.1521   23.9524   46.4553 H   0  0  0  0  0  0  0  0  0  0  0  0
   54.6659   24.2377   43.6799 H   0  0  0  0  0  0  0  0  0  0  0  0
   55.8860   22.9235   41.9471 H   0  0  0  0  0  0  0  0  0  0  0  0
   57.8035   21.4647   42.6012 H   0  0  0  0  0  0  0  0  0  0  0  0
   58.5040   21.3192   44.9927 H   0  0  0  0  0  0  0  0  0  0  0  0
  1  2  2  0
  2  3  1  0
  3  4  1  0
  4  5  1  0
  5  6  1  0
  6  7  1  0
  7  8  1  0
  8  9  1  0
  9 10  2  0
 10 11  1  0
 11 12  2  0
 12 13  1  0
 13 14  2  0
 14 15  1  0
  8 16  1  0
 16 17  1  0
  2 18  1  0
 18 19  1  0
 19 20  1  0
 20 21  2  0
 21 22  1  0
 22 23  2  0
 23 24  1  0
 24 25  2  0
 25 26  1  0
 17  5  1  0
 25 20  1  0
 14  9  1  0
  3 27  1  0
  3 28  1  0
  4 29  1  0
  4 30  1  0
  6 31  1  0
  6 32  1  0
  7 33  1  0
  7 34  1  0
 10 35  1  0
 11 36  1  0
 12 37  1  0
 13 38  1  0
 16 39  1  0
 16 40  1  0
 17 41  1  0
 17 42  1  0
 19 43  1  0
 19 44  1  0
 21 45  1  0
 22 46  1  0
 23 47  1  0
 24 48  1  0
M  CHG  1  18  -1
M  END
>  <UniqueID>  (25) 
24

>  <SMILES>  (25) 
O=C(CCN1CCN(c2ccccc2F)CC1)[N-]Cc1ccccc1F

>  <Energy>  (25) 
57.41407182462407

>  <Genealogy>  (25) 
O=C(CCN1CCN(c2ccccc2F)CC1)[N-]Cc1ccccc1F (protonated)
O=C(CCN1CCN(c2ccccc2F)CC1)[N-]Cc1ccccc1F (3D coordinates assigned)
O=C(CCN1CCN(c2ccccc2F)CC1)[N-]Cc1ccccc1F (nonaromatic ring conformer: 57.41407182462407 kcal/mol)

>  <smiles>  (25) 
O=C(CCN1CCN(c2ccccc2F)CC1)NCc1ccccc1F

>  <score_type>  (25) 
oracle

>  <origin>  (25) 
adg

>  <m_score__min__energy>  (25) 
-9.6999999999999993

>  <m_primary>  (25) 
energy

$$$$
25:0
     RDKit          3D

 36 39  0  0  0  0  0  0  0  0999 V2000
   65.0970   32.9650   49.6290 F   0  0  0  0  0  0  0  0  0  0  0  0
   64.0290   32.3840   49.0310 C   0  0  0  0  0  0  0  0  0  0  0  0
   63.6870   32.7250   47.7230 C   0  0  0  0  0  0  0  0  0  0  0  0
   62.5840   32.1150   47.1230 C   0  0  0  0  0  0  0  0  0  0  0  0
   61.8210   31.1710   47.8340 C   0  0  0  0  0  0  0  0  0  0  0  0
   60.6520   30.5220   47.1880 C   0  0  0  0  0  0  0  0  0  0  0  0
   60.4090   29.1260   47.3050 C   0  0  0  0  0  0  0  0  0  0  0  0
   59.2810   28.5530   46.6930 C   0  0  0  0  0  0  0  0  0  0  0  0
   58.4420   29.4070   45.9930 C   0  0  0  0  0  0  0  0  0  0  0  0
   57.3040   29.1000   45.3430 N   0  0  0  0  0  0  0  0  0  0  0  0
   56.8420   30.2470   44.8440 N   0  0  0  0  0  0  0  0  0  0  0  0
   57.7070   31.2260   45.2030 C   0  0  0  0  0  0  0  0  0  0  0  0
   57.5470   32.6720   44.8440 C   0  0  0  0  0  0  0  0  0  0  0  0
   57.3560   33.4570   46.0200 O   0  0  0  0  0  0  0  0  0  0  0  0
   58.2310   33.5040   47.1200 C   0  0  0  0  0  0  0  0  0  0  0  0
   58.0250   32.7300   48.2810 C   0  0  0  0  0  0  0  0  0  0  0  0
   58.9190   32.8130   49.3520 C   0  0  0  0  0  0  0  0  0  0  0  0
   60.0260   33.6600   49.2770 C   0  0  0  0  0  0  0  0  0  0  0  0
   60.2420   34.4270   48.1300 C   0  0  0  0  0  0  0  0  0  0  0  0
   59.3510   34.3500   47.0540 C   0  0  0  0  0  0  0  0  0  0  0  0
   59.6460   35.3270   45.6250 Cl  0  0  0  0  0  0  0  0  0  0  0  0
   58.7120   30.7080   45.9190 N   0  0  0  0  0  0  0  0  0  0  0  0
   59.7670   31.2890   46.4830 N   0  0  0  0  0  0  0  0  0  0  0  0
   62.2130   30.8550   49.1480 C   0  0  0  0  0  0  0  0  0  0  0  0
   63.2940   31.4620   49.7070 N   0  0  0  0  0  0  0  0  0  0  0  0
   64.2805   33.4674   47.1693 H   0  0  0  0  0  0  0  0  0  0  0  0
   62.3102   32.3737   46.0895 H   0  0  0  0  0  0  0  0  0  0  0  0
   61.1050   28.4934   47.8754 H   0  0  0  0  0  0  0  0  0  0  0  0
   59.0729   27.4753   46.7660 H   0  0  0  0  0  0  0  0  0  0  0  0
   58.4503   33.0177   44.3199 H   0  0  0  0  0  0  0  0  0  0  0  0
   56.6672   32.7834   44.1932 H   0  0  0  0  0  0  0  0  0  0  0  0
   57.1565   32.0578   48.3438 H   0  0  0  0  0  0  0  0  0  0  0  0
   58.7499   32.2096   50.2560 H   0  0  0  0  0  0  0  0  0  0  0  0
   60.7282   33.7234   50.1213 H   0  0  0  0  0  0  0  0  0  0  0  0
   61.1151   35.0936   48.0724 H   0  0  0  0  0  0  0  0  0  0  0  0
   61.6422   30.1133   49.7259 H   0  0  0  0  0  0  0  0  0  0  0  0
  1  2  1  0
  2  3  2  0
  3  4  1  0
  4  5  2  0
  5  6  1  0
  6  7  1  0
  7  8  2  0
  8  9  1  0
  9 10  2  0
 10 11  1  0
 11 12  2  0
 12 13  1  0
 13 14  1  0
 14 15  1  0
 15 16  2  0
 16 17  1  0
 17 18  2  0
 18 19  1  0
 19 20  2  0
 20 21  1  0
 12 22  1  0
 22 23  1  0
  5 24  1  0
 24 25  2  0
 25  2  1  0
 23  6  2  0
 22  9  1  0
 20 15  1  0
  3 26  1  0
  4 27  1  0
  7 28  1  0
  8 29  1  0
 13 30  1  0
 13 31  1  0
 16 32  1  0
 17 33  1  0
 18 34  1  0
 19 35  1  0
 24 36  1  0
M  END
>  <UniqueID>  (26) 
25

>  <SMILES>  (26) 
Fc1ccc(-c2ccc3nnc(COc4ccccc4Cl)n3n2)cn1

>  <Energy>  (26) 
88.04448247366172

>  <Genealogy>  (26) 
Fc1ccc(-c2ccc3nnc(COc4ccccc4Cl)n3n2)cn1 (3D coordinates assigned)
Fc1ccc(-c2ccc3nnc(COc4ccccc4Cl)n3n2)cn1 (optimized conformer: 88.04448247366172 kcal/mol)

>  <smiles>  (26) 
Fc1ccc(-c2ccc3nnc(COc4ccccc4Cl)n3n2)cn1

>  <score_type>  (26) 
oracle

>  <origin>  (26) 
adg

>  <m_score__min__energy>  (26) 
-8.0700000000000003

>  <m_primary>  (26) 
energy

$$$$
26:0
     RDKit          3D

 37 39  0  0  0  0  0  0  0  0999 V2000
   57.9260   32.2620   42.1390 C   0  0  0  0  0  0  0  0  0  0  0  0
   57.0170   31.2100   42.7620 C   0  0  0  0  0  0  0  0  0  0  0  0
   57.4820   30.8650   44.1090 N   0  0  0  0  0  0  0  0  0  0  0  0
   57.5080   31.6550   45.2190 C   0  0  0  0  0  0  0  0  0  0  0  0
   57.1020   33.1060   45.2330 C   0  0  0  0  0  0  0  0  0  0  0  0
   57.6070   33.7900   46.4250 N   0  0  0  0  0  0  0  0  0  0  0  0
   58.9730   33.7260   46.8820 C   0  0  0  0  0  0  0  0  0  0  0  0
   60.0140   33.8970   45.9540 C   0  0  0  0  0  0  0  0  0  0  0  0
   61.3490   33.8340   46.3630 C   0  0  0  0  0  0  0  0  0  0  0  0
   61.6610   33.5980   47.7070 C   0  0  0  0  0  0  0  0  0  0  0  0
   63.0360   33.5310   48.1280 C   0  0  0  0  0  0  0  0  0  0  0  0
   64.1410   33.4770   48.4660 N   0  0  0  0  0  0  0  0  0  0  0  0
   60.6320   33.4260   48.6400 C   0  0  0  0  0  0  0  0  0  0  0  0
   59.2960   33.4900   48.2330 C   0  0  0  0  0  0  0  0  0  0  0  0
   57.9960   31.0040   46.3070 N   0  0  0  0  0  0  0  0  0  0  0  0
   58.2470   29.7620   45.8610 C   0  0  0  0  0  0  0  0  0  0  0  0
   58.7400   28.6690   46.5630 C   0  0  0  0  0  0  0  0  0  0  0  0
   58.9000   27.4940   45.8850 N   0  0  0  0  0  0  0  0  0  0  0  0
   58.5900   27.3740   44.5540 C   0  0  0  0  0  0  0  0  0  0  0  0
   58.0900   28.4770   43.8360 C   0  0  0  0  0  0  0  0  0  0  0  0
   57.9340   29.6700   44.5390 C   0  0  0  0  0  0  0  0  0  0  0  0
   58.4220   32.8361   42.9355 H   0  0  0  0  0  0  0  0  0  0  0  0
   58.6857   31.7675   41.5159 H   0  0  0  0  0  0  0  0  0  0  0  0
   57.3265   32.9420   41.5159 H   0  0  0  0  0  0  0  0  0  0  0  0
   55.9927   31.6063   42.8227 H   0  0  0  0  0  0  0  0  0  0  0  0
   57.0363   30.3060   42.1356 H   0  0  0  0  0  0  0  0  0  0  0  0
   57.5079   33.6000   44.3379 H   0  0  0  0  0  0  0  0  0  0  0  0
   56.0033   33.1582   45.2430 H   0  0  0  0  0  0  0  0  0  0  0  0
   56.9210   34.3530   46.9770 H   0  0  0  0  0  0  0  0  0  0  0  0
   59.7762   34.0821   44.8961 H   0  0  0  0  0  0  0  0  0  0  0  0
   62.1557   33.9701   45.6276 H   0  0  0  0  0  0  0  0  0  0  0  0
   60.8751   33.2399   49.6965 H   0  0  0  0  0  0  0  0  0  0  0  0
   58.4923   33.3553   48.9719 H   0  0  0  0  0  0  0  0  0  0  0  0
   58.1420   31.3730   47.2730 H   0  0  0  0  0  0  0  0  0  0  0  0
   58.9933   28.7474   47.6306 H   0  0  0  0  0  0  0  0  0  0  0  0
   58.7330   26.4097   44.0444 H   0  0  0  0  0  0  0  0  0  0  0  0
   57.8342   28.4005   42.7689 H   0  0  0  0  0  0  0  0  0  0  0  0
  1  2  1  0
  2  3  1  0
  3  4  1  0
  4  5  1  0
  5  6  1  0
  6  7  1  0
  7  8  2  0
  8  9  1  0
  9 10  2  0
 10 11  1  0
 11 12  3  0
 10 13  1  0
 13 14  2  0
  4 15  2  0
 15 16  1  0
 16 17  2  0
 17 18  1  0
 18 19  2  0
 19 20  1  0
 20 21  2  0
 21  3  1  0
 14  7  1  0
 21 16  1  0
  1 22  1  0
  1 23  1  0
  1 24  1  0
  2 25  1  0
  2 26  1  0
  5 27  1  0
  5 28  1  0
  6 29  1  0
  8 30  1  0
  9 31  1  0
 13 32  1  0
 14 33  1  0
 15 34  1  0
 17 35  1  0
 19 36  1  0
 20 37  1  0
M  CHG  1  15   1
M  END
>  <UniqueID>  (27) 
26

>  <SMILES>  (27) 
CCn1c(CNc2ccc(C#N)cc2)[nH+]c2cnccc21

>  <Energy>  (27) 
74.37257890794406

>  <Genealogy>  (27) 
CCn1c(CNc2ccc(C#N)cc2)[nH+]c2cnccc21 (protonated)
CCn1c(CNc2ccc(C#N)cc2)[nH+]c2cnccc21 (3D coordinates assigned)
CCn1c(CNc2ccc(C#N)cc2)[nH+]c2cnccc21 (optimized conformer: 74.37257890794406 kcal/mol)

>  <smiles>  (27) 
CCn1c(CNc2ccc(C#N)cc2)nc2cnccc21

>  <score_type>  (27) 
oracle

>  <origin>  (27) 
adg

>  <m_score__min__energy>  (27) 
-5.0199999999999996

>  <m_primary>  (27) 
energy

$$$$
27:0
     RDKit          3D

 47 48  0  0  0  0  0  0  0  0999 V2000
   59.0230   28.6560   44.7480 C   0  0  0  0  0  0  0  0  0  0  0  0
   57.5240   28.7860   45.0820 C   0  0  0  0  0  0  0  0  0  0  0  0
   57.0440   27.5120   45.8160 C   0  0  0  0  0  0  0  0  0  0  0  0
   57.3610   29.9350   45.9870 N   0  0  0  0  0  0  0  0  0  0  0  0
   56.6670   29.0680   43.8030 C   0  0  0  0  0  0  0  0  0  0  0  0
   56.7170   30.4810   43.1620 C   0  0  0  0  0  0  0  0  0  0  0  0
   57.9620   31.2430   43.3830 N   0  0  0  0  0  0  0  0  0  0  0  0
   57.8290   32.7110   43.2980 C   0  0  0  0  0  0  0  0  0  0  0  0
   57.4830   33.3570   44.6430 C   0  0  0  0  0  0  0  0  0  0  0  0
   57.9030   32.4980   45.7000 O   0  0  0  0  0  0  0  0  0  0  0  0
   59.0460   32.7070   46.4850 C   0  0  0  0  0  0  0  0  0  0  0  0
   59.9960   31.6820   46.5630 C   0  0  0  0  0  0  0  0  0  0  0  0
   61.1530   31.8420   47.3320 C   0  0  0  0  0  0  0  0  0  0  0  0
   61.3770   33.0350   48.0390 C   0  0  0  0  0  0  0  0  0  0  0  0
   62.5960   33.2160   48.8540 C   0  0  0  0  0  0  0  0  0  0  0  0
   62.6110   33.8570   49.9720 N   0  0  0  0  0  0  0  0  0  0  0  0
   63.9630   33.8480   50.5100 C   0  0  0  0  0  0  0  0  0  0  0  0
   64.7850   33.0610   49.4800 C   0  0  0  0  0  0  0  0  0  0  0  0
   63.8310   32.7170   48.4920 O   0  0  0  0  0  0  0  0  0  0  0  0
   60.4260   34.0640   47.9610 C   0  0  0  0  0  0  0  0  0  0  0  0
   59.2690   33.9040   47.1920 C   0  0  0  0  0  0  0  0  0  0  0  0
   59.6035   28.6057   45.6810 H   0  0  0  0  0  0  0  0  0  0  0  0
   59.1901   27.7400   44.1623 H   0  0  0  0  0  0  0  0  0  0  0  0
   59.3453   29.5296   44.1623 H   0  0  0  0  0  0  0  0  0  0  0  0
   57.1037   27.6705   46.9029 H   0  0  0  0  0  0  0  0  0  0  0  0
   56.0030   27.2964   45.5336 H   0  0  0  0  0  0  0  0  0  0  0  0
   57.6839   26.6630   45.5336 H   0  0  0  0  0  0  0  0  0  0  0  0
   58.2850   30.4120   46.1150 H   0  0  0  0  0  0  0  0  0  0  0  0
   56.7140   30.6390   45.5630 H   0  0  0  0  0  0  0  0  0  0  0  0
   56.9916   28.3527   43.0329 H   0  0  0  0  0  0  0  0  0  0  0  0
   55.6288   28.9734   44.1540 H   0  0  0  0  0  0  0  0  0  0  0  0
   56.5809   30.3643   42.0767 H   0  0  0  0  0  0  0  0  0  0  0  0
   55.9211   31.0602   43.6530 H   0  0  0  0  0  0  0  0  0  0  0  0
   58.6960   30.9200   42.7150 H   0  0  0  0  0  0  0  0  0  0  0  0
   58.3190   31.0020   44.3370 H   0  0  0  0  0  0  0  0  0  0  0  0
   58.7820   33.1298   42.9423 H   0  0  0  0  0  0  0  0  0  0  0  0
   57.0026   32.9280   42.6053 H   0  0  0  0  0  0  0  0  0  0  0  0
   57.9985   34.3249   44.7292 H   0  0  0  0  0  0  0  0  0  0  0  0
   56.3964   33.5158   44.7069 H   0  0  0  0  0  0  0  0  0  0  0  0
   59.8311   30.7427   46.0148 H   0  0  0  0  0  0  0  0  0  0  0  0
   61.8920   31.0289   47.3836 H   0  0  0  0  0  0  0  0  0  0  0  0
   64.3473   34.8737   50.6115 H   0  0  0  0  0  0  0  0  0  0  0  0
   64.0098   33.3978   51.5126 H   0  0  0  0  0  0  0  0  0  0  0  0
   65.5845   33.6853   49.0546 H   0  0  0  0  0  0  0  0  0  0  0  0
   65.2899   32.1848   49.9127 H   0  0  0  0  0  0  0  0  0  0  0  0
   60.5919   35.0034   48.5088 H   0  0  0  0  0  0  0  0  0  0  0  0
   58.5298   34.7169   47.1392 H   0  0  0  0  0  0  0  0  0  0  0  0
  1  2  1  0
  2  3  1  0
  2  4  1  0
  2  5  1  0
  5  6  1  0
  6  7  1  0
  7  8  1  0
  8  9  1  0
  9 10  1  0
 10 11  1  0
 11 12  2  0
 12 13  1  0
 13 14  2  0
 14 15  1  0
 15 16  2  0
 16 17  1  0
 17 18  1  0
 18 19  1  0
 14 20  1  0
 20 21  2  0
 21 11  1  0
 19 15  1  0
  1 22  1  0
  1 23  1  0
  1 24  1  0
  3 25  1  0
  3 26  1  0
  3 27  1  0
  4 28  1  0
  4 29  1  0
  5 30  1  0
  5 31  1  0
  6 32  1  0
  6 33  1  0
  7 34  1  0
  7 35  1  0
  8 36  1  0
  8 37  1  0
  9 38  1  0
  9 39  1  0
 12 40  1  0
 13 41  1  0
 17 42  1  0
 17 43  1  0
 18 44  1  0
 18 45  1  0
 20 46  1  0
 21 47  1  0
M  CHG  1   7   1
M  END
>  <UniqueID>  (28) 
27

>  <SMILES>  (28) 
CC(C)(N)CC[NH2+]CCOc1ccc(C2=NCCO2)cc1

>  <Energy>  (28) 
60.549570631216156

>  <Genealogy>  (28) 
CC(C)(N)CC[NH2+]CCOc1ccc(C2=NCCO2)cc1 (protonated)
CC(C)(N)CC[NH2+]CCOc1ccc(C2=NCCO2)cc1 (3D coordinates assigned)
CC(C)(N)CC[NH2+]CCOc1ccc(C2=NCCO2)cc1 (nonaromatic ring conformer: 60.549570631216156 kcal/mol)

>  <smiles>  (28) 
CC(C)(N)CCNCCOc1ccc(C2=NCCO2)cc1

>  <score_type>  (28) 
oracle

>  <origin>  (28) 
adg

>  <m_score__min__energy>  (28) 
-4.4800000000000004

>  <m_primary>  (28) 
energy

$$$$
28:0
     RDKit          3D

 47 49  0  0  0  0  0  0  0  0999 V2000
   63.4050   33.5550   46.7040 C   0  0  0  0  0  0  0  0  0  0  0  0
   63.2520   33.8420   48.1990 C   0  0  0  0  0  0  0  0  0  0  0  0
   62.2430   32.9580   48.8300 N   0  0  0  0  0  0  0  0  0  0  0  0
   62.1090   33.2790   50.2660 C   0  0  0  0  0  0  0  0  0  0  0  0
   62.6290   31.5370   48.6450 C   0  0  0  0  0  0  0  0  0  0  0  0
   61.5010   30.6960   48.0090 C   0  0  0  0  0  0  0  0  0  0  0  0
   60.1550   31.2710   48.2060 N   0  0  0  0  0  0  0  0  0  0  0  0
   59.4410   31.4760   46.9500 C   0  0  0  0  0  0  0  0  0  0  0  0
   59.4190   32.7640   46.3440 C   0  0  0  0  0  0  0  0  0  0  0  0
   60.0280   33.8900   46.9560 C   0  0  0  0  0  0  0  0  0  0  0  0
   59.9570   35.1550   46.3780 C   0  0  0  0  0  0  0  0  0  0  0  0
   59.2710   35.3380   45.1890 C   0  0  0  0  0  0  0  0  0  0  0  0
   58.6760   34.2540   44.5530 C   0  0  0  0  0  0  0  0  0  0  0  0
   58.7670   32.9430   45.0920 C   0  0  0  0  0  0  0  0  0  0  0  0
   58.2230   31.8630   44.4300 N   0  0  0  0  0  0  0  0  0  0  0  0
   57.8530   31.9840   43.0000 C   0  0  0  0  0  0  0  0  0  0  0  0
   58.0580   30.6610   45.0830 C   0  0  0  0  0  0  0  0  0  0  0  0
   57.2340   29.6430   44.5370 C   0  0  0  0  0  0  0  0  0  0  0  0
   57.1350   28.3950   45.1380 C   0  0  0  0  0  0  0  0  0  0  0  0
   57.8460   28.1250   46.2950 C   0  0  0  0  0  0  0  0  0  0  0  0
   58.6210   29.1170   46.8880 C   0  0  0  0  0  0  0  0  0  0  0  0
   58.7130   30.4180   46.3250 C   0  0  0  0  0  0  0  0  0  0  0  0
   63.9184   32.5920   46.5662 H   0  0  0  0  0  0  0  0  0  0  0  0
   62.4107   33.5108   46.2355 H   0  0  0  0  0  0  0  0  0  0  0  0
   63.9959   34.3559   46.2355 H   0  0  0  0  0  0  0  0  0  0  0  0
   64.2221   33.6839   48.6928 H   0  0  0  0  0  0  0  0  0  0  0  0
   62.9140   34.8824   48.3141 H   0  0  0  0  0  0  0  0  0  0  0  0
   62.4640   32.4285   50.8665 H   0  0  0  0  0  0  0  0  0  0  0  0
   62.7104   34.1697   50.5003 H   0  0  0  0  0  0  0  0  0  0  0  0
   61.0528   33.4777   50.5003 H   0  0  0  0  0  0  0  0  0  0  0  0
   63.5127   31.4937   47.9914 H   0  0  0  0  0  0  0  0  0  0  0  0
   62.8402   31.1158   49.6390 H   0  0  0  0  0  0  0  0  0  0  0  0
   61.6916   30.6182   46.9284 H   0  0  0  0  0  0  0  0  0  0  0  0
   61.5096   29.7146   48.5058 H   0  0  0  0  0  0  0  0  0  0  0  0
   59.6330   30.7040   48.9040 H   0  0  0  0  0  0  0  0  0  0  0  0
   60.2430   32.1830   48.7060 H   0  0  0  0  0  0  0  0  0  0  0  0
   60.5671   33.7611   47.9062 H   0  0  0  0  0  0  0  0  0  0  0  0
   60.4466   36.0103   46.8667 H   0  0  0  0  0  0  0  0  0  0  0  0
   59.1967   36.3425   44.7470 H   0  0  0  0  0  0  0  0  0  0  0  0
   58.1245   34.4148   43.6149 H   0  0  0  0  0  0  0  0  0  0  0  0
   56.8104   32.3250   42.9186 H   0  0  0  0  0  0  0  0  0  0  0  0
   58.5162   32.7121   42.5100 H   0  0  0  0  0  0  0  0  0  0  0  0
   57.9578   31.0048   42.5100 H   0  0  0  0  0  0  0  0  0  0  0  0
   56.6623   29.8464   43.6195 H   0  0  0  0  0  0  0  0  0  0  0  0
   56.4915   27.6207   44.6947 H   0  0  0  0  0  0  0  0  0  0  0  0
   57.7981   27.1232   46.7468 H   0  0  0  0  0  0  0  0  0  0  0  0
   59.1736   28.8892   47.8114 H   0  0  0  0  0  0  0  0  0  0  0  0
  1  2  1  0
  2  3  1  0
  3  4  1  0
  3  5  1  0
  5  6  1  0
  6  7  1  0
  7  8  1  0
  8  9  2  0
  9 10  1  0
 10 11  2  0
 11 12  1  0
 12 13  2  0
 13 14  1  0
 14 15  2  0
 15 16  1  0
 15 17  1  0
 17 18  2  0
 18 19  1  0
 19 20  2  0
 20 21  1  0
 21 22  2  0
 22  8  1  0
 14  9  1  0
 22 17  1  0
  1 23  1  0
  1 24  1  0
  1 25  1  0
  2 26  1  0
  2 27  1  0
  4 28  1  0
  4 29  1  0
  4 30  1  0
  5 31  1  0
  5 32  1  0
  6 33  1  0
  6 34  1  0
  7 35  1  0
  7 36  1  0
 10 37  1  0
 11 38  1  0
 12 39  1  0
 13 40  1  0
 16 41  1  0
 16 42  1  0
 16 43  1  0
 18 44  1  0
 19 45  1  0
 20 46  1  0
 21 47  1  0
M  CHG  2   7   1  15   1
M  END
>  <UniqueID>  (29) 
28

>  <SMILES>  (29) 
CCN(C)CC[NH2+]c1c2ccccc2[n+](C)c2ccccc12

>  <Energy>  (29) 
76.42296528198187

>  <Genealogy>  (29) 
CCN(C)CC[NH2+]c1c2ccccc2[n+](C)c2ccccc12 (protonated)
CCN(C)CC[NH2+]c1c2ccccc2[n+](C)c2ccccc12 (3D coordinates assigned)
CCN(C)CC[NH2+]c1c2ccccc2[n+](C)c2ccccc12 (optimized conformer: 76.42296528198187 kcal/mol)

>  <smiles>  (29) 
CCN(C)CCNc1c2ccccc2[n+](C)c2ccccc12

>  <score_type>  (29) 
oracle

>  <origin>  (29) 
adg

>  <m_score__min__energy>  (29) 
-3.7200000000000002

>  <m_primary>  (29) 
energy

$$$$
29:0
     RDKit          3D

 56 59  0  0  0  0  0  0  0  0999 V2000
   57.7680   27.8320   43.4640 C   0  0  0  0  0  0  0  0  0  0  0  0
   58.3670   27.5850   44.8200 C   0  0  0  0  0  0  0  0  0  0  0  0
   58.5850   26.2630   45.2600 C   0  0  0  0  0  0  0  0  0  0  0  0
   59.1440   26.0100   46.5210 C   0  0  0  0  0  0  0  0  0  0  0  0
   59.4890   27.0800   47.3520 C   0  0  0  0  0  0  0  0  0  0  0  0
   59.2690   28.3460   46.9040 N   0  0  0  0  0  0  0  0  0  0  0  0
   59.5140   29.5380   47.4930 C   0  0  0  0  0  0  0  0  0  0  0  0
   60.1570   29.7310   48.8420 C   0  0  0  0  0  0  0  0  0  0  0  0
   60.2030   31.1550   49.2280 N   0  0  0  0  0  0  0  0  0  0  0  0
   61.5790   31.7060   49.2680 C   0  0  0  0  0  0  0  0  0  0  0  0
   61.6180   33.1360   49.8840 C   0  0  0  0  0  0  0  0  0  0  0  0
   62.1090   34.2100   48.8990 C   0  0  0  0  0  0  0  0  0  0  0  0
   61.4430   34.0930   47.5850 N   0  0  0  0  0  0  0  0  0  0  0  0
   60.0400   34.5840   47.6050 C   0  0  0  0  0  0  0  0  0  0  0  0
   59.1570   33.8420   46.5810 C   0  0  2  0  0  0  0  0  0  0  0  0
   58.8390   34.6190   45.3360 C   0  0  0  0  0  0  0  0  0  0  0  0
   57.5240   34.0030   44.8950 C   0  0  0  0  0  0  0  0  0  0  0  0
   56.8980   33.3810   45.9970 O   0  0  0  0  0  0  0  0  0  0  0  0
   57.7780   33.4660   47.0950 C   0  0  0  0  0  0  0  0  0  0  0  0
   61.6170   32.7630   46.9380 C   0  0  0  0  0  0  0  0  0  0  0  0
   62.2180   31.6860   47.8620 C   0  0  0  0  0  0  0  0  0  0  0  0
   59.1620   30.5760   46.7020 N   0  0  0  0  0  0  0  0  0  0  0  0
   58.6690   30.0080   45.5780 C   0  0  0  0  0  0  0  0  0  0  0  0
   58.1650   30.8170   44.4260 C   0  0  0  0  0  0  0  0  0  0  0  0
   58.7360   28.6240   45.7000 C   0  0  0  0  0  0  0  0  0  0  0  0
   56.7568   28.2490   43.5803 H   0  0  0  0  0  0  0  0  0  0  0  0
   58.3968   28.5442   42.9096 H   0  0  0  0  0  0  0  0  0  0  0  0
   57.7120   26.8836   42.9096 H   0  0  0  0  0  0  0  0  0  0  0  0
   58.3135   25.4207   44.6067 H   0  0  0  0  0  0  0  0  0  0  0  0
   59.3102   24.9750   46.8545 H   0  0  0  0  0  0  0  0  0  0  0  0
   59.9281   26.9027   48.3449 H   0  0  0  0  0  0  0  0  0  0  0  0
   59.5781   29.1764   49.5951 H   0  0  0  0  0  0  0  0  0  0  0  0
   61.1904   29.3584   48.7849 H   0  0  0  0  0  0  0  0  0  0  0  0
   59.6130   31.6960   48.5510 H   0  0  0  0  0  0  0  0  0  0  0  0
   59.7560   31.2570   50.1680 H   0  0  0  0  0  0  0  0  0  0  0  0
   62.1742   31.0569   49.9271 H   0  0  0  0  0  0  0  0  0  0  0  0
   60.6026   33.4021   50.2130 H   0  0  0  0  0  0  0  0  0  0  0  0
   62.3318   33.1108   50.7206 H   0  0  0  0  0  0  0  0  0  0  0  0
   61.8953   35.2037   49.3196 H   0  0  0  0  0  0  0  0  0  0  0  0
   63.1896   34.0691   48.7491 H   0  0  0  0  0  0  0  0  0  0  0  0
   59.6236   34.4301   48.6114 H   0  0  0  0  0  0  0  0  0  0  0  0
   60.0482   35.6512   47.3385 H   0  0  0  0  0  0  0  0  0  0  0  0
   59.7938   32.9680   46.3794 H   0  0  0  0  0  0  0  0  0  0  0  0
   58.7230   35.6908   45.5545 H   0  0  0  0  0  0  0  0  0  0  0  0
   59.6278   34.5660   44.5711 H   0  0  0  0  0  0  0  0  0  0  0  0
   56.8666   34.7900   44.4970 H   0  0  0  0  0  0  0  0  0  0  0  0
   57.7163   33.2531   44.1136 H   0  0  0  0  0  0  0  0  0  0  0  0
   57.4218   34.2342   47.7971 H   0  0  0  0  0  0  0  0  0  0  0  0
   57.8219   32.4992   47.6179 H   0  0  0  0  0  0  0  0  0  0  0  0
   60.6315   32.4138   46.5963 H   0  0  0  0  0  0  0  0  0  0  0  0
   62.3288   32.9039   46.1112 H   0  0  0  0  0  0  0  0  0  0  0  0
   62.0507   30.6971   47.4102 H   0  0  0  0  0  0  0  0  0  0  0  0
   63.2918   31.8963   47.9744 H   0  0  0  0  0  0  0  0  0  0  0  0
   57.6189   31.6936   44.8046 H   0  0  0  0  0  0  0  0  0  0  0  0
   59.0150   31.1512   43.8129 H   0  0  0  0  0  0  0  0  0  0  0  0
   57.4903   30.2014   43.8129 H   0  0  0  0  0  0  0  0  0  0  0  0
  1  2  1  0
  2  3  2  0
  3  4  1  0
  4  5  2  0
  5  6  1  0
  6  7  1  0
  7  8  1  0
  8  9  1  0
  9 10  1  0
 10 11  1  0
 11 12  1  0
 12 13  1  0
 13 14  1  0
 14 15  1  0
 15 16  1  0
 16 17  1  0
 17 18  1  0
 18 19  1  0
 13 20  1  0
 20 21  1  0
  7 22  2  0
 22 23  1  0
 23 24  1  0
 23 25  2  0
 25  2  1  0
 25  6  1  0
 21 10  1  0
 19 15  1  0
  1 26  1  0
  1 27  1  0
  1 28  1  0
  3 29  1  0
  4 30  1  0
  5 31  1  0
  8 32  1  0
  8 33  1  0
  9 34  1  0
  9 35  1  0
 10 36  1  0
 11 37  1  0
 11 38  1  0
 12 39  1  0
 12 40  1  0
 14 41  1  0
 14 42  1  0
 15 43  1  6
 16 44  1  0
 16 45  1  0
 17 46  1  0
 17 47  1  0
 19 48  1  0
 19 49  1  0
 20 50  1  0
 20 51  1  0
 21 52  1  0
 21 53  1  0
 24 54  1  0
 24 55  1  0
 24 56  1  0
M  CHG  1   9   1
M  END
>  <UniqueID>  (30) 
29

>  <SMILES>  (30) 
Cc1cccn2c(C[NH2+]C3CCN(C[C@@H]4CCOC4)CC3)nc(C)c12

>  <Energy>  (30) 
108.23998794479907

>  <Genealogy>  (30) 
Cc1cccn2c(C[NH2+]C3CCN(CC4CCOC4)CC3)nc(C)c12 (protonated)
Cc1cccn2c(C[NH2+]C3CCN(C[C@@H]4CCOC4)CC3)nc(C)c12 (chirality)
Cc1cccn2c(C[NH2+]C3CCN(C[C@@H]4CCOC4)CC3)nc(C)c12 (3D coordinates assigned)
Cc1cccn2c(C[NH2+]C3CCN(C[C@@H]4CCOC4)CC3)nc(C)c12 (nonaromatic ring conformer: 108.23998794479907 kcal/mol)

>  <smiles>  (30) 
Cc1cccn2c(CNC3CCN(CC4CCOC4)CC3)nc(C)c12

>  <score_type>  (30) 
oracle

>  <origin>  (30) 
adg

>  <m_score__min__energy>  (30) 
-5.9800000000000004

>  <m_primary>  (30) 
energy

$$$$
30:0
     RDKit          3D

 34 36  0  0  0  0  0  0  0  0999 V2000
   54.8040   24.9250   45.6230 C   0  0  0  0  0  0  0  0  0  0  0  0
   55.1280   26.2680   45.9670 O   0  0  0  0  0  0  0  0  0  0  0  0
   56.3420   26.8970   45.6550 C   0  0  0  0  0  0  0  0  0  0  0  0
   57.5140   26.1380   45.7120 C   0  0  0  0  0  0  0  0  0  0  0  0
   58.7470   26.7170   45.4070 C   0  0  0  0  0  0  0  0  0  0  0  0
   58.8220   28.0630   45.0450 C   0  0  0  0  0  0  0  0  0  0  0  0
   57.6580   28.8530   44.9840 C   0  0  0  0  0  0  0  0  0  0  0  0
   57.7120   30.2880   44.5980 C   0  0  0  0  0  0  0  0  0  0  0  0
   57.6350   30.7530   43.2810 C   0  0  0  0  0  0  0  0  0  0  0  0
   57.7480   32.4300   43.3120 S   0  0  0  0  0  0  0  0  0  0  0  0
   57.8910   32.5040   44.9880 C   0  0  0  0  0  0  0  0  0  0  0  0
   58.0440   33.7590   45.8050 C   0  0  2  0  0  0  0  0  0  0  0  0
   59.1480   34.6870   45.2670 C   0  0  0  0  0  0  0  0  0  0  0  0
   59.7130   35.4240   46.4780 C   0  0  0  0  0  0  0  0  0  0  0  0
   59.3020   34.5840   47.6280 C   0  0  0  0  0  0  0  0  0  0  0  0
   59.6840   34.7870   48.7710 O   0  0  0  0  0  0  0  0  0  0  0  0
   58.3880   33.4730   47.2700 C   0  0  0  0  0  0  0  0  0  0  0  0
   57.8560   31.2700   45.5320 N   0  0  0  0  0  0  0  0  0  0  0  0
   56.4180   28.2560   45.2880 C   0  0  0  0  0  0  0  0  0  0  0  0
   54.6618   24.3355   46.5408 H   0  0  0  0  0  0  0  0  0  0  0  0
   53.8768   24.9115   45.0312 H   0  0  0  0  0  0  0  0  0  0  0  0
   55.6230   24.4903   45.0312 H   0  0  0  0  0  0  0  0  0  0  0  0
   57.4646   25.0773   45.9991 H   0  0  0  0  0  0  0  0  0  0  0  0
   59.6633   26.1101   45.4521 H   0  0  0  0  0  0  0  0  0  0  0  0
   59.7981   28.5101   44.8055 H   0  0  0  0  0  0  0  0  0  0  0  0
   57.5205   30.1299   42.3817 H   0  0  0  0  0  0  0  0  0  0  0  0
   57.0612   34.2474   45.7300 H   0  0  0  0  0  0  0  0  0  0  0  0
   59.9369   34.0971   44.7775 H   0  0  0  0  0  0  0  0  0  0  0  0
   58.7515   35.3898   44.5194 H   0  0  0  0  0  0  0  0  0  0  0  0
   60.8090   35.4952   46.4169 H   0  0  0  0  0  0  0  0  0  0  0  0
   59.3467   36.4583   46.5549 H   0  0  0  0  0  0  0  0  0  0  0  0
   58.8905   32.5000   47.3742 H   0  0  0  0  0  0  0  0  0  0  0  0
   57.5009   33.4191   47.9182 H   0  0  0  0  0  0  0  0  0  0  0  0
   55.4985   28.8577   45.2383 H   0  0  0  0  0  0  0  0  0  0  0  0
  1  2  1  0
  2  3  1  0
  3  4  2  0
  4  5  1  0
  5  6  2  0
  6  7  1  0
  7  8  1  0
  8  9  2  0
  9 10  1  0
 10 11  1  0
 11 12  1  0
 12 13  1  0
 13 14  1  0
 14 15  1  0
 15 16  2  0
 15 17  1  0
 11 18  2  0
  7 19  2  0
 19  3  1  0
 18  8  1  0
 17 12  1  0
  1 20  1  0
  1 21  1  0
  1 22  1  0
  4 23  1  0
  5 24  1  0
  6 25  1  0
  9 26  1  0
 12 27  1  1
 13 28  1  0
 13 29  1  0
 14 30  1  0
 14 31  1  0
 17 32  1  0
 17 33  1  0
 19 34  1  0
M  END
>  <UniqueID>  (31) 
30

>  <SMILES>  (31) 
COc1cccc(-c2csc([C@@H]3CCC(=O)C3)n2)c1

>  <Energy>  (31) 
66.71230123648729

>  <Genealogy>  (31) 
COc1cccc(-c2csc([C@@H]3CCC(=O)C3)n2)c1 (chirality)
COc1cccc(-c2csc([C@@H]3CCC(=O)C3)n2)c1 (3D coordinates assigned)
COc1cccc(-c2csc([C@@H]3CCC(=O)C3)n2)c1 (nonaromatic ring conformer: 66.71230123648729 kcal/mol)

>  <smiles>  (31) 
COc1cccc(-c2csc(C3CCC(=O)C3)n2)c1

>  <score_type>  (31) 
oracle

>  <origin>  (31) 
adg

>  <m_score__min__energy>  (31) 
-7.8499999999999996

>  <m_primary>  (31) 
energy

$$$$
31:0
     RDKit          3D

 42 44  0  0  0  0  0  0  0  0999 V2000
   61.2370   26.5860   50.9770 C   0  0  0  0  0  0  0  0  0  0  0  0
   61.0330   26.4110   49.5790 O   0  0  0  0  0  0  0  0  0  0  0  0
   60.3500   27.3210   48.7590 C   0  0  0  0  0  0  0  0  0  0  0  0
   59.9440   26.8970   47.4880 C   0  0  0  0  0  0  0  0  0  0  0  0
   59.2600   27.7650   46.6320 C   0  0  0  0  0  0  0  0  0  0  0  0
   58.9700   29.0780   47.0380 C   0  0  0  0  0  0  0  0  0  0  0  0
   58.2490   30.0010   46.1400 C   0  0  0  0  0  0  0  0  0  0  0  0
   57.0260   29.7660   45.6240 N   0  0  0  0  0  0  0  0  0  0  0  0
   56.7270   30.8160   44.8770 N   0  0  0  0  0  0  0  0  0  0  0  0
   57.7780   31.6490   44.9650 C   0  0  0  0  0  0  0  0  0  0  0  0
   57.8800   33.2270   44.1250 S   0  0  0  0  0  0  0  0  0  0  0  0
   57.6650   34.2150   45.6450 C   0  0  0  0  0  0  0  0  0  0  0  0
   58.9680   34.3620   46.3690 C   0  0  0  0  0  0  0  0  0  0  0  0
   59.1270   35.3280   47.1630 O   0  0  0  0  0  0  0  0  0  0  0  0
   60.0300   33.4270   46.1320 N   0  0  0  0  0  0  0  0  0  0  0  0
   61.1920   33.2980   46.9680 C   0  0  0  0  0  0  0  0  0  0  0  0
   62.4130   33.8380   46.5370 C   0  0  0  0  0  0  0  0  0  0  0  0
   63.5640   33.7070   47.3210 C   0  0  0  0  0  0  0  0  0  0  0  0
   63.5100   33.0290   48.5480 C   0  0  0  0  0  0  0  0  0  0  0  0
   64.7520   32.8520   49.3680 C   0  0  0  0  0  0  0  0  0  0  0  0
   62.3000   32.4520   48.9630 C   0  0  0  0  0  0  0  0  0  0  0  0
   61.1500   32.5840   48.1800 C   0  0  0  0  0  0  0  0  0  0  0  0
   58.7160   31.1610   45.7390 O   0  0  0  0  0  0  0  0  0  0  0  0
   59.3760   29.5060   48.3120 C   0  0  0  0  0  0  0  0  0  0  0  0
   60.0600   28.6370   49.1670 C   0  0  0  0  0  0  0  0  0  0  0  0
   60.5166   25.9680   51.5329 H   0  0  0  0  0  0  0  0  0  0  0  0
   62.2608   26.2809   51.2392 H   0  0  0  0  0  0  0  0  0  0  0  0
   61.0912   27.6443   51.2392 H   0  0  0  0  0  0  0  0  0  0  0  0
   60.1654   25.8707   47.1597 H   0  0  0  0  0  0  0  0  0  0  0  0
   58.9475   27.4182   45.6360 H   0  0  0  0  0  0  0  0  0  0  0  0
   57.2862   35.2123   45.3770 H   0  0  0  0  0  0  0  0  0  0  0  0
   56.9503   33.6999   46.3037 H   0  0  0  0  0  0  0  0  0  0  0  0
   59.9800   32.8440   45.2650 H   0  0  0  0  0  0  0  0  0  0  0  0
   62.4656   34.3686   45.5749 H   0  0  0  0  0  0  0  0  0  0  0  0
   64.5151   34.1372   46.9741 H   0  0  0  0  0  0  0  0  0  0  0  0
   64.4941   32.8888   50.4367 H   0  0  0  0  0  0  0  0  0  0  0  0
   65.2100   31.8795   49.1346 H   0  0  0  0  0  0  0  0  0  0  0  0
   65.4634   33.6578   49.1346 H   0  0  0  0  0  0  0  0  0  0  0  0
   62.2565   31.8930   49.9094 H   0  0  0  0  0  0  0  0  0  0  0  0
   60.2064   32.1271   48.5130 H   0  0  0  0  0  0  0  0  0  0  0  0
   59.1543   30.5324   48.6397 H   0  0  0  0  0  0  0  0  0  0  0  0
   60.3731   28.9829   50.1631 H   0  0  0  0  0  0  0  0  0  0  0  0
  1  2  1  0
  2  3  1  0
  3  4  2  0
  4  5  1  0
  5  6  2  0
  6  7  1  0
  7  8  2  0
  8  9  1  0
  9 10  2  0
 10 11  1  0
 11 12  1  0
 12 13  1  0
 13 14  2  0
 13 15  1  0
 15 16  1  0
 16 17  2  0
 17 18  1  0
 18 19  2  0
 19 20  1  0
 19 21  1  0
 21 22  2  0
 10 23  1  0
  6 24  1  0
 24 25  2  0
 25  3  1  0
 23  7  1  0
 22 16  1  0
  1 26  1  0
  1 27  1  0
  1 28  1  0
  4 29  1  0
  5 30  1  0
 12 31  1  0
 12 32  1  0
 15 33  1  0
 17 34  1  0
 18 35  1  0
 20 36  1  0
 20 37  1  0
 20 38  1  0
 21 39  1  0
 22 40  1  0
 24 41  1  0
 25 42  1  0
M  END
>  <UniqueID>  (32) 
31

>  <SMILES>  (32) 
COc1ccc(-c2nnc(SCC(=O)Nc3ccc(C)cc3)o2)cc1

>  <Energy>  (32) 
75.72753838757073

>  <Genealogy>  (32) 
COc1ccc(-c2nnc(SCC(=O)Nc3ccc(C)cc3)o2)cc1 (3D coordinates assigned)
COc1ccc(-c2nnc(SCC(=O)Nc3ccc(C)cc3)o2)cc1 (optimized conformer: 75.72753838757073 kcal/mol)

>  <smiles>  (32) 
COc1ccc(-c2nnc(SCC(=O)Nc3ccc(C)cc3)o2)cc1

>  <score_type>  (32) 
oracle

>  <origin>  (32) 
adg

>  <m_score__min__energy>  (32) 
-7.6200000000000001

>  <m_primary>  (32) 
energy

$$$$
32:0
     RDKit          3D

 37 39  0  0  0  0  0  0  0  0999 V2000
   54.3258   23.1412   45.1866 H   0  0  0  0  0  0  0  0  0  0  0  0
   55.2650   23.6720   44.9720 C   0  0  0  0  0  0  0  0  0  0  0  0
   55.5430   24.8820   45.6140 C   0  0  0  0  0  0  0  0  0  0  0  0
   54.8235   25.2960   46.3358 H   0  0  0  0  0  0  0  0  0  0  0  0
   56.7350   25.5720   45.3430 C   0  0  0  0  0  0  0  0  0  0  0  0
   57.0240   26.8920   46.0090 C   0  0  0  0  0  0  0  0  0  0  0  0
   56.8639   26.7916   47.0927 H   0  0  0  0  0  0  0  0  0  0  0  0
   58.0672   27.1710   45.7997 H   0  0  0  0  0  0  0  0  0  0  0  0
   56.1460   27.9400   45.4900 N   0  0  0  0  0  0  0  0  0  0  0  0
   56.5520   29.0670   44.9820 C   0  0  0  0  0  0  0  0  0  0  0  0
   57.2380   29.9690   45.7390 N   0  0  0  0  0  0  0  0  0  0  0  0
   57.6580   31.1540   45.2220 C   0  0  0  0  0  0  0  0  0  0  0  0
   58.3600   32.0800   46.0200 C   0  0  0  0  0  0  0  0  0  0  0  0
   58.6380   31.7910   47.4700 C   0  0  0  0  0  0  0  0  0  0  0  0
   58.0128   32.4409   48.0998 H   0  0  0  0  0  0  0  0  0  0  0  0
   58.4050   30.7377   47.6852 H   0  0  0  0  0  0  0  0  0  0  0  0
   59.6995   31.9830   47.6852 H   0  0  0  0  0  0  0  0  0  0  0  0
   58.7660   33.3030   45.4570 C   0  0  0  0  0  0  0  0  0  0  0  0
   59.3032   34.0370   46.0755 H   0  0  0  0  0  0  0  0  0  0  0  0
   58.4920   33.5930   44.1170 C   0  0  0  0  0  0  0  0  0  0  0  0
   58.8210   34.5499   43.6857 H   0  0  0  0  0  0  0  0  0  0  0  0
   57.8030   32.6740   43.3240 C   0  0  0  0  0  0  0  0  0  0  0  0
   57.5910   32.9062   42.2699 H   0  0  0  0  0  0  0  0  0  0  0  0
   57.3820   31.4560   43.8720 C   0  0  0  0  0  0  0  0  0  0  0  0
   56.6810   30.5140   43.1130 C   0  0  0  0  0  0  0  0  0  0  0  0
   56.4538   30.7177   42.0562 H   0  0  0  0  0  0  0  0  0  0  0  0
   56.2810   29.3480   43.6810 N   0  0  0  0  0  0  0  0  0  0  0  0
   57.6490   25.0290   44.4280 C   0  0  0  0  0  0  0  0  0  0  0  0
   58.5883   25.5595   44.2131 H   0  0  0  0  0  0  0  0  0  0  0  0
   57.3730   23.8180   43.7880 C   0  0  0  0  0  0  0  0  0  0  0  0
   58.0965   23.4019   43.0715 H   0  0  0  0  0  0  0  0  0  0  0  0
   56.1820   23.1300   44.0520 C   0  0  0  0  0  0  0  0  0  0  0  0
   55.9480   21.9210   43.3800 O   0  0  0  0  0  0  0  0  0  0  0  0
   56.9690   21.0080   42.9910 C   0  0  0  0  0  0  0  0  0  0  0  0
   57.4431   20.5840   43.8885 H   0  0  0  0  0  0  0  0  0  0  0  0
   56.5276   20.1978   42.3920 H   0  0  0  0  0  0  0  0  0  0  0  0
   57.7250   21.5368   42.3920 H   0  0  0  0  0  0  0  0  0  0  0  0
  1  2  1  0
  2  3  2  0
  3  4  1  0
  3  5  1  0
  5  6  1  0
  6  7  1  0
  6  8  1  0
  6  9  1  0
  9 10  2  0
 10 11  1  0
 11 12  2  0
 12 13  1  0
 13 14  1  0
 14 15  1  0
 14 16  1  0
 14 17  1  0
 13 18  2  0
 18 19  1  0
 18 20  1  0
 20 21  1  0
 20 22  2  0
 22 23  1  0
 22 24  1  0
 24 25  2  0
 25 26  1  0
 25 27  1  0
  5 28  2  0
 28 29  1  0
 28 30  1  0
 30 31  1  0
 30 32  2  0
 32 33  1  0
 33 34  1  0
 34 35  1  0
 34 36  1  0
 34 37  1  0
 32  2  1  0
 27 10  1  0
 24 12  1  0
M  CHG  1  27  -1
M  END
>  <UniqueID>  (33) 
32

>  <SMILES>  (33) 
COc1ccc(C/N=c2\nc3c(C)cccc3c[n-]2)cc1

>  <Energy>  (33) 
40.208883789521174

>  <Genealogy>  (33) 
COc1ccc(CN=c2nc3c(C)cccc3c[n-]2)cc1 (protonated)
COc1ccc(C/N=c2\nc3c(C)cccc3c[n-]2)cc1 (cis-trans isomerization)
COc1ccc(C/N=c2\nc3c(C)cccc3c[n-]2)cc1 (3D coordinates assigned)
COc1ccc(C/N=c2\nc3c(C)cccc3c[n-]2)cc1 (optimized conformer: 40.208883789521174 kcal/mol)

>  <smiles>  (33) 
COc1ccc(CN=c2nc3c(C)cccc3c[nH]2)cc1

>  <score_type>  (33) 
oracle

>  <origin>  (33) 
adg

>  <m_score__min__energy>  (33) 
-9.0899999999999999

>  <m_primary>  (33) 
energy

$$$$
33:0
     RDKit          3D

 49 52  0  0  0  0  0  0  0  0999 V2000
   56.8360   30.8210   52.0860 C   0  0  0  0  0  0  0  0  0  0  0  0
   57.6440   30.0910   51.1690 O   0  0  0  0  0  0  0  0  0  0  0  0
   58.7720   30.6130   50.5170 C   0  0  0  0  0  0  0  0  0  0  0  0
   60.0450   30.0290   50.6310 C   0  0  0  0  0  0  0  0  0  0  0  0
   61.1350   30.5840   49.9600 C   0  0  0  0  0  0  0  0  0  0  0  0
   60.9770   31.7200   49.1540 C   0  0  0  0  0  0  0  0  0  0  0  0
   62.1260   32.2570   48.4850 N   0  0  0  0  0  0  0  0  0  0  0  0
   63.0710   33.0600   49.0040 C   0  0  0  0  0  0  0  0  0  0  0  0
   63.9640   33.4280   48.0660 N   0  0  0  0  0  0  0  0  0  0  0  0
   63.4990   32.8060   46.9600 C   0  0  0  0  0  0  0  0  0  0  0  0
   62.3760   32.1020   47.1980 N   0  0  0  0  0  0  0  0  0  0  0  0
   59.7040   32.3330   49.0540 C   0  0  0  0  0  0  0  0  0  0  0  0
   59.4930   33.6150   48.2780 C   0  0  0  0  0  0  0  0  0  0  0  0
   59.1520   33.3330   46.8680 N   0  0  0  0  0  0  0  0  0  0  0  0
   59.4350   34.5010   46.0020 C   0  0  0  0  0  0  0  0  0  0  0  0
   58.8120   34.3400   44.6010 C   0  0  0  0  0  0  0  0  0  0  0  0
   58.4860   32.9260   44.3500 N   0  0  0  0  0  0  0  0  0  0  0  0
   58.0570   32.7210   42.9480 C   0  0  0  0  0  0  0  0  0  0  0  0
   57.4100   31.3350   42.7300 C   0  0  0  0  0  0  0  0  0  0  0  0
   57.7940   30.3530   43.8410 C   0  0  0  0  0  0  0  0  0  0  0  0
   57.4030   30.8920   45.2310 C   0  0  0  0  0  0  0  0  0  0  0  0
   57.4600   32.4380   45.2990 C   0  0  1  0  0  0  0  0  0  0  0  0
   57.7390   32.9350   46.7420 C   0  0  0  0  0  0  0  0  0  0  0  0
   58.6130   31.7590   49.7320 C   0  0  0  0  0  0  0  0  0  0  0  0
   57.1236   30.5612   53.1155 H   0  0  0  0  0  0  0  0  0  0  0  0
   56.9821   31.8994   51.9255 H   0  0  0  0  0  0  0  0  0  0  0  0
   55.7779   30.5665   51.9255 H   0  0  0  0  0  0  0  0  0  0  0  0
   60.1826   29.1311   51.2514 H   0  0  0  0  0  0  0  0  0  0  0  0
   62.1293   30.1252   50.0645 H   0  0  0  0  0  0  0  0  0  0  0  0
   63.1096   33.3752   50.0572 H   0  0  0  0  0  0  0  0  0  0  0  0
   63.9840   32.8679   45.9747 H   0  0  0  0  0  0  0  0  0  0  0  0
   58.6720   34.1834   48.7395 H   0  0  0  0  0  0  0  0  0  0  0  0
   60.4267   34.1960   48.3023 H   0  0  0  0  0  0  0  0  0  0  0  0
   59.0199   35.4034   46.4746 H   0  0  0  0  0  0  0  0  0  0  0  0
   60.5256   34.5824   45.8837 H   0  0  0  0  0  0  0  0  0  0  0  0
   57.8929   34.9413   44.5406 H   0  0  0  0  0  0  0  0  0  0  0  0
   59.5342   34.6820   43.8451 H   0  0  0  0  0  0  0  0  0  0  0  0
   57.3249   33.4986   42.6847 H   0  0  0  0  0  0  0  0  0  0  0  0
   58.9514   32.7792   42.3103 H   0  0  0  0  0  0  0  0  0  0  0  0
   56.3161   31.4496   42.7172 H   0  0  0  0  0  0  0  0  0  0  0  0
   57.7738   30.9319   41.7733 H   0  0  0  0  0  0  0  0  0  0  0  0
   57.2756   29.3982   43.6691 H   0  0  0  0  0  0  0  0  0  0  0  0
   58.8852   30.2157   43.8184 H   0  0  0  0  0  0  0  0  0  0  0  0
   56.3783   30.5653   45.4617 H   0  0  0  0  0  0  0  0  0  0  0  0
   58.1247   30.4962   45.9607 H   0  0  0  0  0  0  0  0  0  0  0  0
   56.4799   32.8464   45.0117 H   0  0  0  0  0  0  0  0  0  0  0  0
   57.0951   33.7994   46.9615 H   0  0  0  0  0  0  0  0  0  0  0  0
   57.5252   32.1237   47.4534 H   0  0  0  0  0  0  0  0  0  0  0  0
   57.6181   32.2196   49.6430 H   0  0  0  0  0  0  0  0  0  0  0  0
  1  2  1  0
  2  3  1  0
  3  4  2  0
  4  5  1  0
  5  6  2  0
  6  7  1  0
  7  8  1  0
  8  9  2  0
  9 10  1  0
 10 11  2  0
  6 12  1  0
 12 13  1  0
 13 14  1  0
 14 15  1  0
 15 16  1  0
 16 17  1  0
 17 18  1  0
 18 19  1  0
 19 20  1  0
 20 21  1  0
 21 22  1  0
 22 23  1  0
 12 24  2  0
 24  3  1  0
 11  7  1  0
 23 14  1  0
 22 17  1  0
  1 25  1  0
  1 26  1  0
  1 27  1  0
  4 28  1  0
  5 29  1  0
  8 30  1  0
 10 31  1  0
 13 32  1  0
 13 33  1  0
 15 34  1  0
 15 35  1  0
 16 36  1  0
 16 37  1  0
 18 38  1  0
 18 39  1  0
 19 40  1  0
 19 41  1  0
 20 42  1  0
 20 43  1  0
 21 44  1  0
 21 45  1  0
 22 46  1  6
 23 47  1  0
 23 48  1  0
 24 49  1  0
M  END
>  <UniqueID>  (34) 
33

>  <SMILES>  (34) 
COc1ccc(-n2cncn2)c(CN2CCN3CCCC[C@H]3C2)c1

>  <Energy>  (34) 
101.11199409063933

>  <Genealogy>  (34) 
COc1ccc(-n2cncn2)c(CN2CCN3CCCC[C@H]3C2)c1 (chirality)
COc1ccc(-n2cncn2)c(CN2CCN3CCCC[C@H]3C2)c1 (3D coordinates assigned)
COc1ccc(-n2cncn2)c(CN2CCN3CCCC[C@H]3C2)c1 (nonaromatic ring conformer: 101.11199409063933 kcal/mol)

>  <smiles>  (34) 
COc1ccc(-n2cncn2)c(CN2CCN3CCCCC3C2)c1

>  <score_type>  (34) 
oracle

>  <origin>  (34) 
adg

>  <m_score__min__energy>  (34) 
-7.2699999999999996

>  <m_primary>  (34) 
energy

$$$$
34:0
     RDKit          3D

 44 45  0  0  0  0  0  0  0  0999 V2000
   63.3200   32.2030   47.4700 C   0  0  0  0  0  0  0  0  0  0  0  0
   63.3250   33.5480   46.7520 C   0  0  0  0  0  0  0  0  0  0  0  0
   62.0390   33.8300   46.2320 O   0  0  0  0  0  0  0  0  0  0  0  0
   61.1140   34.0340   47.2810 C   0  0  0  0  0  0  0  0  0  0  0  0
   59.7320   34.2090   46.7150 C   0  0  0  0  0  0  0  0  0  0  0  0
   59.2160   35.3610   46.7040 O   0  0  0  0  0  0  0  0  0  0  0  0
   58.9730   33.0830   46.2280 N   0  0  0  0  0  0  0  0  0  0  0  0
   57.7810   33.3120   45.4000 C   0  0  0  0  0  0  0  0  0  0  0  0
   57.5530   32.1160   44.4700 C   0  0  0  0  0  0  0  0  0  0  0  0
   57.4010   30.8540   45.2260 N   0  0  0  0  0  0  0  0  0  0  0  0
   57.4590   29.6320   44.3870 C   0  0  0  0  0  0  0  0  0  0  0  0
   57.9170   28.3860   45.1350 C   0  0  0  0  0  0  0  0  0  0  0  0
   56.9450   27.4900   45.6210 C   0  0  0  0  0  0  0  0  0  0  0  0
   57.3150   26.3500   46.3350 C   0  0  0  0  0  0  0  0  0  0  0  0
   58.6600   26.0740   46.5610 C   0  0  0  0  0  0  0  0  0  0  0  0
   59.6420   26.9260   46.0600 C   0  0  0  0  0  0  0  0  0  0  0  0
   59.2910   28.0830   45.3410 C   0  0  0  0  0  0  0  0  0  0  0  0
   60.3950   28.9310   44.7590 C   0  0  0  0  0  0  0  0  0  0  0  0
   58.1480   30.7720   46.5060 C   0  0  0  0  0  0  0  0  0  0  0  0
   59.3660   31.7030   46.5500 C   0  0  0  0  0  0  0  0  0  0  0  0
   63.3206   32.3679   48.5576 H   0  0  0  0  0  0  0  0  0  0  0  0
   62.4198   31.6387   47.1852 H   0  0  0  0  0  0  0  0  0  0  0  0
   64.2160   31.6320   47.1852 H   0  0  0  0  0  0  0  0  0  0  0  0
   63.6108   34.3378   47.4622 H   0  0  0  0  0  0  0  0  0  0  0  0
   64.0466   33.5092   45.9227 H   0  0  0  0  0  0  0  0  0  0  0  0
   61.1258   33.1630   47.9528 H   0  0  0  0  0  0  0  0  0  0  0  0
   61.3941   34.9382   47.8413 H   0  0  0  0  0  0  0  0  0  0  0  0
   56.9038   33.4397   46.0513 H   0  0  0  0  0  0  0  0  0  0  0  0
   57.9301   34.2179   44.7942 H   0  0  0  0  0  0  0  0  0  0  0  0
   56.6400   32.2911   43.8820 H   0  0  0  0  0  0  0  0  0  0  0  0
   58.4319   32.0190   43.8157 H   0  0  0  0  0  0  0  0  0  0  0  0
   56.4538   29.4424   43.9826 H   0  0  0  0  0  0  0  0  0  0  0  0
   58.2040   29.8220   43.6003 H   0  0  0  0  0  0  0  0  0  0  0  0
   55.8798   27.6918   45.4351 H   0  0  0  0  0  0  0  0  0  0  0  0
   56.5423   25.6683   46.7199 H   0  0  0  0  0  0  0  0  0  0  0  0
   58.9484   25.1818   47.1361 H   0  0  0  0  0  0  0  0  0  0  0  0
   60.7034   26.6914   46.2285 H   0  0  0  0  0  0  0  0  0  0  0  0
   60.9805   29.3808   45.5744 H   0  0  0  0  0  0  0  0  0  0  0  0
   61.0518   28.3030   44.1391 H   0  0  0  0  0  0  0  0  0  0  0  0
   59.9576   29.7275   44.1391 H   0  0  0  0  0  0  0  0  0  0  0  0
   57.4683   31.0451   47.3266 H   0  0  0  0  0  0  0  0  0  0  0  0
   58.5183   29.7410   46.6053 H   0  0  0  0  0  0  0  0  0  0  0  0
   59.8044   31.6777   47.5585 H   0  0  0  0  0  0  0  0  0  0  0  0
   60.1017   31.3607   45.8073 H   0  0  0  0  0  0  0  0  0  0  0  0
  1  2  1  0
  2  3  1  0
  3  4  1  0
  4  5  1  0
  5  6  2  0
  5  7  1  0
  7  8  1  0
  8  9  1  0
  9 10  1  0
 10 11  1  0
 11 12  1  0
 12 13  2  0
 13 14  1  0
 14 15  2  0
 15 16  1  0
 16 17  2  0
 17 18  1  0
 10 19  1  0
 19 20  1  0
 20  7  1  0
 17 12  1  0
  1 21  1  0
  1 22  1  0
  1 23  1  0
  2 24  1  0
  2 25  1  0
  4 26  1  0
  4 27  1  0
  8 28  1  0
  8 29  1  0
  9 30  1  0
  9 31  1  0
 11 32  1  0
 11 33  1  0
 13 34  1  0
 14 35  1  0
 15 36  1  0
 16 37  1  0
 18 38  1  0
 18 39  1  0
 18 40  1  0
 19 41  1  0
 19 42  1  0
 20 43  1  0
 20 44  1  0
M  END
>  <UniqueID>  (35) 
34

>  <SMILES>  (35) 
CCOCC(=O)N1CCN(Cc2ccccc2C)CC1

>  <Energy>  (35) 
54.30470651607428

>  <Genealogy>  (35) 
CCOCC(=O)N1CCN(Cc2ccccc2C)CC1 (3D coordinates assigned)
CCOCC(=O)N1CCN(Cc2ccccc2C)CC1 (nonaromatic ring conformer: 54.30470651607428 kcal/mol)

>  <smiles>  (35) 
CCOCC(=O)N1CCN(Cc2ccccc2C)CC1

>  <score_type>  (35) 
oracle

>  <origin>  (35) 
adg

>  <m_score__min__energy>  (35) 
-6.79

>  <m_primary>  (35) 
energy

$$$$
35:0
     RDKit          3D

 63 65  0  0  0  0  0  0  0  0999 V2000
   60.7020   29.6490   47.7130 C   0  0  0  0  0  0  0  0  0  0  0  0
   61.6100   30.3340   48.5700 O   0  0  0  0  0  0  0  0  0  0  0  0
   62.3110   31.5010   48.2220 C   0  0  0  0  0  0  0  0  0  0  0  0
   62.0030   32.2320   47.0570 C   0  0  0  0  0  0  0  0  0  0  0  0
   62.7000   33.4020   46.7500 C   0  0  0  0  0  0  0  0  0  0  0  0
   63.7160   33.8520   47.5930 C   0  0  0  0  0  0  0  0  0  0  0  0
   64.0420   33.1320   48.7440 C   0  0  0  0  0  0  0  0  0  0  0  0
   63.3490   31.9530   49.0660 C   0  0  0  0  0  0  0  0  0  0  0  0
   63.7000   31.2030   50.3310 C   0  0  0  0  0  0  0  0  0  0  0  0
   62.5940   31.3020   51.4020 C   0  0  0  0  0  0  0  0  0  0  0  0
   61.2360   31.0490   50.8810 N   0  0  0  0  0  0  0  0  0  0  0  0
   60.1850   31.4310   51.8410 C   0  0  0  0  0  0  0  0  0  0  0  0
   59.7210   32.8810   51.6270 C   0  0  0  0  0  0  0  0  0  0  0  0
   59.4170   33.1730   50.1810 C   0  0  0  0  0  0  0  0  0  0  0  0
   60.0280   34.2550   49.5290 C   0  0  0  0  0  0  0  0  0  0  0  0
   59.7610   34.5090   48.1810 C   0  0  0  0  0  0  0  0  0  0  0  0
   58.8940   33.6810   47.4590 C   0  0  0  0  0  0  0  0  0  0  0  0
   58.6770   33.9760   46.1030 O   0  0  0  0  0  0  0  0  0  0  0  0
   58.7880   33.0480   45.0230 C   0  0  0  0  0  0  0  0  0  0  0  0
   57.4120   32.6020   44.5150 C   0  0  0  0  0  0  0  0  0  0  0  0
   57.1080   31.2310   44.9870 N   0  0  0  0  0  0  0  0  0  0  0  0
   56.2470   30.4680   44.0390 C   0  0  0  0  0  0  0  0  0  0  0  0
   56.9650   29.2820   43.3800 C   0  0  0  0  0  0  0  0  0  0  0  0
   57.5340   28.3190   44.4300 C   0  0  0  0  0  0  0  0  0  0  0  0
   58.0610   29.0430   45.6810 C   0  0  0  0  0  0  0  0  0  0  0  0
   58.3400   30.5230   45.4030 C   0  0  0  0  0  0  0  0  0  0  0  0
   58.2840   32.5920   48.1100 C   0  0  0  0  0  0  0  0  0  0  0  0
   58.5440   32.3430   49.4610 C   0  0  0  0  0  0  0  0  0  0  0  0
   59.9700   29.0968   48.3206 H   0  0  0  0  0  0  0  0  0  0  0  0
   60.1764   30.3776   47.0782 H   0  0  0  0  0  0  0  0  0  0  0  0
   61.2582   28.9436   47.0782 H   0  0  0  0  0  0  0  0  0  0  0  0
   61.2076   31.8780   46.3847 H   0  0  0  0  0  0  0  0  0  0  0  0
   62.4476   33.9697   45.8422 H   0  0  0  0  0  0  0  0  0  0  0  0
   64.2615   34.7759   47.3506 H   0  0  0  0  0  0  0  0  0  0  0  0
   64.8466   33.4902   49.4030 H   0  0  0  0  0  0  0  0  0  0  0  0
   63.8554   30.1431   50.0812 H   0  0  0  0  0  0  0  0  0  0  0  0
   64.6108   31.6578   50.7477 H   0  0  0  0  0  0  0  0  0  0  0  0
   62.8065   30.5638   52.1893 H   0  0  0  0  0  0  0  0  0  0  0  0
   62.6051   32.3351   51.7796 H   0  0  0  0  0  0  0  0  0  0  0  0
   61.0940   31.5450   49.9730 H   0  0  0  0  0  0  0  0  0  0  0  0
   61.1660   30.0210   50.6960 H   0  0  0  0  0  0  0  0  0  0  0  0
   59.3239   30.7584   51.7136 H   0  0  0  0  0  0  0  0  0  0  0  0
   60.6010   31.3498   52.8561 H   0  0  0  0  0  0  0  0  0  0  0  0
   58.8121   33.0537   52.2220 H   0  0  0  0  0  0  0  0  0  0  0  0
   60.5378   33.5471   51.9418 H   0  0  0  0  0  0  0  0  0  0  0  0
   60.7207   34.9066   50.0818 H   0  0  0  0  0  0  0  0  0  0  0  0
   60.2363   35.3670   47.6832 H   0  0  0  0  0  0  0  0  0  0  0  0
   59.3352   33.5260   44.1971 H   0  0  0  0  0  0  0  0  0  0  0  0
   59.3233   32.1592   45.3883 H   0  0  0  0  0  0  0  0  0  0  0  0
   56.6445   33.2939   44.8921 H   0  0  0  0  0  0  0  0  0  0  0  0
   57.4180   32.6081   43.4150 H   0  0  0  0  0  0  0  0  0  0  0  0
   55.3759   30.0849   44.5907 H   0  0  0  0  0  0  0  0  0  0  0  0
   55.9590   31.1602   43.2341 H   0  0  0  0  0  0  0  0  0  0  0  0
   56.2496   28.7380   42.7458 H   0  0  0  0  0  0  0  0  0  0  0  0
   57.7999   29.6727   42.7798 H   0  0  0  0  0  0  0  0  0  0  0  0
   56.7389   27.6230   44.7357 H   0  0  0  0  0  0  0  0  0  0  0  0
   58.3833   27.7925   43.9701 H   0  0  0  0  0  0  0  0  0  0  0  0
   57.3096   28.9659   46.4807 H   0  0  0  0  0  0  0  0  0  0  0  0
   59.0058   28.5662   45.9809 H   0  0  0  0  0  0  0  0  0  0  0  0
   58.7321   30.9922   46.3174 H   0  0  0  0  0  0  0  0  0  0  0  0
   59.0739   30.5918   44.5865 H   0  0  0  0  0  0  0  0  0  0  0  0
   57.6000   31.9343   47.5535 H   0  0  0  0  0  0  0  0  0  0  0  0
   58.0613   31.4913   49.9626 H   0  0  0  0  0  0  0  0  0  0  0  0
  1  2  1  0
  2  3  1  0
  3  4  2  0
  4  5  1  0
  5  6  2  0
  6  7  1  0
  7  8  2  0
  8  9  1  0
  9 10  1  0
 10 11  1  0
 11 12  1  0
 12 13  1  0
 13 14  1  0
 14 15  2  0
 15 16  1  0
 16 17  2  0
 17 18  1  0
 18 19  1  0
 19 20  1  0
 20 21  1  0
 21 22  1  0
 22 23  1  0
 23 24  1  0
 24 25  1  0
 25 26  1  0
 17 27  1  0
 27 28  2  0
  8  3  1  0
 28 14  1  0
 26 21  1  0
  1 29  1  0
  1 30  1  0
  1 31  1  0
  4 32  1  0
  5 33  1  0
  6 34  1  0
  7 35  1  0
  9 36  1  0
  9 37  1  0
 10 38  1  0
 10 39  1  0
 11 40  1  0
 11 41  1  0
 12 42  1  0
 12 43  1  0
 13 44  1  0
 13 45  1  0
 15 46  1  0
 16 47  1  0
 19 48  1  0
 19 49  1  0
 20 50  1  0
 20 51  1  0
 22 52  1  0
 22 53  1  0
 23 54  1  0
 23 55  1  0
 24 56  1  0
 24 57  1  0
 25 58  1  0
 25 59  1  0
 26 60  1  0
 26 61  1  0
 27 62  1  0
 28 63  1  0
M  CHG  1  11   1
M  END
>  <UniqueID>  (36) 
35

>  <SMILES>  (36) 
COc1ccccc1CC[NH2+]CCc1ccc(OCCN2CCCCC2)cc1

>  <Energy>  (36) 
66.54416416768308

>  <Genealogy>  (36) 
COc1ccccc1CC[NH2+]CCc1ccc(OCCN2CCCCC2)cc1 (protonated)
COc1ccccc1CC[NH2+]CCc1ccc(OCCN2CCCCC2)cc1 (3D coordinates assigned)
COc1ccccc1CC[NH2+]CCc1ccc(OCCN2CCCCC2)cc1 (nonaromatic ring conformer: 66.54416416768308 kcal/mol)

>  <smiles>  (36) 
COc1ccccc1CCNCCc1ccc(OCCN2CCCCC2)cc1

>  <score_type>  (36) 
oracle

>  <origin>  (36) 
adg

>  <m_score__min__energy>  (36) 
-5.7199999999999998

>  <m_primary>  (36) 
energy

$$$$
36:0
     RDKit          3D

 23 25  0  0  0  0  0  0  0  0999 V2000
   57.0130   31.3510   44.9530 O   0  0  0  0  0  0  0  0  0  0  0  0
   58.1260   31.0670   45.4730 C   0  0  0  0  0  0  0  0  0  0  0  0
   58.5310   29.7220   45.5380 C   0  0  0  0  0  0  0  0  0  0  0  0
   57.7330   28.6740   45.0380 C   0  0  0  0  0  0  0  0  0  0  0  0
   58.1760   27.3510   45.1240 C   0  0  0  0  0  0  0  0  0  0  0  0
   59.4130   27.0600   45.7060 C   0  0  0  0  0  0  0  0  0  0  0  0
   60.2120   28.0910   46.2040 C   0  0  0  0  0  0  0  0  0  0  0  0
   59.7790   29.4190   46.1240 C   0  0  0  0  0  0  0  0  0  0  0  0
   60.5480   30.3870   46.6000 O   0  0  0  0  0  0  0  0  0  0  0  0
   60.2080   31.6720   46.5610 C   0  0  0  0  0  0  0  0  0  0  0  0
   61.0900   32.6220   47.0930 C   0  0  0  0  0  0  0  0  0  0  0  0
   62.7590   32.0850   47.8620 Br  0  0  0  0  0  0  0  0  0  0  0  0
   60.7600   33.9750   47.0660 C   0  0  0  0  0  0  0  0  0  0  0  0
   59.5530   34.3920   46.5120 C   0  0  0  0  0  0  0  0  0  0  0  0
   58.6520   33.4660   45.9750 C   0  0  0  0  0  0  0  0  0  0  0  0
   57.0300   34.2040   45.2480 Br  0  0  0  0  0  0  0  0  0  0  0  0
   58.9700   32.0780   45.9920 C   0  0  0  0  0  0  0  0  0  0  0  0
   56.7588   28.8975   44.5787 H   0  0  0  0  0  0  0  0  0  0  0  0
   57.5491   26.5363   44.7324 H   0  0  0  0  0  0  0  0  0  0  0  0
   59.7575   26.0174   45.7718 H   0  0  0  0  0  0  0  0  0  0  0  0
   61.1853   27.8584   46.6608 H   0  0  0  0  0  0  0  0  0  0  0  0
   61.4561   34.7170   47.4842 H   0  0  0  0  0  0  0  0  0  0  0  0
   59.3043   35.4634   46.4962 H   0  0  0  0  0  0  0  0  0  0  0  0
  1  2  2  0
  2  3  1  0
  3  4  2  0
  4  5  1  0
  5  6  2  0
  6  7  1  0
  7  8  2  0
  8  9  1  0
  9 10  1  0
 10 11  2  0
 11 12  1  0
 11 13  1  0
 13 14  2  0
 14 15  1  0
 15 16  1  0
 15 17  2  0
 17  2  1  0
  8  3  1  0
 17 10  1  0
  4 18  1  0
  5 19  1  0
  6 20  1  0
  7 21  1  0
 13 22  1  0
 14 23  1  0
M  END
>  <UniqueID>  (37) 
36

>  <SMILES>  (37) 
O=c1c2ccccc2oc2c(Br)ccc(Br)c12

>  <Energy>  (37) 
39.24450800414444

>  <Genealogy>  (37) 
O=c1c2ccccc2oc2c(Br)ccc(Br)c12 (3D coordinates assigned)
O=c1c2ccccc2oc2c(Br)ccc(Br)c12 (optimized conformer: 39.24450800414444 kcal/mol)

>  <smiles>  (37) 
O=c1c2ccccc2oc2c(Br)ccc(Br)c12

>  <score_type>  (37) 
oracle

>  <origin>  (37) 
adg

>  <m_score__min__energy>  (37) 
-7.1299999999999999

>  <m_primary>  (37) 
energy

$$$$
37:0
     RDKit          3D

 43 44  0  0  0  0  0  0  0  0999 V2000
   59.8400   34.2430   49.4610 C   0  0  0  0  0  0  0  0  0  0  0  0
   59.9910   34.2570   47.9730 C   0  0  0  0  0  0  0  0  0  0  0  0
   59.1330   34.8450   47.0680 C   0  0  0  0  0  0  0  0  0  0  0  0
   59.6810   34.6060   45.8230 C   0  0  0  0  0  0  0  0  0  0  0  0
   60.7950   33.9220   45.9490 O   0  0  0  0  0  0  0  0  0  0  0  0
   61.0120   33.6970   47.2250 C   0  0  0  0  0  0  0  0  0  0  0  0
   62.2070   32.9530   47.7430 C   0  0  0  0  0  0  0  0  0  0  0  0
   61.8000   31.6320   48.2310 N   0  0  0  0  0  0  0  0  0  0  0  0
   61.5340   30.7040   47.1190 C   0  0  0  0  0  0  0  0  0  0  0  0
   60.1300   30.0760   47.2410 C   0  0  1  0  0  0  0  0  0  0  0  0
   59.0140   31.1320   47.4470 C   0  0  0  0  0  0  0  0  0  0  0  0
   58.2460   31.4020   46.1440 C   0  0  0  0  0  0  0  0  0  0  0  0
   57.5780   30.1810   45.6110 N   0  0  1  0  0  0  0  0  0  0  0  0
   57.3240   30.2980   44.1510 C   0  0  0  0  0  0  0  0  0  0  0  0
   55.8960   29.8790   43.7470 C   0  0  0  0  0  0  0  0  0  0  0  0
   55.1630   29.4300   44.8550 O   0  0  0  0  0  0  0  0  0  0  0  0
   58.3190   28.9190   45.9110 C   0  0  0  0  0  0  0  0  0  0  0  0
   59.8300   29.1420   46.0470 C   0  0  0  0  0  0  0  0  0  0  0  0
   60.8303   34.3348   49.9309 H   0  0  0  0  0  0  0  0  0  0  0  0
   59.2064   35.0863   49.7732 H   0  0  0  0  0  0  0  0  0  0  0  0
   59.3722   33.2976   49.7732 H   0  0  0  0  0  0  0  0  0  0  0  0
   58.2046   35.3912   47.2912 H   0  0  0  0  0  0  0  0  0  0  0  0
   59.2487   34.9390   44.8679 H   0  0  0  0  0  0  0  0  0  0  0  0
   62.9408   32.8321   46.9325 H   0  0  0  0  0  0  0  0  0  0  0  0
   62.6567   33.5217   48.5703 H   0  0  0  0  0  0  0  0  0  0  0  0
   62.5980   31.2440   48.7880 H   0  0  0  0  0  0  0  0  0  0  0  0
   61.5998   31.2542   46.1688 H   0  0  0  0  0  0  0  0  0  0  0  0
   62.2809   29.8971   47.1521 H   0  0  0  0  0  0  0  0  0  0  0  0
   60.1352   29.4618   48.1535 H   0  0  0  0  0  0  0  0  0  0  0  0
   59.4701   32.0709   47.7940 H   0  0  0  0  0  0  0  0  0  0  0  0
   58.3040   30.7426   48.1915 H   0  0  0  0  0  0  0  0  0  0  0  0
   58.9532   31.7752   45.3887 H   0  0  0  0  0  0  0  0  0  0  0  0
   57.4625   32.1417   46.3653 H   0  0  0  0  0  0  0  0  0  0  0  0
   56.6460   30.0980   46.0840 H   0  0  0  0  0  0  0  0  0  0  0  0
   57.4787   31.3452   43.8521 H   0  0  0  0  0  0  0  0  0  0  0  0
   58.0209   29.6157   43.6424 H   0  0  0  0  0  0  0  0  0  0  0  0
   55.3810   30.7439   43.3035 H   0  0  0  0  0  0  0  0  0  0  0  0
   55.9685   29.0548   43.0221 H   0  0  0  0  0  0  0  0  0  0  0  0
   54.3800   28.9360   44.4980 H   0  0  0  0  0  0  0  0  0  0  0  0
   58.1403   28.2029   45.0954 H   0  0  0  0  0  0  0  0  0  0  0  0
   57.9501   28.5363   46.8741 H   0  0  0  0  0  0  0  0  0  0  0  0
   60.2137   29.5996   45.1232 H   0  0  0  0  0  0  0  0  0  0  0  0
   60.3202   28.1725   46.2197 H   0  0  0  0  0  0  0  0  0  0  0  0
  1  2  1  0
  2  3  1  0
  3  4  2  0
  4  5  1  0
  5  6  1  0
  6  7  1  0
  7  8  1  0
  8  9  1  0
  9 10  1  0
 10 11  1  0
 11 12  1  0
 12 13  1  0
 13 14  1  0
 14 15  1  0
 15 16  1  0
 13 17  1  0
 17 18  1  0
  6  2  2  0
 18 10  1  0
  1 19  1  0
  1 20  1  0
  1 21  1  0
  3 22  1  0
  4 23  1  0
  7 24  1  0
  7 25  1  0
  8 26  1  0
  9 27  1  0
  9 28  1  0
 10 29  1  1
 11 30  1  0
 11 31  1  0
 12 32  1  0
 12 33  1  0
 13 34  1  1
 14 35  1  0
 14 36  1  0
 15 37  1  0
 15 38  1  0
 16 39  1  0
 17 40  1  0
 17 41  1  0
 18 42  1  0
 18 43  1  0
M  CHG  1  13   1
M  END
>  <UniqueID>  (38) 
37

>  <SMILES>  (38) 
Cc1ccoc1CNCC1CC[NH+](CCO)CC1

>  <Energy>  (38) 
72.71351604785902

>  <Genealogy>  (38) 
Cc1ccoc1CNCC1CC[NH+](CCO)CC1 (protonated)
Cc1ccoc1CNCC1CC[NH+](CCO)CC1 (3D coordinates assigned)
Cc1ccoc1CNCC1CC[NH+](CCO)CC1 (nonaromatic ring conformer: 72.71351604785902 kcal/mol)

>  <smiles>  (38) 
Cc1ccoc1CNCC1CCN(CCO)CC1

>  <score_type>  (38) 
oracle

>  <origin>  (38) 
adg

>  <m_score__min__energy>  (38) 
-4.8899999999999997

>  <m_primary>  (38) 
energy

$$$$
38:0
     RDKit          3D

 48 50  0  0  0  0  0  0  0  0999 V2000
   57.7650   25.7650   44.3330 C   0  0  0  0  0  0  0  0  0  0  0  0
   57.9490   26.8500   43.4310 O   0  0  0  0  0  0  0  0  0  0  0  0
   57.9910   28.1990   43.8120 C   0  0  0  0  0  0  0  0  0  0  0  0
   58.9700   28.7060   44.6890 C   0  0  0  0  0  0  0  0  0  0  0  0
   58.9680   30.0600   45.0410 C   0  0  0  0  0  0  0  0  0  0  0  0
   57.9890   30.9210   44.5270 C   0  0  0  0  0  0  0  0  0  0  0  0
   57.9890   32.6320   44.9480 S   0  0  0  0  0  0  0  0  0  0  0  0
   58.3930   33.4260   43.7360 O   0  0  0  0  0  0  0  0  0  0  0  0
   56.6060   33.0590   45.3590 O   0  0  0  0  0  0  0  0  0  0  0  0
   59.1160   32.9210   46.2480 N   0  0  0  0  0  0  0  0  0  0  0  0
   58.4910   32.5890   47.5420 C   0  0  0  0  0  0  0  0  0  0  0  0
   59.5450   32.6190   48.6590 C   0  0  0  0  0  0  0  0  0  0  0  0
   60.5340   33.6750   48.4080 N   0  0  0  0  0  0  0  0  0  0  0  0
   61.8650   33.5620   48.9410 C   0  0  0  0  0  0  0  0  0  0  0  0
   62.2020   34.2590   50.1130 C   0  0  0  0  0  0  0  0  0  0  0  0
   63.4920   34.1740   50.6400 C   0  0  0  0  0  0  0  0  0  0  0  0
   64.4580   33.3960   50.0030 C   0  0  0  0  0  0  0  0  0  0  0  0
   64.1360   32.6960   48.8370 C   0  0  0  0  0  0  0  0  0  0  0  0
   62.8360   32.7670   48.2970 C   0  0  0  0  0  0  0  0  0  0  0  0
   62.4750   32.0570   47.1430 O   0  0  0  0  0  0  0  0  0  0  0  0
   61.7930   30.8060   47.1420 C   0  0  0  0  0  0  0  0  0  0  0  0
   60.1680   34.8100   47.5540 C   0  0  0  0  0  0  0  0  0  0  0  0
   59.5840   34.3270   46.2090 C   0  0  0  0  0  0  0  0  0  0  0  0
   57.0210   30.4210   43.6490 C   0  0  0  0  0  0  0  0  0  0  0  0
   57.0210   29.0670   43.2970 C   0  0  0  0  0  0  0  0  0  0  0  0
   57.8275   26.1336   45.3675 H   0  0  0  0  0  0  0  0  0  0  0  0
   56.7771   25.3115   44.1644 H   0  0  0  0  0  0  0  0  0  0  0  0
   58.5481   25.0112   44.1644 H   0  0  0  0  0  0  0  0  0  0  0  0
   59.7390   28.0346   45.0986 H   0  0  0  0  0  0  0  0  0  0  0  0
   59.7374   30.4501   45.7235 H   0  0  0  0  0  0  0  0  0  0  0  0
   59.9350   32.2860   46.0920 H   0  0  0  0  0  0  0  0  0  0  0  0
   57.7033   33.3237   47.7650 H   0  0  0  0  0  0  0  0  0  0  0  0
   58.0558   31.5804   47.4840 H   0  0  0  0  0  0  0  0  0  0  0  0
   59.0471   32.8112   49.6208 H   0  0  0  0  0  0  0  0  0  0  0  0
   60.0616   31.6482   48.6853 H   0  0  0  0  0  0  0  0  0  0  0  0
   61.4446   34.8758   50.6189 H   0  0  0  0  0  0  0  0  0  0  0  0
   63.7468   34.7217   51.5593 H   0  0  0  0  0  0  0  0  0  0  0  0
   65.4745   33.3331   50.4186 H   0  0  0  0  0  0  0  0  0  0  0  0
   64.9024   32.0854   48.3372 H   0  0  0  0  0  0  0  0  0  0  0  0
   61.6171   30.4834   48.1788 H   0  0  0  0  0  0  0  0  0  0  0  0
   60.8291   30.9143   46.6232 H   0  0  0  0  0  0  0  0  0  0  0  0
   62.4062   30.0545   46.6232 H   0  0  0  0  0  0  0  0  0  0  0  0
   59.4161   35.4225   48.0730 H   0  0  0  0  0  0  0  0  0  0  0  0
   61.0734   35.4005   47.3502 H   0  0  0  0  0  0  0  0  0  0  0  0
   58.7327   34.9719   45.9456 H   0  0  0  0  0  0  0  0  0  0  0  0
   60.3904   34.3830   45.4630 H   0  0  0  0  0  0  0  0  0  0  0  0
   56.2572   31.0951   43.2340 H   0  0  0  0  0  0  0  0  0  0  0  0
   56.2529   28.6815   42.6103 H   0  0  0  0  0  0  0  0  0  0  0  0
  1  2  1  0
  2  3  1  0
  3  4  2  0
  4  5  1  0
  5  6  2  0
  6  7  1  0
  7  8  2  0
  7  9  2  0
  7 10  1  0
 10 11  1  0
 11 12  1  0
 12 13  1  0
 13 14  1  0
 14 15  2  0
 15 16  1  0
 16 17  2  0
 17 18  1  0
 18 19  2  0
 19 20  1  0
 20 21  1  0
 13 22  1  0
 22 23  1  0
  6 24  1  0
 24 25  2  0
 25  3  1  0
 23 10  1  0
 19 14  1  0
  1 26  1  0
  1 27  1  0
  1 28  1  0
  4 29  1  0
  5 30  1  0
 10 31  1  0
 11 32  1  0
 11 33  1  0
 12 34  1  0
 12 35  1  0
 15 36  1  0
 16 37  1  0
 17 38  1  0
 18 39  1  0
 21 40  1  0
 21 41  1  0
 21 42  1  0
 22 43  1  0
 22 44  1  0
 23 45  1  0
 23 46  1  0
 24 47  1  0
 25 48  1  0
M  CHG  1  10   1
M  END
>  <UniqueID>  (39) 
38

>  <SMILES>  (39) 
COc1ccc(S(=O)(=O)[NH+]2CCN(c3ccccc3OC)CC2)cc1

>  <Energy>  (39) 
57.06323262222198

>  <Genealogy>  (39) 
COc1ccc(S(=O)(=O)[NH+]2CCN(c3ccccc3OC)CC2)cc1 (protonated)
COc1ccc(S(=O)(=O)[NH+]2CCN(c3ccccc3OC)CC2)cc1 (3D coordinates assigned)
COc1ccc(S(=O)(=O)[NH+]2CCN(c3ccccc3OC)CC2)cc1 (nonaromatic ring conformer: 57.06323262222198 kcal/mol)

>  <smiles>  (39) 
COc1ccc(S(=O)(=O)N2CCN(c3ccccc3OC)CC2)cc1

>  <score_type>  (39) 
oracle

>  <origin>  (39) 
adg

>  <m_score__min__energy>  (39) 
-5.5099999999999998

>  <m_primary>  (39) 
energy

$$$$
39:0
     RDKit          3D

 33 34  0  0  0  0  0  0  0  0999 V2000
   59.5930   30.4610   47.9390 C   0  0  0  0  0  0  0  0  0  0  0  0
   58.7780   31.0680   46.8460 C   0  0  0  0  0  0  0  0  0  0  0  0
   57.8450   30.3990   46.1270 N   0  0  0  0  0  0  0  0  0  0  0  0
   57.3560   31.2300   45.2120 N   0  0  0  0  0  0  0  0  0  0  0  0
   56.3630   30.8420   44.2130 C   0  0  0  0  0  0  0  0  0  0  0  0
   56.3880   29.3280   44.0030 C   0  0  0  0  0  0  0  0  0  0  0  0
   55.8260   28.6420   45.1600 N   0  0  0  0  0  0  0  0  0  0  0  0
   56.2860   27.3670   45.6220 C   0  0  0  0  0  0  0  0  0  0  0  0
   55.4660   26.5020   46.0320 O   0  0  0  0  0  0  0  0  0  0  0  0
   57.7470   27.0420   45.5700 C   0  0  0  0  0  0  0  0  0  0  0  0
   58.2980   26.7410   46.9640 C   0  0  0  0  0  0  0  0  0  0  0  0
   58.0850   27.8330   47.7850 F   0  0  0  0  0  0  0  0  0  0  0  0
   59.6580   26.4920   46.8970 F   0  0  0  0  0  0  0  0  0  0  0  0
   57.6580   25.6410   47.5050 F   0  0  0  0  0  0  0  0  0  0  0  0
   57.9880   32.4160   45.3210 C   0  0  0  0  0  0  0  0  0  0  0  0
   57.8350   33.5710   44.5500 C   0  0  0  0  0  0  0  0  0  0  0  0
   58.6460   34.6790   44.8660 C   0  0  0  0  0  0  0  0  0  0  0  0
   59.5790   34.6050   45.9260 C   0  0  0  0  0  0  0  0  0  0  0  0
   59.7130   33.4240   46.6790 C   0  0  0  0  0  0  0  0  0  0  0  0
   58.8930   32.3500   46.3430 C   0  0  0  0  0  0  0  0  0  0  0  0
   59.1841   30.7656   48.9137 H   0  0  0  0  0  0  0  0  0  0  0  0
   59.5613   29.3647   47.8545 H   0  0  0  0  0  0  0  0  0  0  0  0
   60.6343   30.8053   47.8545 H   0  0  0  0  0  0  0  0  0  0  0  0
   55.3633   31.1444   44.5581 H   0  0  0  0  0  0  0  0  0  0  0  0
   56.5986   31.3400   43.2609 H   0  0  0  0  0  0  0  0  0  0  0  0
   55.7961   29.0766   43.1105 H   0  0  0  0  0  0  0  0  0  0  0  0
   57.4310   29.0048   43.8701 H   0  0  0  0  0  0  0  0  0  0  0  0
   57.8957   26.1614   44.9279 H   0  0  0  0  0  0  0  0  0  0  0  0
   58.2827   27.9132   45.1651 H   0  0  0  0  0  0  0  0  0  0  0  0
   57.1076   33.6138   43.7259 H   0  0  0  0  0  0  0  0  0  0  0  0
   58.5527   35.6079   44.2842 H   0  0  0  0  0  0  0  0  0  0  0  0
   60.2050   35.4777   46.1638 H   0  0  0  0  0  0  0  0  0  0  0  0
   60.4386   33.3518   47.5026 H   0  0  0  0  0  0  0  0  0  0  0  0
  1  2  1  0
  2  3  2  0
  3  4  1  0
  4  5  1  0
  5  6  1  0
  6  7  1  0
  7  8  1  0
  8  9  2  0
  8 10  1  0
 10 11  1  0
 11 12  1  0
 11 13  1  0
 11 14  1  0
  4 15  1  0
 15 16  2  0
 16 17  1  0
 17 18  2  0
 18 19  1  0
 19 20  2  0
 20  2  1  0
 20 15  1  0
  1 21  1  0
  1 22  1  0
  1 23  1  0
  5 24  1  0
  5 25  1  0
  6 26  1  0
  6 27  1  0
 10 28  1  0
 10 29  1  0
 16 30  1  0
 17 31  1  0
 18 32  1  0
 19 33  1  0
M  CHG  1   7  -1
M  END
>  <UniqueID>  (40) 
39

>  <SMILES>  (40) 
Cc1nn(CC[N-]C(=O)CC(F)(F)F)c2ccccc12

>  <Energy>  (40) 
62.22553158116173

>  <Genealogy>  (40) 
Cc1nn(CC[N-]C(=O)CC(F)(F)F)c2ccccc12 (protonated)
Cc1nn(CC[N-]C(=O)CC(F)(F)F)c2ccccc12 (3D coordinates assigned)
Cc1nn(CC[N-]C(=O)CC(F)(F)F)c2ccccc12 (optimized conformer: 62.22553158116173 kcal/mol)

>  <smiles>  (40) 
Cc1nn(CCNC(=O)CC(F)(F)F)c2ccccc12

>  <score_type>  (40) 
oracle

>  <origin>  (40) 
adg

>  <m_score__min__energy>  (40) 
-8.4100000000000001

>  <m_primary>  (40) 
energy

$$$$
40:0
     RDKit          3D

 33 35  0  0  0  0  0  0  0  0999 V2000
   58.9690   34.8100   44.9730 C   0  0  0  0  0  0  0  0  0  0  0  0
   57.9100   33.8640   45.0810 O   0  0  0  0  0  0  0  0  0  0  0  0
   58.0920   32.4870   45.2780 C   0  0  0  0  0  0  0  0  0  0  0  0
   57.9420   31.5550   44.2320 C   0  0  0  0  0  0  0  0  0  0  0  0
   58.1290   30.1910   44.4670 C   0  0  0  0  0  0  0  0  0  0  0  0
   58.4570   29.7310   45.7520 C   0  0  0  0  0  0  0  0  0  0  0  0
   58.6730   28.3300   45.9930 N   0  0  0  0  0  0  0  0  0  0  0  0
   59.8730   27.7850   46.2770 C   0  0  0  0  0  0  0  0  0  0  0  0
   59.7600   26.4160   46.3690 C   0  0  0  0  0  0  0  0  0  0  0  0
   58.4320   26.1050   46.1360 C   0  0  0  0  0  0  0  0  0  0  0  0
   57.7750   27.3160   45.9080 C   0  0  0  0  0  0  0  0  0  0  0  0
   56.3150   27.5130   45.7290 C   0  0  0  0  0  0  0  0  0  0  0  0
   55.8940   28.5950   45.2420 O   0  0  0  0  0  0  0  0  0  0  0  0
   55.3580   26.5160   46.0910 N   0  0  0  0  0  0  0  0  0  0  0  0
   55.4420   25.1120   45.7230 C   0  0  0  0  0  0  0  0  0  0  0  0
   56.4830   24.4100   46.5900 C   0  0  0  0  0  0  0  0  0  0  0  0
   57.8870   24.7280   46.1650 C   0  0  0  0  0  0  0  0  0  0  0  0
   58.6430   23.7710   45.8480 O   0  0  0  0  0  0  0  0  0  0  0  0
   58.6220   30.6580   46.7910 C   0  0  0  0  0  0  0  0  0  0  0  0
   58.4360   32.0250   46.5590 C   0  0  0  0  0  0  0  0  0  0  0  0
   58.6380   33.1570   47.8880 Cl  0  0  0  0  0  0  0  0  0  0  0  0
   59.3003   35.1060   45.9793 H   0  0  0  0  0  0  0  0  0  0  0  0
   59.8107   34.3576   44.4281 H   0  0  0  0  0  0  0  0  0  0  0  0
   58.6140   35.6972   44.4281 H   0  0  0  0  0  0  0  0  0  0  0  0
   57.6758   31.9040   43.2234 H   0  0  0  0  0  0  0  0  0  0  0  0
   58.0187   29.4734   43.6407 H   0  0  0  0  0  0  0  0  0  0  0  0
   60.8059   28.3513   46.4150 H   0  0  0  0  0  0  0  0  0  0  0  0
   60.5708   25.7051   46.5863 H   0  0  0  0  0  0  0  0  0  0  0  0
   54.4616   24.6363   45.8728 H   0  0  0  0  0  0  0  0  0  0  0  0
   55.7365   25.0313   44.6662 H   0  0  0  0  0  0  0  0  0  0  0  0
   56.3483   24.7304   47.6336 H   0  0  0  0  0  0  0  0  0  0  0  0
   56.3359   23.3254   46.4803 H   0  0  0  0  0  0  0  0  0  0  0  0
   58.8998   30.3077   47.7961 H   0  0  0  0  0  0  0  0  0  0  0  0
  1  2  1  0
  2  3  1  0
  3  4  2  0
  4  5  1  0
  5  6  2  0
  6  7  1  0
  7  8  1  0
  8  9  2  0
  9 10  1  0
 10 11  2  0
 11 12  1  0
 12 13  2  0
 12 14  1  0
 14 15  1  0
 15 16  1  0
 16 17  1  0
 17 18  2  0
  6 19  1  0
 19 20  2  0
 20 21  1  0
 20  3  1  0
 11  7  1  0
 17 10  1  0
  1 22  1  0
  1 23  1  0
  1 24  1  0
  4 25  1  0
  5 26  1  0
  8 27  1  0
  9 28  1  0
 15 29  1  0
 15 30  1  0
 16 31  1  0
 16 32  1  0
 19 33  1  0
M  CHG  1  14  -1
M  END
>  <UniqueID>  (41) 
40

>  <SMILES>  (41) 
COc1ccc(-n2ccc3c2C(=O)[N-]CCC3=O)cc1Cl

>  <Energy>  (41) 
70.14669510723958

>  <Genealogy>  (41) 
COc1ccc(-n2ccc3c2C(=O)[N-]CCC3=O)cc1Cl (protonated)
COc1ccc(-n2ccc3c2C(=O)[N-]CCC3=O)cc1Cl (3D coordinates assigned)
COc1ccc(-n2ccc3c2C(=O)[N-]CCC3=O)cc1Cl (nonaromatic ring conformer: 70.14669510723958 kcal/mol)

>  <smiles>  (41) 
COc1ccc(-n2ccc3c2C(=O)NCCC3=O)cc1Cl

>  <score_type>  (41) 
oracle

>  <origin>  (41) 
adg

>  <m_score__min__energy>  (41) 
-7.8399999999999999

>  <m_primary>  (41) 
energy

$$$$
41:0
     RDKit          3D

 33 34  0  0  0  0  0  0  0  0999 V2000
   57.5281   29.9152   45.8897 H   0  0  0  0  0  0  0  0  0  0  0  0
   57.7600   30.8090   45.2920 C   0  0  0  0  0  0  0  0  0  0  0  0
   57.4400   30.8350   43.9330 C   0  0  0  0  0  0  0  0  0  0  0  0
   56.9656   29.9598   43.4650 H   0  0  0  0  0  0  0  0  0  0  0  0
   57.7210   31.9720   43.1630 C   0  0  0  0  0  0  0  0  0  0  0  0
   57.3910   32.0070   41.6990 C   0  0  0  0  0  0  0  0  0  0  0  0
   56.3046   32.1222   41.5707 H   0  0  0  0  0  0  0  0  0  0  0  0
   57.9080   32.8553   41.2268 H   0  0  0  0  0  0  0  0  0  0  0  0
   57.7186   31.0691   41.2268 H   0  0  0  0  0  0  0  0  0  0  0  0
   58.3480   33.0720   43.7610 C   0  0  0  0  0  0  0  0  0  0  0  0
   58.5746   33.9640   43.1585 H   0  0  0  0  0  0  0  0  0  0  0  0
   58.6900   33.0470   45.1220 C   0  0  0  0  0  0  0  0  0  0  0  0
   59.4780   34.4550   45.8430 S   0  0  0  0  0  0  0  0  0  0  0  0
   59.2560   35.6400   44.9450 O   0  0  0  0  0  0  0  0  0  0  0  0
   58.9030   34.7550   47.1980 O   0  0  0  0  0  0  0  0  0  0  0  0
   61.1890   34.1880   46.0040 N   0  0  0  0  0  0  0  0  0  0  0  0
   61.8040   33.6790   47.0360 C   0  0  0  0  0  0  0  0  0  0  0  0
   63.2050   33.5180   47.0750 C   0  0  0  0  0  0  0  0  0  0  0  0
   63.8207   33.8111   46.2119 H   0  0  0  0  0  0  0  0  0  0  0  0
   63.8040   32.9840   48.2170 C   0  0  0  0  0  0  0  0  0  0  0  0
   64.8963   32.8617   48.2597 H   0  0  0  0  0  0  0  0  0  0  0  0
   63.0170   32.6060   49.3030 C   0  0  0  0  0  0  0  0  0  0  0  0
   63.5900   32.0890   50.4180 F   0  0  0  0  0  0  0  0  0  0  0  0
   61.6350   32.7750   49.2360 C   0  0  0  0  0  0  0  0  0  0  0  0
   61.0046   32.4809   50.0881 H   0  0  0  0  0  0  0  0  0  0  0  0
   61.0630   33.3030   48.1190 N   0  0  0  0  0  0  0  0  0  0  0  0
   60.0240   33.4240   48.1050 H   0  0  0  0  0  0  0  0  0  0  0  0
   58.3770   31.9170   45.9040 C   0  0  0  0  0  0  0  0  0  0  0  0
   58.6840   31.9290   47.2740 O   0  0  0  0  0  0  0  0  0  0  0  0
   59.1150   30.7930   48.0160 C   0  0  0  0  0  0  0  0  0  0  0  0
   59.0343   31.0058   49.0922 H   0  0  0  0  0  0  0  0  0  0  0  0
   58.4821   29.9291   47.7646 H   0  0  0  0  0  0  0  0  0  0  0  0
   60.1616   30.5663   47.7646 H   0  0  0  0  0  0  0  0  0  0  0  0
  1  2  1  0
  2  3  2  0
  3  4  1  0
  3  5  1  0
  5  6  1  0
  6  7  1  0
  6  8  1  0
  6  9  1  0
  5 10  2  0
 10 11  1  0
 10 12  1  0
 12 13  1  0
 13 14  2  0
 13 15  2  0
 13 16  1  0
 16 17  2  0
 17 18  1  0
 18 19  1  0
 18 20  2  0
 20 21  1  0
 20 22  1  0
 22 23  1  0
 22 24  2  0
 24 25  1  0
 24 26  1  0
 26 27  1  0
 12 28  2  0
 28 29  1  0
 29 30  1  0
 30 31  1  0
 30 32  1  0
 30 33  1  0
 28  2  1  0
 26 17  1  0
M  END
>  <UniqueID>  (42) 
41

>  <SMILES>  (42) 
COc1ccc(C)cc1S(=O)(=O)/N=c1\ccc(F)c[nH]1

>  <Energy>  (42) 
38.52584485633755

>  <Genealogy>  (42) 
COc1ccc(C)cc1S(=O)(=O)/N=c1\ccc(F)c[nH]1 (cis-trans isomerization)
COc1ccc(C)cc1S(=O)(=O)/N=c1\ccc(F)c[nH]1 (3D coordinates assigned)
COc1ccc(C)cc1S(=O)(=O)/N=c1\ccc(F)c[nH]1 (optimized conformer: 38.52584485633755 kcal/mol)

>  <smiles>  (42) 
COc1ccc(C)cc1S(=O)(=O)N=c1ccc(F)c[nH]1

>  <score_type>  (42) 
oracle

>  <origin>  (42) 
adg

>  <m_score__min__energy>  (42) 
-6.75

>  <m_primary>  (42) 
energy

$$$$
42:0
     RDKit          3D

 20 20  0  0  0  0  0  0  0  0999 V2000
   56.0470   29.7990   43.6270 C   0  0  0  0  0  0  0  0  0  0  0  0
   56.2670   30.5720   44.8530 N   0  0  0  0  0  0  0  0  0  0  0  0
   57.6870   30.5860   45.2250 C   0  0  0  0  0  0  0  0  0  0  0  0
   58.1620   31.9970   45.4540 C   0  0  0  0  0  0  0  0  0  0  0  0
   57.6160   33.0570   44.7170 C   0  0  0  0  0  0  0  0  0  0  0  0
   58.0760   34.3580   44.9210 C   0  0  0  0  0  0  0  0  0  0  0  0
   59.0840   34.5890   45.8580 C   0  0  0  0  0  0  0  0  0  0  0  0
   59.6110   33.5520   46.5640 N   0  0  0  0  0  0  0  0  0  0  0  0
   59.1780   32.2740   46.3820 C   0  0  0  0  0  0  0  0  0  0  0  0
   55.7546   28.7714   43.8889 H   0  0  0  0  0  0  0  0  0  0  0  0
   55.2468   30.2686   43.0361 H   0  0  0  0  0  0  0  0  0  0  0  0
   56.9745   29.7769   43.0361 H   0  0  0  0  0  0  0  0  0  0  0  0
   55.7440   30.0880   45.6200 H   0  0  0  0  0  0  0  0  0  0  0  0
   57.8244   30.0041   46.1483 H   0  0  0  0  0  0  0  0  0  0  0  0
   58.2723   30.1438   44.4054 H   0  0  0  0  0  0  0  0  0  0  0  0
   56.8248   32.8629   43.9778 H   0  0  0  0  0  0  0  0  0  0  0  0
   57.6481   35.1942   44.3485 H   0  0  0  0  0  0  0  0  0  0  0  0
   59.4533   35.6114   46.0262 H   0  0  0  0  0  0  0  0  0  0  0  0
   60.3670   33.7400   47.2590 H   0  0  0  0  0  0  0  0  0  0  0  0
   59.6261   31.4555   46.9644 H   0  0  0  0  0  0  0  0  0  0  0  0
  1  2  1  0
  2  3  1  0
  3  4  1  0
  4  5  2  0
  5  6  1  0
  6  7  2  0
  7  8  1  0
  8  9  2  0
  9  4  1  0
  1 10  1  0
  1 11  1  0
  1 12  1  0
  2 13  1  0
  3 14  1  0
  3 15  1  0
  5 16  1  0
  6 17  1  0
  7 18  1  0
  8 19  1  0
  9 20  1  0
M  CHG  1   8   1
M  END
>  <UniqueID>  (43) 
42

>  <SMILES>  (43) 
CNCc1ccc[nH+]c1

>  <Energy>  (43) 
16.37433514691611

>  <Genealogy>  (43) 
CNCc1ccc[nH+]c1 (protonated)
CNCc1ccc[nH+]c1 (3D coordinates assigned)
CNCc1ccc[nH+]c1 (optimized conformer: 16.37433514691611 kcal/mol)

>  <smiles>  (43) 
CNCc1cccnc1

>  <score_type>  (43) 
oracle

>  <origin>  (43) 
adg

>  <m_score__min__energy>  (43) 
-2.6800000000000002

>  <m_primary>  (43) 
energy

$$$$
43:0
     RDKit          3D

 34 36  0  0  0  0  0  0  0  0999 V2000
   60.5850   34.9660   49.1110 F   0  0  0  0  0  0  0  0  0  0  0  0
   60.2590   33.7170   48.6940 C   0  0  0  0  0  0  0  0  0  0  0  0
   60.4140   32.6360   49.5640 C   0  0  0  0  0  0  0  0  0  0  0  0
   60.0830   31.3430   49.1460 C   0  0  0  0  0  0  0  0  0  0  0  0
   59.5910   31.1180   47.8480 C   0  0  0  0  0  0  0  0  0  0  0  0
   59.2410   29.7460   47.4140 C   0  0  0  0  0  0  0  0  0  0  0  0
   58.1920   29.4620   46.6090 N   0  0  0  0  0  0  0  0  0  0  0  0
   58.0810   28.1300   46.3530 C   0  0  0  0  0  0  0  0  0  0  0  0
   57.0080   27.5860   45.4530 C   0  0  0  0  0  0  0  0  0  0  0  0
   56.0900   28.6440   44.9990 N   0  0  0  0  0  0  0  0  0  0  0  0
   56.5220   29.2350   43.7230 C   0  0  0  0  0  0  0  0  0  0  0  0
   56.9170   30.6680   43.9190 C   0  0  0  0  0  0  0  0  0  0  0  0
   57.6120   31.4440   43.0150 C   0  0  0  0  0  0  0  0  0  0  0  0
   57.7750   32.6680   43.6280 C   0  0  0  0  0  0  0  0  0  0  0  0
   57.1730   32.5600   44.8660 C   0  0  0  0  0  0  0  0  0  0  0  0
   56.6730   31.3550   45.0120 O   0  0  0  0  0  0  0  0  0  0  0  0
   59.0530   27.3300   46.9480 C   0  0  0  0  0  0  0  0  0  0  0  0
   60.0720   28.3380   47.8270 S   0  0  0  0  0  0  0  0  0  0  0  0
   59.4380   32.2140   46.9770 C   0  0  0  0  0  0  0  0  0  0  0  0
   59.7710   33.5070   47.3990 C   0  0  0  0  0  0  0  0  0  0  0  0
   59.5720   34.8600   46.2980 Cl  0  0  0  0  0  0  0  0  0  0  0  0
   60.7977   32.8018   50.5815 H   0  0  0  0  0  0  0  0  0  0  0  0
   60.2084   30.4965   49.8371 H   0  0  0  0  0  0  0  0  0  0  0  0
   57.4806   27.1229   44.5743 H   0  0  0  0  0  0  0  0  0  0  0  0
   56.4250   26.8471   46.0222 H   0  0  0  0  0  0  0  0  0  0  0  0
   55.1420   28.2160   44.8680 H   0  0  0  0  0  0  0  0  0  0  0  0
   56.0170   29.3880   45.7330 H   0  0  0  0  0  0  0  0  0  0  0  0
   57.3833   28.6712   43.3354 H   0  0  0  0  0  0  0  0  0  0  0  0
   55.6878   29.1890   43.0074 H   0  0  0  0  0  0  0  0  0  0  0  0
   57.9625   31.1484   42.0151 H   0  0  0  0  0  0  0  0  0  0  0  0
   58.2822   33.5521   43.2144 H   0  0  0  0  0  0  0  0  0  0  0  0
   57.1204   33.3625   45.6165 H   0  0  0  0  0  0  0  0  0  0  0  0
   59.1387   26.2369   46.8591 H   0  0  0  0  0  0  0  0  0  0  0  0
   59.0544   32.0533   45.9586 H   0  0  0  0  0  0  0  0  0  0  0  0
  1  2  1  0
  2  3  2  0
  3  4  1  0
  4  5  2  0
  5  6  1  0
  6  7  2  0
  7  8  1  0
  8  9  1  0
  9 10  1  0
 10 11  1  0
 11 12  1  0
 12 13  2  0
 13 14  1  0
 14 15  2  0
 15 16  1  0
  8 17  2  0
 17 18  1  0
  5 19  1  0
 19 20  2  0
 20 21  1  0
 20  2  1  0
 18  6  1  0
 16 12  1  0
  3 22  1  0
  4 23  1  0
  9 24  1  0
  9 25  1  0
 10 26  1  0
 10 27  1  0
 11 28  1  0
 11 29  1  0
 13 30  1  0
 14 31  1  0
 15 32  1  0
 17 33  1  0
 19 34  1  0
M  CHG  1  10   1
M  END
>  <UniqueID>  (44) 
43

>  <SMILES>  (44) 
Fc1ccc(-c2nc(C[NH2+]Cc3ccco3)cs2)cc1Cl

>  <Energy>  (44) 
90.49455573090894

>  <Genealogy>  (44) 
Fc1ccc(-c2nc(C[NH2+]Cc3ccco3)cs2)cc1Cl (protonated)
Fc1ccc(-c2nc(C[NH2+]Cc3ccco3)cs2)cc1Cl (3D coordinates assigned)
Fc1ccc(-c2nc(C[NH2+]Cc3ccco3)cs2)cc1Cl (optimized conformer: 90.49455573090894 kcal/mol)

>  <smiles>  (44) 
Fc1ccc(-c2nc(CNCc3ccco3)cs2)cc1Cl

>  <score_type>  (44) 
oracle

>  <origin>  (44) 
adg

>  <m_score__min__energy>  (44) 
-6.1200000000000001

>  <m_primary>  (44) 
energy

$$$$
44:0
     RDKit          3D

 30 31  0  0  0  0  0  0  0  0999 V2000
   55.8600   29.7120   46.0040 H   0  0  0  0  0  0  0  0  0  0  0  0
   55.5010   29.6110   45.0830 O   0  0  0  0  0  0  0  0  0  0  0  0
   56.5880   29.3630   44.2220 C   0  0  1  0  0  0  0  0  0  0  0  0
   56.6378   28.2686   44.1229 H   0  0  0  0  0  0  0  0  0  0  0  0
   56.3800   30.0640   42.8670 C   0  0  0  0  0  0  0  0  0  0  0  0
   55.3482   30.4304   42.7618 H   0  0  0  0  0  0  0  0  0  0  0  0
   56.5382   29.4054   42.0003 H   0  0  0  0  0  0  0  0  0  0  0  0
   57.3410   31.1840   42.9440 C   0  0  0  0  0  0  0  0  0  0  0  0
   57.4100   32.1140   42.1000 O   0  0  0  0  0  0  0  0  0  0  0  0
   58.1720   31.1050   44.0410 O   0  0  0  0  0  0  0  0  0  0  0  0
   57.9290   29.9220   44.7800 C   0  0  1  0  0  0  0  0  0  0  0  0
   58.7152   29.1608   44.6688 H   0  0  0  0  0  0  0  0  0  0  0  0
   57.9140   30.2260   46.2590 C   0  0  0  0  0  0  0  0  0  0  0  0
   57.0628   29.8642   46.8543 H   0  0  0  0  0  0  0  0  0  0  0  0
   58.8780   30.9110   46.8870 C   0  0  0  0  0  0  0  0  0  0  0  0
   59.4725   30.3926   47.6537 H   0  0  0  0  0  0  0  0  0  0  0  0
   59.1830   32.3270   46.6020 C   0  0  0  0  0  0  0  0  0  0  0  0
   58.1670   33.1410   46.0780 C   0  0  0  0  0  0  0  0  0  0  0  0
   57.1690   32.7174   45.8922 H   0  0  0  0  0  0  0  0  0  0  0  0
   58.4140   34.4840   45.7910 C   0  0  0  0  0  0  0  0  0  0  0  0
   57.6093   35.1166   45.3882 H   0  0  0  0  0  0  0  0  0  0  0  0
   59.6790   35.0250   46.0140 C   0  0  0  0  0  0  0  0  0  0  0  0
   59.9140   36.3300   45.7350 F   0  0  0  0  0  0  0  0  0  0  0  0
   60.7060   34.2230   46.5200 C   0  0  0  0  0  0  0  0  0  0  0  0
   61.7021   34.6573   46.6905 H   0  0  0  0  0  0  0  0  0  0  0  0
   60.4780   32.8630   46.8140 C   0  0  0  0  0  0  0  0  0  0  0  0
   61.5990   32.0010   47.3590 C   0  0  0  0  0  0  0  0  0  0  0  0
   61.6490   30.7650   46.7370 F   0  0  0  0  0  0  0  0  0  0  0  0
   61.4110   31.7950   48.7140 F   0  0  0  0  0  0  0  0  0  0  0  0
   62.8120   32.6340   47.1600 F   0  0  0  0  0  0  0  0  0  0  0  0
  1  2  1  0
  2  3  1  0
  3  4  1  6
  3  5  1  0
  5  6  1  0
  5  7  1  0
  5  8  1  0
  8  9  2  0
  8 10  1  0
 10 11  1  0
 11 12  1  1
 11 13  1  0
 13 14  1  0
 13 15  2  0
 15 16  1  0
 15 17  1  0
 17 18  2  0
 18 19  1  0
 18 20  1  0
 20 21  1  0
 20 22  2  0
 22 23  1  0
 22 24  1  0
 24 25  1  0
 24 26  2  0
 26 27  1  0
 27 28  1  0
 27 29  1  0
 27 30  1  0
 11  3  1  0
 26 17  1  0
M  END
>  <UniqueID>  (45) 
44

>  <SMILES>  (45) 
O=C1C[C@H](O)[C@H](/C=C\c2ccc(F)cc2C(F)(F)F)O1

>  <Energy>  (45) 
48.82335795569679

>  <Genealogy>  (45) 
O=C1C[C@H](O)[C@H](C=Cc2ccc(F)cc2C(F)(F)F)O1 (chirality)
O=C1C[C@H](O)[C@H](/C=C\c2ccc(F)cc2C(F)(F)F)O1 (cis-trans isomerization)
O=C1C[C@H](O)[C@H](/C=C\c2ccc(F)cc2C(F)(F)F)O1 (3D coordinates assigned)
O=C1C[C@H](O)[C@H](/C=C\c2ccc(F)cc2C(F)(F)F)O1 (nonaromatic ring conformer: 48.82335795569679 kcal/mol)

>  <smiles>  (45) 
O=C1CC(O)C(C=Cc2ccc(F)cc2C(F)(F)F)O1

>  <score_type>  (45) 
oracle

>  <origin>  (45) 
adg

>  <m_score__min__energy>  (45) 
-6.4299999999999997

>  <m_primary>  (45) 
energy

$$$$
45:0
     RDKit          3D

 33 34  0  0  0  0  0  0  0  0999 V2000
   59.6210   35.1320   45.7690 C   0  0  0  0  0  0  0  0  0  0  0  0
   58.6850   34.3250   44.8690 C   0  0  0  0  0  0  0  0  0  0  0  0
   57.4300   33.8350   45.6080 C   0  0  0  0  0  0  0  0  0  0  0  0
   57.7650   33.0300   46.8710 C   0  0  0  0  0  0  0  0  0  0  0  0
   58.6940   31.8830   46.5370 C   0  0  0  0  0  0  0  0  0  0  0  0
   59.9990   31.8430   47.0780 C   0  0  0  0  0  0  0  0  0  0  0  0
   60.4230   32.8930   47.9110 O   0  0  0  0  0  0  0  0  0  0  0  0
   61.7400   33.4350   47.9230 C   0  0  0  0  0  0  0  0  0  0  0  0
   60.8420   30.7550   46.7760 C   0  0  0  0  0  0  0  0  0  0  0  0
   60.3960   29.7110   45.9650 C   0  0  0  0  0  0  0  0  0  0  0  0
   59.0970   29.7330   45.4470 C   0  0  0  0  0  0  0  0  0  0  0  0
   58.6190   28.6920   44.6440 C   0  0  0  0  0  0  0  0  0  0  0  0
   57.3150   28.7470   44.1560 C   0  0  0  0  0  0  0  0  0  0  0  0
   56.5170   29.8470   44.4820 C   0  0  0  0  0  0  0  0  0  0  0  0
   55.3350   29.9160   44.0540 O   0  0  0  0  0  0  0  0  0  0  0  0
   56.9980   30.8240   45.2460 O   0  0  0  0  0  0  0  0  0  0  0  0
   58.2380   30.8170   45.7340 C   0  0  0  0  0  0  0  0  0  0  0  0
   59.3831   34.9269   46.8232 H   0  0  0  0  0  0  0  0  0  0  0  0
   60.6632   34.8447   45.5657 H   0  0  0  0  0  0  0  0  0  0  0  0
   59.4902   36.2051   45.5657 H   0  0  0  0  0  0  0  0  0  0  0  0
   58.3724   34.9598   44.0268 H   0  0  0  0  0  0  0  0  0  0  0  0
   59.2368   33.4375   44.5258 H   0  0  0  0  0  0  0  0  0  0  0  0
   56.8275   34.7089   45.8968 H   0  0  0  0  0  0  0  0  0  0  0  0
   56.8799   33.1704   44.9256 H   0  0  0  0  0  0  0  0  0  0  0  0
   58.2537   33.6905   47.6024 H   0  0  0  0  0  0  0  0  0  0  0  0
   56.8335   32.6228   47.2911 H   0  0  0  0  0  0  0  0  0  0  0  0
   62.0710   33.5712   48.9631 H   0  0  0  0  0  0  0  0  0  0  0  0
   62.4249   32.7456   47.4076 H   0  0  0  0  0  0  0  0  0  0  0  0
   61.7413   34.4068   47.4076 H   0  0  0  0  0  0  0  0  0  0  0  0
   61.8631   30.7285   47.1842 H   0  0  0  0  0  0  0  0  0  0  0  0
   61.0663   28.8702   45.7329 H   0  0  0  0  0  0  0  0  0  0  0  0
   59.2670   27.8373   44.3999 H   0  0  0  0  0  0  0  0  0  0  0  0
   56.9201   27.9377   43.5243 H   0  0  0  0  0  0  0  0  0  0  0  0
  1  2  1  0
  2  3  1  0
  3  4  1  0
  4  5  1  0
  5  6  2  0
  6  7  1  0
  7  8  1  0
  6  9  1  0
  9 10  2  0
 10 11  1  0
 11 12  1  0
 12 13  2  0
 13 14  1  0
 14 15  2  0
 14 16  1  0
 16 17  1  0
 17  5  1  0
 17 11  2  0
  1 18  1  0
  1 19  1  0
  1 20  1  0
  2 21  1  0
  2 22  1  0
  3 23  1  0
  3 24  1  0
  4 25  1  0
  4 26  1  0
  8 27  1  0
  8 28  1  0
  8 29  1  0
  9 30  1  0
 10 31  1  0
 12 32  1  0
 13 33  1  0
M  END
>  <UniqueID>  (46) 
45

>  <SMILES>  (46) 
CCCCc1c(OC)ccc2ccc(=O)oc12

>  <Energy>  (46) 
30.973084061377875

>  <Genealogy>  (46) 
CCCCc1c(OC)ccc2ccc(=O)oc12 (3D coordinates assigned)
CCCCc1c(OC)ccc2ccc(=O)oc12 (optimized conformer: 30.973084061377875 kcal/mol)

>  <smiles>  (46) 
CCCCc1c(OC)ccc2ccc(=O)oc12

>  <score_type>  (46) 
oracle

>  <origin>  (46) 
adg

>  <m_score__min__energy>  (46) 
-6.1299999999999999

>  <m_primary>  (46) 
energy

$$$$
46:0
     RDKit          3D

 40 43  0  0  0  0  0  0  0  0999 V2000
   59.2892   27.8892   43.0352 H   0  0  0  0  0  0  0  0  0  0  0  0
   58.4770   28.0950   43.7480 C   0  0  0  0  0  0  0  0  0  0  0  0
   58.1570   29.3770   44.0600 N   0  0  0  0  0  0  0  0  0  0  0  0
   57.1510   29.6650   44.9310 C   0  0  0  0  0  0  0  0  0  0  0  0
   56.8460   30.8930   45.2370 N   0  0  0  0  0  0  0  0  0  0  0  0
   57.7380   32.0070   45.6020 C   0  0  0  0  0  0  0  0  0  0  0  0
   58.3894   31.4658   46.3040 H   0  0  0  0  0  0  0  0  0  0  0  0
   57.0240   33.2780   46.0520 C   0  0  0  0  0  0  0  0  0  0  0  0
   55.9263   33.2103   46.0306 H   0  0  0  0  0  0  0  0  0  0  0  0
   57.1496   33.6595   47.0761 H   0  0  0  0  0  0  0  0  0  0  0  0
   57.6280   34.0220   44.8650 C   0  0  0  0  0  0  0  0  0  0  0  0
   56.8839   34.3971   44.1469 H   0  0  0  0  0  0  0  0  0  0  0  0
   58.2000   34.9476   45.0266 H   0  0  0  0  0  0  0  0  0  0  0  0
   58.3400   32.7510   44.4130 C   0  0  0  0  0  0  0  0  0  0  0  0
   58.0123   32.3748   43.4327 H   0  0  0  0  0  0  0  0  0  0  0  0
   59.4264   32.7475   44.2404 H   0  0  0  0  0  0  0  0  0  0  0  0
   56.4660   28.6500   45.5170 N   0  0  0  0  0  0  0  0  0  0  0  0
   56.7680   27.3490   45.2630 C   0  0  0  0  0  0  0  0  0  0  0  0
   56.0680   26.3200   45.9710 N   0  0  0  0  0  0  0  0  0  0  0  0
   54.8650   25.8930   45.6320 N   0  0  0  0  0  0  0  0  0  0  0  0
   54.5670   24.8250   46.3590 N   0  0  0  0  0  0  0  0  0  0  0  0
   55.5720   24.5310   47.1750 N   0  0  0  0  0  0  0  0  0  0  0  0
   56.5010   25.4710   46.9300 C   0  0  0  0  0  0  0  0  0  0  0  0
   57.6470   25.5080   47.5530 N   0  0  0  0  0  0  0  0  0  0  0  0
   58.6780   26.4890   47.3900 C   0  0  0  0  0  0  0  0  0  0  0  0
   59.8690   26.1420   46.7390 C   0  0  0  0  0  0  0  0  0  0  0  0
   60.0083   25.1202   46.3563 H   0  0  0  0  0  0  0  0  0  0  0  0
   60.8820   27.0940   46.5750 C   0  0  0  0  0  0  0  0  0  0  0  0
   61.8063   26.8261   46.0422 H   0  0  0  0  0  0  0  0  0  0  0  0
   60.7210   28.3840   47.0870 C   0  0  0  0  0  0  0  0  0  0  0  0
   61.5117   29.1352   46.9440 H   0  0  0  0  0  0  0  0  0  0  0  0
   59.5550   28.7200   47.7810 C   0  0  0  0  0  0  0  0  0  0  0  0
   59.4338   29.7316   48.1956 H   0  0  0  0  0  0  0  0  0  0  0  0
   58.5430   27.7700   47.9480 C   0  0  0  0  0  0  0  0  0  0  0  0
   57.6382   28.0271   48.5184 H   0  0  0  0  0  0  0  0  0  0  0  0
   57.7750   27.0360   44.3320 C   0  0  0  0  0  0  0  0  0  0  0  0
   58.1070   25.6130   43.9780 C   0  0  0  0  0  0  0  0  0  0  0  0
   58.2434   25.0282   44.8996 H   0  0  0  0  0  0  0  0  0  0  0  0
   57.2856   25.1808   43.3877 H   0  0  0  0  0  0  0  0  0  0  0  0
   59.0349   25.5889   43.3877 H   0  0  0  0  0  0  0  0  0  0  0  0
  1  2  1  0
  2  3  1  0
  3  4  1  0
  4  5  2  0
  5  6  1  0
  6  7  1  0
  6  8  1  0
  8  9  1  0
  8 10  1  0
  8 11  1  0
 11 12  1  0
 11 13  1  0
 11 14  1  0
 14 15  1  0
 14 16  1  0
  4 17  1  0
 17 18  2  0
 18 19  1  0
 19 20  1  0
 20 21  2  0
 21 22  1  0
 22 23  1  0
 23 24  2  0
 24 25  1  0
 25 26  2  0
 26 27  1  0
 26 28  1  0
 28 29  1  0
 28 30  2  0
 30 31  1  0
 30 32  1  0
 32 33  1  0
 32 34  2  0
 34 35  1  0
 18 36  1  0
 36 37  1  0
 37 38  1  0
 37 39  1  0
 37 40  1  0
 36  2  2  0
 14  6  1  0
 23 19  1  0
 34 25  1  0
M  CHG  2   3  -1  22  -1
M  END
>  <UniqueID>  (47) 
46

>  <SMILES>  (47) 
Cc1c[n-]/c(=N\C2CCC2)nc1-n1nn[n-]/c1=N/c1ccccc1

>  <Energy>  (47) 
164.10550040126873

>  <Genealogy>  (47) 
Cc1c[n-]c(=NC2CCC2)nc1-n1nn[n-]c1=Nc1ccccc1 (protonated)
Cc1c[n-]/c(=N\C2CCC2)nc1-n1nn[n-]/c1=N/c1ccccc1 (cis-trans isomerization)
Cc1c[n-]/c(=N\C2CCC2)nc1-n1nn[n-]/c1=N/c1ccccc1 (3D coordinates assigned)
Cc1c[n-]/c(=N\C2CCC2)nc1-n1nn[n-]/c1=N/c1ccccc1 (nonaromatic ring conformer: 164.10550040126873 kcal/mol)

>  <smiles>  (47) 
Cc1c[nH]c(=NC2CCC2)nc1-n1nn[nH]c1=Nc1ccccc1

>  <score_type>  (47) 
oracle

>  <origin>  (47) 
adg

>  <m_score__min__energy>  (47) 
-11.51

>  <m_primary>  (47) 
energy

$$$$
