0:0
     RDKit          3D

 52 54  0  0  0  0  0  0  0  0999 V2000
   63.4070   34.2050   47.0240 C   0  0  0  0  0  0  0  0  0  0  0  0
   63.8030   33.4990   48.3190 C   0  0  0  0  0  0  0  0  0  0  0  0
   63.3250   32.1000   48.3130 N   0  0  0  0  0  0  0  0  0  0  0  0
   62.8620   31.6550   49.6560 C   0  0  0  0  0  0  0  0  0  0  0  0
   61.3290   31.5930   49.7630 C   0  0  0  0  0  0  0  0  0  0  0  0
   60.7310   30.6800   48.7560 N   0  0  0  0  0  0  0  0  0  0  0  0
   60.4920   29.3340   49.3220 C   0  0  0  0  0  0  0  0  0  0  0  0
   59.9460   28.3700   48.2580 C   0  0  0  0  0  0  0  0  0  0  0  0
   59.2110   29.1060   47.2310 N   0  0  0  0  0  0  0  0  0  0  0  0
   58.2780   28.4670   46.3450 C   0  0  0  0  0  0  0  0  0  0  0  0
   57.9520   27.2640   46.5360 O   0  0  0  0  0  0  0  0  0  0  0  0
   57.6620   29.2120   45.2250 C   0  0  0  0  0  0  0  0  0  0  0  0
   57.3580   28.5400   44.0300 C   0  0  0  0  0  0  0  0  0  0  0  0
   56.7680   29.2260   42.9680 C   0  0  0  0  0  0  0  0  0  0  0  0
   56.4970   30.5860   43.1010 C   0  0  0  0  0  0  0  0  0  0  0  0
   56.8180   31.2340   44.2500 N   0  0  0  0  0  0  0  0  0  0  0  0
   57.3880   30.5930   45.3110 C   0  0  0  0  0  0  0  0  0  0  0  0
   57.7630   31.3130   46.4540 O   0  0  0  0  0  0  0  0  0  0  0  0
   58.3900   32.5670   46.4560 C   0  0  0  0  0  0  0  0  0  0  0  0
   58.8100   33.1030   47.6800 C   0  0  0  0  0  0  0  0  0  0  0  0
   59.4280   34.3560   47.7300 C   0  0  0  0  0  0  0  0  0  0  0  0
   59.6190   35.0900   46.5570 C   0  0  0  0  0  0  0  0  0  0  0  0
   59.1860   34.5730   45.3330 C   0  0  0  0  0  0  0  0  0  0  0  0
   58.5680   33.3190   45.2790 C   0  0  0  0  0  0  0  0  0  0  0  0
   61.5130   30.6130   47.4940 C   0  0  0  0  0  0  0  0  0  0  0  0
   62.3150   31.8950   47.2510 C   0  0  0  0  0  0  0  0  0  0  0  0
   62.8817   35.1415   47.2628 H   0  0  0  0  0  0  0  0  0  0  0  0
   64.3104   34.4304   46.4382 H   0  0  0  0  0  0  0  0  0  0  0  0
   62.7437   33.5516   46.4382 H   0  0  0  0  0  0  0  0  0  0  0  0
   64.8988   33.5067   48.4151 H   0  0  0  0  0  0  0  0  0  0  0  0
   63.3443   34.0281   49.1673 H   0  0  0  0  0  0  0  0  0  0  0  0
   63.2698   30.6529   49.8550 H   0  0  0  0  0  0  0  0  0  0  0  0
   63.2176   32.3914   50.3917 H   0  0  0  0  0  0  0  0  0  0  0  0
   61.0585   31.2372   50.7681 H   0  0  0  0  0  0  0  0  0  0  0  0
   60.9371   32.6037   49.5761 H   0  0  0  0  0  0  0  0  0  0  0  0
   61.4401   28.9363   49.7131 H   0  0  0  0  0  0  0  0  0  0  0  0
   59.7461   29.4227   50.1256 H   0  0  0  0  0  0  0  0  0  0  0  0
   60.7850   27.8347   47.7895 H   0  0  0  0  0  0  0  0  0  0  0  0
   59.2636   27.6553   48.7413 H   0  0  0  0  0  0  0  0  0  0  0  0
   59.3730   30.1350   47.1560 H   0  0  0  0  0  0  0  0  0  0  0  0
   57.5860   27.4685   43.9308 H   0  0  0  0  0  0  0  0  0  0  0  0
   56.5194   28.6985   42.0353 H   0  0  0  0  0  0  0  0  0  0  0  0
   56.0226   31.1353   42.2744 H   0  0  0  0  0  0  0  0  0  0  0  0
   58.6525   32.5342   48.6082 H   0  0  0  0  0  0  0  0  0  0  0  0
   59.7643   34.7644   48.6944 H   0  0  0  0  0  0  0  0  0  0  0  0
   60.1096   36.0737   46.5967 H   0  0  0  0  0  0  0  0  0  0  0  0
   59.3314   35.1533   44.4099 H   0  0  0  0  0  0  0  0  0  0  0  0
   58.2204   32.9196   44.3148 H   0  0  0  0  0  0  0  0  0  0  0  0
   62.2093   29.7634   47.5516 H   0  0  0  0  0  0  0  0  0  0  0  0
   60.8057   30.4899   46.6605 H   0  0  0  0  0  0  0  0  0  0  0  0
   62.8252   31.8210   46.2793 H   0  0  0  0  0  0  0  0  0  0  0  0
   61.6210   32.7484   47.2589 H   0  0  0  0  0  0  0  0  0  0  0  0
  1  2  1  0
  2  3  1  0
  3  4  1  0
  4  5  1  0
  5  6  1  0
  6  7  1  0
  7  8  1  0
  8  9  1  0
  9 10  1  0
 10 11  2  0
 10 12  1  0
 12 13  2  0
 13 14  1  0
 14 15  2  0
 15 16  1  0
 16 17  2  0
 17 18  1  0
 18 19  1  0
 19 20  2  0
 20 21  1  0
 21 22  2  0
 22 23  1  0
 23 24  2  0
  6 25  1  0
 25 26  1  0
 26  3  1  0
 17 12  1  0
 24 19  1  0
  1 27  1  0
  1 28  1  0
  1 29  1  0
  2 30  1  0
  2 31  1  0
  4 32  1  0
  4 33  1  0
  5 34  1  0
  5 35  1  0
  7 36  1  0
  7 37  1  0
  8 38  1  0
  8 39  1  0
  9 40  1  0
 13 41  1  0
 14 42  1  0
 15 43  1  0
 20 44  1  0
 21 45  1  0
 22 46  1  0
 23 47  1  0
 24 48  1  0
 25 49  1  0
 25 50  1  0
 26 51  1  0
 26 52  1  0
M  END
>  <UniqueID>  (1) 
1

>  <SMILES>  (1) 
CCN1CCN(CCNC(=O)c2cccnc2Oc2ccccc2)CC1

>  <Energy>  (1) 
70.79830558669768

>  <Genealogy>  (1) 
CCN1CCN(CCNC(=O)c2cccnc2Oc2ccccc2)CC1 (3D coordinates assigned)
CCN1CCN(CCNC(=O)c2cccnc2Oc2ccccc2)CC1 (nonaromatic ring conformer: 70.79830558669768 kcal/mol)

>  <smiles>  (1) 
CCN1CCN(CCNC(=O)c2cccnc2Oc2ccccc2)CC1

>  <score_type>  (1) 
oracle

>  <origin>  (1) 
adg

>  <m_score__min__energy>  (1) 
-7.2999999999999998

>  <m_primary>  (1) 
energy

$$$$
1:0
     RDKit          3D

 54 57  0  0  0  0  0  0  0  0999 V2000
   53.5060   22.3540   47.7680 C   0  0  0  0  0  0  0  0  0  0  0  0
   53.9720   22.3310   46.3160 C   0  0  0  0  0  0  0  0  0  0  0  0
   55.2690   22.9920   46.1810 N   0  0  0  0  0  0  0  0  0  0  0  0
   55.3960   24.4190   46.0580 C   0  0  0  0  0  0  0  0  0  0  0  0
   54.3590   25.1310   45.9640 O   0  0  0  0  0  0  0  0  0  0  0  0
   56.7270   25.0710   46.0230 C   0  0  0  0  0  0  0  0  0  0  0  0
   57.8890   24.3710   46.3890 C   0  0  0  0  0  0  0  0  0  0  0  0
   59.1350   25.0010   46.3540 C   0  0  0  0  0  0  0  0  0  0  0  0
   59.2380   26.3360   45.9590 C   0  0  0  0  0  0  0  0  0  0  0  0
   58.0890   27.0620   45.6010 C   0  0  0  0  0  0  0  0  0  0  0  0
   58.1930   28.4850   45.1880 C   0  0  0  0  0  0  0  0  0  0  0  0
   59.0580   29.3680   45.8720 C   0  0  0  0  0  0  0  0  0  0  0  0
   59.1580   30.7110   45.4860 C   0  0  0  0  0  0  0  0  0  0  0  0
   58.3560   31.1820   44.4410 C   0  0  0  0  0  0  0  0  0  0  0  0
   57.5620   30.3120   43.7320 C   0  0  0  0  0  0  0  0  0  0  0  0
   57.4500   28.9680   44.0900 C   0  0  0  0  0  0  0  0  0  0  0  0
   56.9600   30.9590   42.5470 C   0  0  0  0  0  0  0  0  0  0  0  0
   57.7460   32.2740   42.4430 C   0  0  0  0  0  0  0  0  0  0  0  0
   58.3240   32.5590   43.8530 C   0  0  1  0  0  0  0  0  0  0  0  0
   57.3940   33.4640   44.5710 N   0  0  0  0  0  0  0  0  0  0  0  0
   57.8720   34.2090   45.7600 C   0  0  0  0  0  0  0  0  0  0  0  0
   57.8020   33.3970   47.0550 C   0  0  0  0  0  0  0  0  0  0  0  0
   59.0320   33.7910   47.8730 C   0  0  0  0  0  0  0  0  0  0  0  0
   59.7060   34.9430   47.1340 C   0  0  0  0  0  0  0  0  0  0  0  0
   59.2730   34.8190   45.6830 C   0  0  0  0  0  0  0  0  0  0  0  0
   56.8370   26.4210   45.6400 C   0  0  0  0  0  0  0  0  0  0  0  0
   54.3801   22.3109   48.4344 H   0  0  0  0  0  0  0  0  0  0  0  0
   52.9452   23.2809   47.9585 H   0  0  0  0  0  0  0  0  0  0  0  0
   52.8566   21.4868   47.9585 H   0  0  0  0  0  0  0  0  0  0  0  0
   54.0619   21.2869   45.9817 H   0  0  0  0  0  0  0  0  0  0  0  0
   53.2354   22.8662   45.6988 H   0  0  0  0  0  0  0  0  0  0  0  0
   56.1190   22.3880   46.1610 H   0  0  0  0  0  0  0  0  0  0  0  0
   57.8169   23.3199   46.7052 H   0  0  0  0  0  0  0  0  0  0  0  0
   60.0391   24.4429   46.6389 H   0  0  0  0  0  0  0  0  0  0  0  0
   60.2241   26.8225   45.9278 H   0  0  0  0  0  0  0  0  0  0  0  0
   59.6587   28.9975   46.7157 H   0  0  0  0  0  0  0  0  0  0  0  0
   59.8585   31.3869   45.9983 H   0  0  0  0  0  0  0  0  0  0  0  0
   56.7909   28.2937   43.5235 H   0  0  0  0  0  0  0  0  0  0  0  0
   57.0973   30.3428   41.6462 H   0  0  0  0  0  0  0  0  0  0  0  0
   55.8735   31.1063   42.6355 H   0  0  0  0  0  0  0  0  0  0  0  0
   58.5618   32.1715   41.7123 H   0  0  0  0  0  0  0  0  0  0  0  0
   57.0983   33.0970   42.1066 H   0  0  0  0  0  0  0  0  0  0  0  0
   59.3059   33.0537   43.8859 H   0  0  0  0  0  0  0  0  0  0  0  0
   57.0770   34.1870   43.8820 H   0  0  0  0  0  0  0  0  0  0  0  0
   57.1535   35.0418   45.7680 H   0  0  0  0  0  0  0  0  0  0  0  0
   56.8826   33.6398   47.6080 H   0  0  0  0  0  0  0  0  0  0  0  0
   57.7865   32.3164   46.8500 H   0  0  0  0  0  0  0  0  0  0  0  0
   58.7290   34.1135   48.8801 H   0  0  0  0  0  0  0  0  0  0  0  0
   59.7194   32.9395   47.9849 H   0  0  0  0  0  0  0  0  0  0  0  0
   59.3787   35.9074   47.5496 H   0  0  0  0  0  0  0  0  0  0  0  0
   60.8007   34.9002   47.2332 H   0  0  0  0  0  0  0  0  0  0  0  0
   59.2425   35.8065   45.1993 H   0  0  0  0  0  0  0  0  0  0  0  0
   59.9666   34.2074   45.0872 H   0  0  0  0  0  0  0  0  0  0  0  0
   55.9314   26.9828   45.3673 H   0  0  0  0  0  0  0  0  0  0  0  0
  1  2  1  0
  2  3  1  0
  3  4  1  0
  4  5  2  0
  4  6  1  0
  6  7  2  0
  7  8  1  0
  8  9  2  0
  9 10  1  0
 10 11  1  0
 11 12  2  0
 12 13  1  0
 13 14  2  0
 14 15  1  0
 15 16  2  0
 15 17  1  0
 17 18  1  0
 18 19  1  0
 19 20  1  0
 20 21  1  0
 21 22  1  0
 22 23  1  0
 23 24  1  0
 24 25  1  0
 10 26  2  0
 26  6  1  0
 16 11  1  0
 25 21  1  0
 19 14  1  0
  1 27  1  0
  1 28  1  0
  1 29  1  0
  2 30  1  0
  2 31  1  0
  3 32  1  0
  7 33  1  0
  8 34  1  0
  9 35  1  0
 12 36  1  0
 13 37  1  0
 16 38  1  0
 17 39  1  0
 17 40  1  0
 18 41  1  0
 18 42  1  0
 19 43  1  6
 20 44  1  0
 21 45  1  0
 22 46  1  0
 22 47  1  0
 23 48  1  0
 23 49  1  0
 24 50  1  0
 24 51  1  0
 25 52  1  0
 25 53  1  0
 26 54  1  0
M  END
>  <UniqueID>  (2) 
2

>  <SMILES>  (2) 
CCNC(=O)c1cccc(-c2ccc3c(c2)CC[C@H]3NC2CCCC2)c1

>  <Energy>  (2) 
79.32109095155897

>  <Genealogy>  (2) 
CCNC(=O)c1cccc(-c2ccc3c(c2)CC[C@H]3NC2CCCC2)c1 (chirality)
CCNC(=O)c1cccc(-c2ccc3c(c2)CC[C@H]3NC2CCCC2)c1 (3D coordinates assigned)
CCNC(=O)c1cccc(-c2ccc3c(c2)CC[C@H]3NC2CCCC2)c1 (nonaromatic ring conformer: 79.32109095155897 kcal/mol)

>  <smiles>  (2) 
CCNC(=O)c1cccc(-c2ccc3c(c2)CCC3NC2CCCC2)c1

>  <score_type>  (2) 
oracle

>  <origin>  (2) 
adg

>  <m_score__min__energy>  (2) 
-9.2100000000000009

>  <m_primary>  (2) 
energy

$$$$
2:0
     RDKit          3D

 55 58  0  0  0  0  0  0  0  0999 V2000
   56.2820   32.6120   45.2480 O   0  0  0  0  0  0  0  0  0  0  0  0
   57.5160   32.6530   44.9950 C   0  0  0  0  0  0  0  0  0  0  0  0
   58.0330   32.0700   43.6940 C   0  0  0  0  0  0  0  0  0  0  0  0
   57.9030   30.6010   43.5950 N   0  0  0  0  0  0  0  0  0  0  0  0
   56.5200   30.0880   43.7460 C   0  0  0  0  0  0  0  0  0  0  0  0
   56.3980   29.0140   44.8410 C   0  0  0  0  0  0  0  0  0  0  0  0
   57.3620   27.8990   44.6420 N   0  0  0  0  0  0  0  0  0  0  0  0
   57.4800   27.0690   45.8660 C   0  0  0  0  0  0  0  0  0  0  0  0
   58.6010   27.5480   46.8070 C   0  0  0  0  0  0  0  0  0  0  0  0
   58.3790   28.9000   47.2090 O   0  0  0  0  0  0  0  0  0  0  0  0
   59.3250   29.7350   47.8270 C   0  0  0  0  0  0  0  0  0  0  0  0
   59.1550   30.0260   49.1860 C   0  0  0  0  0  0  0  0  0  0  0  0
   60.0610   30.8490   49.8600 C   0  0  0  0  0  0  0  0  0  0  0  0
   61.1570   31.3960   49.1800 C   0  0  0  0  0  0  0  0  0  0  0  0
   62.0730   32.2240   49.8470 C   0  0  0  0  0  0  0  0  0  0  0  0
   63.1620   32.7630   49.1570 C   0  0  0  0  0  0  0  0  0  0  0  0
   63.3450   32.4810   47.8010 C   0  0  0  0  0  0  0  0  0  0  0  0
   62.4400   31.6580   47.1260 C   0  0  0  0  0  0  0  0  0  0  0  0
   61.3420   31.1080   47.8070 C   0  0  0  0  0  0  0  0  0  0  0  0
   60.4270   30.2800   47.1390 C   0  0  0  0  0  0  0  0  0  0  0  0
   58.7120   28.3590   44.1910 C   0  0  0  0  0  0  0  0  0  0  0  0
   58.9230   29.8670   44.3640 C   0  0  0  0  0  0  0  0  0  0  0  0
   58.4240   33.3240   45.9580 C   0  0  0  0  0  0  0  0  0  0  0  0
   59.5040   34.0910   45.4850 C   0  0  0  0  0  0  0  0  0  0  0  0
   60.3700   34.7270   46.3800 C   0  0  0  0  0  0  0  0  0  0  0  0
   60.1740   34.5980   47.7560 C   0  0  0  0  0  0  0  0  0  0  0  0
   59.1110   33.8310   48.2400 C   0  0  0  0  0  0  0  0  0  0  0  0
   58.2420   33.1940   47.3500 C   0  0  0  0  0  0  0  0  0  0  0  0
   57.4696   32.5229   42.8649 H   0  0  0  0  0  0  0  0  0  0  0  0
   59.1087   32.2960   43.6515 H   0  0  0  0  0  0  0  0  0  0  0  0
   55.8595   30.9290   44.0036 H   0  0  0  0  0  0  0  0  0  0  0  0
   56.2340   29.6216   42.7917 H   0  0  0  0  0  0  0  0  0  0  0  0
   56.5921   29.4803   45.8182 H   0  0  0  0  0  0  0  0  0  0  0  0
   55.3819   28.5955   44.7928 H   0  0  0  0  0  0  0  0  0  0  0  0
   56.9770   27.2840   43.8830 H   0  0  0  0  0  0  0  0  0  0  0  0
   56.5246   27.1072   46.4098 H   0  0  0  0  0  0  0  0  0  0  0  0
   57.7289   26.0455   45.5490 H   0  0  0  0  0  0  0  0  0  0  0  0
   58.6229   26.9049   47.6992 H   0  0  0  0  0  0  0  0  0  0  0  0
   59.5604   27.4911   46.2719 H   0  0  0  0  0  0  0  0  0  0  0  0
   58.2980   29.6017   49.7296 H   0  0  0  0  0  0  0  0  0  0  0  0
   59.9133   31.0681   50.9278 H   0  0  0  0  0  0  0  0  0  0  0  0
   61.9335   32.4490   50.9147 H   0  0  0  0  0  0  0  0  0  0  0  0
   63.8777   33.4116   49.6834 H   0  0  0  0  0  0  0  0  0  0  0  0
   64.2042   32.9082   47.2632 H   0  0  0  0  0  0  0  0  0  0  0  0
   62.5880   31.4402   46.0580 H   0  0  0  0  0  0  0  0  0  0  0  0
   60.5710   30.0551   46.0719 H   0  0  0  0  0  0  0  0  0  0  0  0
   59.4765   27.8291   44.7782 H   0  0  0  0  0  0  0  0  0  0  0  0
   58.7912   28.1383   43.1163 H   0  0  0  0  0  0  0  0  0  0  0  0
   58.8370   30.1287   45.4289 H   0  0  0  0  0  0  0  0  0  0  0  0
   59.9234   30.1400   43.9969 H   0  0  0  0  0  0  0  0  0  0  0  0
   59.6688   34.1914   44.4021 H   0  0  0  0  0  0  0  0  0  0  0  0
   61.2073   35.3301   45.9989 H   0  0  0  0  0  0  0  0  0  0  0  0
   60.8557   35.0996   48.4586 H   0  0  0  0  0  0  0  0  0  0  0  0
   58.9578   33.7283   49.3244 H   0  0  0  0  0  0  0  0  0  0  0  0
   57.4106   32.5872   47.7381 H   0  0  0  0  0  0  0  0  0  0  0  0
  1  2  2  0
  2  3  1  0
  3  4  1  0
  4  5  1  0
  5  6  1  0
  6  7  1  0
  7  8  1  0
  8  9  1  0
  9 10  1  0
 10 11  1  0
 11 12  2  0
 12 13  1  0
 13 14  2  0
 14 15  1  0
 15 16  2  0
 16 17  1  0
 17 18  2  0
 18 19  1  0
 19 20  2  0
  7 21  1  0
 21 22  1  0
  2 23  1  0
 23 24  2  0
 24 25  1  0
 25 26  2  0
 26 27  1  0
 27 28  2  0
 22  4  1  0
 28 23  1  0
 20 11  1  0
 19 14  1  0
  3 29  1  0
  3 30  1  0
  5 31  1  0
  5 32  1  0
  6 33  1  0
  6 34  1  0
  7 35  1  0
  8 36  1  0
  8 37  1  0
  9 38  1  0
  9 39  1  0
 12 40  1  0
 13 41  1  0
 15 42  1  0
 16 43  1  0
 17 44  1  0
 18 45  1  0
 20 46  1  0
 21 47  1  0
 21 48  1  0
 22 49  1  0
 22 50  1  0
 24 51  1  0
 25 52  1  0
 26 53  1  0
 27 54  1  0
 28 55  1  0
M  CHG  1   7   1
M  END
>  <UniqueID>  (3) 
3

>  <SMILES>  (3) 
O=C(CN1CC[NH+](CCOc2ccc3ccccc3c2)CC1)c1ccccc1

>  <Energy>  (3) 
81.13329231270758

>  <Genealogy>  (3) 
O=C(CN1CC[NH+](CCOc2ccc3ccccc3c2)CC1)c1ccccc1 (protonated)
O=C(CN1CC[NH+](CCOc2ccc3ccccc3c2)CC1)c1ccccc1 (3D coordinates assigned)
O=C(CN1CC[NH+](CCOc2ccc3ccccc3c2)CC1)c1ccccc1 (nonaromatic ring conformer: 81.13329231270758 kcal/mol)

>  <smiles>  (3) 
O=C(CN1CCN(CCOc2ccc3ccccc3c2)CC1)c1ccccc1

>  <score_type>  (3) 
oracle

>  <origin>  (3) 
adg

>  <m_score__min__energy>  (3) 
-7.9100000000000001

>  <m_primary>  (3) 
energy

$$$$
3:0
     RDKit          3D

 53 56  0  0  0  0  0  0  0  0999 V2000
   57.5020   31.6500   42.6170 C   0  0  0  0  0  0  0  0  0  0  0  0
   56.8670   30.5240   43.4250 C   0  0  0  0  0  0  0  0  0  0  0  0
   56.7200   30.9030   44.7950 O   0  0  0  0  0  0  0  0  0  0  0  0
   57.5660   31.7810   45.4930 C   0  0  0  0  0  0  0  0  0  0  0  0
   57.1370   33.1000   45.6820 C   0  0  0  0  0  0  0  0  0  0  0  0
   57.9310   34.0140   46.3800 C   0  0  0  0  0  0  0  0  0  0  0  0
   59.1730   33.6190   46.9000 C   0  0  0  0  0  0  0  0  0  0  0  0
   60.0090   34.5940   47.6900 C   0  0  0  0  0  0  0  0  0  0  0  0
   60.9560   33.8700   48.6190 C   0  0  0  0  0  0  0  0  0  0  0  0
   62.3260   33.8330   48.3320 C   0  0  0  0  0  0  0  0  0  0  0  0
   63.2040   33.1530   49.1800 C   0  0  0  0  0  0  0  0  0  0  0  0
   64.5790   33.1030   48.9070 C   0  0  0  0  0  0  0  0  0  0  0  0
   65.4400   32.4170   49.7690 C   0  0  0  0  0  0  0  0  0  0  0  0
   64.9330   31.7790   50.9040 C   0  0  0  0  0  0  0  0  0  0  0  0
   63.5650   31.8230   51.1850 C   0  0  0  0  0  0  0  0  0  0  0  0
   62.6890   32.5100   50.3270 C   0  0  0  0  0  0  0  0  0  0  0  0
   61.3520   32.5620   50.5970 N   0  0  0  0  0  0  0  0  0  0  0  0
   60.4790   33.2260   49.7780 C   0  0  0  0  0  0  0  0  0  0  0  0
   59.1060   33.3010   50.0670 O   0  0  0  0  0  0  0  0  0  0  0  0
   58.1550   32.2420   49.9410 C   0  0  0  0  0  0  0  0  0  0  0  0
   58.8990   30.9480   49.5690 C   0  0  0  0  0  0  0  0  0  0  0  0
   59.5070   30.2580   50.8070 C   0  0  0  0  0  0  0  0  0  0  0  0
   59.6400   31.1630   51.8850 O   0  0  0  0  0  0  0  0  0  0  0  0
   58.3590   31.5280   52.3750 C   0  0  0  0  0  0  0  0  0  0  0  0
   57.4070   32.0420   51.2680 C   0  0  0  0  0  0  0  0  0  0  0  0
   59.6160   32.3040   46.6960 C   0  0  0  0  0  0  0  0  0  0  0  0
   58.8210   31.3900   46.0000 C   0  0  0  0  0  0  0  0  0  0  0  0
   57.9247   32.3996   43.3021 H   0  0  0  0  0  0  0  0  0  0  0  0
   58.3020   31.2402   41.9829 H   0  0  0  0  0  0  0  0  0  0  0  0
   56.7374   32.1226   41.9829 H   0  0  0  0  0  0  0  0  0  0  0  0
   55.8762   30.2939   43.0062 H   0  0  0  0  0  0  0  0  0  0  0  0
   57.5198   29.6403   43.3717 H   0  0  0  0  0  0  0  0  0  0  0  0
   56.1656   33.4201   45.2772 H   0  0  0  0  0  0  0  0  0  0  0  0
   57.5810   35.0471   46.5223 H   0  0  0  0  0  0  0  0  0  0  0  0
   60.5927   35.2137   46.9934 H   0  0  0  0  0  0  0  0  0  0  0  0
   59.3371   35.2208   48.2947 H   0  0  0  0  0  0  0  0  0  0  0  0
   62.7123   34.3409   47.4360 H   0  0  0  0  0  0  0  0  0  0  0  0
   64.9803   33.6040   48.0138 H   0  0  0  0  0  0  0  0  0  0  0  0
   66.5180   32.3795   49.5533 H   0  0  0  0  0  0  0  0  0  0  0  0
   65.6137   31.2398   51.5792 H   0  0  0  0  0  0  0  0  0  0  0  0
   63.1725   31.3185   52.0803 H   0  0  0  0  0  0  0  0  0  0  0  0
   61.0030   32.0820   51.4540 H   0  0  0  0  0  0  0  0  0  0  0  0
   57.4249   32.4958   49.1583 H   0  0  0  0  0  0  0  0  0  0  0  0
   58.1913   30.2566   49.0882 H   0  0  0  0  0  0  0  0  0  0  0  0
   59.7212   31.2114   48.8874 H   0  0  0  0  0  0  0  0  0  0  0  0
   58.8518   29.4293   51.1134 H   0  0  0  0  0  0  0  0  0  0  0  0
   60.5070   29.8850   50.5409 H   0  0  0  0  0  0  0  0  0  0  0  0
   57.9015   30.6467   52.8482 H   0  0  0  0  0  0  0  0  0  0  0  0
   58.5046   32.3515   53.0896 H   0  0  0  0  0  0  0  0  0  0  0  0
   56.6011   31.3083   51.1186 H   0  0  0  0  0  0  0  0  0  0  0  0
   56.9950   33.0113   51.5852 H   0  0  0  0  0  0  0  0  0  0  0  0
   60.5954   31.9904   47.0864 H   0  0  0  0  0  0  0  0  0  0  0  0
   59.1765   30.3603   45.8471 H   0  0  0  0  0  0  0  0  0  0  0  0
  1  2  1  0
  2  3  1  0
  3  4  1  0
  4  5  2  0
  5  6  1  0
  6  7  2  0
  7  8  1  0
  8  9  1  0
  9 10  2  0
 10 11  1  0
 11 12  2  0
 12 13  1  0
 13 14  2  0
 14 15  1  0
 15 16  2  0
 16 17  1  0
 17 18  2  0
 18 19  1  0
 19 20  1  0
 20 21  1  0
 21 22  1  0
 22 23  1  0
 23 24  1  0
 24 25  1  0
  7 26  1  0
 26 27  2  0
 27  4  1  0
 18  9  1  0
 25 20  1  0
 16 11  1  0
  1 28  1  0
  1 29  1  0
  1 30  1  0
  2 31  1  0
  2 32  1  0
  5 33  1  0
  6 34  1  0
  8 35  1  0
  8 36  1  0
 10 37  1  0
 12 38  1  0
 13 39  1  0
 14 40  1  0
 15 41  1  0
 17 42  1  0
 20 43  1  0
 21 44  1  0
 21 45  1  0
 22 46  1  0
 22 47  1  0
 24 48  1  0
 24 49  1  0
 25 50  1  0
 25 51  1  0
 26 52  1  0
 27 53  1  0
M  CHG  1  17   1
M  END
>  <UniqueID>  (4) 
4

>  <SMILES>  (4) 
CCOc1ccc(Cc2cc3ccccc3[nH+]c2OC2CCOCC2)cc1

>  <Energy>  (4) 
61.08751125366574

>  <Genealogy>  (4) 
CCOc1ccc(Cc2cc3ccccc3[nH+]c2OC2CCOCC2)cc1 (protonated)
CCOc1ccc(Cc2cc3ccccc3[nH+]c2OC2CCOCC2)cc1 (3D coordinates assigned)
CCOc1ccc(Cc2cc3ccccc3[nH+]c2OC2CCOCC2)cc1 (nonaromatic ring conformer: 61.08751125366574 kcal/mol)

>  <smiles>  (4) 
CCOc1ccc(Cc2cc3ccccc3nc2OC2CCOCC2)cc1

>  <score_type>  (4) 
oracle

>  <origin>  (4) 
adg

>  <m_score__min__energy>  (4) 
-6.4500000000000002

>  <m_primary>  (4) 
energy

$$$$
4:0
     RDKit          3D

 32 33  0  0  0  0  0  0  0  0999 V2000
   65.0080   32.6980   49.7400 C   0  0  0  0  0  0  0  0  0  0  0  0
   64.5170   33.1620   48.4870 O   0  0  0  0  0  0  0  0  0  0  0  0
   63.1790   33.5060   48.2390 C   0  0  0  0  0  0  0  0  0  0  0  0
   62.2890   33.8680   49.2680 C   0  0  0  0  0  0  0  0  0  0  0  0
   60.9640   34.2020   48.9700 C   0  0  0  0  0  0  0  0  0  0  0  0
   60.5130   34.1930   47.6410 C   0  0  0  0  0  0  0  0  0  0  0  0
   59.0780   34.5140   47.3250 C   0  0  0  0  0  0  0  0  0  0  0  0
   58.8560   34.5110   45.8800 N   0  0  0  0  0  0  0  0  0  0  0  0
   58.4170   33.3460   45.1650 C   0  0  0  0  0  0  0  0  0  0  0  0
   58.1840   32.2080   45.7490 N   0  0  0  0  0  0  0  0  0  0  0  0
   57.6820   31.0660   44.5720 S   0  0  0  0  0  0  0  0  0  0  0  0
   58.6570   29.9300   44.4370 O   0  0  0  0  0  0  0  0  0  0  0  0
   56.2710   30.6050   44.8020 O   0  0  0  0  0  0  0  0  0  0  0  0
   57.8180   32.2330   43.3010 C   0  0  0  0  0  0  0  0  0  0  0  0
   57.5240   31.9700   41.8640 C   0  0  0  0  0  0  0  0  0  0  0  0
   58.2100   33.3840   43.7430 N   0  0  0  0  0  0  0  0  0  0  0  0
   61.3970   33.8170   46.6180 C   0  0  0  0  0  0  0  0  0  0  0  0
   62.7210   33.4820   46.9170 C   0  0  0  0  0  0  0  0  0  0  0  0
   64.4710   33.2055   50.5549 H   0  0  0  0  0  0  0  0  0  0  0  0
   64.8493   31.6122   49.8167 H   0  0  0  0  0  0  0  0  0  0  0  0
   66.0831   32.9178   49.8167 H   0  0  0  0  0  0  0  0  0  0  0  0
   62.6373   33.8882   50.3112 H   0  0  0  0  0  0  0  0  0  0  0  0
   60.2721   34.4730   49.7811 H   0  0  0  0  0  0  0  0  0  0  0  0
   58.4276   33.7599   47.7922 H   0  0  0  0  0  0  0  0  0  0  0  0
   58.8438   35.5145   47.7176 H   0  0  0  0  0  0  0  0  0  0  0  0
   59.0180   35.3840   45.3270 H   0  0  0  0  0  0  0  0  0  0  0  0
   58.2830   32.0050   46.7670 H   0  0  0  0  0  0  0  0  0  0  0  0
   56.7063   31.2385   41.7850 H   0  0  0  0  0  0  0  0  0  0  0  0
   57.2255   32.9081   41.3731 H   0  0  0  0  0  0  0  0  0  0  0  0
   58.4232   31.5693   41.3731 H   0  0  0  0  0  0  0  0  0  0  0  0
   61.0465   33.7857   45.5758 H   0  0  0  0  0  0  0  0  0  0  0  0
   63.4081   33.1973   46.1066 H   0  0  0  0  0  0  0  0  0  0  0  0
  1  2  1  0
  2  3  1  0
  3  4  2  0
  4  5  1  0
  5  6  2  0
  6  7  1  0
  7  8  1  0
  8  9  1  0
  9 10  2  0
 10 11  1  0
 11 12  2  0
 11 13  2  0
 11 14  1  0
 14 15  1  0
 14 16  2  0
  6 17  1  0
 17 18  2  0
 18  3  1  0
 16  9  1  0
  1 19  1  0
  1 20  1  0
  1 21  1  0
  4 22  1  0
  5 23  1  0
  7 24  1  0
  7 25  1  0
  8 26  1  0
 10 27  1  0
 15 28  1  0
 15 29  1  0
 15 30  1  0
 17 31  1  0
 18 32  1  0
M  CHG  1  10   1
M  END
>  <UniqueID>  (5) 
5

>  <SMILES>  (5) 
COc1ccc(CNC2=[NH+]S(=O)(=O)C(C)=N2)cc1

>  <Energy>  (5) 
49.570388170123195

>  <Genealogy>  (5) 
COc1ccc(CNC2=[NH+]S(=O)(=O)C(C)=N2)cc1 (protonated)
COc1ccc(CNC2=[NH+]S(=O)(=O)C(C)=N2)cc1 (3D coordinates assigned)
COc1ccc(CNC2=[NH+]S(=O)(=O)C(C)=N2)cc1 (nonaromatic ring conformer: 49.570388170123195 kcal/mol)

>  <smiles>  (5) 
COc1ccc(CNC2=NS(=O)(=O)C(C)=N2)cc1

>  <score_type>  (5) 
oracle

>  <origin>  (5) 
adg

>  <m_score__min__energy>  (5) 
-5.4900000000000002

>  <m_primary>  (5) 
energy

$$$$
5:0
     RDKit          3D

 63 64  0  0  0  0  0  0  0  0999 V2000
   57.7680   27.9030   43.9050 C   0  0  0  0  0  0  0  0  0  0  0  0
   57.1380   28.5470   45.1400 C   0  0  0  0  0  0  0  0  0  0  0  0
   57.2930   30.0180   45.1200 N   0  0  0  0  0  0  0  0  0  0  0  0
   56.4960   30.7320   44.0910 C   0  0  0  0  0  0  0  0  0  0  0  0
   57.3260   31.3380   42.9550 C   0  0  0  0  0  0  0  0  0  0  0  0
   58.6840   30.5130   45.2780 C   0  0  0  0  0  0  0  0  0  0  0  0
   59.6300   29.5240   45.9940 C   0  0  0  0  0  0  0  0  0  0  0  0
   59.9750   29.9950   47.4120 C   0  0  0  0  0  0  0  0  0  0  0  0
   58.8030   30.4200   48.0810 O   0  0  0  0  0  0  0  0  0  0  0  0
   59.0690   31.5220   48.9300 C   0  0  0  0  0  0  0  0  0  0  0  0
   58.1680   32.6930   48.5150 C   0  0  0  0  0  0  0  0  0  0  0  0
   58.4230   33.1700   47.0510 C   0  0  1  0  0  0  0  0  0  0  0  0
   57.0510   33.2510   46.3220 C   0  0  0  0  0  0  0  0  0  0  0  0
   57.0540   34.1990   45.1170 C   0  0  0  0  0  0  0  0  0  0  0  0
   58.4410   34.2800   44.5020 C   0  0  0  0  0  0  0  0  0  0  0  0
   59.4560   34.8140   45.5290 C   0  0  0  0  0  0  0  0  0  0  0  0
   59.1150   34.4940   46.9470 N   0  0  0  0  0  0  0  0  0  0  0  0
   60.3360   34.6120   47.7890 C   0  0  0  0  0  0  0  0  0  0  0  0
   61.4980   33.7620   47.2470 C   0  0  0  0  0  0  0  0  0  0  0  0
   62.5420   33.5240   48.3090 C   0  0  0  0  0  0  0  0  0  0  0  0
   63.5440   32.5590   48.1070 C   0  0  0  0  0  0  0  0  0  0  0  0
   64.4910   32.3070   49.1050 C   0  0  0  0  0  0  0  0  0  0  0  0
   64.4430   33.0140   50.3090 C   0  0  0  0  0  0  0  0  0  0  0  0
   63.4480   33.9720   50.5180 C   0  0  0  0  0  0  0  0  0  0  0  0
   62.5000   34.2280   49.5230 C   0  0  0  0  0  0  0  0  0  0  0  0
   58.5050   27.1496   44.2200 H   0  0  0  0  0  0  0  0  0  0  0  0
   56.9841   27.4199   43.3032 H   0  0  0  0  0  0  0  0  0  0  0  0
   58.2682   28.6761   43.3032 H   0  0  0  0  0  0  0  0  0  0  0  0
   56.0663   28.3003   45.1649 H   0  0  0  0  0  0  0  0  0  0  0  0
   57.6491   28.1571   46.0326 H   0  0  0  0  0  0  0  0  0  0  0  0
   55.7822   30.0189   43.6529 H   0  0  0  0  0  0  0  0  0  0  0  0
   56.0038   31.5722   44.6026 H   0  0  0  0  0  0  0  0  0  0  0  0
   58.1458   31.9366   43.3788 H   0  0  0  0  0  0  0  0  0  0  0  0
   57.7437   30.5309   42.3352 H   0  0  0  0  0  0  0  0  0  0  0  0
   56.6845   31.9817   42.3352 H   0  0  0  0  0  0  0  0  0  0  0  0
   59.0928   30.7187   44.2777 H   0  0  0  0  0  0  0  0  0  0  0  0
   58.6299   31.4122   45.9092 H   0  0  0  0  0  0  0  0  0  0  0  0
   59.1392   28.5414   46.0542 H   0  0  0  0  0  0  0  0  0  0  0  0
   60.5640   29.4633   45.4160 H   0  0  0  0  0  0  0  0  0  0  0  0
   60.4319   29.1646   47.9703 H   0  0  0  0  0  0  0  0  0  0  0  0
   60.6802   30.8370   47.3505 H   0  0  0  0  0  0  0  0  0  0  0  0
   58.8581   31.2446   49.9733 H   0  0  0  0  0  0  0  0  0  0  0  0
   60.1260   31.8142   48.8440 H   0  0  0  0  0  0  0  0  0  0  0  0
   57.1184   32.3757   48.6024 H   0  0  0  0  0  0  0  0  0  0  0  0
   58.3987   33.5376   49.1810 H   0  0  0  0  0  0  0  0  0  0  0  0
   59.1001   32.4379   46.5866 H   0  0  0  0  0  0  0  0  0  0  0  0
   56.7828   32.2434   45.9717 H   0  0  0  0  0  0  0  0  0  0  0  0
   56.3234   33.6486   47.0448 H   0  0  0  0  0  0  0  0  0  0  0  0
   56.3455   33.8265   44.3625 H   0  0  0  0  0  0  0  0  0  0  0  0
   56.7576   35.2028   45.4555 H   0  0  0  0  0  0  0  0  0  0  0  0
   58.7510   33.2766   44.1747 H   0  0  0  0  0  0  0  0  0  0  0  0
   58.4097   34.9663   43.6429 H   0  0  0  0  0  0  0  0  0  0  0  0
   60.4392   34.3756   45.3029 H   0  0  0  0  0  0  0  0  0  0  0  0
   59.4490   35.9104   45.4410 H   0  0  0  0  0  0  0  0  0  0  0  0
   60.6492   35.6662   47.8136 H   0  0  0  0  0  0  0  0  0  0  0  0
   60.0893   34.2449   48.7962 H   0  0  0  0  0  0  0  0  0  0  0  0
   61.1050   32.7926   46.9067 H   0  0  0  0  0  0  0  0  0  0  0  0
   61.9671   34.3050   46.4132 H   0  0  0  0  0  0  0  0  0  0  0  0
   63.5835   31.9999   47.1605 H   0  0  0  0  0  0  0  0  0  0  0  0
   65.2739   31.5518   48.9418 H   0  0  0  0  0  0  0  0  0  0  0  0
   65.1890   32.8162   51.0928 H   0  0  0  0  0  0  0  0  0  0  0  0
   63.4104   34.5261   51.4675 H   0  0  0  0  0  0  0  0  0  0  0  0
   61.7185   34.9835   49.6918 H   0  0  0  0  0  0  0  0  0  0  0  0
  1  2  1  0
  2  3  1  0
  3  4  1  0
  4  5  1  0
  3  6  1  0
  6  7  1  0
  7  8  1  0
  8  9  1  0
  9 10  1  0
 10 11  1  0
 11 12  1  0
 12 13  1  0
 13 14  1  0
 14 15  1  0
 15 16  1  0
 16 17  1  0
 17 18  1  0
 18 19  1  0
 19 20  1  0
 20 21  2  0
 21 22  1  0
 22 23  2  0
 23 24  1  0
 24 25  2  0
 17 12  1  0
 25 20  1  0
  1 26  1  0
  1 27  1  0
  1 28  1  0
  2 29  1  0
  2 30  1  0
  4 31  1  0
  4 32  1  0
  5 33  1  0
  5 34  1  0
  5 35  1  0
  6 36  1  0
  6 37  1  0
  7 38  1  0
  7 39  1  0
  8 40  1  0
  8 41  1  0
 10 42  1  0
 10 43  1  0
 11 44  1  0
 11 45  1  0
 12 46  1  6
 13 47  1  0
 13 48  1  0
 14 49  1  0
 14 50  1  0
 15 51  1  0
 15 52  1  0
 16 53  1  0
 16 54  1  0
 18 55  1  0
 18 56  1  0
 19 57  1  0
 19 58  1  0
 21 59  1  0
 22 60  1  0
 23 61  1  0
 24 62  1  0
 25 63  1  0
M  END
>  <UniqueID>  (6) 
6

>  <SMILES>  (6) 
CCN(CC)CCCOCC[C@H]1CCCCN1CCc1ccccc1

>  <Energy>  (6) 
73.14741165772473

>  <Genealogy>  (6) 
CCN(CC)CCCOCC[C@H]1CCCCN1CCc1ccccc1 (chirality)
CCN(CC)CCCOCC[C@H]1CCCCN1CCc1ccccc1 (3D coordinates assigned)
CCN(CC)CCCOCC[C@H]1CCCCN1CCc1ccccc1 (nonaromatic ring conformer: 73.14741165772473 kcal/mol)

>  <smiles>  (6) 
CCN(CC)CCCOCCC1CCCCN1CCc1ccccc1

>  <score_type>  (6) 
oracle

>  <origin>  (6) 
adg

>  <m_score__min__energy>  (6) 
-7.1500000000000004

>  <m_primary>  (6) 
energy

$$$$
6:0
     RDKit          3D

 64 67  0  0  0  0  0  0  0  0999 V2000
   57.3820   31.9210   41.8020 C   0  0  0  0  0  0  0  0  0  0  0  0
   57.7480   32.0400   43.2530 C   0  0  0  0  0  0  0  0  0  0  0  0
   57.7730   33.3100   43.8820 C   0  0  0  0  0  0  0  0  0  0  0  0
   58.0900   33.4290   45.2470 C   0  0  0  0  0  0  0  0  0  0  0  0
   58.3700   32.2610   45.9540 C   0  0  0  0  0  0  0  0  0  0  0  0
   58.7080   32.0570   47.2760 C   0  0  0  0  0  0  0  0  0  0  0  0
   58.8240   33.0920   48.3490 C   0  0  0  0  0  0  0  0  0  0  0  0
   60.2350   33.2570   48.7120 N   0  0  0  0  0  0  0  0  0  0  0  0
   61.0630   33.4080   47.5100 C   0  0  0  0  0  0  0  0  0  0  0  0
   62.0670   32.2540   47.3910 C   0  0  0  0  0  0  0  0  0  0  0  0
   63.5150   32.7610   47.2700 C   0  0  0  0  0  0  0  0  0  0  0  0
   64.1350   33.1080   48.6340 C   0  0  0  0  0  0  0  0  0  0  0  0
   63.1140   33.4560   49.7370 C   0  0  0  0  0  0  0  0  0  0  0  0
   63.5040   32.9300   51.1380 C   0  0  0  0  0  0  0  0  0  0  0  0
   62.3150   32.6000   51.9450 N   0  0  0  0  0  0  0  0  0  0  0  0
   61.2170   33.5570   51.7260 C   0  0  0  0  0  0  0  0  0  0  0  0
   59.8620   32.8860   51.7820 C   0  0  0  0  0  0  0  0  0  0  0  0
   58.7750   33.5650   52.3610 C   0  0  0  0  0  0  0  0  0  0  0  0
   57.5200   32.9530   52.4490 C   0  0  0  0  0  0  0  0  0  0  0  0
   57.3320   31.6590   51.9550 C   0  0  0  0  0  0  0  0  0  0  0  0
   55.6050   30.8450   52.0750 Br  0  0  0  0  0  0  0  0  0  0  0  0
   58.4060   30.9740   51.3730 C   0  0  0  0  0  0  0  0  0  0  0  0
   59.6740   31.5750   51.3060 C   0  0  0  0  0  0  0  0  0  0  0  0
   60.7370   30.8420   50.7600 O   0  0  0  0  0  0  0  0  0  0  0  0
   60.6320   29.4310   50.5510 C   0  0  0  0  0  0  0  0  0  0  0  0
   59.2360   29.0820   50.0260 C   0  0  0  0  0  0  0  0  0  0  0  0
   58.2370   29.6840   50.8530 O   0  0  0  0  0  0  0  0  0  0  0  0
   58.8420   30.6790   47.4220 C   0  0  0  0  0  0  0  0  0  0  0  0
   58.6150   30.0560   46.2420 N   0  0  0  0  0  0  0  0  0  0  0  0
   58.3290   31.0280   45.3570 C   0  0  0  0  0  0  0  0  0  0  0  0
   58.0150   30.8760   44.0060 C   0  0  0  0  0  0  0  0  0  0  0  0
   56.3393   31.5820   41.7135 H   0  0  0  0  0  0  0  0  0  0  0  0
   57.4915   32.9010   41.3146 H   0  0  0  0  0  0  0  0  0  0  0  0
   58.0470   31.1928   41.3146 H   0  0  0  0  0  0  0  0  0  0  0  0
   57.5420   34.2120   43.2963 H   0  0  0  0  0  0  0  0  0  0  0  0
   58.1161   34.4117   45.7405 H   0  0  0  0  0  0  0  0  0  0  0  0
   58.4248   34.0488   47.9814 H   0  0  0  0  0  0  0  0  0  0  0  0
   58.2509   32.7733   49.2322 H   0  0  0  0  0  0  0  0  0  0  0  0
   60.5390   32.3880   49.2140 H   0  0  0  0  0  0  0  0  0  0  0  0
   60.4129   33.4132   46.6227 H   0  0  0  0  0  0  0  0  0  0  0  0
   61.6201   34.3537   47.5824 H   0  0  0  0  0  0  0  0  0  0  0  0
   61.9864   31.6192   48.2858 H   0  0  0  0  0  0  0  0  0  0  0  0
   61.8276   31.6875   46.4790 H   0  0  0  0  0  0  0  0  0  0  0  0
   64.1241   31.9779   46.7949 H   0  0  0  0  0  0  0  0  0  0  0  0
   63.4970   33.6814   46.6679 H   0  0  0  0  0  0  0  0  0  0  0  0
   64.7237   32.2427   48.9728 H   0  0  0  0  0  0  0  0  0  0  0  0
   64.7432   34.0111   48.4778 H   0  0  0  0  0  0  0  0  0  0  0  0
   63.0217   34.5508   49.7911 H   0  0  0  0  0  0  0  0  0  0  0  0
   62.1678   32.9663   49.4633 H   0  0  0  0  0  0  0  0  0  0  0  0
   64.1183   32.0250   51.0211 H   0  0  0  0  0  0  0  0  0  0  0  0
   64.0640   33.7209   51.6585 H   0  0  0  0  0  0  0  0  0  0  0  0
   62.5630   32.6220   52.9600 H   0  0  0  0  0  0  0  0  0  0  0  0
   61.9920   31.6310   51.7180 H   0  0  0  0  0  0  0  0  0  0  0  0
   61.2616   34.3331   52.5042 H   0  0  0  0  0  0  0  0  0  0  0  0
   61.3399   33.9922   50.7233 H   0  0  0  0  0  0  0  0  0  0  0  0
   58.9127   34.5855   52.7478 H   0  0  0  0  0  0  0  0  0  0  0  0
   56.6783   33.4920   52.9085 H   0  0  0  0  0  0  0  0  0  0  0  0
   61.3872   29.1143   49.8165 H   0  0  0  0  0  0  0  0  0  0  0  0
   60.7993   28.9110   51.5058 H   0  0  0  0  0  0  0  0  0  0  0  0
   59.1302   29.4555   48.9968 H   0  0  0  0  0  0  0  0  0  0  0  0
   59.1073   27.9897   50.0420 H   0  0  0  0  0  0  0  0  0  0  0  0
   59.0963   30.1689   48.3628 H   0  0  0  0  0  0  0  0  0  0  0  0
   58.6490   29.0280   46.0630 H   0  0  0  0  0  0  0  0  0  0  0  0
   57.9767   29.8795   43.5417 H   0  0  0  0  0  0  0  0  0  0  0  0
  1  2  1  0
  2  3  2  0
  3  4  1  0
  4  5  2  0
  5  6  1  0
  6  7  1  0
  7  8  1  0
  8  9  1  0
  9 10  1  0
 10 11  1  0
 11 12  1  0
 12 13  1  0
 13 14  1  0
 14 15  1  0
 15 16  1  0
 16 17  1  0
 17 18  2  0
 18 19  1  0
 19 20  2  0
 20 21  1  0
 20 22  1  0
 22 23  2  0
 23 24  1  0
 24 25  1  0
 25 26  1  0
 26 27  1  0
  6 28  2  0
 28 29  1  0
 29 30  1  0
 30 31  2  0
 31  2  1  0
 30  5  1  0
 23 17  1  0
 27 22  1  0
  1 32  1  0
  1 33  1  0
  1 34  1  0
  3 35  1  0
  4 36  1  0
  7 37  1  0
  7 38  1  0
  8 39  1  0
  9 40  1  0
  9 41  1  0
 10 42  1  0
 10 43  1  0
 11 44  1  0
 11 45  1  0
 12 46  1  0
 12 47  1  0
 13 48  1  0
 13 49  1  0
 14 50  1  0
 14 51  1  0
 15 52  1  0
 15 53  1  0
 16 54  1  0
 16 55  1  0
 18 56  1  0
 19 57  1  0
 25 58  1  0
 25 59  1  0
 26 60  1  0
 26 61  1  0
 28 62  1  0
 29 63  1  0
 31 64  1  0
M  CHG  1  15   1
M  END
>  <UniqueID>  (7) 
7

>  <SMILES>  (7) 
Cc1ccc2c(CNCCCCCC[NH2+]Cc3ccc(Br)c4c3OCCO4)c[nH]c2c1

>  <Energy>  (7) 
91.16644313620074

>  <Genealogy>  (7) 
Cc1ccc2c(CNCCCCCC[NH2+]Cc3ccc(Br)c4c3OCCO4)c[nH]c2c1 (protonated)
Cc1ccc2c(CNCCCCCC[NH2+]Cc3ccc(Br)c4c3OCCO4)c[nH]c2c1 (3D coordinates assigned)
Cc1ccc2c(CNCCCCCC[NH2+]Cc3ccc(Br)c4c3OCCO4)c[nH]c2c1 (nonaromatic ring conformer: 91.16644313620074 kcal/mol)

>  <smiles>  (7) 
Cc1ccc2c(CNCCCCCCNCc3ccc(Br)c4c3OCCO4)c[nH]c2c1

>  <score_type>  (7) 
oracle

>  <origin>  (7) 
adg

>  <m_score__min__energy>  (7) 
-7.0199999999999996

>  <m_primary>  (7) 
energy

$$$$
7:0
     RDKit          3D

 53 55  0  0  0  0  0  0  0  0999 V2000
   54.5730   24.6310   45.6090 C   0  0  0  0  0  0  0  0  0  0  0  0
   55.4170   25.6900   46.0030 O   0  0  0  0  0  0  0  0  0  0  0  0
   56.6610   25.6100   45.3320 C   0  0  0  0  0  0  0  0  0  0  0  0
   57.7960   26.1770   46.1960 C   0  0  0  0  0  0  0  0  0  0  0  0
   57.7270   27.6520   46.2780 N   0  0  0  0  0  0  0  0  0  0  0  0
   58.2770   28.1430   47.5470 C   0  0  0  0  0  0  0  0  0  0  0  0
   58.7830   29.5680   47.2980 C   0  0  1  0  0  0  0  0  0  0  0  0
   60.1190   29.8190   47.9580 C   0  0  0  0  0  0  0  0  0  0  0  0
   60.9010   28.8480   48.1430 O   0  0  0  0  0  0  0  0  0  0  0  0
   60.4780   31.1360   48.4080 N   0  0  0  0  0  0  0  0  0  0  0  0
   61.7980   31.5080   48.8400 C   0  0  0  0  0  0  0  0  0  0  0  0
   62.3470   31.0120   50.0370 C   0  0  0  0  0  0  0  0  0  0  0  0
   63.6430   31.3680   50.4190 C   0  0  0  0  0  0  0  0  0  0  0  0
   64.4100   32.2080   49.6060 C   0  0  0  0  0  0  0  0  0  0  0  0
   66.1840   32.6860   50.1280 Br  0  0  0  0  0  0  0  0  0  0  0  0
   63.8810   32.6860   48.4040 C   0  0  0  0  0  0  0  0  0  0  0  0
   62.5840   32.3320   48.0180 C   0  0  0  0  0  0  0  0  0  0  0  0
   58.8450   29.7180   45.7680 C   0  0  2  0  0  0  0  0  0  0  0  0
   57.8500   30.7660   45.2870 C   0  0  0  0  0  0  0  0  0  0  0  0
   56.7070   30.3810   44.9090 O   0  0  0  0  0  0  0  0  0  0  0  0
   58.1320   32.1870   45.3410 N   0  0  0  0  0  0  0  0  0  0  0  0
   57.0290   33.1110   45.0190 C   0  0  0  0  0  0  0  0  0  0  0  0
   57.4910   34.5640   44.9180 C   0  0  0  0  0  0  0  0  0  0  0  0
   58.3620   34.8830   45.9770 O   0  0  0  0  0  0  0  0  0  0  0  0
   59.5740   34.1900   45.7880 C   0  0  0  0  0  0  0  0  0  0  0  0
   59.3820   32.6770   45.9530 C   0  0  0  0  0  0  0  0  0  0  0  0
   58.5160   28.3200   45.2370 C   0  0  0  0  0  0  0  0  0  0  0  0
   54.1730   24.1291   46.5024 H   0  0  0  0  0  0  0  0  0  0  0  0
   53.7415   25.0287   45.0087 H   0  0  0  0  0  0  0  0  0  0  0  0
   55.1462   23.9092   45.0087 H   0  0  0  0  0  0  0  0  0  0  0  0
   56.8774   24.5563   45.1020 H   0  0  0  0  0  0  0  0  0  0  0  0
   56.5969   26.2037   44.4082 H   0  0  0  0  0  0  0  0  0  0  0  0
   57.7172   25.7582   47.2101 H   0  0  0  0  0  0  0  0  0  0  0  0
   58.7547   25.9007   45.7327 H   0  0  0  0  0  0  0  0  0  0  0  0
   57.4942   28.1503   48.3198 H   0  0  0  0  0  0  0  0  0  0  0  0
   59.0929   27.4936   47.8972 H   0  0  0  0  0  0  0  0  0  0  0  0
   58.1135   30.3187   47.7433 H   0  0  0  0  0  0  0  0  0  0  0  0
   59.7220   31.8530   48.4870 H   0  0  0  0  0  0  0  0  0  0  0  0
   61.7531   30.3409   50.6749 H   0  0  0  0  0  0  0  0  0  0  0  0
   64.0611   30.9863   51.3621 H   0  0  0  0  0  0  0  0  0  0  0  0
   64.4857   33.3418   47.7603 H   0  0  0  0  0  0  0  0  0  0  0  0
   62.1772   32.7012   47.0650 H   0  0  0  0  0  0  0  0  0  0  0  0
   59.8252   30.0659   45.4100 H   0  0  0  0  0  0  0  0  0  0  0  0
   56.5896   32.8131   44.0556 H   0  0  0  0  0  0  0  0  0  0  0  0
   56.2944   33.0507   45.8355 H   0  0  0  0  0  0  0  0  0  0  0  0
   58.0154   34.7107   43.9622 H   0  0  0  0  0  0  0  0  0  0  0  0
   56.6101   35.2204   44.9741 H   0  0  0  0  0  0  0  0  0  0  0  0
   59.9499   34.3952   44.7748 H   0  0  0  0  0  0  0  0  0  0  0  0
   60.2927   34.5337   46.5465 H   0  0  0  0  0  0  0  0  0  0  0  0
   60.2304   32.1617   45.4790 H   0  0  0  0  0  0  0  0  0  0  0  0
   59.3262   32.4669   47.0313 H   0  0  0  0  0  0  0  0  0  0  0  0
   57.9325   28.3945   44.3075 H   0  0  0  0  0  0  0  0  0  0  0  0
   59.4325   27.7557   45.0100 H   0  0  0  0  0  0  0  0  0  0  0  0
  1  2  1  0
  2  3  1  0
  3  4  1  0
  4  5  1  0
  5  6  1  0
  6  7  1  0
  7  8  1  0
  8  9  2  0
  8 10  1  0
 10 11  1  0
 11 12  2  0
 12 13  1  0
 13 14  2  0
 14 15  1  0
 14 16  1  0
 16 17  2  0
  7 18  1  0
 18 19  1  0
 19 20  2  0
 19 21  1  0
 21 22  1  0
 22 23  1  0
 23 24  1  0
 24 25  1  0
 25 26  1  0
 18 27  1  0
 27  5  1  0
 17 11  1  0
 26 21  1  0
  1 28  1  0
  1 29  1  0
  1 30  1  0
  3 31  1  0
  3 32  1  0
  4 33  1  0
  4 34  1  0
  6 35  1  0
  6 36  1  0
  7 37  1  1
 10 38  1  0
 12 39  1  0
 13 40  1  0
 16 41  1  0
 17 42  1  0
 18 43  1  1
 22 44  1  0
 22 45  1  0
 23 46  1  0
 23 47  1  0
 25 48  1  0
 25 49  1  0
 26 50  1  0
 26 51  1  0
 27 52  1  0
 27 53  1  0
M  END
>  <UniqueID>  (8) 
8

>  <SMILES>  (8) 
COCCN1C[C@@H](C(=O)Nc2ccc(Br)cc2)[C@H](C(=O)N2CCOCC2)C1

>  <Energy>  (8) 
65.62935304438355

>  <Genealogy>  (8) 
COCCN1C[C@@H](C(=O)Nc2ccc(Br)cc2)[C@H](C(=O)N2CCOCC2)C1 (chirality)
COCCN1C[C@@H](C(=O)Nc2ccc(Br)cc2)[C@H](C(=O)N2CCOCC2)C1 (3D coordinates assigned)
COCCN1C[C@@H](C(=O)Nc2ccc(Br)cc2)[C@H](C(=O)N2CCOCC2)C1 (nonaromatic ring conformer: 65.62935304438355 kcal/mol)

>  <smiles>  (8) 
COCCN1CC(C(=O)Nc2ccc(Br)cc2)C(C(=O)N2CCOCC2)C1

>  <score_type>  (8) 
oracle

>  <origin>  (8) 
adg

>  <m_score__min__energy>  (8) 
-8.0899999999999999

>  <m_primary>  (8) 
energy

$$$$
8:0
     RDKit          3D

 54 57  0  0  0  0  0  0  0  0999 V2000
   66.7810   30.6130   51.9350 C   0  0  0  0  0  0  0  0  0  0  0  0
   65.7400   31.2870   51.0890 C   0  0  0  0  0  0  0  0  0  0  0  0
   64.4260   30.8000   51.0630 C   0  0  0  0  0  0  0  0  0  0  0  0
   63.4660   31.4030   50.2470 C   0  0  0  0  0  0  0  0  0  0  0  0
   63.8070   32.4960   49.4280 C   0  0  0  0  0  0  0  0  0  0  0  0
   62.8140   33.1270   48.5920 N   0  0  0  0  0  0  0  0  0  0  0  0
   61.9880   34.2220   49.1210 C   0  0  0  0  0  0  0  0  0  0  0  0
   60.6010   34.2280   48.4670 C   0  0  0  0  0  0  0  0  0  0  0  0
   60.6810   34.1220   47.0020 N   0  0  0  0  0  0  0  0  0  0  0  0
   59.5330   34.4340   46.1830 C   0  0  0  0  0  0  0  0  0  0  0  0
   59.6970   34.7690   44.9780 O   0  0  0  0  0  0  0  0  0  0  0  0
   58.1280   34.2970   46.6960 C   0  0  0  0  0  0  0  0  0  0  0  0
   57.9850   32.7450   47.6370 S   0  0  0  0  0  0  0  0  0  0  0  0
   58.2060   31.7020   46.1840 C   0  0  0  0  0  0  0  0  0  0  0  0
   57.7550   32.1870   44.9540 C   0  0  0  0  0  0  0  0  0  0  0  0
   57.9160   31.4190   43.7950 C   0  0  0  0  0  0  0  0  0  0  0  0
   57.3960   31.9300   42.4830 C   0  0  0  0  0  0  0  0  0  0  0  0
   58.4900   30.1840   43.8720 N   0  0  0  0  0  0  0  0  0  0  0  0
   58.9400   29.6760   45.0550 C   0  0  0  0  0  0  0  0  0  0  0  0
   59.5400   28.4060   45.0930 C   0  0  0  0  0  0  0  0  0  0  0  0
   60.0030   27.8810   46.3000 C   0  0  0  0  0  0  0  0  0  0  0  0
   59.8710   28.6130   47.4820 C   0  0  0  0  0  0  0  0  0  0  0  0
   60.4550   27.9450   48.9950 Cl  0  0  0  0  0  0  0  0  0  0  0  0
   59.2760   29.8780   47.4620 C   0  0  0  0  0  0  0  0  0  0  0  0
   58.8060   30.4260   46.2500 C   0  0  0  0  0  0  0  0  0  0  0  0
   61.9670   33.8210   46.3620 C   0  0  0  0  0  0  0  0  0  0  0  0
   62.7320   32.7680   47.1680 C   0  0  0  0  0  0  0  0  0  0  0  0
   65.1320   32.9690   49.4490 C   0  0  0  0  0  0  0  0  0  0  0  0
   66.0900   32.3660   50.2660 C   0  0  0  0  0  0  0  0  0  0  0  0
   66.5447   30.7660   52.9984 H   0  0  0  0  0  0  0  0  0  0  0  0
   66.7924   29.5356   51.7133 H   0  0  0  0  0  0  0  0  0  0  0  0
   67.7687   31.0435   51.7133 H   0  0  0  0  0  0  0  0  0  0  0  0
   64.1493   29.9385   51.6884 H   0  0  0  0  0  0  0  0  0  0  0  0
   62.4346   31.0205   50.2443 H   0  0  0  0  0  0  0  0  0  0  0  0
   61.8731   34.0937   50.2074 H   0  0  0  0  0  0  0  0  0  0  0  0
   62.4858   35.1769   48.8968 H   0  0  0  0  0  0  0  0  0  0  0  0
   60.0227   33.3759   48.8535 H   0  0  0  0  0  0  0  0  0  0  0  0
   60.1145   35.1836   48.7120 H   0  0  0  0  0  0  0  0  0  0  0  0
   57.8906   35.1481   47.3512 H   0  0  0  0  0  0  0  0  0  0  0  0
   57.4247   34.2833   45.8503 H   0  0  0  0  0  0  0  0  0  0  0  0
   57.2726   33.1739   44.8963 H   0  0  0  0  0  0  0  0  0  0  0  0
   56.6224   32.6902   42.6662 H   0  0  0  0  0  0  0  0  0  0  0  0
   58.2218   32.3777   41.9106 H   0  0  0  0  0  0  0  0  0  0  0  0
   56.9627   31.0965   41.9106 H   0  0  0  0  0  0  0  0  0  0  0  0
   58.5840   29.6160   42.9990 H   0  0  0  0  0  0  0  0  0  0  0  0
   59.6452   27.8226   44.1664 H   0  0  0  0  0  0  0  0  0  0  0  0
   60.4737   26.8870   46.3206 H   0  0  0  0  0  0  0  0  0  0  0  0
   59.1738   30.4492   48.3965 H   0  0  0  0  0  0  0  0  0  0  0  0
   61.7856   33.4387   45.3466 H   0  0  0  0  0  0  0  0  0  0  0  0
   62.5674   34.7417   46.3182 H   0  0  0  0  0  0  0  0  0  0  0  0
   62.2152   31.8016   47.0731 H   0  0  0  0  0  0  0  0  0  0  0  0
   63.7557   32.7082   46.7698 H   0  0  0  0  0  0  0  0  0  0  0  0
   65.4158   33.8223   48.8155 H   0  0  0  0  0  0  0  0  0  0  0  0
   67.1246   32.7396   50.2638 H   0  0  0  0  0  0  0  0  0  0  0  0
  1  2  1  0
  2  3  2  0
  3  4  1  0
  4  5  2  0
  5  6  1  0
  6  7  1  0
  7  8  1  0
  8  9  1  0
  9 10  1  0
 10 11  2  0
 10 12  1  0
 12 13  1  0
 13 14  1  0
 14 15  2  0
 15 16  1  0
 16 17  1  0
 16 18  2  0
 18 19  1  0
 19 20  2  0
 20 21  1  0
 21 22  2  0
 22 23  1  0
 22 24  1  0
 24 25  2  0
  9 26  1  0
 26 27  1  0
  5 28  1  0
 28 29  2  0
 29  2  1  0
 27  6  1  0
 25 14  1  0
 25 19  1  0
  1 30  1  0
  1 31  1  0
  1 32  1  0
  3 33  1  0
  4 34  1  0
  7 35  1  0
  7 36  1  0
  8 37  1  0
  8 38  1  0
 12 39  1  0
 12 40  1  0
 15 41  1  0
 17 42  1  0
 17 43  1  0
 17 44  1  0
 18 45  1  0
 20 46  1  0
 21 47  1  0
 24 48  1  0
 26 49  1  0
 26 50  1  0
 27 51  1  0
 27 52  1  0
 28 53  1  0
 29 54  1  0
M  CHG  1  18   1
M  END
>  <UniqueID>  (9) 
9

>  <SMILES>  (9) 
Cc1ccc(N2CCN(C(=O)CSc3cc(C)[nH+]c4ccc(Cl)cc34)CC2)cc1

>  <Energy>  (9) 
59.559636749812235

>  <Genealogy>  (9) 
Cc1ccc(N2CCN(C(=O)CSc3cc(C)[nH+]c4ccc(Cl)cc34)CC2)cc1 (protonated)
Cc1ccc(N2CCN(C(=O)CSc3cc(C)[nH+]c4ccc(Cl)cc34)CC2)cc1 (3D coordinates assigned)
Cc1ccc(N2CCN(C(=O)CSc3cc(C)[nH+]c4ccc(Cl)cc34)CC2)cc1 (nonaromatic ring conformer: 59.559636749812235 kcal/mol)

>  <smiles>  (9) 
Cc1ccc(N2CCN(C(=O)CSc3cc(C)nc4ccc(Cl)cc34)CC2)cc1

>  <score_type>  (9) 
oracle

>  <origin>  (9) 
adg

>  <m_score__min__energy>  (9) 
-7.8300000000000001

>  <m_primary>  (9) 
energy

$$$$
9:0
     RDKit          3D

 51 53  0  0  0  0  0  0  0  0999 V2000
   54.7650   24.8490   45.6180 C   0  0  0  0  0  0  0  0  0  0  0  0
   55.0350   26.2380   45.7870 O   0  0  0  0  0  0  0  0  0  0  0  0
   56.3130   26.7800   45.9910 C   0  0  0  0  0  0  0  0  0  0  0  0
   57.3330   26.0640   46.6450 C   0  0  0  0  0  0  0  0  0  0  0  0
   58.5920   26.6370   46.8310 C   0  0  0  0  0  0  0  0  0  0  0  0
   58.8560   27.9330   46.3680 C   0  0  0  0  0  0  0  0  0  0  0  0
   60.2130   28.5640   46.5860 C   0  0  0  0  0  0  0  0  0  0  0  0
   60.1760   29.6250   47.6210 N   0  0  0  0  0  0  0  0  0  0  0  0
   60.7880   30.8730   47.0920 C   0  0  0  0  0  0  0  0  0  0  0  0
   61.3910   31.7760   48.1910 C   0  0  0  0  0  0  0  0  0  0  0  0
   60.6930   31.6420   49.4870 N   0  0  0  0  0  0  0  0  0  0  0  0
   59.3570   32.2810   49.4920 C   0  0  0  0  0  0  0  0  0  0  0  0
   59.1470   33.0890   48.2390 C   0  0  0  0  0  0  0  0  0  0  0  0
   59.8390   34.2990   48.0610 C   0  0  0  0  0  0  0  0  0  0  0  0
   59.6600   35.0460   46.8920 C   0  0  0  0  0  0  0  0  0  0  0  0
   58.7950   34.5900   45.8930 C   0  0  0  0  0  0  0  0  0  0  0  0
   58.1070   33.3840   46.0630 C   0  0  0  0  0  0  0  0  0  0  0  0
   58.2820   32.6350   47.2300 C   0  0  0  0  0  0  0  0  0  0  0  0
   60.6740   30.2410   49.9770 C   0  0  0  0  0  0  0  0  0  0  0  0
   60.8510   29.1900   48.8600 C   0  0  0  0  0  0  0  0  0  0  0  0
   57.8410   28.6510   45.7170 C   0  0  0  0  0  0  0  0  0  0  0  0
   56.5680   28.0810   45.5260 C   0  0  0  0  0  0  0  0  0  0  0  0
   55.5310   28.7730   44.8800 O   0  0  0  0  0  0  0  0  0  0  0  0
   55.7230   29.7280   43.8420 C   0  0  0  0  0  0  0  0  0  0  0  0
   54.6721   24.3709   46.6043 H   0  0  0  0  0  0  0  0  0  0  0  0
   53.8256   24.7234   45.0596 H   0  0  0  0  0  0  0  0  0  0  0  0
   55.5889   24.3806   45.0596 H   0  0  0  0  0  0  0  0  0  0  0  0
   57.1366   25.0458   47.0121 H   0  0  0  0  0  0  0  0  0  0  0  0
   59.3815   26.0681   47.3439 H   0  0  0  0  0  0  0  0  0  0  0  0
   60.9200   27.7834   46.9036 H   0  0  0  0  0  0  0  0  0  0  0  0
   60.5272   29.0263   45.6386 H   0  0  0  0  0  0  0  0  0  0  0  0
   59.1720   29.8240   47.8460 H   0  0  0  0  0  0  0  0  0  0  0  0
   61.5882   30.5979   46.3892 H   0  0  0  0  0  0  0  0  0  0  0  0
   59.9854   31.4466   46.6055 H   0  0  0  0  0  0  0  0  0  0  0  0
   62.4473   31.5027   48.3305 H   0  0  0  0  0  0  0  0  0  0  0  0
   61.2805   32.8195   47.8608 H   0  0  0  0  0  0  0  0  0  0  0  0
   58.5841   31.5006   49.5519 H   0  0  0  0  0  0  0  0  0  0  0  0
   59.2903   32.9528   50.3605 H   0  0  0  0  0  0  0  0  0  0  0  0
   60.5233   34.6597   48.8431 H   0  0  0  0  0  0  0  0  0  0  0  0
   60.2011   35.9944   46.7585 H   0  0  0  0  0  0  0  0  0  0  0  0
   58.6555   35.1788   44.9744 H   0  0  0  0  0  0  0  0  0  0  0  0
   57.4269   33.0244   45.2767 H   0  0  0  0  0  0  0  0  0  0  0  0
   57.7402   31.6864   47.3586 H   0  0  0  0  0  0  0  0  0  0  0  0
   61.4903   30.1162   50.7037 H   0  0  0  0  0  0  0  0  0  0  0  0
   59.6837   30.0705   50.4246 H   0  0  0  0  0  0  0  0  0  0  0  0
   61.9239   29.0550   48.6582 H   0  0  0  0  0  0  0  0  0  0  0  0
   60.4025   28.2422   49.1925 H   0  0  0  0  0  0  0  0  0  0  0  0
   58.0421   29.6691   45.3524 H   0  0  0  0  0  0  0  0  0  0  0  0
   55.9215   30.7154   44.2843 H   0  0  0  0  0  0  0  0  0  0  0  0
   56.5785   29.4263   43.2198 H   0  0  0  0  0  0  0  0  0  0  0  0
   54.8174   29.7803   43.2198 H   0  0  0  0  0  0  0  0  0  0  0  0
  1  2  1  0
  2  3  1  0
  3  4  2  0
  4  5  1  0
  5  6  2  0
  6  7  1  0
  7  8  1  0
  8  9  1  0
  9 10  1  0
 10 11  1  0
 11 12  1  0
 12 13  1  0
 13 14  2  0
 14 15  1  0
 15 16  2  0
 16 17  1  0
 17 18  2  0
 11 19  1  0
 19 20  1  0
  6 21  1  0
 21 22  2  0
 22 23  1  0
 23 24  1  0
 22  3  1  0
 20  8  1  0
 18 13  1  0
  1 25  1  0
  1 26  1  0
  1 27  1  0
  4 28  1  0
  5 29  1  0
  7 30  1  0
  7 31  1  0
  8 32  1  0
  9 33  1  0
  9 34  1  0
 10 35  1  0
 10 36  1  0
 12 37  1  0
 12 38  1  0
 14 39  1  0
 15 40  1  0
 16 41  1  0
 17 42  1  0
 18 43  1  0
 19 44  1  0
 19 45  1  0
 20 46  1  0
 20 47  1  0
 21 48  1  0
 24 49  1  0
 24 50  1  0
 24 51  1  0
M  CHG  1   8   1
M  END
>  <UniqueID>  (10) 
10

>  <SMILES>  (10) 
COc1ccc(C[NH+]2CCN(Cc3ccccc3)CC2)cc1OC

>  <Energy>  (10) 
64.61751793243933

>  <Genealogy>  (10) 
COc1ccc(C[NH+]2CCN(Cc3ccccc3)CC2)cc1OC (protonated)
COc1ccc(C[NH+]2CCN(Cc3ccccc3)CC2)cc1OC (3D coordinates assigned)
COc1ccc(C[NH+]2CCN(Cc3ccccc3)CC2)cc1OC (nonaromatic ring conformer: 64.61751793243933 kcal/mol)

>  <smiles>  (10) 
COc1ccc(CN2CCN(Cc3ccccc3)CC2)cc1OC

>  <score_type>  (10) 
oracle

>  <origin>  (10) 
adg

>  <m_score__min__energy>  (10) 
-6.8099999999999996

>  <m_primary>  (10) 
energy

$$$$
10:0
     RDKit          3D

 42 43  0  0  0  0  0  0  0  0999 V2000
   63.6720   31.3960   50.7190 C   0  0  0  0  0  0  0  0  0  0  0  0
   63.9130   32.5320   49.8160 N   0  0  0  0  0  0  0  0  0  0  0  0
   65.3540   32.7680   49.6330 C   0  0  0  0  0  0  0  0  0  0  0  0
   63.2440   33.7290   50.2910 C   0  0  0  0  0  0  0  0  0  0  0  0
   63.6960   34.3240   51.2600 O   0  0  0  0  0  0  0  0  0  0  0  0
   61.9730   34.2500   49.6570 C   0  0  0  0  0  0  0  0  0  0  0  0
   61.3720   33.2480   48.8390 O   0  0  0  0  0  0  0  0  0  0  0  0
   61.5670   33.1550   47.4560 C   0  0  0  0  0  0  0  0  0  0  0  0
   62.7280   32.9890   46.9920 O   0  0  0  0  0  0  0  0  0  0  0  0
   60.4070   33.2450   46.5400 C   0  0  0  0  0  0  0  0  0  0  0  0
   60.0490   34.4790   45.9800 C   0  0  0  0  0  0  0  0  0  0  0  0
   58.9560   34.5710   45.1230 C   0  0  0  0  0  0  0  0  0  0  0  0
   58.2070   33.4380   44.8090 C   0  0  0  0  0  0  0  0  0  0  0  0
   58.5390   32.1720   45.3450 C   0  0  0  0  0  0  0  0  0  0  0  0
   57.7560   30.9810   45.0150 N   0  0  0  0  0  0  0  0  0  0  0  0
   56.6780   31.0810   44.0070 C   0  0  0  0  0  0  0  0  0  0  0  0
   55.9930   29.7450   43.7050 C   0  0  0  0  0  0  0  0  0  0  0  0
   55.8520   28.9740   44.8740 O   0  0  0  0  0  0  0  0  0  0  0  0
   57.1300   28.5560   45.2870 C   0  0  0  0  0  0  0  0  0  0  0  0
   57.9570   29.7400   45.7930 C   0  0  0  0  0  0  0  0  0  0  0  0
   59.6490   32.1020   46.2220 C   0  0  0  0  0  0  0  0  0  0  0  0
   63.7440   31.7356   51.7628 H   0  0  0  0  0  0  0  0  0  0  0  0
   62.6673   30.9879   50.5347 H   0  0  0  0  0  0  0  0  0  0  0  0
   64.4245   30.6151   50.5347 H   0  0  0  0  0  0  0  0  0  0  0  0
   63.5170   32.2760   48.8800 H   0  0  0  0  0  0  0  0  0  0  0  0
   65.8403   32.8476   50.6164 H   0  0  0  0  0  0  0  0  0  0  0  0
   65.7946   31.9300   49.0729 H   0  0  0  0  0  0  0  0  0  0  0  0
   65.5042   33.7027   49.0729 H   0  0  0  0  0  0  0  0  0  0  0  0
   61.2672   34.5413   50.4489 H   0  0  0  0  0  0  0  0  0  0  0  0
   62.2205   35.1186   49.0290 H   0  0  0  0  0  0  0  0  0  0  0  0
   60.6346   35.3790   46.2189 H   0  0  0  0  0  0  0  0  0  0  0  0
   58.6814   35.5444   44.6906 H   0  0  0  0  0  0  0  0  0  0  0  0
   57.3438   33.5301   44.1334 H   0  0  0  0  0  0  0  0  0  0  0  0
   55.9186   31.7845   44.3790 H   0  0  0  0  0  0  0  0  0  0  0  0
   57.1434   31.4229   43.0708 H   0  0  0  0  0  0  0  0  0  0  0  0
   54.9971   29.9395   43.2802 H   0  0  0  0  0  0  0  0  0  0  0  0
   56.6150   29.1864   42.9901 H   0  0  0  0  0  0  0  0  0  0  0  0
   57.0233   27.8194   46.0969 H   0  0  0  0  0  0  0  0  0  0  0  0
   57.6481   28.1091   44.4256 H   0  0  0  0  0  0  0  0  0  0  0  0
   57.6782   29.9367   46.8387 H   0  0  0  0  0  0  0  0  0  0  0  0
   59.0158   29.4616   45.6862 H   0  0  0  0  0  0  0  0  0  0  0  0
   59.9249   31.1334   46.6643 H   0  0  0  0  0  0  0  0  0  0  0  0
  1  2  1  0
  2  3  1  0
  2  4  1  0
  4  5  2  0
  4  6  1  0
  6  7  1  0
  7  8  1  0
  8  9  2  0
  8 10  1  0
 10 11  2  0
 11 12  1  0
 12 13  2  0
 13 14  1  0
 14 15  1  0
 15 16  1  0
 16 17  1  0
 17 18  1  0
 18 19  1  0
 19 20  1  0
 14 21  2  0
 21 10  1  0
 20 15  1  0
  1 22  1  0
  1 23  1  0
  1 24  1  0
  2 25  1  0
  3 26  1  0
  3 27  1  0
  3 28  1  0
  6 29  1  0
  6 30  1  0
 11 31  1  0
 12 32  1  0
 13 33  1  0
 16 34  1  0
 16 35  1  0
 17 36  1  0
 17 37  1  0
 19 38  1  0
 19 39  1  0
 20 40  1  0
 20 41  1  0
 21 42  1  0
M  CHG  1   2   1
M  END
>  <UniqueID>  (11) 
11

>  <SMILES>  (11) 
C[NH+](C)C(=O)COC(=O)c1cccc(N2CCOCC2)c1

>  <Energy>  (11) 
48.45162426219359

>  <Genealogy>  (11) 
C[NH+](C)C(=O)COC(=O)c1cccc(N2CCOCC2)c1 (protonated)
C[NH+](C)C(=O)COC(=O)c1cccc(N2CCOCC2)c1 (3D coordinates assigned)
C[NH+](C)C(=O)COC(=O)c1cccc(N2CCOCC2)c1 (nonaromatic ring conformer: 48.45162426219359 kcal/mol)

>  <smiles>  (11) 
CN(C)C(=O)COC(=O)c1cccc(N2CCOCC2)c1

>  <score_type>  (11) 
oracle

>  <origin>  (11) 
adg

>  <m_score__min__energy>  (11) 
-5.9500000000000002

>  <m_primary>  (11) 
energy

$$$$
11:0
     RDKit          3D

 62 66  0  0  0  0  0  0  0  0999 V2000
   57.7410   27.4520   47.3720 C   0  0  0  0  0  0  0  0  0  0  0  0
   57.2120   26.4290   46.4120 C   0  0  0  0  0  0  0  0  0  0  0  0
   56.2910   25.5230   46.8320 N   0  0  0  0  0  0  0  0  0  0  0  0
   56.1110   24.7410   45.7590 C   0  0  0  0  0  0  0  0  0  0  0  0
   55.2420   23.6580   45.6450 C   0  0  0  0  0  0  0  0  0  0  0  0
   55.1900   22.9870   44.4130 C   0  0  0  0  0  0  0  0  0  0  0  0
   55.9910   23.4150   43.3340 C   0  0  0  0  0  0  0  0  0  0  0  0
   56.8610   24.5120   43.4810 C   0  0  0  0  0  0  0  0  0  0  0  0
   56.9020   25.1550   44.7280 C   0  0  0  0  0  0  0  0  0  0  0  0
   57.6390   26.2180   45.1230 N   0  0  0  0  0  0  0  0  0  0  0  0
   58.5500   27.0020   44.2550 C   0  0  0  0  0  0  0  0  0  0  0  0
   57.7680   28.0240   43.3870 C   0  0  0  0  0  0  0  0  0  0  0  0
   57.6830   29.4370   43.9870 C   0  0  0  0  0  0  0  0  0  0  0  0
   58.9350   29.8410   44.6520 N   0  0  0  0  0  0  0  0  0  0  0  0
   58.9380   30.9490   45.5760 C   0  0  0  0  0  0  0  0  0  0  0  0
   59.6810   30.8990   46.5930 O   0  0  0  0  0  0  0  0  0  0  0  0
   58.0290   32.1470   45.3790 C   0  0  0  0  0  0  0  0  0  0  0  0
   58.7380   33.2820   44.6120 C   0  0  0  0  0  0  0  0  0  0  0  0
   59.7730   34.0510   45.4640 C   0  0  0  0  0  0  0  0  0  0  0  0
   59.6080   33.8230   46.9170 N   0  0  0  0  0  0  0  0  0  0  0  0
   60.3960   34.8130   47.6810 C   0  0  0  0  0  0  0  0  0  0  0  0
   61.7090   34.2250   48.1120 C   0  0  0  0  0  0  0  0  0  0  0  0
   62.5140   33.5290   47.1990 C   0  0  0  0  0  0  0  0  0  0  0  0
   63.7300   32.9900   47.6300 C   0  0  0  0  0  0  0  0  0  0  0  0
   64.1270   33.1490   48.9600 C   0  0  0  0  0  0  0  0  0  0  0  0
   63.3000   33.8490   49.8400 C   0  0  0  0  0  0  0  0  0  0  0  0
   62.1190   34.3650   49.4040 N   0  0  0  0  0  0  0  0  0  0  0  0
   58.1820   33.8690   47.2900 C   0  0  0  0  0  0  0  0  0  0  0  0
   57.4430   32.6460   46.7230 C   0  0  0  0  0  0  0  0  0  0  0  0
   60.1230   28.9890   44.5250 C   0  0  0  0  0  0  0  0  0  0  0  0
   59.7850   27.5780   45.0000 C   0  0  0  0  0  0  0  0  0  0  0  0
   57.5654   27.1123   48.4034 H   0  0  0  0  0  0  0  0  0  0  0  0
   58.8207   27.5846   47.2085 H   0  0  0  0  0  0  0  0  0  0  0  0
   57.2251   28.4096   47.2085 H   0  0  0  0  0  0  0  0  0  0  0  0
   54.6172   23.3392   46.4924 H   0  0  0  0  0  0  0  0  0  0  0  0
   54.5209   22.1228   44.2886 H   0  0  0  0  0  0  0  0  0  0  0  0
   55.9355   22.8877   42.3702 H   0  0  0  0  0  0  0  0  0  0  0  0
   57.4887   24.8544   42.6451 H   0  0  0  0  0  0  0  0  0  0  0  0
   59.0047   26.2976   43.5429 H   0  0  0  0  0  0  0  0  0  0  0  0
   58.2656   28.0956   42.4086 H   0  0  0  0  0  0  0  0  0  0  0  0
   56.7356   27.6507   43.3182 H   0  0  0  0  0  0  0  0  0  0  0  0
   57.4655   30.1513   43.1793 H   0  0  0  0  0  0  0  0  0  0  0  0
   56.8866   29.4320   44.7457 H   0  0  0  0  0  0  0  0  0  0  0  0
   57.1843   31.8142   44.7580 H   0  0  0  0  0  0  0  0  0  0  0  0
   59.2562   32.8455   43.7454 H   0  0  0  0  0  0  0  0  0  0  0  0
   57.9633   34.0044   44.3154 H   0  0  0  0  0  0  0  0  0  0  0  0
   60.7814   33.7244   45.1700 H   0  0  0  0  0  0  0  0  0  0  0  0
   59.6196   35.1245   45.2793 H   0  0  0  0  0  0  0  0  0  0  0  0
   60.5843   35.6920   47.0470 H   0  0  0  0  0  0  0  0  0  0  0  0
   59.8271   35.1042   48.5763 H   0  0  0  0  0  0  0  0  0  0  0  0
   62.1921   33.4082   46.1541 H   0  0  0  0  0  0  0  0  0  0  0  0
   64.3720   32.4426   46.9242 H   0  0  0  0  0  0  0  0  0  0  0  0
   65.0808   32.7272   49.3098 H   0  0  0  0  0  0  0  0  0  0  0  0
   63.6038   33.9838   50.8886 H   0  0  0  0  0  0  0  0  0  0  0  0
   58.0935   33.8704   48.3864 H   0  0  0  0  0  0  0  0  0  0  0  0
   57.7326   34.7831   46.8747 H   0  0  0  0  0  0  0  0  0  0  0  0
   57.5058   31.8287   47.4565 H   0  0  0  0  0  0  0  0  0  0  0  0
   56.4037   32.9519   46.5325 H   0  0  0  0  0  0  0  0  0  0  0  0
   60.4408   28.9561   43.4724 H   0  0  0  0  0  0  0  0  0  0  0  0
   60.9381   29.3993   45.1393 H   0  0  0  0  0  0  0  0  0  0  0  0
   60.6496   26.9232   44.8163 H   0  0  0  0  0  0  0  0  0  0  0  0
   59.5473   27.6249   46.0730 H   0  0  0  0  0  0  0  0  0  0  0  0
  1  2  1  0
  2  3  2  0
  3  4  1  0
  4  5  2  0
  5  6  1  0
  6  7  2  0
  7  8  1  0
  8  9  2  0
  9 10  1  0
 10 11  1  0
 11 12  1  0
 12 13  1  0
 13 14  1  0
 14 15  1  0
 15 16  2  0
 15 17  1  0
 17 18  1  0
 18 19  1  0
 19 20  1  0
 20 21  1  0
 21 22  1  0
 22 23  2  0
 23 24  1  0
 24 25  2  0
 25 26  1  0
 26 27  2  0
 20 28  1  0
 28 29  1  0
 14 30  1  0
 30 31  1  0
 10  2  1  0
 31 11  1  0
  9  4  1  0
 29 17  1  0
 27 22  1  0
  1 32  1  0
  1 33  1  0
  1 34  1  0
  5 35  1  0
  6 36  1  0
  7 37  1  0
  8 38  1  0
 11 39  1  0
 12 40  1  0
 12 41  1  0
 13 42  1  0
 13 43  1  0
 17 44  1  0
 18 45  1  0
 18 46  1  0
 19 47  1  0
 19 48  1  0
 21 49  1  0
 21 50  1  0
 23 51  1  0
 24 52  1  0
 25 53  1  0
 26 54  1  0
 28 55  1  0
 28 56  1  0
 29 57  1  0
 29 58  1  0
 30 59  1  0
 30 60  1  0
 31 61  1  0
 31 62  1  0
M  END
>  <UniqueID>  (12) 
12

>  <SMILES>  (12) 
Cc1nc2ccccc2n1C1CCN(C(=O)C2CCN(Cc3ccccn3)CC2)CC1

>  <Energy>  (12) 
120.60137042796563

>  <Genealogy>  (12) 
Cc1nc2ccccc2n1C1CCN(C(=O)C2CCN(Cc3ccccn3)CC2)CC1 (3D coordinates assigned)
Cc1nc2ccccc2n1C1CCN(C(=O)C2CCN(Cc3ccccn3)CC2)CC1 (nonaromatic ring conformer: 120.60137042796563 kcal/mol)

>  <smiles>  (12) 
Cc1nc2ccccc2n1C1CCN(C(=O)C2CCN(Cc3ccccn3)CC2)CC1

>  <score_type>  (12) 
oracle

>  <origin>  (12) 
adg

>  <m_score__min__energy>  (12) 
-9.5700000000000003

>  <m_primary>  (12) 
energy

$$$$
12:0
     RDKit          3D

 39 41  0  0  0  0  0  0  0  0999 V2000
   53.9460   24.1960   45.6380 C   0  0  0  0  0  0  0  0  0  0  0  0
   55.1440   24.6870   46.3360 N   0  0  0  0  0  0  0  0  0  0  0  0
   55.6230   23.7100   47.3270 C   0  0  0  0  0  0  0  0  0  0  0  0
   56.2060   25.1370   45.4080 C   0  0  0  0  0  0  0  0  0  0  0  0
   57.1250   26.2370   45.9790 C   0  0  0  0  0  0  0  0  0  0  0  0
   57.1050   27.4160   45.1120 N   0  0  0  0  0  0  0  0  0  0  0  0
   57.6410   28.7050   45.4700 C   0  0  0  0  0  0  0  0  0  0  0  0
   58.3850   28.9050   46.6640 C   0  0  0  0  0  0  0  0  0  0  0  0
   58.8920   30.1730   46.9890 C   0  0  0  0  0  0  0  0  0  0  0  0
   58.6450   31.2280   46.1140 C   0  0  0  0  0  0  0  0  0  0  0  0
   57.9200   31.0520   44.9520 C   0  0  0  0  0  0  0  0  0  0  0  0
   57.4080   29.8010   44.6110 C   0  0  0  0  0  0  0  0  0  0  0  0
   57.7910   32.3370   44.1830 C   0  0  0  0  0  0  0  0  0  0  0  0
   58.5500   33.2710   45.0810 C   0  0  0  0  0  0  0  0  0  0  0  0
   58.7820   34.6350   44.8940 C   0  0  0  0  0  0  0  0  0  0  0  0
   59.5240   35.3290   45.8650 C   0  0  0  0  0  0  0  0  0  0  0  0
   60.0200   34.6570   46.9990 C   0  0  0  0  0  0  0  0  0  0  0  0
   59.7800   33.2850   47.1730 C   0  0  0  0  0  0  0  0  0  0  0  0
   59.0400   32.6170   46.1970 C   0  0  0  0  0  0  0  0  0  0  0  0
   53.1920   23.8870   46.3769 H   0  0  0  0  0  0  0  0  0  0  0  0
   53.5344   24.9980   45.0076 H   0  0  0  0  0  0  0  0  0  0  0  0
   54.2157   23.3359   45.0076 H   0  0  0  0  0  0  0  0  0  0  0  0
   55.4349   24.0936   48.3406 H   0  0  0  0  0  0  0  0  0  0  0  0
   55.0896   22.7577   47.1905 H   0  0  0  0  0  0  0  0  0  0  0  0
   56.7025   23.5485   47.1905 H   0  0  0  0  0  0  0  0  0  0  0  0
   56.8287   24.2678   45.1498 H   0  0  0  0  0  0  0  0  0  0  0  0
   55.6975   25.5733   44.5357 H   0  0  0  0  0  0  0  0  0  0  0  0
   56.7737   26.5186   46.9826 H   0  0  0  0  0  0  0  0  0  0  0  0
   58.1535   25.8509   46.0344 H   0  0  0  0  0  0  0  0  0  0  0  0
   56.6480   27.3100   44.1780 H   0  0  0  0  0  0  0  0  0  0  0  0
   58.5656   28.0570   47.3410 H   0  0  0  0  0  0  0  0  0  0  0  0
   59.4700   30.3295   47.9118 H   0  0  0  0  0  0  0  0  0  0  0  0
   56.8298   29.6695   43.6845 H   0  0  0  0  0  0  0  0  0  0  0  0
   58.2551   32.2633   43.1884 H   0  0  0  0  0  0  0  0  0  0  0  0
   56.7556   32.6435   43.9730 H   0  0  0  0  0  0  0  0  0  0  0  0
   58.3926   35.1549   44.0063 H   0  0  0  0  0  0  0  0  0  0  0  0
   59.7187   36.4042   45.7385 H   0  0  0  0  0  0  0  0  0  0  0  0
   60.5989   35.2107   47.7529 H   0  0  0  0  0  0  0  0  0  0  0  0
   60.1647   32.7513   48.0545 H   0  0  0  0  0  0  0  0  0  0  0  0
  1  2  1  0
  2  3  1  0
  2  4  1  0
  4  5  1  0
  5  6  1  0
  6  7  1  0
  7  8  2  0
  8  9  1  0
  9 10  2  0
 10 11  1  0
 11 12  2  0
 11 13  1  0
 13 14  1  0
 14 15  2  0
 15 16  1  0
 16 17  2  0
 17 18  1  0
 18 19  2  0
 12  7  1  0
 19 14  1  0
 19 10  1  0
  1 20  1  0
  1 21  1  0
  1 22  1  0
  3 23  1  0
  3 24  1  0
  3 25  1  0
  4 26  1  0
  4 27  1  0
  5 28  1  0
  5 29  1  0
  6 30  1  0
  8 31  1  0
  9 32  1  0
 12 33  1  0
 13 34  1  0
 13 35  1  0
 15 36  1  0
 16 37  1  0
 17 38  1  0
 18 39  1  0
M  END
>  <UniqueID>  (13) 
13

>  <SMILES>  (13) 
CN(C)CCNc1ccc2c(c1)Cc1ccccc1-2

>  <Energy>  (13) 
63.796531070599784

>  <Genealogy>  (13) 
CN(C)CCNc1ccc2c(c1)Cc1ccccc1-2 (3D coordinates assigned)
CN(C)CCNc1ccc2c(c1)Cc1ccccc1-2 (nonaromatic ring conformer: 63.796531070599784 kcal/mol)

>  <smiles>  (13) 
CN(C)CCNc1ccc2c(c1)Cc1ccccc1-2

>  <score_type>  (13) 
oracle

>  <origin>  (13) 
adg

>  <m_score__min__energy>  (13) 
-7

>  <m_primary>  (13) 
energy

$$$$
13:0
     RDKit          3D

 50 52  0  0  0  0  0  0  0  0999 V2000
   57.5700   22.4250   44.1270 C   0  0  0  0  0  0  0  0  0  0  0  0
   57.5260   23.5770   45.1280 C   0  0  0  0  0  0  0  0  0  0  0  0
   56.3720   24.4490   44.8950 N   0  0  0  0  0  0  0  0  0  0  0  0
   56.1950   25.6600   46.1360 S   0  0  0  0  0  0  0  0  0  0  0  0
   54.8650   26.3460   45.9880 O   0  0  0  0  0  0  0  0  0  0  0  0
   56.2210   24.9810   47.4770 O   0  0  0  0  0  0  0  0  0  0  0  0
   57.4940   26.8520   46.0820 C   0  0  0  0  0  0  0  0  0  0  0  0
   58.7570   26.5390   46.6020 C   0  0  0  0  0  0  0  0  0  0  0  0
   59.7990   27.4650   46.5140 C   0  0  0  0  0  0  0  0  0  0  0  0
   59.5860   28.7060   45.9060 C   0  0  0  0  0  0  0  0  0  0  0  0
   58.3250   29.0390   45.3980 C   0  0  0  0  0  0  0  0  0  0  0  0
   58.1560   30.2960   44.7280 N   0  0  0  0  0  0  0  0  0  0  0  0
   57.0140   31.1510   44.8390 C   0  0  0  0  0  0  0  0  0  0  0  0
   55.8640   30.7330   44.5350 O   0  0  0  0  0  0  0  0  0  0  0  0
   57.1880   32.5510   45.3320 C   0  0  0  0  0  0  0  0  0  0  0  0
   58.5670   32.7600   45.7730 N   0  0  0  0  0  0  0  0  0  0  0  0
   59.4070   33.8530   45.4390 C   0  0  0  0  0  0  0  0  0  0  0  0
   59.1740   34.6510   44.4910 O   0  0  0  0  0  0  0  0  0  0  0  0
   60.5280   33.9780   46.3000 N   0  0  0  0  0  0  0  0  0  0  0  0
   60.4400   32.9350   47.3270 C   0  0  0  0  0  0  0  0  0  0  0  0
   60.3160   33.5610   48.7330 C   0  0  0  0  0  0  0  0  0  0  0  0
   61.6300   34.2150   49.1830 C   0  0  0  0  0  0  0  0  0  0  0  0
   62.7950   33.2200   49.1130 C   0  0  0  0  0  0  0  0  0  0  0  0
   62.9450   32.6450   47.7010 C   0  0  0  0  0  0  0  0  0  0  0  0
   61.6440   31.9730   47.2360 C   0  0  0  0  0  0  0  0  0  0  0  0
   59.1640   32.2230   46.9480 C   0  0  0  0  0  0  0  0  0  0  0  0
   58.6650   31.2640   47.5970 O   0  0  0  0  0  0  0  0  0  0  0  0
   57.2810   28.1000   45.4780 C   0  0  0  0  0  0  0  0  0  0  0  0
   57.6065   21.4689   44.6697 H   0  0  0  0  0  0  0  0  0  0  0  0
   56.6701   22.4538   43.4951 H   0  0  0  0  0  0  0  0  0  0  0  0
   58.4651   22.5223   43.4951 H   0  0  0  0  0  0  0  0  0  0  0  0
   57.4618   23.1638   46.1454 H   0  0  0  0  0  0  0  0  0  0  0  0
   58.4406   24.1756   45.0046 H   0  0  0  0  0  0  0  0  0  0  0  0
   58.9280   25.5631   47.0800 H   0  0  0  0  0  0  0  0  0  0  0  0
   60.7893   27.2174   46.9239 H   0  0  0  0  0  0  0  0  0  0  0  0
   60.4146   29.4251   45.8264 H   0  0  0  0  0  0  0  0  0  0  0  0
   56.9552   33.2547   44.5192 H   0  0  0  0  0  0  0  0  0  0  0  0
   56.5086   32.7215   46.1802 H   0  0  0  0  0  0  0  0  0  0  0  0
   61.2660   34.7120   46.2210 H   0  0  0  0  0  0  0  0  0  0  0  0
   59.5257   34.3259   48.7139 H   0  0  0  0  0  0  0  0  0  0  0  0
   60.0719   32.7585   49.4446 H   0  0  0  0  0  0  0  0  0  0  0  0
   61.8485   35.0705   48.5270 H   0  0  0  0  0  0  0  0  0  0  0  0
   61.5159   34.5462   50.2257 H   0  0  0  0  0  0  0  0  0  0  0  0
   63.7256   33.7362   49.3914 H   0  0  0  0  0  0  0  0  0  0  0  0
   62.5896   32.3920   49.8074 H   0  0  0  0  0  0  0  0  0  0  0  0
   63.1966   33.4598   47.0062 H   0  0  0  0  0  0  0  0  0  0  0  0
   63.7433   31.8883   47.7150 H   0  0  0  0  0  0  0  0  0  0  0  0
   61.7635   31.6494   46.1915 H   0  0  0  0  0  0  0  0  0  0  0  0
   61.4473   31.1143   47.8948 H   0  0  0  0  0  0  0  0  0  0  0  0
   56.2917   28.3457   45.0645 H   0  0  0  0  0  0  0  0  0  0  0  0
  1  2  1  0
  2  3  1  0
  3  4  1  0
  4  5  2  0
  4  6  2  0
  4  7  1  0
  7  8  2  0
  8  9  1  0
  9 10  2  0
 10 11  1  0
 11 12  1  0
 12 13  1  0
 13 14  2  0
 13 15  1  0
 15 16  1  0
 16 17  1  0
 17 18  2  0
 17 19  1  0
 19 20  1  0
 20 21  1  0
 21 22  1  0
 22 23  1  0
 23 24  1  0
 24 25  1  0
 20 26  1  0
 26 27  2  0
 11 28  2  0
 28  7  1  0
 26 16  1  0
 25 20  1  0
  1 29  1  0
  1 30  1  0
  1 31  1  0
  2 32  1  0
  2 33  1  0
  8 34  1  0
  9 35  1  0
 10 36  1  0
 15 37  1  0
 15 38  1  0
 19 39  1  0
 21 40  1  0
 21 41  1  0
 22 42  1  0
 22 43  1  0
 23 44  1  0
 23 45  1  0
 24 46  1  0
 24 47  1  0
 25 48  1  0
 25 49  1  0
 28 50  1  0
M  CHG  2   3  -1  12  -1
M  END
>  <UniqueID>  (14) 
14

>  <SMILES>  (14) 
CC[N-]S(=O)(=O)c1cccc([N-]C(=O)CN2C(=O)NC3(CCCCC3)C2=O)c1

>  <Energy>  (14) 
61.44259957399233

>  <Genealogy>  (14) 
CC[N-]S(=O)(=O)c1cccc([N-]C(=O)CN2C(=O)NC3(CCCCC3)C2=O)c1 (protonated)
CC[N-]S(=O)(=O)c1cccc([N-]C(=O)CN2C(=O)NC3(CCCCC3)C2=O)c1 (3D coordinates assigned)
CC[N-]S(=O)(=O)c1cccc([N-]C(=O)CN2C(=O)NC3(CCCCC3)C2=O)c1 (nonaromatic ring conformer: 61.44259957399233 kcal/mol)

>  <smiles>  (14) 
CCNS(=O)(=O)c1cccc(NC(=O)CN2C(=O)NC3(CCCCC3)C2=O)c1

>  <score_type>  (14) 
oracle

>  <origin>  (14) 
adg

>  <m_score__min__energy>  (14) 
-12.289999999999999

>  <m_primary>  (14) 
energy

$$$$
14:0
     RDKit          3D

 50 54  0  0  0  0  0  0  0  0999 V2000
   58.0790   32.7060   43.0730 C   0  0  0  0  0  0  0  0  0  0  0  0
   58.4030   32.9490   44.5170 C   0  0  0  0  0  0  0  0  0  0  0  0
   57.8180   32.1580   45.5140 C   0  0  0  0  0  0  0  0  0  0  0  0
   58.0700   32.4250   46.8630 C   0  0  0  0  0  0  0  0  0  0  0  0
   58.9020   33.4870   47.2380 C   0  0  0  0  0  0  0  0  0  0  0  0
   59.1120   33.7010   48.6090 O   0  0  0  0  0  0  0  0  0  0  0  0
   58.9270   32.7450   49.6550 C   0  0  0  0  0  0  0  0  0  0  0  0
   60.1100   31.7700   49.7340 C   0  0  0  0  0  0  0  0  0  0  0  0
   60.2100   30.9110   48.5300 N   0  0  0  0  0  0  0  0  0  0  0  0
   61.1730   31.1080   47.5580 C   0  0  0  0  0  0  0  0  0  0  0  0
   62.2920   32.0680   47.7050 C   0  0  0  0  0  0  0  0  0  0  0  0
   62.4650   33.1710   46.8620 C   0  0  0  0  0  0  0  0  0  0  0  0
   63.7680   34.0940   47.4110 S   0  0  0  0  0  0  0  0  0  0  0  0
   64.0950   33.1290   48.7430 C   0  0  0  0  0  0  0  0  0  0  0  0
   65.0750   33.3120   49.7140 C   0  0  0  0  0  0  0  0  0  0  0  0
   65.1410   32.3930   50.7710 C   0  0  0  0  0  0  0  0  0  0  0  0
   64.2280   31.3240   50.8400 C   0  0  0  0  0  0  0  0  0  0  0  0
   63.2460   31.1610   49.8490 C   0  0  0  0  0  0  0  0  0  0  0  0
   63.1950   32.0740   48.7860 C   0  0  0  0  0  0  0  0  0  0  0  0
   61.1470   30.3730   46.4160 N   0  0  0  0  0  0  0  0  0  0  0  0
   60.2100   29.4240   46.1930 C   0  0  0  0  0  0  0  0  0  0  0  0
   60.2160   28.7040   44.9930 C   0  0  0  0  0  0  0  0  0  0  0  0
   59.2560   27.7140   44.7690 C   0  0  0  0  0  0  0  0  0  0  0  0
   58.2910   27.4400   45.7420 C   0  0  0  0  0  0  0  0  0  0  0  0
   58.2820   28.1550   46.9440 C   0  0  0  0  0  0  0  0  0  0  0  0
   59.2450   29.1570   47.1760 C   0  0  0  0  0  0  0  0  0  0  0  0
   59.2710   29.9160   48.3580 C   0  0  0  0  0  0  0  0  0  0  0  0
   58.4140   29.6890   49.2580 O   0  0  0  0  0  0  0  0  0  0  0  0
   59.4910   34.2810   46.2330 C   0  0  0  0  0  0  0  0  0  0  0  0
   59.2310   34.0190   44.8850 C   0  0  0  0  0  0  0  0  0  0  0  0
   57.2009   32.0475   43.0000 H   0  0  0  0  0  0  0  0  0  0  0  0
   57.8603   33.6647   42.5799 H   0  0  0  0  0  0  0  0  0  0  0  0
   58.9381   32.2276   42.5799 H   0  0  0  0  0  0  0  0  0  0  0  0
   57.1579   31.3237   45.2346 H   0  0  0  0  0  0  0  0  0  0  0  0
   57.6099   31.7942   47.6379 H   0  0  0  0  0  0  0  0  0  0  0  0
   58.8355   33.2761   50.6140 H   0  0  0  0  0  0  0  0  0  0  0  0
   58.0150   32.1683   49.4414 H   0  0  0  0  0  0  0  0  0  0  0  0
   61.0399   32.3489   49.8342 H   0  0  0  0  0  0  0  0  0  0  0  0
   59.9500   31.1152   50.6033 H   0  0  0  0  0  0  0  0  0  0  0  0
   61.8490   33.4009   45.9801 H   0  0  0  0  0  0  0  0  0  0  0  0
   65.7790   34.1551   49.6539 H   0  0  0  0  0  0  0  0  0  0  0  0
   65.9095   32.5080   51.5495 H   0  0  0  0  0  0  0  0  0  0  0  0
   64.2839   30.6112   51.6759 H   0  0  0  0  0  0  0  0  0  0  0  0
   62.5279   30.3297   49.9060 H   0  0  0  0  0  0  0  0  0  0  0  0
   60.9759   28.9173   44.2268 H   0  0  0  0  0  0  0  0  0  0  0  0
   59.2597   27.1492   43.8251 H   0  0  0  0  0  0  0  0  0  0  0  0
   57.5366   26.6600   45.5620 H   0  0  0  0  0  0  0  0  0  0  0  0
   57.5226   27.9349   47.7088 H   0  0  0  0  0  0  0  0  0  0  0  0
   60.1581   35.1103   46.5110 H   0  0  0  0  0  0  0  0  0  0  0  0
   59.6787   34.6561   44.1080 H   0  0  0  0  0  0  0  0  0  0  0  0
  1  2  1  0
  2  3  2  0
  3  4  1  0
  4  5  2  0
  5  6  1  0
  6  7  1  0
  7  8  1  0
  8  9  1  0
  9 10  1  0
 10 11  1  0
 11 12  2  0
 12 13  1  0
 13 14  1  0
 14 15  2  0
 15 16  1  0
 16 17  2  0
 17 18  1  0
 18 19  2  0
 10 20  2  0
 20 21  1  0
 21 22  2  0
 22 23  1  0
 23 24  2  0
 24 25  1  0
 25 26  2  0
 26 27  1  0
 27 28  2  0
  5 29  1  0
 29 30  2  0
 30  2  1  0
 27  9  1  0
 19 11  1  0
 26 21  1  0
 19 14  1  0
  1 31  1  0
  1 32  1  0
  1 33  1  0
  3 34  1  0
  4 35  1  0
  7 36  1  0
  7 37  1  0
  8 38  1  0
  8 39  1  0
 12 40  1  0
 15 41  1  0
 16 42  1  0
 17 43  1  0
 18 44  1  0
 22 45  1  0
 23 46  1  0
 24 47  1  0
 25 48  1  0
 29 49  1  0
 30 50  1  0
M  END
>  <UniqueID>  (15) 
15

>  <SMILES>  (15) 
Cc1ccc(OCCn2c(-c3csc4ccccc34)nc3ccccc3c2=O)cc1

>  <Energy>  (15) 
98.01864391255367

>  <Genealogy>  (15) 
Cc1ccc(OCCn2c(-c3csc4ccccc34)nc3ccccc3c2=O)cc1 (3D coordinates assigned)
Cc1ccc(OCCn2c(-c3csc4ccccc34)nc3ccccc3c2=O)cc1 (optimized conformer: 98.01864391255367 kcal/mol)

>  <smiles>  (15) 
Cc1ccc(OCCn2c(-c3csc4ccccc34)nc3ccccc3c2=O)cc1

>  <score_type>  (15) 
oracle

>  <origin>  (15) 
adg

>  <m_score__min__energy>  (15) 
-8.6899999999999995

>  <m_primary>  (15) 
energy

$$$$
15:0
     RDKit          3D

 58 61  0  0  0  0  0  0  0  0999 V2000
   50.4360   32.9630   54.1850 C   0  0  0  0  0  0  0  0  0  0  0  0
   50.6540   31.6220   53.7590 O   0  0  0  0  0  0  0  0  0  0  0  0
   51.7440   31.2030   52.9790 C   0  0  0  0  0  0  0  0  0  0  0  0
   52.6610   30.2310   53.4280 C   0  0  0  0  0  0  0  0  0  0  0  0
   53.7250   29.8150   52.6080 C   0  0  0  0  0  0  0  0  0  0  0  0
   54.7050   28.7640   53.1010 C   0  0  0  0  0  0  0  0  0  0  0  0
   56.0440   29.2930   53.4720 N   0  0  0  0  0  0  0  0  0  0  0  0
   57.0710   29.0210   52.4330 C   0  0  0  0  0  0  0  0  0  0  0  0
   58.3270   29.8760   52.6590 C   0  0  0  0  0  0  0  0  0  0  0  0
   58.0340   31.3350   52.6050 N   0  0  0  0  0  0  0  0  0  0  0  0
   58.4720   31.9450   51.3330 C   0  0  0  0  0  0  0  0  0  0  0  0
   59.2120   30.9360   50.4950 C   0  0  0  0  0  0  0  0  0  0  0  0
   60.5640   30.6500   50.7440 C   0  0  0  0  0  0  0  0  0  0  0  0
   61.2460   29.7260   49.9470 C   0  0  0  0  0  0  0  0  0  0  0  0
   60.5840   29.0770   48.9020 C   0  0  0  0  0  0  0  0  0  0  0  0
   59.2250   29.3410   48.6530 C   0  0  0  0  0  0  0  0  0  0  0  0
   58.5310   28.7290   47.5990 O   0  0  0  0  0  0  0  0  0  0  0  0
   58.1430   29.3540   46.4050 C   0  0  0  0  0  0  0  0  0  0  0  0
   57.3150   28.7130   45.4630 C   0  0  0  0  0  0  0  0  0  0  0  0
   56.9340   29.3770   44.2940 C   0  0  0  0  0  0  0  0  0  0  0  0
   57.3640   30.6870   44.0580 C   0  0  0  0  0  0  0  0  0  0  0  0
   58.1690   31.3370   44.9990 C   0  0  0  0  0  0  0  0  0  0  0  0
   58.5500   30.6750   46.1710 C   0  0  0  0  0  0  0  0  0  0  0  0
   58.5510   30.2800   49.4440 C   0  0  0  0  0  0  0  0  0  0  0  0
   56.6150   31.6620   52.8750 C   0  0  0  0  0  0  0  0  0  0  0  0
   56.0170   30.7120   53.9210 C   0  0  0  0  0  0  0  0  0  0  0  0
   53.8990   30.4260   51.3560 C   0  0  0  0  0  0  0  0  0  0  0  0
   52.9960   31.3920   50.9090 C   0  0  0  0  0  0  0  0  0  0  0  0
   51.9210   31.7750   51.7140 C   0  0  0  0  0  0  0  0  0  0  0  0
   51.0280   32.7340   51.2540 O   0  0  0  0  0  0  0  0  0  0  0  0
   50.4297   33.0021   55.2843 H   0  0  0  0  0  0  0  0  0  0  0  0
   51.2415   33.6056   53.7999 H   0  0  0  0  0  0  0  0  0  0  0  0
   49.4685   33.3174   53.7999 H   0  0  0  0  0  0  0  0  0  0  0  0
   52.5430   29.7934   54.4303 H   0  0  0  0  0  0  0  0  0  0  0  0
   54.2703   28.2781   53.9870 H   0  0  0  0  0  0  0  0  0  0  0  0
   54.8651   28.0692   52.2634 H   0  0  0  0  0  0  0  0  0  0  0  0
   56.3340   28.7310   54.3100 H   0  0  0  0  0  0  0  0  0  0  0  0
   57.3487   27.9574   52.4723 H   0  0  0  0  0  0  0  0  0  0  0  0
   56.6484   29.2744   51.4495 H   0  0  0  0  0  0  0  0  0  0  0  0
   58.7456   29.6355   53.6474 H   0  0  0  0  0  0  0  0  0  0  0  0
   59.0405   29.6458   51.8540 H   0  0  0  0  0  0  0  0  0  0  0  0
   57.5907   32.3001   50.7788 H   0  0  0  0  0  0  0  0  0  0  0  0
   59.1440   32.7875   51.5537 H   0  0  0  0  0  0  0  0  0  0  0  0
   61.0882   31.1547   51.5689 H   0  0  0  0  0  0  0  0  0  0  0  0
   62.3065   29.5094   50.1432 H   0  0  0  0  0  0  0  0  0  0  0  0
   61.1272   28.3573   48.2719 H   0  0  0  0  0  0  0  0  0  0  0  0
   56.9670   27.6861   45.6482 H   0  0  0  0  0  0  0  0  0  0  0  0
   56.2944   28.8684   43.5576 H   0  0  0  0  0  0  0  0  0  0  0  0
   57.0694   31.2052   43.1335 H   0  0  0  0  0  0  0  0  0  0  0  0
   58.5027   32.3693   44.8175 H   0  0  0  0  0  0  0  0  0  0  0  0
   59.1731   31.1944   46.9139 H   0  0  0  0  0  0  0  0  0  0  0  0
   57.4939   30.5057   49.2400 H   0  0  0  0  0  0  0  0  0  0  0  0
   56.5494   32.6945   53.2487 H   0  0  0  0  0  0  0  0  0  0  0  0
   56.0476   31.5519   51.9391 H   0  0  0  0  0  0  0  0  0  0  0  0
   56.5963   30.8001   54.8520 H   0  0  0  0  0  0  0  0  0  0  0  0
   54.9660   30.9976   54.0751 H   0  0  0  0  0  0  0  0  0  0  0  0
   54.7526   30.1416   50.7231 H   0  0  0  0  0  0  0  0  0  0  0  0
   53.1315   31.8531   49.9195 H   0  0  0  0  0  0  0  0  0  0  0  0
  1  2  1  0
  2  3  1  0
  3  4  2  0
  4  5  1  0
  5  6  1  0
  6  7  1  0
  7  8  1  0
  8  9  1  0
  9 10  1  0
 10 11  1  0
 11 12  1  0
 12 13  2  0
 13 14  1  0
 14 15  2  0
 15 16  1  0
 16 17  1  0
 17 18  1  0
 18 19  2  0
 19 20  1  0
 20 21  2  0
 21 22  1  0
 22 23  2  0
 16 24  2  0
 10 25  1  0
 25 26  1  0
  5 27  2  0
 27 28  1  0
 28 29  2  0
 29 30  1  0
 29  3  1  0
 26  7  1  0
 24 12  1  0
 23 18  1  0
  1 31  1  0
  1 32  1  0
  1 33  1  0
  4 34  1  0
  6 35  1  0
  6 36  1  0
  7 37  1  0
  8 38  1  0
  8 39  1  0
  9 40  1  0
  9 41  1  0
 11 42  1  0
 11 43  1  0
 13 44  1  0
 14 45  1  0
 15 46  1  0
 19 47  1  0
 20 48  1  0
 21 49  1  0
 22 50  1  0
 23 51  1  0
 24 52  1  0
 25 53  1  0
 25 54  1  0
 26 55  1  0
 26 56  1  0
 27 57  1  0
 28 58  1  0
M  CHG  2   7   1  30  -1
M  END
>  <UniqueID>  (16) 
16

>  <SMILES>  (16) 
COc1cc(C[NH+]2CCN(Cc3cccc(Oc4ccccc4)c3)CC2)ccc1[O-]

>  <Energy>  (16) 
83.2070564781305

>  <Genealogy>  (16) 
COc1cc(C[NH+]2CCN(Cc3cccc(Oc4ccccc4)c3)CC2)ccc1[O-] (protonated)
COc1cc(C[NH+]2CCN(Cc3cccc(Oc4ccccc4)c3)CC2)ccc1[O-] (3D coordinates assigned)
COc1cc(C[NH+]2CCN(Cc3cccc(Oc4ccccc4)c3)CC2)ccc1[O-] (nonaromatic ring conformer: 83.2070564781305 kcal/mol)

>  <smiles>  (16) 
COc1cc(CN2CCN(Cc3cccc(Oc4ccccc4)c3)CC2)ccc1O

>  <score_type>  (16) 
oracle

>  <origin>  (16) 
adg

>  <m_score__min__energy>  (16) 
-12.359999999999999

>  <m_primary>  (16) 
energy

$$$$
16:0
     RDKit          3D

 27 28  0  0  0  0  0  0  0  0999 V2000
   58.1893   30.3579   43.2841 H   0  0  0  0  0  0  0  0  0  0  0  0
   57.6800   30.5450   44.2410 C   0  0  0  0  0  0  0  0  0  0  0  0
   57.5650   29.4410   45.2140 C   0  0  0  0  0  0  0  0  0  0  0  0
   57.8040   29.6430   46.4370 O   0  0  0  0  0  0  0  0  0  0  0  0
   57.1370   28.1470   44.7660 N   0  0  0  0  0  0  0  0  0  0  0  0
   56.6490   28.0810   43.8430 H   0  0  0  0  0  0  0  0  0  0  0  0
   57.2070   26.9610   45.5700 C   0  0  0  0  0  0  0  0  0  0  0  0
   56.1070   26.3050   46.1180 C   0  0  0  0  0  0  0  0  0  0  0  0
   54.7770   26.6830   45.9850 O   0  0  0  0  0  0  0  0  0  0  0  0
   56.6390   25.0030   47.0330 S   0  0  0  0  0  0  0  0  0  0  0  0
   58.2820   25.2640   46.7630 C   0  0  0  0  0  0  0  0  0  0  0  0
   59.1034   24.6504   47.1615 H   0  0  0  0  0  0  0  0  0  0  0  0
   58.4260   26.3850   45.9520 C   0  0  0  0  0  0  0  0  0  0  0  0
   59.4036   26.7815   45.6403 H   0  0  0  0  0  0  0  0  0  0  0  0
   57.1860   31.7670   44.4820 C   0  0  0  0  0  0  0  0  0  0  0  0
   56.1816   32.0043   44.1014 H   0  0  0  0  0  0  0  0  0  0  0  0
   57.9160   32.8190   45.2330 C   0  0  0  0  0  0  0  0  0  0  0  0
   58.5310   33.8570   44.5090 C   0  0  0  0  0  0  0  0  0  0  0  0
   58.4681   33.8680   43.4109 H   0  0  0  0  0  0  0  0  0  0  0  0
   59.2210   34.8740   45.1740 C   0  0  0  0  0  0  0  0  0  0  0  0
   59.7047   35.6765   44.5978 H   0  0  0  0  0  0  0  0  0  0  0  0
   59.2980   34.8740   46.5680 C   0  0  0  0  0  0  0  0  0  0  0  0
   59.8464   35.6725   47.0892 H   0  0  0  0  0  0  0  0  0  0  0  0
   58.6780   33.8590   47.3000 C   0  0  0  0  0  0  0  0  0  0  0  0
   58.7339   33.8631   48.3986 H   0  0  0  0  0  0  0  0  0  0  0  0
   57.9860   32.8370   46.6410 C   0  0  0  0  0  0  0  0  0  0  0  0
   57.4945   32.0442   47.2239 H   0  0  0  0  0  0  0  0  0  0  0  0
  1  2  1  0
  2  3  1  0
  3  4  2  0
  3  5  1  0
  5  6  1  0
  5  7  1  0
  7  8  2  0
  8  9  1  0
  8 10  1  0
 10 11  1  0
 11 12  1  0
 11 13  2  0
 13 14  1  0
  2 15  2  0
 15 16  1  0
 15 17  1  0
 17 18  2  0
 18 19  1  0
 18 20  1  0
 20 21  1  0
 20 22  2  0
 22 23  1  0
 22 24  1  0
 24 25  1  0
 24 26  2  0
 26 27  1  0
 13  7  1  0
 26 17  1  0
M  CHG  1   9  -1
M  END
>  <UniqueID>  (17) 
17

>  <SMILES>  (17) 
O=C(/C=C/c1ccccc1)Nc1ccsc1[O-]

>  <Energy>  (17) 
59.90407495699187

>  <Genealogy>  (17) 
O=C(C=Cc1ccccc1)Nc1ccsc1[O-] (protonated)
O=C(/C=C/c1ccccc1)Nc1ccsc1[O-] (cis-trans isomerization)
O=C(/C=C/c1ccccc1)Nc1ccsc1[O-] (3D coordinates assigned)
O=C(/C=C/c1ccccc1)Nc1ccsc1[O-] (optimized conformer: 59.90407495699187 kcal/mol)

>  <smiles>  (17) 
O=C(C=Cc1ccccc1)Nc1ccsc1O

>  <score_type>  (17) 
oracle

>  <origin>  (17) 
adg

>  <m_score__min__energy>  (17) 
-11.27

>  <m_primary>  (17) 
energy

$$$$
17:0
     RDKit          3D

 41 43  0  0  0  0  0  0  0  0999 V2000
   56.0540   29.8780   44.0780 C   0  0  0  0  0  0  0  0  0  0  0  0
   57.5080   29.4210   44.0390 C   0  0  0  0  0  0  0  0  0  0  0  0
   58.3090   30.1620   45.0170 N   0  0  0  0  0  0  0  0  0  0  0  0
   58.8400   29.5970   46.0920 N   0  0  0  0  0  0  0  0  0  0  0  0
   59.3680   30.5560   46.8790 C   0  0  0  0  0  0  0  0  0  0  0  0
   59.9930   30.2880   48.2120 C   0  0  0  0  0  0  0  0  0  0  0  0
   59.1790   31.7890   46.2700 C   0  0  0  0  0  0  0  0  0  0  0  0
   58.5020   31.5010   45.1000 C   0  0  0  0  0  0  0  0  0  0  0  0
   58.0740   32.4790   44.1290 N   0  0  0  0  0  0  0  0  0  0  0  0
   58.0720   32.1430   42.7050 C   0  0  0  0  0  0  0  0  0  0  0  0
   57.7470   33.8700   44.4920 C   0  0  0  0  0  0  0  0  0  0  0  0
   57.3600   34.0620   45.9680 C   0  0  0  0  0  0  0  0  0  0  0  0
   58.5460   34.0490   46.8280 N   0  0  0  0  0  0  0  0  0  0  0  0
   59.4770   33.1390   46.7960 C   0  0  0  0  0  0  0  0  0  0  0  0
   60.8360   33.4850   47.2760 C   0  0  0  0  0  0  0  0  0  0  0  0
   61.9250   33.5000   46.3840 C   0  0  0  0  0  0  0  0  0  0  0  0
   63.2090   33.8190   46.8380 C   0  0  0  0  0  0  0  0  0  0  0  0
   63.4210   34.1180   48.1860 C   0  0  0  0  0  0  0  0  0  0  0  0
   62.3520   34.0950   49.0830 C   0  0  0  0  0  0  0  0  0  0  0  0
   61.0660   33.7760   48.6350 C   0  0  0  0  0  0  0  0  0  0  0  0
   55.7296   29.9800   45.1241 H   0  0  0  0  0  0  0  0  0  0  0  0
   55.9610   30.8487   43.5690 H   0  0  0  0  0  0  0  0  0  0  0  0
   55.4224   29.1351   43.5690 H   0  0  0  0  0  0  0  0  0  0  0  0
   57.5556   28.3471   44.2724 H   0  0  0  0  0  0  0  0  0  0  0  0
   57.9121   29.6108   43.0336 H   0  0  0  0  0  0  0  0  0  0  0  0
   58.7980   28.5760   46.3100 H   0  0  0  0  0  0  0  0  0  0  0  0
   59.2971   30.5864   49.0099 H   0  0  0  0  0  0  0  0  0  0  0  0
   60.2167   29.2148   48.3030 H   0  0  0  0  0  0  0  0  0  0  0  0
   60.9246   30.8658   48.3030 H   0  0  0  0  0  0  0  0  0  0  0  0
   58.0655   31.0494   42.5863 H   0  0  0  0  0  0  0  0  0  0  0  0
   57.1764   32.5688   42.2290 H   0  0  0  0  0  0  0  0  0  0  0  0
   58.9726   32.5581   42.2290 H   0  0  0  0  0  0  0  0  0  0  0  0
   58.6258   34.4972   44.2814 H   0  0  0  0  0  0  0  0  0  0  0  0
   56.8678   34.1541   43.8952 H   0  0  0  0  0  0  0  0  0  0  0  0
   56.8437   35.0266   46.0819 H   0  0  0  0  0  0  0  0  0  0  0  0
   56.7007   33.2341   46.2679 H   0  0  0  0  0  0  0  0  0  0  0  0
   61.7651   33.2592   45.3227 H   0  0  0  0  0  0  0  0  0  0  0  0
   64.0529   33.8344   46.1326 H   0  0  0  0  0  0  0  0  0  0  0  0
   64.4309   34.3717   48.5406 H   0  0  0  0  0  0  0  0  0  0  0  0
   62.5212   34.3283   50.1446 H   0  0  0  0  0  0  0  0  0  0  0  0
   60.2290   33.7522   49.3483 H   0  0  0  0  0  0  0  0  0  0  0  0
  1  2  1  0
  2  3  1  0
  3  4  1  0
  4  5  2  0
  5  6  1  0
  5  7  1  0
  7  8  2  0
  8  9  1  0
  9 10  1  0
  9 11  1  0
 11 12  1  0
 12 13  1  0
 13 14  2  0
 14 15  1  0
 15 16  2  0
 16 17  1  0
 17 18  2  0
 18 19  1  0
 19 20  2  0
  8  3  1  0
 20 15  1  0
 14  7  1  0
  1 21  1  0
  1 22  1  0
  1 23  1  0
  2 24  1  0
  2 25  1  0
  4 26  1  0
  6 27  1  0
  6 28  1  0
  6 29  1  0
 10 30  1  0
 10 31  1  0
 10 32  1  0
 11 33  1  0
 11 34  1  0
 12 35  1  0
 12 36  1  0
 16 37  1  0
 17 38  1  0
 18 39  1  0
 19 40  1  0
 20 41  1  0
M  CHG  1   4   1
M  END
>  <UniqueID>  (18) 
18

>  <SMILES>  (18) 
CCn1[nH+]c(C)c2c1N(C)CCN=C2c1ccccc1

>  <Energy>  (18) 
83.66097072616058

>  <Genealogy>  (18) 
CCn1[nH+]c(C)c2c1N(C)CCN=C2c1ccccc1 (protonated)
CCn1[nH+]c(C)c2c1N(C)CCN=C2c1ccccc1 (3D coordinates assigned)
CCn1[nH+]c(C)c2c1N(C)CCN=C2c1ccccc1 (nonaromatic ring conformer: 83.66097072616058 kcal/mol)

>  <smiles>  (18) 
CCn1nc(C)c2c1N(C)CCN=C2c1ccccc1

>  <score_type>  (18) 
oracle

>  <origin>  (18) 
adg

>  <m_score__min__energy>  (18) 
-4.0300000000000002

>  <m_primary>  (18) 
energy

$$$$
18:0
     RDKit          3D

 48 50  0  0  0  0  0  0  0  0999 V2000
   62.1330   32.7360   47.1310 C   0  0  0  0  0  0  0  0  0  0  0  0
   61.5740   31.4890   47.8280 C   0  0  0  0  0  0  0  0  0  0  0  0
   60.1440   31.2540   47.4990 N   0  0  0  0  0  0  0  0  0  0  0  0
   59.5690   32.4870   46.9000 C   0  0  0  0  0  0  0  0  0  0  0  0
   58.1220   32.7400   47.3430 C   0  0  0  0  0  0  0  0  0  0  0  0
   59.3760   30.8230   48.7080 C   0  0  0  0  0  0  0  0  0  0  0  0
   59.2730   29.2880   48.7990 C   0  0  0  0  0  0  0  0  0  0  0  0
   60.3200   28.5830   47.9210 C   0  0  0  0  0  0  0  0  0  0  0  0
   59.8520   28.4000   46.5460 N   0  0  0  0  0  0  0  0  0  0  0  0
   58.6790   28.2800   45.9680 C   0  0  0  0  0  0  0  0  0  0  0  0
   57.9440   27.1050   46.2800 C   0  0  0  0  0  0  0  0  0  0  0  0
   58.5210   26.0310   46.9990 C   0  0  0  0  0  0  0  0  0  0  0  0
   57.7630   24.9040   47.3270 C   0  0  0  0  0  0  0  0  0  0  0  0
   56.4210   24.8290   46.9570 C   0  0  0  0  0  0  0  0  0  0  0  0
   55.8310   25.8800   46.2560 C   0  0  0  0  0  0  0  0  0  0  0  0
   56.5820   27.0110   45.9150 C   0  0  0  0  0  0  0  0  0  0  0  0
   55.9870   28.0250   45.2490 N   0  0  0  0  0  0  0  0  0  0  0  0
   56.6610   29.1310   44.8580 C   0  0  0  0  0  0  0  0  0  0  0  0
   55.9710   30.1080   44.1300 C   0  0  0  0  0  0  0  0  0  0  0  0
   56.6460   31.2130   43.6210 C   0  0  0  0  0  0  0  0  0  0  0  0
   58.0200   31.3290   43.8070 C   0  0  0  0  0  0  0  0  0  0  0  0
   58.7180   30.3650   44.5390 C   0  0  0  0  0  0  0  0  0  0  0  0
   58.0480   29.2780   45.1480 C   0  0  0  0  0  0  0  0  0  0  0  0
   62.4594   33.4640   47.8883 H   0  0  0  0  0  0  0  0  0  0  0  0
   62.9898   32.4517   46.5025 H   0  0  0  0  0  0  0  0  0  0  0  0
   61.3507   33.1865   46.5025 H   0  0  0  0  0  0  0  0  0  0  0  0
   62.1590   30.6135   47.5098 H   0  0  0  0  0  0  0  0  0  0  0  0
   61.6484   31.6479   48.9139 H   0  0  0  0  0  0  0  0  0  0  0  0
   60.1170   30.5120   46.7580 H   0  0  0  0  0  0  0  0  0  0  0  0
   60.1854   33.3462   47.2031 H   0  0  0  0  0  0  0  0  0  0  0  0
   59.5644   32.3554   45.8079 H   0  0  0  0  0  0  0  0  0  0  0  0
   58.0712   32.7489   48.4418 H   0  0  0  0  0  0  0  0  0  0  0  0
   57.7834   33.7110   46.9524 H   0  0  0  0  0  0  0  0  0  0  0  0
   57.4740   31.9415   46.9524 H   0  0  0  0  0  0  0  0  0  0  0  0
   59.8850   31.2003   49.6072 H   0  0  0  0  0  0  0  0  0  0  0  0
   58.3576   31.2316   48.6316 H   0  0  0  0  0  0  0  0  0  0  0  0
   59.4253   28.9841   49.8451 H   0  0  0  0  0  0  0  0  0  0  0  0
   58.2763   28.9943   48.4380 H   0  0  0  0  0  0  0  0  0  0  0  0
   61.2371   29.1903   47.9057 H   0  0  0  0  0  0  0  0  0  0  0  0
   60.5076   27.5878   48.3504 H   0  0  0  0  0  0  0  0  0  0  0  0
   59.5769   26.0841   47.3027 H   0  0  0  0  0  0  0  0  0  0  0  0
   58.2267   24.0732   47.8790 H   0  0  0  0  0  0  0  0  0  0  0  0
   55.8274   23.9405   47.2181 H   0  0  0  0  0  0  0  0  0  0  0  0
   54.7706   25.8201   45.9696 H   0  0  0  0  0  0  0  0  0  0  0  0
   54.8895   30.0013   43.9596 H   0  0  0  0  0  0  0  0  0  0  0  0
   56.0954   31.9921   43.0735 H   0  0  0  0  0  0  0  0  0  0  0  0
   58.5599   32.1846   43.3753 H   0  0  0  0  0  0  0  0  0  0  0  0
   59.8095   30.4530   44.6438 H   0  0  0  0  0  0  0  0  0  0  0  0
  1  2  1  0
  2  3  1  0
  3  4  1  0
  4  5  1  0
  3  6  1  0
  6  7  1  0
  7  8  1  0
  8  9  1  0
  9 10  2  3
 10 11  1  0
 11 12  2  0
 12 13  1  0
 13 14  2  0
 14 15  1  0
 15 16  2  0
 16 17  1  0
 17 18  1  0
 18 19  2  0
 19 20  1  0
 20 21  2  0
 21 22  1  0
 22 23  2  0
 23 10  1  0
 16 11  1  0
 23 18  1  0
  1 24  1  0
  1 25  1  0
  1 26  1  0
  2 27  1  0
  2 28  1  0
  3 29  1  0
  4 30  1  0
  4 31  1  0
  5 32  1  0
  5 33  1  0
  5 34  1  0
  6 35  1  0
  6 36  1  0
  7 37  1  0
  7 38  1  0
  8 39  1  0
  8 40  1  0
 12 41  1  0
 13 42  1  0
 14 43  1  0
 15 44  1  0
 19 45  1  0
 20 46  1  0
 21 47  1  0
 22 48  1  0
M  CHG  2   3   1  17  -1
M  END
>  <UniqueID>  (19) 
19

>  <SMILES>  (19) 
CC[NH+](CC)CCCN=c1c2ccccc2[n-]c2ccccc12

>  <Energy>  (19) 
74.4543279067849

>  <Genealogy>  (19) 
CC[NH+](CC)CCCN=c1c2ccccc2[n-]c2ccccc12 (protonated)
CC[NH+](CC)CCCN=c1c2ccccc2[n-]c2ccccc12 (3D coordinates assigned)
CC[NH+](CC)CCCN=c1c2ccccc2[n-]c2ccccc12 (optimized conformer: 74.4543279067849 kcal/mol)

>  <smiles>  (19) 
CCN(CC)CCCN=c1c2ccccc2[nH]c2ccccc12

>  <score_type>  (19) 
oracle

>  <origin>  (19) 
adg

>  <m_score__min__energy>  (19) 
-7.0899999999999999

>  <m_primary>  (19) 
energy

$$$$
19:0
     RDKit          3D

 44 46  0  0  0  0  0  0  0  0999 V2000
   60.2950   29.8460   46.7500 C   0  0  0  0  0  0  0  0  0  0  0  0
   59.1390   29.5030   47.6830 C   0  0  0  0  0  0  0  0  0  0  0  0
   58.3910   28.3290   47.1720 N   0  0  0  0  0  0  0  0  0  0  0  0
   59.0540   27.0640   47.5680 C   0  0  0  0  0  0  0  0  0  0  0  0
   58.5240   25.9030   46.7300 C   0  0  0  0  0  0  0  0  0  0  0  0
   58.2320   28.4050   45.7020 C   0  0  0  0  0  0  0  0  0  0  0  0
   56.8990   29.0090   45.3520 C   0  0  0  0  0  0  0  0  0  0  0  0
   55.8940   28.2620   45.2330 O   0  0  0  0  0  0  0  0  0  0  0  0
   56.7300   30.4270   45.2310 N   0  0  0  0  0  0  0  0  0  0  0  0
   57.1400   31.1920   44.0930 C   0  0  0  0  0  0  0  0  0  0  0  0
   56.6340   30.8610   42.8250 C   0  0  0  0  0  0  0  0  0  0  0  0
   57.0410   31.5690   41.6930 C   0  0  0  0  0  0  0  0  0  0  0  0
   57.9560   32.6130   41.8160 C   0  0  0  0  0  0  0  0  0  0  0  0
   58.4570   32.9620   43.0720 C   0  0  0  0  0  0  0  0  0  0  0  0
   58.0480   32.2690   44.2260 C   0  0  0  0  0  0  0  0  0  0  0  0
   58.6290   32.6550   45.5320 C   0  0  0  0  0  0  0  0  0  0  0  0
   59.9200   33.0560   45.6680 N   0  0  0  0  0  0  0  0  0  0  0  0
   60.2060   33.3720   46.9570 C   0  0  0  0  0  0  0  0  0  0  0  0
   61.4570   33.7970   47.4050 C   0  0  0  0  0  0  0  0  0  0  0  0
   61.6230   34.0870   48.7700 C   0  0  0  0  0  0  0  0  0  0  0  0
   60.5440   33.9500   49.6650 C   0  0  0  0  0  0  0  0  0  0  0  0
   59.2890   33.5190   49.2040 C   0  0  0  0  0  0  0  0  0  0  0  0
   59.1530   33.2360   47.8470 C   0  0  0  0  0  0  0  0  0  0  0  0
   57.8010   32.7020   47.0150 S   0  0  0  0  0  0  0  0  0  0  0  0
   61.1814   30.1090   47.3458 H   0  0  0  0  0  0  0  0  0  0  0  0
   60.5243   28.9772   46.1155 H   0  0  0  0  0  0  0  0  0  0  0  0
   60.0133   30.6993   46.1155 H   0  0  0  0  0  0  0  0  0  0  0  0
   59.5365   29.2722   48.6824 H   0  0  0  0  0  0  0  0  0  0  0  0
   58.4568   30.3643   47.7363 H   0  0  0  0  0  0  0  0  0  0  0  0
   60.1388   27.1586   47.4120 H   0  0  0  0  0  0  0  0  0  0  0  0
   58.8417   26.8657   48.6289 H   0  0  0  0  0  0  0  0  0  0  0  0
   58.1603   25.1064   47.3957 H   0  0  0  0  0  0  0  0  0  0  0  0
   57.6979   26.2561   46.0953 H   0  0  0  0  0  0  0  0  0  0  0  0
   59.3319   25.5101   46.0953 H   0  0  0  0  0  0  0  0  0  0  0  0
   59.0347   29.0288   45.2819 H   0  0  0  0  0  0  0  0  0  0  0  0
   58.2860   27.3893   45.2830 H   0  0  0  0  0  0  0  0  0  0  0  0
   55.9116   30.0377   42.7234 H   0  0  0  0  0  0  0  0  0  0  0  0
   56.6396   31.3030   40.7040 H   0  0  0  0  0  0  0  0  0  0  0  0
   58.2843   33.1633   40.9219 H   0  0  0  0  0  0  0  0  0  0  0  0
   59.1789   33.7873   43.1599 H   0  0  0  0  0  0  0  0  0  0  0  0
   62.2974   33.9031   46.7032 H   0  0  0  0  0  0  0  0  0  0  0  0
   62.6021   34.4232   49.1420 H   0  0  0  0  0  0  0  0  0  0  0  0
   60.6849   34.1818   50.7310 H   0  0  0  0  0  0  0  0  0  0  0  0
   58.4394   33.4083   49.8938 H   0  0  0  0  0  0  0  0  0  0  0  0
  1  2  1  0
  2  3  1  0
  3  4  1  0
  4  5  1  0
  3  6  1  0
  6  7  1  0
  7  8  2  0
  7  9  1  0
  9 10  1  0
 10 11  2  0
 11 12  1  0
 12 13  2  0
 13 14  1  0
 14 15  2  0
 15 16  1  0
 16 17  2  0
 17 18  1  0
 18 19  2  0
 19 20  1  0
 20 21  2  0
 21 22  1  0
 22 23  2  0
 23 24  1  0
 15 10  1  0
 24 16  1  0
 23 18  1  0
  1 25  1  0
  1 26  1  0
  1 27  1  0
  2 28  1  0
  2 29  1  0
  4 30  1  0
  4 31  1  0
  5 32  1  0
  5 33  1  0
  5 34  1  0
  6 35  1  0
  6 36  1  0
 11 37  1  0
 12 38  1  0
 13 39  1  0
 14 40  1  0
 19 41  1  0
 20 42  1  0
 21 43  1  0
 22 44  1  0
M  CHG  1   9  -1
M  END
>  <UniqueID>  (20) 
20

>  <SMILES>  (20) 
CCN(CC)CC(=O)[N-]c1ccccc1-c1nc2ccccc2s1

>  <Energy>  (20) 
84.28291550512978

>  <Genealogy>  (20) 
CCN(CC)CC(=O)[N-]c1ccccc1-c1nc2ccccc2s1 (protonated)
CCN(CC)CC(=O)[N-]c1ccccc1-c1nc2ccccc2s1 (3D coordinates assigned)
CCN(CC)CC(=O)[N-]c1ccccc1-c1nc2ccccc2s1 (optimized conformer: 84.28291550512978 kcal/mol)

>  <smiles>  (20) 
CCN(CC)CC(=O)Nc1ccccc1-c1nc2ccccc2s1

>  <score_type>  (20) 
oracle

>  <origin>  (20) 
adg

>  <m_score__min__energy>  (20) 
-9.5500000000000007

>  <m_primary>  (20) 
energy

$$$$
20:0
     RDKit          3D

 56 59  0  0  0  0  0  0  0  0999 V2000
   55.5050   26.5120   46.3290 O   0  0  0  0  0  0  0  0  0  0  0  0
   56.3270   27.1580   45.6260 C   0  0  0  0  0  0  0  0  0  0  0  0
   56.1170   28.5100   45.2370 N   0  0  0  0  0  0  0  0  0  0  0  0
   57.2490   28.8960   44.3880 C   0  0  0  0  0  0  0  0  0  0  0  0
   57.9620   30.1140   44.9630 C   0  0  0  0  0  0  0  0  0  0  0  0
   57.2450   31.3190   44.3620 C   0  0  0  0  0  0  0  0  0  0  0  0
   56.5010   30.8230   43.1190 C   0  0  0  0  0  0  0  0  0  0  0  0
   56.7620   29.3230   43.0090 C   0  0  0  0  0  0  0  0  0  0  0  0
   58.1030   27.6580   44.3610 C   0  0  0  0  0  0  0  0  0  0  0  0
   59.1880   27.5450   43.7300 O   0  0  0  0  0  0  0  0  0  0  0  0
   57.5360   26.6060   45.1290 N   0  0  0  0  0  0  0  0  0  0  0  0
   57.9040   25.1900   45.0820 C   0  0  0  0  0  0  0  0  0  0  0  0
   58.8920   24.8280   46.2000 C   0  0  0  0  0  0  0  0  0  0  0  0
   59.7320   26.0310   46.6500 C   0  0  0  0  0  0  0  0  0  0  0  0
   59.0640   26.7660   47.8190 C   0  0  0  0  0  0  0  0  0  0  0  0
   59.1850   28.2280   47.6380 N   0  0  0  0  0  0  0  0  0  0  0  0
   60.3330   28.5590   46.7650 C   0  0  0  0  0  0  0  0  0  0  0  0
   60.7520   30.0470   46.8380 C   0  0  0  0  0  0  0  0  0  0  0  0
   59.7270   30.8850   47.4820 N   0  0  0  0  0  0  0  0  0  0  0  0
   59.5880   32.2670   47.0960 C   0  0  0  0  0  0  0  0  0  0  0  0
   58.3140   32.8540   46.9970 C   0  0  0  0  0  0  0  0  0  0  0  0
   58.1800   34.1950   46.6230 C   0  0  0  0  0  0  0  0  0  0  0  0
   59.3140   34.9620   46.3450 C   0  0  0  0  0  0  0  0  0  0  0  0
   60.5840   34.3890   46.4370 C   0  0  0  0  0  0  0  0  0  0  0  0
   60.7240   33.0470   46.8100 C   0  0  0  0  0  0  0  0  0  0  0  0
   59.0470   30.4130   48.6980 C   0  0  0  0  0  0  0  0  0  0  0  0
   59.3050   28.9270   48.9310 C   0  0  0  0  0  0  0  0  0  0  0  0
   57.8820   30.1254   46.0600 H   0  0  0  0  0  0  0  0  0  0  0  0
   59.0355   30.1129   44.7229 H   0  0  0  0  0  0  0  0  0  0  0  0
   56.5314   31.7350   45.0885 H   0  0  0  0  0  0  0  0  0  0  0  0
   57.9613   32.1118   44.1005 H   0  0  0  0  0  0  0  0  0  0  0  0
   55.4224   31.0117   43.2244 H   0  0  0  0  0  0  0  0  0  0  0  0
   56.8501   31.3485   42.2179 H   0  0  0  0  0  0  0  0  0  0  0  0
   55.8369   28.7895   42.7451 H   0  0  0  0  0  0  0  0  0  0  0  0
   57.4982   29.0918   42.2250 H   0  0  0  0  0  0  0  0  0  0  0  0
   56.9955   24.5806   45.1967 H   0  0  0  0  0  0  0  0  0  0  0  0
   58.3892   24.9914   44.1150 H   0  0  0  0  0  0  0  0  0  0  0  0
   58.3253   24.4499   47.0636 H   0  0  0  0  0  0  0  0  0  0  0  0
   59.5808   24.0665   45.8055 H   0  0  0  0  0  0  0  0  0  0  0  0
   60.7240   25.6775   46.9679 H   0  0  0  0  0  0  0  0  0  0  0  0
   59.8224   26.7292   45.8048 H   0  0  0  0  0  0  0  0  0  0  0  0
   57.9995   26.4917   47.8601 H   0  0  0  0  0  0  0  0  0  0  0  0
   59.5623   26.4777   48.7563 H   0  0  0  0  0  0  0  0  0  0  0  0
   61.1907   27.9401   47.0672 H   0  0  0  0  0  0  0  0  0  0  0  0
   60.0210   28.3600   45.7291 H   0  0  0  0  0  0  0  0  0  0  0  0
   61.6854   30.1238   47.4149 H   0  0  0  0  0  0  0  0  0  0  0  0
   60.8853   30.4101   45.8082 H   0  0  0  0  0  0  0  0  0  0  0  0
   57.4175   32.2550   47.2150 H   0  0  0  0  0  0  0  0  0  0  0  0
   57.1798   34.6466   46.5476 H   0  0  0  0  0  0  0  0  0  0  0  0
   59.2064   36.0173   46.0537 H   0  0  0  0  0  0  0  0  0  0  0  0
   61.4762   34.9933   46.2160 H   0  0  0  0  0  0  0  0  0  0  0  0
   61.7267   32.6000   46.8799 H   0  0  0  0  0  0  0  0  0  0  0  0
   59.4203   30.9821   49.5621 H   0  0  0  0  0  0  0  0  0  0  0  0
   57.9645   30.5640   48.5736 H   0  0  0  0  0  0  0  0  0  0  0  0
   60.3168   28.7845   49.3384 H   0  0  0  0  0  0  0  0  0  0  0  0
   58.5758   28.5237   49.6490 H   0  0  0  0  0  0  0  0  0  0  0  0
  1  2  2  0
  2  3  1  0
  3  4  1  0
  4  5  1  0
  5  6  1  0
  6  7  1  0
  7  8  1  0
  4  9  1  0
  9 10  2  0
  9 11  1  0
 11 12  1  0
 12 13  1  0
 13 14  1  0
 14 15  1  0
 15 16  1  0
 16 17  1  0
 17 18  1  0
 18 19  1  0
 19 20  1  0
 20 21  2  0
 21 22  1  0
 22 23  2  0
 23 24  1  0
 24 25  2  0
 19 26  1  0
 26 27  1  0
 11  2  1  0
 27 16  1  0
  8  4  1  0
 25 20  1  0
  5 28  1  0
  5 29  1  0
  6 30  1  0
  6 31  1  0
  7 32  1  0
  7 33  1  0
  8 34  1  0
  8 35  1  0
 12 36  1  0
 12 37  1  0
 13 38  1  0
 13 39  1  0
 14 40  1  0
 14 41  1  0
 15 42  1  0
 15 43  1  0
 17 44  1  0
 17 45  1  0
 18 46  1  0
 18 47  1  0
 21 48  1  0
 22 49  1  0
 23 50  1  0
 24 51  1  0
 25 52  1  0
 26 53  1  0
 26 54  1  0
 27 55  1  0
 27 56  1  0
M  CHG  1   3  -1
M  END
>  <UniqueID>  (21) 
21

>  <SMILES>  (21) 
O=C1[N-]C2(CCCC2)C(=O)N1CCCCN1CCN(c2ccccc2)CC1

>  <Energy>  (21) 
81.75604513833257

>  <Genealogy>  (21) 
O=C1[N-]C2(CCCC2)C(=O)N1CCCCN1CCN(c2ccccc2)CC1 (protonated)
O=C1[N-]C2(CCCC2)C(=O)N1CCCCN1CCN(c2ccccc2)CC1 (3D coordinates assigned)
O=C1[N-]C2(CCCC2)C(=O)N1CCCCN1CCN(c2ccccc2)CC1 (nonaromatic ring conformer: 81.75604513833257 kcal/mol)

>  <smiles>  (21) 
O=C1NC2(CCCC2)C(=O)N1CCCCN1CCN(c2ccccc2)CC1

>  <score_type>  (21) 
oracle

>  <origin>  (21) 
adg

>  <m_score__min__energy>  (21) 
-10.699999999999999

>  <m_primary>  (21) 
energy

$$$$
21:0
     RDKit          3D

 46 48  0  0  0  0  0  0  0  0999 V2000
   57.6899   25.7150   46.6911 H   0  0  0  0  0  0  0  0  0  0  0  0
   57.2590   25.7150   45.6790 C   0  0  0  0  0  0  0  0  0  0  0  0
   57.0990   26.8530   45.0680 N   0  0  0  0  0  0  0  0  0  0  0  0
   57.8610   28.0400   45.3130 C   0  0  0  0  0  0  0  0  0  0  0  0
   59.1610   28.1460   45.7900 C   0  0  0  0  0  0  0  0  0  0  0  0
   60.0690   27.0190   46.1800 C   0  0  0  0  0  0  0  0  0  0  0  0
   60.1218   26.9534   47.2768 H   0  0  0  0  0  0  0  0  0  0  0  0
   59.6764   26.0748   45.7747 H   0  0  0  0  0  0  0  0  0  0  0  0
   61.0752   27.2017   45.7747 H   0  0  0  0  0  0  0  0  0  0  0  0
   59.4590   29.4630   45.9200 N   0  0  0  0  0  0  0  0  0  0  0  0
   60.7420   30.0100   46.3710 C   0  0  0  0  0  0  0  0  0  0  0  0
   60.7694   30.0217   47.4706 H   0  0  0  0  0  0  0  0  0  0  0  0
   61.5619   29.3832   45.9904 H   0  0  0  0  0  0  0  0  0  0  0  0
   60.8575   31.0356   45.9904 H   0  0  0  0  0  0  0  0  0  0  0  0
   58.3840   30.1830   45.5990 N   0  0  0  0  0  0  0  0  0  0  0  0
   58.2760   31.6160   45.6550 C   0  0  0  0  0  0  0  0  0  0  0  0
   58.3410   32.2810   46.8900 C   0  0  0  0  0  0  0  0  0  0  0  0
   58.4672   31.7029   47.8173 H   0  0  0  0  0  0  0  0  0  0  0  0
   58.2460   33.6750   46.9460 C   0  0  0  0  0  0  0  0  0  0  0  0
   58.2909   34.1907   47.9166 H   0  0  0  0  0  0  0  0  0  0  0  0
   58.0940   34.4130   45.7690 C   0  0  0  0  0  0  0  0  0  0  0  0
   58.0169   35.5094   45.8136 H   0  0  0  0  0  0  0  0  0  0  0  0
   58.0400   33.7590   44.5360 C   0  0  0  0  0  0  0  0  0  0  0  0
   57.9241   34.3414   43.6100 H   0  0  0  0  0  0  0  0  0  0  0  0
   58.1330   32.3650   44.4770 C   0  0  0  0  0  0  0  0  0  0  0  0
   58.0939   31.8538   43.5038 H   0  0  0  0  0  0  0  0  0  0  0  0
   57.4020   29.3330   45.2340 C   0  0  0  0  0  0  0  0  0  0  0  0
   56.2410   29.6820   44.8890 O   0  0  0  0  0  0  0  0  0  0  0  0
   56.8950   24.4580   45.0840 N   0  0  0  0  0  0  0  0  0  0  0  0
   55.5140   24.2020   44.6690 C   0  0  0  0  0  0  0  0  0  0  0  0
   54.9475   23.7809   45.5127 H   0  0  0  0  0  0  0  0  0  0  0  0
   55.0414   25.1428   44.3503 H   0  0  0  0  0  0  0  0  0  0  0  0
   55.5190   23.2060   43.5060 C   0  0  0  0  0  0  0  0  0  0  0  0
   54.4776   22.9538   43.2571 H   0  0  0  0  0  0  0  0  0  0  0  0
   56.0395   23.6876   42.6651 H   0  0  0  0  0  0  0  0  0  0  0  0
   56.2490   21.9480   43.8160 N   0  0  0  0  0  0  0  0  0  0  0  0
   57.0270   21.4800   42.6590 C   0  0  0  0  0  0  0  0  0  0  0  0
   57.9201   20.9428   43.0108 H   0  0  0  0  0  0  0  0  0  0  0  0
   56.4084   20.8040   42.0504 H   0  0  0  0  0  0  0  0  0  0  0  0
   57.3344   22.3432   42.0504 H   0  0  0  0  0  0  0  0  0  0  0  0
   57.0740   21.9830   45.0480 C   0  0  0  0  0  0  0  0  0  0  0  0
   56.4173   21.8164   45.9146 H   0  0  0  0  0  0  0  0  0  0  0  0
   57.8381   21.1972   44.9551 H   0  0  0  0  0  0  0  0  0  0  0  0
   57.8090   23.3190   45.2400 C   0  0  0  0  0  0  0  0  0  0  0  0
   58.2460   23.3458   46.2491 H   0  0  0  0  0  0  0  0  0  0  0  0
   58.5944   23.3965   44.4737 H   0  0  0  0  0  0  0  0  0  0  0  0
  1  2  1  0
  2  3  2  0
  3  4  1  0
  4  5  2  0
  5  6  1  0
  6  7  1  0
  6  8  1  0
  6  9  1  0
  5 10  1  0
 10 11  1  0
 11 12  1  0
 11 13  1  0
 11 14  1  0
 10 15  1  0
 15 16  1  0
 16 17  2  0
 17 18  1  0
 17 19  1  0
 19 20  1  0
 19 21  2  0
 21 22  1  0
 21 23  1  0
 23 24  1  0
 23 25  2  0
 25 26  1  0
 15 27  1  0
 27 28  2  0
  2 29  1  0
 29 30  1  0
 30 31  1  0
 30 32  1  0
 30 33  1  0
 33 34  1  0
 33 35  1  0
 33 36  1  0
 36 37  1  0
 37 38  1  0
 37 39  1  0
 37 40  1  0
 36 41  1  0
 41 42  1  0
 41 43  1  0
 41 44  1  0
 44 45  1  0
 44 46  1  0
 27  4  1  0
 44 29  1  0
 25 16  1  0
M  END
>  <UniqueID>  (22) 
22

>  <SMILES>  (22) 
Cc1c(/N=C\N2CCN(C)CC2)c(=O)n(-c2ccccc2)n1C

>  <Energy>  (22) 
103.56719155891614

>  <Genealogy>  (22) 
Cc1c(/N=C\N2CCN(C)CC2)c(=O)n(-c2ccccc2)n1C (cis-trans isomerization)
Cc1c(/N=C\N2CCN(C)CC2)c(=O)n(-c2ccccc2)n1C (3D coordinates assigned)
Cc1c(/N=C\N2CCN(C)CC2)c(=O)n(-c2ccccc2)n1C (nonaromatic ring conformer: 103.56719155891614 kcal/mol)

>  <smiles>  (22) 
Cc1c(N=CN2CCN(C)CC2)c(=O)n(-c2ccccc2)n1C

>  <score_type>  (22) 
oracle

>  <origin>  (22) 
adg

>  <m_score__min__energy>  (22) 
-7.5099999999999998

>  <m_primary>  (22) 
energy

$$$$
22:0
     RDKit          3D

 41 44  0  0  0  0  0  0  0  0999 V2000
   56.3110   19.7650   45.2040 C   0  0  0  0  0  0  0  0  0  0  0  0
   55.8950   20.7860   44.3030 O   0  0  0  0  0  0  0  0  0  0  0  0
   56.2870   22.1310   44.3900 C   0  0  0  0  0  0  0  0  0  0  0  0
   57.6170   22.5350   44.1810 C   0  0  0  0  0  0  0  0  0  0  0  0
   57.9720   23.8820   44.2730 C   0  0  0  0  0  0  0  0  0  0  0  0
   57.0060   24.8580   44.5720 C   0  0  0  0  0  0  0  0  0  0  0  0
   57.3950   26.2880   44.6670 C   0  0  0  0  0  0  0  0  0  0  0  0
   57.2240   27.1250   45.7910 C   0  0  0  0  0  0  0  0  0  0  0  0
   57.6800   28.3730   45.5550 N   0  0  0  0  0  0  0  0  0  0  0  0
   57.7680   29.5320   46.2190 C   0  0  0  0  0  0  0  0  0  0  0  0
   58.3600   30.4420   45.3280 C   0  0  0  0  0  0  0  0  0  0  0  0
   58.6650   31.8670   45.6090 C   0  0  0  0  0  0  0  0  0  0  0  0
   58.3910   32.8620   44.6510 C   0  0  0  0  0  0  0  0  0  0  0  0
   58.6780   34.2040   44.9200 C   0  0  0  0  0  0  0  0  0  0  0  0
   59.2410   34.5690   46.1430 C   0  0  0  0  0  0  0  0  0  0  0  0
   59.5190   33.5930   47.1030 C   0  0  0  0  0  0  0  0  0  0  0  0
   60.2320   34.0530   48.6390 Cl  0  0  0  0  0  0  0  0  0  0  0  0
   59.2330   32.2490   46.8400 C   0  0  0  0  0  0  0  0  0  0  0  0
   58.6170   29.8160   44.1420 N   0  0  0  0  0  0  0  0  0  0  0  0
   58.1790   28.5680   44.3550 C   0  0  0  0  0  0  0  0  0  0  0  0
   58.1280   27.1970   43.3990 S   0  0  0  0  0  0  0  0  0  0  0  0
   55.6760   24.4510   44.7840 C   0  0  0  0  0  0  0  0  0  0  0  0
   55.3120   23.0920   44.6940 C   0  0  0  0  0  0  0  0  0  0  0  0
   53.9940   22.6580   44.9000 O   0  0  0  0  0  0  0  0  0  0  0  0
   52.9850   23.4180   45.5590 C   0  0  0  0  0  0  0  0  0  0  0  0
   56.1705   20.1098   46.2391 H   0  0  0  0  0  0  0  0  0  0  0  0
   55.7102   18.8593   45.0345 H   0  0  0  0  0  0  0  0  0  0  0  0
   57.3737   19.5371   45.0345 H   0  0  0  0  0  0  0  0  0  0  0  0
   58.3844   21.7837   43.9430 H   0  0  0  0  0  0  0  0  0  0  0  0
   59.0176   24.1823   44.1099 H   0  0  0  0  0  0  0  0  0  0  0  0
   56.7748   26.8002   46.7411 H   0  0  0  0  0  0  0  0  0  0  0  0
   57.4432   29.7309   47.2510 H   0  0  0  0  0  0  0  0  0  0  0  0
   57.9480   32.5816   43.6840 H   0  0  0  0  0  0  0  0  0  0  0  0
   58.4592   34.9737   44.1653 H   0  0  0  0  0  0  0  0  0  0  0  0
   59.4660   35.6254   46.3515 H   0  0  0  0  0  0  0  0  0  0  0  0
   59.4533   31.4850   47.6001 H   0  0  0  0  0  0  0  0  0  0  0  0
   59.0610   30.1930   43.2760 H   0  0  0  0  0  0  0  0  0  0  0  0
   54.9099   25.2033   45.0232 H   0  0  0  0  0  0  0  0  0  0  0  0
   53.1085   23.3250   46.6481 H   0  0  0  0  0  0  0  0  0  0  0  0
   53.0741   24.4753   45.2688 H   0  0  0  0  0  0  0  0  0  0  0  0
   51.9934   23.0405   45.2688 H   0  0  0  0  0  0  0  0  0  0  0  0
  1  2  1  0
  2  3  1  0
  3  4  2  0
  4  5  1  0
  5  6  2  0
  6  7  1  0
  7  8  2  0
  8  9  1  0
  9 10  1  0
 10 11  2  0
 11 12  1  0
 12 13  2  0
 13 14  1  0
 14 15  2  0
 15 16  1  0
 16 17  1  0
 16 18  2  0
 11 19  1  0
 19 20  2  0
 20 21  1  0
  6 22  1  0
 22 23  2  0
 23 24  1  0
 24 25  1  0
 23  3  1  0
 21  7  1  0
 20  9  1  0
 18 12  1  0
  1 26  1  0
  1 27  1  0
  1 28  1  0
  4 29  1  0
  5 30  1  0
  8 31  1  0
 10 32  1  0
 13 33  1  0
 14 34  1  0
 15 35  1  0
 18 36  1  0
 19 37  1  0
 22 38  1  0
 25 39  1  0
 25 40  1  0
 25 41  1  0
M  CHG  1  19   1
M  END
>  <UniqueID>  (23) 
23

>  <SMILES>  (23) 
COc1ccc(-c2cn3cc(-c4cccc(Cl)c4)[nH+]c3s2)cc1OC

>  <Energy>  (23) 
128.83572518105248

>  <Genealogy>  (23) 
COc1ccc(-c2cn3cc(-c4cccc(Cl)c4)[nH+]c3s2)cc1OC (protonated)
COc1ccc(-c2cn3cc(-c4cccc(Cl)c4)[nH+]c3s2)cc1OC (3D coordinates assigned)
COc1ccc(-c2cn3cc(-c4cccc(Cl)c4)[nH+]c3s2)cc1OC (optimized conformer: 128.83572518105248 kcal/mol)

>  <smiles>  (23) 
COc1ccc(-c2cn3cc(-c4cccc(Cl)c4)nc3s2)cc1OC

>  <score_type>  (23) 
oracle

>  <origin>  (23) 
adg

>  <m_score__min__energy>  (23) 
-6.1100000000000003

>  <m_primary>  (23) 
energy

$$$$
23:0
     RDKit          3D

 57 61  0  0  0  0  0  0  0  0999 V2000
   67.1510   29.2320   51.2630 C   0  0  0  0  0  0  0  0  0  0  0  0
   66.8030   30.5140   52.0130 C   0  0  0  0  0  0  0  0  0  0  0  0
   66.0570   31.4290   51.1450 N   0  0  0  0  0  0  0  0  0  0  0  0
   66.6130   32.5170   50.6300 N   0  0  0  0  0  0  0  0  0  0  0  0
   65.7630   33.0890   49.7590 C   0  0  0  0  0  0  0  0  0  0  0  0
   64.6120   32.3230   49.6930 C   0  0  0  0  0  0  0  0  0  0  0  0
   63.4200   32.5900   48.8530 C   0  0  0  0  0  0  0  0  0  0  0  0
   62.1230   32.3390   49.3350 C   0  0  0  0  0  0  0  0  0  0  0  0
   61.0060   32.5960   48.5330 C   0  0  0  0  0  0  0  0  0  0  0  0
   61.1640   33.0970   47.2320 C   0  0  0  0  0  0  0  0  0  0  0  0
   59.9760   33.3700   46.3860 C   0  0  0  0  0  0  0  0  0  0  0  0
   59.6130   34.6950   46.0990 C   0  0  0  0  0  0  0  0  0  0  0  0
   58.5410   34.9610   45.3060 N   0  0  0  0  0  0  0  0  0  0  0  0
   57.7800   33.9720   44.7680 C   0  0  0  0  0  0  0  0  0  0  0  0
   58.0870   32.6330   45.0320 C   0  0  0  0  0  0  0  0  0  0  0  0
   57.3200   31.5900   44.5040 C   0  0  0  0  0  0  0  0  0  0  0  0
   57.6450   30.2660   44.8030 C   0  0  0  0  0  0  0  0  0  0  0  0
   58.7390   29.9880   45.6440 C   0  0  0  0  0  0  0  0  0  0  0  0
   59.1060   28.6340   45.9910 N   0  0  0  0  0  0  0  0  0  0  0  0
   60.0090   28.4020   47.1270 C   0  0  0  0  0  0  0  0  0  0  0  0
   59.7640   27.0170   47.7300 C   0  0  0  0  0  0  0  0  0  0  0  0
   59.8000   26.0210   46.7270 O   0  0  0  0  0  0  0  0  0  0  0  0
   58.7160   26.2050   45.8390 C   0  0  0  0  0  0  0  0  0  0  0  0
   58.8600   27.5190   45.0650 C   0  0  0  0  0  0  0  0  0  0  0  0
   59.4720   31.0260   46.1340 N   0  0  0  0  0  0  0  0  0  0  0  0
   59.1920   32.3280   45.8510 C   0  0  0  0  0  0  0  0  0  0  0  0
   62.4590   33.3480   46.7500 C   0  0  0  0  0  0  0  0  0  0  0  0
   63.5750   33.0910   47.5490 C   0  0  0  0  0  0  0  0  0  0  0  0
   64.8240   31.2830   50.5890 C   0  0  0  0  0  0  0  0  0  0  0  0
   63.8750   30.2800   50.8510 O   0  0  0  0  0  0  0  0  0  0  0  0
   63.0010   30.2210   51.9690 C   0  0  0  0  0  0  0  0  0  0  0  0
   67.3682   28.4318   51.9858 H   0  0  0  0  0  0  0  0  0  0  0  0
   66.3011   28.9346   50.6312 H   0  0  0  0  0  0  0  0  0  0  0  0
   68.0346   29.4052   50.6312 H   0  0  0  0  0  0  0  0  0  0  0  0
   66.1879   30.2648   52.8902 H   0  0  0  0  0  0  0  0  0  0  0  0
   67.7348   31.0048   52.3308 H   0  0  0  0  0  0  0  0  0  0  0  0
   67.5760   32.8580   50.8500 H   0  0  0  0  0  0  0  0  0  0  0  0
   65.9513   34.0130   49.1926 H   0  0  0  0  0  0  0  0  0  0  0  0
   61.9858   31.9377   50.3500 H   0  0  0  0  0  0  0  0  0  0  0  0
   59.9964   32.4039   48.9252 H   0  0  0  0  0  0  0  0  0  0  0  0
   60.2004   35.5249   46.5189 H   0  0  0  0  0  0  0  0  0  0  0  0
   56.9234   34.2241   44.1256 H   0  0  0  0  0  0  0  0  0  0  0  0
   56.4613   31.8127   43.8536 H   0  0  0  0  0  0  0  0  0  0  0  0
   57.0484   29.4428   44.3830 H   0  0  0  0  0  0  0  0  0  0  0  0
   61.0510   28.4672   46.7807 H   0  0  0  0  0  0  0  0  0  0  0  0
   59.8175   29.1647   47.8962 H   0  0  0  0  0  0  0  0  0  0  0  0
   60.5434   26.8055   48.4769 H   0  0  0  0  0  0  0  0  0  0  0  0
   58.7703   27.0077   48.2017 H   0  0  0  0  0  0  0  0  0  0  0  0
   58.6888   25.3681   45.1257 H   0  0  0  0  0  0  0  0  0  0  0  0
   57.7851   26.2420   46.4239 H   0  0  0  0  0  0  0  0  0  0  0  0
   59.7040   27.4365   44.3644 H   0  0  0  0  0  0  0  0  0  0  0  0
   57.9285   27.7122   44.5128 H   0  0  0  0  0  0  0  0  0  0  0  0
   62.5952   33.7501   45.7352 H   0  0  0  0  0  0  0  0  0  0  0  0
   64.5839   33.2823   47.1545 H   0  0  0  0  0  0  0  0  0  0  0  0
   63.5899   30.2608   52.8973 H   0  0  0  0  0  0  0  0  0  0  0  0
   62.3076   31.0744   51.9378 H   0  0  0  0  0  0  0  0  0  0  0  0
   62.4286   29.2822   51.9378 H   0  0  0  0  0  0  0  0  0  0  0  0
  1  2  1  0
  2  3  1  0
  3  4  1  0
  4  5  2  0
  5  6  1  0
  6  7  1  0
  7  8  2  0
  8  9  1  0
  9 10  2  0
 10 11  1  0
 11 12  2  0
 12 13  1  0
 13 14  2  0
 14 15  1  0
 15 16  2  0
 16 17  1  0
 17 18  2  0
 18 19  1  0
 19 20  1  0
 20 21  1  0
 21 22  1  0
 22 23  1  0
 23 24  1  0
 18 25  1  0
 25 26  2  0
 10 27  1  0
 27 28  2  0
  6 29  2  0
 29 30  1  0
 30 31  1  0
 29  3  1  0
 28  7  1  0
 26 11  1  0
 26 15  1  0
 24 19  1  0
  1 32  1  0
  1 33  1  0
  1 34  1  0
  2 35  1  0
  2 36  1  0
  4 37  1  0
  5 38  1  0
  8 39  1  0
  9 40  1  0
 12 41  1  0
 14 42  1  0
 16 43  1  0
 17 44  1  0
 20 45  1  0
 20 46  1  0
 21 47  1  0
 21 48  1  0
 23 49  1  0
 23 50  1  0
 24 51  1  0
 24 52  1  0
 27 53  1  0
 28 54  1  0
 31 55  1  0
 31 56  1  0
 31 57  1  0
M  CHG  1   4   1
M  END
>  <UniqueID>  (24) 
24

>  <SMILES>  (24) 
CCn1[nH+]cc(-c2ccc(-c3cncc4ccc(N5CCOCC5)nc34)cc2)c1OC

>  <Energy>  (24) 
111.46115934618872

>  <Genealogy>  (24) 
CCn1[nH+]cc(-c2ccc(-c3cncc4ccc(N5CCOCC5)nc34)cc2)c1OC (protonated)
CCn1[nH+]cc(-c2ccc(-c3cncc4ccc(N5CCOCC5)nc34)cc2)c1OC (3D coordinates assigned)
CCn1[nH+]cc(-c2ccc(-c3cncc4ccc(N5CCOCC5)nc34)cc2)c1OC (nonaromatic ring conformer: 111.46115934618872 kcal/mol)

>  <smiles>  (24) 
CCn1ncc(-c2ccc(-c3cncc4ccc(N5CCOCC5)nc34)cc2)c1OC

>  <score_type>  (24) 
oracle

>  <origin>  (24) 
adg

>  <m_score__min__energy>  (24) 
-6.9900000000000002

>  <m_primary>  (24) 
energy

$$$$
24:0
     RDKit          3D

 50 52  0  0  0  0  0  0  0  0999 V2000
   56.5110   26.4800   45.9310 C   0  0  0  0  0  0  0  0  0  0  0  0
   57.6230   27.4180   46.2920 C   0  0  0  0  0  0  0  0  0  0  0  0
   58.3090   27.3910   47.5040 C   0  0  0  0  0  0  0  0  0  0  0  0
   59.2300   28.4110   47.4190 C   0  0  0  0  0  0  0  0  0  0  0  0
   60.1930   28.8320   48.3340 C   0  0  0  0  0  0  0  0  0  0  0  0
   61.0070   29.9210   47.9760 C   0  0  0  0  0  0  0  0  0  0  0  0
   60.8370   30.5590   46.7270 C   0  0  0  0  0  0  0  0  0  0  0  0
   59.8590   30.1090   45.8220 C   0  0  0  0  0  0  0  0  0  0  0  0
   59.0690   29.0190   46.1990 C   0  0  0  0  0  0  0  0  0  0  0  0
   58.0850   28.4200   45.4970 N   0  0  0  0  0  0  0  0  0  0  0  0
   57.6320   28.7690   44.1440 C   0  0  0  0  0  0  0  0  0  0  0  0
   57.2160   30.2080   44.0810 C   0  0  0  0  0  0  0  0  0  0  0  0
   56.0930   30.5480   44.5410 O   0  0  0  0  0  0  0  0  0  0  0  0
   58.0750   31.1820   43.4720 N   0  0  0  0  0  0  0  0  0  0  0  0
   57.7860   32.6160   43.4850 C   0  0  0  0  0  0  0  0  0  0  0  0
   57.4010   33.0960   44.8920 C   0  0  0  0  0  0  0  0  0  0  0  0
   58.5510   33.0140   45.8200 N   0  0  0  0  0  0  0  0  0  0  0  0
   58.1070   32.5030   47.1290 C   0  0  0  0  0  0  0  0  0  0  0  0
   59.2270   34.3220   45.9750 C   0  0  0  0  0  0  0  0  0  0  0  0
   60.4370   34.1740   46.8560 C   0  0  0  0  0  0  0  0  0  0  0  0
   61.6740   33.8080   46.2960 C   0  0  0  0  0  0  0  0  0  0  0  0
   62.8020   33.6720   47.1080 C   0  0  0  0  0  0  0  0  0  0  0  0
   62.7010   33.8760   48.4870 C   0  0  0  0  0  0  0  0  0  0  0  0
   61.4720   34.2230   49.0550 C   0  0  0  0  0  0  0  0  0  0  0  0
   60.3440   34.3760   48.2430 C   0  0  0  0  0  0  0  0  0  0  0  0
   56.0481   26.0895   46.8493 H   0  0  0  0  0  0  0  0  0  0  0  0
   55.7553   27.0176   45.3394 H   0  0  0  0  0  0  0  0  0  0  0  0
   56.9135   25.6445   45.3394 H   0  0  0  0  0  0  0  0  0  0  0  0
   58.1493   26.7030   48.3473 H   0  0  0  0  0  0  0  0  0  0  0  0
   60.3124   28.3287   49.3048 H   0  0  0  0  0  0  0  0  0  0  0  0
   61.7803   30.2781   48.6720 H   0  0  0  0  0  0  0  0  0  0  0  0
   61.4747   31.4146   46.4602 H   0  0  0  0  0  0  0  0  0  0  0  0
   59.7200   30.5997   44.8474 H   0  0  0  0  0  0  0  0  0  0  0  0
   58.4536   28.5988   43.4327 H   0  0  0  0  0  0  0  0  0  0  0  0
   56.7682   28.1387   43.8859 H   0  0  0  0  0  0  0  0  0  0  0  0
   58.9420   30.8590   42.9880 H   0  0  0  0  0  0  0  0  0  0  0  0
   58.6793   33.1644   43.1515 H   0  0  0  0  0  0  0  0  0  0  0  0
   56.9382   32.8050   42.8101 H   0  0  0  0  0  0  0  0  0  0  0  0
   57.0608   34.1405   44.8340 H   0  0  0  0  0  0  0  0  0  0  0  0
   56.5991   32.4469   45.2736 H   0  0  0  0  0  0  0  0  0  0  0  0
   58.6007   33.0712   47.9311 H   0  0  0  0  0  0  0  0  0  0  0  0
   57.0165   32.6172   47.2165 H   0  0  0  0  0  0  0  0  0  0  0  0
   58.3724   31.4391   47.2165 H   0  0  0  0  0  0  0  0  0  0  0  0
   59.5389   34.6904   44.9865 H   0  0  0  0  0  0  0  0  0  0  0  0
   58.5295   35.0367   46.4362 H   0  0  0  0  0  0  0  0  0  0  0  0
   61.7534   33.6281   45.2137 H   0  0  0  0  0  0  0  0  0  0  0  0
   63.7711   33.4040   46.6618 H   0  0  0  0  0  0  0  0  0  0  0  0
   63.5894   33.7634   49.1258 H   0  0  0  0  0  0  0  0  0  0  0  0
   61.3921   34.3758   50.1414 H   0  0  0  0  0  0  0  0  0  0  0  0
   59.3797   34.6557   48.6923 H   0  0  0  0  0  0  0  0  0  0  0  0
  1  2  1  0
  2  3  2  0
  3  4  1  0
  4  5  2  0
  5  6  1  0
  6  7  2  0
  7  8  1  0
  8  9  2  0
  9 10  1  0
 10 11  1  0
 11 12  1  0
 12 13  2  0
 12 14  1  0
 14 15  1  0
 15 16  1  0
 16 17  1  0
 17 18  1  0
 17 19  1  0
 19 20  1  0
 20 21  2  0
 21 22  1  0
 22 23  2  0
 23 24  1  0
 24 25  2  0
 10  2  1  0
 25 20  1  0
  9  4  1  0
  1 26  1  0
  1 27  1  0
  1 28  1  0
  3 29  1  0
  5 30  1  0
  6 31  1  0
  7 32  1  0
  8 33  1  0
 11 34  1  0
 11 35  1  0
 14 36  1  0
 15 37  1  0
 15 38  1  0
 16 39  1  0
 16 40  1  0
 18 41  1  0
 18 42  1  0
 18 43  1  0
 19 44  1  0
 19 45  1  0
 21 46  1  0
 22 47  1  0
 23 48  1  0
 24 49  1  0
 25 50  1  0
M  END
>  <UniqueID>  (25) 
25

>  <SMILES>  (25) 
Cc1cc2ccccc2n1CC(=O)NCCN(C)Cc1ccccc1

>  <Energy>  (25) 
72.68048445456843

>  <Genealogy>  (25) 
Cc1cc2ccccc2n1CC(=O)NCCN(C)Cc1ccccc1 (3D coordinates assigned)
Cc1cc2ccccc2n1CC(=O)NCCN(C)Cc1ccccc1 (optimized conformer: 72.68048445456843 kcal/mol)

>  <smiles>  (25) 
Cc1cc2ccccc2n1CC(=O)NCCN(C)Cc1ccccc1

>  <score_type>  (25) 
oracle

>  <origin>  (25) 
adg

>  <m_score__min__energy>  (25) 
-7.8200000000000003

>  <m_primary>  (25) 
energy

$$$$
25:0
     RDKit          3D

 61 62  0  0  0  0  0  0  0  0999 V2000
   59.6310   22.7260   45.1880 C   0  0  0  0  0  0  0  0  0  0  0  0
   58.2500   22.9980   45.2250 O   0  0  0  0  0  0  0  0  0  0  0  0
   57.5860   22.1900   44.2750 C   0  0  0  0  0  0  0  0  0  0  0  0
   56.5260   23.0350   43.5540 C   0  0  0  0  0  0  0  0  0  0  0  0
   57.0100   24.4620   43.2370 C   0  0  0  0  0  0  0  0  0  0  0  0
   57.0630   25.3000   44.4440 N   0  0  0  0  0  0  0  0  0  0  0  0
   55.9480   24.9900   45.3540 C   0  0  0  0  0  0  0  0  0  0  0  0
   55.5830   26.1900   46.2440 C   0  0  0  0  0  0  0  0  0  0  0  0
   56.0030   27.4420   45.6210 N   0  0  0  0  0  0  0  0  0  0  0  0
   57.3720   27.8550   45.5490 C   0  0  0  0  0  0  0  0  0  0  0  0
   58.2900   27.0270   45.8040 O   0  0  0  0  0  0  0  0  0  0  0  0
   57.7160   29.2760   45.3020 C   0  0  0  0  0  0  0  0  0  0  0  0
   58.8720   29.7910   45.9160 C   0  0  0  0  0  0  0  0  0  0  0  0
   59.1980   31.1420   45.8060 C   0  0  0  0  0  0  0  0  0  0  0  0
   58.3700   32.0140   45.0920 C   0  0  0  0  0  0  0  0  0  0  0  0
   58.7190   33.4790   44.9990 C   0  0  0  0  0  0  0  0  0  0  0  0
   58.2300   34.2210   46.1790 N   0  0  0  0  0  0  0  0  0  0  0  0
   57.5090   33.3300   47.1010 C   0  0  0  0  0  0  0  0  0  0  0  0
   59.2780   35.0170   46.8640 C   0  0  0  0  0  0  0  0  0  0  0  0
   60.4280   34.1920   47.4060 C   0  0  0  0  0  0  0  0  0  0  0  0
   61.5020   33.8350   46.5720 C   0  0  0  0  0  0  0  0  0  0  0  0
   62.5650   33.0770   47.0750 C   0  0  0  0  0  0  0  0  0  0  0  0
   62.5730   32.6850   48.4160 C   0  0  0  0  0  0  0  0  0  0  0  0
   61.5200   33.0500   49.2570 C   0  0  0  0  0  0  0  0  0  0  0  0
   60.4510   33.8050   48.7580 C   0  0  0  0  0  0  0  0  0  0  0  0
   57.2390   31.5060   44.4370 C   0  0  0  0  0  0  0  0  0  0  0  0
   56.9030   30.1430   44.5240 C   0  0  0  0  0  0  0  0  0  0  0  0
   55.6810   29.6540   43.7910 C   0  0  0  0  0  0  0  0  0  0  0  0
   60.0174   22.6499   46.2151 H   0  0  0  0  0  0  0  0  0  0  0  0
   59.8037   21.7766   44.6600 H   0  0  0  0  0  0  0  0  0  0  0  0
   60.1508   23.5390   44.6600 H   0  0  0  0  0  0  0  0  0  0  0  0
   58.3131   21.8077   43.5434 H   0  0  0  0  0  0  0  0  0  0  0  0
   57.1033   21.3412   44.7815 H   0  0  0  0  0  0  0  0  0  0  0  0
   56.2624   22.5361   42.6098 H   0  0  0  0  0  0  0  0  0  0  0  0
   55.6603   23.1223   44.2270 H   0  0  0  0  0  0  0  0  0  0  0  0
   58.0166   24.4073   42.7968 H   0  0  0  0  0  0  0  0  0  0  0  0
   56.2963   24.9176   42.5348 H   0  0  0  0  0  0  0  0  0  0  0  0
   57.9580   25.1090   44.9440 H   0  0  0  0  0  0  0  0  0  0  0  0
   57.0190   26.3090   44.1680 H   0  0  0  0  0  0  0  0  0  0  0  0
   55.0682   24.7103   44.7559 H   0  0  0  0  0  0  0  0  0  0  0  0
   56.2620   24.1635   46.0084 H   0  0  0  0  0  0  0  0  0  0  0  0
   54.4936   26.2095   46.3947 H   0  0  0  0  0  0  0  0  0  0  0  0
   56.1003   26.0845   47.2090 H   0  0  0  0  0  0  0  0  0  0  0  0
   59.5271   29.1193   46.4902 H   0  0  0  0  0  0  0  0  0  0  0  0
   60.1121   31.5244   46.2837 H   0  0  0  0  0  0  0  0  0  0  0  0
   59.8122   33.5841   44.9369 H   0  0  0  0  0  0  0  0  0  0  0  0
   58.2375   33.8953   44.1019 H   0  0  0  0  0  0  0  0  0  0  0  0
   57.7382   33.6132   48.1389 H   0  0  0  0  0  0  0  0  0  0  0  0
   56.4266   33.4202   46.9268 H   0  0  0  0  0  0  0  0  0  0  0  0
   57.8230   32.2903   46.9268 H   0  0  0  0  0  0  0  0  0  0  0  0
   59.6836   35.7446   46.1456 H   0  0  0  0  0  0  0  0  0  0  0  0
   58.7967   35.4963   47.7292 H   0  0  0  0  0  0  0  0  0  0  0  0
   61.5066   34.1531   45.5190 H   0  0  0  0  0  0  0  0  0  0  0  0
   63.3956   32.7893   46.4137 H   0  0  0  0  0  0  0  0  0  0  0  0
   63.4093   32.0885   48.8094 H   0  0  0  0  0  0  0  0  0  0  0  0
   61.5299   32.7440   50.3135 H   0  0  0  0  0  0  0  0  0  0  0  0
   59.6267   34.0962   49.4257 H   0  0  0  0  0  0  0  0  0  0  0  0
   56.6051   32.1836   43.8463 H   0  0  0  0  0  0  0  0  0  0  0  0
   54.9151   29.3475   44.5187 H   0  0  0  0  0  0  0  0  0  0  0  0
   55.2841   30.4626   43.1596 H   0  0  0  0  0  0  0  0  0  0  0  0
   55.9515   28.7949   43.1596 H   0  0  0  0  0  0  0  0  0  0  0  0
  1  2  1  0
  2  3  1  0
  3  4  1  0
  4  5  1  0
  5  6  1  0
  6  7  1  0
  7  8  1  0
  8  9  1  0
  9 10  1  0
 10 11  2  0
 10 12  1  0
 12 13  2  0
 13 14  1  0
 14 15  2  0
 15 16  1  0
 16 17  1  0
 17 18  1  0
 17 19  1  0
 19 20  1  0
 20 21  2  0
 21 22  1  0
 22 23  2  0
 23 24  1  0
 24 25  2  0
 15 26  1  0
 26 27  2  0
 27 28  1  0
 27 12  1  0
 25 20  1  0
  1 29  1  0
  1 30  1  0
  1 31  1  0
  3 32  1  0
  3 33  1  0
  4 34  1  0
  4 35  1  0
  5 36  1  0
  5 37  1  0
  6 38  1  0
  6 39  1  0
  7 40  1  0
  7 41  1  0
  8 42  1  0
  8 43  1  0
 13 44  1  0
 14 45  1  0
 16 46  1  0
 16 47  1  0
 18 48  1  0
 18 49  1  0
 18 50  1  0
 19 51  1  0
 19 52  1  0
 21 53  1  0
 22 54  1  0
 23 55  1  0
 24 56  1  0
 25 57  1  0
 26 58  1  0
 28 59  1  0
 28 60  1  0
 28 61  1  0
M  CHG  2   6   1   9  -1
M  END
>  <UniqueID>  (26) 
26

>  <SMILES>  (26) 
COCCC[NH2+]CC[N-]C(=O)c1ccc(CN(C)Cc2ccccc2)cc1C

>  <Energy>  (26) 
60.95191731594071

>  <Genealogy>  (26) 
COCCC[NH2+]CC[N-]C(=O)c1ccc(CN(C)Cc2ccccc2)cc1C (protonated)
COCCC[NH2+]CC[N-]C(=O)c1ccc(CN(C)Cc2ccccc2)cc1C (3D coordinates assigned)
COCCC[NH2+]CC[N-]C(=O)c1ccc(CN(C)Cc2ccccc2)cc1C (optimized conformer: 60.95191731594071 kcal/mol)

>  <smiles>  (26) 
COCCCNCCNC(=O)c1ccc(CN(C)Cc2ccccc2)cc1C

>  <score_type>  (26) 
oracle

>  <origin>  (26) 
adg

>  <m_score__min__energy>  (26) 
-8.1899999999999995

>  <m_primary>  (26) 
energy

$$$$
26:0
     RDKit          3D

 43 43  0  0  0  0  0  0  0  0999 V2000
   58.8740   32.4150   48.7790 C   0  0  0  0  0  0  0  0  0  0  0  0
   58.1570   32.4120   47.4320 C   0  0  0  0  0  0  0  0  0  0  0  0
   57.7840   33.8460   47.0000 C   0  0  0  0  0  0  0  0  0  0  0  0
   57.7800   34.0410   45.5320 N   0  0  0  0  0  0  0  0  0  0  0  0
   59.0900   34.5050   45.0090 C   0  0  0  0  0  0  0  0  0  0  0  0
   60.0020   34.9320   46.1660 C   0  0  0  0  0  0  0  0  0  0  0  0
   61.1240   33.9260   46.4160 C   0  0  0  0  0  0  0  0  0  0  0  0
   57.2290   32.8760   44.8050 C   0  0  0  0  0  0  0  0  0  0  0  0
   58.3540   32.0540   44.1530 C   0  0  0  0  0  0  0  0  0  0  0  0
   58.0060   30.5510   44.0420 C   0  0  0  0  0  0  0  0  0  0  0  0
   58.0350   29.8530   45.4260 C   0  0  0  0  0  0  0  0  0  0  0  0
   57.0880   28.6460   45.4590 C   0  0  0  0  0  0  0  0  0  0  0  0
   55.6820   29.0380   45.2420 N   0  0  0  0  0  0  0  0  0  0  0  0
   55.5000   30.2020   44.3500 C   0  0  0  0  0  0  0  0  0  0  0  0
   56.6410   30.3510   43.3350 C   0  0  0  0  0  0  0  0  0  0  0  0
   58.1308   32.4119   49.5900 H   0  0  0  0  0  0  0  0  0  0  0  0
   59.5078   31.5195   48.8590 H   0  0  0  0  0  0  0  0  0  0  0  0
   59.5003   33.3158   48.8590 H   0  0  0  0  0  0  0  0  0  0  0  0
   58.8187   31.9686   46.6734 H   0  0  0  0  0  0  0  0  0  0  0  0
   57.2325   31.8238   47.5287 H   0  0  0  0  0  0  0  0  0  0  0  0
   56.7788   34.0744   47.3839 H   0  0  0  0  0  0  0  0  0  0  0  0
   58.5519   34.5171   47.4124 H   0  0  0  0  0  0  0  0  0  0  0  0
   59.5692   33.6865   44.4519 H   0  0  0  0  0  0  0  0  0  0  0  0
   58.9262   35.3664   44.3448 H   0  0  0  0  0  0  0  0  0  0  0  0
   60.4482   35.9079   45.9241 H   0  0  0  0  0  0  0  0  0  0  0  0
   59.3886   34.9880   47.0774 H   0  0  0  0  0  0  0  0  0  0  0  0
   61.2669   33.7978   47.4991 H   0  0  0  0  0  0  0  0  0  0  0  0
   60.8569   32.9592   45.9645 H   0  0  0  0  0  0  0  0  0  0  0  0
   62.0561   34.2966   45.9645 H   0  0  0  0  0  0  0  0  0  0  0  0
   56.6795   32.2372   45.5121 H   0  0  0  0  0  0  0  0  0  0  0  0
   56.5566   33.2408   44.0145 H   0  0  0  0  0  0  0  0  0  0  0  0
   58.5382   32.4484   43.1428 H   0  0  0  0  0  0  0  0  0  0  0  0
   59.2447   32.1430   44.7924 H   0  0  0  0  0  0  0  0  0  0  0  0
   58.7805   30.0737   43.4237 H   0  0  0  0  0  0  0  0  0  0  0  0
   59.0596   29.5109   45.6339 H   0  0  0  0  0  0  0  0  0  0  0  0
   57.7052   30.5753   46.1872 H   0  0  0  0  0  0  0  0  0  0  0  0
   57.3854   27.9401   44.6696 H   0  0  0  0  0  0  0  0  0  0  0  0
   57.1614   28.1848   46.4549 H   0  0  0  0  0  0  0  0  0  0  0  0
   55.1800   28.2180   44.8280 H   0  0  0  0  0  0  0  0  0  0  0  0
   54.5541   30.0813   43.8017 H   0  0  0  0  0  0  0  0  0  0  0  0
   55.4923   31.1052   44.9779 H   0  0  0  0  0  0  0  0  0  0  0  0
   56.6889   29.4437   42.7149 H   0  0  0  0  0  0  0  0  0  0  0  0
   56.4393   31.2375   42.7158 H   0  0  0  0  0  0  0  0  0  0  0  0
  1  2  1  0
  2  3  1  0
  3  4  1  0
  4  5  1  0
  5  6  1  0
  6  7  1  0
  4  8  1  0
  8  9  1  0
  9 10  1  0
 10 11  1  0
 11 12  1  0
 12 13  1  0
 13 14  1  0
 14 15  1  0
 15 10  1  0
  1 16  1  0
  1 17  1  0
  1 18  1  0
  2 19  1  0
  2 20  1  0
  3 21  1  0
  3 22  1  0
  5 23  1  0
  5 24  1  0
  6 25  1  0
  6 26  1  0
  7 27  1  0
  7 28  1  0
  7 29  1  0
  8 30  1  0
  8 31  1  0
  9 32  1  0
  9 33  1  0
 10 34  1  0
 11 35  1  0
 11 36  1  0
 12 37  1  0
 12 38  1  0
 13 39  1  0
 14 40  1  0
 14 41  1  0
 15 42  1  0
 15 43  1  0
M  END
>  <UniqueID>  (27) 
27

>  <SMILES>  (27) 
CCCN(CCC)CCC1CCNCC1

>  <Energy>  (27) 
39.38105009982832

>  <Genealogy>  (27) 
CCCN(CCC)CCC1CCNCC1 (3D coordinates assigned)
CCCN(CCC)CCC1CCNCC1 (nonaromatic ring conformer: 39.38105009982832 kcal/mol)

>  <smiles>  (27) 
CCCN(CCC)CCC1CCNCC1

>  <score_type>  (27) 
oracle

>  <origin>  (27) 
adg

>  <m_score__min__energy>  (27) 
-5.8899999999999997

>  <m_primary>  (27) 
energy

$$$$
27:0
     RDKit          3D

 42 45  0  0  0  0  0  0  0  0999 V2000
   56.0850   29.7080   43.4760 C   0  0  0  0  0  0  0  0  0  0  0  0
   56.4690   29.8990   44.8330 O   0  0  0  0  0  0  0  0  0  0  0  0
   57.4220   30.8360   45.2680 C   0  0  0  0  0  0  0  0  0  0  0  0
   57.3930   32.1780   44.8500 C   0  0  0  0  0  0  0  0  0  0  0  0
   58.3600   33.0880   45.2990 C   0  0  0  0  0  0  0  0  0  0  0  0
   58.3030   34.4270   44.8890 C   0  0  0  0  0  0  0  0  0  0  0  0
   59.2520   35.3430   45.3430 C   0  0  0  0  0  0  0  0  0  0  0  0
   60.2730   34.9300   46.1970 C   0  0  0  0  0  0  0  0  0  0  0  0
   60.3660   33.5920   46.6110 C   0  0  0  0  0  0  0  0  0  0  0  0
   61.5030   33.2090   47.4790 C   0  0  0  0  0  0  0  0  0  0  0  0
   62.3520   32.1550   47.1080 C   0  0  0  0  0  0  0  0  0  0  0  0
   63.4330   31.7990   47.9170 C   0  0  0  0  0  0  0  0  0  0  0  0
   63.6870   32.5000   49.1050 C   0  0  0  0  0  0  0  0  0  0  0  0
   64.7700   32.1510   49.9250 C   0  0  0  0  0  0  0  0  0  0  0  0
   65.0140   32.8590   51.1060 C   0  0  0  0  0  0  0  0  0  0  0  0
   64.1800   33.9180   51.4750 C   0  0  0  0  0  0  0  0  0  0  0  0
   63.0970   34.2760   50.6670 C   0  0  0  0  0  0  0  0  0  0  0  0
   62.8420   33.5730   49.4800 C   0  0  0  0  0  0  0  0  0  0  0  0
   61.7570   33.9230   48.6600 C   0  0  0  0  0  0  0  0  0  0  0  0
   59.3900   32.6570   46.1730 C   0  0  0  0  0  0  0  0  0  0  0  0
   59.3950   31.3140   46.6030 C   0  0  0  0  0  0  0  0  0  0  0  0
   58.4220   30.4050   46.1490 C   0  0  0  0  0  0  0  0  0  0  0  0
   58.4130   29.0590   46.5540 O   0  0  0  0  0  0  0  0  0  0  0  0
   59.1480   28.0180   45.9190 C   0  0  0  0  0  0  0  0  0  0  0  0
   55.1007   29.2184   43.4389 H   0  0  0  0  0  0  0  0  0  0  0  0
   56.0288   30.6831   42.9701 H   0  0  0  0  0  0  0  0  0  0  0  0
   56.8287   29.0748   42.9701 H   0  0  0  0  0  0  0  0  0  0  0  0
   56.6033   32.5174   44.1635 H   0  0  0  0  0  0  0  0  0  0  0  0
   57.5063   34.7571   44.2061 H   0  0  0  0  0  0  0  0  0  0  0  0
   59.1943   36.3947   45.0259 H   0  0  0  0  0  0  0  0  0  0  0  0
   61.0147   35.6612   46.5508 H   0  0  0  0  0  0  0  0  0  0  0  0
   62.1647   31.6056   46.1736 H   0  0  0  0  0  0  0  0  0  0  0  0
   64.0877   30.9659   47.6216 H   0  0  0  0  0  0  0  0  0  0  0  0
   65.4291   31.3183   49.6384 H   0  0  0  0  0  0  0  0  0  0  0  0
   65.8645   32.5817   51.7461 H   0  0  0  0  0  0  0  0  0  0  0  0
   64.3766   34.4719   52.4048 H   0  0  0  0  0  0  0  0  0  0  0  0
   62.4437   35.1102   50.9623 H   0  0  0  0  0  0  0  0  0  0  0  0
   61.1033   34.7606   48.9448 H   0  0  0  0  0  0  0  0  0  0  0  0
   60.1710   30.9722   47.3036 H   0  0  0  0  0  0  0  0  0  0  0  0
   59.6041   27.3721   46.6837 H   0  0  0  0  0  0  0  0  0  0  0  0
   58.4702   27.4208   45.2913 H   0  0  0  0  0  0  0  0  0  0  0  0
   59.9376   28.4569   45.2913 H   0  0  0  0  0  0  0  0  0  0  0  0
  1  2  1  0
  2  3  1  0
  3  4  2  0
  4  5  1  0
  5  6  2  0
  6  7  1  0
  7  8  2  0
  8  9  1  0
  9 10  1  0
 10 11  2  0
 11 12  1  0
 12 13  2  0
 13 14  1  0
 14 15  2  0
 15 16  1  0
 16 17  2  0
 17 18  1  0
 18 19  2  0
  9 20  2  0
 20 21  1  0
 21 22  2  0
 22 23  1  0
 23 24  1  0
 22  3  1  0
 20  5  1  0
 19 10  1  0
 18 13  1  0
  1 25  1  0
  1 26  1  0
  1 27  1  0
  4 28  1  0
  6 29  1  0
  7 30  1  0
  8 31  1  0
 11 32  1  0
 12 33  1  0
 14 34  1  0
 15 35  1  0
 16 36  1  0
 17 37  1  0
 19 38  1  0
 21 39  1  0
 24 40  1  0
 24 41  1  0
 24 42  1  0
M  END
>  <UniqueID>  (28) 
28

>  <SMILES>  (28) 
COc1cc2cccc(-c3ccc4ccccc4c3)c2cc1OC

>  <Energy>  (28) 
60.35793512394339

>  <Genealogy>  (28) 
COc1cc2cccc(-c3ccc4ccccc4c3)c2cc1OC (3D coordinates assigned)
COc1cc2cccc(-c3ccc4ccccc4c3)c2cc1OC (optimized conformer: 60.35793512394339 kcal/mol)

>  <smiles>  (28) 
COc1cc2cccc(-c3ccc4ccccc4c3)c2cc1OC

>  <score_type>  (28) 
oracle

>  <origin>  (28) 
adg

>  <m_score__min__energy>  (28) 
-8.2100000000000009

>  <m_primary>  (28) 
energy

$$$$
28:0
     RDKit          3D

 57 59  0  0  0  0  0  0  0  0999 V2000
   60.4700   28.9390   44.8830 C   0  0  0  0  0  0  0  0  0  0  0  0
   60.3870   29.5380   46.2810 C   0  0  0  0  0  0  0  0  0  0  0  0
   59.3370   28.5550   47.3460 S   0  0  0  0  0  0  0  0  0  0  0  0
   59.9540   27.1950   47.5140 O   0  0  0  0  0  0  0  0  0  0  0  0
   57.9870   28.3920   46.7010 O   0  0  0  0  0  0  0  0  0  0  0  0
   59.1290   29.2910   48.9190 N   0  0  0  0  0  0  0  0  0  0  0  0
   59.0940   30.7680   48.8400 C   0  0  0  0  0  0  0  0  0  0  0  0
   59.8960   31.4360   49.9630 C   0  0  0  0  0  0  0  0  0  0  0  0
   61.2860   30.9430   49.9390 N   0  0  0  0  0  0  0  0  0  0  0  0
   62.1920   31.6730   50.8690 C   0  0  0  0  0  0  0  0  0  0  0  0
   63.6200   31.9730   50.3470 C   0  0  0  0  0  0  0  0  0  0  0  0
   63.6650   32.9730   49.2220 C   0  0  0  0  0  0  0  0  0  0  0  0
   64.7870   33.4420   48.8970 O   0  0  0  0  0  0  0  0  0  0  0  0
   62.4510   33.4090   48.4740 C   0  0  0  0  0  0  0  0  0  0  0  0
   62.2750   33.0060   47.1370 C   0  0  0  0  0  0  0  0  0  0  0  0
   61.1350   33.3790   46.4210 C   0  0  0  0  0  0  0  0  0  0  0  0
   60.1470   34.1700   47.0250 C   0  0  0  0  0  0  0  0  0  0  0  0
   58.8930   34.5260   46.2730 C   0  0  0  0  0  0  0  0  0  0  0  0
   58.4590   33.3680   45.4120 C   0  0  0  0  0  0  0  0  0  0  0  0
   57.9390   32.2060   46.0030 C   0  0  0  0  0  0  0  0  0  0  0  0
   57.4950   31.1470   45.2040 C   0  0  0  0  0  0  0  0  0  0  0  0
   57.5640   31.2430   43.8120 C   0  0  0  0  0  0  0  0  0  0  0  0
   58.0730   32.4000   43.2160 C   0  0  0  0  0  0  0  0  0  0  0  0
   58.5160   33.4620   44.0110 C   0  0  0  0  0  0  0  0  0  0  0  0
   60.3100   34.5710   48.3580 C   0  0  0  0  0  0  0  0  0  0  0  0
   61.4520   34.2010   49.0750 C   0  0  0  0  0  0  0  0  0  0  0  0
   61.3870   29.4630   50.0680 C   0  0  0  0  0  0  0  0  0  0  0  0
   60.0360   28.7200   49.9380 C   0  0  0  0  0  0  0  0  0  0  0  0
   60.6206   27.8520   44.9582 H   0  0  0  0  0  0  0  0  0  0  0  0
   59.5350   29.1430   44.3406 H   0  0  0  0  0  0  0  0  0  0  0  0
   61.3143   29.3895   44.3406 H   0  0  0  0  0  0  0  0  0  0  0  0
   61.3975   29.5804   46.7136 H   0  0  0  0  0  0  0  0  0  0  0  0
   59.9558   30.5469   46.2023 H   0  0  0  0  0  0  0  0  0  0  0  0
   59.5150   31.0794   47.8727 H   0  0  0  0  0  0  0  0  0  0  0  0
   58.0454   31.0832   48.9455 H   0  0  0  0  0  0  0  0  0  0  0  0
   59.8917   32.5263   49.8173 H   0  0  0  0  0  0  0  0  0  0  0  0
   59.4387   31.1924   50.9333 H   0  0  0  0  0  0  0  0  0  0  0  0
   61.6510   31.1720   48.9820 H   0  0  0  0  0  0  0  0  0  0  0  0
   61.7164   32.6342   51.1136 H   0  0  0  0  0  0  0  0  0  0  0  0
   62.3307   31.0011   51.7288 H   0  0  0  0  0  0  0  0  0  0  0  0
   64.2180   32.3657   51.1826 H   0  0  0  0  0  0  0  0  0  0  0  0
   64.0173   31.0280   49.9480 H   0  0  0  0  0  0  0  0  0  0  0  0
   63.0448   32.3896   46.6498 H   0  0  0  0  0  0  0  0  0  0  0  0
   61.0117   33.0507   45.3784 H   0  0  0  0  0  0  0  0  0  0  0  0
   58.0942   34.7654   46.9903 H   0  0  0  0  0  0  0  0  0  0  0  0
   59.0931   35.3967   45.6312 H   0  0  0  0  0  0  0  0  0  0  0  0
   57.8804   32.1277   47.0986 H   0  0  0  0  0  0  0  0  0  0  0  0
   57.0910   30.2374   45.6724 H   0  0  0  0  0  0  0  0  0  0  0  0
   57.2177   30.4080   43.1852 H   0  0  0  0  0  0  0  0  0  0  0  0
   58.1253   32.4756   42.1198 H   0  0  0  0  0  0  0  0  0  0  0  0
   58.9102   34.3736   43.5382 H   0  0  0  0  0  0  0  0  0  0  0  0
   59.5341   35.1811   48.8436 H   0  0  0  0  0  0  0  0  0  0  0  0
   61.5718   34.5310   50.1175 H   0  0  0  0  0  0  0  0  0  0  0  0
   62.0607   29.0935   49.2809 H   0  0  0  0  0  0  0  0  0  0  0  0
   61.7627   29.2596   51.0816 H   0  0  0  0  0  0  0  0  0  0  0  0
   60.2418   27.6732   49.6698 H   0  0  0  0  0  0  0  0  0  0  0  0
   59.5256   28.8174   50.9075 H   0  0  0  0  0  0  0  0  0  0  0  0
  1  2  1  0
  2  3  1  0
  3  4  2  0
  3  5  2  0
  3  6  1  0
  6  7  1  0
  7  8  1  0
  8  9  1  0
  9 10  1  0
 10 11  1  0
 11 12  1  0
 12 13  2  0
 12 14  1  0
 14 15  2  0
 15 16  1  0
 16 17  2  0
 17 18  1  0
 18 19  1  0
 19 20  2  0
 20 21  1  0
 21 22  2  0
 22 23  1  0
 23 24  2  0
 17 25  1  0
 25 26  2  0
  9 27  1  0
 27 28  1  0
 28  6  1  0
 26 14  1  0
 24 19  1  0
  1 29  1  0
  1 30  1  0
  1 31  1  0
  2 32  1  0
  2 33  1  0
  7 34  1  0
  7 35  1  0
  8 36  1  0
  8 37  1  0
  9 38  1  0
 10 39  1  0
 10 40  1  0
 11 41  1  0
 11 42  1  0
 15 43  1  0
 16 44  1  0
 18 45  1  0
 18 46  1  0
 20 47  1  0
 21 48  1  0
 22 49  1  0
 23 50  1  0
 24 51  1  0
 25 52  1  0
 26 53  1  0
 27 54  1  0
 27 55  1  0
 28 56  1  0
 28 57  1  0
M  CHG  1   9   1
M  END
>  <UniqueID>  (29) 
29

>  <SMILES>  (29) 
CCS(=O)(=O)N1CC[NH+](CCC(=O)c2ccc(Cc3ccccc3)cc2)CC1

>  <Energy>  (29) 
68.17081894439325

>  <Genealogy>  (29) 
CCS(=O)(=O)N1CC[NH+](CCC(=O)c2ccc(Cc3ccccc3)cc2)CC1 (protonated)
CCS(=O)(=O)N1CC[NH+](CCC(=O)c2ccc(Cc3ccccc3)cc2)CC1 (3D coordinates assigned)
CCS(=O)(=O)N1CC[NH+](CCC(=O)c2ccc(Cc3ccccc3)cc2)CC1 (nonaromatic ring conformer: 68.17081894439325 kcal/mol)

>  <smiles>  (29) 
CCS(=O)(=O)N1CCN(CCC(=O)c2ccc(Cc3ccccc3)cc2)CC1

>  <score_type>  (29) 
oracle

>  <origin>  (29) 
adg

>  <m_score__min__energy>  (29) 
-8.4700000000000006

>  <m_primary>  (29) 
energy

$$$$
29:0
     RDKit          3D

 47 48  0  0  0  0  0  0  0  0999 V2000
   56.6170   27.1260   45.6130 C   0  0  0  0  0  0  0  0  0  0  0  0
   55.9490   28.3280   45.2450 O   0  0  0  0  0  0  0  0  0  0  0  0
   56.5280   29.3670   44.4980 C   0  0  0  0  0  0  0  0  0  0  0  0
   56.0300   29.7380   43.2330 C   0  0  0  0  0  0  0  0  0  0  0  0
   56.6370   30.7650   42.5080 C   0  0  0  0  0  0  0  0  0  0  0  0
   57.7460   31.4310   43.0300 C   0  0  0  0  0  0  0  0  0  0  0  0
   58.2500   31.0750   44.2820 C   0  0  0  0  0  0  0  0  0  0  0  0
   57.6400   30.0540   45.0300 C   0  0  0  0  0  0  0  0  0  0  0  0
   58.2260   29.6640   46.3650 C   0  0  0  0  0  0  0  0  0  0  0  0
   59.7480   29.9200   46.3820 C   0  0  0  0  0  0  0  0  0  0  0  0
   60.1930   30.9260   47.3760 N   0  0  0  0  0  0  0  0  0  0  0  0
   61.5980   30.8310   47.7990 C   0  0  0  0  0  0  0  0  0  0  0  0
   59.2440   31.2040   48.4760 C   0  0  0  0  0  0  0  0  0  0  0  0
   58.4830   32.5410   48.3250 C   0  0  0  0  0  0  0  0  0  0  0  0
   58.6340   33.1230   46.9680 N   0  0  0  0  0  0  0  0  0  0  0  0
   59.4430   34.3620   46.9930 C   0  0  0  0  0  0  0  0  0  0  0  0
   59.5640   34.9720   45.5760 C   0  0  0  0  0  0  0  0  0  0  0  0
   58.7250   34.3270   44.6350 O   0  0  0  0  0  0  0  0  0  0  0  0
   57.4010   34.2930   45.1260 C   0  0  0  0  0  0  0  0  0  0  0  0
   57.3010   33.4100   46.3880 C   0  0  0  0  0  0  0  0  0  0  0  0
   56.6588   27.0507   46.7096 H   0  0  0  0  0  0  0  0  0  0  0  0
   56.0691   26.2629   45.2069 H   0  0  0  0  0  0  0  0  0  0  0  0
   57.6392   27.1355   45.2069 H   0  0  0  0  0  0  0  0  0  0  0  0
   55.1575   29.2151   42.8142 H   0  0  0  0  0  0  0  0  0  0  0  0
   56.2398   31.0498   41.5226 H   0  0  0  0  0  0  0  0  0  0  0  0
   58.2238   32.2375   42.4544 H   0  0  0  0  0  0  0  0  0  0  0  0
   59.1302   31.5970   44.6855 H   0  0  0  0  0  0  0  0  0  0  0  0
   57.7497   30.2599   47.1575 H   0  0  0  0  0  0  0  0  0  0  0  0
   58.0432   28.5927   46.5348 H   0  0  0  0  0  0  0  0  0  0  0  0
   60.2535   28.9691   46.6062 H   0  0  0  0  0  0  0  0  0  0  0  0
   60.0076   30.3234   45.3921 H   0  0  0  0  0  0  0  0  0  0  0  0
   61.6507   30.8274   48.8977 H   0  0  0  0  0  0  0  0  0  0  0  0
   62.0366   29.9011   47.4079 H   0  0  0  0  0  0  0  0  0  0  0  0
   62.1578   31.6933   47.4079 H   0  0  0  0  0  0  0  0  0  0  0  0
   58.5069   30.3883   48.5118 H   0  0  0  0  0  0  0  0  0  0  0  0
   59.8382   31.2777   49.3988 H   0  0  0  0  0  0  0  0  0  0  0  0
   57.4145   32.3639   48.5174 H   0  0  0  0  0  0  0  0  0  0  0  0
   58.9075   33.2541   49.0470 H   0  0  0  0  0  0  0  0  0  0  0  0
   59.1100   32.4220   46.3500 H   0  0  0  0  0  0  0  0  0  0  0  0
   58.9618   35.0928   47.6597 H   0  0  0  0  0  0  0  0  0  0  0  0
   60.4515   34.1156   47.3565 H   0  0  0  0  0  0  0  0  0  0  0  0
   59.2872   36.0355   45.6248 H   0  0  0  0  0  0  0  0  0  0  0  0
   60.6039   34.8399   45.2427 H   0  0  0  0  0  0  0  0  0  0  0  0
   57.0841   35.3161   45.3769 H   0  0  0  0  0  0  0  0  0  0  0  0
   56.7499   33.8674   44.3483 H   0  0  0  0  0  0  0  0  0  0  0  0
   56.6908   33.9319   47.1399 H   0  0  0  0  0  0  0  0  0  0  0  0
   56.8414   32.4532   46.0993 H   0  0  0  0  0  0  0  0  0  0  0  0
  1  2  1  0
  2  3  1  0
  3  4  2  0
  4  5  1  0
  5  6  2  0
  6  7  1  0
  7  8  2  0
  8  9  1  0
  9 10  1  0
 10 11  1  0
 11 12  1  0
 11 13  1  0
 13 14  1  0
 14 15  1  0
 15 16  1  0
 16 17  1  0
 17 18  1  0
 18 19  1  0
 19 20  1  0
  8  3  1  0
 20 15  1  0
  1 21  1  0
  1 22  1  0
  1 23  1  0
  4 24  1  0
  5 25  1  0
  6 26  1  0
  7 27  1  0
  9 28  1  0
  9 29  1  0
 10 30  1  0
 10 31  1  0
 12 32  1  0
 12 33  1  0
 12 34  1  0
 13 35  1  0
 13 36  1  0
 14 37  1  0
 14 38  1  0
 15 39  1  0
 16 40  1  0
 16 41  1  0
 17 42  1  0
 17 43  1  0
 19 44  1  0
 19 45  1  0
 20 46  1  0
 20 47  1  0
M  CHG  1  15   1
M  END
>  <UniqueID>  (30) 
30

>  <SMILES>  (30) 
COc1ccccc1CCN(C)CC[NH+]1CCOCC1

>  <Energy>  (30) 
62.0622321326148

>  <Genealogy>  (30) 
COc1ccccc1CCN(C)CC[NH+]1CCOCC1 (protonated)
COc1ccccc1CCN(C)CC[NH+]1CCOCC1 (3D coordinates assigned)
COc1ccccc1CCN(C)CC[NH+]1CCOCC1 (nonaromatic ring conformer: 62.0622321326148 kcal/mol)

>  <smiles>  (30) 
COc1ccccc1CCN(C)CCN1CCOCC1

>  <score_type>  (30) 
oracle

>  <origin>  (30) 
adg

>  <m_score__min__energy>  (30) 
-4.9100000000000001

>  <m_primary>  (30) 
energy

$$$$
30:0
     RDKit          3D

 15 15  0  0  0  0  0  0  0  0999 V2000
   56.6500   30.3170   43.7630 C   0  0  0  0  0  0  0  0  0  0  0  0
   56.5450   31.2080   44.8690 O   0  0  0  0  0  0  0  0  0  0  0  0
   57.3510   32.3420   45.0490 C   0  0  0  0  0  0  0  0  0  0  0  0
   57.3980   33.0580   46.2580 C   0  0  0  0  0  0  0  0  0  0  0  0
   58.2230   34.1780   46.3730 C   0  0  0  0  0  0  0  0  0  0  0  0
   58.9950   34.5750   45.2800 C   0  0  0  0  0  0  0  0  0  0  0  0
   58.9400   33.8730   44.1180 N   0  0  0  0  0  0  0  0  0  0  0  0
   58.1440   32.7780   43.9820 C   0  0  0  0  0  0  0  0  0  0  0  0
   56.7713   29.2877   44.1316 H   0  0  0  0  0  0  0  0  0  0  0  0
   55.7379   30.3824   43.1516 H   0  0  0  0  0  0  0  0  0  0  0  0
   57.5219   30.5927   43.1516 H   0  0  0  0  0  0  0  0  0  0  0  0
   56.7851   32.7358   47.1127 H   0  0  0  0  0  0  0  0  0  0  0  0
   58.2644   34.7425   47.3162 H   0  0  0  0  0  0  0  0  0  0  0  0
   59.6482   35.4565   45.3594 H   0  0  0  0  0  0  0  0  0  0  0  0
   58.1238   32.2321   43.0272 H   0  0  0  0  0  0  0  0  0  0  0  0
  1  2  1  0
  2  3  1  0
  3  4  2  0
  4  5  1  0
  5  6  2  0
  6  7  1  0
  7  8  2  0
  8  3  1  0
  1  9  1  0
  1 10  1  0
  1 11  1  0
  4 12  1  0
  5 13  1  0
  6 14  1  0
  8 15  1  0
M  END
>  <UniqueID>  (31) 
31

>  <SMILES>  (31) 
COc1cccnc1

>  <Energy>  (31) 
13.56233893245107

>  <Genealogy>  (31) 
COc1cccnc1 (3D coordinates assigned)
COc1cccnc1 (optimized conformer: 13.56233893245107 kcal/mol)

>  <smiles>  (31) 
COc1cccnc1

>  <score_type>  (31) 
oracle

>  <origin>  (31) 
adg

>  <m_score__min__energy>  (31) 
-4.0099999999999998

>  <m_primary>  (31) 
energy

$$$$
31:0
     RDKit          3D

 44 45  0  0  0  0  0  0  0  0999 V2000
   56.3020   24.6510   47.0970 C   0  0  0  0  0  0  0  0  0  0  0  0
   55.5330   24.8470   45.7900 C   0  0  0  0  0  0  0  0  0  0  0  0
   56.1960   24.1410   44.5980 C   0  0  0  0  0  0  0  0  0  0  0  0
   57.4400   24.8840   44.0890 C   0  0  0  0  0  0  0  0  0  0  0  0
   57.4180   26.2820   44.5240 N   0  0  0  0  0  0  0  0  0  0  0  0
   58.3660   26.8640   45.4460 C   0  0  0  0  0  0  0  0  0  0  0  0
   59.3820   26.0760   46.0230 C   0  0  0  0  0  0  0  0  0  0  0  0
   60.3340   26.6480   46.8680 C   0  0  0  0  0  0  0  0  0  0  0  0
   60.2900   28.0110   47.1520 C   0  0  0  0  0  0  0  0  0  0  0  0
   59.2900   28.8080   46.5960 C   0  0  0  0  0  0  0  0  0  0  0  0
   58.3220   28.2510   45.7410 C   0  0  0  0  0  0  0  0  0  0  0  0
   57.2370   29.1200   45.2280 C   0  0  0  0  0  0  0  0  0  0  0  0
   56.0560   28.6780   45.2300 O   0  0  0  0  0  0  0  0  0  0  0  0
   57.4990   30.4990   44.7430 C   0  0  0  0  0  0  0  0  0  0  0  0
   57.4880   30.7740   43.3640 C   0  0  0  0  0  0  0  0  0  0  0  0
   57.7220   32.0730   42.8920 C   0  0  0  0  0  0  0  0  0  0  0  0
   57.7280   32.3500   41.4170 C   0  0  0  0  0  0  0  0  0  0  0  0
   58.0160   33.0980   43.8020 C   0  0  0  0  0  0  0  0  0  0  0  0
   58.0610   32.8350   45.1770 C   0  0  0  0  0  0  0  0  0  0  0  0
   58.3370   33.9430   46.1490 C   0  0  0  0  0  0  0  0  0  0  0  0
   57.7890   31.5400   45.6440 C   0  0  0  0  0  0  0  0  0  0  0  0
   55.6274   24.8229   47.9487 H   0  0  0  0  0  0  0  0  0  0  0  0
   56.6941   23.6242   47.1413 H   0  0  0  0  0  0  0  0  0  0  0  0
   57.1377   25.3648   47.1413 H   0  0  0  0  0  0  0  0  0  0  0  0
   54.5171   24.4446   45.9162 H   0  0  0  0  0  0  0  0  0  0  0  0
   55.5205   25.9250   45.5714 H   0  0  0  0  0  0  0  0  0  0  0  0
   56.4930   23.1285   44.9089 H   0  0  0  0  0  0  0  0  0  0  0  0
   55.4643   24.1150   43.7771 H   0  0  0  0  0  0  0  0  0  0  0  0
   58.3414   24.3954   44.4874 H   0  0  0  0  0  0  0  0  0  0  0  0
   57.4462   24.8543   42.9894 H   0  0  0  0  0  0  0  0  0  0  0  0
   56.6600   26.8850   44.1310 H   0  0  0  0  0  0  0  0  0  0  0  0
   59.4251   24.9987   45.8050 H   0  0  0  0  0  0  0  0  0  0  0  0
   61.1215   26.0207   47.3111 H   0  0  0  0  0  0  0  0  0  0  0  0
   61.0446   28.4589   47.8153 H   0  0  0  0  0  0  0  0  0  0  0  0
   59.2579   29.8827   46.8283 H   0  0  0  0  0  0  0  0  0  0  0  0
   57.2938   29.9615   42.6484 H   0  0  0  0  0  0  0  0  0  0  0  0
   57.7515   33.4367   41.2481 H   0  0  0  0  0  0  0  0  0  0  0  0
   58.6164   31.8887   40.9609 H   0  0  0  0  0  0  0  0  0  0  0  0
   56.8205   31.9276   40.9609 H   0  0  0  0  0  0  0  0  0  0  0  0
   58.2127   34.1157   43.4337 H   0  0  0  0  0  0  0  0  0  0  0  0
   58.2420   33.5616   47.1764 H   0  0  0  0  0  0  0  0  0  0  0  0
   59.3572   34.3230   45.9918 H   0  0  0  0  0  0  0  0  0  0  0  0
   57.6142   34.7572   45.9918 H   0  0  0  0  0  0  0  0  0  0  0  0
   57.8026   31.3368   46.7250 H   0  0  0  0  0  0  0  0  0  0  0  0
  1  2  1  0
  2  3  1  0
  3  4  1  0
  4  5  1  0
  5  6  1  0
  6  7  2  0
  7  8  1  0
  8  9  2  0
  9 10  1  0
 10 11  2  0
 11 12  1  0
 12 13  2  0
 12 14  1  0
 14 15  2  0
 15 16  1  0
 16 17  1  0
 16 18  2  0
 18 19  1  0
 19 20  1  0
 19 21  2  0
 11  6  1  0
 21 14  1  0
  1 22  1  0
  1 23  1  0
  1 24  1  0
  2 25  1  0
  2 26  1  0
  3 27  1  0
  3 28  1  0
  4 29  1  0
  4 30  1  0
  5 31  1  0
  7 32  1  0
  8 33  1  0
  9 34  1  0
 10 35  1  0
 15 36  1  0
 17 37  1  0
 17 38  1  0
 17 39  1  0
 18 40  1  0
 20 41  1  0
 20 42  1  0
 20 43  1  0
 21 44  1  0
M  END
>  <UniqueID>  (32) 
32

>  <SMILES>  (32) 
CCCCNc1ccccc1C(=O)c1cc(C)cc(C)c1

>  <Energy>  (32) 
45.09733931273296

>  <Genealogy>  (32) 
CCCCNc1ccccc1C(=O)c1cc(C)cc(C)c1 (3D coordinates assigned)
CCCCNc1ccccc1C(=O)c1cc(C)cc(C)c1 (optimized conformer: 45.09733931273296 kcal/mol)

>  <smiles>  (32) 
CCCCNc1ccccc1C(=O)c1cc(C)cc(C)c1

>  <score_type>  (32) 
oracle

>  <origin>  (32) 
adg

>  <m_score__min__energy>  (32) 
-8.3900000000000006

>  <m_primary>  (32) 
energy

$$$$
32:0
     RDKit          3D

 32 33  0  0  0  0  0  0  0  0999 V2000
   55.9190   29.8100   44.3330 S   0  0  0  0  0  0  0  0  0  0  0  0
   57.3650   29.2460   43.7820 C   0  0  0  0  0  0  0  0  0  0  0  0
   58.6020   29.7140   44.3520 N   0  0  0  0  0  0  0  0  0  0  0  0
   58.7670   30.9690   45.0330 C   0  0  0  0  0  0  0  0  0  0  0  0
   59.4490   31.0500   46.2600 C   0  0  0  0  0  0  0  0  0  0  0  0
   59.5690   32.2760   46.9200 C   0  0  0  0  0  0  0  0  0  0  0  0
   58.9950   33.4270   46.3730 C   0  0  0  0  0  0  0  0  0  0  0  0
   59.1440   34.9640   47.2050 Cl  0  0  0  0  0  0  0  0  0  0  0  0
   58.2920   33.3490   45.1670 C   0  0  0  0  0  0  0  0  0  0  0  0
   58.1710   32.1240   44.5040 C   0  0  0  0  0  0  0  0  0  0  0  0
   57.3880   28.1670   42.8270 N   0  0  0  0  0  0  0  0  0  0  0  0
   58.2130   27.0360   43.2880 C   0  0  0  0  0  0  0  0  0  0  0  0
   57.6600   26.3940   44.5690 C   0  0  0  0  0  0  0  0  0  0  0  0
   58.5060   26.7630   45.7470 C   0  0  0  0  0  0  0  0  0  0  0  0
   59.7840   26.2880   46.0120 C   0  0  0  0  0  0  0  0  0  0  0  0
   60.3600   26.8680   47.1490 C   0  0  0  0  0  0  0  0  0  0  0  0
   59.5470   27.8060   47.7700 C   0  0  0  0  0  0  0  0  0  0  0  0
   58.1090   27.9180   46.9030 S   0  0  0  0  0  0  0  0  0  0  0  0
   59.4380   29.0910   44.2850 H   0  0  0  0  0  0  0  0  0  0  0  0
   59.8900   30.1445   46.7023 H   0  0  0  0  0  0  0  0  0  0  0  0
   60.1165   32.3353   47.8722 H   0  0  0  0  0  0  0  0  0  0  0  0
   57.8334   34.2527   44.7392 H   0  0  0  0  0  0  0  0  0  0  0  0
   57.6054   32.0653   43.5624 H   0  0  0  0  0  0  0  0  0  0  0  0
   57.7970   28.5340   41.9370 H   0  0  0  0  0  0  0  0  0  0  0  0
   56.4170   27.8430   42.6130 H   0  0  0  0  0  0  0  0  0  0  0  0
   58.2431   26.2740   42.4952 H   0  0  0  0  0  0  0  0  0  0  0  0
   59.2180   27.4226   43.5126 H   0  0  0  0  0  0  0  0  0  0  0  0
   56.6320   26.7476   44.7366 H   0  0  0  0  0  0  0  0  0  0  0  0
   57.6702   25.3003   44.4521 H   0  0  0  0  0  0  0  0  0  0  0  0
   60.2914   25.5339   45.3925 H   0  0  0  0  0  0  0  0  0  0  0  0
   61.3631   26.6048   47.5157 H   0  0  0  0  0  0  0  0  0  0  0  0
   59.7996   28.3786   48.6746 H   0  0  0  0  0  0  0  0  0  0  0  0
  1  2  2  0
  2  3  1  0
  3  4  1  0
  4  5  2  0
  5  6  1  0
  6  7  2  0
  7  8  1  0
  7  9  1  0
  9 10  2  0
  2 11  1  0
 11 12  1  0
 12 13  1  0
 13 14  1  0
 14 15  2  0
 15 16  1  0
 16 17  2  0
 17 18  1  0
 10  4  1  0
 18 14  1  0
  3 19  1  0
  5 20  1  0
  6 21  1  0
  9 22  1  0
 10 23  1  0
 11 24  1  0
 11 25  1  0
 12 26  1  0
 12 27  1  0
 13 28  1  0
 13 29  1  0
 15 30  1  0
 16 31  1  0
 17 32  1  0
M  CHG  1  11   1
M  END
>  <UniqueID>  (33) 
33

>  <SMILES>  (33) 
S=C(Nc1ccc(Cl)cc1)[NH2+]CCc1cccs1

>  <Energy>  (33) 
60.72182009348731

>  <Genealogy>  (33) 
S=C(Nc1ccc(Cl)cc1)[NH2+]CCc1cccs1 (protonated)
S=C(Nc1ccc(Cl)cc1)[NH2+]CCc1cccs1 (3D coordinates assigned)
S=C(Nc1ccc(Cl)cc1)[NH2+]CCc1cccs1 (optimized conformer: 60.72182009348731 kcal/mol)

>  <smiles>  (33) 
S=C(NCCc1cccs1)Nc1ccc(Cl)cc1

>  <score_type>  (33) 
oracle

>  <origin>  (33) 
adg

>  <m_score__min__energy>  (33) 
-5.2400000000000002

>  <m_primary>  (33) 
energy

$$$$
33:0
     RDKit          3D

 46 48  0  0  0  0  0  0  0  0999 V2000
   63.8180   32.5750   50.7120 C   0  0  0  0  0  0  0  0  0  0  0  0
   62.9910   33.7710   50.4580 N   0  0  2  0  0  0  0  0  0  0  0  0
   61.7450   33.7920   51.2740 C   0  0  0  0  0  0  0  0  0  0  0  0
   60.5360   33.0450   50.6820 C   0  0  0  0  0  0  0  0  0  0  0  0
   59.9010   33.7470   49.4770 C   0  0  0  0  0  0  0  0  0  0  0  0
   60.5400   33.3960   48.1940 N   0  0  0  0  0  0  0  0  0  0  0  0
   59.7640   33.4030   46.9680 C   0  0  0  0  0  0  0  0  0  0  0  0
   59.2830   32.1910   46.4350 C   0  0  0  0  0  0  0  0  0  0  0  0
   58.5010   32.1680   45.2710 C   0  0  0  0  0  0  0  0  0  0  0  0
   57.9890   30.9220   44.7670 N   0  0  0  0  0  0  0  0  0  0  0  0
   58.5810   29.6590   45.2150 C   0  0  0  0  0  0  0  0  0  0  0  0
   58.3690   28.5850   44.1420 C   0  0  0  0  0  0  0  0  0  0  0  0
   57.0040   28.5020   43.7750 O   0  0  0  0  0  0  0  0  0  0  0  0
   56.5990   29.7100   43.1580 C   0  0  0  0  0  0  0  0  0  0  0  0
   56.6610   30.8740   44.1500 C   0  0  0  0  0  0  0  0  0  0  0  0
   58.2050   33.3720   44.6170 C   0  0  0  0  0  0  0  0  0  0  0  0
   57.4230   33.3800   43.5090 F   0  0  0  0  0  0  0  0  0  0  0  0
   58.6910   34.5800   45.1210 C   0  0  0  0  0  0  0  0  0  0  0  0
   59.4660   34.6030   46.2850 C   0  0  0  0  0  0  0  0  0  0  0  0
   59.9480   35.7960   46.7110 F   0  0  0  0  0  0  0  0  0  0  0  0
   61.9880   33.1490   48.1350 C   0  0  0  0  0  0  0  0  0  0  0  0
   62.8380   34.1070   49.0170 C   0  0  0  0  0  0  0  0  0  0  0  0
   63.9219   32.4247   51.7967 H   0  0  0  0  0  0  0  0  0  0  0  0
   63.3354   31.6937   50.2643 H   0  0  0  0  0  0  0  0  0  0  0  0
   64.8129   32.7153   50.2643 H   0  0  0  0  0  0  0  0  0  0  0  0
   63.5720   34.5590   50.8360 H   0  0  0  0  0  0  0  0  0  0  0  0
   61.9746   33.3397   52.2501 H   0  0  0  0  0  0  0  0  0  0  0  0
   61.4433   34.8485   51.3262 H   0  0  0  0  0  0  0  0  0  0  0  0
   60.8680   32.0453   50.3650 H   0  0  0  0  0  0  0  0  0  0  0  0
   59.7686   33.0056   51.4691 H   0  0  0  0  0  0  0  0  0  0  0  0
   58.8393   33.4637   49.4274 H   0  0  0  0  0  0  0  0  0  0  0  0
   60.0347   34.8291   49.6225 H   0  0  0  0  0  0  0  0  0  0  0  0
   59.5253   31.2449   46.9412 H   0  0  0  0  0  0  0  0  0  0  0  0
   59.6587   29.7994   45.3851 H   0  0  0  0  0  0  0  0  0  0  0  0
   58.0998   29.3409   46.1516 H   0  0  0  0  0  0  0  0  0  0  0  0
   58.9661   28.8399   43.2540 H   0  0  0  0  0  0  0  0  0  0  0  0
   58.6837   27.6130   44.5497 H   0  0  0  0  0  0  0  0  0  0  0  0
   57.2661   29.9231   42.3097 H   0  0  0  0  0  0  0  0  0  0  0  0
   55.5615   29.5979   42.8102 H   0  0  0  0  0  0  0  0  0  0  0  0
   56.4693   31.8182   43.6193 H   0  0  0  0  0  0  0  0  0  0  0  0
   55.8997   30.7302   44.9309 H   0  0  0  0  0  0  0  0  0  0  0  0
   58.4626   35.5207   44.5986 H   0  0  0  0  0  0  0  0  0  0  0  0
   62.1752   32.1174   48.4680 H   0  0  0  0  0  0  0  0  0  0  0  0
   62.2950   33.3249   47.0934 H   0  0  0  0  0  0  0  0  0  0  0  0
   63.8469   34.1462   48.5804 H   0  0  0  0  0  0  0  0  0  0  0  0
   62.2810   35.0556   49.0115 H   0  0  0  0  0  0  0  0  0  0  0  0
  1  2  1  0
  2  3  1  0
  3  4  1  0
  4  5  1  0
  5  6  1  0
  6  7  1  0
  7  8  2  0
  8  9  1  0
  9 10  1  0
 10 11  1  0
 11 12  1  0
 12 13  1  0
 13 14  1  0
 14 15  1  0
  9 16  2  0
 16 17  1  0
 16 18  1  0
 18 19  2  0
 19 20  1  0
  6 21  1  0
 21 22  1  0
 22  2  1  0
 19  7  1  0
 15 10  1  0
  1 23  1  0
  1 24  1  0
  1 25  1  0
  2 26  1  1
  3 27  1  0
  3 28  1  0
  4 29  1  0
  4 30  1  0
  5 31  1  0
  5 32  1  0
  8 33  1  0
 11 34  1  0
 11 35  1  0
 12 36  1  0
 12 37  1  0
 14 38  1  0
 14 39  1  0
 15 40  1  0
 15 41  1  0
 18 42  1  0
 21 43  1  0
 21 44  1  0
 22 45  1  0
 22 46  1  0
M  CHG  1   2   1
M  END
>  <UniqueID>  (34) 
34

>  <SMILES>  (34) 
C[N@@H+]1CCCN(c2cc(N3CCOCC3)c(F)cc2F)CC1

>  <Energy>  (34) 
74.60197211966862

>  <Genealogy>  (34) 
C[NH+]1CCCN(c2cc(N3CCOCC3)c(F)cc2F)CC1 (protonated)
C[N@@H+]1CCCN(c2cc(N3CCOCC3)c(F)cc2F)CC1 (chirality)
C[N@@H+]1CCCN(c2cc(N3CCOCC3)c(F)cc2F)CC1 (3D coordinates assigned)
C[N@@H+]1CCCN(c2cc(N3CCOCC3)c(F)cc2F)CC1 (nonaromatic ring conformer: 74.60197211966862 kcal/mol)

>  <smiles>  (34) 
CN1CCCN(c2cc(N3CCOCC3)c(F)cc2F)CC1

>  <score_type>  (34) 
oracle

>  <origin>  (34) 
adg

>  <m_score__min__energy>  (34) 
-3.0899999999999999

>  <m_primary>  (34) 
energy

$$$$
34:0
     RDKit          3D

 48 50  0  0  0  0  0  0  0  0999 V2000
   57.9480   34.2170   45.5450 C   0  0  0  0  0  0  0  0  0  0  0  0
   59.2390   34.9750   45.2450 C   0  0  0  0  0  0  0  0  0  0  0  0
   60.2570   34.8720   46.3890 C   0  0  0  0  0  0  0  0  0  0  0  0
   60.0090   33.6800   47.2200 N   0  0  0  0  0  0  0  0  0  0  0  0
   60.1090   32.4690   46.6570 N   0  0  0  0  0  0  0  0  0  0  0  0
   59.8580   31.3160   47.3430 C   0  0  0  0  0  0  0  0  0  0  0  0
   59.9480   30.0010   46.5900 C   0  0  0  0  0  0  0  0  0  0  0  0
   58.7230   29.7840   45.7370 C   0  0  0  0  0  0  0  0  0  0  0  0
   57.8210   28.7540   46.0500 C   0  0  0  0  0  0  0  0  0  0  0  0
   56.6890   28.5300   45.2620 C   0  0  0  0  0  0  0  0  0  0  0  0
   55.8310   27.4780   45.6190 O   0  0  0  0  0  0  0  0  0  0  0  0
   56.2670   26.1760   45.9970 C   0  0  0  0  0  0  0  0  0  0  0  0
   56.4480   29.3570   44.1490 C   0  0  0  0  0  0  0  0  0  0  0  0
   57.3350   30.4040   43.8340 C   0  0  0  0  0  0  0  0  0  0  0  0
   57.1310   31.2590   42.7400 O   0  0  0  0  0  0  0  0  0  0  0  0
   58.0300   32.2910   42.3460 C   0  0  0  0  0  0  0  0  0  0  0  0
   58.4630   30.6110   44.6340 C   0  0  0  0  0  0  0  0  0  0  0  0
   59.4640   31.3950   48.6980 C   0  0  0  0  0  0  0  0  0  0  0  0
   59.1660   30.2520   49.4730 C   0  0  0  0  0  0  0  0  0  0  0  0
   58.7790   30.3780   50.8080 C   0  0  0  0  0  0  0  0  0  0  0  0
   58.6810   31.6370   51.3940 C   0  0  0  0  0  0  0  0  0  0  0  0
   58.9690   32.7800   50.6480 C   0  0  0  0  0  0  0  0  0  0  0  0
   59.3590   32.6720   49.2980 C   0  0  0  0  0  0  0  0  0  0  0  0
   59.6400   33.8130   48.5310 C   0  0  0  0  0  0  0  0  0  0  0  0
   59.5460   34.9620   49.0510 O   0  0  0  0  0  0  0  0  0  0  0  0
   57.8137   34.1381   46.6339 H   0  0  0  0  0  0  0  0  0  0  0  0
   57.0954   34.7579   45.1086 H   0  0  0  0  0  0  0  0  0  0  0  0
   58.0049   33.2089   45.1086 H   0  0  0  0  0  0  0  0  0  0  0  0
   59.6897   34.5579   44.3324 H   0  0  0  0  0  0  0  0  0  0  0  0
   58.9827   36.0372   45.1186 H   0  0  0  0  0  0  0  0  0  0  0  0
   61.2693   34.8079   45.9634 H   0  0  0  0  0  0  0  0  0  0  0  0
   60.1579   35.7649   47.0238 H   0  0  0  0  0  0  0  0  0  0  0  0
   60.3780   32.3990   45.6490 H   0  0  0  0  0  0  0  0  0  0  0  0
   60.8384   30.0160   45.9443 H   0  0  0  0  0  0  0  0  0  0  0  0
   60.0170   29.1817   47.3207 H   0  0  0  0  0  0  0  0  0  0  0  0
   58.0079   28.1158   46.9262 H   0  0  0  0  0  0  0  0  0  0  0  0
   56.2918   26.1018   47.0942 H   0  0  0  0  0  0  0  0  0  0  0  0
   55.5713   25.4251   45.5944 H   0  0  0  0  0  0  0  0  0  0  0  0
   57.2746   25.9955   45.5944 H   0  0  0  0  0  0  0  0  0  0  0  0
   55.5613   29.1843   43.5214 H   0  0  0  0  0  0  0  0  0  0  0  0
   58.4499   32.7730   43.2412 H   0  0  0  0  0  0  0  0  0  0  0  0
   58.8444   31.8586   41.7463 H   0  0  0  0  0  0  0  0  0  0  0  0
   57.4900   33.0385   41.7463 H   0  0  0  0  0  0  0  0  0  0  0  0
   59.1549   31.4322   44.3956 H   0  0  0  0  0  0  0  0  0  0  0  0
   59.2397   29.2525   49.0196 H   0  0  0  0  0  0  0  0  0  0  0  0
   58.5505   29.4791   51.3994 H   0  0  0  0  0  0  0  0  0  0  0  0
   58.3760   31.7306   52.4467 H   0  0  0  0  0  0  0  0  0  0  0  0
   58.8912   33.7722   51.1165 H   0  0  0  0  0  0  0  0  0  0  0  0
  1  2  1  0
  2  3  1  0
  3  4  1  0
  4  5  1  0
  5  6  2  0
  6  7  1  0
  7  8  1  0
  8  9  2  0
  9 10  1  0
 10 11  1  0
 11 12  1  0
 10 13  2  0
 13 14  1  0
 14 15  1  0
 15 16  1  0
 14 17  2  0
  6 18  1  0
 18 19  2  0
 19 20  1  0
 20 21  2  0
 21 22  1  0
 22 23  2  0
 23 24  1  0
 24 25  2  0
 24  4  1  0
 17  8  1  0
 23 18  1  0
  1 26  1  0
  1 27  1  0
  1 28  1  0
  2 29  1  0
  2 30  1  0
  3 31  1  0
  3 32  1  0
  5 33  1  0
  7 34  1  0
  7 35  1  0
  9 36  1  0
 12 37  1  0
 12 38  1  0
 12 39  1  0
 13 40  1  0
 16 41  1  0
 16 42  1  0
 16 43  1  0
 17 44  1  0
 19 45  1  0
 20 46  1  0
 21 47  1  0
 22 48  1  0
M  CHG  1   5   1
M  END
>  <UniqueID>  (35) 
35

>  <SMILES>  (35) 
CCCn1[nH+]c(Cc2cc(OC)cc(OC)c2)c2ccccc2c1=O

>  <Energy>  (35) 
50.92351507367995

>  <Genealogy>  (35) 
CCCn1[nH+]c(Cc2cc(OC)cc(OC)c2)c2ccccc2c1=O (protonated)
CCCn1[nH+]c(Cc2cc(OC)cc(OC)c2)c2ccccc2c1=O (3D coordinates assigned)
CCCn1[nH+]c(Cc2cc(OC)cc(OC)c2)c2ccccc2c1=O (optimized conformer: 50.92351507367995 kcal/mol)

>  <smiles>  (35) 
CCCn1nc(Cc2cc(OC)cc(OC)c2)c2ccccc2c1=O

>  <score_type>  (35) 
oracle

>  <origin>  (35) 
adg

>  <m_score__min__energy>  (35) 
-6.2300000000000004

>  <m_primary>  (35) 
energy

$$$$
35:0
     RDKit          3D

 34 36  0  0  0  0  0  0  0  0999 V2000
   59.1900   34.6130   45.5510 C   0  0  0  0  0  0  0  0  0  0  0  0
   58.3930   33.9200   44.5950 O   0  0  0  0  0  0  0  0  0  0  0  0
   58.1030   32.5490   44.6450 C   0  0  0  0  0  0  0  0  0  0  0  0
   57.4010   31.9850   43.5770 C   0  0  0  0  0  0  0  0  0  0  0  0
   57.0860   30.6270   43.5730 C   0  0  0  0  0  0  0  0  0  0  0  0
   57.4700   29.8100   44.6400 C   0  0  0  0  0  0  0  0  0  0  0  0
   57.1530   28.4920   44.6130 N   0  0  0  0  0  0  0  0  0  0  0  0
   57.4940   27.6390   45.6130 C   0  0  0  0  0  0  0  0  0  0  0  0
   57.1160   26.2070   45.5110 C   0  0  0  0  0  0  0  0  0  0  0  0
   58.0900   25.2340   45.2080 C   0  0  0  0  0  0  0  0  0  0  0  0
   57.7380   23.8860   45.0940 C   0  0  0  0  0  0  0  0  0  0  0  0
   56.4110   23.4910   45.2770 C   0  0  0  0  0  0  0  0  0  0  0  0
   55.4330   24.4430   45.5720 C   0  0  0  0  0  0  0  0  0  0  0  0
   55.7770   25.7950   45.6910 C   0  0  0  0  0  0  0  0  0  0  0  0
   54.7830   26.7160   46.0050 O   0  0  0  0  0  0  0  0  0  0  0  0
   58.1960   28.1290   46.7250 C   0  0  0  0  0  0  0  0  0  0  0  0
   58.5530   29.4890   46.8040 C   0  0  0  0  0  0  0  0  0  0  0  0
   59.3140   29.9920   48.0180 C   0  0  0  0  0  0  0  0  0  0  0  0
   58.6440   31.0190   48.6620 F   0  0  0  0  0  0  0  0  0  0  0  0
   59.4840   28.9600   48.9240 F   0  0  0  0  0  0  0  0  0  0  0  0
   60.5520   30.4710   47.6260 F   0  0  0  0  0  0  0  0  0  0  0  0
   58.1830   30.3530   45.7360 C   0  0  0  0  0  0  0  0  0  0  0  0
   58.4940   31.7310   45.7240 C   0  0  0  0  0  0  0  0  0  0  0  0
   58.8699   34.3347   46.5659 H   0  0  0  0  0  0  0  0  0  0  0  0
   60.2471   34.3419   45.4126 H   0  0  0  0  0  0  0  0  0  0  0  0
   59.0684   35.6975   45.4126 H   0  0  0  0  0  0  0  0  0  0  0  0
   57.0940   32.6182   42.7315 H   0  0  0  0  0  0  0  0  0  0  0  0
   56.5324   30.1962   42.7257 H   0  0  0  0  0  0  0  0  0  0  0  0
   59.1366   25.5383   45.0599 H   0  0  0  0  0  0  0  0  0  0  0  0
   58.5072   23.1354   44.8598 H   0  0  0  0  0  0  0  0  0  0  0  0
   56.1361   22.4296   45.1887 H   0  0  0  0  0  0  0  0  0  0  0  0
   54.3879   24.1295   45.7115 H   0  0  0  0  0  0  0  0  0  0  0  0
   58.4697   27.4450   47.5418 H   0  0  0  0  0  0  0  0  0  0  0  0
   59.0478   32.1706   46.5666 H   0  0  0  0  0  0  0  0  0  0  0  0
  1  2  1  0
  2  3  1  0
  3  4  2  0
  4  5  1  0
  5  6  2  0
  6  7  1  0
  7  8  2  0
  8  9  1  0
  9 10  2  0
 10 11  1  0
 11 12  2  0
 12 13  1  0
 13 14  2  0
 14 15  1  0
  8 16  1  0
 16 17  2  0
 17 18  1  0
 18 19  1  0
 18 20  1  0
 18 21  1  0
 17 22  1  0
 22 23  2  0
 23  3  1  0
 22  6  1  0
 14  9  1  0
  1 24  1  0
  1 25  1  0
  1 26  1  0
  4 27  1  0
  5 28  1  0
 10 29  1  0
 11 30  1  0
 12 31  1  0
 13 32  1  0
 16 33  1  0
 23 34  1  0
M  CHG  1  15  -1
M  END
>  <UniqueID>  (36) 
36

>  <SMILES>  (36) 
COc1ccc2nc(-c3ccccc3[O-])cc(C(F)(F)F)c2c1

>  <Energy>  (36) 
48.5886517494463

>  <Genealogy>  (36) 
COc1ccc2nc(-c3ccccc3[O-])cc(C(F)(F)F)c2c1 (protonated)
COc1ccc2nc(-c3ccccc3[O-])cc(C(F)(F)F)c2c1 (3D coordinates assigned)
COc1ccc2nc(-c3ccccc3[O-])cc(C(F)(F)F)c2c1 (optimized conformer: 48.5886517494463 kcal/mol)

>  <smiles>  (36) 
COc1ccc2nc(-c3ccccc3O)cc(C(F)(F)F)c2c1

>  <score_type>  (36) 
oracle

>  <origin>  (36) 
adg

>  <m_score__min__energy>  (36) 
-10.57

>  <m_primary>  (36) 
energy

$$$$
36:0
     RDKit          3D

 63 65  0  0  0  0  0  0  0  0999 V2000
   63.4050   33.8900   46.1090 C   0  0  0  0  0  0  0  0  0  0  0  0
   63.1920   33.8630   47.6200 C   0  0  0  0  0  0  0  0  0  0  0  0
   61.7400   34.1960   47.9850 C   0  0  0  0  0  0  0  0  0  0  0  0
   60.8200   33.1830   47.4250 N   0  0  0  0  0  0  0  0  0  0  0  0
   61.0120   31.8380   47.6560 C   0  0  0  0  0  0  0  0  0  0  0  0
   62.3660   31.2070   48.6650 S   0  0  0  0  0  0  0  0  0  0  0  0
   61.5090   29.6770   49.1720 C   0  0  0  0  0  0  0  0  0  0  0  0
   60.4870   30.0130   50.2100 C   0  0  0  0  0  0  0  0  0  0  0  0
   60.5940   29.5190   51.3660 O   0  0  0  0  0  0  0  0  0  0  0  0
   59.3900   30.8800   49.8830 N   0  0  0  0  0  0  0  0  0  0  0  0
   58.4420   31.3630   50.8520 C   0  0  0  0  0  0  0  0  0  0  0  0
   57.4140   30.5220   51.3150 C   0  0  0  0  0  0  0  0  0  0  0  0
   56.4950   30.9740   52.2740 C   0  0  0  0  0  0  0  0  0  0  0  0
   55.3750   30.0800   52.7220 C   0  0  0  0  0  0  0  0  0  0  0  0
   56.5960   32.2820   52.7650 C   0  0  0  0  0  0  0  0  0  0  0  0
   57.6260   33.1180   52.3280 C   0  0  0  0  0  0  0  0  0  0  0  0
   58.5570   32.6710   51.3750 C   0  0  0  0  0  0  0  0  0  0  0  0
   59.6570   33.5950   50.9270 C   0  0  0  0  0  0  0  0  0  0  0  0
   60.1580   30.9250   47.1280 N   0  0  0  0  0  0  0  0  0  0  0  0
   59.1110   31.2910   46.3520 C   0  0  0  0  0  0  0  0  0  0  0  0
   58.2570   30.3150   45.8270 C   0  0  0  0  0  0  0  0  0  0  0  0
   57.1700   30.6810   45.0120 C   0  0  0  0  0  0  0  0  0  0  0  0
   56.2650   29.6500   44.4540 C   0  0  0  0  0  0  0  0  0  0  0  0
   55.7880   29.7900   43.2950 O   0  0  0  0  0  0  0  0  0  0  0  0
   55.9270   28.4930   45.2280 N   0  0  0  0  0  0  0  0  0  0  0  0
   56.8890   27.4690   45.6240 C   0  0  0  0  0  0  0  0  0  0  0  0
   56.1850   26.3190   46.3550 C   0  0  0  0  0  0  0  0  0  0  0  0
   54.8210   26.2590   45.9820 O   0  0  0  0  0  0  0  0  0  0  0  0
   54.4670   24.9400   45.6290 C   0  0  0  0  0  0  0  0  0  0  0  0
   56.9560   32.0420   44.7320 C   0  0  0  0  0  0  0  0  0  0  0  0
   57.8050   33.0200   45.2610 C   0  0  0  0  0  0  0  0  0  0  0  0
   58.8910   32.6490   46.0760 C   0  0  0  0  0  0  0  0  0  0  0  0
   59.7720   33.5930   46.6320 C   0  0  0  0  0  0  0  0  0  0  0  0
   59.5930   34.8220   46.4010 O   0  0  0  0  0  0  0  0  0  0  0  0
   64.4748   34.0256   45.8919 H   0  0  0  0  0  0  0  0  0  0  0  0
   63.0598   32.9409   45.6730 H   0  0  0  0  0  0  0  0  0  0  0  0
   62.8339   34.7229   45.6730 H   0  0  0  0  0  0  0  0  0  0  0  0
   63.4351   32.8590   47.9981 H   0  0  0  0  0  0  0  0  0  0  0  0
   63.8467   34.6202   48.0761 H   0  0  0  0  0  0  0  0  0  0  0  0
   61.6367   34.2128   49.0800 H   0  0  0  0  0  0  0  0  0  0  0  0
   61.4842   35.1799   47.5649 H   0  0  0  0  0  0  0  0  0  0  0  0
   61.0140   29.2251   48.2997 H   0  0  0  0  0  0  0  0  0  0  0  0
   62.2367   28.9625   49.5844 H   0  0  0  0  0  0  0  0  0  0  0  0
   59.2560   31.1410   48.8790 H   0  0  0  0  0  0  0  0  0  0  0  0
   57.3296   29.4985   50.9208 H   0  0  0  0  0  0  0  0  0  0  0  0
   55.3433   30.0547   53.8213 H   0  0  0  0  0  0  0  0  0  0  0  0
   54.4203   30.4671   52.3365 H   0  0  0  0  0  0  0  0  0  0  0  0
   55.5409   29.0632   52.3365 H   0  0  0  0  0  0  0  0  0  0  0  0
   55.8623   32.6516   53.4965 H   0  0  0  0  0  0  0  0  0  0  0  0
   57.7093   34.1369   52.7340 H   0  0  0  0  0  0  0  0  0  0  0  0
   60.1614   34.0187   51.8079 H   0  0  0  0  0  0  0  0  0  0  0  0
   60.3845   33.0331   50.3228 H   0  0  0  0  0  0  0  0  0  0  0  0
   59.2291   34.4086   50.3228 H   0  0  0  0  0  0  0  0  0  0  0  0
   58.4367   29.2536   46.0531 H   0  0  0  0  0  0  0  0  0  0  0  0
   57.3874   27.0750   44.7260 H   0  0  0  0  0  0  0  0  0  0  0  0
   57.6276   27.9205   46.3027 H   0  0  0  0  0  0  0  0  0  0  0  0
   56.6745   25.3694   46.0930 H   0  0  0  0  0  0  0  0  0  0  0  0
   56.2512   26.4918   47.4393 H   0  0  0  0  0  0  0  0  0  0  0  0
   54.3077   24.3465   46.5413 H   0  0  0  0  0  0  0  0  0  0  0  0
   53.5412   24.9553   45.0352 H   0  0  0  0  0  0  0  0  0  0  0  0
   55.2761   24.4897   45.0352 H   0  0  0  0  0  0  0  0  0  0  0  0
   56.1133   32.3406   44.0911 H   0  0  0  0  0  0  0  0  0  0  0  0
   57.6233   34.0820   45.0394 H   0  0  0  0  0  0  0  0  0  0  0  0
  1  2  1  0
  2  3  1  0
  3  4  1  0
  4  5  1  0
  5  6  1  0
  6  7  1  0
  7  8  1  0
  8  9  2  0
  8 10  1  0
 10 11  1  0
 11 12  2  0
 12 13  1  0
 13 14  1  0
 13 15  2  0
 15 16  1  0
 16 17  2  0
 17 18  1  0
  5 19  2  0
 19 20  1  0
 20 21  2  0
 21 22  1  0
 22 23  1  0
 23 24  2  0
 23 25  1  0
 25 26  1  0
 26 27  1  0
 27 28  1  0
 28 29  1  0
 22 30  2  0
 30 31  1  0
 31 32  2  0
 32 33  1  0
 33 34  2  0
 33  4  1  0
 17 11  1  0
 32 20  1  0
  1 35  1  0
  1 36  1  0
  1 37  1  0
  2 38  1  0
  2 39  1  0
  3 40  1  0
  3 41  1  0
  7 42  1  0
  7 43  1  0
 10 44  1  0
 12 45  1  0
 14 46  1  0
 14 47  1  0
 14 48  1  0
 15 49  1  0
 16 50  1  0
 18 51  1  0
 18 52  1  0
 18 53  1  0
 21 54  1  0
 26 55  1  0
 26 56  1  0
 27 57  1  0
 27 58  1  0
 29 59  1  0
 29 60  1  0
 29 61  1  0
 30 62  1  0
 31 63  1  0
M  CHG  1  25  -1
M  END
>  <UniqueID>  (37) 
37

>  <SMILES>  (37) 
CCCn1c(SCC(=O)Nc2cc(C)ccc2C)nc2cc(C(=O)[N-]CCOC)ccc2c1=O

>  <Energy>  (37) 
66.57117578578139

>  <Genealogy>  (37) 
CCCn1c(SCC(=O)Nc2cc(C)ccc2C)nc2cc(C(=O)[N-]CCOC)ccc2c1=O (protonated)
CCCn1c(SCC(=O)Nc2cc(C)ccc2C)nc2cc(C(=O)[N-]CCOC)ccc2c1=O (3D coordinates assigned)
CCCn1c(SCC(=O)Nc2cc(C)ccc2C)nc2cc(C(=O)[N-]CCOC)ccc2c1=O (optimized conformer: 66.57117578578139 kcal/mol)

>  <smiles>  (37) 
CCCn1c(SCC(=O)Nc2cc(C)ccc2C)nc2cc(C(=O)NCCOC)ccc2c1=O

>  <score_type>  (37) 
oracle

>  <origin>  (37) 
adg

>  <m_score__min__energy>  (37) 
-11.140000000000001

>  <m_primary>  (37) 
energy

$$$$
37:0
     RDKit          3D

 55 59  0  0  0  0  0  0  0  0999 V2000
   55.8860   31.0540   52.3290 C   0  0  0  0  0  0  0  0  0  0  0  0
   56.7030   30.1730   51.5650 O   0  0  0  0  0  0  0  0  0  0  0  0
   58.0090   30.4680   51.1480 C   0  0  0  0  0  0  0  0  0  0  0  0
   58.3300   31.7990   50.8590 C   0  0  0  0  0  0  0  0  0  0  0  0
   59.6160   32.1430   50.4310 C   0  0  0  0  0  0  0  0  0  0  0  0
   60.5940   31.1520   50.2660 C   0  0  0  0  0  0  0  0  0  0  0  0
   61.9500   31.5120   49.8150 C   0  0  0  0  0  0  0  0  0  0  0  0
   63.0550   31.3680   50.6600 C   0  0  0  0  0  0  0  0  0  0  0  0
   64.4160   32.0470   49.9300 S   0  0  0  0  0  0  0  0  0  0  0  0
   63.6130   32.5050   48.5330 C   0  0  0  0  0  0  0  0  0  0  0  0
   64.1470   33.1610   47.4760 N   0  0  0  0  0  0  0  0  0  0  0  0
   63.3480   33.4610   46.4150 C   0  0  0  0  0  0  0  0  0  0  0  0
   62.0410   33.0720   46.4100 N   0  0  0  0  0  0  0  0  0  0  0  0
   61.4780   32.4050   47.4590 C   0  0  0  0  0  0  0  0  0  0  0  0
   60.1340   31.9130   47.3260 N   0  0  0  0  0  0  0  0  0  0  0  0
   59.8800   30.4670   47.3380 C   0  0  0  0  0  0  0  0  0  0  0  0
   59.3120   30.0000   45.9840 C   0  0  0  0  0  0  0  0  0  0  0  0
   58.5410   31.0500   45.2640 N   0  0  0  0  0  0  0  0  0  0  0  0
   57.5050   30.4630   44.3930 C   0  0  0  0  0  0  0  0  0  0  0  0
   57.4440   28.9680   44.5720 C   0  0  0  0  0  0  0  0  0  0  0  0
   58.1740   28.1280   43.7160 C   0  0  0  0  0  0  0  0  0  0  0  0
   58.1430   26.7420   43.8940 C   0  0  0  0  0  0  0  0  0  0  0  0
   57.3870   26.1840   44.9290 C   0  0  0  0  0  0  0  0  0  0  0  0
   56.6630   27.0140   45.7900 C   0  0  0  0  0  0  0  0  0  0  0  0
   56.6910   28.4020   45.6150 C   0  0  0  0  0  0  0  0  0  0  0  0
   57.9480   32.0380   46.1860 C   0  0  0  0  0  0  0  0  0  0  0  0
   59.0760   32.8200   46.8640 C   0  0  0  0  0  0  0  0  0  0  0  0
   62.2800   32.1340   48.5870 C   0  0  0  0  0  0  0  0  0  0  0  0
   60.2860   29.8200   50.5840 C   0  0  0  0  0  0  0  0  0  0  0  0
   59.0010   29.4770   51.0140 C   0  0  0  0  0  0  0  0  0  0  0  0
   56.0540   30.8728   53.4009 H   0  0  0  0  0  0  0  0  0  0  0  0
   56.1450   32.0956   52.0882 H   0  0  0  0  0  0  0  0  0  0  0  0
   54.8279   30.8742   52.0882 H   0  0  0  0  0  0  0  0  0  0  0  0
   57.5644   32.5811   50.9694 H   0  0  0  0  0  0  0  0  0  0  0  0
   59.8612   33.1950   50.2230 H   0  0  0  0  0  0  0  0  0  0  0  0
   63.0392   30.8861   51.6487 H   0  0  0  0  0  0  0  0  0  0  0  0
   65.1540   33.4390   47.4730 H   0  0  0  0  0  0  0  0  0  0  0  0
   63.7578   34.0185   45.5599 H   0  0  0  0  0  0  0  0  0  0  0  0
   60.8233   29.9368   47.5355 H   0  0  0  0  0  0  0  0  0  0  0  0
   59.1439   30.2448   48.1246 H   0  0  0  0  0  0  0  0  0  0  0  0
   60.1507   29.6858   45.3454 H   0  0  0  0  0  0  0  0  0  0  0  0
   58.6137   29.1767   46.1953 H   0  0  0  0  0  0  0  0  0  0  0  0
   56.5279   30.8978   44.6504 H   0  0  0  0  0  0  0  0  0  0  0  0
   57.7567   30.6840   43.3452 H   0  0  0  0  0  0  0  0  0  0  0  0
   58.7728   28.5624   42.9019 H   0  0  0  0  0  0  0  0  0  0  0  0
   58.7147   26.0889   43.2182 H   0  0  0  0  0  0  0  0  0  0  0  0
   57.3618   25.0928   45.0658 H   0  0  0  0  0  0  0  0  0  0  0  0
   56.0704   26.5753   46.6063 H   0  0  0  0  0  0  0  0  0  0  0  0
   56.1219   29.0521   46.2958 H   0  0  0  0  0  0  0  0  0  0  0  0
   57.3052   32.7302   45.6224 H   0  0  0  0  0  0  0  0  0  0  0  0
   57.3415   31.5230   46.9456 H   0  0  0  0  0  0  0  0  0  0  0  0
   59.5023   33.5348   46.1448 H   0  0  0  0  0  0  0  0  0  0  0  0
   58.6631   33.3523   47.7336 H   0  0  0  0  0  0  0  0  0  0  0  0
   61.0592   29.0427   50.4944 H   0  0  0  0  0  0  0  0  0  0  0  0
   58.7635   28.4289   51.2487 H   0  0  0  0  0  0  0  0  0  0  0  0
  1  2  1  0
  2  3  1  0
  3  4  2  0
  4  5  1  0
  5  6  2  0
  6  7  1  0
  7  8  2  0
  8  9  1  0
  9 10  1  0
 10 11  2  0
 11 12  1  0
 12 13  2  0
 13 14  1  0
 14 15  1  0
 15 16  1  0
 16 17  1  0
 17 18  1  0
 18 19  1  0
 19 20  1  0
 20 21  2  0
 21 22  1  0
 22 23  2  0
 23 24  1  0
 24 25  2  0
 18 26  1  0
 26 27  1  0
 14 28  2  0
  6 29  1  0
 29 30  2  0
 30  3  1  0
 28  7  1  0
 28 10  1  0
 27 15  1  0
 25 20  1  0
  1 31  1  0
  1 32  1  0
  1 33  1  0
  4 34  1  0
  5 35  1  0
  8 36  1  0
 11 37  1  0
 12 38  1  0
 16 39  1  0
 16 40  1  0
 17 41  1  0
 17 42  1  0
 19 43  1  0
 19 44  1  0
 21 45  1  0
 22 46  1  0
 23 47  1  0
 24 48  1  0
 25 49  1  0
 26 50  1  0
 26 51  1  0
 27 52  1  0
 27 53  1  0
 29 54  1  0
 30 55  1  0
M  CHG  1  11   1
M  END
>  <UniqueID>  (38) 
38

>  <SMILES>  (38) 
COc1ccc(-c2csc3[nH+]cnc(N4CCN(Cc5ccccc5)CC4)c23)cc1

>  <Energy>  (38) 
109.76694016050976

>  <Genealogy>  (38) 
COc1ccc(-c2csc3[nH+]cnc(N4CCN(Cc5ccccc5)CC4)c23)cc1 (protonated)
COc1ccc(-c2csc3[nH+]cnc(N4CCN(Cc5ccccc5)CC4)c23)cc1 (3D coordinates assigned)
COc1ccc(-c2csc3[nH+]cnc(N4CCN(Cc5ccccc5)CC4)c23)cc1 (nonaromatic ring conformer: 109.76694016050976 kcal/mol)

>  <smiles>  (38) 
COc1ccc(-c2csc3ncnc(N4CCN(Cc5ccccc5)CC4)c23)cc1

>  <score_type>  (38) 
oracle

>  <origin>  (38) 
adg

>  <m_score__min__energy>  (38) 
-6.9100000000000001

>  <m_primary>  (38) 
energy

$$$$
38:0
     RDKit          3D

 38 41  0  0  0  0  0  0  0  0999 V2000
   57.0430   34.2250   44.7350 C   0  0  0  0  0  0  0  0  0  0  0  0
   58.0040   34.0620   45.8740 C   0  0  0  0  0  0  0  0  0  0  0  0
   59.1990   34.7950   45.9020 C   0  0  0  0  0  0  0  0  0  0  0  0
   60.1120   34.6180   46.9450 C   0  0  0  0  0  0  0  0  0  0  0  0
   59.8470   33.6970   47.9740 C   0  0  0  0  0  0  0  0  0  0  0  0
   60.8210   33.5040   49.0730 C   0  0  0  0  0  0  0  0  0  0  0  0
   60.4380   33.6640   50.4250 C   0  0  0  0  0  0  0  0  0  0  0  0
   61.3810   33.4660   51.4600 C   0  0  0  0  0  0  0  0  0  0  0  0
   62.6690   33.1150   51.1710 N   0  0  0  0  0  0  0  0  0  0  0  0
   63.0360   32.9780   49.8720 C   0  0  0  0  0  0  0  0  0  0  0  0
   62.1550   33.1460   48.8410 C   0  0  0  0  0  0  0  0  0  0  0  0
   62.8670   32.8200   47.7010 C   0  0  0  0  0  0  0  0  0  0  0  0
   64.1220   32.4810   48.0790 N   0  0  0  0  0  0  0  0  0  0  0  0
   64.2310   32.5770   49.4010 N   0  0  0  0  0  0  0  0  0  0  0  0
   65.4200   32.2650   50.1510 C   0  0  0  0  0  0  0  0  0  0  0  0
   65.4870   31.0870   50.9130 C   0  0  0  0  0  0  0  0  0  0  0  0
   66.6430   30.7780   51.6400 C   0  0  0  0  0  0  0  0  0  0  0  0
   67.7420   31.6390   51.6070 C   0  0  0  0  0  0  0  0  0  0  0  0
   67.6890   32.8100   50.8460 C   0  0  0  0  0  0  0  0  0  0  0  0
   66.5360   33.1230   50.1200 C   0  0  0  0  0  0  0  0  0  0  0  0
   58.6620   32.9440   47.9280 C   0  0  0  0  0  0  0  0  0  0  0  0
   57.7490   33.1230   46.8850 C   0  0  0  0  0  0  0  0  0  0  0  0
   56.0311   34.3966   45.1307 H   0  0  0  0  0  0  0  0  0  0  0  0
   57.3466   35.0845   44.1193 H   0  0  0  0  0  0  0  0  0  0  0  0
   57.0462   33.3135   44.1193 H   0  0  0  0  0  0  0  0  0  0  0  0
   59.4190   35.5133   45.0985 H   0  0  0  0  0  0  0  0  0  0  0  0
   61.0436   35.2027   46.9612 H   0  0  0  0  0  0  0  0  0  0  0  0
   59.4032   33.9434   50.6723 H   0  0  0  0  0  0  0  0  0  0  0  0
   61.0742   33.5959   52.5083 H   0  0  0  0  0  0  0  0  0  0  0  0
   62.4821   32.8337   46.6706 H   0  0  0  0  0  0  0  0  0  0  0  0
   64.8910   32.1920   47.4320 H   0  0  0  0  0  0  0  0  0  0  0  0
   64.6259   30.4030   50.9388 H   0  0  0  0  0  0  0  0  0  0  0  0
   66.6856   29.8557   52.2380 H   0  0  0  0  0  0  0  0  0  0  0  0
   68.6490   31.3956   52.1798 H   0  0  0  0  0  0  0  0  0  0  0  0
   68.5559   33.4865   50.8182 H   0  0  0  0  0  0  0  0  0  0  0  0
   66.5004   34.0449   49.5210 H   0  0  0  0  0  0  0  0  0  0  0  0
   58.4512   32.2084   48.7183 H   0  0  0  0  0  0  0  0  0  0  0  0
   56.8262   32.5250   46.8566 H   0  0  0  0  0  0  0  0  0  0  0  0
  1  2  1  0
  2  3  2  0
  3  4  1  0
  4  5  2  0
  5  6  1  0
  6  7  2  0
  7  8  1  0
  8  9  2  0
  9 10  1  0
 10 11  2  0
 11 12  1  0
 12 13  2  0
 13 14  1  0
 14 15  1  0
 15 16  2  0
 16 17  1  0
 17 18  2  0
 18 19  1  0
 19 20  2  0
  5 21  1  0
 21 22  2  0
 22  2  1  0
 11  6  1  0
 20 15  1  0
 14 10  1  0
  1 23  1  0
  1 24  1  0
  1 25  1  0
  3 26  1  0
  4 27  1  0
  7 28  1  0
  8 29  1  0
 12 30  1  0
 13 31  1  0
 16 32  1  0
 17 33  1  0
 18 34  1  0
 19 35  1  0
 20 36  1  0
 21 37  1  0
 22 38  1  0
M  CHG  1  13   1
M  END
>  <UniqueID>  (39) 
39

>  <SMILES>  (39) 
Cc1ccc(-c2ccnc3c2c[nH+]n3-c2ccccc2)cc1

>  <Energy>  (39) 
93.40503745342679

>  <Genealogy>  (39) 
Cc1ccc(-c2ccnc3c2c[nH+]n3-c2ccccc2)cc1 (protonated)
Cc1ccc(-c2ccnc3c2c[nH+]n3-c2ccccc2)cc1 (3D coordinates assigned)
Cc1ccc(-c2ccnc3c2c[nH+]n3-c2ccccc2)cc1 (optimized conformer: 93.40503745342679 kcal/mol)

>  <smiles>  (39) 
Cc1ccc(-c2ccnc3c2cnn3-c2ccccc2)cc1

>  <score_type>  (39) 
oracle

>  <origin>  (39) 
adg

>  <m_score__min__energy>  (39) 
-6.6299999999999999

>  <m_primary>  (39) 
energy

$$$$
39:0
     RDKit          3D

 41 43  0  0  0  0  0  0  0  0999 V2000
   57.4180   32.3560   40.7840 C   0  0  0  0  0  0  0  0  0  0  0  0
   57.4290   31.7510   42.1830 C   0  0  0  0  0  0  0  0  0  0  0  0
   56.5630   30.6200   42.2490 O   0  0  0  0  0  0  0  0  0  0  0  0
   56.2640   29.9450   43.4380 C   0  0  0  0  0  0  0  0  0  0  0  0
   55.1090   29.4810   43.6430 O   0  0  0  0  0  0  0  0  0  0  0  0
   57.3020   29.7840   44.4610 C   0  0  0  0  0  0  0  0  0  0  0  0
   58.3970   28.9470   44.3770 C   0  0  0  0  0  0  0  0  0  0  0  0
   59.0900   29.0850   45.5160 N   0  0  0  0  0  0  0  0  0  0  0  0
   58.4350   30.0060   46.2380 C   0  0  0  0  0  0  0  0  0  0  0  0
   57.3120   30.4530   45.6370 N   0  0  0  0  0  0  0  0  0  0  0  0
   58.8860   30.3990   47.6120 C   0  0  0  0  0  0  0  0  0  0  0  0
   60.3320   30.1200   47.8020 N   0  0  2  0  0  0  0  0  0  0  0  0
   61.1670   31.1570   47.1420 C   0  0  0  0  0  0  0  0  0  0  0  0
   60.4960   32.5120   47.1350 C   0  0  0  0  0  0  0  0  0  0  0  0
   59.9150   33.0150   45.9580 C   0  0  0  0  0  0  0  0  0  0  0  0
   59.3110   34.2770   45.9550 C   0  0  0  0  0  0  0  0  0  0  0  0
   59.2820   35.0440   47.1230 C   0  0  0  0  0  0  0  0  0  0  0  0
   59.8570   34.5490   48.2970 C   0  0  0  0  0  0  0  0  0  0  0  0
   60.4620   33.2880   48.3050 C   0  0  0  0  0  0  0  0  0  0  0  0
   60.6710   28.7350   47.3730 C   0  0  0  0  0  0  0  0  0  0  0  0
   60.3600   28.4710   45.8830 C   0  0  0  0  0  0  0  0  0  0  0  0
   57.3980   33.4532   40.8592 H   0  0  0  0  0  0  0  0  0  0  0  0
   58.3220   32.0420   40.2416 H   0  0  0  0  0  0  0  0  0  0  0  0
   56.5260   32.0093   40.2416 H   0  0  0  0  0  0  0  0  0  0  0  0
   58.4532   31.4368   42.4327 H   0  0  0  0  0  0  0  0  0  0  0  0
   57.0773   32.5084   42.8990 H   0  0  0  0  0  0  0  0  0  0  0  0
   58.6528   28.2897   43.5329 H   0  0  0  0  0  0  0  0  0  0  0  0
   58.7062   31.4748   47.7548 H   0  0  0  0  0  0  0  0  0  0  0  0
   58.3178   29.8102   48.3472 H   0  0  0  0  0  0  0  0  0  0  0  0
   60.5120   30.1770   48.8330 H   0  0  0  0  0  0  0  0  0  0  0  0
   62.1227   31.2378   47.6807 H   0  0  0  0  0  0  0  0  0  0  0  0
   61.3210   30.8513   46.0966 H   0  0  0  0  0  0  0  0  0  0  0  0
   59.9353   32.4146   45.0365 H   0  0  0  0  0  0  0  0  0  0  0  0
   58.8580   34.6664   45.0314 H   0  0  0  0  0  0  0  0  0  0  0  0
   58.8072   36.0362   47.1184 H   0  0  0  0  0  0  0  0  0  0  0  0
   59.8336   35.1524   49.2164 H   0  0  0  0  0  0  0  0  0  0  0  0
   60.9129   32.9026   49.2313 H   0  0  0  0  0  0  0  0  0  0  0  0
   61.7453   28.5690   47.5415 H   0  0  0  0  0  0  0  0  0  0  0  0
   60.0509   28.0462   47.9654 H   0  0  0  0  0  0  0  0  0  0  0  0
   61.1623   28.8981   45.2634 H   0  0  0  0  0  0  0  0  0  0  0  0
   60.2943   27.3855   45.7175 H   0  0  0  0  0  0  0  0  0  0  0  0
  1  2  1  0
  2  3  1  0
  3  4  1  0
  4  5  2  0
  4  6  1  0
  6  7  2  0
  7  8  1  0
  8  9  1  0
  9 10  2  0
  9 11  1  0
 11 12  1  0
 12 13  1  0
 13 14  1  0
 14 15  2  0
 15 16  1  0
 16 17  2  0
 17 18  1  0
 18 19  2  0
 12 20  1  0
 20 21  1  0
 10  6  1  0
 19 14  1  0
 21  8  1  0
  1 22  1  0
  1 23  1  0
  1 24  1  0
  2 25  1  0
  2 26  1  0
  7 27  1  0
 11 28  1  0
 11 29  1  0
 12 30  1  1
 13 31  1  0
 13 32  1  0
 15 33  1  0
 16 34  1  0
 17 35  1  0
 18 36  1  0
 19 37  1  0
 20 38  1  0
 20 39  1  0
 21 40  1  0
 21 41  1  0
M  CHG  1  12   1
M  END
>  <UniqueID>  (40) 
40

>  <SMILES>  (40) 
CCOC(=O)c1cn2c(n1)C[N@H+](Cc1ccccc1)CC2

>  <Energy>  (40) 
72.51757552912659

>  <Genealogy>  (40) 
CCOC(=O)c1cn2c(n1)C[NH+](Cc1ccccc1)CC2 (protonated)
CCOC(=O)c1cn2c(n1)C[N@H+](Cc1ccccc1)CC2 (chirality)
CCOC(=O)c1cn2c(n1)C[N@H+](Cc1ccccc1)CC2 (3D coordinates assigned)
CCOC(=O)c1cn2c(n1)C[N@H+](Cc1ccccc1)CC2 (nonaromatic ring conformer: 72.51757552912659 kcal/mol)

>  <smiles>  (40) 
CCOC(=O)c1cn2c(n1)CN(Cc1ccccc1)CC2

>  <score_type>  (40) 
oracle

>  <origin>  (40) 
adg

>  <m_score__min__energy>  (40) 
-5.21

>  <m_primary>  (40) 
energy

$$$$
40:0
     RDKit          3D

 45 47  0  0  0  0  0  0  0  0999 V2000
   60.2490   30.8870   47.2500 N   0  0  0  0  0  0  0  0  0  0  0  0
   59.5490   30.4840   46.4210 C   0  0  0  0  0  0  0  0  0  0  0  0
   58.6770   29.9790   45.3890 C   0  0  0  0  0  0  0  0  0  0  0  0
   58.9650   28.7410   44.7930 C   0  0  0  0  0  0  0  0  0  0  0  0
   58.1360   28.2370   43.7900 C   0  0  0  0  0  0  0  0  0  0  0  0
   57.0190   28.9670   43.3730 C   0  0  0  0  0  0  0  0  0  0  0  0
   56.7270   30.2040   43.9590 C   0  0  0  0  0  0  0  0  0  0  0  0
   57.5490   30.7190   44.9830 C   0  0  0  0  0  0  0  0  0  0  0  0
   57.3000   31.9560   45.6070 O   0  0  0  0  0  0  0  0  0  0  0  0
   57.3140   33.2460   44.9880 C   0  0  0  0  0  0  0  0  0  0  0  0
   58.0720   34.2670   45.8570 C   0  0  0  0  0  0  0  0  0  0  0  0
   59.2210   33.6770   46.5890 N   0  0  0  0  0  0  0  0  0  0  0  0
   59.1260   33.9260   48.0620 C   0  0  0  0  0  0  0  0  0  0  0  0
   60.4010   34.5090   48.6990 C   0  0  0  0  0  0  0  0  0  0  0  0
   61.5950   33.8340   48.1780 N   0  0  0  0  0  0  0  0  0  0  0  0
   62.7390   33.6000   49.0280 C   0  0  0  0  0  0  0  0  0  0  0  0
   62.8380   34.2270   50.2850 C   0  0  0  0  0  0  0  0  0  0  0  0
   63.9470   33.9980   51.1070 C   0  0  0  0  0  0  0  0  0  0  0  0
   64.9660   33.1380   50.6870 C   0  0  0  0  0  0  0  0  0  0  0  0
   66.0390   32.9160   51.4860 F   0  0  0  0  0  0  0  0  0  0  0  0
   64.8770   32.5060   49.4430 C   0  0  0  0  0  0  0  0  0  0  0  0
   63.7710   32.7330   48.6170 C   0  0  0  0  0  0  0  0  0  0  0  0
   61.6930   33.5780   46.7360 C   0  0  0  0  0  0  0  0  0  0  0  0
   60.4870   34.1640   45.9950 C   0  0  0  0  0  0  0  0  0  0  0  0
   59.8457   28.1672   45.1172 H   0  0  0  0  0  0  0  0  0  0  0  0
   58.3615   27.2649   43.3273 H   0  0  0  0  0  0  0  0  0  0  0  0
   56.3675   28.5678   42.5817 H   0  0  0  0  0  0  0  0  0  0  0  0
   55.8520   30.7775   43.6192 H   0  0  0  0  0  0  0  0  0  0  0  0
   57.8088   33.1696   44.0085 H   0  0  0  0  0  0  0  0  0  0  0  0
   56.2756   33.5891   44.8695 H   0  0  0  0  0  0  0  0  0  0  0  0
   58.4481   35.0692   45.2051 H   0  0  0  0  0  0  0  0  0  0  0  0
   57.3640   34.6427   46.6104 H   0  0  0  0  0  0  0  0  0  0  0  0
   59.2070   32.6410   46.4290 H   0  0  0  0  0  0  0  0  0  0  0  0
   58.3013   34.6324   48.2377 H   0  0  0  0  0  0  0  0  0  0  0  0
   58.9634   32.9454   48.5332 H   0  0  0  0  0  0  0  0  0  0  0  0
   60.4625   35.5824   48.4668 H   0  0  0  0  0  0  0  0  0  0  0  0
   60.3546   34.3566   49.7874 H   0  0  0  0  0  0  0  0  0  0  0  0
   62.0377   34.9017   50.6232 H   0  0  0  0  0  0  0  0  0  0  0  0
   64.0171   34.4956   52.0855 H   0  0  0  0  0  0  0  0  0  0  0  0
   65.6785   31.8287   49.1130 H   0  0  0  0  0  0  0  0  0  0  0  0
   63.7065   32.2314   47.6402 H   0  0  0  0  0  0  0  0  0  0  0  0
   62.6131   34.0407   46.3495 H   0  0  0  0  0  0  0  0  0  0  0  0
   61.7125   32.4905   46.5720 H   0  0  0  0  0  0  0  0  0  0  0  0
   60.5194   35.2614   46.0634 H   0  0  0  0  0  0  0  0  0  0  0  0
   60.5295   33.8460   44.9428 H   0  0  0  0  0  0  0  0  0  0  0  0
  1  2  3  0
  2  3  1  0
  3  4  2  0
  4  5  1  0
  5  6  2  0
  6  7  1  0
  7  8  2  0
  8  9  1  0
  9 10  1  0
 10 11  1  0
 11 12  1  0
 12 13  1  0
 13 14  1  0
 14 15  1  0
 15 16  1  0
 16 17  2  0
 17 18  1  0
 18 19  2  0
 19 20  1  0
 19 21  1  0
 21 22  2  0
 15 23  1  0
 23 24  1  0
  8  3  1  0
 24 12  1  0
 22 16  1  0
  4 25  1  0
  5 26  1  0
  6 27  1  0
  7 28  1  0
 10 29  1  0
 10 30  1  0
 11 31  1  0
 11 32  1  0
 12 33  1  0
 13 34  1  0
 13 35  1  0
 14 36  1  0
 14 37  1  0
 17 38  1  0
 18 39  1  0
 21 40  1  0
 22 41  1  0
 23 42  1  0
 23 43  1  0
 24 44  1  0
 24 45  1  0
M  CHG  1  12   1
M  END
>  <UniqueID>  (41) 
41

>  <SMILES>  (41) 
N#Cc1ccccc1OCC[NH+]1CCN(c2ccc(F)cc2)CC1

>  <Energy>  (41) 
59.12233953753633

>  <Genealogy>  (41) 
N#Cc1ccccc1OCC[NH+]1CCN(c2ccc(F)cc2)CC1 (protonated)
N#Cc1ccccc1OCC[NH+]1CCN(c2ccc(F)cc2)CC1 (3D coordinates assigned)
N#Cc1ccccc1OCC[NH+]1CCN(c2ccc(F)cc2)CC1 (nonaromatic ring conformer: 59.12233953753633 kcal/mol)

>  <smiles>  (41) 
N#Cc1ccccc1OCCN1CCN(c2ccc(F)cc2)CC1

>  <score_type>  (41) 
oracle

>  <origin>  (41) 
adg

>  <m_score__min__energy>  (41) 
-4.8499999999999996

>  <m_primary>  (41) 
energy

$$$$
41:0
     RDKit          3D

 22 22  0  0  0  0  0  0  0  0999 V2000
   54.7760   30.4570   45.5800 H   0  0  0  0  0  0  0  0  0  0  0  0
   55.3470   30.0530   44.8050 N   0  0  0  0  0  0  0  0  0  0  0  0
   56.3500   29.2570   45.0220 C   0  0  0  0  0  0  0  0  0  0  0  0
   57.6760   29.7520   44.9790 C   0  0  0  0  0  0  0  0  0  0  0  0
   57.9310   31.2230   44.6960 C   0  0  0  0  0  0  0  0  0  0  0  0
   57.2548   31.8312   45.3147 H   0  0  0  0  0  0  0  0  0  0  0  0
   58.9802   31.4502   44.9360 H   0  0  0  0  0  0  0  0  0  0  0  0
   57.6870   31.5450   43.2250 C   0  0  0  0  0  0  0  0  0  0  0  0
   57.0244   32.4195   43.1461 H   0  0  0  0  0  0  0  0  0  0  0  0
   58.6462   31.7663   42.7341 H   0  0  0  0  0  0  0  0  0  0  0  0
   57.2145   30.6814   42.7341 H   0  0  0  0  0  0  0  0  0  0  0  0
   58.7410   28.8570   45.2530 C   0  0  0  0  0  0  0  0  0  0  0  0
   60.1820   29.2990   45.2360 C   0  0  0  0  0  0  0  0  0  0  0  0
   60.5437   29.4099   46.2689 H   0  0  0  0  0  0  0  0  0  0  0  0
   60.7903   28.5461   44.7134 H   0  0  0  0  0  0  0  0  0  0  0  0
   60.2636   30.2635   44.7134 H   0  0  0  0  0  0  0  0  0  0  0  0
   58.4540   27.5100   45.5180 C   0  0  0  0  0  0  0  0  0  0  0  0
   59.2721   26.8011   45.7131 H   0  0  0  0  0  0  0  0  0  0  0  0
   57.1340   27.0710   45.5340 C   0  0  0  0  0  0  0  0  0  0  0  0
   56.9117   26.0142   45.7432 H   0  0  0  0  0  0  0  0  0  0  0  0
   56.1190   27.9390   45.2930 N   0  0  0  0  0  0  0  0  0  0  0  0
   55.1400   27.5730   45.3210 H   0  0  0  0  0  0  0  0  0  0  0  0
  1  2  1  0
  2  3  2  0
  3  4  1  0
  4  5  1  0
  5  6  1  0
  5  7  1  0
  5  8  1  0
  8  9  1  0
  8 10  1  0
  8 11  1  0
  4 12  2  0
 12 13  1  0
 13 14  1  0
 13 15  1  0
 13 16  1  0
 12 17  1  0
 17 18  1  0
 17 19  2  0
 19 20  1  0
 19 21  1  0
 21 22  1  0
 21  3  1  0
M  END
>  <UniqueID>  (42) 
42

>  <SMILES>  (42) 
[H]/N=c1\[nH]ccc(C)c1CC

>  <Energy>  (42) 
20.072482946763866

>  <Genealogy>  (42) 
[H]/N=c1\[nH]ccc(C)c1CC (cis-trans isomerization)
[H]/N=c1\[nH]ccc(C)c1CC (3D coordinates assigned)
[H]/N=c1\[nH]ccc(C)c1CC (optimized conformer: 20.072482946763866 kcal/mol)

>  <smiles>  (42) 
CCc1c(C)cc[nH]c1=N

>  <score_type>  (42) 
oracle

>  <origin>  (42) 
adg

>  <m_score__min__energy>  (42) 
-5.1500000000000004

>  <m_primary>  (42) 
energy

$$$$
42:0
     RDKit          3D

 59 61  0  0  1  0  0  0  0  0999 V2000
   59.6390   33.6050   49.2450 C   0  0  0  0  0  0  0  0  0  0  0  0
   60.9560   34.2290   48.7630 C   0  0  0  0  0  0  0  0  0  0  0  0
   61.4320   33.3740   47.7180 N   0  0  0  0  0  0  0  0  0  0  0  0
   62.7020   33.8400   47.2300 C   0  0  0  0  0  0  0  0  0  0  0  0
   63.7550   32.7440   47.1430 C   0  0  0  0  0  0  0  0  0  0  0  0
   60.5000   33.0550   46.6970 C   0  0  0  0  0  0  0  0  0  0  0  0
   60.1790   34.2290   45.8180 C   0  0  0  0  0  0  0  0  0  0  0  0
   58.9840   34.8230   46.1650 O   0  0  0  0  0  0  0  0  0  0  0  0
   57.9630   34.5800   45.2930 C   0  0  0  0  0  0  0  0  0  0  0  0
   58.2720   33.2520   44.4950 C   0  0  0  0  0  0  0  0  0  0  0  0
   57.4900   32.3350   45.2270 N   0  0  0  0  0  0  0  0  0  0  0  0
   57.3580   31.1020   45.0760 C   0  0  0  0  0  0  0  0  0  0  0  0
   56.6780   30.6710   44.0000 N   0  0  0  0  0  0  0  0  0  0  0  0
   56.5080   29.3660   43.7960 C   0  0  0  0  0  0  0  0  0  0  0  0
   57.0060   28.4600   44.6490 N   0  0  0  0  0  0  0  0  0  0  0  0
   57.6850   28.8900   45.7250 C   0  0  0  0  0  0  0  0  0  0  0  0
   58.1700   27.9160   46.5720 C   0  0  0  0  0  0  0  0  0  0  0  0
   58.8580   28.3800   47.6730 C   0  0  0  0  0  0  0  0  0  0  0  0
   59.0790   29.6870   47.9600 C   0  0  0  0  0  0  0  0  0  0  0  0
   59.8090   30.0350   49.1680 C   0  0  0  0  0  0  0  0  0  0  0  0
   61.1820   30.1740   49.0420 C   0  0  0  0  0  0  0  0  0  0  0  0
   61.9920   30.5000   50.1080 C   0  0  0  0  0  0  0  0  0  0  0  0
   61.3940   30.6900   51.3230 C   0  0  0  0  0  0  0  0  0  0  0  0
   60.0200   30.5530   51.4530 C   0  0  0  0  0  0  0  0  0  0  0  0
   59.1970   30.2260   50.3950 C   0  0  0  0  0  0  0  0  0  0  0  0
   57.8290   30.0870   50.5170 O   0  0  0  0  0  0  0  0  0  0  0  0
   57.1680   30.6620   51.5980 C   0  0  0  0  0  0  0  0  0  0  0  0
   58.5800   30.6830   47.0850 C   0  0  0  0  0  0  0  0  0  0  0  0
   57.8990   30.2410   45.9970 C   0  0  0  0  0  0  0  0  0  0  0  0
   59.6187   33.5954   50.3448 H   0  0  0  0  0  0  0  0  0  0  0  0
   58.7927   34.1979   48.8678 H   0  0  0  0  0  0  0  0  0  0  0  0
   59.5618   32.5746   48.8678 H   0  0  0  0  0  0  0  0  0  0  0  0
   60.7806   35.2442   48.3775 H   0  0  0  0  0  0  0  0  0  0  0  0
   61.6868   34.3152   49.5806 H   0  0  0  0  0  0  0  0  0  0  0  0
   62.5555   34.2634   46.2254 H   0  0  0  0  0  0  0  0  0  0  0  0
   63.0706   34.5885   47.9468 H   0  0  0  0  0  0  0  0  0  0  0  0
   64.0497   32.4373   48.1574 H   0  0  0  0  0  0  0  0  0  0  0  0
   63.3404   31.8791   46.6043 H   0  0  0  0  0  0  0  0  0  0  0  0
   64.6358   33.1236   46.6043 H   0  0  0  0  0  0  0  0  0  0  0  0
   60.9221   32.2533   46.0732 H   0  0  0  0  0  0  0  0  0  0  0  0
   59.5661   32.7409   47.1860 H   0  0  0  0  0  0  0  0  0  0  0  0
   60.9848   34.9722   45.9098 H   0  0  0  0  0  0  0  0  0  0  0  0
   60.0895   33.8646   44.7840 H   0  0  0  0  0  0  0  0  0  0  0  0
   57.0217   34.4646   45.8504 H   0  0  0  0  0  0  0  0  0  0  0  0
   57.8664   35.4212   44.5908 H   0  0  0  0  0  0  0  0  0  0  0  0
   57.9453   33.3208   43.4469 H   0  0  0  0  0  0  0  0  0  0  0  0
   59.3389   32.9944   44.4222 H   0  0  0  0  0  0  0  0  0  0  0  0
   55.9490   29.0256   42.9119 H   0  0  0  0  0  0  0  0  0  0  0  0
   56.8470   27.4320   44.4510 H   0  0  0  0  0  0  0  0  0  0  0  0
   58.0185   26.8431   46.3824 H   0  0  0  0  0  0  0  0  0  0  0  0
   59.2588   27.6321   48.3730 H   0  0  0  0  0  0  0  0  0  0  0  0
   61.6420   30.0184   48.0550 H   0  0  0  0  0  0  0  0  0  0  0  0
   63.0803   30.6037   49.9860 H   0  0  0  0  0  0  0  0  0  0  0  0
   62.0044   30.9522   52.1997 H   0  0  0  0  0  0  0  0  0  0  0  0
   59.5667   30.7119   52.4426 H   0  0  0  0  0  0  0  0  0  0  0  0
   57.6017   30.2847   52.5358 H   0  0  0  0  0  0  0  0  0  0  0  0
   57.2793   31.7556   51.5564 H   0  0  0  0  0  0  0  0  0  0  0  0
   56.1004   30.4003   51.5564 H   0  0  0  0  0  0  0  0  0  0  0  0
   58.7357   31.7550   47.2765 H   0  0  0  0  0  0  0  0  0  0  0  0
  1  2  1  0
  2  3  1  0
  3  4  1  0
  4  5  1  0
  3  6  1  0
  6  7  1  0
  7  8  1  0
  8  9  1  0
  9 10  1  0
 10 11  1  0
 11 12  2  0
 12 13  1  0
 13 14  2  0
 14 15  1  0
 15 16  1  0
 16 17  2  0
 17 18  1  0
 18 19  2  0
 19 20  1  0
 20 21  2  0
 21 22  1  0
 22 23  2  0
 23 24  1  0
 24 25  2  0
 25 26  1  0
 26 27  1  0
 19 28  1  0
 28 29  2  0
 29 12  1  0
 29 16  1  0
 25 20  1  0
  1 30  1  0
  1 31  1  0
  1 32  1  0
  2 33  1  0
  2 34  1  0
  4 35  1  0
  4 36  1  0
  5 37  1  0
  5 38  1  0
  5 39  1  0
  6 40  1  0
  6 41  1  0
  7 42  1  0
  7 43  1  0
  9 44  1  0
  9 45  1  0
 10 46  1  0
 10 47  1  0
 14 48  1  0
 15 49  1  0
 17 50  1  0
 18 51  1  0
 21 52  1  0
 22 53  1  0
 23 54  1  0
 24 55  1  0
 27 56  1  0
 27 57  1  0
 27 58  1  0
 28 59  1  0
M  END
>  <smiles>  (43) 
CCN(CC)CCOCCN=c1nc[nH]c2ccc(-c3ccccc3OC)cc12

>  <score_type>  (43) 
oracle

>  <origin>  (43) 
adg

>  <m_score__min__energy>  (43) 
-7.4299999999999997

>  <m_primary>  (43) 
energy

$$$$
43:0
     RDKit          3D

 31 32  0  0  0  0  0  0  0  0999 V2000
   59.3130   34.9650   47.3920 C   0  0  0  0  0  0  0  0  0  0  0  0
   59.2550   34.5890   46.2480 C   0  0  0  0  0  0  0  0  0  0  0  0
   59.1900   34.1290   44.8550 C   0  0  0  0  0  0  0  0  0  0  0  0
   57.7880   33.6300   44.4780 C   0  0  0  0  0  0  0  0  0  0  0  0
   57.7730   32.3380   43.6390 C   0  0  0  0  0  0  0  0  0  0  0  0
   57.4000   31.1610   44.4410 N   0  0  0  0  0  0  0  0  0  0  0  0
   56.3740   30.2410   43.9990 C   0  0  0  0  0  0  0  0  0  0  0  0
   56.3300   29.7130   42.5960 C   0  0  0  0  0  0  0  0  0  0  0  0
   55.5120   29.8230   44.8190 O   0  0  0  0  0  0  0  0  0  0  0  0
   58.1780   30.8480   45.6120 C   0  0  0  0  0  0  0  0  0  0  0  0
   58.1650   31.6830   46.6920 N   0  0  0  0  0  0  0  0  0  0  0  0
   58.8730   31.4000   47.8260 C   0  0  0  0  0  0  0  0  0  0  0  0
   59.6090   30.2550   47.9140 N   0  0  0  0  0  0  0  0  0  0  0  0
   59.6370   29.3980   46.8620 C   0  0  0  0  0  0  0  0  0  0  0  0
   60.3170   28.1800   46.8370 C   0  0  0  0  0  0  0  0  0  0  0  0
   60.1280   27.4900   45.6410 C   0  0  0  0  0  0  0  0  0  0  0  0
   59.1180   28.4000   44.6310 S   0  0  0  0  0  0  0  0  0  0  0  0
   58.9330   29.6770   45.7080 C   0  0  0  0  0  0  0  0  0  0  0  0
   59.3659   35.3081   48.4358 H   0  0  0  0  0  0  0  0  0  0  0  0
   59.4595   34.9646   44.1923 H   0  0  0  0  0  0  0  0  0  0  0  0
   59.8910   33.2889   44.7420 H   0  0  0  0  0  0  0  0  0  0  0  0
   57.2288   33.4429   45.4066 H   0  0  0  0  0  0  0  0  0  0  0  0
   57.3350   34.4137   43.8530 H   0  0  0  0  0  0  0  0  0  0  0  0
   57.0466   32.4546   42.8212 H   0  0  0  0  0  0  0  0  0  0  0  0
   58.7890   32.1748   43.2503 H   0  0  0  0  0  0  0  0  0  0  0  0
   56.2387   28.6170   42.6194 H   0  0  0  0  0  0  0  0  0  0  0  0
   55.4645   30.1419   42.0698 H   0  0  0  0  0  0  0  0  0  0  0  0
   57.2546   29.9928   42.0698 H   0  0  0  0  0  0  0  0  0  0  0  0
   58.8492   32.1005   48.6738 H   0  0  0  0  0  0  0  0  0  0  0  0
   60.9332   27.8063   47.6681 H   0  0  0  0  0  0  0  0  0  0  0  0
   60.5647   26.5114   45.3928 H   0  0  0  0  0  0  0  0  0  0  0  0
  1  2  3  0
  2  3  1  0
  3  4  1  0
  4  5  1  0
  5  6  1  0
  6  7  1  0
  7  8  1  0
  7  9  2  0
  6 10  1  0
 10 11  2  0
 11 12  1  0
 12 13  2  0
 13 14  1  0
 14 15  1  0
 15 16  2  0
 16 17  1  0
 17 18  1  0
 18 10  1  0
 18 14  2  0
  1 19  1  0
  3 20  1  0
  3 21  1  0
  4 22  1  0
  4 23  1  0
  5 24  1  0
  5 25  1  0
  8 26  1  0
  8 27  1  0
  8 28  1  0
 12 29  1  0
 15 30  1  0
 16 31  1  0
M  END
>  <UniqueID>  (44) 
43

>  <SMILES>  (44) 
C#CCCCN(C(C)=O)c1ncnc2ccsc12

>  <Energy>  (44) 
63.12024016505813

>  <Genealogy>  (44) 
C#CCCCN(C(C)=O)c1ncnc2ccsc12 (3D coordinates assigned)
C#CCCCN(C(C)=O)c1ncnc2ccsc12 (optimized conformer: 63.12024016505813 kcal/mol)

>  <smiles>  (44) 
C#CCCCN(C(C)=O)c1ncnc2ccsc12

>  <score_type>  (44) 
oracle

>  <origin>  (44) 
adg

>  <m_score__min__energy>  (44) 
-6.0499999999999998

>  <m_primary>  (44) 
energy

$$$$
44:0
     RDKit          3D

 60 63  0  0  0  0  0  0  0  0999 V2000
   56.2440   29.7380   42.5520 C   0  0  0  0  0  0  0  0  0  0  0  0
   57.3720   30.3400   43.1720 O   0  0  0  0  0  0  0  0  0  0  0  0
   57.9770   29.8790   44.3510 C   0  0  0  0  0  0  0  0  0  0  0  0
   58.4110   28.5480   44.4850 C   0  0  0  0  0  0  0  0  0  0  0  0
   58.9780   28.1040   45.6770 C   0  0  0  0  0  0  0  0  0  0  0  0
   59.1430   28.9800   46.7560 C   0  0  0  0  0  0  0  0  0  0  0  0
   59.7390   28.5020   48.0310 C   0  0  0  0  0  0  0  0  0  0  0  0
   60.1680   27.1660   48.1620 C   0  0  0  0  0  0  0  0  0  0  0  0
   60.7250   26.7170   49.3630 C   0  0  0  0  0  0  0  0  0  0  0  0
   60.8660   27.5910   50.4420 C   0  0  0  0  0  0  0  0  0  0  0  0
   60.4420   28.9170   50.3250 C   0  0  0  0  0  0  0  0  0  0  0  0
   60.5720   29.7640   51.3760 F   0  0  0  0  0  0  0  0  0  0  0  0
   59.8840   29.3720   49.1270 C   0  0  0  0  0  0  0  0  0  0  0  0
   58.7340   30.3150   46.6160 C   0  0  0  0  0  0  0  0  0  0  0  0
   58.1330   30.7680   45.4330 C   0  0  0  0  0  0  0  0  0  0  0  0
   57.6690   32.1770   45.3350 C   0  0  0  0  0  0  0  0  0  0  0  0
   57.4860   32.6910   44.2000 O   0  0  0  0  0  0  0  0  0  0  0  0
   57.4540   32.9950   46.4960 N   0  0  0  0  0  0  0  0  0  0  0  0
   58.3930   33.1770   47.5670 C   0  0  0  0  0  0  0  0  0  0  0  0
   58.2410   32.4050   48.7260 C   0  0  0  0  0  0  0  0  0  0  0  0
   59.0830   32.6010   49.8240 C   0  0  0  0  0  0  0  0  0  0  0  0
   60.0940   33.5720   49.7750 C   0  0  0  0  0  0  0  0  0  0  0  0
   60.9700   33.8240   50.9820 C   0  0  0  0  0  0  0  0  0  0  0  0
   62.3260   33.2390   50.8440 N   0  0  0  0  0  0  0  0  0  0  0  0
   63.1870   34.1590   50.0470 C   0  0  0  0  0  0  0  0  0  0  0  0
   64.2410   33.4130   49.2070 C   0  0  0  0  0  0  0  0  0  0  0  0
   63.6230   32.4500   48.2620 N   0  0  0  0  0  0  0  0  0  0  0  0
   63.4350   33.0460   46.9310 C   0  0  0  0  0  0  0  0  0  0  0  0
   62.3500   31.8730   48.7550 C   0  0  0  0  0  0  0  0  0  0  0  0
   62.2890   31.8610   50.2850 C   0  0  0  0  0  0  0  0  0  0  0  0
   60.2720   34.3200   48.5980 C   0  0  0  0  0  0  0  0  0  0  0  0
   59.4430   34.1180   47.4910 C   0  0  0  0  0  0  0  0  0  0  0  0
   59.8060   34.9970   46.0090 Cl  0  0  0  0  0  0  0  0  0  0  0  0
   55.5537   29.3696   43.3252 H   0  0  0  0  0  0  0  0  0  0  0  0
   55.7297   30.4816   41.9254 H   0  0  0  0  0  0  0  0  0  0  0  0
   56.5754   28.8968   41.9254 H   0  0  0  0  0  0  0  0  0  0  0  0
   58.3016   27.8514   43.6407 H   0  0  0  0  0  0  0  0  0  0  0  0
   59.2988   27.0561   45.7713 H   0  0  0  0  0  0  0  0  0  0  0  0
   60.0640   26.4726   47.3144 H   0  0  0  0  0  0  0  0  0  0  0  0
   61.0532   25.6714   49.4579 H   0  0  0  0  0  0  0  0  0  0  0  0
   61.3105   27.2361   51.3835 H   0  0  0  0  0  0  0  0  0  0  0  0
   59.5557   30.4183   49.0405 H   0  0  0  0  0  0  0  0  0  0  0  0
   58.8874   31.0178   47.4482 H   0  0  0  0  0  0  0  0  0  0  0  0
   57.4530   31.6388   48.7722 H   0  0  0  0  0  0  0  0  0  0  0  0
   58.9524   31.9914   50.7303 H   0  0  0  0  0  0  0  0  0  0  0  0
   61.0692   34.9104   51.1228 H   0  0  0  0  0  0  0  0  0  0  0  0
   60.4888   33.3412   51.8454 H   0  0  0  0  0  0  0  0  0  0  0  0
   62.7470   33.1730   51.8020 H   0  0  0  0  0  0  0  0  0  0  0  0
   62.5456   34.7415   49.3693 H   0  0  0  0  0  0  0  0  0  0  0  0
   63.7255   34.8054   50.7557 H   0  0  0  0  0  0  0  0  0  0  0  0
   64.8229   34.1492   48.6331 H   0  0  0  0  0  0  0  0  0  0  0  0
   64.8836   32.8457   49.8964 H   0  0  0  0  0  0  0  0  0  0  0  0
   63.1057   34.0899   47.0399 H   0  0  0  0  0  0  0  0  0  0  0  0
   64.3859   33.0172   46.3787 H   0  0  0  0  0  0  0  0  0  0  0  0
   62.6728   32.4768   46.3787 H   0  0  0  0  0  0  0  0  0  0  0  0
   61.5132   32.4740   48.3695 H   0  0  0  0  0  0  0  0  0  0  0  0
   62.2846   30.8336   48.4009 H   0  0  0  0  0  0  0  0  0  0  0  0
   61.3559   31.3721   50.6015 H   0  0  0  0  0  0  0  0  0  0  0  0
   63.1658   31.3131   50.6606 H   0  0  0  0  0  0  0  0  0  0  0  0
   61.0726   35.0726   48.5478 H   0  0  0  0  0  0  0  0  0  0  0  0
  1  2  1  0
  2  3  1  0
  3  4  2  0
  4  5  1  0
  5  6  2  0
  6  7  1  0
  7  8  2  0
  8  9  1  0
  9 10  2  0
 10 11  1  0
 11 12  1  0
 11 13  2  0
  6 14  1  0
 14 15  2  0
 15 16  1  0
 16 17  2  0
 16 18  1  0
 18 19  1  0
 19 20  2  0
 20 21  1  0
 21 22  2  0
 22 23  1  0
 23 24  1  0
 24 25  1  0
 25 26  1  0
 26 27  1  0
 27 28  1  0
 27 29  1  0
 29 30  1  0
 22 31  1  0
 31 32  2  0
 32 33  1  0
 15  3  1  0
 32 19  1  0
 13  7  1  0
 30 24  1  0
  1 34  1  0
  1 35  1  0
  1 36  1  0
  4 37  1  0
  5 38  1  0
  8 39  1  0
  9 40  1  0
 10 41  1  0
 13 42  1  0
 14 43  1  0
 20 44  1  0
 21 45  1  0
 23 46  1  0
 23 47  1  0
 24 48  1  0
 25 49  1  0
 25 50  1  0
 26 51  1  0
 26 52  1  0
 28 53  1  0
 28 54  1  0
 28 55  1  0
 29 56  1  0
 29 57  1  0
 30 58  1  0
 30 59  1  0
 31 60  1  0
M  CHG  2  18  -1  24   1
M  END
>  <UniqueID>  (45) 
44

>  <SMILES>  (45) 
COc1ccc(-c2cccc(F)c2)cc1C(=O)[N-]c1ccc(C[NH+]2CCN(C)CC2)cc1Cl

>  <Energy>  (45) 
92.27425626499733

>  <Genealogy>  (45) 
COc1ccc(-c2cccc(F)c2)cc1C(=O)[N-]c1ccc(C[NH+]2CCN(C)CC2)cc1Cl (protonated)
COc1ccc(-c2cccc(F)c2)cc1C(=O)[N-]c1ccc(C[NH+]2CCN(C)CC2)cc1Cl (3D coordinates assigned)
COc1ccc(-c2cccc(F)c2)cc1C(=O)[N-]c1ccc(C[NH+]2CCN(C)CC2)cc1Cl (nonaromatic ring conformer: 92.27425626499733 kcal/mol)

>  <smiles>  (45) 
COc1ccc(-c2cccc(F)c2)cc1C(=O)Nc1ccc(CN2CCN(C)CC2)cc1Cl

>  <score_type>  (45) 
oracle

>  <origin>  (45) 
adg

>  <m_score__min__energy>  (45) 
-8.8800000000000008

>  <m_primary>  (45) 
energy

$$$$
