0:0
     RDKit          3D

 29 31  0  0  0  0  0  0  0  0999 V2000
   55.2720   24.7010   45.5700 C   0  0  0  0  0  0  0  0  0  0  0  0
   55.5200   26.0300   46.0160 O   0  0  0  0  0  0  0  0  0  0  0  0
   56.7690   26.6680   45.9610 C   0  0  0  0  0  0  0  0  0  0  0  0
   57.9170   25.8720   45.9750 C   0  0  0  0  0  0  0  0  0  0  0  0
   59.1830   26.4560   45.9220 C   0  0  0  0  0  0  0  0  0  0  0  0
   59.3130   27.8440   45.8570 C   0  0  0  0  0  0  0  0  0  0  0  0
   58.1750   28.6710   45.8420 C   0  0  0  0  0  0  0  0  0  0  0  0
   58.3370   30.1460   45.7720 C   0  0  0  0  0  0  0  0  0  0  0  0
   57.3990   30.9590   45.2110 N   0  0  0  0  0  0  0  0  0  0  0  0
   57.9300   32.1850   45.3550 C   0  0  0  0  0  0  0  0  0  0  0  0
   57.3860   33.4030   44.9520 C   0  0  0  0  0  0  0  0  0  0  0  0
   58.1330   34.5690   45.2120 C   0  0  0  0  0  0  0  0  0  0  0  0
   59.3880   34.4860   45.8590 C   0  0  0  0  0  0  0  0  0  0  0  0
   59.9050   33.2370   46.2520 C   0  0  0  0  0  0  0  0  0  0  0  0
   59.1370   32.1070   45.9780 C   0  0  0  0  0  0  0  0  0  0  0  0
   59.4140   30.8270   46.2510 N   0  0  0  0  0  0  0  0  0  0  0  0
   56.9010   28.0690   45.8960 C   0  0  0  0  0  0  0  0  0  0  0  0
   55.1485   24.0393   46.4400 H   0  0  0  0  0  0  0  0  0  0  0  0
   54.3550   24.6832   44.9627 H   0  0  0  0  0  0  0  0  0  0  0  0
   56.1208   24.3536   44.9627 H   0  0  0  0  0  0  0  0  0  0  0  0
   57.8221   24.7774   46.0282 H   0  0  0  0  0  0  0  0  0  0  0  0
   60.0810   25.8208   45.9315 H   0  0  0  0  0  0  0  0  0  0  0  0
   60.3151   28.2958   45.8171 H   0  0  0  0  0  0  0  0  0  0  0  0
   56.4089   33.4523   44.4492 H   0  0  0  0  0  0  0  0  0  0  0  0
   57.7377   35.5500   44.9099 H   0  0  0  0  0  0  0  0  0  0  0  0
   59.9633   35.4026   46.0562 H   0  0  0  0  0  0  0  0  0  0  0  0
   60.8791   33.1561   46.7566 H   0  0  0  0  0  0  0  0  0  0  0  0
   60.2700   30.4650   46.7240 H   0  0  0  0  0  0  0  0  0  0  0  0
   56.0003   28.7004   45.8873 H   0  0  0  0  0  0  0  0  0  0  0  0
  1  2  1  0
  2  3  1  0
  3  4  2  0
  4  5  1  0
  5  6  2  0
  6  7  1  0
  7  8  1  0
  8  9  2  0
  9 10  1  0
 10 11  2  0
 11 12  1  0
 12 13  2  0
 13 14  1  0
 14 15  2  0
 15 16  1  0
  7 17  2  0
 17  3  1  0
 16  8  1  0
 15 10  1  0
  1 18  1  0
  1 19  1  0
  1 20  1  0
  4 21  1  0
  5 22  1  0
  6 23  1  0
 11 24  1  0
 12 25  1  0
 13 26  1  0
 14 27  1  0
 16 28  1  0
 17 29  1  0
M  END
>  <UniqueID>  (1) 
1

>  <SMILES>  (1) 
COc1cccc(-c2nc3ccccc3[nH]2)c1

>  <Energy>  (1) 
69.10080681685898

>  <Genealogy>  (1) 
COc1cccc(-c2nc3ccccc3[nH]2)c1 (3D coordinates assigned)
COc1cccc(-c2nc3ccccc3[nH]2)c1 (optimized conformer: 69.10080681685898 kcal/mol)

>  <smiles>  (1) 
COc1cccc(-c2nc3ccccc3[nH]2)c1

>  <score_type>  (1) 
oracle

>  <origin>  (1) 
adg

>  <m_score__min__energy>  (1) 
-6.4900000000000002

>  <m_primary>  (1) 
energy

$$$$
1:0
     RDKit          3D

 53 54  0  0  0  0  0  0  0  0999 V2000
   56.3300   29.7650   42.6760 C   0  0  0  0  0  0  0  0  0  0  0  0
   55.8970   30.0720   44.1080 C   0  0  0  0  0  0  0  0  0  0  0  0
   57.0210   30.6180   44.8970 N   0  0  0  0  0  0  0  0  0  0  0  0
   57.6230   29.5570   45.7230 C   0  0  0  0  0  0  0  0  0  0  0  0
   58.0470   31.2750   44.0480 C   0  0  0  0  0  0  0  0  0  0  0  0
   57.7300   32.7690   43.9020 C   0  0  0  0  0  0  0  0  0  0  0  0
   58.8650   33.6510   44.4640 C   0  0  0  0  0  0  0  0  0  0  0  0
   58.4490   34.4760   45.6310 N   0  0  2  0  0  0  0  0  0  0  0  0
   59.6280   35.1410   46.2670 C   0  0  0  0  0  0  0  0  0  0  0  0
   60.0010   34.5930   47.6610 C   0  0  0  0  0  0  0  0  0  0  0  0
   59.8550   33.0680   47.7390 C   0  0  2  0  0  0  0  0  0  0  0  0
   60.8280   32.4780   46.8910 O   0  0  0  0  0  0  0  0  0  0  0  0
   61.4170   31.3410   47.4920 C   0  0  0  0  0  0  0  0  0  0  0  0
   62.4790   31.7590   48.4840 C   0  0  0  0  0  0  0  0  0  0  0  0
   62.5520   31.0750   49.7110 C   0  0  0  0  0  0  0  0  0  0  0  0
   63.5270   31.4100   50.6540 C   0  0  0  0  0  0  0  0  0  0  0  0
   64.4410   32.4280   50.3830 C   0  0  0  0  0  0  0  0  0  0  0  0
   64.3860   33.1150   49.1680 C   0  0  0  0  0  0  0  0  0  0  0  0
   63.4130   32.7880   48.2130 C   0  0  0  0  0  0  0  0  0  0  0  0
   63.3990   33.5210   46.9700 C   0  0  0  0  0  0  0  0  0  0  0  0
   63.3880   34.1100   45.9730 N   0  0  0  0  0  0  0  0  0  0  0  0
   58.4300   32.6210   47.3290 C   0  0  0  0  0  0  0  0  0  0  0  0
   57.6300   33.7290   46.6180 C   0  0  0  0  0  0  0  0  0  0  0  0
   57.2272   29.1289   42.6926 H   0  0  0  0  0  0  0  0  0  0  0  0
   55.5178   29.2398   42.1520 H   0  0  0  0  0  0  0  0  0  0  0  0
   56.5568   30.7052   42.1520 H   0  0  0  0  0  0  0  0  0  0  0  0
   55.0811   30.8095   44.0866 H   0  0  0  0  0  0  0  0  0  0  0  0
   55.5600   29.1371   44.5797 H   0  0  0  0  0  0  0  0  0  0  0  0
   57.4859   29.7987   46.7873 H   0  0  0  0  0  0  0  0  0  0  0  0
   57.1351   28.5968   45.4992 H   0  0  0  0  0  0  0  0  0  0  0  0
   58.6975   29.4833   45.4992 H   0  0  0  0  0  0  0  0  0  0  0  0
   59.0360   31.1565   44.5146 H   0  0  0  0  0  0  0  0  0  0  0  0
   58.0452   30.8069   43.0526 H   0  0  0  0  0  0  0  0  0  0  0  0
   57.5924   33.0017   42.8357 H   0  0  0  0  0  0  0  0  0  0  0  0
   56.8147   32.9827   44.4734 H   0  0  0  0  0  0  0  0  0  0  0  0
   59.6927   32.9972   44.7763 H   0  0  0  0  0  0  0  0  0  0  0  0
   59.1630   34.3455   43.6647 H   0  0  0  0  0  0  0  0  0  0  0  0
   57.8360   35.2380   45.2540 H   0  0  0  0  0  0  0  0  0  0  0  0
   60.4953   35.0093   45.6034 H   0  0  0  0  0  0  0  0  0  0  0  0
   59.3506   36.1957   46.4109 H   0  0  0  0  0  0  0  0  0  0  0  0
   61.0451   34.8611   47.8799 H   0  0  0  0  0  0  0  0  0  0  0  0
   59.3128   35.0374   48.3951 H   0  0  0  0  0  0  0  0  0  0  0  0
   60.0133   32.7387   48.7766 H   0  0  0  0  0  0  0  0  0  0  0  0
   60.6399   30.7640   48.0147 H   0  0  0  0  0  0  0  0  0  0  0  0
   61.8832   30.7250   46.7089 H   0  0  0  0  0  0  0  0  0  0  0  0
   61.8355   30.2696   49.9299 H   0  0  0  0  0  0  0  0  0  0  0  0
   63.5738   30.8702   51.6113 H   0  0  0  0  0  0  0  0  0  0  0  0
   65.2069   32.6905   51.1277 H   0  0  0  0  0  0  0  0  0  0  0  0
   65.1098   33.9167   48.9594 H   0  0  0  0  0  0  0  0  0  0  0  0
   58.5151   31.7599   46.6498 H   0  0  0  0  0  0  0  0  0  0  0  0
   57.8882   32.3660   48.2517 H   0  0  0  0  0  0  0  0  0  0  0  0
   56.7788   33.2692   46.0944 H   0  0  0  0  0  0  0  0  0  0  0  0
   57.2948   34.4438   47.3840 H   0  0  0  0  0  0  0  0  0  0  0  0
  1  2  1  0
  2  3  1  0
  3  4  1  0
  3  5  1  0
  5  6  1  0
  6  7  1  0
  7  8  1  0
  8  9  1  0
  9 10  1  0
 10 11  1  0
 11 12  1  0
 12 13  1  0
 13 14  1  0
 14 15  2  0
 15 16  1  0
 16 17  2  0
 17 18  1  0
 18 19  2  0
 19 20  1  0
 20 21  3  0
 11 22  1  0
 22 23  1  0
 23  8  1  0
 19 14  1  0
  1 24  1  0
  1 25  1  0
  1 26  1  0
  2 27  1  0
  2 28  1  0
  4 29  1  0
  4 30  1  0
  4 31  1  0
  5 32  1  0
  5 33  1  0
  6 34  1  0
  6 35  1  0
  7 36  1  0
  7 37  1  0
  8 38  1  6
  9 39  1  0
  9 40  1  0
 10 41  1  0
 10 42  1  0
 11 43  1  1
 13 44  1  0
 13 45  1  0
 15 46  1  0
 16 47  1  0
 17 48  1  0
 18 49  1  0
 22 50  1  0
 22 51  1  0
 23 52  1  0
 23 53  1  0
M  CHG  1   8   1
M  END
>  <UniqueID>  (2) 
2

>  <SMILES>  (2) 
CCN(C)CCC[NH+]1CCC(OCc2ccccc2C#N)CC1

>  <Energy>  (2) 
63.613204005068944

>  <Genealogy>  (2) 
CCN(C)CCC[NH+]1CCC(OCc2ccccc2C#N)CC1 (protonated)
CCN(C)CCC[NH+]1CCC(OCc2ccccc2C#N)CC1 (3D coordinates assigned)
CCN(C)CCC[NH+]1CCC(OCc2ccccc2C#N)CC1 (nonaromatic ring conformer: 63.613204005068944 kcal/mol)

>  <smiles>  (2) 
CCN(C)CCCN1CCC(OCc2ccccc2C#N)CC1

>  <score_type>  (2) 
oracle

>  <origin>  (2) 
adg

>  <m_score__min__energy>  (2) 
-5.5499999999999998

>  <m_primary>  (2) 
energy

$$$$
2:0
     RDKit          3D

 54 57  0  0  0  0  0  0  0  0999 V2000
   56.5980   29.8910   43.1670 C   0  0  0  0  0  0  0  0  0  0  0  0
   56.4720   30.3560   44.5080 O   0  0  0  0  0  0  0  0  0  0  0  0
   57.3930   30.0930   45.5370 C   0  0  0  0  0  0  0  0  0  0  0  0
   58.2320   31.0860   46.0600 C   0  0  0  0  0  0  0  0  0  0  0  0
   59.1620   30.8020   47.0860 C   0  0  0  0  0  0  0  0  0  0  0  0
   60.0180   31.8140   47.5900 C   0  0  0  0  0  0  0  0  0  0  0  0
   60.8200   31.5490   48.7100 C   0  0  0  0  0  0  0  0  0  0  0  0
   60.8920   30.2590   49.2550 C   0  0  0  0  0  0  0  0  0  0  0  0
   61.7480   30.0130   50.3460 C   0  0  0  0  0  0  0  0  0  0  0  0
   61.8700   28.7300   50.8960 C   0  0  0  0  0  0  0  0  0  0  0  0
   62.7170   28.4600   51.9830 O   0  0  0  0  0  0  0  0  0  0  0  0
   63.9070   29.1850   52.2850 C   0  0  0  0  0  0  0  0  0  0  0  0
   61.1370   27.6750   50.3520 C   0  0  0  0  0  0  0  0  0  0  0  0
   61.2960   26.4000   50.9210 O   0  0  0  0  0  0  0  0  0  0  0  0
   60.9210   26.0490   52.2490 C   0  0  0  0  0  0  0  0  0  0  0  0
   60.2740   27.9090   49.2670 C   0  0  0  0  0  0  0  0  0  0  0  0
   60.1180   29.2030   48.7070 C   0  0  0  0  0  0  0  0  0  0  0  0
   59.2180   29.4840   47.6290 C   0  0  0  0  0  0  0  0  0  0  0  0
   58.3520   28.5000   47.0870 C   0  0  0  0  0  0  0  0  0  0  0  0
   57.4560   28.7970   46.0470 C   0  0  0  0  0  0  0  0  0  0  0  0
   56.6000   27.8290   45.4940 O   0  0  0  0  0  0  0  0  0  0  0  0
   56.7650   26.4210   45.6340 C   0  0  0  0  0  0  0  0  0  0  0  0
   61.5780   32.5840   49.2720 O   0  0  0  0  0  0  0  0  0  0  0  0
   61.4540   33.9330   48.8370 C   0  0  0  0  0  0  0  0  0  0  0  0
   61.2630   33.9870   47.3780 N   0  0  0  0  0  0  0  0  0  0  0  0
   62.4650   33.5300   46.6420 C   0  0  0  0  0  0  0  0  0  0  0  0
   63.7300   33.8230   47.4530 C   0  0  0  0  0  0  0  0  0  0  0  0
   64.0690   32.7150   48.2410 O   0  0  0  0  0  0  0  0  0  0  0  0
   60.0520   33.2230   47.0020 C   0  0  0  0  0  0  0  0  0  0  0  0
   56.8857   28.8293   43.1726 H   0  0  0  0  0  0  0  0  0  0  0  0
   55.6359   30.0075   42.6466 H   0  0  0  0  0  0  0  0  0  0  0  0
   57.3697   30.4773   42.6466 H   0  0  0  0  0  0  0  0  0  0  0  0
   58.1654   32.1098   45.6632 H   0  0  0  0  0  0  0  0  0  0  0  0
   62.3307   30.8422   50.7736 H   0  0  0  0  0  0  0  0  0  0  0  0
   64.0254   29.2572   53.3762 H   0  0  0  0  0  0  0  0  0  0  0  0
   64.7741   28.6616   51.8559 H   0  0  0  0  0  0  0  0  0  0  0  0
   63.8395   30.1956   51.8559 H   0  0  0  0  0  0  0  0  0  0  0  0
   61.5306   26.6196   52.9651 H   0  0  0  0  0  0  0  0  0  0  0  0
   59.8576   26.2838   52.4039 H   0  0  0  0  0  0  0  0  0  0  0  0
   61.0851   24.9724   52.4039 H   0  0  0  0  0  0  0  0  0  0  0  0
   59.7060   27.0683   48.8420 H   0  0  0  0  0  0  0  0  0  0  0  0
   58.3830   27.4776   47.4918 H   0  0  0  0  0  0  0  0  0  0  0  0
   56.7956   26.1598   46.7021 H   0  0  0  0  0  0  0  0  0  0  0  0
   55.9214   25.9034   45.1540 H   0  0  0  0  0  0  0  0  0  0  0  0
   57.7054   26.1125   45.1540 H   0  0  0  0  0  0  0  0  0  0  0  0
   60.5880   34.3955   49.3332 H   0  0  0  0  0  0  0  0  0  0  0  0
   62.3740   34.4773   49.0965 H   0  0  0  0  0  0  0  0  0  0  0  0
   62.3912   32.4470   46.4640 H   0  0  0  0  0  0  0  0  0  0  0  0
   62.5227   34.0672   45.6838 H   0  0  0  0  0  0  0  0  0  0  0  0
   64.5587   34.0464   46.7650 H   0  0  0  0  0  0  0  0  0  0  0  0
   63.5429   34.6856   48.1094 H   0  0  0  0  0  0  0  0  0  0  0  0
   63.2150   32.3430   48.5880 H   0  0  0  0  0  0  0  0  0  0  0  0
   59.1683   33.7717   47.3597 H   0  0  0  0  0  0  0  0  0  0  0  0
   60.0606   33.1182   45.9070 H   0  0  0  0  0  0  0  0  0  0  0  0
  1  2  1  0
  2  3  1  0
  3  4  2  0
  4  5  1  0
  5  6  2  0
  6  7  1  0
  7  8  2  0
  8  9  1  0
  9 10  2  0
 10 11  1  0
 11 12  1  0
 10 13  1  0
 13 14  1  0
 14 15  1  0
 13 16  2  0
 16 17  1  0
 17 18  2  0
 18 19  1  0
 19 20  2  0
 20 21  1  0
 21 22  1  0
  7 23  1  0
 23 24  1  0
 24 25  1  0
 25 26  1  0
 26 27  1  0
 27 28  1  0
 25 29  1  0
 20  3  1  0
 18  5  1  0
 29  6  1  0
 17  8  1  0
  1 30  1  0
  1 31  1  0
  1 32  1  0
  4 33  1  0
  9 34  1  0
 12 35  1  0
 12 36  1  0
 12 37  1  0
 15 38  1  0
 15 39  1  0
 15 40  1  0
 16 41  1  0
 19 42  1  0
 22 43  1  0
 22 44  1  0
 22 45  1  0
 24 46  1  0
 24 47  1  0
 26 48  1  0
 26 49  1  0
 27 50  1  0
 27 51  1  0
 28 52  1  0
 29 53  1  0
 29 54  1  0
M  END
>  <UniqueID>  (3) 
3

>  <SMILES>  (3) 
COc1cc2c3c(c4cc(OC)c(OC)cc4c2cc1OC)OCN(CCO)C3

>  <Energy>  (3) 
76.25665643225926

>  <Genealogy>  (3) 
COc1cc2c3c(c4cc(OC)c(OC)cc4c2cc1OC)OCN(CCO)C3 (3D coordinates assigned)
COc1cc2c3c(c4cc(OC)c(OC)cc4c2cc1OC)OCN(CCO)C3 (nonaromatic ring conformer: 76.25665643225926 kcal/mol)

>  <smiles>  (3) 
COc1cc2c3c(c4cc(OC)c(OC)cc4c2cc1OC)OCN(CCO)C3

>  <score_type>  (3) 
oracle

>  <origin>  (3) 
adg

>  <m_score__min__energy>  (3) 
-7.1600000000000001

>  <m_primary>  (3) 
energy

$$$$
3:0
     RDKit          3D

 60 64  0  0  0  0  0  0  0  0999 V2000
   59.0306   34.7023   49.0767 H   0  0  0  0  0  0  0  0  0  0  0  0
   59.9730   34.3770   48.6120 C   0  0  0  0  0  0  0  0  0  0  0  0
   61.1090   34.1890   49.4040 C   0  0  0  0  0  0  0  0  0  0  0  0
   61.0505   34.3551   50.4898 H   0  0  0  0  0  0  0  0  0  0  0  0
   62.3270   33.7890   48.8240 C   0  0  0  0  0  0  0  0  0  0  0  0
   63.5020   33.5950   49.6430 N   0  0  0  0  0  0  0  0  0  0  0  0
   64.7340   33.0560   49.0520 C   0  0  0  0  0  0  0  0  0  0  0  0
   65.2778   33.8669   48.5454 H   0  0  0  0  0  0  0  0  0  0  0  0
   64.4688   32.2697   48.3299 H   0  0  0  0  0  0  0  0  0  0  0  0
   65.6280   32.4510   50.1390 C   0  0  0  0  0  0  0  0  0  0  0  0
   66.5601   32.0932   49.6773 H   0  0  0  0  0  0  0  0  0  0  0  0
   65.0828   31.6214   50.6128 H   0  0  0  0  0  0  0  0  0  0  0  0
   65.9590   33.4450   51.1820 N   0  0  0  0  0  0  0  0  0  0  0  0
   66.5560   32.7750   52.3480 C   0  0  0  0  0  0  0  0  0  0  0  0
   66.1580   33.2216   53.2711 H   0  0  0  0  0  0  0  0  0  0  0  0
   66.3076   31.7037   52.3223 H   0  0  0  0  0  0  0  0  0  0  0  0
   67.6487   32.8987   52.3223 H   0  0  0  0  0  0  0  0  0  0  0  0
   64.8310   34.3270   51.5830 C   0  0  0  0  0  0  0  0  0  0  0  0
   65.0127   35.3309   51.1718 H   0  0  0  0  0  0  0  0  0  0  0  0
   64.7959   34.3221   52.6824 H   0  0  0  0  0  0  0  0  0  0  0  0
   63.4600   33.8430   51.0900 C   0  0  0  0  0  0  0  0  0  0  0  0
   62.7037   34.6122   51.3054 H   0  0  0  0  0  0  0  0  0  0  0  0
   63.2011   32.9077   51.6079 H   0  0  0  0  0  0  0  0  0  0  0  0
   62.3830   33.6000   47.4310 C   0  0  0  0  0  0  0  0  0  0  0  0
   63.3303   33.3000   46.9591 H   0  0  0  0  0  0  0  0  0  0  0  0
   61.2460   33.7900   46.6420 C   0  0  0  0  0  0  0  0  0  0  0  0
   61.3096   33.6530   45.5524 H   0  0  0  0  0  0  0  0  0  0  0  0
   60.0270   34.1530   47.2250 C   0  0  0  0  0  0  0  0  0  0  0  0
   58.8900   34.3590   46.3700 N   0  0  0  0  0  0  0  0  0  0  0  0
   58.3940   33.5070   45.5210 C   0  0  0  0  0  0  0  0  0  0  0  0
   57.9240   32.2780   45.8630 N   0  0  0  0  0  0  0  0  0  0  0  0
   57.5730   31.7910   44.6580 C   0  0  0  0  0  0  0  0  0  0  0  0
   57.0110   30.5370   44.3910 C   0  0  0  0  0  0  0  0  0  0  0  0
   56.7430   29.6100   45.4590 N   0  0  0  0  0  0  0  0  0  0  0  0
   55.8560   29.7230   46.0020 H   0  0  0  0  0  0  0  0  0  0  0  0
   57.6490   28.5160   45.8130 C   0  0  0  0  0  0  0  0  0  0  0  0
   57.0703   27.7028   46.2754 H   0  0  0  0  0  0  0  0  0  0  0  0
   58.1462   28.1579   44.8994 H   0  0  0  0  0  0  0  0  0  0  0  0
   58.6980   28.9890   46.7820 C   0  0  0  0  0  0  0  0  0  0  0  0
   59.7570   29.7980   46.3420 C   0  0  0  0  0  0  0  0  0  0  0  0
   59.8397   30.0602   45.2769 H   0  0  0  0  0  0  0  0  0  0  0  0
   60.7070   30.2720   47.2510 C   0  0  0  0  0  0  0  0  0  0  0  0
   61.5464   30.8860   46.8927 H   0  0  0  0  0  0  0  0  0  0  0  0
   60.5980   29.9700   48.6200 C   0  0  0  0  0  0  0  0  0  0  0  0
   61.6500   30.4410   49.5930 C   0  0  0  0  0  0  0  0  0  0  0  0
   62.7430   30.9110   48.8890 F   0  0  0  0  0  0  0  0  0  0  0  0
   61.1570   31.4590   50.3930 F   0  0  0  0  0  0  0  0  0  0  0  0
   62.0540   29.4030   50.4150 F   0  0  0  0  0  0  0  0  0  0  0  0
   59.5420   29.1500   49.0540 C   0  0  0  0  0  0  0  0  0  0  0  0
   59.4632   28.8787   50.1171 H   0  0  0  0  0  0  0  0  0  0  0  0
   58.5920   28.6770   48.1460 C   0  0  0  0  0  0  0  0  0  0  0  0
   57.7563   28.0566   48.5020 H   0  0  0  0  0  0  0  0  0  0  0  0
   56.7270   30.2420   43.0370 C   0  0  0  0  0  0  0  0  0  0  0  0
   56.2856   29.2701   42.7713 H   0  0  0  0  0  0  0  0  0  0  0  0
   57.0050   31.1830   42.0260 C   0  0  0  0  0  0  0  0  0  0  0  0
   56.7814   30.9480   40.9749 H   0  0  0  0  0  0  0  0  0  0  0  0
   57.5680   32.4200   42.3670 C   0  0  0  0  0  0  0  0  0  0  0  0
   57.7946   33.1708   41.5957 H   0  0  0  0  0  0  0  0  0  0  0  0
   57.8250   32.6640   43.6740 N   0  0  0  0  0  0  0  0  0  0  0  0
   58.3490   33.7570   44.1930 N   0  0  0  0  0  0  0  0  0  0  0  0
  1  2  1  0
  2  3  2  0
  3  4  1  0
  3  5  1  0
  5  6  1  0
  6  7  1  0
  7  8  1  0
  7  9  1  0
  7 10  1  0
 10 11  1  0
 10 12  1  0
 10 13  1  0
 13 14  1  0
 14 15  1  0
 14 16  1  0
 14 17  1  0
 13 18  1  0
 18 19  1  0
 18 20  1  0
 18 21  1  0
 21 22  1  0
 21 23  1  0
  5 24  2  0
 24 25  1  0
 24 26  1  0
 26 27  1  0
 26 28  2  0
 28 29  1  0
 29 30  2  0
 30 31  1  0
 31 32  2  0
 32 33  1  0
 33 34  1  0
 34 35  1  0
 34 36  1  0
 36 37  1  0
 36 38  1  0
 36 39  1  0
 39 40  2  0
 40 41  1  0
 40 42  1  0
 42 43  1  0
 42 44  2  0
 44 45  1  0
 45 46  1  0
 45 47  1  0
 45 48  1  0
 44 49  1  0
 49 50  1  0
 49 51  2  0
 51 52  1  0
 33 53  2  0
 53 54  1  0
 53 55  1  0
 55 56  1  0
 55 57  2  0
 57 58  1  0
 57 59  1  0
 59 60  1  0
 28  2  1  0
 60 30  1  0
 21  6  1  0
 59 32  1  0
 51 39  1  0
M  CHG  1  60  -1
M  END
>  <UniqueID>  (4) 
4

>  <SMILES>  (4) 
CN1CCN(c2ccc(/N=c3\nc4c(NCc5ccc(C(F)(F)F)cc5)cccn4[n-]3)cc2)CC1

>  <Energy>  (4) 
118.55711997803431

>  <Genealogy>  (4) 
CN1CCN(c2ccc(N=c3nc4c(NCc5ccc(C(F)(F)F)cc5)cccn4[n-]3)cc2)CC1 (protonated)
CN1CCN(c2ccc(/N=c3\nc4c(NCc5ccc(C(F)(F)F)cc5)cccn4[n-]3)cc2)CC1 (cis-trans isomerization)
CN1CCN(c2ccc(/N=c3\nc4c(NCc5ccc(C(F)(F)F)cc5)cccn4[n-]3)cc2)CC1 (3D coordinates assigned)
CN1CCN(c2ccc(/N=c3\nc4c(NCc5ccc(C(F)(F)F)cc5)cccn4[n-]3)cc2)CC1 (nonaromatic ring conformer: 118.55711997803431 kcal/mol)

>  <smiles>  (4) 
CN1CCN(c2ccc(N=c3nc4c(NCc5ccc(C(F)(F)F)cc5)cccn4[nH]3)cc2)CC1

>  <score_type>  (4) 
oracle

>  <origin>  (4) 
adg

>  <m_score__min__energy>  (4) 
-9.5199999999999996

>  <m_primary>  (4) 
energy

$$$$
4:0
     RDKit          3D

 45 47  0  0  0  0  0  0  0  0999 V2000
   61.1460   34.5290   48.9900 C   0  0  0  0  0  0  0  0  0  0  0  0
   59.9550   34.8420   48.2780 O   0  0  0  0  0  0  0  0  0  0  0  0
   59.3460   33.9990   47.3330 C   0  0  0  0  0  0  0  0  0  0  0  0
   59.4410   34.2430   45.9490 C   0  0  0  0  0  0  0  0  0  0  0  0
   58.8280   33.3830   45.0350 C   0  0  0  0  0  0  0  0  0  0  0  0
   58.1090   32.2720   45.4850 C   0  0  0  0  0  0  0  0  0  0  0  0
   57.3670   31.1770   44.3190 S   0  0  0  0  0  0  0  0  0  0  0  0
   56.0420   30.7060   44.8550 O   0  0  0  0  0  0  0  0  0  0  0  0
   57.1230   31.9330   43.0420 O   0  0  0  0  0  0  0  0  0  0  0  0
   58.4420   29.8220   44.0280 N   0  0  1  0  0  0  0  0  0  0  0  0
   59.6670   29.9360   44.8510 C   0  0  0  0  0  0  0  0  0  0  0  0
   59.4820   29.4840   46.2850 C   0  0  0  0  0  0  0  0  0  0  0  0
   60.4380   29.8330   47.2660 C   0  0  0  0  0  0  0  0  0  0  0  0
   61.8340   30.8400   46.8870 Cl  0  0  0  0  0  0  0  0  0  0  0  0
   60.2980   29.3720   48.5790 C   0  0  0  0  0  0  0  0  0  0  0  0
   59.2250   28.5550   48.9270 C   0  0  0  0  0  0  0  0  0  0  0  0
   58.2850   28.1870   47.9650 C   0  0  0  0  0  0  0  0  0  0  0  0
   58.4130   28.6290   46.6390 C   0  0  0  0  0  0  0  0  0  0  0  0
   57.3410   28.2560   45.6500 C   0  0  0  0  0  0  0  0  0  0  0  0
   57.7530   28.5170   44.1890 C   0  0  2  0  0  0  0  0  0  0  0  0
   58.6050   27.3540   43.6440 C   0  0  0  0  0  0  0  0  0  0  0  0
   58.0140   32.0180   46.8590 C   0  0  0  0  0  0  0  0  0  0  0  0
   58.6250   32.8770   47.7870 C   0  0  0  0  0  0  0  0  0  0  0  0
   58.5240   32.5890   49.2590 C   0  0  0  0  0  0  0  0  0  0  0  0
   60.9509   34.5803   50.0714 H   0  0  0  0  0  0  0  0  0  0  0  0
   61.4757   33.5137   48.7246 H   0  0  0  0  0  0  0  0  0  0  0  0
   61.9323   35.2510   48.7246 H   0  0  0  0  0  0  0  0  0  0  0  0
   60.0018   35.1168   45.5856 H   0  0  0  0  0  0  0  0  0  0  0  0
   58.9114   33.5809   43.9562 H   0  0  0  0  0  0  0  0  0  0  0  0
   58.7310   29.9120   43.0250 H   0  0  0  0  0  0  0  0  0  0  0  0
   60.4529   29.3189   44.3911 H   0  0  0  0  0  0  0  0  0  0  0  0
   59.9349   31.0024   44.8823 H   0  0  0  0  0  0  0  0  0  0  0  0
   61.0390   29.6561   49.3407 H   0  0  0  0  0  0  0  0  0  0  0  0
   59.1189   28.1994   49.9625 H   0  0  0  0  0  0  0  0  0  0  0  0
   57.4371   27.5457   48.2474 H   0  0  0  0  0  0  0  0  0  0  0  0
   57.1154   27.1855   45.7647 H   0  0  0  0  0  0  0  0  0  0  0  0
   56.4642   28.8854   45.8621 H   0  0  0  0  0  0  0  0  0  0  0  0
   56.8315   28.5722   43.5908 H   0  0  0  0  0  0  0  0  0  0  0  0
   59.0244   26.7815   44.4844 H   0  0  0  0  0  0  0  0  0  0  0  0
   57.9748   26.6945   43.0293 H   0  0  0  0  0  0  0  0  0  0  0  0
   59.4239   27.7560   43.0293 H   0  0  0  0  0  0  0  0  0  0  0  0
   57.4564   31.1388   47.2141 H   0  0  0  0  0  0  0  0  0  0  0  0
   58.8354   33.4770   49.8286 H   0  0  0  0  0  0  0  0  0  0  0  0
   57.4838   32.3369   49.5128 H   0  0  0  0  0  0  0  0  0  0  0  0
   59.1789   31.7424   49.5128 H   0  0  0  0  0  0  0  0  0  0  0  0
  1  2  1  0
  2  3  1  0
  3  4  2  0
  4  5  1  0
  5  6  2  0
  6  7  1  0
  7  8  2  0
  7  9  2  0
  7 10  1  0
 10 11  1  0
 11 12  1  0
 12 13  2  0
 13 14  1  0
 13 15  1  0
 15 16  2  0
 16 17  1  0
 17 18  2  0
 18 19  1  0
 19 20  1  0
 20 21  1  0
  6 22  1  0
 22 23  2  0
 23 24  1  0
 23  3  1  0
 20 10  1  0
 18 12  1  0
  1 25  1  0
  1 26  1  0
  1 27  1  0
  4 28  1  0
  5 29  1  0
 10 30  1  6
 11 31  1  0
 11 32  1  0
 15 33  1  0
 16 34  1  0
 17 35  1  0
 19 36  1  0
 19 37  1  0
 20 38  1  6
 21 39  1  0
 21 40  1  0
 21 41  1  0
 22 42  1  0
 24 43  1  0
 24 44  1  0
 24 45  1  0
M  CHG  1  10   1
M  END
>  <UniqueID>  (5) 
5

>  <SMILES>  (5) 
COc1ccc(S(=O)(=O)[N@H+]2Cc3c(Cl)cccc3C[C@@H]2C)cc1C

>  <Energy>  (5) 
51.31730373534207

>  <Genealogy>  (5) 
COc1ccc(S(=O)(=O)[NH+]2Cc3c(Cl)cccc3CC2C)cc1C (protonated)
COc1ccc(S(=O)(=O)[N@H+]2Cc3c(Cl)cccc3C[C@@H]2C)cc1C (chirality)
COc1ccc(S(=O)(=O)[N@H+]2Cc3c(Cl)cccc3C[C@@H]2C)cc1C (3D coordinates assigned)
COc1ccc(S(=O)(=O)[N@H+]2Cc3c(Cl)cccc3C[C@@H]2C)cc1C (nonaromatic ring conformer: 51.31730373534207 kcal/mol)

>  <smiles>  (5) 
COc1ccc(S(=O)(=O)N2Cc3c(Cl)cccc3CC2C)cc1C

>  <score_type>  (5) 
oracle

>  <origin>  (5) 
adg

>  <m_score__min__energy>  (5) 
-6.4800000000000004

>  <m_primary>  (5) 
energy

$$$$
5:0
     RDKit          3D

 69 72  0  0  0  0  0  0  0  0999 V2000
   57.0000   28.6620   45.3980 C   0  0  0  0  0  0  0  0  0  0  0  0
   57.1810   30.1100   45.1930 N   0  0  0  0  0  0  0  0  0  0  0  0
   56.4700   30.5170   43.9650 C   0  0  0  0  0  0  0  0  0  0  0  0
   58.6230   30.4280   45.1000 C   0  0  0  0  0  0  0  0  0  0  0  0
   59.1900   30.8240   46.4690 C   0  0  0  0  0  0  0  0  0  0  0  0
   59.5130   29.6620   47.2340 O   0  0  0  0  0  0  0  0  0  0  0  0
   59.9850   29.6590   48.5560 C   0  0  0  0  0  0  0  0  0  0  0  0
   60.1650   30.8880   49.1950 C   0  0  0  0  0  0  0  0  0  0  0  0
   60.6390   30.9470   50.5060 C   0  0  0  0  0  0  0  0  0  0  0  0
   60.9470   29.7710   51.2090 C   0  0  0  0  0  0  0  0  0  0  0  0
   61.4870   29.8630   52.6230 C   0  0  0  0  0  0  0  0  0  0  0  0
   62.9440   29.5660   52.6810 N   0  0  0  0  0  0  0  0  0  0  0  0
   63.6570   30.5140   53.5670 C   0  0  0  0  0  0  0  0  0  0  0  0
   63.6660   31.9550   53.0050 C   0  0  0  0  0  0  0  0  0  0  0  0
   63.4640   31.9740   51.5420 N   0  0  0  0  0  0  0  0  0  0  0  0
   63.7190   33.2980   50.9300 C   0  0  0  0  0  0  0  0  0  0  0  0
   63.1890   33.4360   49.5170 C   0  0  0  0  0  0  0  0  0  0  0  0
   63.9280   32.9400   48.4290 C   0  0  0  0  0  0  0  0  0  0  0  0
   63.4300   33.0520   47.1290 C   0  0  0  0  0  0  0  0  0  0  0  0
   62.1980   33.6700   46.9000 C   0  0  0  0  0  0  0  0  0  0  0  0
   61.4630   34.2020   47.9740 C   0  0  0  0  0  0  0  0  0  0  0  0
   60.2150   34.8150   47.7890 O   0  0  0  0  0  0  0  0  0  0  0  0
   59.2510   34.4360   46.8440 C   0  0  0  0  0  0  0  0  0  0  0  0
   59.5200   34.6490   45.4860 C   0  0  0  0  0  0  0  0  0  0  0  0
   58.5930   34.2650   44.5130 C   0  0  0  0  0  0  0  0  0  0  0  0
   57.3910   33.6610   44.8890 C   0  0  0  0  0  0  0  0  0  0  0  0
   57.1190   33.4280   46.2400 C   0  0  0  0  0  0  0  0  0  0  0  0
   58.0500   33.8010   47.2160 C   0  0  0  0  0  0  0  0  0  0  0  0
   61.9610   34.0750   49.2760 C   0  0  0  0  0  0  0  0  0  0  0  0
   64.1660   30.8670   50.8780 C   0  0  0  0  0  0  0  0  0  0  0  0
   63.5730   29.5160   51.3310 C   0  0  0  0  0  0  0  0  0  0  0  0
   60.7640   28.5260   50.5700 C   0  0  0  0  0  0  0  0  0  0  0  0
   61.1100   27.0040   51.3890 Cl  0  0  0  0  0  0  0  0  0  0  0  0
   60.2880   28.4750   49.2540 C   0  0  0  0  0  0  0  0  0  0  0  0
   56.9729   28.4449   46.4760 H   0  0  0  0  0  0  0  0  0  0  0  0
   56.0548   28.3415   44.9355 H   0  0  0  0  0  0  0  0  0  0  0  0
   57.8372   28.1187   44.9355 H   0  0  0  0  0  0  0  0  0  0  0  0
   55.5447   31.0467   44.2355 H   0  0  0  0  0  0  0  0  0  0  0  0
   57.1140   31.1833   43.3722 H   0  0  0  0  0  0  0  0  0  0  0  0
   56.2216   29.6243   43.3722 H   0  0  0  0  0  0  0  0  0  0  0  0
   59.1628   29.5440   44.7295 H   0  0  0  0  0  0  0  0  0  0  0  0
   58.7503   31.2755   44.4104 H   0  0  0  0  0  0  0  0  0  0  0  0
   60.0994   31.4254   46.3235 H   0  0  0  0  0  0  0  0  0  0  0  0
   58.4315   31.4068   47.0121 H   0  0  0  0  0  0  0  0  0  0  0  0
   59.9305   31.8194   48.6588 H   0  0  0  0  0  0  0  0  0  0  0  0
   60.7727   31.9240   50.9935 H   0  0  0  0  0  0  0  0  0  0  0  0
   61.3161   30.8809   53.0034 H   0  0  0  0  0  0  0  0  0  0  0  0
   60.9622   29.1167   53.2375 H   0  0  0  0  0  0  0  0  0  0  0  0
   63.0680   28.6190   53.1130 H   0  0  0  0  0  0  0  0  0  0  0  0
   63.1609   30.5210   54.5487 H   0  0  0  0  0  0  0  0  0  0  0  0
   64.7016   30.1784   53.6451 H   0  0  0  0  0  0  0  0  0  0  0  0
   62.8587   32.5289   53.4835 H   0  0  0  0  0  0  0  0  0  0  0  0
   64.6486   32.4001   53.2205 H   0  0  0  0  0  0  0  0  0  0  0  0
   63.2407   34.0661   51.5555 H   0  0  0  0  0  0  0  0  0  0  0  0
   64.8110   33.4176   50.8735 H   0  0  0  0  0  0  0  0  0  0  0  0
   64.9031   32.4614   48.6023 H   0  0  0  0  0  0  0  0  0  0  0  0
   64.0091   32.6527   46.2833 H   0  0  0  0  0  0  0  0  0  0  0  0
   61.8019   33.7405   45.8762 H   0  0  0  0  0  0  0  0  0  0  0  0
   60.4663   35.1212   45.1835 H   0  0  0  0  0  0  0  0  0  0  0  0
   58.8105   34.4388   43.4488 H   0  0  0  0  0  0  0  0  0  0  0  0
   56.6586   33.3688   44.1220 H   0  0  0  0  0  0  0  0  0  0  0  0
   56.1729   32.9513   46.5362 H   0  0  0  0  0  0  0  0  0  0  0  0
   57.8432   33.5976   48.2771 H   0  0  0  0  0  0  0  0  0  0  0  0
   61.3842   34.4802   50.1205 H   0  0  0  0  0  0  0  0  0  0  0  0
   64.0540   30.9665   49.7883 H   0  0  0  0  0  0  0  0  0  0  0  0
   65.2315   30.9018   51.1492 H   0  0  0  0  0  0  0  0  0  0  0  0
   62.8087   29.2092   50.6019 H   0  0  0  0  0  0  0  0  0  0  0  0
   64.4060   28.7998   51.3883 H   0  0  0  0  0  0  0  0  0  0  0  0
   60.1497   27.5012   48.7616 H   0  0  0  0  0  0  0  0  0  0  0  0
  1  2  1  0
  2  3  1  0
  2  4  1  0
  4  5  1  0
  5  6  1  0
  6  7  1  0
  7  8  2  0
  8  9  1  0
  9 10  2  0
 10 11  1  0
 11 12  1  0
 12 13  1  0
 13 14  1  0
 14 15  1  0
 15 16  1  0
 16 17  1  0
 17 18  2  0
 18 19  1  0
 19 20  2  0
 20 21  1  0
 21 22  1  0
 22 23  1  0
 23 24  2  0
 24 25  1  0
 25 26  2  0
 26 27  1  0
 27 28  2  0
 21 29  2  0
 15 30  1  0
 30 31  1  0
 10 32  1  0
 32 33  1  0
 32 34  2  0
 34  7  1  0
 31 12  1  0
 29 17  1  0
 28 23  1  0
  1 35  1  0
  1 36  1  0
  1 37  1  0
  3 38  1  0
  3 39  1  0
  3 40  1  0
  4 41  1  0
  4 42  1  0
  5 43  1  0
  5 44  1  0
  8 45  1  0
  9 46  1  0
 11 47  1  0
 11 48  1  0
 12 49  1  0
 13 50  1  0
 13 51  1  0
 14 52  1  0
 14 53  1  0
 16 54  1  0
 16 55  1  0
 18 56  1  0
 19 57  1  0
 20 58  1  0
 24 59  1  0
 25 60  1  0
 26 61  1  0
 27 62  1  0
 28 63  1  0
 29 64  1  0
 30 65  1  0
 30 66  1  0
 31 67  1  0
 31 68  1  0
 34 69  1  0
M  CHG  1  12   1
M  END
>  <UniqueID>  (6) 
6

>  <SMILES>  (6) 
CN(C)CCOc1ccc(C[NH+]2CCN(Cc3cccc(Oc4ccccc4)c3)CC2)c(Cl)c1

>  <Energy>  (6) 
93.69380314101498

>  <Genealogy>  (6) 
CN(C)CCOc1ccc(C[NH+]2CCN(Cc3cccc(Oc4ccccc4)c3)CC2)c(Cl)c1 (protonated)
CN(C)CCOc1ccc(C[NH+]2CCN(Cc3cccc(Oc4ccccc4)c3)CC2)c(Cl)c1 (3D coordinates assigned)
CN(C)CCOc1ccc(C[NH+]2CCN(Cc3cccc(Oc4ccccc4)c3)CC2)c(Cl)c1 (nonaromatic ring conformer: 93.69380314101498 kcal/mol)

>  <smiles>  (6) 
CN(C)CCOc1ccc(CN2CCN(Cc3cccc(Oc4ccccc4)c3)CC2)c(Cl)c1

>  <score_type>  (6) 
oracle

>  <origin>  (6) 
adg

>  <m_score__min__energy>  (6) 
-8.3800000000000008

>  <m_primary>  (6) 
energy

$$$$
6:0
     RDKit          3D

 71 72  0  0  0  0  0  0  0  0999 V2000
   56.9133   34.0943   44.0455 H   0  0  0  0  0  0  0  0  0  0  0  0
   57.5930   34.1590   44.9080 C   0  0  0  0  0  0  0  0  0  0  0  0
   58.7620   34.9220   44.8220 C   0  0  0  0  0  0  0  0  0  0  0  0
   58.9971   35.4649   43.8946 H   0  0  0  0  0  0  0  0  0  0  0  0
   59.6310   34.9950   45.9130 C   0  0  0  0  0  0  0  0  0  0  0  0
   60.5388   35.6130   45.8498 H   0  0  0  0  0  0  0  0  0  0  0  0
   59.3500   34.2810   47.0930 C   0  0  0  0  0  0  0  0  0  0  0  0
   60.2090   34.3560   48.2380 N   0  0  0  0  0  0  0  0  0  0  0  0
   61.0120   33.4220   48.6640 C   0  0  0  0  0  0  0  0  0  0  0  0
   61.3660   31.9560   47.6720 S   0  0  0  0  0  0  0  0  0  0  0  0
   60.7730   30.7240   48.8840 C   0  0  0  0  0  0  0  0  0  0  0  0
   61.6177   30.0776   49.1645 H   0  0  0  0  0  0  0  0  0  0  0  0
   60.3711   31.2829   49.7420 H   0  0  0  0  0  0  0  0  0  0  0  0
   59.6360   29.8350   48.3520 C   0  0  0  0  0  0  0  0  0  0  0  0
   59.8175   28.7959   48.6638 H   0  0  0  0  0  0  0  0  0  0  0  0
   58.6848   30.2037   48.7635 H   0  0  0  0  0  0  0  0  0  0  0  0
   59.5560   29.8910   46.8190 C   0  0  0  0  0  0  0  0  0  0  0  0
   59.7935   30.9118   46.4851 H   0  0  0  0  0  0  0  0  0  0  0  0
   60.2765   29.1687   46.4077 H   0  0  0  0  0  0  0  0  0  0  0  0
   58.2520   29.5410   46.3530 O   0  0  0  0  0  0  0  0  0  0  0  0
   57.6720   29.9150   45.1260 C   0  0  0  0  0  0  0  0  0  0  0  0
   58.2520   31.0040   44.4580 C   0  0  0  0  0  0  0  0  0  0  0  0
   59.0983   31.5342   44.9192 H   0  0  0  0  0  0  0  0  0  0  0  0
   57.7720   31.4240   43.2190 C   0  0  0  0  0  0  0  0  0  0  0  0
   58.2537   32.2647   42.6983 H   0  0  0  0  0  0  0  0  0  0  0  0
   56.6810   30.7780   42.6400 C   0  0  0  0  0  0  0  0  0  0  0  0
   56.3044   31.1072   41.6603 H   0  0  0  0  0  0  0  0  0  0  0  0
   56.0650   29.7130   43.3020 C   0  0  0  0  0  0  0  0  0  0  0  0
   55.1974   29.2156   42.8438 H   0  0  0  0  0  0  0  0  0  0  0  0
   56.5450   29.2690   44.5530 C   0  0  0  0  0  0  0  0  0  0  0  0
   55.9160   28.2220   45.2460 O   0  0  0  0  0  0  0  0  0  0  0  0
   56.5910   27.0920   45.7940 C   0  0  0  0  0  0  0  0  0  0  0  0
   57.0533   27.3735   46.7516 H   0  0  0  0  0  0  0  0  0  0  0  0
   55.8650   26.2811   45.9530 H   0  0  0  0  0  0  0  0  0  0  0  0
   57.6770   26.6100   44.8300 C   0  0  0  0  0  0  0  0  0  0  0  0
   57.4307   26.9471   43.8123 H   0  0  0  0  0  0  0  0  0  0  0  0
   58.6424   27.0288   45.1502 H   0  0  0  0  0  0  0  0  0  0  0  0
   57.7750   25.1320   44.8410 N   0  0  0  0  0  0  0  0  0  0  0  0
   57.2150   24.5920   46.0910 C   0  0  0  0  0  0  0  0  0  0  0  0
   57.7094   25.0687   46.9503 H   0  0  0  0  0  0  0  0  0  0  0  0
   56.1352   24.7984   46.1283 H   0  0  0  0  0  0  0  0  0  0  0  0
   57.3821   23.5054   46.1283 H   0  0  0  0  0  0  0  0  0  0  0  0
   57.0620   24.5530   43.6890 C   0  0  0  0  0  0  0  0  0  0  0  0
   56.2551   23.8977   44.0488 H   0  0  0  0  0  0  0  0  0  0  0  0
   56.6331   25.3617   43.0790 H   0  0  0  0  0  0  0  0  0  0  0  0
   57.7655   23.9673   43.0790 H   0  0  0  0  0  0  0  0  0  0  0  0
   61.6380   33.5740   49.9520 N   0  0  0  0  0  0  0  0  0  0  0  0
   60.8470   33.4140   51.1820 C   0  0  0  0  0  0  0  0  0  0  0  0
   61.1664   34.1773   51.9068 H   0  0  0  0  0  0  0  0  0  0  0  0
   61.0222   32.3951   51.5577 H   0  0  0  0  0  0  0  0  0  0  0  0
   59.3380   33.5650   50.9440 C   0  0  0  0  0  0  0  0  0  0  0  0
   59.1718   33.8438   49.8930 H   0  0  0  0  0  0  0  0  0  0  0  0
   58.9653   34.3406   51.6292 H   0  0  0  0  0  0  0  0  0  0  0  0
   58.5730   32.2760   51.2370 C   0  0  0  0  0  0  0  0  0  0  0  0
   58.4909   32.1376   52.3252 H   0  0  0  0  0  0  0  0  0  0  0  0
   57.5662   32.3394   50.7984 H   0  0  0  0  0  0  0  0  0  0  0  0
   59.1109   31.4226   50.7984 H   0  0  0  0  0  0  0  0  0  0  0  0
   63.0600   33.9410   50.0080 C   0  0  0  0  0  0  0  0  0  0  0  0
   63.1613   34.9982   49.7216 H   0  0  0  0  0  0  0  0  0  0  0  0
   63.4076   33.7607   51.0359 H   0  0  0  0  0  0  0  0  0  0  0  0
   63.9350   33.0910   49.0680 C   0  0  0  0  0  0  0  0  0  0  0  0
   63.3526   32.2172   48.7404 H   0  0  0  0  0  0  0  0  0  0  0  0
   64.2264   33.7288   48.2205 H   0  0  0  0  0  0  0  0  0  0  0  0
   65.2170   32.6000   49.7350 C   0  0  0  0  0  0  0  0  0  0  0  0
   65.1017   32.6441   50.8281 H   0  0  0  0  0  0  0  0  0  0  0  0
   65.4154   31.5623   49.4288 H   0  0  0  0  0  0  0  0  0  0  0  0
   66.0578   33.2397   49.4288 H   0  0  0  0  0  0  0  0  0  0  0  0
   58.1570   33.5510   47.1820 C   0  0  0  0  0  0  0  0  0  0  0  0
   57.8530   32.9000   48.3320 F   0  0  0  0  0  0  0  0  0  0  0  0
   57.2890   33.4790   46.0900 C   0  0  0  0  0  0  0  0  0  0  0  0
   56.3651   32.8863   46.1607 H   0  0  0  0  0  0  0  0  0  0  0  0
  1  2  1  0
  2  3  2  0
  3  4  1  0
  3  5  1  0
  5  6  1  0
  5  7  2  0
  7  8  1  0
  8  9  2  0
  9 10  1  0
 10 11  1  0
 11 12  1  0
 11 13  1  0
 11 14  1  0
 14 15  1  0
 14 16  1  0
 14 17  1  0
 17 18  1  0
 17 19  1  0
 17 20  1  0
 20 21  1  0
 21 22  2  0
 22 23  1  0
 22 24  1  0
 24 25  1  0
 24 26  2  0
 26 27  1  0
 26 28  1  0
 28 29  1  0
 28 30  2  0
 30 31  1  0
 31 32  1  0
 32 33  1  0
 32 34  1  0
 32 35  1  0
 35 36  1  0
 35 37  1  0
 35 38  1  0
 38 39  1  0
 39 40  1  0
 39 41  1  0
 39 42  1  0
 38 43  1  0
 43 44  1  0
 43 45  1  0
 43 46  1  0
  9 47  1  0
 47 48  1  0
 48 49  1  0
 48 50  1  0
 48 51  1  0
 51 52  1  0
 51 53  1  0
 51 54  1  0
 54 55  1  0
 54 56  1  0
 54 57  1  0
 47 58  1  0
 58 59  1  0
 58 60  1  0
 58 61  1  0
 61 62  1  0
 61 63  1  0
 61 64  1  0
 64 65  1  0
 64 66  1  0
 64 67  1  0
  7 68  1  0
 68 69  1  0
 68 70  2  0
 70 71  1  0
 70  2  1  0
 30 21  1  0
M  END
>  <UniqueID>  (7) 
7

>  <SMILES>  (7) 
CCCN(CCC)/C(=N/c1ccccc1F)SCCCOc1ccccc1OCCN(C)C

>  <Energy>  (7) 
61.3671450674829

>  <Genealogy>  (7) 
CCCN(CCC)/C(=N/c1ccccc1F)SCCCOc1ccccc1OCCN(C)C (cis-trans isomerization)
CCCN(CCC)/C(=N/c1ccccc1F)SCCCOc1ccccc1OCCN(C)C (3D coordinates assigned)
CCCN(CCC)/C(=N/c1ccccc1F)SCCCOc1ccccc1OCCN(C)C (optimized conformer: 61.3671450674829 kcal/mol)

>  <smiles>  (7) 
CCCN(CCC)C(=Nc1ccccc1F)SCCCOc1ccccc1OCCN(C)C

>  <score_type>  (7) 
oracle

>  <origin>  (7) 
adg

>  <m_score__min__energy>  (7) 
-7.9000000000000004

>  <m_primary>  (7) 
energy

$$$$
7:0
     RDKit          3D

 61 64  0  0  0  0  0  0  0  0999 V2000
   61.2670   31.2910   52.1080 C   0  0  0  0  0  0  0  0  0  0  0  0
   61.9370   31.0440   50.8760 O   0  0  0  0  0  0  0  0  0  0  0  0
   63.1860   31.5840   50.5290 C   0  0  0  0  0  0  0  0  0  0  0  0
   64.3730   31.2160   51.1950 C   0  0  0  0  0  0  0  0  0  0  0  0
   65.6000   31.7620   50.8060 C   0  0  0  0  0  0  0  0  0  0  0  0
   65.6580   32.6740   49.7520 C   0  0  0  0  0  0  0  0  0  0  0  0
   64.4890   33.0480   49.0860 C   0  0  0  0  0  0  0  0  0  0  0  0
   63.2530   32.5130   49.4730 C   0  0  0  0  0  0  0  0  0  0  0  0
   62.0650   32.9070   48.7750 N   0  0  0  0  0  0  0  0  0  0  0  0
   60.9850   33.5720   49.5070 C   0  0  0  0  0  0  0  0  0  0  0  0
   59.8650   33.9900   48.5540 C   0  0  0  0  0  0  0  0  0  0  0  0
   60.4620   34.5980   47.3510 N   0  0  0  0  0  0  0  0  0  0  0  0
   59.4200   35.2730   46.5450 C   0  0  0  0  0  0  0  0  0  0  0  0
   59.2340   34.6100   45.1700 C   0  0  0  0  0  0  0  0  0  0  0  0
   57.8660   33.9300   45.0370 C   0  0  0  0  0  0  0  0  0  0  0  0
   58.0350   32.4760   44.9570 N   0  0  0  0  0  0  0  0  0  0  0  0
   58.4910   31.8330   46.0370 N   0  0  0  0  0  0  0  0  0  0  0  0
   58.7140   30.4900   46.0530 C   0  0  0  0  0  0  0  0  0  0  0  0
   59.2310   29.8500   47.2920 C   0  0  0  0  0  0  0  0  0  0  0  0
   60.0050   28.6780   47.2020 C   0  0  0  0  0  0  0  0  0  0  0  0
   60.5000   28.0630   48.3540 C   0  0  0  0  0  0  0  0  0  0  0  0
   60.2250   28.5960   49.6240 C   0  0  0  0  0  0  0  0  0  0  0  0
   60.8040   27.9550   50.8600 C   0  0  0  0  0  0  0  0  0  0  0  0
   60.0790   28.3110   51.9840 F   0  0  0  0  0  0  0  0  0  0  0  0
   60.7770   26.5750   50.7480 F   0  0  0  0  0  0  0  0  0  0  0  0
   62.1130   28.3700   51.0180 F   0  0  0  0  0  0  0  0  0  0  0  0
   59.4870   29.7870   49.7140 C   0  0  0  0  0  0  0  0  0  0  0  0
   58.9900   30.4050   48.5620 C   0  0  0  0  0  0  0  0  0  0  0  0
   58.4740   29.7570   44.8840 C   0  0  0  0  0  0  0  0  0  0  0  0
   58.0080   30.4150   43.7500 C   0  0  0  0  0  0  0  0  0  0  0  0
   57.7950   31.7920   43.7960 C   0  0  0  0  0  0  0  0  0  0  0  0
   57.3860   32.3900   42.7630 O   0  0  0  0  0  0  0  0  0  0  0  0
   61.2180   33.6020   46.5460 C   0  0  0  0  0  0  0  0  0  0  0  0
   61.8670   32.4820   47.3890 C   0  0  0  0  0  0  0  0  0  0  0  0
   61.9364   31.0442   52.9453 H   0  0  0  0  0  0  0  0  0  0  0  0
   60.9842   32.3525   52.1652 H   0  0  0  0  0  0  0  0  0  0  0  0
   60.3629   30.6671   52.1652 H   0  0  0  0  0  0  0  0  0  0  0  0
   64.3335   30.4954   52.0252 H   0  0  0  0  0  0  0  0  0  0  0  0
   66.5214   31.4718   51.3321 H   0  0  0  0  0  0  0  0  0  0  0  0
   66.6252   33.0988   49.4453 H   0  0  0  0  0  0  0  0  0  0  0  0
   64.5386   33.7657   48.2539 H   0  0  0  0  0  0  0  0  0  0  0  0
   60.5793   32.8801   50.2598 H   0  0  0  0  0  0  0  0  0  0  0  0
   61.3892   34.4714   49.9945 H   0  0  0  0  0  0  0  0  0  0  0  0
   59.2756   33.1066   48.2672 H   0  0  0  0  0  0  0  0  0  0  0  0
   59.2059   34.7174   49.0506 H   0  0  0  0  0  0  0  0  0  0  0  0
   58.4661   35.2310   47.0912 H   0  0  0  0  0  0  0  0  0  0  0  0
   59.7393   36.3126   46.3799 H   0  0  0  0  0  0  0  0  0  0  0  0
   59.3244   35.3802   44.3899 H   0  0  0  0  0  0  0  0  0  0  0  0
   60.0085   33.8367   45.0596 H   0  0  0  0  0  0  0  0  0  0  0  0
   57.2493   34.1775   45.9136 H   0  0  0  0  0  0  0  0  0  0  0  0
   57.3725   34.2873   44.1211 H   0  0  0  0  0  0  0  0  0  0  0  0
   60.2220   28.2425   46.2155 H   0  0  0  0  0  0  0  0  0  0  0  0
   61.1110   27.1526   48.2659 H   0  0  0  0  0  0  0  0  0  0  0  0
   59.2980   30.2381   50.6993 H   0  0  0  0  0  0  0  0  0  0  0  0
   58.4057   31.3329   48.6497 H   0  0  0  0  0  0  0  0  0  0  0  0
   58.6521   28.6717   44.8625 H   0  0  0  0  0  0  0  0  0  0  0  0
   57.8094   29.8535   42.8252 H   0  0  0  0  0  0  0  0  0  0  0  0
   60.5252   33.1385   45.8282 H   0  0  0  0  0  0  0  0  0  0  0  0
   62.0364   34.1452   46.0508 H   0  0  0  0  0  0  0  0  0  0  0  0
   61.2124   31.5981   47.3752 H   0  0  0  0  0  0  0  0  0  0  0  0
   62.8495   32.2453   46.9546 H   0  0  0  0  0  0  0  0  0  0  0  0
  1  2  1  0
  2  3  1  0
  3  4  2  0
  4  5  1  0
  5  6  2  0
  6  7  1  0
  7  8  2  0
  8  9  1  0
  9 10  1  0
 10 11  1  0
 11 12  1  0
 12 13  1  0
 13 14  1  0
 14 15  1  0
 15 16  1  0
 16 17  1  0
 17 18  2  0
 18 19  1  0
 19 20  2  0
 20 21  1  0
 21 22  2  0
 22 23  1  0
 23 24  1  0
 23 25  1  0
 23 26  1  0
 22 27  1  0
 27 28  2  0
 18 29  1  0
 29 30  2  0
 30 31  1  0
 31 32  2  0
 12 33  1  0
 33 34  1  0
  8  3  1  0
 34  9  1  0
 31 16  1  0
 28 19  1  0
  1 35  1  0
  1 36  1  0
  1 37  1  0
  4 38  1  0
  5 39  1  0
  6 40  1  0
  7 41  1  0
 10 42  1  0
 10 43  1  0
 11 44  1  0
 11 45  1  0
 13 46  1  0
 13 47  1  0
 14 48  1  0
 14 49  1  0
 15 50  1  0
 15 51  1  0
 20 52  1  0
 21 53  1  0
 27 54  1  0
 28 55  1  0
 29 56  1  0
 30 57  1  0
 33 58  1  0
 33 59  1  0
 34 60  1  0
 34 61  1  0
M  END
>  <UniqueID>  (8) 
8

>  <SMILES>  (8) 
COc1ccccc1N1CCN(CCCn2nc(-c3ccc(C(F)(F)F)cc3)ccc2=O)CC1

>  <Energy>  (8) 
77.1152407112012

>  <Genealogy>  (8) 
COc1ccccc1N1CCN(CCCn2nc(-c3ccc(C(F)(F)F)cc3)ccc2=O)CC1 (3D coordinates assigned)
COc1ccccc1N1CCN(CCCn2nc(-c3ccc(C(F)(F)F)cc3)ccc2=O)CC1 (nonaromatic ring conformer: 77.1152407112012 kcal/mol)

>  <smiles>  (8) 
COc1ccccc1N1CCN(CCCn2nc(-c3ccc(C(F)(F)F)cc3)ccc2=O)CC1

>  <score_type>  (8) 
oracle

>  <origin>  (8) 
adg

>  <m_score__min__energy>  (8) 
-8.5700000000000003

>  <m_primary>  (8) 
energy

$$$$
8:0
     RDKit          3D

 40 42  0  0  0  0  0  0  0  0999 V2000
   63.3970   33.8580   46.3630 C   0  0  0  0  0  0  0  0  0  0  0  0
   63.8430   32.9680   47.4490 N   0  0  0  0  0  0  0  0  0  0  0  0
   63.3670   31.5900   47.2290 C   0  0  0  0  0  0  0  0  0  0  0  0
   63.4890   33.4830   48.7950 C   0  0  0  0  0  0  0  0  0  0  0  0
   62.1040   34.1590   48.8770 C   0  0  0  0  0  0  0  0  0  0  0  0
   61.0400   33.1680   48.7000 N   0  0  0  0  0  0  0  0  0  0  0  0
   60.0030   33.2500   47.6940 C   0  0  0  0  0  0  0  0  0  0  0  0
   59.5460   34.4980   47.2390 C   0  0  0  0  0  0  0  0  0  0  0  0
   58.5370   34.5780   46.2840 C   0  0  0  0  0  0  0  0  0  0  0  0
   57.9650   33.4200   45.7640 C   0  0  0  0  0  0  0  0  0  0  0  0
   58.3880   32.1400   46.1850 C   0  0  0  0  0  0  0  0  0  0  0  0
   57.7720   30.9790   45.6150 C   0  0  0  0  0  0  0  0  0  0  0  0
   56.8580   31.1600   44.7590 O   0  0  0  0  0  0  0  0  0  0  0  0
   58.1110   29.6270   45.9380 C   0  0  0  0  0  0  0  0  0  0  0  0
   57.4290   28.5580   45.3080 C   0  0  0  0  0  0  0  0  0  0  0  0
   57.7430   27.2280   45.6040 C   0  0  0  0  0  0  0  0  0  0  0  0
   58.7400   26.9320   46.5320 C   0  0  0  0  0  0  0  0  0  0  0  0
   59.4260   27.9640   47.1690 C   0  0  0  0  0  0  0  0  0  0  0  0
   59.1150   29.2970   46.8750 C   0  0  0  0  0  0  0  0  0  0  0  0
   59.9390   30.5420   47.6430 S   0  0  0  0  0  0  0  0  0  0  0  0
   59.4180   32.0750   47.1610 C   0  0  0  0  0  0  0  0  0  0  0  0
   62.9435   34.7630   46.7935 H   0  0  0  0  0  0  0  0  0  0  0  0
   64.2602   34.1402   45.7423 H   0  0  0  0  0  0  0  0  0  0  0  0
   62.6543   33.3354   45.7423 H   0  0  0  0  0  0  0  0  0  0  0  0
   64.8900   32.9370   47.4080 H   0  0  0  0  0  0  0  0  0  0  0  0
   63.1981   31.1010   48.1998 H   0  0  0  0  0  0  0  0  0  0  0  0
   62.4250   31.6137   46.6615 H   0  0  0  0  0  0  0  0  0  0  0  0
   64.1228   31.0272   46.6615 H   0  0  0  0  0  0  0  0  0  0  0  0
   63.5018   32.6389   49.5002 H   0  0  0  0  0  0  0  0  0  0  0  0
   64.2306   34.2580   49.0388 H   0  0  0  0  0  0  0  0  0  0  0  0
   61.9925   34.6385   49.8607 H   0  0  0  0  0  0  0  0  0  0  0  0
   62.0268   34.9115   48.0784 H   0  0  0  0  0  0  0  0  0  0  0  0
   61.0500   32.3610   49.3620 H   0  0  0  0  0  0  0  0  0  0  0  0
   59.9899   35.4206   47.6413 H   0  0  0  0  0  0  0  0  0  0  0  0
   58.1891   35.5624   45.9377 H   0  0  0  0  0  0  0  0  0  0  0  0
   57.1680   33.5037   45.0105 H   0  0  0  0  0  0  0  0  0  0  0  0
   56.6396   28.7773   44.5740 H   0  0  0  0  0  0  0  0  0  0  0  0
   57.2013   26.4124   45.1027 H   0  0  0  0  0  0  0  0  0  0  0  0
   58.9851   25.8844   46.7613 H   0  0  0  0  0  0  0  0  0  0  0  0
   60.2118   27.7314   47.9028 H   0  0  0  0  0  0  0  0  0  0  0  0
  1  2  1  0
  2  3  1  0
  2  4  1  0
  4  5  1  0
  5  6  1  0
  6  7  1  0
  7  8  2  0
  8  9  1  0
  9 10  2  0
 10 11  1  0
 11 12  1  0
 12 13  2  0
 12 14  1  0
 14 15  2  0
 15 16  1  0
 16 17  2  0
 17 18  1  0
 18 19  2  0
 19 20  1  0
 20 21  1  0
 21  7  1  0
 21 11  2  0
 19 14  1  0
  1 22  1  0
  1 23  1  0
  1 24  1  0
  2 25  1  0
  3 26  1  0
  3 27  1  0
  3 28  1  0
  4 29  1  0
  4 30  1  0
  5 31  1  0
  5 32  1  0
  6 33  1  0
  8 34  1  0
  9 35  1  0
 10 36  1  0
 15 37  1  0
 16 38  1  0
 17 39  1  0
 18 40  1  0
M  CHG  1   2   1
M  END
>  <UniqueID>  (9) 
9

>  <SMILES>  (9) 
C[NH+](C)CCNc1cccc2c(=O)c3ccccc3sc12

>  <Energy>  (9) 
57.693630021145765

>  <Genealogy>  (9) 
C[NH+](C)CCNc1cccc2c(=O)c3ccccc3sc12 (protonated)
C[NH+](C)CCNc1cccc2c(=O)c3ccccc3sc12 (3D coordinates assigned)
C[NH+](C)CCNc1cccc2c(=O)c3ccccc3sc12 (optimized conformer: 57.693630021145765 kcal/mol)

>  <smiles>  (9) 
CN(C)CCNc1cccc2c(=O)c3ccccc3sc12

>  <score_type>  (9) 
oracle

>  <origin>  (9) 
adg

>  <m_score__min__energy>  (9) 
-6.54

>  <m_primary>  (9) 
energy

$$$$
9:0
     RDKit          3D

 55 57  0  0  0  0  0  0  0  0999 V2000
   63.3090   33.5850   46.6770 C   0  0  0  0  0  0  0  0  0  0  0  0
   62.8200   33.7020   48.1220 C   0  0  0  0  0  0  0  0  0  0  0  0
   62.5980   32.3620   48.7080 N   0  0  0  0  0  0  0  0  0  0  0  0
   63.7850   31.9330   49.4690 C   0  0  0  0  0  0  0  0  0  0  0  0
   61.3780   32.3080   49.5500 C   0  0  0  0  0  0  0  0  0  0  0  0
   60.3490   31.3930   48.8800 C   0  0  0  0  0  0  0  0  0  0  0  0
   60.7850   30.9030   47.5550 N   0  0  0  0  0  0  0  0  0  0  0  0
   59.7060   30.9100   46.5700 C   0  0  0  0  0  0  0  0  0  0  0  0
   59.2800   32.1370   45.9890 C   0  0  0  0  0  0  0  0  0  0  0  0
   59.8210   33.3850   46.3930 C   0  0  0  0  0  0  0  0  0  0  0  0
   59.3570   34.5810   45.8540 C   0  0  0  0  0  0  0  0  0  0  0  0
   58.3410   34.5720   44.9120 C   0  0  0  0  0  0  0  0  0  0  0  0
   57.8030   33.3650   44.4790 C   0  0  0  0  0  0  0  0  0  0  0  0
   58.2830   32.1250   44.9740 C   0  0  0  0  0  0  0  0  0  0  0  0
   57.7930   30.9290   44.4940 N   0  0  0  0  0  0  0  0  0  0  0  0
   57.0340   30.9000   43.2230 C   0  0  0  0  0  0  0  0  0  0  0  0
   58.0390   29.7560   45.1790 C   0  0  0  0  0  0  0  0  0  0  0  0
   57.2980   28.5800   44.8950 C   0  0  0  0  0  0  0  0  0  0  0  0
   57.5780   27.3630   45.5290 C   0  0  0  0  0  0  0  0  0  0  0  0
   56.8600   26.1880   45.2480 O   0  0  0  0  0  0  0  0  0  0  0  0
   57.3100   25.1480   44.3840 C   0  0  0  0  0  0  0  0  0  0  0  0
   58.5950   27.3000   46.4780 C   0  0  0  0  0  0  0  0  0  0  0  0
   58.8570   26.0610   47.0870 O   0  0  0  0  0  0  0  0  0  0  0  0
   57.8730   25.2230   47.6840 C   0  0  0  0  0  0  0  0  0  0  0  0
   59.3130   28.4600   46.8040 C   0  0  0  0  0  0  0  0  0  0  0  0
   59.0330   29.7090   46.1940 C   0  0  0  0  0  0  0  0  0  0  0  0
   64.3788   33.3290   46.6715 H   0  0  0  0  0  0  0  0  0  0  0  0
   62.7409   32.7974   46.1603 H   0  0  0  0  0  0  0  0  0  0  0  0
   63.1589   34.5444   46.1603 H   0  0  0  0  0  0  0  0  0  0  0  0
   63.5756   34.2358   48.7170 H   0  0  0  0  0  0  0  0  0  0  0  0
   61.8686   34.2541   48.1302 H   0  0  0  0  0  0  0  0  0  0  0  0
   63.5767   32.0083   50.5465 H   0  0  0  0  0  0  0  0  0  0  0  0
   64.0268   30.8906   49.2143 H   0  0  0  0  0  0  0  0  0  0  0  0
   64.6374   32.5799   49.2143 H   0  0  0  0  0  0  0  0  0  0  0  0
   61.6330   31.9107   50.5435 H   0  0  0  0  0  0  0  0  0  0  0  0
   60.9589   33.3189   49.6618 H   0  0  0  0  0  0  0  0  0  0  0  0
   60.1734   30.5259   49.5336 H   0  0  0  0  0  0  0  0  0  0  0  0
   59.4345   31.9846   48.7265 H   0  0  0  0  0  0  0  0  0  0  0  0
   61.2590   29.9810   47.6410 H   0  0  0  0  0  0  0  0  0  0  0  0
   61.5630   31.5090   47.2110 H   0  0  0  0  0  0  0  0  0  0  0  0
   60.6222   33.4074   47.1464 H   0  0  0  0  0  0  0  0  0  0  0  0
   59.7978   35.5358   46.1765 H   0  0  0  0  0  0  0  0  0  0  0  0
   57.9596   35.5206   44.5062 H   0  0  0  0  0  0  0  0  0  0  0  0
   56.9896   33.3717   43.7385 H   0  0  0  0  0  0  0  0  0  0  0  0
   55.9565   30.8588   43.4403 H   0  0  0  0  0  0  0  0  0  0  0  0
   57.2565   31.8073   42.6422 H   0  0  0  0  0  0  0  0  0  0  0  0
   57.3251   30.0123   42.6422 H   0  0  0  0  0  0  0  0  0  0  0  0
   56.4827   28.6252   44.1580 H   0  0  0  0  0  0  0  0  0  0  0  0
   57.6755   24.3033   44.9864 H   0  0  0  0  0  0  0  0  0  0  0  0
   56.4766   24.8123   43.7493 H   0  0  0  0  0  0  0  0  0  0  0  0
   58.1252   25.5256   43.7493 H   0  0  0  0  0  0  0  0  0  0  0  0
   57.9507   25.2891   48.7793 H   0  0  0  0  0  0  0  0  0  0  0  0
   56.8717   25.5500   47.3670 H   0  0  0  0  0  0  0  0  0  0  0  0
   58.0364   24.1824   47.3670 H   0  0  0  0  0  0  0  0  0  0  0  0
   60.1156   28.3991   47.5537 H   0  0  0  0  0  0  0  0  0  0  0  0
  1  2  1  0
  2  3  1  0
  3  4  1  0
  3  5  1  0
  5  6  1  0
  6  7  1  0
  7  8  1  0
  8  9  2  0
  9 10  1  0
 10 11  2  0
 11 12  1  0
 12 13  2  0
 13 14  1  0
 14 15  2  0
 15 16  1  0
 15 17  1  0
 17 18  2  0
 18 19  1  0
 19 20  1  0
 20 21  1  0
 19 22  2  0
 22 23  1  0
 23 24  1  0
 22 25  1  0
 25 26  2  0
 26  8  1  0
 14  9  1  0
 26 17  1  0
  1 27  1  0
  1 28  1  0
  1 29  1  0
  2 30  1  0
  2 31  1  0
  4 32  1  0
  4 33  1  0
  4 34  1  0
  5 35  1  0
  5 36  1  0
  6 37  1  0
  6 38  1  0
  7 39  1  0
  7 40  1  0
 10 41  1  0
 11 42  1  0
 12 43  1  0
 13 44  1  0
 16 45  1  0
 16 46  1  0
 16 47  1  0
 18 48  1  0
 21 49  1  0
 21 50  1  0
 21 51  1  0
 24 52  1  0
 24 53  1  0
 24 54  1  0
 25 55  1  0
M  CHG  2   7   1  15   1
M  END
>  <UniqueID>  (10) 
10

>  <SMILES>  (10) 
CCN(C)CC[NH2+]c1c2ccccc2[n+](C)c2cc(OC)c(OC)cc12

>  <Energy>  (10) 
84.16851317340839

>  <Genealogy>  (10) 
CCN(C)CC[NH2+]c1c2ccccc2[n+](C)c2cc(OC)c(OC)cc12 (protonated)
CCN(C)CC[NH2+]c1c2ccccc2[n+](C)c2cc(OC)c(OC)cc12 (3D coordinates assigned)
CCN(C)CC[NH2+]c1c2ccccc2[n+](C)c2cc(OC)c(OC)cc12 (optimized conformer: 84.16851317340839 kcal/mol)

>  <smiles>  (10) 
CCN(C)CCNc1c2ccccc2[n+](C)c2cc(OC)c(OC)cc12

>  <score_type>  (10) 
oracle

>  <origin>  (10) 
adg

>  <m_score__min__energy>  (10) 
-3.5299999999999998

>  <m_primary>  (10) 
energy

$$$$
10:0
     RDKit          3D

 37 38  0  0  0  0  0  0  0  0999 V2000
   59.6600   35.6100   46.3160 C   0  0  0  0  0  0  0  0  0  0  0  0
   59.9820   34.2960   47.0180 C   0  0  0  0  0  0  0  0  0  0  0  0
   58.7570   33.7200   47.6200 N   0  0  0  0  0  0  0  0  0  0  0  0
   59.0410   33.0900   48.9230 C   0  0  0  0  0  0  0  0  0  0  0  0
   58.0050   32.8110   46.7130 C   0  0  1  0  0  0  0  0  0  0  0  0
   57.4680   33.5940   45.4750 C   0  0  0  0  0  0  0  0  0  0  0  0
   57.8820   32.9910   44.1250 C   0  0  0  0  0  0  0  0  0  0  0  0
   57.6590   31.4990   44.1200 C   0  0  0  0  0  0  0  0  0  0  0  0
   57.0720   30.8440   43.0190 C   0  0  0  0  0  0  0  0  0  0  0  0
   56.6530   31.6030   41.9130 O   0  0  0  0  0  0  0  0  0  0  0  0
   57.5240   32.3400   41.0610 C   0  0  0  0  0  0  0  0  0  0  0  0
   56.9210   29.4470   43.0540 C   0  0  0  0  0  0  0  0  0  0  0  0
   57.3670   28.7130   44.1520 C   0  0  0  0  0  0  0  0  0  0  0  0
   57.9690   29.3530   45.2390 C   0  0  0  0  0  0  0  0  0  0  0  0
   58.5970   28.2510   46.6800 Br  0  0  0  0  0  0  0  0  0  0  0  0
   58.1040   30.7590   45.2350 C   0  0  0  0  0  0  0  0  0  0  0  0
   58.7850   31.5110   46.3560 C   0  0  0  0  0  0  0  0  0  0  0  0
   59.4688   36.3900   47.0677 H   0  0  0  0  0  0  0  0  0  0  0  0
   60.5117   35.9079   45.6869 H   0  0  0  0  0  0  0  0  0  0  0  0
   58.7670   35.4804   45.6869 H   0  0  0  0  0  0  0  0  0  0  0  0
   60.3952   33.5858   46.2866 H   0  0  0  0  0  0  0  0  0  0  0  0
   60.7160   34.4869   47.8147 H   0  0  0  0  0  0  0  0  0  0  0  0
   58.7351   33.7686   49.7328 H   0  0  0  0  0  0  0  0  0  0  0  0
   58.4811   32.1466   49.0040 H   0  0  0  0  0  0  0  0  0  0  0  0
   60.1187   32.8849   49.0040 H   0  0  0  0  0  0  0  0  0  0  0  0
   57.1260   32.4418   47.2617 H   0  0  0  0  0  0  0  0  0  0  0  0
   56.3692   33.6079   45.5249 H   0  0  0  0  0  0  0  0  0  0  0  0
   57.9077   34.6012   45.5211 H   0  0  0  0  0  0  0  0  0  0  0  0
   57.2818   33.4491   43.3250 H   0  0  0  0  0  0  0  0  0  0  0  0
   58.9511   33.1907   43.9600 H   0  0  0  0  0  0  0  0  0  0  0  0
   58.2220   32.9306   41.6726 H   0  0  0  0  0  0  0  0  0  0  0  0
   58.0916   31.6437   40.4261 H   0  0  0  0  0  0  0  0  0  0  0  0
   56.9313   33.0150   40.4261 H   0  0  0  0  0  0  0  0  0  0  0  0
   56.4468   28.9284   42.2077 H   0  0  0  0  0  0  0  0  0  0  0  0
   57.2440   27.6200   44.1630 H   0  0  0  0  0  0  0  0  0  0  0  0
   58.8328   30.8650   47.2450 H   0  0  0  0  0  0  0  0  0  0  0  0
   59.7967   31.7896   46.0261 H   0  0  0  0  0  0  0  0  0  0  0  0
  1  2  1  0
  2  3  1  0
  3  4  1  0
  3  5  1  0
  5  6  1  0
  6  7  1  0
  7  8  1  0
  8  9  2  0
  9 10  1  0
 10 11  1  0
  9 12  1  0
 12 13  2  0
 13 14  1  0
 14 15  1  0
 14 16  2  0
 16 17  1  0
 17  5  1  0
 16  8  1  0
  1 18  1  0
  1 19  1  0
  1 20  1  0
  2 21  1  0
  2 22  1  0
  4 23  1  0
  4 24  1  0
  4 25  1  0
  5 26  1  1
  6 27  1  0
  6 28  1  0
  7 29  1  0
  7 30  1  0
 11 31  1  0
 11 32  1  0
 11 33  1  0
 12 34  1  0
 13 35  1  0
 17 36  1  0
 17 37  1  0
M  END
>  <UniqueID>  (11) 
11

>  <SMILES>  (11) 
CCN(C)[C@H]1CCc2c(OC)ccc(Br)c2C1

>  <Energy>  (11) 
46.915432665917095

>  <Genealogy>  (11) 
CCN(C)[C@H]1CCc2c(OC)ccc(Br)c2C1 (chirality)
CCN(C)[C@H]1CCc2c(OC)ccc(Br)c2C1 (3D coordinates assigned)
CCN(C)[C@H]1CCc2c(OC)ccc(Br)c2C1 (nonaromatic ring conformer: 46.915432665917095 kcal/mol)

>  <smiles>  (11) 
CCN(C)C1CCc2c(OC)ccc(Br)c2C1

>  <score_type>  (11) 
oracle

>  <origin>  (11) 
adg

>  <m_score__min__energy>  (11) 
-6.6799999999999997

>  <m_primary>  (11) 
energy

$$$$
11:0
     RDKit          3D

 29 29  0  0  0  0  0  0  0  0999 V2000
   61.9840   33.7130   46.7950 C   0  0  0  0  0  0  0  0  0  0  0  0
   60.6210   33.8040   47.4740 C   0  0  0  0  0  0  0  0  0  0  0  0
   59.5150   33.5390   46.4880 C   0  0  0  0  0  0  0  0  0  0  0  0
   58.9190   34.6010   45.7910 C   0  0  0  0  0  0  0  0  0  0  0  0
   57.8780   34.3580   44.8930 C   0  0  0  0  0  0  0  0  0  0  0  0
   57.4130   33.0560   44.6930 C   0  0  0  0  0  0  0  0  0  0  0  0
   57.9790   31.9820   45.4020 C   0  0  0  0  0  0  0  0  0  0  0  0
   57.5150   30.6350   45.1810 N   0  0  0  0  0  0  0  0  0  0  0  0
   57.3870   30.3780   43.7390 C   0  0  0  0  0  0  0  0  0  0  0  0
   56.0170   29.7740   43.4130 C   0  0  0  0  0  0  0  0  0  0  0  0
   55.2910   29.4770   44.6430 N   0  0  0  0  0  0  0  0  0  0  0  0
   59.0370   32.2320   46.2950 C   0  0  0  0  0  0  0  0  0  0  0  0
   62.7722   33.6604   47.5605 H   0  0  0  0  0  0  0  0  0  0  0  0
   62.0215   32.8104   46.1674 H   0  0  0  0  0  0  0  0  0  0  0  0
   62.1412   34.6027   46.1674 H   0  0  0  0  0  0  0  0  0  0  0  0
   60.5700   33.0594   48.2821 H   0  0  0  0  0  0  0  0  0  0  0  0
   60.4961   34.8185   47.8804 H   0  0  0  0  0  0  0  0  0  0  0  0
   59.2736   35.6296   45.9529 H   0  0  0  0  0  0  0  0  0  0  0  0
   57.4228   35.1939   44.3416 H   0  0  0  0  0  0  0  0  0  0  0  0
   56.5993   32.8700   43.9766 H   0  0  0  0  0  0  0  0  0  0  0  0
   56.5870   30.5020   45.6480 H   0  0  0  0  0  0  0  0  0  0  0  0
   58.1900   29.9560   45.6040 H   0  0  0  0  0  0  0  0  0  0  0  0
   57.5027   31.3255   43.1922 H   0  0  0  0  0  0  0  0  0  0  0  0
   58.1676   29.6640   43.4376 H   0  0  0  0  0  0  0  0  0  0  0  0
   55.4373   30.4911   42.8132 H   0  0  0  0  0  0  0  0  0  0  0  0
   56.1615   28.8415   42.8478 H   0  0  0  0  0  0  0  0  0  0  0  0
   54.5670   30.2200   44.7820 H   0  0  0  0  0  0  0  0  0  0  0  0
   54.7720   28.5820   44.4970 H   0  0  0  0  0  0  0  0  0  0  0  0
   59.4938   31.3972   46.8467 H   0  0  0  0  0  0  0  0  0  0  0  0
  1  2  1  0
  2  3  1  0
  3  4  2  0
  4  5  1  0
  5  6  2  0
  6  7  1  0
  7  8  1  0
  8  9  1  0
  9 10  1  0
 10 11  1  0
  7 12  2  0
 12  3  1  0
  1 13  1  0
  1 14  1  0
  1 15  1  0
  2 16  1  0
  2 17  1  0
  4 18  1  0
  5 19  1  0
  6 20  1  0
  8 21  1  0
  8 22  1  0
  9 23  1  0
  9 24  1  0
 10 25  1  0
 10 26  1  0
 11 27  1  0
 11 28  1  0
 12 29  1  0
M  CHG  1   8   1
M  END
>  <UniqueID>  (12) 
12

>  <SMILES>  (12) 
CCc1cccc([NH2+]CCN)c1

>  <Energy>  (12) 
20.14427450260269

>  <Genealogy>  (12) 
CCc1cccc([NH2+]CCN)c1 (protonated)
CCc1cccc([NH2+]CCN)c1 (3D coordinates assigned)
CCc1cccc([NH2+]CCN)c1 (optimized conformer: 20.14427450260269 kcal/mol)

>  <smiles>  (12) 
CCc1cccc(NCCN)c1

>  <score_type>  (12) 
oracle

>  <origin>  (12) 
adg

>  <m_score__min__energy>  (12) 
-4.2400000000000002

>  <m_primary>  (12) 
energy

$$$$
12:0
     RDKit          3D

 58 59  0  0  0  0  0  0  0  0999 V2000
   60.7630   28.9390   45.2050 C   0  0  0  0  0  0  0  0  0  0  0  0
   59.2580   28.8970   45.4650 C   0  0  0  0  0  0  0  0  0  0  0  0
   58.4870   28.8990   44.2040 N   0  0  0  0  0  0  0  0  0  0  0  0
   57.7710   27.6190   44.0050 C   0  0  0  0  0  0  0  0  0  0  0  0
   58.1490   27.0160   42.6570 C   0  0  0  0  0  0  0  0  0  0  0  0
   57.3630   30.2490   44.1310 S   0  0  0  0  0  0  0  0  0  0  0  0
   56.1050   29.9100   44.8830 O   0  0  0  0  0  0  0  0  0  0  0  0
   56.9770   30.5030   42.7010 O   0  0  0  0  0  0  0  0  0  0  0  0
   58.0520   31.7220   44.8240 C   0  0  0  0  0  0  0  0  0  0  0  0
   58.3340   32.8200   44.0060 C   0  0  0  0  0  0  0  0  0  0  0  0
   58.8590   33.9900   44.5560 C   0  0  0  0  0  0  0  0  0  0  0  0
   59.1030   34.0890   45.9370 C   0  0  0  0  0  0  0  0  0  0  0  0
   59.6380   35.3840   46.4880 C   0  0  0  0  0  0  0  0  0  0  0  0
   58.8410   32.9690   46.7680 C   0  0  0  0  0  0  0  0  0  0  0  0
   59.0960   32.9910   48.2300 C   0  0  0  0  0  0  0  0  0  0  0  0
   59.3860   34.0770   48.8020 O   0  0  0  0  0  0  0  0  0  0  0  0
   59.0320   31.7770   48.9930 N   0  0  0  0  0  0  0  0  0  0  0  0
   59.4180   31.7410   50.4030 C   0  0  0  0  0  0  0  0  0  0  0  0
   60.9380   31.8680   50.5540 C   0  0  0  0  0  0  0  0  0  0  0  0
   61.6680   30.9840   49.5190 C   0  0  0  0  0  0  0  0  0  0  0  0
   62.7510   31.6760   48.7860 N   0  0  0  0  0  0  0  0  0  0  0  0
   62.4370   31.9340   47.3650 C   0  0  0  0  0  0  0  0  0  0  0  0
   63.4330   32.9430   46.7730 C   0  0  0  0  0  0  0  0  0  0  0  0
   63.4430   34.2060   47.4290 O   0  0  0  0  0  0  0  0  0  0  0  0
   62.9960   34.1600   48.7780 C   0  0  0  0  0  0  0  0  0  0  0  0
   63.3350   32.8380   49.4920 C   0  0  0  0  0  0  0  0  0  0  0  0
   58.3210   31.7960   46.1950 C   0  0  0  0  0  0  0  0  0  0  0  0
   61.3006   28.9540   46.1646 H   0  0  0  0  0  0  0  0  0  0  0  0
   61.0610   28.0488   44.6316 H   0  0  0  0  0  0  0  0  0  0  0  0
   61.0109   29.8444   44.6316 H   0  0  0  0  0  0  0  0  0  0  0  0
   59.0185   27.9830   46.0282 H   0  0  0  0  0  0  0  0  0  0  0  0
   58.9829   29.7951   46.0375 H   0  0  0  0  0  0  0  0  0  0  0  0
   58.0461   26.9188   44.8076 H   0  0  0  0  0  0  0  0  0  0  0  0
   56.6869   27.8037   44.0274 H   0  0  0  0  0  0  0  0  0  0  0  0
   58.7270   26.0939   42.8170 H   0  0  0  0  0  0  0  0  0  0  0  0
   57.2354   26.7825   42.0907 H   0  0  0  0  0  0  0  0  0  0  0  0
   58.7574   27.7365   42.0907 H   0  0  0  0  0  0  0  0  0  0  0  0
   58.1413   32.7614   42.9246 H   0  0  0  0  0  0  0  0  0  0  0  0
   59.0846   34.8448   43.9015 H   0  0  0  0  0  0  0  0  0  0  0  0
   59.6234   35.3486   47.5873 H   0  0  0  0  0  0  0  0  0  0  0  0
   60.6708   35.5318   46.1396 H   0  0  0  0  0  0  0  0  0  0  0  0
   59.0107   36.2177   46.1396 H   0  0  0  0  0  0  0  0  0  0  0  0
   58.6860   30.9060   48.5300 H   0  0  0  0  0  0  0  0  0  0  0  0
   58.9321   32.5745   50.9314 H   0  0  0  0  0  0  0  0  0  0  0  0
   59.1000   30.7790   50.8314 H   0  0  0  0  0  0  0  0  0  0  0  0
   61.2291   32.9177   50.4009 H   0  0  0  0  0  0  0  0  0  0  0  0
   61.2209   31.5354   51.5636 H   0  0  0  0  0  0  0  0  0  0  0  0
   62.1043   30.1233   50.0472 H   0  0  0  0  0  0  0  0  0  0  0  0
   60.9179   30.6894   48.7702 H   0  0  0  0  0  0  0  0  0  0  0  0
   62.4989   30.9906   46.8027 H   0  0  0  0  0  0  0  0  0  0  0  0
   61.4212   32.3499   47.2930 H   0  0  0  0  0  0  0  0  0  0  0  0
   64.4425   32.5113   46.8402 H   0  0  0  0  0  0  0  0  0  0  0  0
   63.1169   33.1279   45.7357 H   0  0  0  0  0  0  0  0  0  0  0  0
   63.4692   34.9854   49.3301 H   0  0  0  0  0  0  0  0  0  0  0  0
   61.8995   34.2459   48.7590 H   0  0  0  0  0  0  0  0  0  0  0  0
   64.4282   32.7216   49.5288 H   0  0  0  0  0  0  0  0  0  0  0  0
   62.9111   32.8747   50.5064 H   0  0  0  0  0  0  0  0  0  0  0  0
   58.1225   30.9229   46.8339 H   0  0  0  0  0  0  0  0  0  0  0  0
  1  2  1  0
  2  3  1  0
  3  4  1  0
  4  5  1  0
  3  6  1  0
  6  7  2  0
  6  8  2  0
  6  9  1  0
  9 10  2  0
 10 11  1  0
 11 12  2  0
 12 13  1  0
 12 14  1  0
 14 15  1  0
 15 16  2  0
 15 17  1  0
 17 18  1  0
 18 19  1  0
 19 20  1  0
 20 21  1  0
 21 22  1  0
 22 23  1  0
 23 24  1  0
 24 25  1  0
 25 26  1  0
 14 27  2  0
 27  9  1  0
 26 21  1  0
  1 28  1  0
  1 29  1  0
  1 30  1  0
  2 31  1  0
  2 32  1  0
  4 33  1  0
  4 34  1  0
  5 35  1  0
  5 36  1  0
  5 37  1  0
 10 38  1  0
 11 39  1  0
 13 40  1  0
 13 41  1  0
 13 42  1  0
 17 43  1  0
 18 44  1  0
 18 45  1  0
 19 46  1  0
 19 47  1  0
 20 48  1  0
 20 49  1  0
 22 50  1  0
 22 51  1  0
 23 52  1  0
 23 53  1  0
 25 54  1  0
 25 55  1  0
 26 56  1  0
 26 57  1  0
 27 58  1  0
M  END
>  <UniqueID>  (13) 
13

>  <SMILES>  (13) 
CCN(CC)S(=O)(=O)c1ccc(C)c(C(=O)NCCCN2CCOCC2)c1

>  <Energy>  (13) 
70.33338370500813

>  <Genealogy>  (13) 
CCN(CC)S(=O)(=O)c1ccc(C)c(C(=O)NCCCN2CCOCC2)c1 (3D coordinates assigned)
CCN(CC)S(=O)(=O)c1ccc(C)c(C(=O)NCCCN2CCOCC2)c1 (nonaromatic ring conformer: 70.33338370500813 kcal/mol)

>  <smiles>  (13) 
CCN(CC)S(=O)(=O)c1ccc(C)c(C(=O)NCCCN2CCOCC2)c1

>  <score_type>  (13) 
oracle

>  <origin>  (13) 
adg

>  <m_score__min__energy>  (13) 
-8.5500000000000007

>  <m_primary>  (13) 
energy

$$$$
13:0
     RDKit          3D

 64 67  0  0  0  0  0  0  0  0999 V2000
   63.6210   33.2650   46.7280 C   0  0  0  0  0  0  0  0  0  0  0  0
   62.8890   33.8370   47.9390 C   0  0  0  0  0  0  0  0  0  0  0  0
   62.8920   32.8700   49.0610 N   0  0  0  0  0  0  0  0  0  0  0  0
   64.1130   32.0310   49.0080 C   0  0  0  0  0  0  0  0  0  0  0  0
   65.2680   32.6490   49.7970 C   0  0  0  0  0  0  0  0  0  0  0  0
   62.7360   33.5560   50.3730 C   0  0  0  0  0  0  0  0  0  0  0  0
   62.0430   32.6440   51.3960 C   0  0  0  0  0  0  0  0  0  0  0  0
   62.0210   31.2960   50.9540 O   0  0  0  0  0  0  0  0  0  0  0  0
   60.7430   30.7130   51.1340 C   0  0  0  0  0  0  0  0  0  0  0  0
   59.8430   30.9680   49.9140 C   0  0  0  0  0  0  0  0  0  0  0  0
   60.5740   31.6060   48.8030 N   0  0  0  0  0  0  0  0  0  0  0  0
   59.8110   31.5540   47.5680 C   0  0  0  0  0  0  0  0  0  0  0  0
   59.4700   32.7020   46.7880 C   0  0  0  0  0  0  0  0  0  0  0  0
   59.7870   34.0150   47.2120 C   0  0  0  0  0  0  0  0  0  0  0  0
   59.4180   35.1220   46.4520 C   0  0  0  0  0  0  0  0  0  0  0  0
   58.7100   34.9560   45.2690 C   0  0  0  0  0  0  0  0  0  0  0  0
   58.3930   33.6800   44.8120 C   0  0  0  0  0  0  0  0  0  0  0  0
   58.7920   32.5260   45.5270 C   0  0  0  0  0  0  0  0  0  0  0  0
   58.5430   31.2530   45.0340 N   0  0  0  0  0  0  0  0  0  0  0  0
   58.1410   31.0250   43.6360 C   0  0  0  0  0  0  0  0  0  0  0  0
   58.7660   30.1880   45.8650 C   0  0  0  0  0  0  0  0  0  0  0  0
   59.4070   30.3180   47.0740 C   0  0  0  0  0  0  0  0  0  0  0  0
   59.5690   29.1470   47.6550 O   0  0  0  0  0  0  0  0  0  0  0  0
   59.0280   28.2450   46.8650 C   0  0  0  0  0  0  0  0  0  0  0  0
   58.9480   26.8750   47.1020 C   0  0  0  0  0  0  0  0  0  0  0  0
   59.5180   26.3440   48.2680 O   0  0  0  0  0  0  0  0  0  0  0  0
   60.7010   26.8470   48.8790 C   0  0  0  0  0  0  0  0  0  0  0  0
   58.2790   26.0830   46.1400 C   0  0  0  0  0  0  0  0  0  0  0  0
   57.6970   26.6810   45.0030 C   0  0  0  0  0  0  0  0  0  0  0  0
   57.7900   28.0670   44.7930 C   0  0  0  0  0  0  0  0  0  0  0  0
   58.4960   28.8290   45.7300 C   0  0  0  0  0  0  0  0  0  0  0  0
   64.4452   32.6209   47.0683 H   0  0  0  0  0  0  0  0  0  0  0  0
   62.9196   32.6732   46.1215 H   0  0  0  0  0  0  0  0  0  0  0  0
   64.0257   34.0886   46.1215 H   0  0  0  0  0  0  0  0  0  0  0  0
   63.3901   34.7624   48.2592 H   0  0  0  0  0  0  0  0  0  0  0  0
   61.8466   34.0443   47.6552 H   0  0  0  0  0  0  0  0  0  0  0  0
   63.8829   31.0421   49.4313 H   0  0  0  0  0  0  0  0  0  0  0  0
   64.4247   31.9511   47.9561 H   0  0  0  0  0  0  0  0  0  0  0  0
   65.0731   32.5447   50.8746 H   0  0  0  0  0  0  0  0  0  0  0  0
   66.2046   32.1315   49.5420 H   0  0  0  0  0  0  0  0  0  0  0  0
   65.3571   33.7153   49.5420 H   0  0  0  0  0  0  0  0  0  0  0  0
   63.7301   33.8326   50.7540 H   0  0  0  0  0  0  0  0  0  0  0  0
   62.1145   34.4517   50.2267 H   0  0  0  0  0  0  0  0  0  0  0  0
   62.5863   32.6991   52.3509 H   0  0  0  0  0  0  0  0  0  0  0  0
   61.0047   32.9860   51.5184 H   0  0  0  0  0  0  0  0  0  0  0  0
   60.8593   29.6282   51.2745 H   0  0  0  0  0  0  0  0  0  0  0  0
   60.2720   31.1683   52.0176 H   0  0  0  0  0  0  0  0  0  0  0  0
   59.4387   30.0062   49.5654 H   0  0  0  0  0  0  0  0  0  0  0  0
   59.0398   31.6521   50.2253 H   0  0  0  0  0  0  0  0  0  0  0  0
   60.7270   32.6100   49.0570 H   0  0  0  0  0  0  0  0  0  0  0  0
   61.5300   31.2040   48.7130 H   0  0  0  0  0  0  0  0  0  0  0  0
   60.3327   34.1629   48.1556 H   0  0  0  0  0  0  0  0  0  0  0  0
   59.6887   36.1330   46.7905 H   0  0  0  0  0  0  0  0  0  0  0  0
   58.3980   35.8376   44.6899 H   0  0  0  0  0  0  0  0  0  0  0  0
   57.8222   33.5667   43.8785 H   0  0  0  0  0  0  0  0  0  0  0  0
   57.1844   30.4824   43.6134 H   0  0  0  0  0  0  0  0  0  0  0  0
   58.0261   31.9924   43.1251 H   0  0  0  0  0  0  0  0  0  0  0  0
   58.9122   30.4299   43.1251 H   0  0  0  0  0  0  0  0  0  0  0  0
   60.5960   26.8024   49.9731 H   0  0  0  0  0  0  0  0  0  0  0  0
   61.5620   26.2371   48.5681 H   0  0  0  0  0  0  0  0  0  0  0  0
   60.8592   27.8902   48.5681 H   0  0  0  0  0  0  0  0  0  0  0  0
   58.2122   24.9939   46.2794 H   0  0  0  0  0  0  0  0  0  0  0  0
   57.1641   26.0550   44.2722 H   0  0  0  0  0  0  0  0  0  0  0  0
   57.3212   28.5394   43.9171 H   0  0  0  0  0  0  0  0  0  0  0  0
  1  2  1  0
  2  3  1  0
  3  4  1  0
  4  5  1  0
  3  6  1  0
  6  7  1  0
  7  8  1  0
  8  9  1  0
  9 10  1  0
 10 11  1  0
 11 12  1  0
 12 13  2  0
 13 14  1  0
 14 15  2  0
 15 16  1  0
 16 17  2  0
 17 18  1  0
 18 19  2  0
 19 20  1  0
 19 21  1  0
 21 22  2  0
 22 23  1  0
 23 24  1  0
 24 25  2  0
 25 26  1  0
 26 27  1  0
 25 28  1  0
 28 29  2  0
 29 30  1  0
 30 31  2  0
 22 12  1  0
 31 24  1  0
 18 13  1  0
 31 21  1  0
  1 32  1  0
  1 33  1  0
  1 34  1  0
  2 35  1  0
  2 36  1  0
  4 37  1  0
  4 38  1  0
  5 39  1  0
  5 40  1  0
  5 41  1  0
  6 42  1  0
  6 43  1  0
  7 44  1  0
  7 45  1  0
  9 46  1  0
  9 47  1  0
 10 48  1  0
 10 49  1  0
 11 50  1  0
 11 51  1  0
 14 52  1  0
 15 53  1  0
 16 54  1  0
 17 55  1  0
 20 56  1  0
 20 57  1  0
 20 58  1  0
 27 59  1  0
 27 60  1  0
 27 61  1  0
 28 62  1  0
 29 63  1  0
 30 64  1  0
M  CHG  2  11   1  19   1
M  END
>  <UniqueID>  (14) 
14

>  <SMILES>  (14) 
CCN(CC)CCOCC[NH2+]c1c2ccccc2[n+](C)c2c1oc1c(OC)cccc12

>  <Energy>  (14) 
123.39934295936855

>  <Genealogy>  (14) 
CCN(CC)CCOCC[NH2+]c1c2ccccc2[n+](C)c2c1oc1c(OC)cccc12 (protonated)
CCN(CC)CCOCC[NH2+]c1c2ccccc2[n+](C)c2c1oc1c(OC)cccc12 (3D coordinates assigned)
CCN(CC)CCOCC[NH2+]c1c2ccccc2[n+](C)c2c1oc1c(OC)cccc12 (optimized conformer: 123.39934295936855 kcal/mol)

>  <smiles>  (14) 
CCN(CC)CCOCCNc1c2ccccc2[n+](C)c2c1oc1c(OC)cccc12

>  <score_type>  (14) 
oracle

>  <origin>  (14) 
adg

>  <m_score__min__energy>  (14) 
-4.4199999999999999

>  <m_primary>  (14) 
energy

$$$$
14:0
     RDKit          3D

 50 51  0  0  0  0  0  0  0  0999 V2000
   57.4530   32.3400   41.2600 C   0  0  0  0  0  0  0  0  0  0  0  0
   58.1400   32.1610   42.6200 C   0  0  0  0  0  0  0  0  0  0  0  0
   57.2080   31.9350   43.7470 N   0  0  0  0  0  0  0  0  0  0  0  0
   57.6900   32.5080   45.0190 C   0  0  0  0  0  0  0  0  0  0  0  0
   57.0500   33.8690   45.2640 C   0  0  0  0  0  0  0  0  0  0  0  0
   56.7550   30.2500   43.9160 S   0  0  0  0  0  0  0  0  0  0  0  0
   55.3850   30.1350   44.5250 O   0  0  0  0  0  0  0  0  0  0  0  0
   56.7260   29.5960   42.5630 O   0  0  0  0  0  0  0  0  0  0  0  0
   57.9330   29.3960   44.9100 C   0  0  0  0  0  0  0  0  0  0  0  0
   59.3080   29.6090   44.7390 C   0  0  0  0  0  0  0  0  0  0  0  0
   60.2300   28.9020   45.5160 C   0  0  0  0  0  0  0  0  0  0  0  0
   59.7960   27.9820   46.4780 C   0  0  0  0  0  0  0  0  0  0  0  0
   60.7650   27.3020   47.2340 O   0  0  0  0  0  0  0  0  0  0  0  0
   60.7120   27.0920   48.6440 C   0  0  0  0  0  0  0  0  0  0  0  0
   60.6880   28.4080   49.3590 C   0  0  0  0  0  0  0  0  0  0  0  0
   60.3280   28.4450   50.5670 O   0  0  0  0  0  0  0  0  0  0  0  0
   61.0950   29.6090   48.6900 N   0  0  0  0  0  0  0  0  0  0  0  0
   61.5210   30.7980   49.4220 C   0  0  0  0  0  0  0  0  0  0  0  0
   61.9190   31.8790   48.4540 C   0  0  0  0  0  0  0  0  0  0  0  0
   63.2420   31.9610   47.9880 C   0  0  0  0  0  0  0  0  0  0  0  0
   63.5980   32.9360   47.0520 C   0  0  0  0  0  0  0  0  0  0  0  0
   62.6400   33.8340   46.5750 C   0  0  0  0  0  0  0  0  0  0  0  0
   61.3180   33.7510   47.0250 C   0  0  0  0  0  0  0  0  0  0  0  0
   60.0040   34.9670   46.3610 Br  0  0  0  0  0  0  0  0  0  0  0  0
   60.9570   32.7700   47.9550 C   0  0  0  0  0  0  0  0  0  0  0  0
   58.4130   27.7700   46.6460 C   0  0  0  0  0  0  0  0  0  0  0  0
   57.4920   28.4730   45.8640 C   0  0  0  0  0  0  0  0  0  0  0  0
   56.3991   32.6146   41.4149 H   0  0  0  0  0  0  0  0  0  0  0  0
   57.9601   33.1360   40.6950 H   0  0  0  0  0  0  0  0  0  0  0  0
   57.5072   31.3978   40.6950 H   0  0  0  0  0  0  0  0  0  0  0  0
   58.8164   31.2961   42.5533 H   0  0  0  0  0  0  0  0  0  0  0  0
   58.6693   33.1016   42.8322 H   0  0  0  0  0  0  0  0  0  0  0  0
   57.4276   31.8301   45.8446 H   0  0  0  0  0  0  0  0  0  0  0  0
   58.7817   32.6314   44.9641 H   0  0  0  0  0  0  0  0  0  0  0  0
   56.9670   34.0456   46.3466 H   0  0  0  0  0  0  0  0  0  0  0  0
   57.6733   34.6541   44.8112 H   0  0  0  0  0  0  0  0  0  0  0  0
   56.0478   33.8897   44.8112 H   0  0  0  0  0  0  0  0  0  0  0  0
   59.6621   30.3342   43.9916 H   0  0  0  0  0  0  0  0  0  0  0  0
   61.3073   29.0701   45.3702 H   0  0  0  0  0  0  0  0  0  0  0  0
   59.8028   26.5255   48.8937 H   0  0  0  0  0  0  0  0  0  0  0  0
   61.6023   26.5274   48.9580 H   0  0  0  0  0  0  0  0  0  0  0  0
   61.2130   29.6010   47.6510 H   0  0  0  0  0  0  0  0  0  0  0  0
   60.6917   31.1570   50.0492 H   0  0  0  0  0  0  0  0  0  0  0  0
   62.3831   30.5438   50.0561 H   0  0  0  0  0  0  0  0  0  0  0  0
   63.9996   31.2560   48.3608 H   0  0  0  0  0  0  0  0  0  0  0  0
   64.6350   32.9964   46.6900 H   0  0  0  0  0  0  0  0  0  0  0  0
   62.9252   34.6064   45.8455 H   0  0  0  0  0  0  0  0  0  0  0  0
   59.9139   32.6970   48.2966 H   0  0  0  0  0  0  0  0  0  0  0  0
   58.0567   27.0482   47.3957 H   0  0  0  0  0  0  0  0  0  0  0  0
   56.4143   28.2994   45.9996 H   0  0  0  0  0  0  0  0  0  0  0  0
  1  2  1  0
  2  3  1  0
  3  4  1  0
  4  5  1  0
  3  6  1  0
  6  7  2  0
  6  8  2  0
  6  9  1  0
  9 10  2  0
 10 11  1  0
 11 12  2  0
 12 13  1  0
 13 14  1  0
 14 15  1  0
 15 16  2  0
 15 17  1  0
 17 18  1  0
 18 19  1  0
 19 20  2  0
 20 21  1  0
 21 22  2  0
 22 23  1  0
 23 24  1  0
 23 25  2  0
 12 26  1  0
 26 27  2  0
 27  9  1  0
 25 19  1  0
  1 28  1  0
  1 29  1  0
  1 30  1  0
  2 31  1  0
  2 32  1  0
  4 33  1  0
  4 34  1  0
  5 35  1  0
  5 36  1  0
  5 37  1  0
 10 38  1  0
 11 39  1  0
 14 40  1  0
 14 41  1  0
 17 42  1  0
 18 43  1  0
 18 44  1  0
 20 45  1  0
 21 46  1  0
 22 47  1  0
 25 48  1  0
 26 49  1  0
 27 50  1  0
M  END
>  <UniqueID>  (15) 
15

>  <SMILES>  (15) 
CCN(CC)S(=O)(=O)c1ccc(OCC(=O)NCc2cccc(Br)c2)cc1

>  <Energy>  (15) 
40.820932130002745

>  <Genealogy>  (15) 
CCN(CC)S(=O)(=O)c1ccc(OCC(=O)NCc2cccc(Br)c2)cc1 (3D coordinates assigned)
CCN(CC)S(=O)(=O)c1ccc(OCC(=O)NCc2cccc(Br)c2)cc1 (optimized conformer: 40.820932130002745 kcal/mol)

>  <smiles>  (15) 
CCN(CC)S(=O)(=O)c1ccc(OCC(=O)NCc2cccc(Br)c2)cc1

>  <score_type>  (15) 
oracle

>  <origin>  (15) 
adg

>  <m_score__min__energy>  (15) 
-8.4800000000000004

>  <m_primary>  (15) 
energy

$$$$
15:0
     RDKit          3D

 56 59  0  0  0  0  0  0  0  0999 V2000
   56.5830   29.7000   42.7400 C   0  0  0  0  0  0  0  0  0  0  0  0
   55.3940   29.7200   43.6950 C   0  0  0  0  0  0  0  0  0  0  0  0
   55.8010   29.3640   45.0170 O   0  0  0  0  0  0  0  0  0  0  0  0
   57.0580   28.8490   45.3860 C   0  0  0  0  0  0  0  0  0  0  0  0
   57.2730   27.4640   45.5460 C   0  0  0  0  0  0  0  0  0  0  0  0
   58.5320   26.9790   45.9060 C   0  0  0  0  0  0  0  0  0  0  0  0
   59.5900   27.8610   46.1080 C   0  0  0  0  0  0  0  0  0  0  0  0
   59.3960   29.2340   45.9520 C   0  0  0  0  0  0  0  0  0  0  0  0
   58.1350   29.7440   45.5910 C   0  0  0  0  0  0  0  0  0  0  0  0
   57.9620   31.2100   45.4400 C   0  0  0  0  0  0  0  0  0  0  0  0
   58.9850   32.0920   45.5000 N   0  0  0  0  0  0  0  0  0  0  0  0
   58.3770   33.2800   45.3170 C   0  0  0  0  0  0  0  0  0  0  0  0
   59.0840   34.6010   45.3580 C   0  0  0  0  0  0  0  0  0  0  0  0
   59.8900   34.7350   46.5900 N   0  0  0  0  0  0  0  0  0  0  0  0
   59.1780   34.1670   47.7670 C   0  0  0  0  0  0  0  0  0  0  0  0
   60.1310   33.8260   48.9170 C   0  0  0  0  0  0  0  0  0  0  0  0
   61.1530   32.8790   48.4560 N   0  0  0  0  0  0  0  0  0  0  0  0
   61.8670   32.0660   49.4080 C   0  0  0  0  0  0  0  0  0  0  0  0
   62.9960   32.5890   50.0620 C   0  0  0  0  0  0  0  0  0  0  0  0
   63.7090   31.8150   50.9790 C   0  0  0  0  0  0  0  0  0  0  0  0
   63.3030   30.5110   51.2550 C   0  0  0  0  0  0  0  0  0  0  0  0
   62.1790   29.9770   50.6220 C   0  0  0  0  0  0  0  0  0  0  0  0
   61.4450   30.7490   49.6970 C   0  0  0  0  0  0  0  0  0  0  0  0
   60.2920   30.2490   49.0720 O   0  0  0  0  0  0  0  0  0  0  0  0
   58.9610   30.5270   49.4890 C   0  0  0  0  0  0  0  0  0  0  0  0
   61.4830   32.8290   47.0270 C   0  0  0  0  0  0  0  0  0  0  0  0
   61.2680   34.2100   46.3960 C   0  0  0  0  0  0  0  0  0  0  0  0
   57.0240   33.0890   45.1690 C   0  0  0  0  0  0  0  0  0  0  0  0
   56.8020   31.8010   45.2450 O   0  0  0  0  0  0  0  0  0  0  0  0
   57.5181   29.6843   43.3190 H   0  0  0  0  0  0  0  0  0  0  0  0
   56.5291   28.8026   42.1061 H   0  0  0  0  0  0  0  0  0  0  0  0
   56.5593   30.5987   42.1061 H   0  0  0  0  0  0  0  0  0  0  0  0
   54.9607   30.7309   43.7107 H   0  0  0  0  0  0  0  0  0  0  0  0
   54.6486   28.9901   43.3463 H   0  0  0  0  0  0  0  0  0  0  0  0
   56.4425   26.7607   45.3859 H   0  0  0  0  0  0  0  0  0  0  0  0
   58.6882   25.8973   46.0303 H   0  0  0  0  0  0  0  0  0  0  0  0
   60.5804   27.4750   46.3910 H   0  0  0  0  0  0  0  0  0  0  0  0
   60.2370   29.9245   46.1128 H   0  0  0  0  0  0  0  0  0  0  0  0
   59.7474   34.6807   44.4842 H   0  0  0  0  0  0  0  0  0  0  0  0
   58.3298   35.4016   45.3450 H   0  0  0  0  0  0  0  0  0  0  0  0
   58.4426   34.9030   48.1240 H   0  0  0  0  0  0  0  0  0  0  0  0
   58.6914   33.2340   47.4466 H   0  0  0  0  0  0  0  0  0  0  0  0
   60.6195   34.7460   49.2706 H   0  0  0  0  0  0  0  0  0  0  0  0
   59.5586   33.3692   49.7378 H   0  0  0  0  0  0  0  0  0  0  0  0
   63.3207   33.6182   49.8491 H   0  0  0  0  0  0  0  0  0  0  0  0
   64.5916   32.2346   51.4839 H   0  0  0  0  0  0  0  0  0  0  0  0
   63.8696   29.9006   51.9736 H   0  0  0  0  0  0  0  0  0  0  0  0
   61.8636   28.9473   50.8460 H   0  0  0  0  0  0  0  0  0  0  0  0
   58.9155   30.5365   50.5880 H   0  0  0  0  0  0  0  0  0  0  0  0
   58.6527   31.5089   49.1008 H   0  0  0  0  0  0  0  0  0  0  0  0
   58.2854   29.7506   49.1008 H   0  0  0  0  0  0  0  0  0  0  0  0
   62.5350   32.5316   46.9053 H   0  0  0  0  0  0  0  0  0  0  0  0
   60.8309   32.0964   46.5289 H   0  0  0  0  0  0  0  0  0  0  0  0
   61.9784   34.9163   46.8504 H   0  0  0  0  0  0  0  0  0  0  0  0
   61.4274   34.1028   45.3129 H   0  0  0  0  0  0  0  0  0  0  0  0
   56.2679   33.8730   45.0152 H   0  0  0  0  0  0  0  0  0  0  0  0
  1  2  1  0
  2  3  1  0
  3  4  1  0
  4  5  2  0
  5  6  1  0
  6  7  2  0
  7  8  1  0
  8  9  2  0
  9 10  1  0
 10 11  2  0
 11 12  1  0
 12 13  1  0
 13 14  1  0
 14 15  1  0
 15 16  1  0
 16 17  1  0
 17 18  1  0
 18 19  2  0
 19 20  1  0
 20 21  2  0
 21 22  1  0
 22 23  2  0
 23 24  1  0
 24 25  1  0
 17 26  1  0
 26 27  1  0
 12 28  2  0
 28 29  1  0
  9  4  1  0
 29 10  1  0
 27 14  1  0
 23 18  1  0
  1 30  1  0
  1 31  1  0
  1 32  1  0
  2 33  1  0
  2 34  1  0
  5 35  1  0
  6 36  1  0
  7 37  1  0
  8 38  1  0
 13 39  1  0
 13 40  1  0
 15 41  1  0
 15 42  1  0
 16 43  1  0
 16 44  1  0
 19 45  1  0
 20 46  1  0
 21 47  1  0
 22 48  1  0
 25 49  1  0
 25 50  1  0
 25 51  1  0
 26 52  1  0
 26 53  1  0
 27 54  1  0
 27 55  1  0
 28 56  1  0
M  END
>  <UniqueID>  (16) 
16

>  <SMILES>  (16) 
CCOc1ccccc1-c1nc(CN2CCN(c3ccccc3OC)CC2)co1

>  <Energy>  (16) 
98.95376308253338

>  <Genealogy>  (16) 
CCOc1ccccc1-c1nc(CN2CCN(c3ccccc3OC)CC2)co1 (3D coordinates assigned)
CCOc1ccccc1-c1nc(CN2CCN(c3ccccc3OC)CC2)co1 (nonaromatic ring conformer: 98.95376308253338 kcal/mol)

>  <smiles>  (16) 
CCOc1ccccc1-c1nc(CN2CCN(c3ccccc3OC)CC2)co1

>  <score_type>  (16) 
oracle

>  <origin>  (16) 
adg

>  <m_score__min__energy>  (16) 
-8.6699999999999999

>  <m_primary>  (16) 
energy

$$$$
16:0
     RDKit          3D

 42 44  0  0  0  0  0  0  0  0999 V2000
   61.0379   29.1485   48.8964 H   0  0  0  0  0  0  0  0  0  0  0  0
   60.3790   29.7210   48.2270 C   0  0  0  0  0  0  0  0  0  0  0  0
   60.5300   31.0550   47.9890 N   0  0  0  0  0  0  0  0  0  0  0  0
   59.5320   31.3170   47.1250 C   0  0  0  0  0  0  0  0  0  0  0  0
   58.8220   30.1890   46.8600 C   0  0  0  0  0  0  0  0  0  0  0  0
   57.7790   30.1550   45.9820 N   0  0  0  0  0  0  0  0  0  0  0  0
   57.3950   31.2970   45.3220 C   0  0  0  0  0  0  0  0  0  0  0  0
   56.3930   31.2150   44.4930 N   0  0  0  0  0  0  0  0  0  0  0  0
   55.9280   30.0500   43.7500 C   0  0  0  0  0  0  0  0  0  0  0  0
   55.6151   29.2661   44.4554 H   0  0  0  0  0  0  0  0  0  0  0  0
   55.0749   30.3354   43.1170 H   0  0  0  0  0  0  0  0  0  0  0  0
   56.7432   29.6695   43.1170 H   0  0  0  0  0  0  0  0  0  0  0  0
   58.1280   32.4980   45.5880 C   0  0  0  0  0  0  0  0  0  0  0  0
   58.0850   33.8040   45.1130 C   0  0  0  0  0  0  0  0  0  0  0  0
   57.3693   34.1977   44.3763 H   0  0  0  0  0  0  0  0  0  0  0  0
   59.0730   34.5080   45.7110 N   0  0  0  0  0  0  0  0  0  0  0  0
   59.2970   35.5130   45.5330 H   0  0  0  0  0  0  0  0  0  0  0  0
   59.7390   33.7230   46.5490 N   0  0  0  0  0  0  0  0  0  0  0  0
   60.9170   34.1520   47.3020 C   0  0  0  0  0  0  0  0  0  0  0  0
   60.8761   35.2421   47.4438 H   0  0  0  0  0  0  0  0  0  0  0  0
   60.9185   33.6369   48.2740 H   0  0  0  0  0  0  0  0  0  0  0  0
   62.2050   33.7920   46.5570 C   0  0  0  0  0  0  0  0  0  0  0  0
   61.9728   33.6141   45.4966 H   0  0  0  0  0  0  0  0  0  0  0  0
   62.9176   34.6244   46.6532 H   0  0  0  0  0  0  0  0  0  0  0  0
   62.8080   32.5780   47.1320 N   0  0  0  0  0  0  0  0  0  0  0  0
   62.0510   31.9960   47.5590 H   0  0  0  0  0  0  0  0  0  0  0  0
   63.7640   32.9000   48.1940 C   0  0  0  0  0  0  0  0  0  0  0  0
   63.2907   32.7406   49.1741 H   0  0  0  0  0  0  0  0  0  0  0  0
   64.6463   32.2495   48.1027 H   0  0  0  0  0  0  0  0  0  0  0  0
   64.0729   33.9518   48.1027 H   0  0  0  0  0  0  0  0  0  0  0  0
   59.1820   32.4980   46.4850 C   0  0  0  0  0  0  0  0  0  0  0  0
   59.3360   29.1690   47.5570 N   0  0  0  0  0  0  0  0  0  0  0  0
   58.9540   27.7610   47.5080 C   0  0  0  0  0  0  0  0  0  0  0  0
   57.8984   27.6601   47.8005 H   0  0  0  0  0  0  0  0  0  0  0  0
   59.5907   27.1911   48.2007 H   0  0  0  0  0  0  0  0  0  0  0  0
   59.1410   27.2140   46.0910 C   0  0  0  0  0  0  0  0  0  0  0  0
   59.6821   26.2577   46.1440 H   0  0  0  0  0  0  0  0  0  0  0  0
   59.7113   27.9504   45.5058 H   0  0  0  0  0  0  0  0  0  0  0  0
   57.7970   26.9880   45.4050 C   0  0  0  0  0  0  0  0  0  0  0  0
   57.0142   26.8564   46.1665 H   0  0  0  0  0  0  0  0  0  0  0  0
   57.5550   27.8581   44.7770 H   0  0  0  0  0  0  0  0  0  0  0  0
   57.8529   26.0866   44.7770 H   0  0  0  0  0  0  0  0  0  0  0  0
  1  2  1  0
  2  3  2  0
  3  4  1  0
  4  5  2  0
  5  6  1  0
  6  7  1  0
  7  8  2  0
  8  9  1  0
  9 10  1  0
  9 11  1  0
  9 12  1  0
  7 13  1  0
 13 14  1  0
 14 15  1  0
 14 16  2  0
 16 17  1  0
 16 18  1  0
 18 19  1  0
 19 20  1  0
 19 21  1  0
 19 22  1  0
 22 23  1  0
 22 24  1  0
 22 25  1  0
 25 26  1  0
 25 27  1  0
 27 28  1  0
 27 29  1  0
 27 30  1  0
 18 31  1  0
  5 32  1  0
 32 33  1  0
 33 34  1  0
 33 35  1  0
 33 36  1  0
 36 37  1  0
 36 38  1  0
 36 39  1  0
 39 40  1  0
 39 41  1  0
 39 42  1  0
 32  2  1  0
 31  4  1  0
 31 13  2  0
M  CHG  2   6  -1  16   1
M  END
>  <UniqueID>  (17) 
17

>  <SMILES>  (17) 
CCCn1cnc2c1[n-]/c(=N/C)c1c[nH+]n(CCNC)c12

>  <Energy>  (17) 
119.14778950460783

>  <Genealogy>  (17) 
CCCn1cnc2c1[n-]c(=NC)c1c[nH+]n(CCNC)c12 (protonated)
CCCn1cnc2c1[n-]/c(=N/C)c1c[nH+]n(CCNC)c12 (cis-trans isomerization)
CCCn1cnc2c1[n-]/c(=N/C)c1c[nH+]n(CCNC)c12 (3D coordinates assigned)
CCCn1cnc2c1[n-]/c(=N/C)c1c[nH+]n(CCNC)c12 (optimized conformer: 119.14778950460783 kcal/mol)

>  <smiles>  (17) 
CCCn1cnc2c1[nH]c(=NC)c1cnn(CCNC)c12

>  <score_type>  (17) 
oracle

>  <origin>  (17) 
adg

>  <m_score__min__energy>  (17) 
-6.5800000000000001

>  <m_primary>  (17) 
energy

$$$$
17:0
     RDKit          3D

 45 47  0  0  0  0  0  0  0  0999 V2000
   58.9570   28.4240   45.2780 C   0  0  0  0  0  0  0  0  0  0  0  0
   57.4800   28.5080   45.6490 C   0  0  0  0  0  0  0  0  0  0  0  0
   57.0390   29.8660   45.6630 O   0  0  0  0  0  0  0  0  0  0  0  0
   57.3940   30.8580   44.7310 C   0  0  0  0  0  0  0  0  0  0  0  0
   57.3950   30.6130   43.3420 C   0  0  0  0  0  0  0  0  0  0  0  0
   57.7640   31.6180   42.4460 C   0  0  0  0  0  0  0  0  0  0  0  0
   58.1430   32.8750   42.9170 C   0  0  0  0  0  0  0  0  0  0  0  0
   58.1530   33.1310   44.2890 C   0  0  0  0  0  0  0  0  0  0  0  0
   57.7730   32.1350   45.2040 C   0  0  0  0  0  0  0  0  0  0  0  0
   57.8290   32.4420   46.6820 C   0  0  0  0  0  0  0  0  0  0  0  0
   59.2310   32.5490   47.1390 N   0  0  0  0  0  0  0  0  0  0  0  0
   59.8270   33.8550   46.7580 C   0  0  0  0  0  0  0  0  0  0  0  0
   61.3690   33.8440   46.7820 C   0  0  0  0  0  0  0  0  0  0  0  0
   61.8690   32.7460   47.6130 N   0  0  0  0  0  0  0  0  0  0  0  0
   62.8750   32.9800   48.6190 C   0  0  0  0  0  0  0  0  0  0  0  0
   62.5600   33.6740   49.8000 C   0  0  0  0  0  0  0  0  0  0  0  0
   63.5220   33.8760   50.7360 N   0  0  0  0  0  0  0  0  0  0  0  0
   64.7900   33.4290   50.5500 C   0  0  0  0  0  0  0  0  0  0  0  0
   65.1140   32.7530   49.3730 C   0  0  0  0  0  0  0  0  0  0  0  0
   64.1550   32.5440   48.4330 N   0  0  0  0  0  0  0  0  0  0  0  0
   61.3770   31.3860   47.3600 C   0  0  0  0  0  0  0  0  0  0  0  0
   60.0340   31.4250   46.6220 C   0  0  0  0  0  0  0  0  0  0  0  0
   59.5639   28.3895   46.1948 H   0  0  0  0  0  0  0  0  0  0  0  0
   59.1352   27.5143   44.6858 H   0  0  0  0  0  0  0  0  0  0  0  0
   59.2371   29.3077   44.6858 H   0  0  0  0  0  0  0  0  0  0  0  0
   56.8899   27.9444   44.9113 H   0  0  0  0  0  0  0  0  0  0  0  0
   57.3432   28.0816   46.6537 H   0  0  0  0  0  0  0  0  0  0  0  0
   57.1029   29.6229   42.9620 H   0  0  0  0  0  0  0  0  0  0  0  0
   57.7558   31.4178   41.3644 H   0  0  0  0  0  0  0  0  0  0  0  0
   58.4338   33.6639   42.2077 H   0  0  0  0  0  0  0  0  0  0  0  0
   58.4610   34.1208   44.6569 H   0  0  0  0  0  0  0  0  0  0  0  0
   57.3129   33.3944   46.8731 H   0  0  0  0  0  0  0  0  0  0  0  0
   57.3381   31.6258   47.2324 H   0  0  0  0  0  0  0  0  0  0  0  0
   59.4941   34.1087   45.7407 H   0  0  0  0  0  0  0  0  0  0  0  0
   59.4919   34.5976   47.4971 H   0  0  0  0  0  0  0  0  0  0  0  0
   61.7447   33.7194   45.7557 H   0  0  0  0  0  0  0  0  0  0  0  0
   61.7216   34.7957   47.2061 H   0  0  0  0  0  0  0  0  0  0  0  0
   61.5399   34.0512   49.9647 H   0  0  0  0  0  0  0  0  0  0  0  0
   65.5562   33.5983   51.3209 H   0  0  0  0  0  0  0  0  0  0  0  0
   66.1395   32.3914   49.2070 H   0  0  0  0  0  0  0  0  0  0  0  0
   64.4210   32.0570   47.5480 H   0  0  0  0  0  0  0  0  0  0  0  0
   62.1113   30.8447   46.7454 H   0  0  0  0  0  0  0  0  0  0  0  0
   61.2364   30.8754   48.3241 H   0  0  0  0  0  0  0  0  0  0  0  0
   60.2096   31.5627   45.5449 H   0  0  0  0  0  0  0  0  0  0  0  0
   59.4951   30.4798   46.7835 H   0  0  0  0  0  0  0  0  0  0  0  0
  1  2  1  0
  2  3  1  0
  3  4  1  0
  4  5  2  0
  5  6  1  0
  6  7  2  0
  7  8  1  0
  8  9  2  0
  9 10  1  0
 10 11  1  0
 11 12  1  0
 12 13  1  0
 13 14  1  0
 14 15  1  0
 15 16  2  0
 16 17  1  0
 17 18  2  0
 18 19  1  0
 19 20  2  0
 14 21  1  0
 21 22  1  0
  9  4  1  0
 22 11  1  0
 20 15  1  0
  1 23  1  0
  1 24  1  0
  1 25  1  0
  2 26  1  0
  2 27  1  0
  5 28  1  0
  6 29  1  0
  7 30  1  0
  8 31  1  0
 10 32  1  0
 10 33  1  0
 12 34  1  0
 12 35  1  0
 13 36  1  0
 13 37  1  0
 16 38  1  0
 18 39  1  0
 19 40  1  0
 20 41  1  0
 21 42  1  0
 21 43  1  0
 22 44  1  0
 22 45  1  0
M  CHG  1  20   1
M  END
>  <UniqueID>  (18) 
18

>  <SMILES>  (18) 
CCOc1ccccc1CN1CCN(c2cncc[nH+]2)CC1

>  <Energy>  (18) 
55.3892304975206

>  <Genealogy>  (18) 
CCOc1ccccc1CN1CCN(c2cncc[nH+]2)CC1 (protonated)
CCOc1ccccc1CN1CCN(c2cncc[nH+]2)CC1 (3D coordinates assigned)
CCOc1ccccc1CN1CCN(c2cncc[nH+]2)CC1 (nonaromatic ring conformer: 55.3892304975206 kcal/mol)

>  <smiles>  (18) 
CCOc1ccccc1CN1CCN(c2cnccn2)CC1

>  <score_type>  (18) 
oracle

>  <origin>  (18) 
adg

>  <m_score__min__energy>  (18) 
-5.3399999999999999

>  <m_primary>  (18) 
energy

$$$$
18:0
     RDKit          3D

 43 44  0  0  0  0  0  0  0  0999 V2000
   59.7620   34.1760   49.4670 C   0  0  0  0  0  0  0  0  0  0  0  0
   60.7600   33.5300   48.5020 C   0  0  0  0  0  0  0  0  0  0  0  0
   60.7820   34.1420   47.1560 N   0  0  0  0  0  0  0  0  0  0  0  0
   62.0050   33.8320   46.3910 C   0  0  0  0  0  0  0  0  0  0  0  0
   63.0810   33.2530   47.3030 C   0  0  0  0  0  0  0  0  0  0  0  0
   59.2970   33.8820   46.2500 S   0  0  0  0  0  0  0  0  0  0  0  0
   58.1440   34.5130   46.9820 O   0  0  0  0  0  0  0  0  0  0  0  0
   59.4150   34.5740   44.9210 O   0  0  0  0  0  0  0  0  0  0  0  0
   58.9200   32.1770   45.9520 C   0  0  0  0  0  0  0  0  0  0  0  0
   59.7840   31.1780   46.4130 C   0  0  0  0  0  0  0  0  0  0  0  0
   59.5060   29.8350   46.1620 C   0  0  0  0  0  0  0  0  0  0  0  0
   58.3690   29.4670   45.4320 C   0  0  0  0  0  0  0  0  0  0  0  0
   58.1560   28.0820   45.1300 N   0  0  0  0  0  0  0  0  0  0  0  0
   58.4760   27.4910   43.8440 C   0  0  0  0  0  0  0  0  0  0  0  0
   57.7930   26.1290   43.8410 C   0  0  0  0  0  0  0  0  0  0  0  0
   57.4110   25.8440   45.2930 C   0  0  0  0  0  0  0  0  0  0  0  0
   57.3950   27.1960   45.9930 C   0  0  0  0  0  0  0  0  0  0  0  0
   57.4920   30.4670   44.9480 C   0  0  0  0  0  0  0  0  0  0  0  0
   56.2900   30.1330   44.2280 N   0  0  0  0  0  0  0  0  0  0  0  0
   56.2310   30.2680   42.9880 O   0  0  0  0  0  0  0  0  0  0  0  0
   55.2420   29.5240   44.8770 O   0  0  0  0  0  0  0  0  0  0  0  0
   57.7940   31.8170   45.1970 C   0  0  0  0  0  0  0  0  0  0  0  0
   60.0717   33.9755   50.5033 H   0  0  0  0  0  0  0  0  0  0  0  0
   59.7367   35.2623   49.2955 H   0  0  0  0  0  0  0  0  0  0  0  0
   58.7606   33.7543   49.2955 H   0  0  0  0  0  0  0  0  0  0  0  0
   61.7666   33.6165   48.9372 H   0  0  0  0  0  0  0  0  0  0  0  0
   60.4422   32.4852   48.3699 H   0  0  0  0  0  0  0  0  0  0  0  0
   61.7640   33.0991   45.6069 H   0  0  0  0  0  0  0  0  0  0  0  0
   62.3855   34.7613   45.9421 H   0  0  0  0  0  0  0  0  0  0  0  0
   62.7935   33.4077   48.3534 H   0  0  0  0  0  0  0  0  0  0  0  0
   63.1873   32.1759   47.1068 H   0  0  0  0  0  0  0  0  0  0  0  0
   64.0385   33.7577   47.1068 H   0  0  0  0  0  0  0  0  0  0  0  0
   60.6876   31.4535   46.9766 H   0  0  0  0  0  0  0  0  0  0  0  0
   60.1858   29.0576   46.5408 H   0  0  0  0  0  0  0  0  0  0  0  0
   58.0892   28.1169   43.0263 H   0  0  0  0  0  0  0  0  0  0  0  0
   59.5622   27.4033   43.6940 H   0  0  0  0  0  0  0  0  0  0  0  0
   56.8941   26.1540   43.2075 H   0  0  0  0  0  0  0  0  0  0  0  0
   58.4550   25.3481   43.4386 H   0  0  0  0  0  0  0  0  0  0  0  0
   56.4169   25.3758   45.3423 H   0  0  0  0  0  0  0  0  0  0  0  0
   58.1205   25.1511   45.7689 H   0  0  0  0  0  0  0  0  0  0  0  0
   56.3630   27.5598   46.1052 H   0  0  0  0  0  0  0  0  0  0  0  0
   57.8238   27.1398   47.0044 H   0  0  0  0  0  0  0  0  0  0  0  0
   57.1378   32.6025   44.7940 H   0  0  0  0  0  0  0  0  0  0  0  0
  1  2  1  0
  2  3  1  0
  3  4  1  0
  4  5  1  0
  3  6  1  0
  6  7  2  0
  6  8  2  0
  6  9  1  0
  9 10  2  0
 10 11  1  0
 11 12  2  0
 12 13  1  0
 13 14  1  0
 14 15  1  0
 15 16  1  0
 16 17  1  0
 12 18  1  0
 18 19  1  0
 19 20  2  0
 19 21  1  0
 18 22  2  0
 22  9  1  0
 17 13  1  0
  1 23  1  0
  1 24  1  0
  1 25  1  0
  2 26  1  0
  2 27  1  0
  4 28  1  0
  4 29  1  0
  5 30  1  0
  5 31  1  0
  5 32  1  0
 10 33  1  0
 11 34  1  0
 14 35  1  0
 14 36  1  0
 15 37  1  0
 15 38  1  0
 16 39  1  0
 16 40  1  0
 17 41  1  0
 17 42  1  0
 22 43  1  0
M  CHG  2  19   1  21  -1
M  END
>  <UniqueID>  (19) 
19

>  <SMILES>  (19) 
CCN(CC)S(=O)(=O)c1ccc(N2CCCC2)c([N+](=O)[O-])c1

>  <Energy>  (19) 
51.42156805302707

>  <Genealogy>  (19) 
CCN(CC)S(=O)(=O)c1ccc(N2CCCC2)c([N+](=O)[O-])c1 (3D coordinates assigned)
CCN(CC)S(=O)(=O)c1ccc(N2CCCC2)c([N+](=O)[O-])c1 (nonaromatic ring conformer: 51.42156805302707 kcal/mol)

>  <smiles>  (19) 
CCN(CC)S(=O)(=O)c1ccc(N2CCCC2)c([N+](=O)[O-])c1

>  <score_type>  (19) 
oracle

>  <origin>  (19) 
adg

>  <m_score__min__energy>  (19) 
-7.6600000000000001

>  <m_primary>  (19) 
energy

$$$$
19:0
     RDKit          3D

 54 57  0  0  0  0  0  0  0  0999 V2000
   61.0960   29.9180   50.2110 C   0  0  0  0  0  0  0  0  0  0  0  0
   61.1080   30.3390   48.8510 O   0  0  0  0  0  0  0  0  0  0  0  0
   60.3430   29.7460   47.8360 C   0  0  0  0  0  0  0  0  0  0  0  0
   59.1700   29.0150   48.1050 C   0  0  0  0  0  0  0  0  0  0  0  0
   58.4370   28.4490   47.0580 C   0  0  0  0  0  0  0  0  0  0  0  0
   58.8650   28.6000   45.7290 C   0  0  0  0  0  0  0  0  0  0  0  0
   58.0180   28.0730   44.6000 C   0  0  0  0  0  0  0  0  0  0  0  0
   57.9350   29.0690   43.5240 N   0  0  0  0  0  0  0  0  0  0  0  0
   56.5360   29.4200   43.2340 C   0  0  0  0  0  0  0  0  0  0  0  0
   56.0540   30.6100   44.0800 C   0  0  0  0  0  0  0  0  0  0  0  0
   56.9430   30.8670   45.1710 O   0  0  0  0  0  0  0  0  0  0  0  0
   57.5670   32.0970   45.4400 C   0  0  0  0  0  0  0  0  0  0  0  0
   57.4640   33.2070   44.5780 C   0  0  0  0  0  0  0  0  0  0  0  0
   58.1350   34.3960   44.8790 C   0  0  0  0  0  0  0  0  0  0  0  0
   58.9190   34.4890   46.0310 C   0  0  0  0  0  0  0  0  0  0  0  0
   59.0330   33.3910   46.8960 C   0  0  0  0  0  0  0  0  0  0  0  0
   59.8880   33.4810   48.0980 C   0  0  0  0  0  0  0  0  0  0  0  0
   59.2680   33.5730   49.3550 C   0  0  0  0  0  0  0  0  0  0  0  0
   60.0300   33.6300   50.5230 C   0  0  0  0  0  0  0  0  0  0  0  0
   61.4230   33.6020   50.4560 C   0  0  0  0  0  0  0  0  0  0  0  0
   62.0650   33.5310   49.2170 C   0  0  0  0  0  0  0  0  0  0  0  0
   63.4250   33.5240   49.1640 N   0  0  0  0  0  0  0  0  0  0  0  0
   64.0960   33.4750   47.9860 C   0  0  0  0  0  0  0  0  0  0  0  0
   63.3960   33.4350   46.7820 C   0  0  0  0  0  0  0  0  0  0  0  0
   62.0000   33.4410   46.7970 C   0  0  0  0  0  0  0  0  0  0  0  0
   61.3060   33.4740   48.0210 C   0  0  0  0  0  0  0  0  0  0  0  0
   58.3290   32.2100   46.6090 C   0  0  0  0  0  0  0  0  0  0  0  0
   60.0280   29.3340   45.4610 C   0  0  0  0  0  0  0  0  0  0  0  0
   60.7640   29.8960   46.5080 C   0  0  0  0  0  0  0  0  0  0  0  0
   61.1211   30.7998   50.8680 H   0  0  0  0  0  0  0  0  0  0  0  0
   60.1810   29.3400   50.4079 H   0  0  0  0  0  0  0  0  0  0  0  0
   61.9766   29.2888   50.4079 H   0  0  0  0  0  0  0  0  0  0  0  0
   58.8291   28.8888   49.1432 H   0  0  0  0  0  0  0  0  0  0  0  0
   57.5199   27.8822   47.2762 H   0  0  0  0  0  0  0  0  0  0  0  0
   58.4689   27.1497   44.2072 H   0  0  0  0  0  0  0  0  0  0  0  0
   57.0057   27.8644   44.9764 H   0  0  0  0  0  0  0  0  0  0  0  0
   58.4460   29.9300   43.8330 H   0  0  0  0  0  0  0  0  0  0  0  0
   58.3870   28.6800   42.6620 H   0  0  0  0  0  0  0  0  0  0  0  0
   56.4490   29.6827   42.1694 H   0  0  0  0  0  0  0  0  0  0  0  0
   55.9090   28.5507   43.4816 H   0  0  0  0  0  0  0  0  0  0  0  0
   56.0014   31.5048   43.4424 H   0  0  0  0  0  0  0  0  0  0  0  0
   55.0631   30.3652   44.4902 H   0  0  0  0  0  0  0  0  0  0  0  0
   56.8537   33.1377   43.6654 H   0  0  0  0  0  0  0  0  0  0  0  0
   58.0451   35.2614   44.2060 H   0  0  0  0  0  0  0  0  0  0  0  0
   59.4483   35.4256   46.2604 H   0  0  0  0  0  0  0  0  0  0  0  0
   58.1702   33.6004   49.4196 H   0  0  0  0  0  0  0  0  0  0  0  0
   59.5299   33.6973   51.5004 H   0  0  0  0  0  0  0  0  0  0  0  0
   62.0176   33.6359   51.3809 H   0  0  0  0  0  0  0  0  0  0  0  0
   65.1960   33.4668   47.9814 H   0  0  0  0  0  0  0  0  0  0  0  0
   63.9395   33.3989   45.8263 H   0  0  0  0  0  0  0  0  0  0  0  0
   61.4411   33.4199   45.8498 H   0  0  0  0  0  0  0  0  0  0  0  0
   58.3769   31.3642   47.3107 H   0  0  0  0  0  0  0  0  0  0  0  0
   60.3633   29.4686   44.4220 H   0  0  0  0  0  0  0  0  0  0  0  0
   61.6817   30.4610   46.2875 H   0  0  0  0  0  0  0  0  0  0  0  0
  1  2  1  0
  2  3  1  0
  3  4  2  0
  4  5  1  0
  5  6  2  0
  6  7  1  0
  7  8  1  0
  8  9  1  0
  9 10  1  0
 10 11  1  0
 11 12  1  0
 12 13  2  0
 13 14  1  0
 14 15  2  0
 15 16  1  0
 16 17  1  0
 17 18  2  0
 18 19  1  0
 19 20  2  0
 20 21  1  0
 21 22  2  0
 22 23  1  0
 23 24  2  0
 24 25  1  0
 25 26  2  0
 16 27  2  0
  6 28  1  0
 28 29  2  0
 29  3  1  0
 27 12  1  0
 26 17  1  0
 26 21  1  0
  1 30  1  0
  1 31  1  0
  1 32  1  0
  4 33  1  0
  5 34  1  0
  7 35  1  0
  7 36  1  0
  8 37  1  0
  8 38  1  0
  9 39  1  0
  9 40  1  0
 10 41  1  0
 10 42  1  0
 13 43  1  0
 14 44  1  0
 15 45  1  0
 18 46  1  0
 19 47  1  0
 20 48  1  0
 23 49  1  0
 24 50  1  0
 25 51  1  0
 27 52  1  0
 28 53  1  0
 29 54  1  0
M  CHG  1   8   1
M  END
>  <UniqueID>  (20) 
20

>  <SMILES>  (20) 
COc1ccc(C[NH2+]CCOc2cccc(-c3cccc4ncccc34)c2)cc1

>  <Energy>  (20) 
66.86398261083042

>  <Genealogy>  (20) 
COc1ccc(C[NH2+]CCOc2cccc(-c3cccc4ncccc34)c2)cc1 (protonated)
COc1ccc(C[NH2+]CCOc2cccc(-c3cccc4ncccc34)c2)cc1 (3D coordinates assigned)
COc1ccc(C[NH2+]CCOc2cccc(-c3cccc4ncccc34)c2)cc1 (optimized conformer: 66.86398261083042 kcal/mol)

>  <smiles>  (20) 
COc1ccc(CNCCOc2cccc(-c3cccc4ncccc34)c2)cc1

>  <score_type>  (20) 
oracle

>  <origin>  (20) 
adg

>  <m_score__min__energy>  (20) 
-7.4199999999999999

>  <m_primary>  (20) 
energy

$$$$
20:0
     RDKit          3D

 37 39  0  0  0  0  0  0  0  0999 V2000
   63.5200   32.7170   50.2210 C   0  0  0  0  0  0  0  0  0  0  0  0
   64.3110   33.4060   49.1050 C   0  0  0  0  0  0  0  0  0  0  0  0
   64.2280   32.6750   47.8290 N   0  0  0  0  0  0  0  0  0  0  0  0
   62.8730   32.6280   47.3290 C   0  0  0  0  0  0  0  0  0  0  0  0
   62.2020   33.8050   46.9880 C   0  0  0  0  0  0  0  0  0  0  0  0
   60.8960   33.7580   46.5080 C   0  0  0  0  0  0  0  0  0  0  0  0
   60.2060   32.5350   46.3590 C   0  0  0  0  0  0  0  0  0  0  0  0
   60.8760   31.3300   46.7400 C   0  0  0  0  0  0  0  0  0  0  0  0
   62.2070   31.4030   47.1990 C   0  0  0  0  0  0  0  0  0  0  0  0
   60.2840   29.9360   46.6470 C   0  0  0  0  0  0  0  0  0  0  0  0
   58.7780   29.8760   46.8850 C   0  0  0  0  0  0  0  0  0  0  0  0
   58.0670   30.2130   45.6110 C   0  0  0  0  0  0  0  0  0  0  0  0
   57.3740   29.2130   44.9050 C   0  0  0  0  0  0  0  0  0  0  0  0
   56.7330   29.5130   43.7030 C   0  0  0  0  0  0  0  0  0  0  0  0
   56.7810   30.8100   43.1920 C   0  0  0  0  0  0  0  0  0  0  0  0
   57.4740   31.8080   43.8800 C   0  0  0  0  0  0  0  0  0  0  0  0
   58.1390   31.5160   45.0860 C   0  0  0  0  0  0  0  0  0  0  0  0
   58.8150   32.6130   45.8120 C   0  0  0  0  0  0  0  0  0  0  0  0
   58.1870   33.7030   45.9150 O   0  0  0  0  0  0  0  0  0  0  0  0
   63.9005   33.0484   51.1985 H   0  0  0  0  0  0  0  0  0  0  0  0
   62.4558   32.9811   50.1330 H   0  0  0  0  0  0  0  0  0  0  0  0
   63.6356   31.6266   50.1330 H   0  0  0  0  0  0  0  0  0  0  0  0
   63.9082   34.4192   48.9593 H   0  0  0  0  0  0  0  0  0  0  0  0
   65.3678   33.4342   49.4090 H   0  0  0  0  0  0  0  0  0  0  0  0
   64.8700   33.1100   47.1250 H   0  0  0  0  0  0  0  0  0  0  0  0
   64.5650   31.6950   47.9830 H   0  0  0  0  0  0  0  0  0  0  0  0
   62.7088   34.7749   47.0995 H   0  0  0  0  0  0  0  0  0  0  0  0
   60.3893   34.6963   46.2383 H   0  0  0  0  0  0  0  0  0  0  0  0
   62.7355   30.4747   47.4615 H   0  0  0  0  0  0  0  0  0  0  0  0
   60.4898   29.5407   45.6413 H   0  0  0  0  0  0  0  0  0  0  0  0
   60.7528   29.3409   47.4445 H   0  0  0  0  0  0  0  0  0  0  0  0
   58.4961   28.8628   47.2073 H   0  0  0  0  0  0  0  0  0  0  0  0
   58.4974   30.5962   47.6677 H   0  0  0  0  0  0  0  0  0  0  0  0
   57.3373   28.1883   45.3032 H   0  0  0  0  0  0  0  0  0  0  0  0
   56.1897   28.7269   43.1582 H   0  0  0  0  0  0  0  0  0  0  0  0
   56.2723   31.0469   42.2459 H   0  0  0  0  0  0  0  0  0  0  0  0
   57.5006   32.8309   43.4763 H   0  0  0  0  0  0  0  0  0  0  0  0
  1  2  1  0
  2  3  1  0
  3  4  1  0
  4  5  2  0
  5  6  1  0
  6  7  2  0
  7  8  1  0
  8  9  2  0
  8 10  1  0
 10 11  1  0
 11 12  1  0
 12 13  2  0
 13 14  1  0
 14 15  2  0
 15 16  1  0
 16 17  2  0
 17 18  1  0
 18 19  2  0
  9  4  1  0
 17 12  1  0
 18  7  1  0
  1 20  1  0
  1 21  1  0
  1 22  1  0
  2 23  1  0
  2 24  1  0
  3 25  1  0
  3 26  1  0
  5 27  1  0
  6 28  1  0
  9 29  1  0
 10 30  1  0
 10 31  1  0
 11 32  1  0
 11 33  1  0
 13 34  1  0
 14 35  1  0
 15 36  1  0
 16 37  1  0
M  CHG  1   3   1
M  END
>  <UniqueID>  (21) 
21

>  <SMILES>  (21) 
CC[NH2+]c1ccc2c(c1)CCc1ccccc1C2=O

>  <Energy>  (21) 
54.367387781359184

>  <Genealogy>  (21) 
CC[NH2+]c1ccc2c(c1)CCc1ccccc1C2=O (protonated)
CC[NH2+]c1ccc2c(c1)CCc1ccccc1C2=O (3D coordinates assigned)
CC[NH2+]c1ccc2c(c1)CCc1ccccc1C2=O (nonaromatic ring conformer: 54.367387781359184 kcal/mol)

>  <smiles>  (21) 
CCNc1ccc2c(c1)CCc1ccccc1C2=O

>  <score_type>  (21) 
oracle

>  <origin>  (21) 
adg

>  <m_score__min__energy>  (21) 
-5.1299999999999999

>  <m_primary>  (21) 
energy

$$$$
21:0
     RDKit          3D

 46 49  0  0  0  0  0  0  0  0999 V2000
   63.0700   33.9420   50.1300 C   0  0  0  0  0  0  0  0  0  0  0  0
   62.0540   34.7150   49.5010 O   0  0  0  0  0  0  0  0  0  0  0  0
   61.1490   34.2150   48.5520 C   0  0  0  0  0  0  0  0  0  0  0  0
   59.7560   34.2140   48.7670 C   0  0  0  0  0  0  0  0  0  0  0  0
   58.8940   33.7020   47.7940 C   0  0  0  0  0  0  0  0  0  0  0  0
   59.4050   33.1790   46.5990 C   0  0  0  0  0  0  0  0  0  0  0  0
   58.3150   32.5100   45.3810 S   0  0  0  0  0  0  0  0  0  0  0  0
   56.8960   32.6550   45.8550 O   0  0  0  0  0  0  0  0  0  0  0  0
   58.4600   33.2920   44.1050 O   0  0  0  0  0  0  0  0  0  0  0  0
   58.6550   30.8210   45.0730 N   0  0  0  0  0  0  0  0  0  0  0  0
   58.9010   30.1160   46.3540 C   0  0  0  0  0  0  0  0  0  0  0  0
   58.7530   28.5960   46.2160 C   0  0  0  0  0  0  0  0  0  0  0  0
   57.4200   28.2620   45.7000 N   0  0  0  0  0  0  0  0  0  0  0  0
   56.8680   26.9520   45.9220 C   0  0  0  0  0  0  0  0  0  0  0  0
   55.5720   26.6440   45.6430 N   0  0  0  0  0  0  0  0  0  0  0  0
   55.5000   25.3520   45.9950 C   0  0  0  0  0  0  0  0  0  0  0  0
   54.3940   24.5090   45.9230 C   0  0  0  0  0  0  0  0  0  0  0  0
   54.5570   23.1790   46.3520 C   0  0  0  0  0  0  0  0  0  0  0  0
   55.8090   22.7310   46.8360 C   0  0  0  0  0  0  0  0  0  0  0  0
   56.9050   23.6130   46.8920 C   0  0  0  0  0  0  0  0  0  0  0  0
   56.7050   24.9220   46.4610 C   0  0  0  0  0  0  0  0  0  0  0  0
   57.5990   25.9210   46.4270 N   0  0  0  0  0  0  0  0  0  0  0  0
   56.6470   29.2900   44.9960 C   0  0  0  0  0  0  0  0  0  0  0  0
   57.5990   30.2100   44.2190 C   0  0  0  0  0  0  0  0  0  0  0  0
   60.7890   33.1890   46.3810 C   0  0  0  0  0  0  0  0  0  0  0  0
   61.6540   33.7010   47.3520 C   0  0  0  0  0  0  0  0  0  0  0  0
   62.9920   33.6970   47.1250 F   0  0  0  0  0  0  0  0  0  0  0  0
   62.9670   34.0204   51.2224 H   0  0  0  0  0  0  0  0  0  0  0  0
   62.9703   32.8893   49.8269 H   0  0  0  0  0  0  0  0  0  0  0  0
   64.0580   34.3189   49.8269 H   0  0  0  0  0  0  0  0  0  0  0  0
   59.3460   34.6179   49.7044 H   0  0  0  0  0  0  0  0  0  0  0  0
   57.8078   33.7096   47.9672 H   0  0  0  0  0  0  0  0  0  0  0  0
   59.5500   30.8020   44.5300 H   0  0  0  0  0  0  0  0  0  0  0  0
   59.9225   30.3432   46.6930 H   0  0  0  0  0  0  0  0  0  0  0  0
   58.1517   30.4638   47.0803 H   0  0  0  0  0  0  0  0  0  0  0  0
   59.5171   28.2180   45.5208 H   0  0  0  0  0  0  0  0  0  0  0  0
   58.8824   28.1312   47.2046 H   0  0  0  0  0  0  0  0  0  0  0  0
   53.4266   24.8703   45.5439 H   0  0  0  0  0  0  0  0  0  0  0  0
   53.7060   22.4832   46.3109 H   0  0  0  0  0  0  0  0  0  0  0  0
   55.9264   21.6895   47.1698 H   0  0  0  0  0  0  0  0  0  0  0  0
   57.8853   23.2797   47.2633 H   0  0  0  0  0  0  0  0  0  0  0  0
   55.9505   28.8076   44.2944 H   0  0  0  0  0  0  0  0  0  0  0  0
   56.0805   29.8852   45.7273 H   0  0  0  0  0  0  0  0  0  0  0  0
   58.0868   29.6205   43.4287 H   0  0  0  0  0  0  0  0  0  0  0  0
   56.9948   31.0328   43.8091 H   0  0  0  0  0  0  0  0  0  0  0  0
   61.1972   32.7915   45.4400 H   0  0  0  0  0  0  0  0  0  0  0  0
  1  2  1  0
  2  3  1  0
  3  4  2  0
  4  5  1  0
  5  6  2  0
  6  7  1  0
  7  8  2  0
  7  9  2  0
  7 10  1  0
 10 11  1  0
 11 12  1  0
 12 13  1  0
 13 14  1  0
 14 15  2  0
 15 16  1  0
 16 17  2  0
 17 18  1  0
 18 19  2  0
 19 20  1  0
 20 21  2  0
 21 22  1  0
 13 23  1  0
 23 24  1  0
  6 25  1  0
 25 26  2  0
 26 27  1  0
 26  3  1  0
 24 10  1  0
 22 14  1  0
 21 16  1  0
  1 28  1  0
  1 29  1  0
  1 30  1  0
  4 31  1  0
  5 32  1  0
 10 33  1  0
 11 34  1  0
 11 35  1  0
 12 36  1  0
 12 37  1  0
 17 38  1  0
 18 39  1  0
 19 40  1  0
 20 41  1  0
 23 42  1  0
 23 43  1  0
 24 44  1  0
 24 45  1  0
 25 46  1  0
M  CHG  2  10   1  22  -1
M  END
>  <UniqueID>  (22) 
22

>  <SMILES>  (22) 
COc1ccc(S(=O)(=O)[NH+]2CCN(c3nc4ccccc4[n-]3)CC2)cc1F

>  <Energy>  (22) 
88.04535802005117

>  <Genealogy>  (22) 
COc1ccc(S(=O)(=O)[NH+]2CCN(c3nc4ccccc4[n-]3)CC2)cc1F (protonated)
COc1ccc(S(=O)(=O)[NH+]2CCN(c3nc4ccccc4[n-]3)CC2)cc1F (3D coordinates assigned)
COc1ccc(S(=O)(=O)[NH+]2CCN(c3nc4ccccc4[n-]3)CC2)cc1F (nonaromatic ring conformer: 88.04535802005117 kcal/mol)

>  <smiles>  (22) 
COc1ccc(S(=O)(=O)N2CCN(c3nc4ccccc4[nH]3)CC2)cc1F

>  <score_type>  (22) 
oracle

>  <origin>  (22) 
adg

>  <m_score__min__energy>  (22) 
-7.4299999999999997

>  <m_primary>  (22) 
energy

$$$$
22:0
     RDKit          3D

 41 43  0  0  0  0  0  0  0  0999 V2000
   55.0880   23.7040   44.3110 C   0  0  0  0  0  0  0  0  0  0  0  0
   54.2520   24.5150   45.3020 C   0  0  0  0  0  0  0  0  0  0  0  0
   55.0970   25.5030   45.9930 N   0  0  0  0  0  0  0  0  0  0  0  0
   56.2110   24.8630   46.7120 C   0  0  0  0  0  0  0  0  0  0  0  0
   57.4350   25.7910   46.7740 C   0  0  0  0  0  0  0  0  0  0  0  0
   57.7730   26.4370   45.4280 C   0  0  0  0  0  0  0  0  0  0  0  0
   56.7810   27.4070   45.0980 O   0  0  0  0  0  0  0  0  0  0  0  0
   57.0700   28.7680   44.9390 C   0  0  0  0  0  0  0  0  0  0  0  0
   56.6450   29.4160   43.7730 C   0  0  0  0  0  0  0  0  0  0  0  0
   56.9510   30.7600   43.5570 C   0  0  0  0  0  0  0  0  0  0  0  0
   57.6520   31.4790   44.5300 C   0  0  0  0  0  0  0  0  0  0  0  0
   57.9520   32.7890   44.3350 N   0  0  0  0  0  0  0  0  0  0  0  0
   58.6270   33.5050   45.2700 C   0  0  0  0  0  0  0  0  0  0  0  0
   58.9470   34.8460   45.0300 C   0  0  0  0  0  0  0  0  0  0  0  0
   59.6490   35.5770   45.9940 C   0  0  0  0  0  0  0  0  0  0  0  0
   60.0430   34.9660   47.1960 C   0  0  0  0  0  0  0  0  0  0  0  0
   59.7360   33.6220   47.4360 C   0  0  0  0  0  0  0  0  0  0  0  0
   59.0330   32.8810   46.4760 C   0  0  0  0  0  0  0  0  0  0  0  0
   58.7310   31.5660   46.6820 N   0  0  0  0  0  0  0  0  0  0  0  0
   58.0540   30.8490   45.7310 C   0  0  0  0  0  0  0  0  0  0  0  0
   57.7710   29.4880   45.9210 C   0  0  0  0  0  0  0  0  0  0  0  0
   55.7708   23.0416   44.8633 H   0  0  0  0  0  0  0  0  0  0  0  0
   54.4219   23.0989   43.6785 H   0  0  0  0  0  0  0  0  0  0  0  0
   55.6726   24.3882   43.6785 H   0  0  0  0  0  0  0  0  0  0  0  0
   53.4516   25.0385   44.7586 H   0  0  0  0  0  0  0  0  0  0  0  0
   53.8170   23.8322   46.0467 H   0  0  0  0  0  0  0  0  0  0  0  0
   55.5230   26.1040   45.2490 H   0  0  0  0  0  0  0  0  0  0  0  0
   55.8881   24.6252   47.7363 H   0  0  0  0  0  0  0  0  0  0  0  0
   56.4941   23.9466   46.1735 H   0  0  0  0  0  0  0  0  0  0  0  0
   57.2316   26.5891   47.5032 H   0  0  0  0  0  0  0  0  0  0  0  0
   58.2977   25.1739   47.0653 H   0  0  0  0  0  0  0  0  0  0  0  0
   58.7557   26.9268   45.4940 H   0  0  0  0  0  0  0  0  0  0  0  0
   57.7984   25.6618   44.6479 H   0  0  0  0  0  0  0  0  0  0  0  0
   56.0650   28.8609   43.0210 H   0  0  0  0  0  0  0  0  0  0  0  0
   56.6415   31.2528   42.6235 H   0  0  0  0  0  0  0  0  0  0  0  0
   58.6473   35.3240   44.0857 H   0  0  0  0  0  0  0  0  0  0  0  0
   59.8933   36.6337   45.8103 H   0  0  0  0  0  0  0  0  0  0  0  0
   60.5945   35.5458   47.9508 H   0  0  0  0  0  0  0  0  0  0  0  0
   60.0464   33.1469   48.3783 H   0  0  0  0  0  0  0  0  0  0  0  0
   59.0400   31.0970   47.5660 H   0  0  0  0  0  0  0  0  0  0  0  0
   58.0989   28.9831   46.8416 H   0  0  0  0  0  0  0  0  0  0  0  0
  1  2  1  0
  2  3  1  0
  3  4  1  0
  4  5  1  0
  5  6  1  0
  6  7  1  0
  7  8  1  0
  8  9  2  0
  9 10  1  0
 10 11  2  0
 11 12  1  0
 12 13  2  0
 13 14  1  0
 14 15  2  0
 15 16  1  0
 16 17  2  0
 17 18  1  0
 18 19  2  0
 19 20  1  0
 20 21  2  0
 21  8  1  0
 20 11  1  0
 18 13  1  0
  1 22  1  0
  1 23  1  0
  1 24  1  0
  2 25  1  0
  2 26  1  0
  3 27  1  0
  4 28  1  0
  4 29  1  0
  5 30  1  0
  5 31  1  0
  6 32  1  0
  6 33  1  0
  9 34  1  0
 10 35  1  0
 14 36  1  0
 15 37  1  0
 16 38  1  0
 17 39  1  0
 19 40  1  0
 21 41  1  0
M  CHG  1  19   1
M  END
>  <UniqueID>  (23) 
23

>  <SMILES>  (23) 
CCNCCCOc1ccc2nc3ccccc3[nH+]c2c1

>  <Energy>  (23) 
45.98355627898323

>  <Genealogy>  (23) 
CCNCCCOc1ccc2nc3ccccc3[nH+]c2c1 (protonated)
CCNCCCOc1ccc2nc3ccccc3[nH+]c2c1 (3D coordinates assigned)
CCNCCCOc1ccc2nc3ccccc3[nH+]c2c1 (optimized conformer: 45.98355627898323 kcal/mol)

>  <smiles>  (23) 
CCNCCCOc1ccc2nc3ccccc3nc2c1

>  <score_type>  (23) 
oracle

>  <origin>  (23) 
adg

>  <m_score__min__energy>  (23) 
-5.5700000000000003

>  <m_primary>  (23) 
energy

$$$$
23:0
     RDKit          3D

 56 58  0  0  0  0  0  0  0  0999 V2000
   59.4220   33.1320   50.4730 C   0  0  0  0  0  0  0  0  0  0  0  0
   59.6190   32.8160   49.1000 O   0  0  0  0  0  0  0  0  0  0  0  0
   60.8720   32.7420   48.4700 C   0  0  0  0  0  0  0  0  0  0  0  0
   61.7450   33.8480   48.4210 C   0  0  0  0  0  0  0  0  0  0  0  0
   62.9750   33.7480   47.7670 C   0  0  0  0  0  0  0  0  0  0  0  0
   63.3480   32.5500   47.1550 C   0  0  0  0  0  0  0  0  0  0  0  0
   62.4940   31.4480   47.1990 C   0  0  0  0  0  0  0  0  0  0  0  0
   61.2570   31.5310   47.8570 C   0  0  0  0  0  0  0  0  0  0  0  0
   60.3970   30.3810   47.8990 N   0  0  0  0  0  0  0  0  0  0  0  0
   60.7860   29.1880   48.6580 C   0  0  0  0  0  0  0  0  0  0  0  0
   60.4720   27.9050   47.8610 C   0  0  0  0  0  0  0  0  0  0  0  0
   59.2830   28.0090   46.9730 N   0  0  0  0  0  0  0  0  0  0  0  0
   59.6470   28.0770   45.5380 C   0  0  0  0  0  0  0  0  0  0  0  0
   58.4080   28.3180   44.6580 C   0  0  0  0  0  0  0  0  0  0  0  0
   58.2850   29.7610   44.1400 C   0  0  0  0  0  0  0  0  0  0  0  0
   56.8280   30.2150   43.9830 C   0  0  0  0  0  0  0  0  0  0  0  0
   56.5480   31.3040   44.8630 O   0  0  0  0  0  0  0  0  0  0  0  0
   57.4100   32.3820   45.1230 C   0  0  0  0  0  0  0  0  0  0  0  0
   58.2880   32.9090   44.1540 C   0  0  0  0  0  0  0  0  0  0  0  0
   59.1260   33.9820   44.4700 C   0  0  0  0  0  0  0  0  0  0  0  0
   59.1070   34.5410   45.7560 C   0  0  0  0  0  0  0  0  0  0  0  0
   59.9780   35.7180   46.0810 C   0  0  0  0  0  0  0  0  0  0  0  0
   58.2190   34.0320   46.7130 C   0  0  0  0  0  0  0  0  0  0  0  0
   57.3810   32.9580   46.3980 C   0  0  0  0  0  0  0  0  0  0  0  0
   58.3600   29.0940   47.3640 C   0  0  0  0  0  0  0  0  0  0  0  0
   59.0570   30.4600   47.3090 C   0  0  0  0  0  0  0  0  0  0  0  0
   59.9008   32.3641   51.0983 H   0  0  0  0  0  0  0  0  0  0  0  0
   59.8686   34.1133   50.6912 H   0  0  0  0  0  0  0  0  0  0  0  0
   58.3443   33.1630   50.6912 H   0  0  0  0  0  0  0  0  0  0  0  0
   61.4558   34.7948   48.9005 H   0  0  0  0  0  0  0  0  0  0  0  0
   63.6512   34.6150   47.7341 H   0  0  0  0  0  0  0  0  0  0  0  0
   64.3159   32.4750   46.6378 H   0  0  0  0  0  0  0  0  0  0  0  0
   62.7923   30.5067   46.7143 H   0  0  0  0  0  0  0  0  0  0  0  0
   61.8655   29.2286   48.8653 H   0  0  0  0  0  0  0  0  0  0  0  0
   60.2159   29.1671   49.5985 H   0  0  0  0  0  0  0  0  0  0  0  0
   61.3463   27.6640   47.2385 H   0  0  0  0  0  0  0  0  0  0  0  0
   60.2440   27.1236   48.6009 H   0  0  0  0  0  0  0  0  0  0  0  0
   60.3593   28.9017   45.3876 H   0  0  0  0  0  0  0  0  0  0  0  0
   60.0974   27.1162   45.2480 H   0  0  0  0  0  0  0  0  0  0  0  0
   58.4611   27.6420   43.7918 H   0  0  0  0  0  0  0  0  0  0  0  0
   57.5263   28.1276   45.2875 H   0  0  0  0  0  0  0  0  0  0  0  0
   58.7878   30.4334   44.8506 H   0  0  0  0  0  0  0  0  0  0  0  0
   58.7515   29.7960   43.1444 H   0  0  0  0  0  0  0  0  0  0  0  0
   56.6582   30.5354   42.9445 H   0  0  0  0  0  0  0  0  0  0  0  0
   56.1637   29.3746   44.2329 H   0  0  0  0  0  0  0  0  0  0  0  0
   58.3136   32.4735   43.1442 H   0  0  0  0  0  0  0  0  0  0  0  0
   59.8040   34.3902   43.7060 H   0  0  0  0  0  0  0  0  0  0  0  0
   60.0573   35.8251   47.1729 H   0  0  0  0  0  0  0  0  0  0  0  0
   60.9797   35.5618   45.6542 H   0  0  0  0  0  0  0  0  0  0  0  0
   59.5358   36.6303   45.6542 H   0  0  0  0  0  0  0  0  0  0  0  0
   58.1810   34.4796   47.7171 H   0  0  0  0  0  0  0  0  0  0  0  0
   56.6927   32.5622   47.1593 H   0  0  0  0  0  0  0  0  0  0  0  0
   57.5018   29.1008   46.6759 H   0  0  0  0  0  0  0  0  0  0  0  0
   58.0267   28.9135   48.3966 H   0  0  0  0  0  0  0  0  0  0  0  0
   59.1424   30.7801   46.2601 H   0  0  0  0  0  0  0  0  0  0  0  0
   58.4602   31.1854   47.8814 H   0  0  0  0  0  0  0  0  0  0  0  0
  1  2  1  0
  2  3  1  0
  3  4  2  0
  4  5  1  0
  5  6  2  0
  6  7  1  0
  7  8  2  0
  8  9  1  0
  9 10  1  0
 10 11  1  0
 11 12  1  0
 12 13  1  0
 13 14  1  0
 14 15  1  0
 15 16  1  0
 16 17  1  0
 17 18  1  0
 18 19  2  0
 19 20  1  0
 20 21  2  0
 21 22  1  0
 21 23  1  0
 23 24  2  0
 12 25  1  0
 25 26  1  0
  8  3  1  0
 26  9  1  0
 24 18  1  0
  1 27  1  0
  1 28  1  0
  1 29  1  0
  4 30  1  0
  5 31  1  0
  6 32  1  0
  7 33  1  0
 10 34  1  0
 10 35  1  0
 11 36  1  0
 11 37  1  0
 13 38  1  0
 13 39  1  0
 14 40  1  0
 14 41  1  0
 15 42  1  0
 15 43  1  0
 16 44  1  0
 16 45  1  0
 19 46  1  0
 20 47  1  0
 22 48  1  0
 22 49  1  0
 22 50  1  0
 23 51  1  0
 24 52  1  0
 25 53  1  0
 25 54  1  0
 26 55  1  0
 26 56  1  0
M  END
>  <UniqueID>  (24) 
24

>  <SMILES>  (24) 
COc1ccccc1N1CCN(CCCCOc2ccc(C)cc2)CC1

>  <Energy>  (24) 
63.276227153781804

>  <Genealogy>  (24) 
COc1ccccc1N1CCN(CCCCOc2ccc(C)cc2)CC1 (3D coordinates assigned)
COc1ccccc1N1CCN(CCCCOc2ccc(C)cc2)CC1 (nonaromatic ring conformer: 63.276227153781804 kcal/mol)

>  <smiles>  (24) 
COc1ccccc1N1CCN(CCCCOc2ccc(C)cc2)CC1

>  <score_type>  (24) 
oracle

>  <origin>  (24) 
adg

>  <m_score__min__energy>  (24) 
-8.3000000000000007

>  <m_primary>  (24) 
energy

$$$$
24:0
     RDKit          3D

 44 46  0  0  0  0  0  0  0  0999 V2000
   57.4710   32.1630   41.9850 O   0  0  0  0  0  0  0  0  0  0  0  0
   57.4000   31.6750   43.1470 C   0  0  0  0  0  0  0  0  0  0  0  0
   56.8390   30.4060   43.3250 C   0  0  0  0  0  0  0  0  0  0  0  0
   56.7490   29.8560   44.6170 C   0  0  0  0  0  0  0  0  0  0  0  0
   56.1270   28.5820   44.8630 N   0  0  0  0  0  0  0  0  0  0  0  0
   56.6250   27.5940   45.8270 C   0  0  0  0  0  0  0  0  0  0  0  0
   57.9480   26.9680   45.3560 C   0  0  0  0  0  0  0  0  0  0  0  0
   58.4450   27.5770   44.0350 C   0  0  0  0  0  0  0  0  0  0  0  0
   59.3580   28.7070   44.2720 N   0  0  0  0  0  0  0  0  0  0  0  0
   60.3770   28.3880   45.2890 C   0  0  0  0  0  0  0  0  0  0  0  0
   60.3070   29.3160   46.4800 C   0  0  0  0  0  0  0  0  0  0  0  0
   59.4580   29.0220   47.5610 C   0  0  0  0  0  0  0  0  0  0  0  0
   59.4280   29.8580   48.6810 C   0  0  0  0  0  0  0  0  0  0  0  0
   60.2340   30.9990   48.7320 C   0  0  0  0  0  0  0  0  0  0  0  0
   60.1590   32.0320   50.1520 Cl  0  0  0  0  0  0  0  0  0  0  0  0
   61.0910   31.2970   47.6570 C   0  0  0  0  0  0  0  0  0  0  0  0
   62.1540   32.7010   47.6960 Cl  0  0  0  0  0  0  0  0  0  0  0  0
   61.1270   30.4530   46.5390 C   0  0  0  0  0  0  0  0  0  0  0  0
   57.2320   30.5630   45.6780 N   0  0  0  0  0  0  0  0  0  0  0  0
   57.7790   31.7990   45.5400 C   0  0  0  0  0  0  0  0  0  0  0  0
   58.2290   32.4940   46.6700 C   0  0  0  0  0  0  0  0  0  0  0  0
   58.7580   33.7800   46.5370 C   0  0  0  0  0  0  0  0  0  0  0  0
   58.8540   34.3750   45.2760 C   0  0  0  0  0  0  0  0  0  0  0  0
   58.4180   33.6870   44.1400 C   0  0  0  0  0  0  0  0  0  0  0  0
   57.8710   32.3940   44.2610 C   0  0  0  0  0  0  0  0  0  0  0  0
   56.4693   29.8397   42.4575 H   0  0  0  0  0  0  0  0  0  0  0  0
   55.4640   28.2270   44.1360 H   0  0  0  0  0  0  0  0  0  0  0  0
   56.7883   28.0896   46.7954 H   0  0  0  0  0  0  0  0  0  0  0  0
   55.8767   26.7931   45.9197 H   0  0  0  0  0  0  0  0  0  0  0  0
   58.7120   27.1317   46.1303 H   0  0  0  0  0  0  0  0  0  0  0  0
   57.7708   25.8958   45.1861 H   0  0  0  0  0  0  0  0  0  0  0  0
   58.9758   26.8027   43.4618 H   0  0  0  0  0  0  0  0  0  0  0  0
   57.5732   27.9488   43.4767 H   0  0  0  0  0  0  0  0  0  0  0  0
   58.8090   29.5310   44.6120 H   0  0  0  0  0  0  0  0  0  0  0  0
   59.8310   28.9710   43.3750 H   0  0  0  0  0  0  0  0  0  0  0  0
   60.2207   27.3556   45.6350 H   0  0  0  0  0  0  0  0  0  0  0  0
   61.3666   28.5098   44.8244 H   0  0  0  0  0  0  0  0  0  0  0  0
   58.8146   28.1305   47.5255 H   0  0  0  0  0  0  0  0  0  0  0  0
   58.7669   29.6168   49.5264 H   0  0  0  0  0  0  0  0  0  0  0  0
   61.8026   30.6834   45.7021 H   0  0  0  0  0  0  0  0  0  0  0  0
   58.1657   32.0263   47.6636 H   0  0  0  0  0  0  0  0  0  0  0  0
   59.1003   34.3265   47.4282 H   0  0  0  0  0  0  0  0  0  0  0  0
   59.2736   35.3870   45.1773 H   0  0  0  0  0  0  0  0  0  0  0  0
   58.5021   34.1563   43.1487 H   0  0  0  0  0  0  0  0  0  0  0  0
  1  2  2  0
  2  3  1  0
  3  4  2  0
  4  5  1  0
  5  6  1  0
  6  7  1  0
  7  8  1  0
  8  9  1  0
  9 10  1  0
 10 11  1  0
 11 12  2  0
 12 13  1  0
 13 14  2  0
 14 15  1  0
 14 16  1  0
 16 17  1  0
 16 18  2  0
  4 19  1  0
 19 20  1  0
 20 21  2  0
 21 22  1  0
 22 23  2  0
 23 24  1  0
 24 25  2  0
 25  2  1  0
 18 11  1  0
 25 20  1  0
  3 26  1  0
  5 27  1  0
  6 28  1  0
  6 29  1  0
  7 30  1  0
  7 31  1  0
  8 32  1  0
  8 33  1  0
  9 34  1  0
  9 35  1  0
 10 36  1  0
 10 37  1  0
 12 38  1  0
 13 39  1  0
 18 40  1  0
 21 41  1  0
 22 42  1  0
 23 43  1  0
 24 44  1  0
M  CHG  2   9   1  19  -1
M  END
>  <UniqueID>  (25) 
25

>  <SMILES>  (25) 
O=c1cc(NCCC[NH2+]Cc2ccc(Cl)c(Cl)c2)[n-]c2ccccc12

>  <Energy>  (25) 
46.51634318052643

>  <Genealogy>  (25) 
O=c1cc(NCCC[NH2+]Cc2ccc(Cl)c(Cl)c2)[n-]c2ccccc12 (protonated)
O=c1cc(NCCC[NH2+]Cc2ccc(Cl)c(Cl)c2)[n-]c2ccccc12 (3D coordinates assigned)
O=c1cc(NCCC[NH2+]Cc2ccc(Cl)c(Cl)c2)[n-]c2ccccc12 (optimized conformer: 46.51634318052643 kcal/mol)

>  <smiles>  (25) 
O=c1cc(NCCCNCc2ccc(Cl)c(Cl)c2)[nH]c2ccccc12

>  <score_type>  (25) 
oracle

>  <origin>  (25) 
adg

>  <m_score__min__energy>  (25) 
-8.2799999999999994

>  <m_primary>  (25) 
energy

$$$$
25:0
     RDKit          3D

 50 52  0  0  0  0  0  0  0  0999 V2000
   61.4200   30.8780   48.2190 C   0  0  0  0  0  0  0  0  0  0  0  0
   62.4920   31.9570   48.0020 C   0  0  0  0  0  0  0  0  0  0  0  0
   61.9570   33.2650   47.5590 N   0  0  0  0  0  0  0  0  0  0  0  0
   62.7190   33.8620   46.4500 C   0  0  0  0  0  0  0  0  0  0  0  0
   61.7270   34.2150   48.6670 C   0  0  0  0  0  0  0  0  0  0  0  0
   60.2300   34.4790   48.8460 C   0  0  0  0  0  0  0  0  0  0  0  0
   59.5900   34.6660   47.5810 O   0  0  0  0  0  0  0  0  0  0  0  0
   59.0920   33.6520   46.7480 C   0  0  0  0  0  0  0  0  0  0  0  0
   59.0340   33.9010   45.3720 C   0  0  0  0  0  0  0  0  0  0  0  0
   58.5530   32.9300   44.4910 C   0  0  0  0  0  0  0  0  0  0  0  0
   58.1000   31.6930   44.9760 C   0  0  0  0  0  0  0  0  0  0  0  0
   57.5700   30.6620   44.0590 C   0  0  0  0  0  0  0  0  0  0  0  0
   56.6760   30.9490   42.6760 S   0  0  0  0  0  0  0  0  0  0  0  0
   56.3770   29.3770   42.2490 N   0  0  0  0  0  0  0  0  0  0  0  0
   56.9590   28.6000   43.1580 N   0  0  0  0  0  0  0  0  0  0  0  0
   57.6300   29.2600   44.1560 C   0  0  0  0  0  0  0  0  0  0  0  0
   58.3770   28.5180   45.1950 C   0  0  0  0  0  0  0  0  0  0  0  0
   59.7090   28.8710   45.4600 C   0  0  0  0  0  0  0  0  0  0  0  0
   60.4490   28.1760   46.4180 C   0  0  0  0  0  0  0  0  0  0  0  0
   59.8640   27.1280   47.1270 C   0  0  0  0  0  0  0  0  0  0  0  0
   58.5330   26.7770   46.8900 C   0  0  0  0  0  0  0  0  0  0  0  0
   57.7720   27.4750   45.9300 C   0  0  0  0  0  0  0  0  0  0  0  0
   56.4210   27.1670   45.6950 O   0  0  0  0  0  0  0  0  0  0  0  0
   55.8190   25.9050   45.9610 C   0  0  0  0  0  0  0  0  0  0  0  0
   58.1620   31.4370   46.3540 C   0  0  0  0  0  0  0  0  0  0  0  0
   58.6430   32.4090   47.2360 C   0  0  0  0  0  0  0  0  0  0  0  0
   61.2674   30.7244   49.2975 H   0  0  0  0  0  0  0  0  0  0  0  0
   60.4754   31.2015   47.7574 H   0  0  0  0  0  0  0  0  0  0  0  0
   61.7497   29.9355   47.7574 H   0  0  0  0  0  0  0  0  0  0  0  0
   63.0273   32.1070   48.9512 H   0  0  0  0  0  0  0  0  0  0  0  0
   63.1465   31.5942   47.1958 H   0  0  0  0  0  0  0  0  0  0  0  0
   63.5238   34.4926   46.8558 H   0  0  0  0  0  0  0  0  0  0  0  0
   63.1552   33.0628   45.8328 H   0  0  0  0  0  0  0  0  0  0  0  0
   62.0474   34.4768   45.8328 H   0  0  0  0  0  0  0  0  0  0  0  0
   62.1334   33.7912   49.5972 H   0  0  0  0  0  0  0  0  0  0  0  0
   62.2296   35.1646   48.4310 H   0  0  0  0  0  0  0  0  0  0  0  0
   59.7715   33.6202   49.3581 H   0  0  0  0  0  0  0  0  0  0  0  0
   60.1034   35.3944   49.4426 H   0  0  0  0  0  0  0  0  0  0  0  0
   59.3709   34.8721   44.9802 H   0  0  0  0  0  0  0  0  0  0  0  0
   58.5290   33.1357   43.4107 H   0  0  0  0  0  0  0  0  0  0  0  0
   56.9180   27.5590   43.0890 H   0  0  0  0  0  0  0  0  0  0  0  0
   60.1735   29.7017   44.9086 H   0  0  0  0  0  0  0  0  0  0  0  0
   61.4947   28.4555   46.6137 H   0  0  0  0  0  0  0  0  0  0  0  0
   60.4521   26.5761   47.8750 H   0  0  0  0  0  0  0  0  0  0  0  0
   58.0760   25.9515   47.4554 H   0  0  0  0  0  0  0  0  0  0  0  0
   55.7474   25.7548   47.0483 H   0  0  0  0  0  0  0  0  0  0  0  0
   54.8116   25.8791   45.5201 H   0  0  0  0  0  0  0  0  0  0  0  0
   56.4328   25.1057   45.5201 H   0  0  0  0  0  0  0  0  0  0  0  0
   57.8294   30.4635   46.7435 H   0  0  0  0  0  0  0  0  0  0  0  0
   58.6711   32.2024   48.3161 H   0  0  0  0  0  0  0  0  0  0  0  0
  1  2  1  0
  2  3  1  0
  3  4  1  0
  3  5  1  0
  5  6  1  0
  6  7  1  0
  7  8  1  0
  8  9  2  0
  9 10  1  0
 10 11  2  0
 11 12  1  0
 12 13  1  0
 13 14  1  0
 14 15  2  0
 15 16  1  0
 16 17  1  0
 17 18  2  0
 18 19  1  0
 19 20  2  0
 20 21  1  0
 21 22  2  0
 22 23  1  0
 23 24  1  0
 11 25  1  0
 25 26  2  0
 26  8  1  0
 16 12  2  0
 22 17  1  0
  1 27  1  0
  1 28  1  0
  1 29  1  0
  2 30  1  0
  2 31  1  0
  4 32  1  0
  4 33  1  0
  4 34  1  0
  5 35  1  0
  5 36  1  0
  6 37  1  0
  6 38  1  0
  9 39  1  0
 10 40  1  0
 15 41  1  0
 18 42  1  0
 19 43  1  0
 20 44  1  0
 21 45  1  0
 24 46  1  0
 24 47  1  0
 24 48  1  0
 25 49  1  0
 26 50  1  0
M  CHG  1  15   1
M  END
>  <UniqueID>  (26) 
26

>  <SMILES>  (26) 
CCN(C)CCOc1ccc(-c2sn[nH+]c2-c2ccccc2OC)cc1

>  <Energy>  (26) 
98.49586418594126

>  <Genealogy>  (26) 
CCN(C)CCOc1ccc(-c2sn[nH+]c2-c2ccccc2OC)cc1 (protonated)
CCN(C)CCOc1ccc(-c2sn[nH+]c2-c2ccccc2OC)cc1 (3D coordinates assigned)
CCN(C)CCOc1ccc(-c2sn[nH+]c2-c2ccccc2OC)cc1 (optimized conformer: 98.49586418594126 kcal/mol)

>  <smiles>  (26) 
CCN(C)CCOc1ccc(-c2snnc2-c2ccccc2OC)cc1

>  <score_type>  (26) 
oracle

>  <origin>  (26) 
adg

>  <m_score__min__energy>  (26) 
-6.9299999999999997

>  <m_primary>  (26) 
energy

$$$$
26:0
     RDKit          3D

 59 61  0  0  0  0  0  0  0  0999 V2000
   56.4330   29.7690   43.0420 C   0  0  0  0  0  0  0  0  0  0  0  0
   56.2650   30.8370   44.1170 C   0  0  0  0  0  0  0  0  0  0  0  0
   57.4650   30.9100   44.9590 N   0  0  0  0  0  0  0  0  0  0  0  0
   57.9920   32.2050   45.2950 C   0  0  0  0  0  0  0  0  0  0  0  0
   58.6490   32.8530   44.4370 O   0  0  0  0  0  0  0  0  0  0  0  0
   57.7680   32.7940   46.6500 C   0  0  0  0  0  0  0  0  0  0  0  0
   59.1860   33.8500   47.0900 S   0  0  0  0  0  0  0  0  0  0  0  0
   60.2310   32.4600   47.5250 C   0  0  0  0  0  0  0  0  0  0  0  0
   61.2240   32.0030   46.7390 N   0  0  0  0  0  0  0  0  0  0  0  0
   61.8200   31.0200   47.4020 N   0  0  0  0  0  0  0  0  0  0  0  0
   61.1790   30.8960   48.5830 C   0  0  0  0  0  0  0  0  0  0  0  0
   61.5770   29.9140   49.6390 C   0  0  0  0  0  0  0  0  0  0  0  0
   60.1740   31.7870   48.6920 N   0  0  0  0  0  0  0  0  0  0  0  0
   59.3130   32.0350   49.8140 C   0  0  0  0  0  0  0  0  0  0  0  0
   58.3750   31.0650   50.1960 C   0  0  0  0  0  0  0  0  0  0  0  0
   57.5440   31.2670   51.3010 C   0  0  0  0  0  0  0  0  0  0  0  0
   56.6240   30.2630   51.6360 O   0  0  0  0  0  0  0  0  0  0  0  0
   55.4260   30.4830   52.3750 C   0  0  0  0  0  0  0  0  0  0  0  0
   57.6580   32.4610   52.0360 C   0  0  0  0  0  0  0  0  0  0  0  0
   58.5870   33.4340   51.6600 C   0  0  0  0  0  0  0  0  0  0  0  0
   59.4200   33.2320   50.5430 C   0  0  0  0  0  0  0  0  0  0  0  0
   60.3500   34.1970   50.1250 O   0  0  0  0  0  0  0  0  0  0  0  0
   61.7630   34.0230   50.1550 C   0  0  0  0  0  0  0  0  0  0  0  0
   58.1550   29.6730   45.3750 C   0  0  0  0  0  0  0  0  0  0  0  0
   58.4550   29.6660   46.8860 C   0  0  0  0  0  0  0  0  0  0  0  0
   59.0720   28.3250   47.3320 C   0  0  0  0  0  0  0  0  0  0  0  0
   59.9780   27.6790   46.2620 C   0  0  0  0  0  0  0  0  0  0  0  0
   60.5530   28.7170   45.2920 C   0  0  0  0  0  0  0  0  0  0  0  0
   59.4370   29.4530   44.5300 C   0  0  0  0  0  0  0  0  0  0  0  0
   56.5870   28.7898   43.5189 H   0  0  0  0  0  0  0  0  0  0  0  0
   55.5294   29.7338   42.4158 H   0  0  0  0  0  0  0  0  0  0  0  0
   57.3038   30.0129   42.4158 H   0  0  0  0  0  0  0  0  0  0  0  0
   56.1001   31.8124   43.6360 H   0  0  0  0  0  0  0  0  0  0  0  0
   55.4025   30.5754   44.7476 H   0  0  0  0  0  0  0  0  0  0  0  0
   56.8489   33.3983   46.6405 H   0  0  0  0  0  0  0  0  0  0  0  0
   57.6662   31.9868   47.3903 H   0  0  0  0  0  0  0  0  0  0  0  0
   61.3996   30.3518   50.6324 H   0  0  0  0  0  0  0  0  0  0  0  0
   60.9797   28.9967   49.5305 H   0  0  0  0  0  0  0  0  0  0  0  0
   62.6444   29.6714   49.5305 H   0  0  0  0  0  0  0  0  0  0  0  0
   58.2924   30.1327   49.6180 H   0  0  0  0  0  0  0  0  0  0  0  0
   55.6468   30.4425   53.4519 H   0  0  0  0  0  0  0  0  0  0  0  0
   55.0153   31.4716   52.1219 H   0  0  0  0  0  0  0  0  0  0  0  0
   54.6909   29.7048   52.1219 H   0  0  0  0  0  0  0  0  0  0  0  0
   57.0127   32.6292   52.9108 H   0  0  0  0  0  0  0  0  0  0  0  0
   58.6684   34.3647   52.2407 H   0  0  0  0  0  0  0  0  0  0  0  0
   62.1051   33.9809   51.1996 H   0  0  0  0  0  0  0  0  0  0  0  0
   62.0279   33.0854   49.6443 H   0  0  0  0  0  0  0  0  0  0  0  0
   62.2475   34.8683   49.6443 H   0  0  0  0  0  0  0  0  0  0  0  0
   57.4776   28.8271   45.1863 H   0  0  0  0  0  0  0  0  0  0  0  0
   59.1610   30.4781   47.1143 H   0  0  0  0  0  0  0  0  0  0  0  0
   57.5079   29.8078   47.4272 H   0  0  0  0  0  0  0  0  0  0  0  0
   59.6726   28.5016   48.2365 H   0  0  0  0  0  0  0  0  0  0  0  0
   58.2392   27.6298   47.5139 H   0  0  0  0  0  0  0  0  0  0  0  0
   60.8099   27.1643   46.7651 H   0  0  0  0  0  0  0  0  0  0  0  0
   59.3662   26.9736   45.6805 H   0  0  0  0  0  0  0  0  0  0  0  0
   61.1418   29.4513   45.8614 H   0  0  0  0  0  0  0  0  0  0  0  0
   61.1848   28.1933   44.5595 H   0  0  0  0  0  0  0  0  0  0  0  0
   59.8194   30.4350   44.2146 H   0  0  0  0  0  0  0  0  0  0  0  0
   59.1571   28.8210   43.6743 H   0  0  0  0  0  0  0  0  0  0  0  0
  1  2  1  0
  2  3  1  0
  3  4  1  0
  4  5  2  0
  4  6  1  0
  6  7  1  0
  7  8  1  0
  8  9  2  0
  9 10  1  0
 10 11  2  0
 11 12  1  0
 11 13  1  0
 13 14  1  0
 14 15  2  0
 15 16  1  0
 16 17  1  0
 17 18  1  0
 16 19  2  0
 19 20  1  0
 20 21  2  0
 21 22  1  0
 22 23  1  0
  3 24  1  0
 24 25  1  0
 25 26  1  0
 26 27  1  0
 27 28  1  0
 28 29  1  0
 13  8  1  0
 21 14  1  0
 29 24  1  0
  1 30  1  0
  1 31  1  0
  1 32  1  0
  2 33  1  0
  2 34  1  0
  6 35  1  0
  6 36  1  0
 12 37  1  0
 12 38  1  0
 12 39  1  0
 15 40  1  0
 18 41  1  0
 18 42  1  0
 18 43  1  0
 19 44  1  0
 20 45  1  0
 23 46  1  0
 23 47  1  0
 23 48  1  0
 24 49  1  0
 25 50  1  0
 25 51  1  0
 26 52  1  0
 26 53  1  0
 27 54  1  0
 27 55  1  0
 28 56  1  0
 28 57  1  0
 29 58  1  0
 29 59  1  0
M  END
>  <UniqueID>  (27) 
27

>  <SMILES>  (27) 
CCN(C(=O)CSc1nnc(C)n1-c1cc(OC)ccc1OC)C1CCCCC1

>  <Energy>  (27) 
95.76366994314608

>  <Genealogy>  (27) 
CCN(C(=O)CSc1nnc(C)n1-c1cc(OC)ccc1OC)C1CCCCC1 (3D coordinates assigned)
CCN(C(=O)CSc1nnc(C)n1-c1cc(OC)ccc1OC)C1CCCCC1 (nonaromatic ring conformer: 95.76366994314608 kcal/mol)

>  <smiles>  (27) 
CCN(C(=O)CSc1nnc(C)n1-c1cc(OC)ccc1OC)C1CCCCC1

>  <score_type>  (27) 
oracle

>  <origin>  (27) 
adg

>  <m_score__min__energy>  (27) 
-8.5500000000000007

>  <m_primary>  (27) 
energy

$$$$
27:0
     RDKit          3D

 46 49  0  0  0  0  0  0  0  0999 V2000
   56.4167   31.5486   41.3960 H   0  0  0  0  0  0  0  0  0  0  0  0
   56.8870   31.1500   42.3070 C   0  0  0  0  0  0  0  0  0  0  0  0
   56.5810   29.8980   42.7370 N   0  0  0  0  0  0  0  0  0  0  0  0
   57.1430   29.3680   43.8560 C   0  0  0  0  0  0  0  0  0  0  0  0
   56.8720   28.3509   44.1755 H   0  0  0  0  0  0  0  0  0  0  0  0
   58.0680   30.1130   44.6060 C   0  0  0  0  0  0  0  0  0  0  0  0
   58.6900   29.5520   45.8310 C   0  0  0  0  0  0  0  0  0  0  0  0
   59.6960   30.2590   46.5290 C   0  0  0  0  0  0  0  0  0  0  0  0
   60.0189   31.2433   46.1590 H   0  0  0  0  0  0  0  0  0  0  0  0
   60.2980   29.7230   47.6990 C   0  0  0  0  0  0  0  0  0  0  0  0
   61.3470   30.4960   48.4070 C   0  0  0  0  0  0  0  0  0  0  0  0
   62.2580   31.2690   47.7800 N   0  0  0  0  0  0  0  0  0  0  0  0
   63.0330   31.8060   48.7070 N   0  0  0  0  0  0  0  0  0  0  0  0
   64.1040   32.7540   48.4220 C   0  0  0  0  0  0  0  0  0  0  0  0
   64.4323   33.2240   49.3608 H   0  0  0  0  0  0  0  0  0  0  0  0
   64.9436   32.2169   47.9565 H   0  0  0  0  0  0  0  0  0  0  0  0
   63.6130   33.8320   47.4650 C   0  0  0  0  0  0  0  0  0  0  0  0
   63.2246   34.6847   48.0413 H   0  0  0  0  0  0  0  0  0  0  0  0
   64.4472   34.1673   46.8312 H   0  0  0  0  0  0  0  0  0  0  0  0
   62.8125   33.4227   46.8312 H   0  0  0  0  0  0  0  0  0  0  0  0
   62.6290   31.4110   49.9290 C   0  0  0  0  0  0  0  0  0  0  0  0
   63.0808   31.7141   50.8851 H   0  0  0  0  0  0  0  0  0  0  0  0
   61.5540   30.5630   49.7790 C   0  0  0  0  0  0  0  0  0  0  0  0
   60.9855   30.0522   50.5701 H   0  0  0  0  0  0  0  0  0  0  0  0
   59.8850   28.4540   48.1710 C   0  0  0  0  0  0  0  0  0  0  0  0
   60.3333   28.0133   49.0737 H   0  0  0  0  0  0  0  0  0  0  0  0
   58.8970   27.7800   47.4620 C   0  0  0  0  0  0  0  0  0  0  0  0
   58.3910   26.5660   47.7280 N   0  0  0  0  0  0  0  0  0  0  0  0
   57.5050   26.3950   46.7160 C   0  0  0  0  0  0  0  0  0  0  0  0
   56.7760   25.3260   46.6170 N   0  0  0  0  0  0  0  0  0  0  0  0
   55.4850   25.2880   45.9960 C   0  0  0  0  0  0  0  0  0  0  0  0
   54.7790   26.3300   45.9860 O   0  0  0  0  0  0  0  0  0  0  0  0
   54.9570   24.0840   45.4260 N   0  0  0  0  0  0  0  0  0  0  0  0
   55.4280   23.4580   44.1930 C   0  0  0  0  0  0  0  0  0  0  0  0
   54.6565   23.5645   43.4162 H   0  0  0  0  0  0  0  0  0  0  0  0
   55.6267   22.3941   44.3896 H   0  0  0  0  0  0  0  0  0  0  0  0
   56.7160   24.1170   43.7130 C   0  0  0  0  0  0  0  0  0  0  0  0
   57.3165   24.4243   44.5819 H   0  0  0  0  0  0  0  0  0  0  0  0
   57.2896   23.4016   43.1054 H   0  0  0  0  0  0  0  0  0  0  0  0
   56.4714   25.0007   43.1054 H   0  0  0  0  0  0  0  0  0  0  0  0
   57.4260   27.4350   45.8450 N   0  0  0  0  0  0  0  0  0  0  0  0
   58.3210   28.3010   46.3440 C   0  0  0  0  0  0  0  0  0  0  0  0
   58.3860   31.4110   44.1740 C   0  0  0  0  0  0  0  0  0  0  0  0
   59.1010   32.0200   44.7466 H   0  0  0  0  0  0  0  0  0  0  0  0
   57.7970   31.9300   43.0200 C   0  0  0  0  0  0  0  0  0  0  0  0
   58.0481   32.9443   42.6763 H   0  0  0  0  0  0  0  0  0  0  0  0
  1  2  1  0
  2  3  2  0
  3  4  1  0
  4  5  1  0
  4  6  2  0
  6  7  1  0
  7  8  2  0
  8  9  1  0
  8 10  1  0
 10 11  1  0
 11 12  2  0
 12 13  1  0
 13 14  1  0
 14 15  1  0
 14 16  1  0
 14 17  1  0
 17 18  1  0
 17 19  1  0
 17 20  1  0
 13 21  1  0
 21 22  1  0
 21 23  2  0
 23 24  1  0
 10 25  2  0
 25 26  1  0
 25 27  1  0
 27 28  1  0
 28 29  1  0
 29 30  2  0
 30 31  1  0
 31 32  2  0
 31 33  1  0
 33 34  1  0
 34 35  1  0
 34 36  1  0
 34 37  1  0
 37 38  1  0
 37 39  1  0
 37 40  1  0
 29 41  1  0
 41 42  1  0
  6 43  1  0
 43 44  1  0
 43 45  2  0
 45 46  1  0
 45  2  1  0
 42  7  1  0
 23 11  1  0
 42 27  2  0
M  CHG  3  28  -1  33  -1  41  -1
M  END
>  <UniqueID>  (28) 
28

>  <SMILES>  (28) 
CC[N-]C(=O)/N=c1/[n-]c2cc(-c3ccn(CC)n3)cc(-c3cccnc3)c2[n-]1

>  <Energy>  (28) 
120.69353171471242

>  <Genealogy>  (28) 
CC[N-]C(=O)N=c1[n-]c2cc(-c3ccn(CC)n3)cc(-c3cccnc3)c2[n-]1 (protonated)
CC[N-]C(=O)/N=c1/[n-]c2cc(-c3ccn(CC)n3)cc(-c3cccnc3)c2[n-]1 (cis-trans isomerization)
CC[N-]C(=O)/N=c1/[n-]c2cc(-c3ccn(CC)n3)cc(-c3cccnc3)c2[n-]1 (3D coordinates assigned)
CC[N-]C(=O)/N=c1/[n-]c2cc(-c3ccn(CC)n3)cc(-c3cccnc3)c2[n-]1 (optimized conformer: 120.69353171471242 kcal/mol)

>  <smiles>  (28) 
CCNC(=O)N=c1[nH]c2cc(-c3ccn(CC)n3)cc(-c3cccnc3)c2[nH]1

>  <score_type>  (28) 
oracle

>  <origin>  (28) 
adg

>  <m_score__min__energy>  (28) 
-11.17

>  <m_primary>  (28) 
energy

$$$$
28:0
     RDKit          3D

 49 51  0  0  0  0  0  0  0  0999 V2000
   56.3050   30.4110   43.8530 C   0  0  0  0  0  0  0  0  0  0  0  0
   57.4120   31.2500   43.2180 C   0  0  0  0  0  0  0  0  0  0  0  0
   57.9720   32.3130   44.1740 C   0  0  0  0  0  0  0  0  0  0  0  0
   58.3450   31.7230   45.5170 C   0  0  0  0  0  0  0  0  0  0  0  0
   58.9390   30.5070   45.5070 N   0  0  0  0  0  0  0  0  0  0  0  0
   59.3450   29.8520   46.6240 C   0  0  0  0  0  0  0  0  0  0  0  0
   59.1790   30.4590   47.8850 C   0  0  0  0  0  0  0  0  0  0  0  0
   58.5910   31.7600   47.9420 C   0  0  0  0  0  0  0  0  0  0  0  0
   58.5180   32.6980   49.4940 S   0  0  0  0  0  0  0  0  0  0  0  0
   59.7130   33.9530   48.9300 C   0  0  0  0  0  0  0  0  0  0  0  0
   61.0450   33.2970   48.6600 C   0  0  0  0  0  0  0  0  0  0  0  0
   61.5920   33.2830   47.3550 C   0  0  0  0  0  0  0  0  0  0  0  0
   60.7730   34.0320   45.9860 Cl  0  0  0  0  0  0  0  0  0  0  0  0
   62.8180   32.6520   47.1140 C   0  0  0  0  0  0  0  0  0  0  0  0
   63.5020   32.0180   48.1520 C   0  0  0  0  0  0  0  0  0  0  0  0
   62.9610   32.0020   49.4370 C   0  0  0  0  0  0  0  0  0  0  0  0
   61.7370   32.6280   49.6980 C   0  0  0  0  0  0  0  0  0  0  0  0
   61.0990   32.5320   51.3380 Cl  0  0  0  0  0  0  0  0  0  0  0  0
   58.1110   32.3720   46.7520 C   0  0  0  0  0  0  0  0  0  0  0  0
   57.4400   33.7300   46.7890 C   0  0  0  0  0  0  0  0  0  0  0  0
   59.6170   29.7300   49.0170 C   0  0  0  0  0  0  0  0  0  0  0  0
   59.4030   30.1660   50.1810 O   0  0  0  0  0  0  0  0  0  0  0  0
   60.2630   28.5320   48.8640 N   0  0  0  0  0  0  0  0  0  0  0  0
   60.7420   27.8030   50.0530 C   0  0  0  0  0  0  0  0  0  0  0  0
   60.3960   27.9710   47.6220 C   0  0  0  0  0  0  0  0  0  0  0  0
   60.9630   26.8470   47.5020 O   0  0  0  0  0  0  0  0  0  0  0  0
   59.9160   28.6120   46.5120 N   0  0  0  0  0  0  0  0  0  0  0  0
   60.0810   28.0020   45.1780 C   0  0  0  0  0  0  0  0  0  0  0  0
   56.3829   30.4700   44.9487 H   0  0  0  0  0  0  0  0  0  0  0  0
   55.3249   30.7951   43.5339 H   0  0  0  0  0  0  0  0  0  0  0  0
   56.4099   29.3636   43.5339 H   0  0  0  0  0  0  0  0  0  0  0  0
   58.2315   30.5811   42.9164 H   0  0  0  0  0  0  0  0  0  0  0  0
   56.9772   31.7753   42.3548 H   0  0  0  0  0  0  0  0  0  0  0  0
   58.8685   32.7618   43.7212 H   0  0  0  0  0  0  0  0  0  0  0  0
   57.1904   33.0693   44.3388 H   0  0  0  0  0  0  0  0  0  0  0  0
   59.3424   34.4230   48.0071 H   0  0  0  0  0  0  0  0  0  0  0  0
   59.8341   34.7193   49.7099 H   0  0  0  0  0  0  0  0  0  0  0  0
   63.2449   32.6559   46.1002 H   0  0  0  0  0  0  0  0  0  0  0  0
   64.4685   31.5306   47.9564 H   0  0  0  0  0  0  0  0  0  0  0  0
   63.4997   31.4942   50.2506 H   0  0  0  0  0  0  0  0  0  0  0  0
   57.2888   34.0359   47.8347 H   0  0  0  0  0  0  0  0  0  0  0  0
   58.0772   34.4678   46.2796 H   0  0  0  0  0  0  0  0  0  0  0  0
   56.4668   33.6721   46.2796 H   0  0  0  0  0  0  0  0  0  0  0  0
   60.4019   28.3206   50.9621 H   0  0  0  0  0  0  0  0  0  0  0  0
   60.3401   26.7791   50.0419 H   0  0  0  0  0  0  0  0  0  0  0  0
   61.8413   27.7655   50.0419 H   0  0  0  0  0  0  0  0  0  0  0  0
   60.3667   26.9457   45.2906 H   0  0  0  0  0  0  0  0  0  0  0  0
   59.1326   28.0683   44.6246 H   0  0  0  0  0  0  0  0  0  0  0  0
   60.8666   28.5374   44.6246 H   0  0  0  0  0  0  0  0  0  0  0  0
  1  2  1  0
  2  3  1  0
  3  4  1  0
  4  5  2  0
  5  6  1  0
  6  7  2  0
  7  8  1  0
  8  9  1  0
  9 10  1  0
 10 11  1  0
 11 12  2  0
 12 13  1  0
 12 14  1  0
 14 15  2  0
 15 16  1  0
 16 17  2  0
 17 18  1  0
  8 19  2  0
 19 20  1  0
  7 21  1  0
 21 22  2  0
 21 23  1  0
 23 24  1  0
 23 25  1  0
 25 26  2  0
 25 27  1  0
 27 28  1  0
 19  4  1  0
 27  6  1  0
 17 11  1  0
  1 29  1  0
  1 30  1  0
  1 31  1  0
  2 32  1  0
  2 33  1  0
  3 34  1  0
  3 35  1  0
 10 36  1  0
 10 37  1  0
 14 38  1  0
 15 39  1  0
 16 40  1  0
 20 41  1  0
 20 42  1  0
 20 43  1  0
 24 44  1  0
 24 45  1  0
 24 46  1  0
 28 47  1  0
 28 48  1  0
 28 49  1  0
M  END
>  <UniqueID>  (29) 
29

>  <SMILES>  (29) 
CCCc1nc2c(c(SCc3c(Cl)cccc3Cl)c1C)c(=O)n(C)c(=O)n2C

>  <Energy>  (29) 
65.01446966880717

>  <Genealogy>  (29) 
CCCc1nc2c(c(SCc3c(Cl)cccc3Cl)c1C)c(=O)n(C)c(=O)n2C (3D coordinates assigned)
CCCc1nc2c(c(SCc3c(Cl)cccc3Cl)c1C)c(=O)n(C)c(=O)n2C (optimized conformer: 65.01446966880717 kcal/mol)

>  <smiles>  (29) 
CCCc1nc2c(c(SCc3c(Cl)cccc3Cl)c1C)c(=O)n(C)c(=O)n2C

>  <score_type>  (29) 
oracle

>  <origin>  (29) 
adg

>  <m_score__min__energy>  (29) 
-8.1999999999999993

>  <m_primary>  (29) 
energy

$$$$
29:0
     RDKit          3D

 41 43  0  0  0  0  0  0  0  0999 V2000
   56.9980   30.7670   42.9980 C   0  0  0  0  0  0  0  0  0  0  0  0
   58.0170   31.8980   43.0760 C   0  0  0  0  0  0  0  0  0  0  0  0
   57.4020   33.0980   43.5410 O   0  0  0  0  0  0  0  0  0  0  0  0
   57.3750   33.4790   44.8870 C   0  0  0  0  0  0  0  0  0  0  0  0
   56.7370   34.5070   45.2490 O   0  0  0  0  0  0  0  0  0  0  0  0
   58.0960   32.6570   45.8750 C   0  0  0  0  0  0  0  0  0  0  0  0
   58.8560   33.2030   46.8350 C   0  0  0  0  0  0  0  0  0  0  0  0
   59.6090   32.3940   47.7720 N   0  0  2  0  0  0  0  0  0  0  0  0
   61.0260   32.6070   47.5610 C   0  0  0  0  0  0  0  0  0  0  0  0
   61.4870   33.6520   46.7310 C   0  0  0  0  0  0  0  0  0  0  0  0
   62.8570   33.8490   46.5330 C   0  0  0  0  0  0  0  0  0  0  0  0
   63.7820   33.0090   47.1570 C   0  0  0  0  0  0  0  0  0  0  0  0
   63.3410   31.9720   47.9800 C   0  0  0  0  0  0  0  0  0  0  0  0
   61.9720   31.7690   48.1830 C   0  0  0  0  0  0  0  0  0  0  0  0
   59.3260   30.9730   47.7210 C   0  0  0  0  0  0  0  0  0  0  0  0
   58.5760   30.4290   46.7470 C   0  0  0  0  0  0  0  0  0  0  0  0
   58.3400   28.9670   46.6500 C   0  0  0  0  0  0  0  0  0  0  0  0
   59.0760   28.0420   47.4200 C   0  0  0  0  0  0  0  0  0  0  0  0
   58.8400   26.6690   47.2930 C   0  0  0  0  0  0  0  0  0  0  0  0
   57.8790   26.2020   46.3940 C   0  0  0  0  0  0  0  0  0  0  0  0
   57.5610   24.3260   46.2230 Br  0  0  0  0  0  0  0  0  0  0  0  0
   57.1550   27.1080   45.6150 C   0  0  0  0  0  0  0  0  0  0  0  0
   57.3870   28.4810   45.7370 C   0  0  0  0  0  0  0  0  0  0  0  0
   57.9740   31.2690   45.8060 O   0  0  0  0  0  0  0  0  0  0  0  0
   56.7174   30.4555   44.0150 H   0  0  0  0  0  0  0  0  0  0  0  0
   56.1034   31.1158   42.4614 H   0  0  0  0  0  0  0  0  0  0  0  0
   57.4379   29.9135   42.4614 H   0  0  0  0  0  0  0  0  0  0  0  0
   58.8216   31.6122   43.7695 H   0  0  0  0  0  0  0  0  0  0  0  0
   58.4259   32.0762   42.0705 H   0  0  0  0  0  0  0  0  0  0  0  0
   58.9096   34.2989   46.9138 H   0  0  0  0  0  0  0  0  0  0  0  0
   59.3350   32.7170   48.7300 H   0  0  0  0  0  0  0  0  0  0  0  0
   60.7629   34.3161   46.2364 H   0  0  0  0  0  0  0  0  0  0  0  0
   63.2066   34.6663   45.8852 H   0  0  0  0  0  0  0  0  0  0  0  0
   64.8594   33.1651   46.9995 H   0  0  0  0  0  0  0  0  0  0  0  0
   64.0720   31.3124   48.4705 H   0  0  0  0  0  0  0  0  0  0  0  0
   61.6318   30.9493   48.8329 H   0  0  0  0  0  0  0  0  0  0  0  0
   59.7380   30.3194   48.5040 H   0  0  0  0  0  0  0  0  0  0  0  0
   59.8400   28.4025   48.1245 H   0  0  0  0  0  0  0  0  0  0  0  0
   59.4131   25.9553   47.9030 H   0  0  0  0  0  0  0  0  0  0  0  0
   56.4006   26.7400   44.9040 H   0  0  0  0  0  0  0  0  0  0  0  0
   56.8193   29.1874   45.1136 H   0  0  0  0  0  0  0  0  0  0  0  0
  1  2  1  0
  2  3  1  0
  3  4  1  0
  4  5  2  0
  4  6  1  0
  6  7  2  0
  7  8  1  0
  8  9  1  0
  9 10  2  0
 10 11  1  0
 11 12  2  0
 12 13  1  0
 13 14  2  0
  8 15  1  0
 15 16  2  0
 16 17  1  0
 17 18  2  0
 18 19  1  0
 19 20  2  0
 20 21  1  0
 20 22  1  0
 22 23  2  0
 16 24  1  0
 24  6  1  0
 14  9  1  0
 23 17  1  0
  1 25  1  0
  1 26  1  0
  1 27  1  0
  2 28  1  0
  2 29  1  0
  7 30  1  0
  8 31  1  1
 10 32  1  0
 11 33  1  0
 12 34  1  0
 13 35  1  0
 14 36  1  0
 15 37  1  0
 18 38  1  0
 19 39  1  0
 22 40  1  0
 23 41  1  0
M  CHG  1   8   1
M  END
>  <UniqueID>  (30) 
30

>  <SMILES>  (30) 
CCOC(=O)C1=C[N@H+](c2ccccc2)C=C(c2ccc(Br)cc2)O1

>  <Energy>  (30) 
49.44986339371739

>  <Genealogy>  (30) 
CCOC(=O)C1=C[NH+](c2ccccc2)C=C(c2ccc(Br)cc2)O1 (protonated)
CCOC(=O)C1=C[N@H+](c2ccccc2)C=C(c2ccc(Br)cc2)O1 (chirality)
CCOC(=O)C1=C[N@H+](c2ccccc2)C=C(c2ccc(Br)cc2)O1 (3D coordinates assigned)
CCOC(=O)C1=C[N@H+](c2ccccc2)C=C(c2ccc(Br)cc2)O1 (nonaromatic ring conformer: 49.44986339371739 kcal/mol)

>  <smiles>  (30) 
CCOC(=O)C1=CN(c2ccccc2)C=C(c2ccc(Br)cc2)O1

>  <score_type>  (30) 
oracle

>  <origin>  (30) 
adg

>  <m_score__min__energy>  (30) 
-5.9900000000000002

>  <m_primary>  (30) 
energy

$$$$
30:0
     RDKit          3D

 51 51  0  0  0  0  0  0  0  0999 V2000
   63.3480   33.7990   46.7390 C   0  0  0  0  0  0  0  0  0  0  0  0
   62.4070   32.7860   47.3760 C   0  0  0  0  0  0  0  0  0  0  0  0
   61.0380   33.3510   47.4330 N   0  0  0  0  0  0  0  0  0  0  0  0
   60.6050   33.9610   46.1560 C   0  0  0  0  0  0  0  0  0  0  0  0
   59.7980   35.2560   46.3360 C   0  0  0  0  0  0  0  0  0  0  0  0
   60.8050   34.2270   48.6020 C   0  0  0  0  0  0  0  0  0  0  0  0
   60.2360   33.4090   49.7700 C   0  0  0  0  0  0  0  0  0  0  0  0
   58.9000   32.7040   49.4440 C   0  0  0  0  0  0  0  0  0  0  0  0
   58.9650   31.6790   48.3770 N   0  0  0  0  0  0  0  0  0  0  0  0
   59.5770   30.3900   48.7560 C   0  0  0  0  0  0  0  0  0  0  0  0
   59.8390   29.4650   47.5500 C   0  0  0  0  0  0  0  0  0  0  0  0
   60.0140   30.2550   46.2420 C   0  0  0  0  0  0  0  0  0  0  0  0
   58.8150   30.1090   45.3290 C   0  0  0  0  0  0  0  0  0  0  0  0
   58.6550   28.9290   44.5790 C   0  0  0  0  0  0  0  0  0  0  0  0
   57.5140   28.7330   43.8000 C   0  0  0  0  0  0  0  0  0  0  0  0
   56.5220   29.7120   43.7540 C   0  0  0  0  0  0  0  0  0  0  0  0
   55.4120   29.5160   43.0010 F   0  0  0  0  0  0  0  0  0  0  0  0
   56.6700   30.8930   44.4850 C   0  0  0  0  0  0  0  0  0  0  0  0
   57.8140   31.1030   45.2810 C   0  0  0  0  0  0  0  0  0  0  0  0
   57.9810   32.2740   46.0390 O   0  0  0  0  0  0  0  0  0  0  0  0
   57.1880   33.4470   45.8990 C   0  0  0  0  0  0  0  0  0  0  0  0
   63.8700   34.3609   47.5275 H   0  0  0  0  0  0  0  0  0  0  0  0
   64.0850   33.2728   46.1146 H   0  0  0  0  0  0  0  0  0  0  0  0
   62.7689   34.4953   46.1146 H   0  0  0  0  0  0  0  0  0  0  0  0
   62.3987   31.8648   46.7750 H   0  0  0  0  0  0  0  0  0  0  0  0
   62.7514   32.5559   48.3950 H   0  0  0  0  0  0  0  0  0  0  0  0
   61.4999   34.1890   45.5583 H   0  0  0  0  0  0  0  0  0  0  0  0
   59.9442   33.2353   45.6593 H   0  0  0  0  0  0  0  0  0  0  0  0
   59.6697   35.4619   47.4089 H   0  0  0  0  0  0  0  0  0  0  0  0
   60.3355   36.0916   45.8640 H   0  0  0  0  0  0  0  0  0  0  0  0
   58.8110   35.1416   45.8640 H   0  0  0  0  0  0  0  0  0  0  0  0
   61.7569   34.6853   48.9086 H   0  0  0  0  0  0  0  0  0  0  0  0
   60.0837   35.0104   48.3264 H   0  0  0  0  0  0  0  0  0  0  0  0
   60.9739   32.6423   50.0487 H   0  0  0  0  0  0  0  0  0  0  0  0
   60.0344   34.1158   50.5884 H   0  0  0  0  0  0  0  0  0  0  0  0
   58.5415   32.2155   50.3621 H   0  0  0  0  0  0  0  0  0  0  0  0
   58.2273   33.4892   49.0686 H   0  0  0  0  0  0  0  0  0  0  0  0
   57.9930   31.4980   48.0360 H   0  0  0  0  0  0  0  0  0  0  0  0
   59.4980   32.0700   47.5660 H   0  0  0  0  0  0  0  0  0  0  0  0
   60.5354   30.5917   49.2569 H   0  0  0  0  0  0  0  0  0  0  0  0
   58.8666   29.8723   49.4173 H   0  0  0  0  0  0  0  0  0  0  0  0
   60.7547   28.8857   47.7397 H   0  0  0  0  0  0  0  0  0  0  0  0
   58.9664   28.8055   47.4332 H   0  0  0  0  0  0  0  0  0  0  0  0
   60.1485   31.3194   46.4848 H   0  0  0  0  0  0  0  0  0  0  0  0
   60.8932   29.8537   45.7166 H   0  0  0  0  0  0  0  0  0  0  0  0
   59.4359   28.1548   44.6071 H   0  0  0  0  0  0  0  0  0  0  0  0
   57.3969   27.8049   43.2213 H   0  0  0  0  0  0  0  0  0  0  0  0
   55.8878   31.6650   44.4391 H   0  0  0  0  0  0  0  0  0  0  0  0
   56.9265   33.8338   46.8950 H   0  0  0  0  0  0  0  0  0  0  0  0
   57.7563   34.2100   45.3469 H   0  0  0  0  0  0  0  0  0  0  0  0
   56.2681   33.2040   45.3469 H   0  0  0  0  0  0  0  0  0  0  0  0
  1  2  1  0
  2  3  1  0
  3  4  1  0
  4  5  1  0
  3  6  1  0
  6  7  1  0
  7  8  1  0
  8  9  1  0
  9 10  1  0
 10 11  1  0
 11 12  1  0
 12 13  1  0
 13 14  2  0
 14 15  1  0
 15 16  2  0
 16 17  1  0
 16 18  1  0
 18 19  2  0
 19 20  1  0
 20 21  1  0
 19 13  1  0
  1 22  1  0
  1 23  1  0
  1 24  1  0
  2 25  1  0
  2 26  1  0
  4 27  1  0
  4 28  1  0
  5 29  1  0
  5 30  1  0
  5 31  1  0
  6 32  1  0
  6 33  1  0
  7 34  1  0
  7 35  1  0
  8 36  1  0
  8 37  1  0
  9 38  1  0
  9 39  1  0
 10 40  1  0
 10 41  1  0
 11 42  1  0
 11 43  1  0
 12 44  1  0
 12 45  1  0
 14 46  1  0
 15 47  1  0
 18 48  1  0
 21 49  1  0
 21 50  1  0
 21 51  1  0
M  CHG  1   9   1
M  END
>  <UniqueID>  (31) 
31

>  <SMILES>  (31) 
CCN(CC)CCC[NH2+]CCCc1ccc(F)cc1OC

>  <Energy>  (31) 
43.20810969730308

>  <Genealogy>  (31) 
CCN(CC)CCC[NH2+]CCCc1ccc(F)cc1OC (protonated)
CCN(CC)CCC[NH2+]CCCc1ccc(F)cc1OC (3D coordinates assigned)
CCN(CC)CCC[NH2+]CCCc1ccc(F)cc1OC (optimized conformer: 43.20810969730308 kcal/mol)

>  <smiles>  (31) 
CCN(CC)CCCNCCCc1ccc(F)cc1OC

>  <score_type>  (31) 
oracle

>  <origin>  (31) 
adg

>  <m_score__min__energy>  (31) 
-3.5800000000000001

>  <m_primary>  (31) 
energy

$$$$
31:0
     RDKit          3D

 49 51  0  0  0  0  0  0  0  0999 V2000
   55.8830   29.8290   43.6200 C   0  0  0  0  0  0  0  0  0  0  0  0
   57.1810   29.8590   44.4210 C   0  0  0  0  0  0  0  0  0  0  0  0
   57.2530   31.0960   45.2350 N   0  0  0  0  0  0  0  0  0  0  0  0
   58.3290   31.0090   46.2480 C   0  0  0  0  0  0  0  0  0  0  0  0
   59.4400   30.0800   45.7650 C   0  0  0  0  0  0  0  0  0  0  0  0
   57.3900   32.3060   44.3860 C   0  0  0  0  0  0  0  0  0  0  0  0
   57.2140   33.5650   45.2400 C   0  0  0  0  0  0  0  0  0  0  0  0
   58.4330   34.3030   45.3420 O   0  0  0  0  0  0  0  0  0  0  0  0
   59.3770   34.1860   46.3750 C   0  0  0  0  0  0  0  0  0  0  0  0
   59.0420   34.3380   47.7340 C   0  0  0  0  0  0  0  0  0  0  0  0
   60.0190   34.2010   48.7240 C   0  0  0  0  0  0  0  0  0  0  0  0
   61.3450   33.9110   48.3730 C   0  0  0  0  0  0  0  0  0  0  0  0
   62.3320   33.7690   49.3610 C   0  0  0  0  0  0  0  0  0  0  0  0
   63.6620   33.4750   49.0070 C   0  0  0  0  0  0  0  0  0  0  0  0
   64.7040   33.3250   50.0540 C   0  0  0  0  0  0  0  0  0  0  0  0
   65.9130   32.6620   49.7700 C   0  0  0  0  0  0  0  0  0  0  0  0
   66.8930   32.5210   50.7580 C   0  0  0  0  0  0  0  0  0  0  0  0
   66.6790   33.0420   52.0360 C   0  0  0  0  0  0  0  0  0  0  0  0
   65.4840   33.7030   52.3300 C   0  0  0  0  0  0  0  0  0  0  0  0
   64.5010   33.8460   51.3460 C   0  0  0  0  0  0  0  0  0  0  0  0
   63.9900   33.3260   47.6460 C   0  0  0  0  0  0  0  0  0  0  0  0
   63.0130   33.4670   46.6580 C   0  0  0  0  0  0  0  0  0  0  0  0
   61.6890   33.7600   47.0100 C   0  0  0  0  0  0  0  0  0  0  0  0
   60.7020   33.9010   46.0230 C   0  0  0  0  0  0  0  0  0  0  0  0
   55.0266   29.8092   44.3101 H   0  0  0  0  0  0  0  0  0  0  0  0
   55.8225   30.7260   42.9862 H   0  0  0  0  0  0  0  0  0  0  0  0
   55.8640   28.9302   42.9862 H   0  0  0  0  0  0  0  0  0  0  0  0
   57.2175   28.9838   45.0864 H   0  0  0  0  0  0  0  0  0  0  0  0
   58.0324   29.8379   43.7248 H   0  0  0  0  0  0  0  0  0  0  0  0
   58.7453   32.0122   46.4218 H   0  0  0  0  0  0  0  0  0  0  0  0
   57.9086   30.6075   47.1819 H   0  0  0  0  0  0  0  0  0  0  0  0
   59.9585   29.6464   46.6328 H   0  0  0  0  0  0  0  0  0  0  0  0
   59.0048   29.2731   45.1571 H   0  0  0  0  0  0  0  0  0  0  0  0
   60.1571   30.6511   45.1571 H   0  0  0  0  0  0  0  0  0  0  0  0
   58.3879   32.3158   43.9233 H   0  0  0  0  0  0  0  0  0  0  0  0
   56.6172   32.2885   43.6034 H   0  0  0  0  0  0  0  0  0  0  0  0
   56.4464   34.2046   44.7799 H   0  0  0  0  0  0  0  0  0  0  0  0
   56.9117   33.2564   46.2516 H   0  0  0  0  0  0  0  0  0  0  0  0
   58.0042   34.5661   48.0186 H   0  0  0  0  0  0  0  0  0  0  0  0
   59.7464   34.3212   49.7829 H   0  0  0  0  0  0  0  0  0  0  0  0
   62.0636   33.8886   50.4210 H   0  0  0  0  0  0  0  0  0  0  0  0
   66.0881   32.2521   48.7644 H   0  0  0  0  0  0  0  0  0  0  0  0
   67.8336   31.9990   50.5281 H   0  0  0  0  0  0  0  0  0  0  0  0
   67.4516   32.9318   52.8112 H   0  0  0  0  0  0  0  0  0  0  0  0
   65.3161   34.1117   53.3374 H   0  0  0  0  0  0  0  0  0  0  0  0
   63.5628   34.3691   51.5830 H   0  0  0  0  0  0  0  0  0  0  0  0
   65.0264   33.0962   47.3578 H   0  0  0  0  0  0  0  0  0  0  0  0
   63.2843   33.3475   45.5987 H   0  0  0  0  0  0  0  0  0  0  0  0
   60.9715   33.7866   44.9627 H   0  0  0  0  0  0  0  0  0  0  0  0
  1  2  1  0
  2  3  1  0
  3  4  1  0
  4  5  1  0
  3  6  1  0
  6  7  1  0
  7  8  1  0
  8  9  1  0
  9 10  2  0
 10 11  1  0
 11 12  2  0
 12 13  1  0
 13 14  2  0
 14 15  1  0
 15 16  2  0
 16 17  1  0
 17 18  2  0
 18 19  1  0
 19 20  2  0
 14 21  1  0
 21 22  2  0
 22 23  1  0
 23 24  2  0
 24  9  1  0
 23 12  1  0
 20 15  1  0
  1 25  1  0
  1 26  1  0
  1 27  1  0
  2 28  1  0
  2 29  1  0
  4 30  1  0
  4 31  1  0
  5 32  1  0
  5 33  1  0
  5 34  1  0
  6 35  1  0
  6 36  1  0
  7 37  1  0
  7 38  1  0
 10 39  1  0
 11 40  1  0
 13 41  1  0
 16 42  1  0
 17 43  1  0
 18 44  1  0
 19 45  1  0
 20 46  1  0
 21 47  1  0
 22 48  1  0
 24 49  1  0
M  END
>  <UniqueID>  (32) 
32

>  <SMILES>  (32) 
CCN(CC)CCOc1ccc2cc(-c3ccccc3)ccc2c1

>  <Energy>  (32) 
57.18247966443778

>  <Genealogy>  (32) 
CCN(CC)CCOc1ccc2cc(-c3ccccc3)ccc2c1 (3D coordinates assigned)
CCN(CC)CCOc1ccc2cc(-c3ccccc3)ccc2c1 (optimized conformer: 57.18247966443778 kcal/mol)

>  <smiles>  (32) 
CCN(CC)CCOc1ccc2cc(-c3ccccc3)ccc2c1

>  <score_type>  (32) 
oracle

>  <origin>  (32) 
adg

>  <m_score__min__energy>  (32) 
-7.79

>  <m_primary>  (32) 
energy

$$$$
32:0
     RDKit          3D

 45 47  0  0  0  0  0  0  0  0999 V2000
   59.4160   32.6690   50.1050 C   0  0  0  0  0  0  0  0  0  0  0  0
   60.0210   33.9080   49.4540 C   0  0  0  0  0  0  0  0  0  0  0  0
   61.4350   33.6430   48.9970 C   0  0  0  0  0  0  0  0  0  0  0  0
   62.4970   33.8830   49.8870 C   0  0  0  0  0  0  0  0  0  0  0  0
   63.8190   33.6840   49.4850 C   0  0  0  0  0  0  0  0  0  0  0  0
   64.0990   33.2530   48.1870 C   0  0  0  0  0  0  0  0  0  0  0  0
   63.0570   33.0210   47.2880 C   0  0  0  0  0  0  0  0  0  0  0  0
   61.7250   33.2120   47.6810 C   0  0  0  0  0  0  0  0  0  0  0  0
   60.6730   32.9660   46.7360 N   0  0  0  0  0  0  0  0  0  0  0  0
   60.0670   34.1220   46.0560 C   0  0  0  0  0  0  0  0  0  0  0  0
   58.7940   34.6320   46.7550 C   0  0  0  0  0  0  0  0  0  0  0  0
   57.5300   33.7750   46.5080 C   0  0  0  0  0  0  0  0  0  0  0  0
   57.8440   32.3970   46.0940 N   0  0  0  0  0  0  0  0  0  0  0  0
   57.5710   31.9850   44.7430 C   0  0  0  0  0  0  0  0  0  0  0  0
   56.7970   30.8410   44.4980 C   0  0  0  0  0  0  0  0  0  0  0  0
   56.5320   30.4370   43.1860 C   0  0  0  0  0  0  0  0  0  0  0  0
   57.0380   31.1740   42.1110 C   0  0  0  0  0  0  0  0  0  0  0  0
   57.8120   32.3130   42.3470 C   0  0  0  0  0  0  0  0  0  0  0  0
   58.0780   32.7200   43.6590 C   0  0  0  0  0  0  0  0  0  0  0  0
   58.6710   31.5240   46.9430 C   0  0  0  0  0  0  0  0  0  0  0  0
   60.1590   31.5970   46.5890 C   0  0  0  0  0  0  0  0  0  0  0  0
   59.4648   32.7689   51.1994 H   0  0  0  0  0  0  0  0  0  0  0  0
   58.3663   32.5662   49.7926 H   0  0  0  0  0  0  0  0  0  0  0  0
   59.9804   31.7780   49.7926 H   0  0  0  0  0  0  0  0  0  0  0  0
   59.4095   34.1928   48.5851 H   0  0  0  0  0  0  0  0  0  0  0  0
   60.0387   34.7203   50.1955 H   0  0  0  0  0  0  0  0  0  0  0  0
   62.2842   34.2305   50.9087 H   0  0  0  0  0  0  0  0  0  0  0  0
   64.6414   33.8671   50.1922 H   0  0  0  0  0  0  0  0  0  0  0  0
   65.1414   33.0962   47.8727 H   0  0  0  0  0  0  0  0  0  0  0  0
   63.2823   32.6862   46.2647 H   0  0  0  0  0  0  0  0  0  0  0  0
   60.8034   34.9387   46.0296 H   0  0  0  0  0  0  0  0  0  0  0  0
   59.7791   33.7955   45.0458 H   0  0  0  0  0  0  0  0  0  0  0  0
   58.9847   34.6561   47.8381 H   0  0  0  0  0  0  0  0  0  0  0  0
   58.5834   35.6240   46.3290 H   0  0  0  0  0  0  0  0  0  0  0  0
   56.9442   33.7372   47.4383 H   0  0  0  0  0  0  0  0  0  0  0  0
   56.9669   34.2457   45.6887 H   0  0  0  0  0  0  0  0  0  0  0  0
   56.3969   30.2594   45.3416 H   0  0  0  0  0  0  0  0  0  0  0  0
   55.9251   29.5388   42.9994 H   0  0  0  0  0  0  0  0  0  0  0  0
   56.8266   30.8570   41.0791 H   0  0  0  0  0  0  0  0  0  0  0  0
   58.2126   32.8902   41.5006 H   0  0  0  0  0  0  0  0  0  0  0  0
   58.6860   33.6183   43.8419 H   0  0  0  0  0  0  0  0  0  0  0  0
   58.5430   31.8289   47.9921 H   0  0  0  0  0  0  0  0  0  0  0  0
   58.3397   30.4881   46.7784 H   0  0  0  0  0  0  0  0  0  0  0  0
   60.7205   30.9289   47.2587 H   0  0  0  0  0  0  0  0  0  0  0  0
   60.2835   31.2886   45.5405 H   0  0  0  0  0  0  0  0  0  0  0  0
  1  2  1  0
  2  3  1  0
  3  4  2  0
  4  5  1  0
  5  6  2  0
  6  7  1  0
  7  8  2  0
  8  9  1  0
  9 10  1  0
 10 11  1  0
 11 12  1  0
 12 13  1  0
 13 14  1  0
 14 15  2  0
 15 16  1  0
 16 17  2  0
 17 18  1  0
 18 19  2  0
 13 20  1  0
 20 21  1  0
  8  3  1  0
 21  9  1  0
 19 14  1  0
  1 22  1  0
  1 23  1  0
  1 24  1  0
  2 25  1  0
  2 26  1  0
  4 27  1  0
  5 28  1  0
  6 29  1  0
  7 30  1  0
 10 31  1  0
 10 32  1  0
 11 33  1  0
 11 34  1  0
 12 35  1  0
 12 36  1  0
 15 37  1  0
 16 38  1  0
 17 39  1  0
 18 40  1  0
 19 41  1  0
 20 42  1  0
 20 43  1  0
 21 44  1  0
 21 45  1  0
M  END
>  <UniqueID>  (33) 
33

>  <SMILES>  (33) 
CCc1ccccc1N1CCCN(c2ccccc2)CC1

>  <Energy>  (33) 
58.64455172428059

>  <Genealogy>  (33) 
CCc1ccccc1N1CCCN(c2ccccc2)CC1 (3D coordinates assigned)
CCc1ccccc1N1CCCN(c2ccccc2)CC1 (nonaromatic ring conformer: 58.64455172428059 kcal/mol)

>  <smiles>  (33) 
CCc1ccccc1N1CCCN(c2ccccc2)CC1

>  <score_type>  (33) 
oracle

>  <origin>  (33) 
adg

>  <m_score__min__energy>  (33) 
-5.6900000000000004

>  <m_primary>  (33) 
energy

$$$$
33:0
     RDKit          3D

 35 36  0  0  0  0  0  0  0  0999 V2000
   58.1320   27.0360   43.1960 C   0  0  0  0  0  0  0  0  0  0  0  0
   57.6880   27.3370   44.6230 C   0  0  0  0  0  0  0  0  0  0  0  0
   58.0100   28.7280   44.9790 N   0  0  0  0  0  0  0  0  0  0  0  0
   59.3040   29.0610   45.2630 C   0  0  0  0  0  0  0  0  0  0  0  0
   59.6390   30.3630   45.6290 C   0  0  0  0  0  0  0  0  0  0  0  0
   58.6240   31.3230   45.7160 C   0  0  0  0  0  0  0  0  0  0  0  0
   58.9000   32.6880   46.0960 N   0  0  0  0  0  0  0  0  0  0  0  0
   57.9040   33.6900   46.1900 C   0  0  0  0  0  0  0  0  0  0  0  0
   56.6690   33.4530   46.2620 O   0  0  0  0  0  0  0  0  0  0  0  0
   58.4230   34.9600   46.1570 O   0  0  0  0  0  0  0  0  0  0  0  0
   59.8320   34.8950   46.0020 C   0  0  0  0  0  0  0  0  0  0  0  0
   60.2000   33.3790   46.0880 C   0  0  1  0  0  0  0  0  0  0  0  0
   61.0320   33.0780   47.3730 C   0  0  0  0  0  0  0  0  0  0  0  0
   62.5470   33.2230   47.1640 C   0  0  0  0  0  0  0  0  0  0  0  0
   60.6020   34.0000   48.5280 C   0  0  0  0  0  0  0  0  0  0  0  0
   57.3470   30.9520   45.4350 N   0  0  0  0  0  0  0  0  0  0  0  0
   57.0310   29.6810   45.0770 C   0  0  0  0  0  0  0  0  0  0  0  0
   55.8250   29.3950   44.8400 O   0  0  0  0  0  0  0  0  0  0  0  0
   59.0423   26.4189   43.2177 H   0  0  0  0  0  0  0  0  0  0  0  0
   57.3330   26.4926   42.6703 H   0  0  0  0  0  0  0  0  0  0  0  0
   58.3410   27.9794   42.6703 H   0  0  0  0  0  0  0  0  0  0  0  0
   56.6016   27.1845   44.7041 H   0  0  0  0  0  0  0  0  0  0  0  0
   58.2175   26.6614   45.3109 H   0  0  0  0  0  0  0  0  0  0  0  0
   60.0896   28.2934   45.2021 H   0  0  0  0  0  0  0  0  0  0  0  0
   60.6833   30.6319   45.8459 H   0  0  0  0  0  0  0  0  0  0  0  0
   60.1294   35.3067   45.0263 H   0  0  0  0  0  0  0  0  0  0  0  0
   60.3518   35.4823   46.7733 H   0  0  0  0  0  0  0  0  0  0  0  0
   60.8323   33.0462   45.2517 H   0  0  0  0  0  0  0  0  0  0  0  0
   60.8261   32.0264   47.6213 H   0  0  0  0  0  0  0  0  0  0  0  0
   63.0491   33.2711   48.1416 H   0  0  0  0  0  0  0  0  0  0  0  0
   62.9240   32.3568   46.6004 H   0  0  0  0  0  0  0  0  0  0  0  0
   62.7528   34.1449   46.6004 H   0  0  0  0  0  0  0  0  0  0  0  0
   60.8285   33.5143   49.4886 H   0  0  0  0  0  0  0  0  0  0  0  0
   61.1491   34.9519   48.4604 H   0  0  0  0  0  0  0  0  0  0  0  0
   59.5211   34.1927   48.4604 H   0  0  0  0  0  0  0  0  0  0  0  0
  1  2  1  0
  2  3  1  0
  3  4  1  0
  4  5  2  0
  5  6  1  0
  6  7  1  0
  7  8  1  0
  8  9  2  0
  8 10  1  0
 10 11  1  0
 11 12  1  0
 12 13  1  0
 13 14  1  0
 13 15  1  0
  6 16  2  0
 16 17  1  0
 17 18  2  0
 17  3  1  0
 12  7  1  0
  1 19  1  0
  1 20  1  0
  1 21  1  0
  2 22  1  0
  2 23  1  0
  4 24  1  0
  5 25  1  0
 11 26  1  0
 11 27  1  0
 12 28  1  6
 13 29  1  0
 14 30  1  0
 14 31  1  0
 14 32  1  0
 15 33  1  0
 15 34  1  0
 15 35  1  0
M  END
>  <UniqueID>  (34) 
34

>  <SMILES>  (34) 
CCn1ccc(N2C(=O)OC[C@H]2C(C)C)nc1=O

>  <Energy>  (34) 
49.821744552358105

>  <Genealogy>  (34) 
CCn1ccc(N2C(=O)OC[C@H]2C(C)C)nc1=O (chirality)
CCn1ccc(N2C(=O)OC[C@H]2C(C)C)nc1=O (3D coordinates assigned)
CCn1ccc(N2C(=O)OC[C@H]2C(C)C)nc1=O (nonaromatic ring conformer: 49.821744552358105 kcal/mol)

>  <smiles>  (34) 
CCn1ccc(N2C(=O)OCC2C(C)C)nc1=O

>  <score_type>  (34) 
oracle

>  <origin>  (34) 
adg

>  <m_score__min__energy>  (34) 
-6.4400000000000004

>  <m_primary>  (34) 
energy

$$$$
34:0
     RDKit          3D

 59 62  0  0  0  0  0  0  0  0999 V2000
   61.4680   28.9530   50.4830 C   0  0  0  0  0  0  0  0  0  0  0  0
   60.7440   29.0850   49.1680 C   0  0  0  0  0  0  0  0  0  0  0  0
   59.8640   28.1090   48.8000 N   0  0  0  0  0  0  0  0  0  0  0  0
   59.2010   28.1980   47.6240 C   0  0  0  0  0  0  0  0  0  0  0  0
   58.0870   27.0830   47.0520 S   0  0  0  0  0  0  0  0  0  0  0  0
   57.8010   27.9570   45.6390 C   0  0  0  0  0  0  0  0  0  0  0  0
   58.5940   29.1080   45.6540 C   0  0  0  0  0  0  0  0  0  0  0  0
   58.5630   30.0970   44.5230 C   0  0  0  0  0  0  0  0  0  0  0  0
   59.3790   29.2350   46.7740 N   0  0  0  0  0  0  0  0  0  0  0  0
   60.2560   30.2400   47.0830 C   0  0  0  0  0  0  0  0  0  0  0  0
   60.4210   31.2150   46.3000 O   0  0  0  0  0  0  0  0  0  0  0  0
   60.9810   30.1810   48.2950 C   0  0  0  0  0  0  0  0  0  0  0  0
   61.9340   31.3030   48.6620 C   0  0  0  0  0  0  0  0  0  0  0  0
   62.9870   31.5000   47.5660 C   0  0  0  0  0  0  0  0  0  0  0  0
   63.9280   32.5760   47.9470 N   0  0  0  0  0  0  0  0  0  0  0  0
   64.0890   32.6780   49.4080 C   0  0  0  0  0  0  0  0  0  0  0  0
   63.6000   33.8790   47.3250 C   0  0  0  0  0  0  0  0  0  0  0  0
   62.3850   33.8460   46.3790 C   0  0  0  0  0  0  0  0  0  0  0  0
   61.1890   34.1480   47.0970 O   0  0  0  0  0  0  0  0  0  0  0  0
   59.8900   34.0040   46.5760 C   0  0  0  0  0  0  0  0  0  0  0  0
   59.5880   34.3370   45.2390 C   0  0  0  0  0  0  0  0  0  0  0  0
   58.2820   34.2240   44.7600 C   0  0  0  0  0  0  0  0  0  0  0  0
   57.2620   33.7820   45.6020 C   0  0  0  0  0  0  0  0  0  0  0  0
   57.5460   33.4430   46.9260 C   0  0  0  0  0  0  0  0  0  0  0  0
   58.8590   33.5390   47.4200 C   0  0  0  0  0  0  0  0  0  0  0  0
   59.1340   33.1630   48.8240 C   0  0  0  0  0  0  0  0  0  0  0  0
   58.5080   32.0430   49.3950 C   0  0  0  0  0  0  0  0  0  0  0  0
   58.7720   31.6870   50.7210 C   0  0  0  0  0  0  0  0  0  0  0  0
   59.6530   32.4530   51.4890 C   0  0  0  0  0  0  0  0  0  0  0  0
   60.2680   33.5780   50.9330 C   0  0  0  0  0  0  0  0  0  0  0  0
   60.0080   33.9360   49.6070 C   0  0  0  0  0  0  0  0  0  0  0  0
   60.7538   29.0832   51.3094 H   0  0  0  0  0  0  0  0  0  0  0  0
   61.9282   27.9561   50.5497 H   0  0  0  0  0  0  0  0  0  0  0  0
   62.2504   29.7233   50.5497 H   0  0  0  0  0  0  0  0  0  0  0  0
   59.6880   27.2870   49.4220 H   0  0  0  0  0  0  0  0  0  0  0  0
   57.1050   27.6690   44.8373 H   0  0  0  0  0  0  0  0  0  0  0  0
   58.5310   31.1185   44.9299 H   0  0  0  0  0  0  0  0  0  0  0  0
   59.4654   29.9764   43.9056 H   0  0  0  0  0  0  0  0  0  0  0  0
   57.6700   29.9201   43.9056 H   0  0  0  0  0  0  0  0  0  0  0  0
   61.3634   32.2352   48.7862 H   0  0  0  0  0  0  0  0  0  0  0  0
   62.4449   31.0402   49.6000 H   0  0  0  0  0  0  0  0  0  0  0  0
   63.5450   30.5624   47.4259 H   0  0  0  0  0  0  0  0  0  0  0  0
   62.4818   31.7807   46.6301 H   0  0  0  0  0  0  0  0  0  0  0  0
   63.2604   32.1530   49.9057 H   0  0  0  0  0  0  0  0  0  0  0  0
   65.0441   32.2199   49.7045 H   0  0  0  0  0  0  0  0  0  0  0  0
   64.0827   33.7373   49.7045 H   0  0  0  0  0  0  0  0  0  0  0  0
   63.3906   34.6005   48.1285 H   0  0  0  0  0  0  0  0  0  0  0  0
   64.4680   34.1603   46.7106 H   0  0  0  0  0  0  0  0  0  0  0  0
   62.5265   34.5895   45.5808 H   0  0  0  0  0  0  0  0  0  0  0  0
   62.2969   32.8390   45.9452 H   0  0  0  0  0  0  0  0  0  0  0  0
   60.3871   34.6881   44.5695 H   0  0  0  0  0  0  0  0  0  0  0  0
   58.0566   34.4843   43.7153 H   0  0  0  0  0  0  0  0  0  0  0  0
   56.2328   33.7004   45.2225 H   0  0  0  0  0  0  0  0  0  0  0  0
   56.7373   33.0985   47.5873 H   0  0  0  0  0  0  0  0  0  0  0  0
   57.8068   31.4431   48.7963 H   0  0  0  0  0  0  0  0  0  0  0  0
   58.2859   30.8033   51.1600 H   0  0  0  0  0  0  0  0  0  0  0  0
   59.8624   32.1704   52.5313 H   0  0  0  0  0  0  0  0  0  0  0  0
   60.9579   34.1828   51.5398 H   0  0  0  0  0  0  0  0  0  0  0  0
   60.4892   34.8259   49.1750 H   0  0  0  0  0  0  0  0  0  0  0  0
  1  2  1  0
  2  3  1  0
  3  4  2  0
  4  5  1  0
  5  6  1  0
  6  7  2  0
  7  8  1  0
  7  9  1  0
  9 10  1  0
 10 11  2  0
 10 12  1  0
 12 13  1  0
 13 14  1  0
 14 15  1  0
 15 16  1  0
 15 17  1  0
 17 18  1  0
 18 19  1  0
 19 20  1  0
 20 21  2  0
 21 22  1  0
 22 23  2  0
 23 24  1  0
 24 25  2  0
 25 26  1  0
 26 27  2  0
 27 28  1  0
 28 29  2  0
 29 30  1  0
 30 31  2  0
 12  2  2  0
 25 20  1  0
 31 26  1  0
  9  4  1  0
  1 32  1  0
  1 33  1  0
  1 34  1  0
  3 35  1  0
  6 36  1  0
  8 37  1  0
  8 38  1  0
  8 39  1  0
 13 40  1  0
 13 41  1  0
 14 42  1  0
 14 43  1  0
 16 44  1  0
 16 45  1  0
 16 46  1  0
 17 47  1  0
 17 48  1  0
 18 49  1  0
 18 50  1  0
 21 51  1  0
 22 52  1  0
 23 53  1  0
 24 54  1  0
 27 55  1  0
 28 56  1  0
 29 57  1  0
 30 58  1  0
 31 59  1  0
M  CHG  1   3   1
M  END
>  <UniqueID>  (35) 
35

>  <SMILES>  (35) 
Cc1[nH+]c2scc(C)n2c(=O)c1CCN(C)CCOc1ccccc1-c1ccccc1

>  <Energy>  (35) 
106.26080085863704

>  <Genealogy>  (35) 
Cc1[nH+]c2scc(C)n2c(=O)c1CCN(C)CCOc1ccccc1-c1ccccc1 (protonated)
Cc1[nH+]c2scc(C)n2c(=O)c1CCN(C)CCOc1ccccc1-c1ccccc1 (3D coordinates assigned)
Cc1[nH+]c2scc(C)n2c(=O)c1CCN(C)CCOc1ccccc1-c1ccccc1 (optimized conformer: 106.26080085863704 kcal/mol)

>  <smiles>  (35) 
Cc1nc2scc(C)n2c(=O)c1CCN(C)CCOc1ccccc1-c1ccccc1

>  <score_type>  (35) 
oracle

>  <origin>  (35) 
adg

>  <m_score__min__energy>  (35) 
-7.4199999999999999

>  <m_primary>  (35) 
energy

$$$$
35:0
     RDKit          3D

 48 50  0  0  0  0  0  0  0  0999 V2000
   59.4860   33.6400   51.0330 C   0  0  0  0  0  0  0  0  0  0  0  0
   60.2920   33.9800   49.9100 O   0  0  0  0  0  0  0  0  0  0  0  0
   60.8140   33.0490   48.9990 C   0  0  0  0  0  0  0  0  0  0  0  0
   61.8260   33.4690   48.1270 C   0  0  0  0  0  0  0  0  0  0  0  0
   62.3740   32.5810   47.1980 C   0  0  0  0  0  0  0  0  0  0  0  0
   61.9170   31.2640   47.1320 C   0  0  0  0  0  0  0  0  0  0  0  0
   60.9060   30.8230   48.0000 C   0  0  0  0  0  0  0  0  0  0  0  0
   60.3790   29.4120   47.9030 C   0  0  0  0  0  0  0  0  0  0  0  0
   59.1160   29.3430   47.1460 N   0  0  0  0  0  0  0  0  0  0  0  0
   58.5330   27.9830   47.1080 C   0  0  0  0  0  0  0  0  0  0  0  0
   58.6720   27.3360   45.7160 C   0  0  0  0  0  0  0  0  0  0  0  0
   57.3750   27.4190   44.9040 C   0  0  0  0  0  0  0  0  0  0  0  0
   56.6250   28.6300   45.2360 N   0  0  0  0  0  0  0  0  0  0  0  0
   57.0990   29.9520   44.9330 C   0  0  0  0  0  0  0  0  0  0  0  0
   57.2590   30.3510   43.6000 C   0  0  0  0  0  0  0  0  0  0  0  0
   57.7340   31.6340   43.3100 C   0  0  0  0  0  0  0  0  0  0  0  0
   57.8740   31.9840   42.1060 O   0  0  0  0  0  0  0  0  0  0  0  0
   58.0480   32.5160   44.3600 C   0  0  0  0  0  0  0  0  0  0  0  0
   58.5310   33.8170   44.1250 C   0  0  0  0  0  0  0  0  0  0  0  0
   58.8330   34.6580   45.2010 C   0  0  0  0  0  0  0  0  0  0  0  0
   58.6570   34.2140   46.5130 C   0  0  0  0  0  0  0  0  0  0  0  0
   58.1770   32.9250   46.7600 C   0  0  0  0  0  0  0  0  0  0  0  0
   57.8710   32.0740   45.6920 C   0  0  0  0  0  0  0  0  0  0  0  0
   57.4070   30.8200   45.9350 N   0  0  0  0  0  0  0  0  0  0  0  0
   60.3560   31.7190   48.9310 C   0  0  0  0  0  0  0  0  0  0  0  0
   60.0322   33.8704   51.9596 H   0  0  0  0  0  0  0  0  0  0  0  0
   58.5524   34.2210   51.0036 H   0  0  0  0  0  0  0  0  0  0  0  0
   59.2506   32.5659   51.0036 H   0  0  0  0  0  0  0  0  0  0  0  0
   62.1920   34.5053   48.1738 H   0  0  0  0  0  0  0  0  0  0  0  0
   63.1679   32.9208   46.5167 H   0  0  0  0  0  0  0  0  0  0  0  0
   62.3505   30.5694   46.3974 H   0  0  0  0  0  0  0  0  0  0  0  0
   61.1300   28.7868   47.3979 H   0  0  0  0  0  0  0  0  0  0  0  0
   60.1823   29.0528   48.9239 H   0  0  0  0  0  0  0  0  0  0  0  0
   58.4340   29.9760   47.6270 H   0  0  0  0  0  0  0  0  0  0  0  0
   59.2540   29.7290   46.1820 H   0  0  0  0  0  0  0  0  0  0  0  0
   59.0513   27.3533   47.8461 H   0  0  0  0  0  0  0  0  0  0  0  0
   57.4609   28.0654   47.3398 H   0  0  0  0  0  0  0  0  0  0  0  0
   59.4693   27.8542   45.1631 H   0  0  0  0  0  0  0  0  0  0  0  0
   58.9103   26.2721   45.8617 H   0  0  0  0  0  0  0  0  0  0  0  0
   57.6219   27.4314   43.8321 H   0  0  0  0  0  0  0  0  0  0  0  0
   56.7534   26.5445   45.1464 H   0  0  0  0  0  0  0  0  0  0  0  0
   55.6610   28.5140   45.6250 H   0  0  0  0  0  0  0  0  0  0  0  0
   57.0117   29.6569   42.7832 H   0  0  0  0  0  0  0  0  0  0  0  0
   58.6712   34.1728   43.0936 H   0  0  0  0  0  0  0  0  0  0  0  0
   59.2109   35.6738   45.0128 H   0  0  0  0  0  0  0  0  0  0  0  0
   58.8968   34.8806   47.3545 H   0  0  0  0  0  0  0  0  0  0  0  0
   58.0395   32.5789   47.7950 H   0  0  0  0  0  0  0  0  0  0  0  0
   59.5617   31.3795   49.6121 H   0  0  0  0  0  0  0  0  0  0  0  0
  1  2  1  0
  2  3  1  0
  3  4  2  0
  4  5  1  0
  5  6  2  0
  6  7  1  0
  7  8  1  0
  8  9  1  0
  9 10  1  0
 10 11  1  0
 11 12  1  0
 12 13  1  0
 13 14  1  0
 14 15  2  0
 15 16  1  0
 16 17  2  0
 16 18  1  0
 18 19  2  0
 19 20  1  0
 20 21  2  0
 21 22  1  0
 22 23  2  0
 23 24  1  0
  7 25  2  0
 25  3  1  0
 24 14  1  0
 23 18  1  0
  1 26  1  0
  1 27  1  0
  1 28  1  0
  4 29  1  0
  5 30  1  0
  6 31  1  0
  8 32  1  0
  8 33  1  0
  9 34  1  0
  9 35  1  0
 10 36  1  0
 10 37  1  0
 11 38  1  0
 11 39  1  0
 12 40  1  0
 12 41  1  0
 13 42  1  0
 15 43  1  0
 19 44  1  0
 20 45  1  0
 21 46  1  0
 22 47  1  0
 25 48  1  0
M  CHG  2   9   1  24  -1
M  END
>  <UniqueID>  (36) 
36

>  <SMILES>  (36) 
COc1cccc(C[NH2+]CCCNc2cc(=O)c3ccccc3[n-]2)c1

>  <Energy>  (36) 
49.8025663643445

>  <Genealogy>  (36) 
COc1cccc(C[NH2+]CCCNc2cc(=O)c3ccccc3[n-]2)c1 (protonated)
COc1cccc(C[NH2+]CCCNc2cc(=O)c3ccccc3[n-]2)c1 (3D coordinates assigned)
COc1cccc(C[NH2+]CCCNc2cc(=O)c3ccccc3[n-]2)c1 (optimized conformer: 49.8025663643445 kcal/mol)

>  <smiles>  (36) 
COc1cccc(CNCCCNc2cc(=O)c3ccccc3[nH]2)c1

>  <score_type>  (36) 
oracle

>  <origin>  (36) 
adg

>  <m_score__min__energy>  (36) 
-7.5199999999999996

>  <m_primary>  (36) 
energy

$$$$
36:0
     RDKit          3D

 36 37  0  0  0  0  0  0  0  0999 V2000
   55.9750   30.0550   43.6700 C   0  0  0  0  0  0  0  0  0  0  0  0
   57.2370   30.0790   44.4880 C   0  0  0  0  0  0  0  0  0  0  0  0
   57.9890   28.9070   44.6540 C   0  0  0  0  0  0  0  0  0  0  0  0
   59.1730   28.9280   45.3910 C   0  0  0  0  0  0  0  0  0  0  0  0
   59.6210   30.1120   45.9770 C   0  0  0  0  0  0  0  0  0  0  0  0
   58.8790   31.3010   45.8360 C   0  0  0  0  0  0  0  0  0  0  0  0
   59.2910   32.5280   46.4050 C   0  0  0  0  0  0  0  0  0  0  0  0
   60.4530   32.6070   47.2540 N   0  0  0  0  0  0  0  0  0  0  0  0
   60.5660   33.5300   48.3830 C   0  0  0  0  0  0  0  0  0  0  0  0
   62.0140   33.9880   48.5760 C   0  0  0  0  0  0  0  0  0  0  0  0
   62.9350   33.1440   47.7790 N   0  0  0  0  0  0  0  0  0  0  0  0
   64.1040   32.7360   48.5740 C   0  0  0  0  0  0  0  0  0  0  0  0
   63.3840   33.8420   46.5620 C   0  0  0  0  0  0  0  0  0  0  0  0
   58.5110   33.6710   46.1720 C   0  0  0  0  0  0  0  0  0  0  0  0
   57.3540   33.5680   45.4000 C   0  0  0  0  0  0  0  0  0  0  0  0
   56.6460   34.5870   45.1920 O   0  0  0  0  0  0  0  0  0  0  0  0
   56.9890   32.4000   44.8870 O   0  0  0  0  0  0  0  0  0  0  0  0
   57.6860   31.2810   45.0670 C   0  0  0  0  0  0  0  0  0  0  0  0
   55.1034   30.0384   44.3409 H   0  0  0  0  0  0  0  0  0  0  0  0
   55.9322   30.9525   43.0354 H   0  0  0  0  0  0  0  0  0  0  0  0
   55.9664   29.1565   43.0354 H   0  0  0  0  0  0  0  0  0  0  0  0
   57.6433   27.9663   44.2006 H   0  0  0  0  0  0  0  0  0  0  0  0
   59.7578   28.0041   45.5110 H   0  0  0  0  0  0  0  0  0  0  0  0
   60.5586   30.1172   46.5522 H   0  0  0  0  0  0  0  0  0  0  0  0
   61.2750   31.9940   47.0570 H   0  0  0  0  0  0  0  0  0  0  0  0
   59.9331   34.4094   48.1931 H   0  0  0  0  0  0  0  0  0  0  0  0
   60.2393   33.0090   49.2950 H   0  0  0  0  0  0  0  0  0  0  0  0
   62.1092   35.0346   48.2510 H   0  0  0  0  0  0  0  0  0  0  0  0
   62.2777   33.8963   49.6400 H   0  0  0  0  0  0  0  0  0  0  0  0
   63.8663   32.8190   49.6448 H   0  0  0  0  0  0  0  0  0  0  0  0
   64.3639   31.6940   48.3358 H   0  0  0  0  0  0  0  0  0  0  0  0
   64.9558   33.3900   48.3358 H   0  0  0  0  0  0  0  0  0  0  0  0
   63.9593   34.7363   46.8434 H   0  0  0  0  0  0  0  0  0  0  0  0
   64.0194   33.1695   45.9669 H   0  0  0  0  0  0  0  0  0  0  0  0
   62.5086   34.1413   45.9669 H   0  0  0  0  0  0  0  0  0  0  0  0
   58.8100   34.6413   46.5952 H   0  0  0  0  0  0  0  0  0  0  0  0
  1  2  1  0
  2  3  2  0
  3  4  1  0
  4  5  2  0
  5  6  1  0
  6  7  1  0
  7  8  1  0
  8  9  1  0
  9 10  1  0
 10 11  1  0
 11 12  1  0
 11 13  1  0
  7 14  2  0
 14 15  1  0
 15 16  2  0
 15 17  1  0
 17 18  1  0
 18  2  1  0
 18  6  2  0
  1 19  1  0
  1 20  1  0
  1 21  1  0
  3 22  1  0
  4 23  1  0
  5 24  1  0
  8 25  1  0
  9 26  1  0
  9 27  1  0
 10 28  1  0
 10 29  1  0
 12 30  1  0
 12 31  1  0
 12 32  1  0
 13 33  1  0
 13 34  1  0
 13 35  1  0
 14 36  1  0
M  END
>  <UniqueID>  (37) 
37

>  <SMILES>  (37) 
Cc1cccc2c(NCCN(C)C)cc(=O)oc12

>  <Energy>  (37) 
43.29972810027661

>  <Genealogy>  (37) 
Cc1cccc2c(NCCN(C)C)cc(=O)oc12 (3D coordinates assigned)
Cc1cccc2c(NCCN(C)C)cc(=O)oc12 (optimized conformer: 43.29972810027661 kcal/mol)

>  <smiles>  (37) 
Cc1cccc2c(NCCN(C)C)cc(=O)oc12

>  <score_type>  (37) 
oracle

>  <origin>  (37) 
adg

>  <m_score__min__energy>  (37) 
-5.6900000000000004

>  <m_primary>  (37) 
energy

$$$$
37:0
     RDKit          3D

 28 29  0  0  0  0  0  0  0  0999 V2000
   56.3260   30.2850   43.9030 C   0  0  0  0  0  0  0  0  0  0  0  0
   57.3900   31.3490   44.1500 C   0  0  0  0  0  0  0  0  0  0  0  0
   56.9940   32.2180   45.2100 O   0  0  0  0  0  0  0  0  0  0  0  0
   57.3200   33.5790   45.2530 C   0  0  0  0  0  0  0  0  0  0  0  0
   56.4900   34.4500   44.8780 O   0  0  0  0  0  0  0  0  0  0  0  0
   58.6390   33.9920   45.7470 C   0  0  0  0  0  0  0  0  0  0  0  0
   59.4580   33.2700   46.5910 C   0  0  0  0  0  0  0  0  0  0  0  0
   60.5710   34.0830   46.7510 C   0  0  0  0  0  0  0  0  0  0  0  0
   61.7790   33.8080   47.5610 C   0  0  0  0  0  0  0  0  0  0  0  0
   61.7430   34.0080   48.9530 C   0  0  0  0  0  0  0  0  0  0  0  0
   62.8740   33.7540   49.7350 C   0  0  0  0  0  0  0  0  0  0  0  0
   64.0530   33.3000   49.1380 C   0  0  0  0  0  0  0  0  0  0  0  0
   65.4710   32.9840   50.1210 Cl  0  0  0  0  0  0  0  0  0  0  0  0
   64.1010   33.1000   47.7560 C   0  0  0  0  0  0  0  0  0  0  0  0
   62.9720   33.3510   46.9690 C   0  0  0  0  0  0  0  0  0  0  0  0
   60.3910   35.1820   46.0490 O   0  0  0  0  0  0  0  0  0  0  0  0
   59.2440   35.1540   45.4380 N   0  0  0  0  0  0  0  0  0  0  0  0
   55.9514   29.9104   44.8670 H   0  0  0  0  0  0  0  0  0  0  0  0
   55.4945   30.7236   43.3319 H   0  0  0  0  0  0  0  0  0  0  0  0
   56.7646   29.4535   43.3319 H   0  0  0  0  0  0  0  0  0  0  0  0
   58.3367   30.8580   44.4195 H   0  0  0  0  0  0  0  0  0  0  0  0
   57.5173   31.9430   43.2330 H   0  0  0  0  0  0  0  0  0  0  0  0
   59.2718   32.2804   47.0338 H   0  0  0  0  0  0  0  0  0  0  0  0
   60.8187   34.3667   49.4296 H   0  0  0  0  0  0  0  0  0  0  0  0
   62.8355   33.9120   50.8229 H   0  0  0  0  0  0  0  0  0  0  0  0
   65.0294   32.7441   47.2854 H   0  0  0  0  0  0  0  0  0  0  0  0
   63.0165   33.1905   45.8817 H   0  0  0  0  0  0  0  0  0  0  0  0
   58.8780   35.9120   44.8220 H   0  0  0  0  0  0  0  0  0  0  0  0
  1  2  1  0
  2  3  1  0
  3  4  1  0
  4  5  2  0
  4  6  1  0
  6  7  1  0
  7  8  2  0
  8  9  1  0
  9 10  2  0
 10 11  1  0
 11 12  2  0
 12 13  1  0
 12 14  1  0
 14 15  2  0
  8 16  1  0
 16 17  1  0
 17  6  2  0
 15  9  1  0
  1 18  1  0
  1 19  1  0
  1 20  1  0
  2 21  1  0
  2 22  1  0
  7 23  1  0
 10 24  1  0
 11 25  1  0
 14 26  1  0
 15 27  1  0
 17 28  1  0
M  CHG  1  17   1
M  END
>  <UniqueID>  (38) 
38

>  <SMILES>  (38) 
CCOC(=O)c1cc(-c2ccc(Cl)cc2)o[nH+]1

>  <Energy>  (38) 
55.00980789232678

>  <Genealogy>  (38) 
CCOC(=O)c1cc(-c2ccc(Cl)cc2)o[nH+]1 (protonated)
CCOC(=O)c1cc(-c2ccc(Cl)cc2)o[nH+]1 (3D coordinates assigned)
CCOC(=O)c1cc(-c2ccc(Cl)cc2)o[nH+]1 (optimized conformer: 55.00980789232678 kcal/mol)

>  <smiles>  (38) 
CCOC(=O)c1cc(-c2ccc(Cl)cc2)on1

>  <score_type>  (38) 
oracle

>  <origin>  (38) 
adg

>  <m_score__min__energy>  (38) 
-4.7800000000000002

>  <m_primary>  (38) 
energy

$$$$
38:0
     RDKit          3D

 32 34  0  0  0  0  0  0  0  0999 V2000
   59.2610   35.0240   45.0350 C   0  0  0  0  0  0  0  0  0  0  0  0
   58.6800   34.0960   44.1260 O   0  0  0  0  0  0  0  0  0  0  0  0
   58.4270   32.7480   44.4220 C   0  0  0  0  0  0  0  0  0  0  0  0
   58.4190   32.3520   45.7660 C   0  0  0  0  0  0  0  0  0  0  0  0
   58.1740   31.0200   46.1130 C   0  0  0  0  0  0  0  0  0  0  0  0
   57.9360   30.0660   45.1150 C   0  0  0  0  0  0  0  0  0  0  0  0
   57.6830   28.6930   45.4710 N   0  0  0  0  0  0  0  0  0  0  0  0
   56.3850   28.2540   45.5120 C   0  0  0  0  0  0  0  0  0  0  0  0
   55.4360   29.0450   45.2460 O   0  0  0  0  0  0  0  0  0  0  0  0
   56.1010   26.9610   45.8320 N   0  0  0  0  0  0  0  0  0  0  0  0
   54.7870   26.5440   45.8640 O   0  0  0  0  0  0  0  0  0  0  0  0
   57.0880   26.0720   46.1180 C   0  0  0  0  0  0  0  0  0  0  0  0
   56.7900   24.8800   46.4090 O   0  0  0  0  0  0  0  0  0  0  0  0
   58.4290   26.4840   46.0910 C   0  0  0  0  0  0  0  0  0  0  0  0
   59.4780   25.5920   46.3860 C   0  0  0  0  0  0  0  0  0  0  0  0
   60.8020   26.0300   46.3610 C   0  0  0  0  0  0  0  0  0  0  0  0
   61.0950   27.3550   46.0440 C   0  0  0  0  0  0  0  0  0  0  0  0
   60.0670   28.2510   45.7480 C   0  0  0  0  0  0  0  0  0  0  0  0
   58.7150   27.8300   45.7610 C   0  0  0  0  0  0  0  0  0  0  0  0
   57.9390   30.4550   43.7690 C   0  0  0  0  0  0  0  0  0  0  0  0
   58.1840   31.7870   43.4220 C   0  0  0  0  0  0  0  0  0  0  0  0
   59.0592   34.7016   46.0671 H   0  0  0  0  0  0  0  0  0  0  0  0
   60.3477   35.0673   44.8703 H   0  0  0  0  0  0  0  0  0  0  0  0
   58.8252   36.0205   44.8703 H   0  0  0  0  0  0  0  0  0  0  0  0
   58.6071   33.0953   46.5547 H   0  0  0  0  0  0  0  0  0  0  0  0
   58.1681   30.7205   47.1714 H   0  0  0  0  0  0  0  0  0  0  0  0
   59.2522   24.5452   46.6373 H   0  0  0  0  0  0  0  0  0  0  0  0
   61.6167   25.3280   46.5920 H   0  0  0  0  0  0  0  0  0  0  0  0
   62.1407   27.6959   46.0270 H   0  0  0  0  0  0  0  0  0  0  0  0
   60.3094   29.2954   45.5020 H   0  0  0  0  0  0  0  0  0  0  0  0
   57.7480   29.7099   42.9826 H   0  0  0  0  0  0  0  0  0  0  0  0
   58.1869   32.0855   42.3633 H   0  0  0  0  0  0  0  0  0  0  0  0
  1  2  1  0
  2  3  1  0
  3  4  2  0
  4  5  1  0
  5  6  2  0
  6  7  1  0
  7  8  1  0
  8  9  2  0
  8 10  1  0
 10 11  1  0
 10 12  1  0
 12 13  2  0
 12 14  1  0
 14 15  2  0
 15 16  1  0
 16 17  2  0
 17 18  1  0
 18 19  2  0
  6 20  1  0
 20 21  2  0
 21  3  1  0
 19  7  1  0
 19 14  1  0
  1 22  1  0
  1 23  1  0
  1 24  1  0
  4 25  1  0
  5 26  1  0
 15 27  1  0
 16 28  1  0
 17 29  1  0
 18 30  1  0
 20 31  1  0
 21 32  1  0
M  CHG  1  11  -1
M  END
>  <UniqueID>  (39) 
39

>  <SMILES>  (39) 
COc1ccc(-n2c(=O)n([O-])c(=O)c3ccccc32)cc1

>  <Energy>  (39) 
51.885065858907424

>  <Genealogy>  (39) 
COc1ccc(-n2c(=O)n([O-])c(=O)c3ccccc32)cc1 (protonated)
COc1ccc(-n2c(=O)n([O-])c(=O)c3ccccc32)cc1 (3D coordinates assigned)
COc1ccc(-n2c(=O)n([O-])c(=O)c3ccccc32)cc1 (optimized conformer: 51.885065858907424 kcal/mol)

>  <smiles>  (39) 
COc1ccc(-n2c(=O)n(O)c(=O)c3ccccc32)cc1

>  <score_type>  (39) 
oracle

>  <origin>  (39) 
adg

>  <m_score__min__energy>  (39) 
-9.6500000000000004

>  <m_primary>  (39) 
energy

$$$$
39:0
     RDKit          3D

 43 45  0  0  0  0  0  0  0  0999 V2000
   62.0150   34.2410   49.2830 C   0  0  0  0  0  0  0  0  0  0  0  0
   61.9810   32.7900   49.0330 N   0  0  0  0  0  0  0  0  0  0  0  0
   62.3940   32.0680   50.2470 C   0  0  0  0  0  0  0  0  0  0  0  0
   62.8230   32.4210   47.8730 C   0  0  0  0  0  0  0  0  0  0  0  0
   62.2330   31.2020   47.1580 C   0  0  0  0  0  0  0  0  0  0  0  0
   60.8210   31.0250   47.4900 N   0  0  0  0  0  0  0  0  0  0  0  0
   59.8360   31.0150   46.4420 C   0  0  0  0  0  0  0  0  0  0  0  0
   59.2110   32.2090   46.0430 C   0  0  0  0  0  0  0  0  0  0  0  0
   59.5210   33.4340   46.6720 C   0  0  0  0  0  0  0  0  0  0  0  0
   58.8600   34.6060   46.3120 C   0  0  0  0  0  0  0  0  0  0  0  0
   57.8790   34.5770   45.3290 C   0  0  0  0  0  0  0  0  0  0  0  0
   57.5740   33.3840   44.6760 C   0  0  0  0  0  0  0  0  0  0  0  0
   58.2590   32.1820   44.9880 C   0  0  0  0  0  0  0  0  0  0  0  0
   58.0140   31.0050   44.3050 N   0  0  0  0  0  0  0  0  0  0  0  0
   57.2550   31.0320   43.0340 C   0  0  0  0  0  0  0  0  0  0  0  0
   58.4980   29.8060   44.7960 C   0  0  0  0  0  0  0  0  0  0  0  0
   58.0590   28.5580   44.2850 C   0  0  0  0  0  0  0  0  0  0  0  0
   58.5840   27.3580   44.7630 C   0  0  0  0  0  0  0  0  0  0  0  0
   59.5430   27.3650   45.7710 C   0  0  0  0  0  0  0  0  0  0  0  0
   60.1970   25.8520   46.3720 Cl  0  0  0  0  0  0  0  0  0  0  0  0
   59.9650   28.5740   46.3200 C   0  0  0  0  0  0  0  0  0  0  0  0
   59.4450   29.8000   45.8530 C   0  0  0  0  0  0  0  0  0  0  0  0
   62.0193   34.4262   50.3673 H   0  0  0  0  0  0  0  0  0  0  0  0
   62.9234   34.6692   48.8342 H   0  0  0  0  0  0  0  0  0  0  0  0
   61.1276   34.7113   48.8342 H   0  0  0  0  0  0  0  0  0  0  0  0
   62.0721   32.6307   51.1357 H   0  0  0  0  0  0  0  0  0  0  0  0
   61.9297   31.0708   50.2564 H   0  0  0  0  0  0  0  0  0  0  0  0
   63.4889   31.9627   50.2564 H   0  0  0  0  0  0  0  0  0  0  0  0
   62.8669   33.2675   47.1719 H   0  0  0  0  0  0  0  0  0  0  0  0
   63.8346   32.1744   48.2277 H   0  0  0  0  0  0  0  0  0  0  0  0
   62.3310   31.3415   46.0713 H   0  0  0  0  0  0  0  0  0  0  0  0
   62.7821   30.3071   47.4860 H   0  0  0  0  0  0  0  0  0  0  0  0
   60.5030   31.2990   48.4470 H   0  0  0  0  0  0  0  0  0  0  0  0
   60.2930   33.4634   47.4550 H   0  0  0  0  0  0  0  0  0  0  0  0
   59.1150   35.5550   46.8064 H   0  0  0  0  0  0  0  0  0  0  0  0
   57.3407   35.4992   45.0649 H   0  0  0  0  0  0  0  0  0  0  0  0
   56.7888   33.3746   43.9057 H   0  0  0  0  0  0  0  0  0  0  0  0
   56.1773   31.0703   43.2512 H   0  0  0  0  0  0  0  0  0  0  0  0
   57.5438   31.9204   42.4533 H   0  0  0  0  0  0  0  0  0  0  0  0
   57.4800   30.1253   42.4533 H   0  0  0  0  0  0  0  0  0  0  0  0
   57.2909   28.5364   43.4978 H   0  0  0  0  0  0  0  0  0  0  0  0
   58.2388   26.4023   44.3417 H   0  0  0  0  0  0  0  0  0  0  0  0
   60.7124   28.5729   47.1271 H   0  0  0  0  0  0  0  0  0  0  0  0
  1  2  1  0
  2  3  1  0
  2  4  1  0
  4  5  1  0
  5  6  1  0
  6  7  1  0
  7  8  2  0
  8  9  1  0
  9 10  2  0
 10 11  1  0
 11 12  2  0
 12 13  1  0
 13 14  2  0
 14 15  1  0
 14 16  1  0
 16 17  2  0
 17 18  1  0
 18 19  2  0
 19 20  1  0
 19 21  1  0
 21 22  2  0
 22  7  1  0
 13  8  1  0
 22 16  1  0
  1 23  1  0
  1 24  1  0
  1 25  1  0
  3 26  1  0
  3 27  1  0
  3 28  1  0
  4 29  1  0
  4 30  1  0
  5 31  1  0
  5 32  1  0
  6 33  1  0
  9 34  1  0
 10 35  1  0
 11 36  1  0
 12 37  1  0
 15 38  1  0
 15 39  1  0
 15 40  1  0
 17 41  1  0
 18 42  1  0
 21 43  1  0
M  CHG  1  14   1
M  END
>  <UniqueID>  (40) 
40

>  <SMILES>  (40) 
CN(C)CCNc1c2ccccc2[n+](C)c2ccc(Cl)cc12

>  <Energy>  (40) 
70.31131477354947

>  <Genealogy>  (40) 
CN(C)CCNc1c2ccccc2[n+](C)c2ccc(Cl)cc12 (3D coordinates assigned)
CN(C)CCNc1c2ccccc2[n+](C)c2ccc(Cl)cc12 (optimized conformer: 70.31131477354947 kcal/mol)

>  <smiles>  (40) 
CN(C)CCNc1c2ccccc2[n+](C)c2ccc(Cl)cc12

>  <score_type>  (40) 
oracle

>  <origin>  (40) 
adg

>  <m_score__min__energy>  (40) 
-5.1100000000000003

>  <m_primary>  (40) 
energy

$$$$
40:0
     RDKit          3D

 54 57  0  0  0  0  0  0  0  0999 V2000
   62.7520   30.2340   51.0760 C   0  0  0  0  0  0  0  0  0  0  0  0
   64.0300   30.6630   51.8020 C   0  0  0  0  0  0  0  0  0  0  0  0
   65.1180   31.0020   50.8680 N   0  0  0  0  0  0  0  0  0  0  0  0
   65.7240   32.3100   51.1540 C   0  0  0  0  0  0  0  0  0  0  0  0
   65.0110   33.4610   50.4030 C   0  0  0  0  0  0  0  0  0  0  0  0
   63.8490   33.0680   49.5580 N   0  0  1  0  0  0  0  0  0  0  0  0
   62.5900   33.7460   49.9350 C   0  0  0  0  0  0  0  0  0  0  0  0
   61.4560   33.1520   49.1590 C   0  0  0  0  0  0  0  0  0  0  0  0
   61.6150   32.9330   47.8500 C   0  0  0  0  0  0  0  0  0  0  0  0
   60.5330   32.2970   47.0590 C   0  0  0  0  0  0  0  0  0  0  0  0
   60.2960   30.9290   46.9550 C   0  0  0  0  0  0  0  0  0  0  0  0
   59.2530   30.6890   46.1270 N   0  0  0  0  0  0  0  0  0  0  0  0
   58.7520   29.3880   45.7730 C   0  0  0  0  0  0  0  0  0  0  0  0
   58.4420   28.4550   46.7760 C   0  0  0  0  0  0  0  0  0  0  0  0
   57.9730   27.1830   46.4360 C   0  0  0  0  0  0  0  0  0  0  0  0
   57.8200   26.8280   45.0930 C   0  0  0  0  0  0  0  0  0  0  0  0
   57.3650   25.5930   44.7650 F   0  0  0  0  0  0  0  0  0  0  0  0
   58.1410   27.7440   44.0880 C   0  0  0  0  0  0  0  0  0  0  0  0
   58.6110   29.0180   44.4240 C   0  0  0  0  0  0  0  0  0  0  0  0
   58.8090   31.8970   45.7150 C   0  0  0  0  0  0  0  0  0  0  0  0
   57.6960   32.1790   44.9140 C   0  0  0  0  0  0  0  0  0  0  0  0
   57.3880   33.5270   44.6590 C   0  0  0  0  0  0  0  0  0  0  0  0
   58.1700   34.5560   45.2200 C   0  0  0  0  0  0  0  0  0  0  0  0
   59.2670   34.2510   46.0430 C   0  0  0  0  0  0  0  0  0  0  0  0
   59.5700   32.9040   46.2650 C   0  0  0  0  0  0  0  0  0  0  0  0
   62.9030   33.3760   47.1990 C   0  0  0  0  0  0  0  0  0  0  0  0
   64.1480   33.1530   48.0980 C   0  0  0  0  0  0  0  0  0  0  0  0
   61.9798   29.9748   51.8152 H   0  0  0  0  0  0  0  0  0  0  0  0
   62.3932   31.0610   50.4456 H   0  0  0  0  0  0  0  0  0  0  0  0
   62.9649   29.3581   50.4456 H   0  0  0  0  0  0  0  0  0  0  0  0
   63.8065   31.5454   52.4196 H   0  0  0  0  0  0  0  0  0  0  0  0
   64.3672   29.8160   52.4175 H   0  0  0  0  0  0  0  0  0  0  0  0
   65.8590   30.2630   50.9060 H   0  0  0  0  0  0  0  0  0  0  0  0
   65.6618   32.5005   52.2356 H   0  0  0  0  0  0  0  0  0  0  0  0
   66.7692   32.2801   50.8126 H   0  0  0  0  0  0  0  0  0  0  0  0
   64.6532   34.1816   51.1532 H   0  0  0  0  0  0  0  0  0  0  0  0
   65.7589   33.8694   49.7074 H   0  0  0  0  0  0  0  0  0  0  0  0
   63.6980   32.0490   49.7600 H   0  0  0  0  0  0  0  0  0  0  0  0
   62.4086   33.6117   51.0116 H   0  0  0  0  0  0  0  0  0  0  0  0
   62.6681   34.8198   49.7093 H   0  0  0  0  0  0  0  0  0  0  0  0
   60.5083   32.9001   49.6574 H   0  0  0  0  0  0  0  0  0  0  0  0
   60.8759   30.1515   47.4738 H   0  0  0  0  0  0  0  0  0  0  0  0
   58.5689   28.7267   47.8343 H   0  0  0  0  0  0  0  0  0  0  0  0
   57.7239   26.4601   47.2268 H   0  0  0  0  0  0  0  0  0  0  0  0
   58.0240   27.4629   43.0310 H   0  0  0  0  0  0  0  0  0  0  0  0
   58.8713   29.7331   43.6297 H   0  0  0  0  0  0  0  0  0  0  0  0
   57.0800   31.3691   44.4961 H   0  0  0  0  0  0  0  0  0  0  0  0
   56.5310   33.7798   44.0174 H   0  0  0  0  0  0  0  0  0  0  0  0
   57.9196   35.6067   45.0119 H   0  0  0  0  0  0  0  0  0  0  0  0
   59.8705   35.0492   46.4998 H   0  0  0  0  0  0  0  0  0  0  0  0
   63.0378   32.8073   46.2671 H   0  0  0  0  0  0  0  0  0  0  0  0
   62.8218   34.4573   47.0138 H   0  0  0  0  0  0  0  0  0  0  0  0
   64.6301   32.2133   47.7906 H   0  0  0  0  0  0  0  0  0  0  0  0
   64.7946   34.0324   47.9614 H   0  0  0  0  0  0  0  0  0  0  0  0
  1  2  1  0
  2  3  1  0
  3  4  1  0
  4  5  1  0
  5  6  1  0
  6  7  1  0
  7  8  1  0
  8  9  2  0
  9 10  1  0
 10 11  2  0
 11 12  1  0
 12 13  1  0
 13 14  2  0
 14 15  1  0
 15 16  2  0
 16 17  1  0
 16 18  1  0
 18 19  2  0
 12 20  1  0
 20 21  2  0
 21 22  1  0
 22 23  2  0
 23 24  1  0
 24 25  2  0
  9 26  1  0
 26 27  1  0
 27  6  1  0
 25 10  1  0
 19 13  1  0
 25 20  1  0
  1 28  1  0
  1 29  1  0
  1 30  1  0
  2 31  1  0
  2 32  1  0
  3 33  1  0
  4 34  1  0
  4 35  1  0
  5 36  1  0
  5 37  1  0
  6 38  1  1
  7 39  1  0
  7 40  1  0
  8 41  1  0
 11 42  1  0
 14 43  1  0
 15 44  1  0
 18 45  1  0
 19 46  1  0
 21 47  1  0
 22 48  1  0
 23 49  1  0
 24 50  1  0
 26 51  1  0
 26 52  1  0
 27 53  1  0
 27 54  1  0
M  CHG  1   6   1
M  END
>  <UniqueID>  (41) 
41

>  <SMILES>  (41) 
CCNCC[N@H+]1CC=C(c2cn(-c3ccc(F)cc3)c3ccccc23)CC1

>  <Energy>  (41) 
110.97034308512694

>  <Genealogy>  (41) 
CCNCC[NH+]1CC=C(c2cn(-c3ccc(F)cc3)c3ccccc23)CC1 (protonated)
CCNCC[N@H+]1CC=C(c2cn(-c3ccc(F)cc3)c3ccccc23)CC1 (chirality)
CCNCC[N@H+]1CC=C(c2cn(-c3ccc(F)cc3)c3ccccc23)CC1 (3D coordinates assigned)
CCNCC[N@H+]1CC=C(c2cn(-c3ccc(F)cc3)c3ccccc23)CC1 (nonaromatic ring conformer: 110.97034308512694 kcal/mol)

>  <smiles>  (41) 
CCNCCN1CC=C(c2cn(-c3ccc(F)cc3)c3ccccc23)CC1

>  <score_type>  (41) 
oracle

>  <origin>  (41) 
adg

>  <m_score__min__energy>  (41) 
-7.1399999999999997

>  <m_primary>  (41) 
energy

$$$$
41:0
     RDKit          3D

 62 64  0  0  0  0  0  0  0  0999 V2000
   57.7990   31.7440   43.1200 C   0  0  0  0  0  0  0  0  0  0  0  0
   57.0040   31.8250   44.4120 C   0  0  0  0  0  0  0  0  0  0  0  0
   56.7410   30.5200   44.8840 O   0  0  0  0  0  0  0  0  0  0  0  0
   56.3790   29.6950   43.7960 C   0  0  0  0  0  0  0  0  0  0  0  0
   57.4230   28.5870   43.5890 C   0  0  0  0  0  0  0  0  0  0  0  0
   58.3100   28.3960   44.7730 N   0  0  0  0  0  0  0  0  0  0  0  0
   57.8040   27.3600   45.7140 C   0  0  0  0  0  0  0  0  0  0  0  0
   58.2190   27.5530   47.1790 C   0  0  0  0  0  0  0  0  0  0  0  0
   58.2970   28.9380   47.4490 O   0  0  0  0  0  0  0  0  0  0  0  0
   58.9040   29.1720   48.7060 C   0  0  0  0  0  0  0  0  0  0  0  0
   60.1530   28.3120   48.8520 C   0  0  0  0  0  0  0  0  0  0  0  0
   59.7680   28.2690   44.4800 C   0  0  0  0  0  0  0  0  0  0  0  0
   60.7120   29.2140   45.2600 C   0  0  0  0  0  0  0  0  0  0  0  0
   59.9750   30.2970   45.7890 O   0  0  0  0  0  0  0  0  0  0  0  0
   60.7350   31.0000   46.7570 C   0  0  0  0  0  0  0  0  0  0  0  0
   60.1490   32.4050   46.9710 C   0  0  1  0  0  0  0  0  0  0  0  0
   59.5820   33.0200   45.6760 C   0  0  0  0  0  0  0  0  0  0  0  0
   58.5780   34.0190   46.2400 C   0  0  2  0  0  0  0  0  0  0  0  0
   59.3480   35.1140   47.0740 C   0  0  0  0  0  0  0  0  0  0  0  0
   60.2490   34.4380   48.1770 C   0  0  1  0  0  0  0  0  0  0  0  0
   59.3890   33.5090   49.0290 C   0  0  0  0  0  0  0  0  0  0  0  0
   58.9520   32.4680   47.9880 C   0  0  1  0  0  0  0  0  0  0  0  0
   57.8050   33.1140   47.1950 C   0  0  0  0  0  0  0  0  0  0  0  0
   61.1730   33.4240   47.5150 C   0  0  0  0  0  0  0  0  0  0  0  0
   58.8684   31.6350   43.3537 H   0  0  0  0  0  0  0  0  0  0  0  0
   57.4611   30.8756   42.5354 H   0  0  0  0  0  0  0  0  0  0  0  0
   57.6432   32.6627   42.5354 H   0  0  0  0  0  0  0  0  0  0  0  0
   57.5840   32.3778   45.1657 H   0  0  0  0  0  0  0  0  0  0  0  0
   56.0537   32.3469   44.2264 H   0  0  0  0  0  0  0  0  0  0  0  0
   55.4002   29.2363   43.9997 H   0  0  0  0  0  0  0  0  0  0  0  0
   56.3280   30.3099   42.8853 H   0  0  0  0  0  0  0  0  0  0  0  0
   56.8968   27.6420   43.3887 H   0  0  0  0  0  0  0  0  0  0  0  0
   58.0604   28.8879   42.7445 H   0  0  0  0  0  0  0  0  0  0  0  0
   58.2350   29.2770   45.3390 H   0  0  0  0  0  0  0  0  0  0  0  0
   56.7050   27.3651   45.6676 H   0  0  0  0  0  0  0  0  0  0  0  0
   58.2516   26.4083   45.3916 H   0  0  0  0  0  0  0  0  0  0  0  0
   57.4721   27.0886   47.8396 H   0  0  0  0  0  0  0  0  0  0  0  0
   59.1964   27.0808   47.3571 H   0  0  0  0  0  0  0  0  0  0  0  0
   59.1819   30.2335   48.7839 H   0  0  0  0  0  0  0  0  0  0  0  0
   58.1924   28.9121   49.5036 H   0  0  0  0  0  0  0  0  0  0  0  0
   60.3717   28.1614   49.9195 H   0  0  0  0  0  0  0  0  0  0  0  0
   59.9852   27.3371   48.3710 H   0  0  0  0  0  0  0  0  0  0  0  0
   61.0039   28.8166   48.3710 H   0  0  0  0  0  0  0  0  0  0  0  0
   60.0663   27.2351   44.7083 H   0  0  0  0  0  0  0  0  0  0  0  0
   59.8790   28.5528   43.4231 H   0  0  0  0  0  0  0  0  0  0  0  0
   61.1865   28.6588   46.0825 H   0  0  0  0  0  0  0  0  0  0  0  0
   61.4848   29.5991   44.5784 H   0  0  0  0  0  0  0  0  0  0  0  0
   60.7126   30.4478   47.7081 H   0  0  0  0  0  0  0  0  0  0  0  0
   61.7720   31.0929   46.4021 H   0  0  0  0  0  0  0  0  0  0  0  0
   60.3663   33.5228   45.0911 H   0  0  0  0  0  0  0  0  0  0  0  0
   59.1484   32.2873   44.9795 H   0  0  0  0  0  0  0  0  0  0  0  0
   57.9679   34.5470   45.4923 H   0  0  0  0  0  0  0  0  0  0  0  0
   59.9850   35.7024   46.3973 H   0  0  0  0  0  0  0  0  0  0  0  0
   58.6127   35.7668   47.5672 H   0  0  0  0  0  0  0  0  0  0  0  0
   60.7538   35.2458   48.7271 H   0  0  0  0  0  0  0  0  0  0  0  0
   59.9738   33.0483   49.8388 H   0  0  0  0  0  0  0  0  0  0  0  0
   58.5558   34.0105   49.5430 H   0  0  0  0  0  0  0  0  0  0  0  0
   58.6778   31.4996   48.4319 H   0  0  0  0  0  0  0  0  0  0  0  0
   57.2176   32.3606   46.6497 H   0  0  0  0  0  0  0  0  0  0  0  0
   57.0663   33.6403   47.8173 H   0  0  0  0  0  0  0  0  0  0  0  0
   61.7589   33.8805   46.7037 H   0  0  0  0  0  0  0  0  0  0  0  0
   61.9293   32.9926   48.1872 H   0  0  0  0  0  0  0  0  0  0  0  0
  1  2  1  0
  2  3  1  0
  3  4  1  0
  4  5  1  0
  5  6  1  0
  6  7  1  0
  7  8  1  0
  8  9  1  0
  9 10  1  0
 10 11  1  0
  6 12  1  0
 12 13  1  0
 13 14  1  0
 14 15  1  0
 16 15  1  6
 16 17  1  0
 17 18  1  0
 18 19  1  0
 19 20  1  0
 20 21  1  0
 21 22  1  0
 22 23  1  0
 20 24  1  0
 22 16  1  0
 24 16  1  0
 23 18  1  0
  1 25  1  0
  1 26  1  0
  1 27  1  0
  2 28  1  0
  2 29  1  0
  4 30  1  0
  4 31  1  0
  5 32  1  0
  5 33  1  0
  6 34  1  0
  7 35  1  0
  7 36  1  0
  8 37  1  0
  8 38  1  0
 10 39  1  0
 10 40  1  0
 11 41  1  0
 11 42  1  0
 11 43  1  0
 12 44  1  0
 12 45  1  0
 13 46  1  0
 13 47  1  0
 15 48  1  0
 15 49  1  0
 17 50  1  0
 17 51  1  0
 18 52  1  6
 19 53  1  0
 19 54  1  0
 20 55  1  1
 21 56  1  0
 21 57  1  0
 22 58  1  1
 23 59  1  0
 23 60  1  0
 24 61  1  0
 24 62  1  0
M  CHG  1   6   1
M  END
>  <UniqueID>  (42) 
42

>  <SMILES>  (42) 
CCOCC[NH+](CCOCC)CCOCC12C[C@@H]3CC1C[C@@H](C3)C2

>  <Energy>  (42) 
96.48656402611229

>  <Genealogy>  (42) 
CCOCC[NH+](CCOCC)CCOCC12CC3CC(CC1C3)C2 (protonated)
CCOCC[NH+](CCOCC)CCOCC12C[C@@H]3CC1C[C@@H](C3)C2 (chirality)
CCOCC[NH+](CCOCC)CCOCC12C[C@@H]3CC1C[C@@H](C3)C2 (3D coordinates assigned)
CCOCC[NH+](CCOCC)CCOCC12C[C@@H]3CC1C[C@@H](C3)C2 (nonaromatic ring conformer: 96.48656402611229 kcal/mol)

>  <smiles>  (42) 
CCOCCN(CCOCC)CCOCC12CC3CC(CC1C3)C2

>  <score_type>  (42) 
oracle

>  <origin>  (42) 
adg

>  <m_score__min__energy>  (42) 
-4.9100000000000001

>  <m_primary>  (42) 
energy

$$$$
42:0
     RDKit          3D

 28 30  0  0  0  0  0  0  0  0999 V2000
   55.1460   29.3400   44.8810 O   0  0  0  0  0  0  0  0  0  0  0  0
   56.2510   29.4230   44.3040 N   0  0  0  0  0  0  0  0  0  0  0  0
   56.2930   29.3200   42.9320 O   0  0  0  0  0  0  0  0  0  0  0  0
   57.4670   29.3500   45.0640 C   0  0  0  0  0  0  0  0  0  0  0  0
   58.3020   30.4800   45.1240 C   0  0  0  0  0  0  0  0  0  0  0  0
   59.4400   30.4820   45.9300 C   0  0  0  0  0  0  0  0  0  0  0  0
   59.7590   29.3580   46.6890 C   0  0  0  0  0  0  0  0  0  0  0  0
   58.9540   28.2190   46.6280 C   0  0  0  0  0  0  0  0  0  0  0  0
   57.8140   28.1900   45.8040 C   0  0  0  0  0  0  0  0  0  0  0  0
   57.0620   26.9200   45.6980 C   0  0  0  0  0  0  0  0  0  0  0  0
   55.8320   26.7060   46.2060 N   0  0  0  0  0  0  0  0  0  0  0  0
   55.4970   25.4690   45.8740 N   0  0  0  0  0  0  0  0  0  0  0  0
   56.5320   24.9740   45.1660 C   0  0  0  0  0  0  0  0  0  0  0  0
   56.5810   23.6150   44.5940 C   0  0  0  0  0  0  0  0  0  0  0  0
   57.0360   22.5350   45.3630 C   0  0  0  0  0  0  0  0  0  0  0  0
   57.0790   21.2530   44.8130 C   0  0  0  0  0  0  0  0  0  0  0  0
   56.6640   21.0600   43.4950 C   0  0  0  0  0  0  0  0  0  0  0  0
   56.2240   22.1150   42.7580 N   0  0  0  0  0  0  0  0  0  0  0  0
   56.1730   23.3740   43.2710 C   0  0  0  0  0  0  0  0  0  0  0  0
   57.4920   25.8610   45.0530 O   0  0  0  0  0  0  0  0  0  0  0  0
   58.0549   31.3716   44.5290 H   0  0  0  0  0  0  0  0  0  0  0  0
   60.0862   31.3715   45.9666 H   0  0  0  0  0  0  0  0  0  0  0  0
   60.6472   29.3681   47.3378 H   0  0  0  0  0  0  0  0  0  0  0  0
   59.2135   27.3357   47.2300 H   0  0  0  0  0  0  0  0  0  0  0  0
   57.3597   22.6981   46.4016 H   0  0  0  0  0  0  0  0  0  0  0  0
   57.4366   20.4031   45.4128 H   0  0  0  0  0  0  0  0  0  0  0  0
   56.6927   20.0537   43.0516 H   0  0  0  0  0  0  0  0  0  0  0  0
   55.8114   24.2057   42.6485 H   0  0  0  0  0  0  0  0  0  0  0  0
  1  2  2  0
  2  3  1  0
  2  4  1  0
  4  5  2  0
  5  6  1  0
  6  7  2  0
  7  8  1  0
  8  9  2  0
  9 10  1  0
 10 11  2  0
 11 12  1  0
 12 13  2  0
 13 14  1  0
 14 15  2  0
 15 16  1  0
 16 17  2  0
 17 18  1  0
 18 19  2  0
 13 20  1  0
  9  4  1  0
 20 10  1  0
 19 14  1  0
  5 21  1  0
  6 22  1  0
  7 23  1  0
  8 24  1  0
 15 25  1  0
 16 26  1  0
 17 27  1  0
 19 28  1  0
M  CHG  2   2   1   3  -1
M  END
>  <UniqueID>  (43) 
43

>  <SMILES>  (43) 
O=[N+]([O-])c1ccccc1-c1nnc(-c2cccnc2)o1

>  <Energy>  (43) 
74.75263599308825

>  <Genealogy>  (43) 
O=[N+]([O-])c1ccccc1-c1nnc(-c2cccnc2)o1 (3D coordinates assigned)
O=[N+]([O-])c1ccccc1-c1nnc(-c2cccnc2)o1 (optimized conformer: 74.75263599308825 kcal/mol)

>  <smiles>  (43) 
O=[N+]([O-])c1ccccc1-c1nnc(-c2cccnc2)o1

>  <score_type>  (43) 
oracle

>  <origin>  (43) 
adg

>  <m_score__min__energy>  (43) 
-7.79

>  <m_primary>  (43) 
energy

$$$$
