0:0
     RDKit          3D

 33 34  0  0  0  0  0  0  0  0999 V2000
   55.7250   25.5140   45.9780 C   0  0  0  0  0  0  0  0  0  0  0  0
   55.9810   26.9100   45.6370 N   0  0  0  0  0  0  0  0  0  0  0  0
   57.3060   27.4740   45.5630 C   0  0  0  0  0  0  0  0  0  0  0  0
   58.4260   26.6880   45.9030 C   0  0  0  0  0  0  0  0  0  0  0  0
   59.7210   27.1840   45.7450 C   0  0  0  0  0  0  0  0  0  0  0  0
   59.9220   28.4670   45.2430 C   0  0  0  0  0  0  0  0  0  0  0  0
   58.8290   29.2670   44.9130 C   0  0  0  0  0  0  0  0  0  0  0  0
   57.5140   28.7950   45.0820 C   0  0  0  0  0  0  0  0  0  0  0  0
   56.3960   29.7230   44.7990 C   0  0  0  0  0  0  0  0  0  0  0  0
   55.2050   29.3620   44.9990 O   0  0  0  0  0  0  0  0  0  0  0  0
   56.6780   31.0350   44.2910 N   0  0  0  0  0  0  0  0  0  0  0  0
   57.3940   32.0790   44.9680 C   0  0  0  0  0  0  0  0  0  0  0  0
   57.7460   33.2270   44.2480 C   0  0  0  0  0  0  0  0  0  0  0  0
   58.4610   34.2580   44.8640 C   0  0  0  0  0  0  0  0  0  0  0  0
   58.8390   34.1530   46.2100 C   0  0  0  0  0  0  0  0  0  0  0  0
   59.6340   35.2480   46.8620 C   0  0  0  0  0  0  0  0  0  0  0  0
   58.5240   32.9850   46.9240 C   0  0  0  0  0  0  0  0  0  0  0  0
   58.9210   32.8380   48.2140 F   0  0  0  0  0  0  0  0  0  0  0  0
   57.8080   31.9540   46.3060 C   0  0  0  0  0  0  0  0  0  0  0  0
   55.7044   25.4016   47.0721 H   0  0  0  0  0  0  0  0  0  0  0  0
   54.7554   25.2062   45.5595 H   0  0  0  0  0  0  0  0  0  0  0  0
   56.5223   24.8822   45.5595 H   0  0  0  0  0  0  0  0  0  0  0  0
   55.1490   27.5110   45.4440 H   0  0  0  0  0  0  0  0  0  0  0  0
   58.2775   25.6719   46.2974 H   0  0  0  0  0  0  0  0  0  0  0  0
   60.5848   26.5599   46.0177 H   0  0  0  0  0  0  0  0  0  0  0  0
   60.9442   28.8498   45.1066 H   0  0  0  0  0  0  0  0  0  0  0  0
   58.9964   30.2791   44.5158 H   0  0  0  0  0  0  0  0  0  0  0  0
   57.4579   33.3182   43.1903 H   0  0  0  0  0  0  0  0  0  0  0  0
   58.7287   35.1570   44.2894 H   0  0  0  0  0  0  0  0  0  0  0  0
   59.5636   35.1510   47.9555 H   0  0  0  0  0  0  0  0  0  0  0  0
   60.6871   35.1698   46.5540 H   0  0  0  0  0  0  0  0  0  0  0  0
   59.2335   36.2251   46.5540 H   0  0  0  0  0  0  0  0  0  0  0  0
   57.5676   31.0406   46.8699 H   0  0  0  0  0  0  0  0  0  0  0  0
  1  2  1  0
  2  3  1  0
  3  4  2  0
  4  5  1  0
  5  6  2  0
  6  7  1  0
  7  8  2  0
  8  9  1  0
  9 10  2  0
  9 11  1  0
 11 12  1  0
 12 13  2  0
 13 14  1  0
 14 15  2  0
 15 16  1  0
 15 17  1  0
 17 18  1  0
 17 19  2  0
  8  3  1  0
 19 12  1  0
  1 20  1  0
  1 21  1  0
  1 22  1  0
  2 23  1  0
  4 24  1  0
  5 25  1  0
  6 26  1  0
  7 27  1  0
 13 28  1  0
 14 29  1  0
 16 30  1  0
 16 31  1  0
 16 32  1  0
 19 33  1  0
M  CHG  1  11  -1
M  END
>  <UniqueID>  (1) 
1

>  <SMILES>  (1) 
CNc1ccccc1C(=O)[N-]c1ccc(C)c(F)c1

>  <Energy>  (1) 
41.798290074452595

>  <Genealogy>  (1) 
CNc1ccccc1C(=O)[N-]c1ccc(C)c(F)c1 (protonated)
CNc1ccccc1C(=O)[N-]c1ccc(C)c(F)c1 (3D coordinates assigned)
CNc1ccccc1C(=O)[N-]c1ccc(C)c(F)c1 (optimized conformer: 41.798290074452595 kcal/mol)

>  <smiles>  (1) 
CNc1ccccc1C(=O)Nc1ccc(C)c(F)c1

>  <score_type>  (1) 
oracle

>  <origin>  (1) 
adg

>  <m_score__min__energy>  (1) 
-9.2799999999999994

>  <m_primary>  (1) 
energy

$$$$
1:0
     RDKit          3D

 42 43  0  0  0  0  0  0  0  0999 V2000
   57.0310   30.9800   42.4800 C   0  0  0  0  0  0  0  0  0  0  0  0
   56.4130   29.7750   43.1860 C   0  0  0  0  0  0  0  0  0  0  0  0
   57.4050   28.7030   43.3570 N   0  0  0  0  0  0  0  0  0  0  0  0
   58.0810   28.8560   44.6210 C   0  0  0  0  0  0  0  0  0  0  0  0
   58.3550   30.1370   45.1280 C   0  0  0  0  0  0  0  0  0  0  0  0
   58.9950   30.2930   46.3650 C   0  0  0  0  0  0  0  0  0  0  0  0
   59.2900   31.6070   46.8690 N   0  0  0  0  0  0  0  0  0  0  0  0
   60.6720   31.8990   47.3000 C   0  0  0  0  0  0  0  0  0  0  0  0
   61.2040   33.2510   46.7940 C   0  0  0  0  0  0  0  0  0  0  0  0
   60.6100   34.4670   47.5280 C   0  0  0  0  0  0  0  0  0  0  0  0
   59.2520   34.9580   46.9950 C   0  0  0  0  0  0  0  0  0  0  0  0
   58.4650   33.8940   46.2290 C   0  0  0  0  0  0  0  0  0  0  0  0
   58.1970   32.5870   47.0060 C   0  0  0  0  0  0  0  0  0  0  0  0
   59.3480   29.1570   47.1090 C   0  0  0  0  0  0  0  0  0  0  0  0
   59.0450   27.8690   46.6370 C   0  0  0  0  0  0  0  0  0  0  0  0
   59.4650   26.6520   47.4230 C   0  0  0  0  0  0  0  0  0  0  0  0
   60.3960   25.9110   46.7150 F   0  0  0  0  0  0  0  0  0  0  0  0
   58.3770   25.8380   47.6850 F   0  0  0  0  0  0  0  0  0  0  0  0
   60.0250   27.0550   48.6200 F   0  0  0  0  0  0  0  0  0  0  0  0
   58.4290   27.7280   45.3820 C   0  0  0  0  0  0  0  0  0  0  0  0
   57.3982   31.6959   43.2301 H   0  0  0  0  0  0  0  0  0  0  0  0
   57.8692   30.6461   41.8507 H   0  0  0  0  0  0  0  0  0  0  0  0
   56.2708   31.4659   41.8507 H   0  0  0  0  0  0  0  0  0  0  0  0
   56.0448   30.0863   44.1747 H   0  0  0  0  0  0  0  0  0  0  0  0
   55.5847   29.3933   42.5710 H   0  0  0  0  0  0  0  0  0  0  0  0
   58.1030   28.7400   42.5770 H   0  0  0  0  0  0  0  0  0  0  0  0
   56.9300   27.7710   43.3210 H   0  0  0  0  0  0  0  0  0  0  0  0
   58.0646   31.0259   44.5488 H   0  0  0  0  0  0  0  0  0  0  0  0
   60.6992   31.9045   48.3996 H   0  0  0  0  0  0  0  0  0  0  0  0
   61.3155   31.1181   46.8686 H   0  0  0  0  0  0  0  0  0  0  0  0
   62.2959   33.2655   46.9264 H   0  0  0  0  0  0  0  0  0  0  0  0
   60.9065   33.3374   45.7385 H   0  0  0  0  0  0  0  0  0  0  0  0
   60.4818   34.1959   48.5863 H   0  0  0  0  0  0  0  0  0  0  0  0
   61.3169   35.2943   47.3676 H   0  0  0  0  0  0  0  0  0  0  0  0
   58.6442   35.2899   47.8496 H   0  0  0  0  0  0  0  0  0  0  0  0
   59.4631   35.7714   46.2852 H   0  0  0  0  0  0  0  0  0  0  0  0
   57.4941   34.3268   45.9463 H   0  0  0  0  0  0  0  0  0  0  0  0
   59.0893   33.6141   45.3677 H   0  0  0  0  0  0  0  0  0  0  0  0
   58.0746   32.8304   48.0717 H   0  0  0  0  0  0  0  0  0  0  0  0
   57.2887   32.1314   46.5848 H   0  0  0  0  0  0  0  0  0  0  0  0
   59.8672   29.2761   48.0714 H   0  0  0  0  0  0  0  0  0  0  0  0
   58.2168   26.7221   44.9908 H   0  0  0  0  0  0  0  0  0  0  0  0
  1  2  1  0
  2  3  1  0
  3  4  1  0
  4  5  2  0
  5  6  1  0
  6  7  1  0
  7  8  1  0
  8  9  1  0
  9 10  1  0
 10 11  1  0
 11 12  1  0
 12 13  1  0
  6 14  2  0
 14 15  1  0
 15 16  1  0
 16 17  1  0
 16 18  1  0
 16 19  1  0
 15 20  2  0
 20  4  1  0
 13  7  1  0
  1 21  1  0
  1 22  1  0
  1 23  1  0
  2 24  1  0
  2 25  1  0
  3 26  1  0
  3 27  1  0
  5 28  1  0
  8 29  1  0
  8 30  1  0
  9 31  1  0
  9 32  1  0
 10 33  1  0
 10 34  1  0
 11 35  1  0
 11 36  1  0
 12 37  1  0
 12 38  1  0
 13 39  1  0
 13 40  1  0
 14 41  1  0
 20 42  1  0
M  CHG  1   3   1
M  END
>  <UniqueID>  (2) 
2

>  <SMILES>  (2) 
CC[NH2+]c1cc(N2CCCCCC2)cc(C(F)(F)F)c1

>  <Energy>  (2) 
47.74843918296285

>  <Genealogy>  (2) 
CC[NH2+]c1cc(N2CCCCCC2)cc(C(F)(F)F)c1 (protonated)
CC[NH2+]c1cc(N2CCCCCC2)cc(C(F)(F)F)c1 (3D coordinates assigned)
CC[NH2+]c1cc(N2CCCCCC2)cc(C(F)(F)F)c1 (nonaromatic ring conformer: 47.74843918296285 kcal/mol)

>  <smiles>  (2) 
CCNc1cc(N2CCCCCC2)cc(C(F)(F)F)c1

>  <score_type>  (2) 
oracle

>  <origin>  (2) 
adg

>  <m_score__min__energy>  (2) 
-3.0499999999999998

>  <m_primary>  (2) 
energy

$$$$
2:0
     RDKit          3D

 38 40  0  0  0  0  0  0  0  0999 V2000
   59.2930   35.2930   45.2530 C   0  0  0  0  0  0  0  0  0  0  0  0
   59.6970   35.4650   46.7150 C   0  0  0  0  0  0  0  0  0  0  0  0
   59.1620   34.3720   47.5390 N   0  0  0  0  0  0  0  0  0  0  0  0
   59.0940   33.1520   46.7650 C   0  0  0  0  0  0  0  0  0  0  0  0
   57.8870   32.7970   46.1370 C   0  0  0  0  0  0  0  0  0  0  0  0
   57.7750   31.5840   45.4570 C   0  0  0  0  0  0  0  0  0  0  0  0
   56.6110   31.2370   44.8440 N   0  0  0  0  0  0  0  0  0  0  0  0
   56.4790   30.0550   44.1790 C   0  0  0  0  0  0  0  0  0  0  0  0
   55.1790   29.7120   43.5240 C   0  0  0  0  0  0  0  0  0  0  0  0
   57.5580   29.1610   44.1230 C   0  0  0  0  0  0  0  0  0  0  0  0
   58.7630   29.4960   44.7470 C   0  0  0  0  0  0  0  0  0  0  0  0
   58.8770   30.7140   45.4200 C   0  0  0  0  0  0  0  0  0  0  0  0
   60.0360   31.0590   46.0370 N   0  0  0  0  0  0  0  0  0  0  0  0
   60.1830   32.2410   46.6980 C   0  0  0  0  0  0  0  0  0  0  0  0
   61.4780   32.5150   47.3440 C   0  0  0  0  0  0  0  0  0  0  0  0
   62.3390   33.4970   46.8310 C   0  0  0  0  0  0  0  0  0  0  0  0
   63.5770   33.7330   47.4380 C   0  0  0  0  0  0  0  0  0  0  0  0
   63.9670   32.9790   48.5500 C   0  0  0  0  0  0  0  0  0  0  0  0
   63.1210   31.9860   49.0520 C   0  0  0  0  0  0  0  0  0  0  0  0
   63.5030   31.2510   50.1250 F   0  0  0  0  0  0  0  0  0  0  0  0
   61.8830   31.7470   48.4480 C   0  0  0  0  0  0  0  0  0  0  0  0
   58.2821   34.8626   45.2001 H   0  0  0  0  0  0  0  0  0  0  0  0
   59.3011   36.2726   44.7527 H   0  0  0  0  0  0  0  0  0  0  0  0
   60.0047   34.6199   44.7527 H   0  0  0  0  0  0  0  0  0  0  0  0
   60.7946   35.4667   46.7875 H   0  0  0  0  0  0  0  0  0  0  0  0
   59.2861   36.4165   47.0835 H   0  0  0  0  0  0  0  0  0  0  0  0
   59.7850   34.2270   48.3690 H   0  0  0  0  0  0  0  0  0  0  0  0
   58.2200   34.6290   47.9060 H   0  0  0  0  0  0  0  0  0  0  0  0
   57.0258   33.4799   46.1822 H   0  0  0  0  0  0  0  0  0  0  0  0
   54.4211   29.5120   44.2957 H   0  0  0  0  0  0  0  0  0  0  0  0
   54.8507   30.5543   42.8972 H   0  0  0  0  0  0  0  0  0  0  0  0
   55.3090   28.8174   42.8972 H   0  0  0  0  0  0  0  0  0  0  0  0
   57.4568   28.2031   43.5919 H   0  0  0  0  0  0  0  0  0  0  0  0
   59.6170   28.8037   44.7081 H   0  0  0  0  0  0  0  0  0  0  0  0
   62.0397   34.0827   45.9493 H   0  0  0  0  0  0  0  0  0  0  0  0
   64.2443   34.5120   47.0407 H   0  0  0  0  0  0  0  0  0  0  0  0
   64.9391   33.1675   49.0291 H   0  0  0  0  0  0  0  0  0  0  0  0
   61.2252   30.9563   48.8380 H   0  0  0  0  0  0  0  0  0  0  0  0
  1  2  1  0
  2  3  1  0
  3  4  1  0
  4  5  2  0
  5  6  1  0
  6  7  2  0
  7  8  1  0
  8  9  1  0
  8 10  2  0
 10 11  1  0
 11 12  2  0
 12 13  1  0
 13 14  2  0
 14 15  1  0
 15 16  2  0
 16 17  1  0
 17 18  2  0
 18 19  1  0
 19 20  1  0
 19 21  2  0
 14  4  1  0
 21 15  1  0
 12  6  1  0
  1 22  1  0
  1 23  1  0
  1 24  1  0
  2 25  1  0
  2 26  1  0
  3 27  1  0
  3 28  1  0
  5 29  1  0
  9 30  1  0
  9 31  1  0
  9 32  1  0
 10 33  1  0
 11 34  1  0
 16 35  1  0
 17 36  1  0
 18 37  1  0
 21 38  1  0
M  CHG  1   3   1
M  END
>  <UniqueID>  (3) 
3

>  <SMILES>  (3) 
CC[NH2+]c1cc2nc(C)ccc2nc1-c1cccc(F)c1

>  <Energy>  (3) 
47.956844467483826

>  <Genealogy>  (3) 
CC[NH2+]c1cc2nc(C)ccc2nc1-c1cccc(F)c1 (protonated)
CC[NH2+]c1cc2nc(C)ccc2nc1-c1cccc(F)c1 (3D coordinates assigned)
CC[NH2+]c1cc2nc(C)ccc2nc1-c1cccc(F)c1 (optimized conformer: 47.956844467483826 kcal/mol)

>  <smiles>  (3) 
CCNc1cc2nc(C)ccc2nc1-c1cccc(F)c1

>  <score_type>  (3) 
oracle

>  <origin>  (3) 
adg

>  <m_score__min__energy>  (3) 
-5.6500000000000004

>  <m_primary>  (3) 
energy

$$$$
3:0
     RDKit          3D

 43 43  0  0  0  0  0  0  0  0999 V2000
   59.6340   27.6980   47.8600 C   0  0  0  0  0  0  0  0  0  0  0  0
   59.0200   29.0730   47.6360 C   0  0  0  0  0  0  0  0  0  0  0  0
   60.0230   29.9640   47.0060 N   0  0  0  0  0  0  0  0  0  0  0  0
   61.1330   30.3370   47.9090 C   0  0  0  0  0  0  0  0  0  0  0  0
   62.1270   31.2520   47.1990 C   0  0  0  0  0  0  0  0  0  0  0  0
   60.4960   29.4600   45.6960 C   0  0  0  0  0  0  0  0  0  0  0  0
   59.3640   29.2500   44.6700 C   0  0  0  0  0  0  0  0  0  0  0  0
   58.9130   27.9100   44.7170 O   0  0  0  0  0  0  0  0  0  0  0  0
   57.5140   27.8500   44.5210 C   0  0  0  0  0  0  0  0  0  0  0  0
   57.0250   29.1820   43.9660 C   0  0  0  0  0  0  0  0  0  0  0  0
   56.5450   29.9790   45.0200 O   0  0  0  0  0  0  0  0  0  0  0  0
   56.3240   31.2130   44.4960 N   0  0  0  0  0  0  0  0  0  0  0  0
   57.3940   32.1380   44.2880 C   0  0  0  0  0  0  0  0  0  0  0  0
   57.6530   32.5290   43.1180 O   0  0  0  0  0  0  0  0  0  0  0  0
   58.1920   32.6330   45.4340 C   0  0  0  0  0  0  0  0  0  0  0  0
   57.8660   32.2560   46.7510 C   0  0  0  0  0  0  0  0  0  0  0  0
   58.6210   32.7260   47.8300 C   0  0  0  0  0  0  0  0  0  0  0  0
   59.7070   33.5750   47.6100 C   0  0  0  0  0  0  0  0  0  0  0  0
   60.7360   34.2160   49.0860 Br  0  0  0  0  0  0  0  0  0  0  0  0
   60.0400   33.9570   46.3070 C   0  0  0  0  0  0  0  0  0  0  0  0
   59.2890   33.4900   45.2250 C   0  0  0  0  0  0  0  0  0  0  0  0
   59.7197   27.5062   48.9398 H   0  0  0  0  0  0  0  0  0  0  0  0
   58.9929   26.9310   47.4010 H   0  0  0  0  0  0  0  0  0  0  0  0
   60.6331   27.6634   47.4010 H   0  0  0  0  0  0  0  0  0  0  0  0
   58.1450   28.9809   46.9758 H   0  0  0  0  0  0  0  0  0  0  0  0
   58.7071   29.4971   48.6015 H   0  0  0  0  0  0  0  0  0  0  0  0
   60.7240   30.8605   48.7857 H   0  0  0  0  0  0  0  0  0  0  0  0
   61.6573   29.4211   48.2193 H   0  0  0  0  0  0  0  0  0  0  0  0
   62.7208   31.7986   47.9465 H   0  0  0  0  0  0  0  0  0  0  0  0
   62.7966   30.6477   46.5694 H   0  0  0  0  0  0  0  0  0  0  0  0
   61.5800   31.9693   46.5694 H   0  0  0  0  0  0  0  0  0  0  0  0
   61.2107   30.1862   45.2815 H   0  0  0  0  0  0  0  0  0  0  0  0
   60.9552   28.4767   45.8754 H   0  0  0  0  0  0  0  0  0  0  0  0
   58.5279   29.9246   44.9064 H   0  0  0  0  0  0  0  0  0  0  0  0
   59.7448   29.4684   43.6614 H   0  0  0  0  0  0  0  0  0  0  0  0
   57.2770   27.0460   43.8086 H   0  0  0  0  0  0  0  0  0  0  0  0
   57.0162   27.6459   45.4804 H   0  0  0  0  0  0  0  0  0  0  0  0
   57.8570   29.6984   43.4649 H   0  0  0  0  0  0  0  0  0  0  0  0
   56.2161   29.0038   43.2422 H   0  0  0  0  0  0  0  0  0  0  0  0
   57.0116   31.5872   46.9322 H   0  0  0  0  0  0  0  0  0  0  0  0
   58.3584   32.4259   48.8552 H   0  0  0  0  0  0  0  0  0  0  0  0
   60.8951   34.6267   46.1331 H   0  0  0  0  0  0  0  0  0  0  0  0
   59.5570   33.7943   44.2025 H   0  0  0  0  0  0  0  0  0  0  0  0
  1  2  1  0
  2  3  1  0
  3  4  1  0
  4  5  1  0
  3  6  1  0
  6  7  1  0
  7  8  1  0
  8  9  1  0
  9 10  1  0
 10 11  1  0
 11 12  1  0
 12 13  1  0
 13 14  2  0
 13 15  1  0
 15 16  2  0
 16 17  1  0
 17 18  2  0
 18 19  1  0
 18 20  1  0
 20 21  2  0
 21 15  1  0
  1 22  1  0
  1 23  1  0
  1 24  1  0
  2 25  1  0
  2 26  1  0
  4 27  1  0
  4 28  1  0
  5 29  1  0
  5 30  1  0
  5 31  1  0
  6 32  1  0
  6 33  1  0
  7 34  1  0
  7 35  1  0
  9 36  1  0
  9 37  1  0
 10 38  1  0
 10 39  1  0
 16 40  1  0
 17 41  1  0
 20 42  1  0
 21 43  1  0
M  CHG  1  12  -1
M  END
>  <UniqueID>  (4) 
4

>  <SMILES>  (4) 
CCN(CC)CCOCCO[N-]C(=O)c1ccc(Br)cc1

>  <Energy>  (4) 
38.93759160399204

>  <Genealogy>  (4) 
CCN(CC)CCOCCO[N-]C(=O)c1ccc(Br)cc1 (protonated)
CCN(CC)CCOCCO[N-]C(=O)c1ccc(Br)cc1 (3D coordinates assigned)
CCN(CC)CCOCCO[N-]C(=O)c1ccc(Br)cc1 (optimized conformer: 38.93759160399204 kcal/mol)

>  <smiles>  (4) 
CCN(CC)CCOCCONC(=O)c1ccc(Br)cc1

>  <score_type>  (4) 
oracle

>  <origin>  (4) 
adg

>  <m_score__min__energy>  (4) 
-8.8699999999999992

>  <m_primary>  (4) 
energy

$$$$
4:0
     RDKit          3D

 29 29  0  0  0  0  0  0  0  0999 V2000
   56.2710   29.7360   42.6430 C   0  0  0  0  0  0  0  0  0  0  0  0
   55.7470   29.9690   44.0540 C   0  0  0  0  0  0  0  0  0  0  0  0
   56.7900   30.6490   44.8680 N   0  0  0  0  0  0  0  0  0  0  0  0
   57.7610   29.6870   45.4320 C   0  0  0  0  0  0  0  0  0  0  0  0
   58.9830   29.5520   44.5240 C   0  0  0  0  0  0  0  0  0  0  0  0
   57.4890   31.7000   44.0930 C   0  0  0  0  0  0  0  0  0  0  0  0
   58.0160   32.7740   45.0080 C   0  0  0  0  0  0  0  0  0  0  0  0
   57.7730   32.7230   46.3900 C   0  0  0  0  0  0  0  0  0  0  0  0
   58.2880   33.7140   47.2330 C   0  0  0  0  0  0  0  0  0  0  0  0
   59.0490   34.7590   46.7020 C   0  0  0  0  0  0  0  0  0  0  0  0
   59.2950   34.8160   45.3270 C   0  0  0  0  0  0  0  0  0  0  0  0
   58.7830   33.8290   44.4820 C   0  0  0  0  0  0  0  0  0  0  0  0
   57.2750   29.2895   42.6938 H   0  0  0  0  0  0  0  0  0  0  0  0
   55.5933   29.0544   42.1081 H   0  0  0  0  0  0  0  0  0  0  0  0
   56.3231   30.6958   42.1081 H   0  0  0  0  0  0  0  0  0  0  0  0
   54.8472   30.6002   44.0107 H   0  0  0  0  0  0  0  0  0  0  0  0
   55.4968   29.0021   44.5150 H   0  0  0  0  0  0  0  0  0  0  0  0
   58.0849   30.0404   46.4220 H   0  0  0  0  0  0  0  0  0  0  0  0
   57.2745   28.7040   45.5160 H   0  0  0  0  0  0  0  0  0  0  0  0
   59.8886   29.4520   45.1404 H   0  0  0  0  0  0  0  0  0  0  0  0
   58.8713   28.6607   43.8890 H   0  0  0  0  0  0  0  0  0  0  0  0
   59.0686   30.4462   43.8890 H   0  0  0  0  0  0  0  0  0  0  0  0
   58.3292   31.2470   43.5463 H   0  0  0  0  0  0  0  0  0  0  0  0
   56.7759   32.1536   43.3889 H   0  0  0  0  0  0  0  0  0  0  0  0
   57.1757   31.9011   46.8115 H   0  0  0  0  0  0  0  0  0  0  0  0
   58.0937   33.6705   48.3148 H   0  0  0  0  0  0  0  0  0  0  0  0
   59.4544   35.5367   47.3660 H   0  0  0  0  0  0  0  0  0  0  0  0
   59.8929   35.6397   44.9099 H   0  0  0  0  0  0  0  0  0  0  0  0
   58.9804   33.8769   43.4009 H   0  0  0  0  0  0  0  0  0  0  0  0
  1  2  1  0
  2  3  1  0
  3  4  1  0
  4  5  1  0
  3  6  1  0
  6  7  1  0
  7  8  2  0
  8  9  1  0
  9 10  2  0
 10 11  1  0
 11 12  2  0
 12  7  1  0
  1 13  1  0
  1 14  1  0
  1 15  1  0
  2 16  1  0
  2 17  1  0
  4 18  1  0
  4 19  1  0
  5 20  1  0
  5 21  1  0
  5 22  1  0
  6 23  1  0
  6 24  1  0
  8 25  1  0
  9 26  1  0
 10 27  1  0
 11 28  1  0
 12 29  1  0
M  END
>  <UniqueID>  (5) 
5

>  <SMILES>  (5) 
CCN(CC)Cc1ccccc1

>  <Energy>  (5) 
25.497448459904376

>  <Genealogy>  (5) 
CCN(CC)Cc1ccccc1 (3D coordinates assigned)
CCN(CC)Cc1ccccc1 (optimized conformer: 25.497448459904376 kcal/mol)

>  <smiles>  (5) 
CCN(CC)Cc1ccccc1

>  <score_type>  (5) 
oracle

>  <origin>  (5) 
adg

>  <m_score__min__energy>  (5) 
-5.3799999999999999

>  <m_primary>  (5) 
energy

$$$$
5:0
     RDKit          3D

 64 66  0  0  0  0  0  0  0  0999 V2000
   56.8280   30.3020   44.1480 C   0  0  0  0  0  0  0  0  0  0  0  0
   58.1720   30.4320   44.8660 C   0  0  0  0  0  0  0  0  0  0  0  0
   58.5770   29.1630   45.5160 N   0  0  0  0  0  0  0  0  0  0  0  0
   59.1200   28.2180   44.5200 C   0  0  0  0  0  0  0  0  0  0  0  0
   59.5820   29.4220   46.5740 C   0  0  0  0  0  0  0  0  0  0  0  0
   58.9110   29.6810   47.9390 C   0  0  0  0  0  0  0  0  0  0  0  0
   59.7410   30.4540   48.8780 N   0  0  0  0  0  0  0  0  0  0  0  0
   60.5660   31.5710   48.4920 C   0  0  0  0  0  0  0  0  0  0  0  0
   60.0540   32.5400   47.6090 C   0  0  0  0  0  0  0  0  0  0  0  0
   58.6710   32.6220   47.3450 C   0  0  0  0  0  0  0  0  0  0  0  0
   58.1700   33.5840   46.4710 C   0  0  0  0  0  0  0  0  0  0  0  0
   59.0320   34.4880   45.8610 C   0  0  0  0  0  0  0  0  0  0  0  0
   60.4010   34.4330   46.1170 C   0  0  0  0  0  0  0  0  0  0  0  0
   60.9420   33.4510   46.9860 C   0  0  0  0  0  0  0  0  0  0  0  0
   62.2930   33.3760   47.2460 N   0  0  0  0  0  0  0  0  0  0  0  0
   63.2550   34.0820   46.3720 C   0  0  0  0  0  0  0  0  0  0  0  0
   62.7450   32.6470   48.3300 C   0  0  0  0  0  0  0  0  0  0  0  0
   64.0460   32.8440   48.8440 C   0  0  0  0  0  0  0  0  0  0  0  0
   64.4930   32.1540   49.9610 C   0  0  0  0  0  0  0  0  0  0  0  0
   63.6740   31.2250   50.6070 C   0  0  0  0  0  0  0  0  0  0  0  0
   64.1100   30.6820   51.8750 N   0  0  0  0  0  0  0  0  0  0  0  0
   65.2780   29.8120   51.6730 C   0  0  0  0  0  0  0  0  0  0  0  0
   64.9370   28.3530   51.9970 C   0  0  0  0  0  0  0  0  0  0  0  0
   63.4930   28.2110   52.2220 N   0  0  0  0  0  0  0  0  0  0  0  0
   63.1430   26.7990   52.3900 C   0  0  0  0  0  0  0  0  0  0  0  0
   62.3790   30.9690   50.0970 C   0  0  0  0  0  0  0  0  0  0  0  0
   61.5620   30.0550   50.7730 O   0  0  0  0  0  0  0  0  0  0  0  0
   60.8230   30.4040   51.9420 C   0  0  0  0  0  0  0  0  0  0  0  0
   61.8910   31.7050   48.9740 C   0  0  0  0  0  0  0  0  0  0  0  0
   56.0211   30.2240   44.8915 H   0  0  0  0  0  0  0  0  0  0  0  0
   56.6616   31.1882   43.5180 H   0  0  0  0  0  0  0  0  0  0  0  0
   56.8346   29.4003   43.5180 H   0  0  0  0  0  0  0  0  0  0  0  0
   58.9408   30.7170   44.1326 H   0  0  0  0  0  0  0  0  0  0  0  0
   58.0673   31.1975   45.6490 H   0  0  0  0  0  0  0  0  0  0  0  0
   59.6034   27.3767   45.0382 H   0  0  0  0  0  0  0  0  0  0  0  0
   58.3018   27.8391   43.8899 H   0  0  0  0  0  0  0  0  0  0  0  0
   59.8593   28.7341   43.8899 H   0  0  0  0  0  0  0  0  0  0  0  0
   60.2433   28.5473   46.6609 H   0  0  0  0  0  0  0  0  0  0  0  0
   60.1543   30.3189   46.2947 H   0  0  0  0  0  0  0  0  0  0  0  0
   57.9771   30.2358   47.7655 H   0  0  0  0  0  0  0  0  0  0  0  0
   58.7402   28.6975   48.4010 H   0  0  0  0  0  0  0  0  0  0  0  0
   59.5620   30.3160   49.8970 H   0  0  0  0  0  0  0  0  0  0  0  0
   57.9808   31.9190   47.8343 H   0  0  0  0  0  0  0  0  0  0  0  0
   57.0907   33.6284   46.2632 H   0  0  0  0  0  0  0  0  0  0  0  0
   58.6326   35.2489   45.1743 H   0  0  0  0  0  0  0  0  0  0  0  0
   61.0716   35.1617   45.6382 H   0  0  0  0  0  0  0  0  0  0  0  0
   63.9875   34.6196   46.9920 H   0  0  0  0  0  0  0  0  0  0  0  0
   63.7778   33.3517   45.7370 H   0  0  0  0  0  0  0  0  0  0  0  0
   62.7151   34.7998   45.7370 H   0  0  0  0  0  0  0  0  0  0  0  0
   64.7184   33.5595   48.3481 H   0  0  0  0  0  0  0  0  0  0  0  0
   65.5072   32.3410   50.3437 H   0  0  0  0  0  0  0  0  0  0  0  0
   63.3320   30.1300   52.3090 H   0  0  0  0  0  0  0  0  0  0  0  0
   64.3560   31.4410   52.5460 H   0  0  0  0  0  0  0  0  0  0  0  0
   65.6016   29.8816   50.6240 H   0  0  0  0  0  0  0  0  0  0  0  0
   66.0825   30.1424   52.3465 H   0  0  0  0  0  0  0  0  0  0  0  0
   65.2388   27.7130   51.1548 H   0  0  0  0  0  0  0  0  0  0  0  0
   65.4750   28.0509   52.9077 H   0  0  0  0  0  0  0  0  0  0  0  0
   62.9940   28.5560   51.3670 H   0  0  0  0  0  0  0  0  0  0  0  0
   63.0840   26.5609   53.4623 H   0  0  0  0  0  0  0  0  0  0  0  0
   62.1693   26.6038   51.9169 H   0  0  0  0  0  0  0  0  0  0  0  0
   63.9128   26.1716   51.9169 H   0  0  0  0  0  0  0  0  0  0  0  0
   61.4016   30.1307   52.8367 H   0  0  0  0  0  0  0  0  0  0  0  0
   60.6323   31.4873   51.9454 H   0  0  0  0  0  0  0  0  0  0  0  0
   59.8652   29.8631   51.9454 H   0  0  0  0  0  0  0  0  0  0  0  0
  1  2  1  0
  2  3  1  0
  3  4  1  0
  3  5  1  0
  5  6  1  0
  6  7  1  0
  7  8  1  0
  8  9  2  0
  9 10  1  0
 10 11  2  0
 11 12  1  0
 12 13  2  0
 13 14  1  0
 14 15  2  0
 15 16  1  0
 15 17  1  0
 17 18  2  0
 18 19  1  0
 19 20  2  0
 20 21  1  0
 21 22  1  0
 22 23  1  0
 23 24  1  0
 24 25  1  0
 20 26  1  0
 26 27  1  0
 27 28  1  0
 26 29  2  0
 29  8  1  0
 14  9  1  0
 29 17  1  0
  1 30  1  0
  1 31  1  0
  1 32  1  0
  2 33  1  0
  2 34  1  0
  4 35  1  0
  4 36  1  0
  4 37  1  0
  5 38  1  0
  5 39  1  0
  6 40  1  0
  6 41  1  0
  7 42  1  0
 10 43  1  0
 11 44  1  0
 12 45  1  0
 13 46  1  0
 16 47  1  0
 16 48  1  0
 16 49  1  0
 18 50  1  0
 19 51  1  0
 21 52  1  0
 21 53  1  0
 22 54  1  0
 22 55  1  0
 23 56  1  0
 23 57  1  0
 24 58  1  0
 25 59  1  0
 25 60  1  0
 25 61  1  0
 28 62  1  0
 28 63  1  0
 28 64  1  0
M  CHG  2  15   1  21   1
M  END
>  <UniqueID>  (6) 
6

>  <SMILES>  (6) 
CCN(C)CCNc1c2ccccc2[n+](C)c2ccc([NH2+]CCNC)c(OC)c12

>  <Energy>  (6) 
99.35176987439365

>  <Genealogy>  (6) 
CCN(C)CCNc1c2ccccc2[n+](C)c2ccc([NH2+]CCNC)c(OC)c12 (protonated)
CCN(C)CCNc1c2ccccc2[n+](C)c2ccc([NH2+]CCNC)c(OC)c12 (3D coordinates assigned)
CCN(C)CCNc1c2ccccc2[n+](C)c2ccc([NH2+]CCNC)c(OC)c12 (optimized conformer: 99.35176987439365 kcal/mol)

>  <smiles>  (6) 
CCN(C)CCNc1c2ccccc2[n+](C)c2ccc(NCCNC)c(OC)c12

>  <score_type>  (6) 
oracle

>  <origin>  (6) 
adg

>  <m_score__min__energy>  (6) 
-3.6600000000000001

>  <m_primary>  (6) 
energy

$$$$
6:0
     RDKit          3D

 84 85  0  0  0  0  0  0  0  0999 V2000
   59.6210   35.2700   46.0840 C   0  0  0  0  0  0  0  0  0  0  0  0
   59.7880   33.7590   45.9270 C   0  0  0  0  0  0  0  0  0  0  0  0
   58.4860   33.0640   45.7880 N   0  0  0  0  0  0  0  0  0  0  0  0
   57.5940   33.3470   46.9360 C   0  0  0  0  0  0  0  0  0  0  0  0
   58.3050   33.0250   48.2440 C   0  0  0  0  0  0  0  0  0  0  0  0
   57.8170   33.2580   44.4760 C   0  0  0  0  0  0  0  0  0  0  0  0
   57.3880   31.9640   43.7570 C   0  0  0  0  0  0  0  0  0  0  0  0
   56.6400   31.1380   44.6280 O   0  0  0  0  0  0  0  0  0  0  0  0
   56.5200   29.8240   44.1150 C   0  0  0  0  0  0  0  0  0  0  0  0
   56.9470   28.7470   45.1290 C   0  0  0  0  0  0  0  0  0  0  0  0
   58.4040   28.8870   45.5890 C   0  0  0  0  0  0  0  0  0  0  0  0
   58.5970   30.1160   46.3700 N   0  0  0  0  0  0  0  0  0  0  0  0
   59.9470   30.1700   46.9480 C   0  0  0  0  0  0  0  0  0  0  0  0
   59.8910   30.2250   48.4610 C   0  0  0  0  0  0  0  0  0  0  0  0
   58.9940   29.3700   49.1220 C   0  0  0  0  0  0  0  0  0  0  0  0
   58.8960   29.3750   50.5140 C   0  0  0  0  0  0  0  0  0  0  0  0
   59.6890   30.2410   51.2790 C   0  0  0  0  0  0  0  0  0  0  0  0
   59.5680   30.2460   52.7860 C   0  0  0  0  0  0  0  0  0  0  0  0
   58.3200   30.8970   53.2440 N   0  0  0  0  0  0  0  0  0  0  0  0
   57.3350   29.9570   53.8340 C   0  0  0  0  0  0  0  0  0  0  0  0
   55.8610   30.4240   53.7190 C   0  0  0  0  0  0  0  0  0  0  0  0
   55.3020   30.2400   52.3040 C   0  0  0  0  0  0  0  0  0  0  0  0
   56.2580   30.7310   51.3180 N   0  0  0  0  0  0  0  0  0  0  0  0
   58.5810   32.0710   54.1130 C   0  0  0  0  0  0  0  0  0  0  0  0
   59.3480   33.1560   53.3460 C   0  0  0  0  0  0  0  0  0  0  0  0
   58.5460   33.7630   52.1880 C   0  0  0  0  0  0  0  0  0  0  0  0
   57.5860   32.8030   51.6550 N   0  0  0  0  0  0  0  0  0  0  0  0
   60.6260   31.0570   50.6320 C   0  0  0  0  0  0  0  0  0  0  0  0
   60.7280   31.0700   49.2320 C   0  0  0  0  0  0  0  0  0  0  0  0
   61.7100   31.9860   48.6170 C   0  0  0  0  0  0  0  0  0  0  0  0
   62.6310   31.5010   47.6740 C   0  0  0  0  0  0  0  0  0  0  0  0
   63.5770   32.3620   47.1090 C   0  0  0  0  0  0  0  0  0  0  0  0
   63.6180   33.7060   47.4910 C   0  0  0  0  0  0  0  0  0  0  0  0
   62.7170   34.1900   48.4440 C   0  0  0  0  0  0  0  0  0  0  0  0
   61.7700   33.3330   49.0120 C   0  0  0  0  0  0  0  0  0  0  0  0
   59.5926   35.5266   47.1533 H   0  0  0  0  0  0  0  0  0  0  0  0
   60.4678   35.7841   45.6059 H   0  0  0  0  0  0  0  0  0  0  0  0
   58.6824   35.5868   45.6059 H   0  0  0  0  0  0  0  0  0  0  0  0
   60.3932   33.5606   45.0301 H   0  0  0  0  0  0  0  0  0  0  0  0
   60.2799   33.3772   46.8338 H   0  0  0  0  0  0  0  0  0  0  0  0
   57.3149   34.4110   46.9261 H   0  0  0  0  0  0  0  0  0  0  0  0
   56.6923   32.7224   46.8535 H   0  0  0  0  0  0  0  0  0  0  0  0
   57.6649   33.3149   49.0903 H   0  0  0  0  0  0  0  0  0  0  0  0
   58.5113   31.9456   48.2932 H   0  0  0  0  0  0  0  0  0  0  0  0
   59.2523   33.5819   48.2932 H   0  0  0  0  0  0  0  0  0  0  0  0
   56.9175   33.8695   44.6404 H   0  0  0  0  0  0  0  0  0  0  0  0
   58.5619   33.7360   43.8228 H   0  0  0  0  0  0  0  0  0  0  0  0
   56.7705   32.2226   42.8841 H   0  0  0  0  0  0  0  0  0  0  0  0
   58.2886   31.4197   43.4366 H   0  0  0  0  0  0  0  0  0  0  0  0
   55.4699   29.6493   43.8379 H   0  0  0  0  0  0  0  0  0  0  0  0
   57.1896   29.7451   43.2459 H   0  0  0  0  0  0  0  0  0  0  0  0
   56.2942   28.8203   46.0113 H   0  0  0  0  0  0  0  0  0  0  0  0
   56.8575   27.7731   44.6255 H   0  0  0  0  0  0  0  0  0  0  0  0
   58.6687   28.0201   46.2123 H   0  0  0  0  0  0  0  0  0  0  0  0
   59.0481   28.9345   44.6986 H   0  0  0  0  0  0  0  0  0  0  0  0
   58.5120   30.9280   45.7140 H   0  0  0  0  0  0  0  0  0  0  0  0
   60.5051   29.2730   46.6416 H   0  0  0  0  0  0  0  0  0  0  0  0
   60.4468   31.0797   46.5837 H   0  0  0  0  0  0  0  0  0  0  0  0
   58.3610   28.6881   48.5353 H   0  0  0  0  0  0  0  0  0  0  0  0
   58.1914   28.6944   51.0143 H   0  0  0  0  0  0  0  0  0  0  0  0
   59.5781   29.2065   53.1458 H   0  0  0  0  0  0  0  0  0  0  0  0
   60.4158   30.8178   53.1912 H   0  0  0  0  0  0  0  0  0  0  0  0
   57.4311   28.9893   53.3198 H   0  0  0  0  0  0  0  0  0  0  0  0
   57.5631   29.8941   54.9082 H   0  0  0  0  0  0  0  0  0  0  0  0
   55.2485   29.8384   54.4204 H   0  0  0  0  0  0  0  0  0  0  0  0
   55.8282   31.4974   53.9571 H   0  0  0  0  0  0  0  0  0  0  0  0
   55.1111   29.1716   52.1246 H   0  0  0  0  0  0  0  0  0  0  0  0
   54.3653   30.8092   52.2108 H   0  0  0  0  0  0  0  0  0  0  0  0
   57.1520   30.9410   51.8180 H   0  0  0  0  0  0  0  0  0  0  0  0
   55.9060   31.6440   50.9470 H   0  0  0  0  0  0  0  0  0  0  0  0
   57.6220   32.4837   54.4594 H   0  0  0  0  0  0  0  0  0  0  0  0
   59.1901   31.7473   54.9699 H   0  0  0  0  0  0  0  0  0  0  0  0
   59.6103   33.9608   54.0485 H   0  0  0  0  0  0  0  0  0  0  0  0
   60.2384   32.6790   52.9105 H   0  0  0  0  0  0  0  0  0  0  0  0
   58.0044   34.6488   52.5514 H   0  0  0  0  0  0  0  0  0  0  0  0
   59.2456   34.0401   51.3856 H   0  0  0  0  0  0  0  0  0  0  0  0
   58.1140   31.9650   51.3160 H   0  0  0  0  0  0  0  0  0  0  0  0
   56.9920   32.4770   52.4500 H   0  0  0  0  0  0  0  0  0  0  0  0
   61.2916   31.6970   51.2298 H   0  0  0  0  0  0  0  0  0  0  0  0
   62.6081   30.4415   47.3792 H   0  0  0  0  0  0  0  0  0  0  0  0
   64.2899   31.9811   46.3629 H   0  0  0  0  0  0  0  0  0  0  0  0
   64.3594   34.3830   47.0416 H   0  0  0  0  0  0  0  0  0  0  0  0
   62.7533   35.2467   48.7473 H   0  0  0  0  0  0  0  0  0  0  0  0
   61.0700   33.7141   49.7701 H   0  0  0  0  0  0  0  0  0  0  0  0
  1  2  1  0
  2  3  1  0
  3  4  1  0
  4  5  1  0
  3  6  1  0
  6  7  1  0
  7  8  1  0
  8  9  1  0
  9 10  1  0
 10 11  1  0
 11 12  1  0
 12 13  1  0
 13 14  1  0
 14 15  2  0
 15 16  1  0
 16 17  2  0
 17 18  1  0
 18 19  1  0
 19 20  1  0
 20 21  1  0
 21 22  1  0
 22 23  1  0
 19 24  1  0
 24 25  1  0
 25 26  1  0
 26 27  1  0
 17 28  1  0
 28 29  2  0
 29 30  1  0
 30 31  2  0
 31 32  1  0
 32 33  2  0
 33 34  1  0
 34 35  2  0
 29 14  1  0
 35 30  1  0
  1 36  1  0
  1 37  1  0
  1 38  1  0
  2 39  1  0
  2 40  1  0
  4 41  1  0
  4 42  1  0
  5 43  1  0
  5 44  1  0
  5 45  1  0
  6 46  1  0
  6 47  1  0
  7 48  1  0
  7 49  1  0
  9 50  1  0
  9 51  1  0
 10 52  1  0
 10 53  1  0
 11 54  1  0
 11 55  1  0
 12 56  1  0
 13 57  1  0
 13 58  1  0
 15 59  1  0
 16 60  1  0
 18 61  1  0
 18 62  1  0
 20 63  1  0
 20 64  1  0
 21 65  1  0
 21 66  1  0
 22 67  1  0
 22 68  1  0
 23 69  1  0
 23 70  1  0
 24 71  1  0
 24 72  1  0
 25 73  1  0
 25 74  1  0
 26 75  1  0
 26 76  1  0
 27 77  1  0
 27 78  1  0
 28 79  1  0
 31 80  1  0
 32 81  1  0
 33 82  1  0
 34 83  1  0
 35 84  1  0
M  END
>  <UniqueID>  (7) 
7

>  <SMILES>  (7) 
CCN(CC)CCOCCCNCc1ccc(CN(CCCN)CCCN)cc1-c1ccccc1

>  <Energy>  (7) 
80.35084109972199

>  <Genealogy>  (7) 
CCN(CC)CCOCCCNCc1ccc(CN(CCCN)CCCN)cc1-c1ccccc1 (3D coordinates assigned)
CCN(CC)CCOCCCNCc1ccc(CN(CCCN)CCCN)cc1-c1ccccc1 (optimized conformer: 80.35084109972199 kcal/mol)

>  <smiles>  (7) 
CCN(CC)CCOCCCNCc1ccc(CN(CCCN)CCCN)cc1-c1ccccc1

>  <score_type>  (7) 
oracle

>  <origin>  (7) 
adg

>  <m_score__min__energy>  (7) 
-7.8899999999999997

>  <m_primary>  (7) 
energy

$$$$
7:0
     RDKit          3D

 51 53  0  0  0  0  0  0  0  0999 V2000
   62.9240   33.3760   47.1140 C   0  0  0  0  0  0  0  0  0  0  0  0
   63.3740   31.9530   47.4190 C   0  0  0  0  0  0  0  0  0  0  0  0
   62.3200   31.2310   48.1420 N   0  0  0  0  0  0  0  0  0  0  0  0
   62.1870   31.7130   49.5260 C   0  0  0  0  0  0  0  0  0  0  0  0
   61.3500   30.7440   50.3620 C   0  0  0  0  0  0  0  0  0  0  0  0
   61.4860   29.4320   49.8540 O   0  0  0  0  0  0  0  0  0  0  0  0
   60.2360   28.7700   49.8170 C   0  0  0  0  0  0  0  0  0  0  0  0
   59.2970   29.4030   48.7750 C   0  0  0  0  0  0  0  0  0  0  0  0
   59.9990   30.1220   47.6890 N   0  0  0  0  0  0  0  0  0  0  0  0
   59.2570   30.1480   46.4320 C   0  0  0  0  0  0  0  0  0  0  0  0
   58.8630   28.9410   45.7770 C   0  0  0  0  0  0  0  0  0  0  0  0
   59.2320   27.6590   46.2640 C   0  0  0  0  0  0  0  0  0  0  0  0
   58.8720   26.4960   45.5880 C   0  0  0  0  0  0  0  0  0  0  0  0
   58.1540   26.5700   44.4060 C   0  0  0  0  0  0  0  0  0  0  0  0
   57.7720   27.8070   43.9010 C   0  0  0  0  0  0  0  0  0  0  0  0
   58.0880   29.0130   44.5820 C   0  0  0  0  0  0  0  0  0  0  0  0
   57.6750   30.2330   44.0890 N   0  0  0  0  0  0  0  0  0  0  0  0
   56.6340   30.2910   43.0360 C   0  0  0  0  0  0  0  0  0  0  0  0
   58.2060   31.4010   44.5920 C   0  0  0  0  0  0  0  0  0  0  0  0
   58.0390   32.6350   43.9130 C   0  0  0  0  0  0  0  0  0  0  0  0
   58.4870   33.8300   44.4650 C   0  0  0  0  0  0  0  0  0  0  0  0
   59.1130   33.8310   45.7030 C   0  0  0  0  0  0  0  0  0  0  0  0
   59.6490   35.3470   46.4100 Cl  0  0  0  0  0  0  0  0  0  0  0  0
   59.3400   32.6300   46.3700 C   0  0  0  0  0  0  0  0  0  0  0  0
   58.9410   31.3900   45.8100 C   0  0  0  0  0  0  0  0  0  0  0  0
   62.7531   33.9165   48.0567 H   0  0  0  0  0  0  0  0  0  0  0  0
   63.7033   33.8903   46.5325 H   0  0  0  0  0  0  0  0  0  0  0  0
   61.9906   33.3487   46.5325 H   0  0  0  0  0  0  0  0  0  0  0  0
   63.5906   31.4305   46.4756 H   0  0  0  0  0  0  0  0  0  0  0  0
   64.2779   31.9892   48.0449 H   0  0  0  0  0  0  0  0  0  0  0  0
   62.6040   30.2220   48.1830 H   0  0  0  0  0  0  0  0  0  0  0  0
   63.1877   31.8036   49.9738 H   0  0  0  0  0  0  0  0  0  0  0  0
   61.6833   32.6908   49.5113 H   0  0  0  0  0  0  0  0  0  0  0  0
   61.6964   30.7691   51.4057 H   0  0  0  0  0  0  0  0  0  0  0  0
   60.2927   31.0437   50.3148 H   0  0  0  0  0  0  0  0  0  0  0  0
   60.3980   27.7133   49.5579 H   0  0  0  0  0  0  0  0  0  0  0  0
   59.7662   28.8610   50.8075 H   0  0  0  0  0  0  0  0  0  0  0  0
   58.6910   28.6031   48.3246 H   0  0  0  0  0  0  0  0  0  0  0  0
   58.6876   30.1481   49.3074 H   0  0  0  0  0  0  0  0  0  0  0  0
   60.2870   31.0660   48.0180 H   0  0  0  0  0  0  0  0  0  0  0  0
   60.9230   29.6620   47.5260 H   0  0  0  0  0  0  0  0  0  0  0  0
   59.8141   27.5831   47.1943 H   0  0  0  0  0  0  0  0  0  0  0  0
   59.1590   25.5149   45.9943 H   0  0  0  0  0  0  0  0  0  0  0  0
   57.8861   25.6494   43.8668 H   0  0  0  0  0  0  0  0  0  0  0  0
   57.2135   27.8533   42.9545 H   0  0  0  0  0  0  0  0  0  0  0  0
   55.6406   30.3463   43.5051 H   0  0  0  0  0  0  0  0  0  0  0  0
   56.7943   31.1816   42.4106 H   0  0  0  0  0  0  0  0  0  0  0  0
   56.6944   29.3881   42.4106 H   0  0  0  0  0  0  0  0  0  0  0  0
   57.5452   32.6469   42.9301 H   0  0  0  0  0  0  0  0  0  0  0  0
   58.3450   34.7748   43.9199 H   0  0  0  0  0  0  0  0  0  0  0  0
   59.8386   32.6435   47.3504 H   0  0  0  0  0  0  0  0  0  0  0  0
  1  2  1  0
  2  3  1  0
  3  4  1  0
  4  5  1  0
  5  6  1  0
  6  7  1  0
  7  8  1  0
  8  9  1  0
  9 10  1  0
 10 11  2  0
 11 12  1  0
 12 13  2  0
 13 14  1  0
 14 15  2  0
 15 16  1  0
 16 17  2  0
 17 18  1  0
 17 19  1  0
 19 20  2  0
 20 21  1  0
 21 22  2  0
 22 23  1  0
 22 24  1  0
 24 25  2  0
 25 10  1  0
 16 11  1  0
 25 19  1  0
  1 26  1  0
  1 27  1  0
  1 28  1  0
  2 29  1  0
  2 30  1  0
  3 31  1  0
  4 32  1  0
  4 33  1  0
  5 34  1  0
  5 35  1  0
  7 36  1  0
  7 37  1  0
  8 38  1  0
  8 39  1  0
  9 40  1  0
  9 41  1  0
 12 42  1  0
 13 43  1  0
 14 44  1  0
 15 45  1  0
 18 46  1  0
 18 47  1  0
 18 48  1  0
 20 49  1  0
 21 50  1  0
 24 51  1  0
M  CHG  2   9   1  17   1
M  END
>  <UniqueID>  (8) 
8

>  <SMILES>  (8) 
CCNCCOCC[NH2+]c1c2ccccc2[n+](C)c2ccc(Cl)cc12

>  <Energy>  (8) 
74.95655441751589

>  <Genealogy>  (8) 
CCNCCOCC[NH2+]c1c2ccccc2[n+](C)c2ccc(Cl)cc12 (protonated)
CCNCCOCC[NH2+]c1c2ccccc2[n+](C)c2ccc(Cl)cc12 (3D coordinates assigned)
CCNCCOCC[NH2+]c1c2ccccc2[n+](C)c2ccc(Cl)cc12 (optimized conformer: 74.95655441751589 kcal/mol)

>  <smiles>  (8) 
CCNCCOCCNc1c2ccccc2[n+](C)c2ccc(Cl)cc12

>  <score_type>  (8) 
oracle

>  <origin>  (8) 
adg

>  <m_score__min__energy>  (8) 
-3.4700000000000002

>  <m_primary>  (8) 
energy

$$$$
8:0
     RDKit          3D

 44 45  0  0  0  0  0  0  0  0999 V2000
   57.7780   27.0460   44.9340 C   0  0  0  0  0  0  0  0  0  0  0  0
   57.0010   27.8790   45.9580 C   0  0  0  0  0  0  0  0  0  0  0  0
   56.8340   29.2790   45.5300 N   0  0  0  0  0  0  0  0  0  0  0  0
   56.6880   29.4140   44.0730 C   0  0  0  0  0  0  0  0  0  0  0  0
   56.2730   30.8370   43.6890 C   0  0  0  0  0  0  0  0  0  0  0  0
   56.3170   31.7080   44.8220 O   0  0  0  0  0  0  0  0  0  0  0  0
   57.4600   32.3420   45.3410 C   0  0  0  0  0  0  0  0  0  0  0  0
   57.5850   33.7400   45.3990 C   0  0  0  0  0  0  0  0  0  0  0  0
   58.7510   34.3070   45.9040 C   0  0  0  0  0  0  0  0  0  0  0  0
   59.7850   33.4880   46.3700 C   0  0  0  0  0  0  0  0  0  0  0  0
   60.9700   34.0570   46.8510 C   0  0  0  0  0  0  0  0  0  0  0  0
   62.0070   33.2400   47.3140 C   0  0  0  0  0  0  0  0  0  0  0  0
   63.2970   33.8540   47.7920 C   0  0  0  0  0  0  0  0  0  0  0  0
   64.0790   32.8670   48.6510 C   0  0  0  0  0  0  0  0  0  0  0  0
   61.8570   31.8480   47.2870 C   0  0  0  0  0  0  0  0  0  0  0  0
   60.6690   31.2520   46.8230 C   0  0  0  0  0  0  0  0  0  0  0  0
   60.5210   29.8200   46.8810 N   0  0  0  0  0  0  0  0  0  0  0  0
   60.4960   28.9800   45.6880 C   0  0  0  0  0  0  0  0  0  0  0  0
   59.6220   32.0830   46.3400 C   0  0  0  0  0  0  0  0  0  0  0  0
   58.4720   31.5580   45.8120 N   0  0  0  0  0  0  0  0  0  0  0  0
   58.4369   26.3396   45.4601 H   0  0  0  0  0  0  0  0  0  0  0  0
   57.0708   26.4875   44.3032 H   0  0  0  0  0  0  0  0  0  0  0  0
   58.3843   27.7127   44.3032 H   0  0  0  0  0  0  0  0  0  0  0  0
   56.0062   27.4306   46.0968 H   0  0  0  0  0  0  0  0  0  0  0  0
   57.5758   27.8805   46.8958 H   0  0  0  0  0  0  0  0  0  0  0  0
   55.9970   29.6940   46.0020 H   0  0  0  0  0  0  0  0  0  0  0  0
   57.6490   29.1782   43.5925 H   0  0  0  0  0  0  0  0  0  0  0  0
   55.9053   28.7190   43.7349 H   0  0  0  0  0  0  0  0  0  0  0  0
   56.9594   31.2158   42.9174 H   0  0  0  0  0  0  0  0  0  0  0  0
   55.2414   30.8100   43.3082 H   0  0  0  0  0  0  0  0  0  0  0  0
   56.7651   34.3833   45.0469 H   0  0  0  0  0  0  0  0  0  0  0  0
   58.8599   35.4011   45.9369 H   0  0  0  0  0  0  0  0  0  0  0  0
   61.0863   35.1507   46.8650 H   0  0  0  0  0  0  0  0  0  0  0  0
   63.9067   34.1365   46.9211 H   0  0  0  0  0  0  0  0  0  0  0  0
   63.0624   34.7413   48.3983 H   0  0  0  0  0  0  0  0  0  0  0  0
   63.9042   33.0877   49.7144 H   0  0  0  0  0  0  0  0  0  0  0  0
   63.7446   31.8428   48.4293 H   0  0  0  0  0  0  0  0  0  0  0  0
   65.1525   32.9583   48.4293 H   0  0  0  0  0  0  0  0  0  0  0  0
   62.6821   31.2089   47.6345 H   0  0  0  0  0  0  0  0  0  0  0  0
   60.4160   29.3410   47.8030 H   0  0  0  0  0  0  0  0  0  0  0  0
   60.4645   27.9215   45.9855 H   0  0  0  0  0  0  0  0  0  0  0  0
   59.6046   29.2194   45.0896 H   0  0  0  0  0  0  0  0  0  0  0  0
   61.4001   29.1660   45.0896 H   0  0  0  0  0  0  0  0  0  0  0  0
   58.3430   30.5280   45.7220 H   0  0  0  0  0  0  0  0  0  0  0  0
  1  2  1  0
  2  3  1  0
  3  4  1  0
  4  5  1  0
  5  6  1  0
  6  7  1  0
  7  8  2  0
  8  9  1  0
  9 10  2  0
 10 11  1  0
 11 12  2  0
 12 13  1  0
 13 14  1  0
 12 15  1  0
 15 16  2  0
 16 17  1  0
 17 18  1  0
 16 19  1  0
 19 20  2  0
 20  7  1  0
 19 10  1  0
  1 21  1  0
  1 22  1  0
  1 23  1  0
  2 24  1  0
  2 25  1  0
  3 26  1  0
  4 27  1  0
  4 28  1  0
  5 29  1  0
  5 30  1  0
  8 31  1  0
  9 32  1  0
 11 33  1  0
 13 34  1  0
 13 35  1  0
 14 36  1  0
 14 37  1  0
 14 38  1  0
 15 39  1  0
 17 40  1  0
 18 41  1  0
 18 42  1  0
 18 43  1  0
 20 44  1  0
M  CHG  1  20   1
M  END
>  <UniqueID>  (9) 
9

>  <SMILES>  (9) 
CCNCCOc1ccc2cc(CC)cc(NC)c2[nH+]1

>  <Energy>  (9) 
44.9174845004975

>  <Genealogy>  (9) 
CCNCCOc1ccc2cc(CC)cc(NC)c2[nH+]1 (protonated)
CCNCCOc1ccc2cc(CC)cc(NC)c2[nH+]1 (3D coordinates assigned)
CCNCCOc1ccc2cc(CC)cc(NC)c2[nH+]1 (optimized conformer: 44.9174845004975 kcal/mol)

>  <smiles>  (9) 
CCNCCOc1ccc2cc(CC)cc(NC)c2n1

>  <score_type>  (9) 
oracle

>  <origin>  (9) 
adg

>  <m_score__min__energy>  (9) 
-4.6399999999999997

>  <m_primary>  (9) 
energy

$$$$
9:0
     RDKit          3D

 59 61  0  0  0  0  0  0  0  0999 V2000
   58.0560   23.3350   44.8350 C   0  0  0  0  0  0  0  0  0  0  0  0
   56.9340   24.0880   44.1110 C   0  0  0  0  0  0  0  0  0  0  0  0
   56.2740   23.2010   43.0480 C   0  0  0  0  0  0  0  0  0  0  0  0
   57.4340   25.4110   43.5040 C   0  0  0  0  0  0  0  0  0  0  0  0
   57.3830   26.4990   44.4930 N   0  0  0  0  0  0  0  0  0  0  0  0
   58.7140   27.0280   44.8330 C   0  0  0  0  0  0  0  0  0  0  0  0
   59.1650   26.6610   46.2540 C   0  0  0  0  0  0  0  0  0  0  0  0
   59.1550   27.8120   47.0770 O   0  0  0  0  0  0  0  0  0  0  0  0
   60.3890   27.9600   47.7540 C   0  0  0  0  0  0  0  0  0  0  0  0
   60.2800   29.0180   48.8650 C   0  0  0  0  0  0  0  0  0  0  0  0
   59.1070   29.9100   48.7350 N   0  0  0  0  0  0  0  0  0  0  0  0
   59.3630   31.1030   47.9310 C   0  0  0  0  0  0  0  0  0  0  0  0
   60.2760   32.0950   48.3930 C   0  0  0  0  0  0  0  0  0  0  0  0
   61.0000   31.9420   49.6020 C   0  0  0  0  0  0  0  0  0  0  0  0
   61.9500   32.8760   49.9960 C   0  0  0  0  0  0  0  0  0  0  0  0
   62.2090   33.9830   49.2050 C   0  0  0  0  0  0  0  0  0  0  0  0
   61.4890   34.1840   48.0330 C   0  0  0  0  0  0  0  0  0  0  0  0
   60.4730   33.2790   47.6300 C   0  0  0  0  0  0  0  0  0  0  0  0
   59.6870   33.5370   46.5280 N   0  0  0  0  0  0  0  0  0  0  0  0
   59.6440   34.9030   45.9570 C   0  0  0  0  0  0  0  0  0  0  0  0
   58.9170   32.5330   45.9760 C   0  0  0  0  0  0  0  0  0  0  0  0
   58.3310   32.6870   44.6930 C   0  0  0  0  0  0  0  0  0  0  0  0
   57.5300   31.6980   44.1370 C   0  0  0  0  0  0  0  0  0  0  0  0
   57.2960   30.5090   44.8230 C   0  0  0  0  0  0  0  0  0  0  0  0
   56.4780   29.4800   44.2290 N   0  0  0  0  0  0  0  0  0  0  0  0
   55.5520   28.9470   44.8740 O   0  0  0  0  0  0  0  0  0  0  0  0
   56.7040   29.0660   42.9370 O   0  0  0  0  0  0  0  0  0  0  0  0
   57.8900   30.3180   46.0790 C   0  0  0  0  0  0  0  0  0  0  0  0
   58.7190   31.3070   46.6740 C   0  0  0  0  0  0  0  0  0  0  0  0
   57.9177   23.4278   45.9223 H   0  0  0  0  0  0  0  0  0  0  0  0
   58.0272   22.2727   44.5511 H   0  0  0  0  0  0  0  0  0  0  0  0
   59.0282   23.7642   44.5511 H   0  0  0  0  0  0  0  0  0  0  0  0
   56.1707   24.3438   44.8606 H   0  0  0  0  0  0  0  0  0  0  0  0
   55.6871   22.4123   43.5415 H   0  0  0  0  0  0  0  0  0  0  0  0
   55.6102   23.8134   42.4201 H   0  0  0  0  0  0  0  0  0  0  0  0
   57.0513   22.7411   42.4201 H   0  0  0  0  0  0  0  0  0  0  0  0
   58.4726   25.2813   43.1655 H   0  0  0  0  0  0  0  0  0  0  0  0
   56.7825   25.6762   42.6583 H   0  0  0  0  0  0  0  0  0  0  0  0
   56.7840   27.2760   44.1260 H   0  0  0  0  0  0  0  0  0  0  0  0
   59.4448   26.6218   44.1182 H   0  0  0  0  0  0  0  0  0  0  0  0
   58.6528   28.1251   44.7822 H   0  0  0  0  0  0  0  0  0  0  0  0
   58.4791   25.9089   46.6711 H   0  0  0  0  0  0  0  0  0  0  0  0
   60.1861   26.2537   46.2150 H   0  0  0  0  0  0  0  0  0  0  0  0
   60.6728   26.9958   48.2010 H   0  0  0  0  0  0  0  0  0  0  0  0
   61.1507   28.2862   47.0305 H   0  0  0  0  0  0  0  0  0  0  0  0
   60.2134   28.4981   49.8321 H   0  0  0  0  0  0  0  0  0  0  0  0
   61.1736   29.6546   48.7863 H   0  0  0  0  0  0  0  0  0  0  0  0
   58.2760   29.3700   48.4200 H   0  0  0  0  0  0  0  0  0  0  0  0
   58.8100   30.2090   49.6920 H   0  0  0  0  0  0  0  0  0  0  0  0
   60.8060   31.0673   50.2402 H   0  0  0  0  0  0  0  0  0  0  0  0
   62.4983   32.7359   50.9393 H   0  0  0  0  0  0  0  0  0  0  0  0
   62.9846   34.7033   49.5043 H   0  0  0  0  0  0  0  0  0  0  0  0
   61.7109   35.0606   47.4066 H   0  0  0  0  0  0  0  0  0  0  0  0
   59.6208   35.6408   46.7726 H   0  0  0  0  0  0  0  0  0  0  0  0
   60.5373   35.0696   45.3372 H   0  0  0  0  0  0  0  0  0  0  0  0
   58.7419   35.0131   45.3372 H   0  0  0  0  0  0  0  0  0  0  0  0
   58.5154   33.6111   44.1256 H   0  0  0  0  0  0  0  0  0  0  0  0
   57.0769   31.8551   43.1470 H   0  0  0  0  0  0  0  0  0  0  0  0
   57.7092   29.3766   46.6185 H   0  0  0  0  0  0  0  0  0  0  0  0
  1  2  1  0
  2  3  1  0
  2  4  1  0
  4  5  1  0
  5  6  1  0
  6  7  1  0
  7  8  1  0
  8  9  1  0
  9 10  1  0
 10 11  1  0
 11 12  1  0
 12 13  2  0
 13 14  1  0
 14 15  2  0
 15 16  1  0
 16 17  2  0
 17 18  1  0
 18 19  2  0
 19 20  1  0
 19 21  1  0
 21 22  2  0
 22 23  1  0
 23 24  2  0
 24 25  1  0
 25 26  2  0
 25 27  1  0
 24 28  1  0
 28 29  2  0
 29 12  1  0
 18 13  1  0
 29 21  1  0
  1 30  1  0
  1 31  1  0
  1 32  1  0
  2 33  1  0
  3 34  1  0
  3 35  1  0
  3 36  1  0
  4 37  1  0
  4 38  1  0
  5 39  1  0
  6 40  1  0
  6 41  1  0
  7 42  1  0
  7 43  1  0
  9 44  1  0
  9 45  1  0
 10 46  1  0
 10 47  1  0
 11 48  1  0
 11 49  1  0
 14 50  1  0
 15 51  1  0
 16 52  1  0
 17 53  1  0
 20 54  1  0
 20 55  1  0
 20 56  1  0
 22 57  1  0
 23 58  1  0
 28 59  1  0
M  CHG  4  11   1  19   1  25   1  27  -1
M  END
>  <UniqueID>  (10) 
10

>  <SMILES>  (10) 
CC(C)CNCCOCC[NH2+]c1c2ccccc2[n+](C)c2ccc([N+](=O)[O-])cc12

>  <Energy>  (10) 
82.37191394787875

>  <Genealogy>  (10) 
CC(C)CNCCOCC[NH2+]c1c2ccccc2[n+](C)c2ccc([N+](=O)[O-])cc12 (protonated)
CC(C)CNCCOCC[NH2+]c1c2ccccc2[n+](C)c2ccc([N+](=O)[O-])cc12 (3D coordinates assigned)
CC(C)CNCCOCC[NH2+]c1c2ccccc2[n+](C)c2ccc([N+](=O)[O-])cc12 (optimized conformer: 82.37191394787875 kcal/mol)

>  <smiles>  (10) 
CC(C)CNCCOCCNc1c2ccccc2[n+](C)c2ccc([N+](=O)[O-])cc12

>  <score_type>  (10) 
oracle

>  <origin>  (10) 
adg

>  <m_score__min__energy>  (10) 
-6

>  <m_primary>  (10) 
energy

$$$$
10:0
     RDKit          3D

 30 31  0  0  0  0  0  0  0  0999 V2000
   57.0300   31.2340   42.6070 C   0  0  0  0  0  0  0  0  0  0  0  0
   56.7390   30.2100   43.6510 C   0  0  0  0  0  0  0  0  0  0  0  0
   55.6740   30.2650   44.4740 N   0  0  0  0  0  0  0  0  0  0  0  0
   55.7920   29.2190   45.2340 O   0  0  0  0  0  0  0  0  0  0  0  0
   56.8730   28.5560   44.9080 C   0  0  0  0  0  0  0  0  0  0  0  0
   57.3130   27.2870   45.5720 C   0  0  0  0  0  0  0  0  0  0  0  0
   58.0310   27.5480   46.9070 C   0  0  0  0  0  0  0  0  0  0  0  0
   59.1630   28.5840   46.7970 C   0  0  0  0  0  0  0  0  0  0  0  0
   58.6580   29.8950   46.3890 N   0  0  0  0  0  0  0  0  0  0  0  0
   59.4470   31.0920   46.4890 C   0  0  0  0  0  0  0  0  0  0  0  0
   60.6710   31.0150   46.7780 O   0  0  0  0  0  0  0  0  0  0  0  0
   58.8500   32.4210   46.2740 C   0  0  0  0  0  0  0  0  0  0  0  0
   59.4830   33.6470   46.3920 C   0  0  0  0  0  0  0  0  0  0  0  0
   58.5280   34.5880   46.0770 C   0  0  0  0  0  0  0  0  0  0  0  0
   57.3750   33.8880   45.7910 C   0  0  0  0  0  0  0  0  0  0  0  0
   57.5980   32.6010   45.9170 O   0  0  0  0  0  0  0  0  0  0  0  0
   57.5360   29.1500   43.8970 N   0  0  0  0  0  0  0  0  0  0  0  0
   57.3001   32.1843   43.0907 H   0  0  0  0  0  0  0  0  0  0  0  0
   57.8662   30.8911   41.9800 H   0  0  0  0  0  0  0  0  0  0  0  0
   56.1384   31.3821   41.9800 H   0  0  0  0  0  0  0  0  0  0  0  0
   56.4283   26.6615   45.7620 H   0  0  0  0  0  0  0  0  0  0  0  0
   58.0230   26.7830   44.8998 H   0  0  0  0  0  0  0  0  0  0  0  0
   57.2921   27.9142   47.6350 H   0  0  0  0  0  0  0  0  0  0  0  0
   58.4881   26.5984   47.2221 H   0  0  0  0  0  0  0  0  0  0  0  0
   59.6547   28.6802   47.7763 H   0  0  0  0  0  0  0  0  0  0  0  0
   59.8731   28.2365   46.0321 H   0  0  0  0  0  0  0  0  0  0  0  0
   57.6950   29.9400   45.9880 H   0  0  0  0  0  0  0  0  0  0  0  0
   60.5293   33.8308   46.6775 H   0  0  0  0  0  0  0  0  0  0  0  0
   58.6589   35.6800   46.0575 H   0  0  0  0  0  0  0  0  0  0  0  0
   56.4147   34.3395   45.5014 H   0  0  0  0  0  0  0  0  0  0  0  0
  1  2  1  0
  2  3  2  0
  3  4  1  0
  4  5  1  0
  5  6  1  0
  6  7  1  0
  7  8  1  0
  8  9  1  0
  9 10  1  0
 10 11  2  0
 10 12  1  0
 12 13  2  0
 13 14  1  0
 14 15  2  0
 15 16  1  0
  5 17  2  0
 17  2  1  0
 16 12  1  0
  1 18  1  0
  1 19  1  0
  1 20  1  0
  6 21  1  0
  6 22  1  0
  7 23  1  0
  7 24  1  0
  8 25  1  0
  8 26  1  0
  9 27  1  0
 13 28  1  0
 14 29  1  0
 15 30  1  0
M  END
>  <UniqueID>  (11) 
11

>  <SMILES>  (11) 
Cc1noc(CCCNC(=O)c2ccco2)n1

>  <Energy>  (11) 
77.3758400301422

>  <Genealogy>  (11) 
Cc1noc(CCCNC(=O)c2ccco2)n1 (3D coordinates assigned)
Cc1noc(CCCNC(=O)c2ccco2)n1 (optimized conformer: 77.3758400301422 kcal/mol)

>  <smiles>  (11) 
Cc1noc(CCCNC(=O)c2ccco2)n1

>  <score_type>  (11) 
oracle

>  <origin>  (11) 
adg

>  <m_score__min__energy>  (11) 
-5.8600000000000003

>  <m_primary>  (11) 
energy

$$$$
11:0
     RDKit          3D

 55 57  0  0  0  0  0  0  0  0999 V2000
   56.2990   29.7510   43.0050 C   0  0  0  0  0  0  0  0  0  0  0  0
   56.2320   30.0920   44.4900 C   0  0  0  0  0  0  0  0  0  0  0  0
   57.2980   30.9500   44.8530 O   0  0  0  0  0  0  0  0  0  0  0  0
   58.1360   31.2400   43.7480 C   0  0  0  0  0  0  0  0  0  0  0  0
   58.2810   32.7510   43.5780 C   0  0  0  0  0  0  0  0  0  0  0  0
   57.2550   33.4550   44.3660 N   0  0  0  0  0  0  0  0  0  0  0  0
   57.7270   34.1160   45.6020 C   0  0  0  0  0  0  0  0  0  0  0  0
   59.2570   34.3620   45.5930 C   0  0  0  0  0  0  0  0  0  0  0  0
   60.1140   33.2450   46.2370 C   0  0  0  0  0  0  0  0  0  0  0  0
   59.3560   32.3570   47.1440 N   0  0  0  0  0  0  0  0  0  0  0  0
   60.2610   31.6370   48.0610 C   0  0  0  0  0  0  0  0  0  0  0  0
   59.9560   30.1670   48.0360 C   0  0  0  0  0  0  0  0  0  0  0  0
   59.1600   29.5740   47.1300 N   0  0  0  0  0  0  0  0  0  0  0  0
   59.1930   28.2600   47.4480 C   0  0  0  0  0  0  0  0  0  0  0  0
   58.4620   27.1910   46.7300 C   0  0  0  0  0  0  0  0  0  0  0  0
   59.1670   26.0730   46.2490 C   0  0  0  0  0  0  0  0  0  0  0  0
   58.4980   25.0540   45.5640 C   0  0  0  0  0  0  0  0  0  0  0  0
   57.1190   25.1380   45.3550 C   0  0  0  0  0  0  0  0  0  0  0  0
   56.4080   26.2410   45.8320 C   0  0  0  0  0  0  0  0  0  0  0  0
   55.0680   26.3190   45.6320 F   0  0  0  0  0  0  0  0  0  0  0  0
   57.0720   27.2630   46.5170 C   0  0  0  0  0  0  0  0  0  0  0  0
   59.9710   28.0340   48.4880 O   0  0  0  0  0  0  0  0  0  0  0  0
   60.4600   29.1900   48.8720 C   0  0  0  0  0  0  0  0  0  0  0  0
   61.3940   29.3750   50.0210 C   0  0  0  0  0  0  0  0  0  0  0  0
   58.3100   33.0900   47.8760 C   0  0  0  0  0  0  0  0  0  0  0  0
   57.1910   33.4520   46.9010 C   0  0  0  0  0  0  0  0  0  0  0  0
   56.5098   28.6782   42.8843 H   0  0  0  0  0  0  0  0  0  0  0  0
   55.3365   29.9913   42.5298 H   0  0  0  0  0  0  0  0  0  0  0  0
   57.0991   30.3376   42.5298 H   0  0  0  0  0  0  0  0  0  0  0  0
   55.2762   30.5930   44.7031 H   0  0  0  0  0  0  0  0  0  0  0  0
   56.3120   29.1616   45.0714 H   0  0  0  0  0  0  0  0  0  0  0  0
   59.1282   30.7967   43.9183 H   0  0  0  0  0  0  0  0  0  0  0  0
   57.6873   30.8178   42.8368 H   0  0  0  0  0  0  0  0  0  0  0  0
   59.2788   33.0608   43.9222 H   0  0  0  0  0  0  0  0  0  0  0  0
   58.1530   33.0054   42.5155 H   0  0  0  0  0  0  0  0  0  0  0  0
   56.5000   32.7750   44.6250 H   0  0  0  0  0  0  0  0  0  0  0  0
   57.2740   35.1184   45.6100 H   0  0  0  0  0  0  0  0  0  0  0  0
   59.5764   34.4737   44.5463 H   0  0  0  0  0  0  0  0  0  0  0  0
   59.4226   35.2611   46.2047 H   0  0  0  0  0  0  0  0  0  0  0  0
   60.5453   32.6316   45.4321 H   0  0  0  0  0  0  0  0  0  0  0  0
   60.8828   33.7430   46.8461 H   0  0  0  0  0  0  0  0  0  0  0  0
   61.3025   31.7982   47.7457 H   0  0  0  0  0  0  0  0  0  0  0  0
   60.1168   32.0179   49.0828 H   0  0  0  0  0  0  0  0  0  0  0  0
   58.6490   30.0440   46.3500 H   0  0  0  0  0  0  0  0  0  0  0  0
   60.2523   25.9998   46.4129 H   0  0  0  0  0  0  0  0  0  0  0  0
   59.0582   24.1848   45.1890 H   0  0  0  0  0  0  0  0  0  0  0  0
   56.5941   24.3360   44.8153 H   0  0  0  0  0  0  0  0  0  0  0  0
   56.5054   28.1282   46.8917 H   0  0  0  0  0  0  0  0  0  0  0  0
   60.8402   29.2653   50.9651 H   0  0  0  0  0  0  0  0  0  0  0  0
   62.1897   28.6170   49.9725 H   0  0  0  0  0  0  0  0  0  0  0  0
   61.8407   30.3791   49.9725 H   0  0  0  0  0  0  0  0  0  0  0  0
   57.9089   32.4568   48.6810 H   0  0  0  0  0  0  0  0  0  0  0  0
   58.7327   34.0047   48.3172 H   0  0  0  0  0  0  0  0  0  0  0  0
   56.6481   32.5344   46.6303 H   0  0  0  0  0  0  0  0  0  0  0  0
   56.5329   34.1778   47.4011 H   0  0  0  0  0  0  0  0  0  0  0  0
  1  2  1  0
  2  3  1  0
  3  4  1  0
  4  5  1  0
  5  6  1  0
  6  7  1  0
  7  8  1  0
  8  9  1  0
  9 10  1  0
 10 11  1  0
 11 12  1  0
 12 13  1  0
 13 14  2  0
 14 15  1  0
 15 16  2  0
 16 17  1  0
 17 18  2  0
 18 19  1  0
 19 20  1  0
 19 21  2  0
 14 22  1  0
 22 23  1  0
 23 24  1  0
 10 25  1  0
 25 26  1  0
 26  7  1  0
 23 12  2  0
 21 15  1  0
  1 27  1  0
  1 28  1  0
  1 29  1  0
  2 30  1  0
  2 31  1  0
  4 32  1  0
  4 33  1  0
  5 34  1  0
  5 35  1  0
  6 36  1  0
  7 37  1  0
  8 38  1  0
  8 39  1  0
  9 40  1  0
  9 41  1  0
 11 42  1  0
 11 43  1  0
 13 44  1  0
 16 45  1  0
 17 46  1  0
 18 47  1  0
 21 48  1  0
 24 49  1  0
 24 50  1  0
 24 51  1  0
 25 52  1  0
 25 53  1  0
 26 54  1  0
 26 55  1  0
M  CHG  1  13   1
M  END
>  <UniqueID>  (12) 
12

>  <SMILES>  (12) 
CCOCCNC1CCN(Cc2[nH+]c(-c3cccc(F)c3)oc2C)CC1

>  <Energy>  (12) 
97.73095710266242

>  <Genealogy>  (12) 
CCOCCNC1CCN(Cc2[nH+]c(-c3cccc(F)c3)oc2C)CC1 (protonated)
CCOCCNC1CCN(Cc2[nH+]c(-c3cccc(F)c3)oc2C)CC1 (3D coordinates assigned)
CCOCCNC1CCN(Cc2[nH+]c(-c3cccc(F)c3)oc2C)CC1 (nonaromatic ring conformer: 97.73095710266242 kcal/mol)

>  <smiles>  (12) 
CCOCCNC1CCN(Cc2nc(-c3cccc(F)c3)oc2C)CC1

>  <score_type>  (12) 
oracle

>  <origin>  (12) 
adg

>  <m_score__min__energy>  (12) 
-6.6500000000000004

>  <m_primary>  (12) 
energy

$$$$
13:0
     RDKit          3D

 34 35  0  0  0  0  0  0  0  0999 V2000
   57.5240   28.5920   43.7500 C   0  0  0  0  0  0  0  0  0  0  0  0
   56.5990   29.7380   43.3580 C   0  0  0  0  0  0  0  0  0  0  0  0
   56.2760   30.5400   44.4940 O   0  0  0  0  0  0  0  0  0  0  0  0
   57.1250   31.4790   45.1010 C   0  0  0  0  0  0  0  0  0  0  0  0
   57.0220   32.8660   44.8680 C   0  0  0  0  0  0  0  0  0  0  0  0
   57.8960   33.7540   45.5000 C   0  0  0  0  0  0  0  0  0  0  0  0
   58.8880   33.2740   46.3650 C   0  0  0  0  0  0  0  0  0  0  0  0
   59.9700   34.4010   47.1770 S   0  0  0  0  0  0  0  0  0  0  0  0
   59.2760   34.9680   48.3840 O   0  0  0  0  0  0  0  0  0  0  0  0
   60.3160   35.5330   46.2480 O   0  0  0  0  0  0  0  0  0  0  0  0
   61.4120   33.5560   47.6780 N   0  0  0  0  0  0  0  0  0  0  0  0
   62.4760   33.6830   46.6830 C   0  0  0  0  0  0  0  0  0  0  0  0
   63.7910   33.5490   47.4350 C   0  0  0  0  0  0  0  0  0  0  0  0
   63.4550   33.8420   48.8890 C   0  0  0  0  0  0  0  0  0  0  0  0
   61.9610   34.1240   48.9100 C   0  0  0  0  0  0  0  0  0  0  0  0
   58.9920   31.8970   46.6010 C   0  0  0  0  0  0  0  0  0  0  0  0
   58.1180   31.0080   45.9690 C   0  0  0  0  0  0  0  0  0  0  0  0
   57.5790   28.5239   44.8465 H   0  0  0  0  0  0  0  0  0  0  0  0
   57.1314   27.6484   43.3432 H   0  0  0  0  0  0  0  0  0  0  0  0
   58.5292   28.7766   43.3432 H   0  0  0  0  0  0  0  0  0  0  0  0
   57.0998   30.3643   42.6050 H   0  0  0  0  0  0  0  0  0  0  0  0
   55.6693   29.3163   42.9483 H   0  0  0  0  0  0  0  0  0  0  0  0
   56.2499   33.2506   44.1854 H   0  0  0  0  0  0  0  0  0  0  0  0
   57.8048   34.8349   45.3176 H   0  0  0  0  0  0  0  0  0  0  0  0
   62.3873   32.8874   45.9285 H   0  0  0  0  0  0  0  0  0  0  0  0
   62.4154   34.6476   46.1578 H   0  0  0  0  0  0  0  0  0  0  0  0
   64.1924   32.5302   47.3303 H   0  0  0  0  0  0  0  0  0  0  0  0
   64.5574   34.2352   47.0454 H   0  0  0  0  0  0  0  0  0  0  0  0
   63.6915   32.9734   49.5211 H   0  0  0  0  0  0  0  0  0  0  0  0
   64.0366   34.6898   49.2801 H   0  0  0  0  0  0  0  0  0  0  0  0
   61.4971   33.6487   49.7869 H   0  0  0  0  0  0  0  0  0  0  0  0
   61.7615   35.2039   48.9728 H   0  0  0  0  0  0  0  0  0  0  0  0
   59.7635   31.5145   47.2855 H   0  0  0  0  0  0  0  0  0  0  0  0
   58.2110   29.9279   46.1552 H   0  0  0  0  0  0  0  0  0  0  0  0
  1  2  1  0
  2  3  1  0
  3  4  1  0
  4  5  2  0
  5  6  1  0
  6  7  2  0
  7  8  1  0
  8  9  2  0
  8 10  2  0
  8 11  1  0
 11 12  1  0
 12 13  1  0
 13 14  1  0
 14 15  1  0
  7 16  1  0
 16 17  2  0
 17  4  1  0
 15 11  1  0
  1 18  1  0
  1 19  1  0
  1 20  1  0
  2 21  1  0
  2 22  1  0
  5 23  1  0
  6 24  1  0
 12 25  1  0
 12 26  1  0
 13 27  1  0
 13 28  1  0
 14 29  1  0
 14 30  1  0
 15 31  1  0
 15 32  1  0
 16 33  1  0
 17 34  1  0
M  END
>  <UniqueID>  (13) 
13

>  <SMILES>  (13) 
CCOc1ccc(S(=O)(=O)N2CCCC2)cc1

>  <Energy>  (13) 
31.273855643037376

>  <Genealogy>  (13) 
CCOc1ccc(S(=O)(=O)N2CCCC2)cc1 (3D coordinates assigned)
CCOc1ccc(S(=O)(=O)N2CCCC2)cc1 (nonaromatic ring conformer: 31.273855643037376 kcal/mol)

>  <smiles>  (13) 
CCOc1ccc(S(=O)(=O)N2CCCC2)cc1

>  <score_type>  (13) 
oracle

>  <origin>  (13) 
adg

>  <m_score__min__energy>  (13) 
-6.4900000000000002

>  <m_primary>  (13) 
energy

$$$$
14:0
     RDKit          3D

 35 37  0  0  0  0  0  0  0  0999 V2000
   55.5170   30.4560   44.0800 C   0  0  0  0  0  0  0  0  0  0  0  0
   56.8180   29.9730   44.5720 N   0  0  0  0  0  0  0  0  0  0  0  0
   57.9420   30.7810   44.5100 C   0  0  0  0  0  0  0  0  0  0  0  0
   57.8690   32.4750   43.8940 S   0  0  0  0  0  0  0  0  0  0  0  0
   57.6340   33.2410   45.5360 C   0  0  0  0  0  0  0  0  0  0  0  0
   58.9500   33.5570   46.1750 C   0  0  0  0  0  0  0  0  0  0  0  0
   59.0820   34.6440   46.7990 O   0  0  0  0  0  0  0  0  0  0  0  0
   60.0130   32.5900   46.1460 N   0  0  0  0  0  0  0  0  0  0  0  0
   61.2810   32.7640   46.7990 C   0  0  0  0  0  0  0  0  0  0  0  0
   62.1580   33.8040   46.4390 C   0  0  0  0  0  0  0  0  0  0  0  0
   63.3920   33.9400   47.0830 C   0  0  0  0  0  0  0  0  0  0  0  0
   63.7660   33.0350   48.0800 C   0  0  0  0  0  0  0  0  0  0  0  0
   62.9120   31.9850   48.4260 C   0  0  0  0  0  0  0  0  0  0  0  0
   61.6790   31.8440   47.7820 C   0  0  0  0  0  0  0  0  0  0  0  0
   59.1510   30.3210   44.9490 N   0  0  0  0  0  0  0  0  0  0  0  0
   59.2510   29.0830   45.4810 C   0  0  0  0  0  0  0  0  0  0  0  0
   60.4230   28.5120   45.9800 C   0  0  0  0  0  0  0  0  0  0  0  0
   60.2120   27.2320   46.4910 C   0  0  0  0  0  0  0  0  0  0  0  0
   58.5750   26.8300   46.3200 S   0  0  0  0  0  0  0  0  0  0  0  0
   58.1430   28.2820   45.5950 C   0  0  0  0  0  0  0  0  0  0  0  0
   56.9090   28.7230   45.1430 C   0  0  0  0  0  0  0  0  0  0  0  0
   55.8940   27.9820   45.2650 O   0  0  0  0  0  0  0  0  0  0  0  0
   54.8681   30.6969   44.9350 H   0  0  0  0  0  0  0  0  0  0  0  0
   55.6680   31.3580   43.4687 H   0  0  0  0  0  0  0  0  0  0  0  0
   55.0429   29.6740   43.4687 H   0  0  0  0  0  0  0  0  0  0  0  0
   57.0583   34.1711   45.4197 H   0  0  0  0  0  0  0  0  0  0  0  0
   57.0941   32.5307   46.1795 H   0  0  0  0  0  0  0  0  0  0  0  0
   59.7980   31.6430   45.7570 H   0  0  0  0  0  0  0  0  0  0  0  0
   61.8718   34.5128   45.6480 H   0  0  0  0  0  0  0  0  0  0  0  0
   64.0693   34.7607   46.8043 H   0  0  0  0  0  0  0  0  0  0  0  0
   64.7327   33.1494   48.5923 H   0  0  0  0  0  0  0  0  0  0  0  0
   63.2098   31.2686   49.2057 H   0  0  0  0  0  0  0  0  0  0  0  0
   61.0165   31.0069   48.0472 H   0  0  0  0  0  0  0  0  0  0  0  0
   61.4014   29.0146   45.9711 H   0  0  0  0  0  0  0  0  0  0  0  0
   60.9846   26.5865   46.9342 H   0  0  0  0  0  0  0  0  0  0  0  0
  1  2  1  0
  2  3  1  0
  3  4  1  0
  4  5  1  0
  5  6  1  0
  6  7  2  0
  6  8  1  0
  8  9  1  0
  9 10  2  0
 10 11  1  0
 11 12  2  0
 12 13  1  0
 13 14  2  0
  3 15  2  0
 15 16  1  0
 16 17  1  0
 17 18  2  0
 18 19  1  0
 19 20  1  0
 20 21  1  0
 21 22  2  0
 21  2  1  0
 14  9  1  0
 20 16  2  0
  1 23  1  0
  1 24  1  0
  1 25  1  0
  5 26  1  0
  5 27  1  0
  8 28  1  0
 10 29  1  0
 11 30  1  0
 12 31  1  0
 13 32  1  0
 14 33  1  0
 17 34  1  0
 18 35  1  0
M  END
>  <UniqueID>  (14) 
14

>  <SMILES>  (14) 
Cn1c(SCC(=O)Nc2ccccc2)nc2ccsc2c1=O

>  <Energy>  (14) 
70.37569086451143

>  <Genealogy>  (14) 
Cn1c(SCC(=O)Nc2ccccc2)nc2ccsc2c1=O (3D coordinates assigned)
Cn1c(SCC(=O)Nc2ccccc2)nc2ccsc2c1=O (optimized conformer: 70.37569086451143 kcal/mol)

>  <smiles>  (14) 
Cn1c(SCC(=O)Nc2ccccc2)nc2ccsc2c1=O

>  <score_type>  (14) 
oracle

>  <origin>  (14) 
adg

>  <m_score__min__energy>  (14) 
-7.0599999999999996

>  <m_primary>  (14) 
energy

$$$$
15:0
     RDKit          3D

 49 51  0  0  0  0  0  0  0  0999 V2000
   64.7400   32.9880   49.8010 C   0  0  0  0  0  0  0  0  0  0  0  0
   63.7000   33.2720   48.7510 C   0  0  0  0  0  0  0  0  0  0  0  0
   64.1120   33.3790   47.4020 C   0  0  0  0  0  0  0  0  0  0  0  0
   63.1860   33.6550   46.3810 C   0  0  0  0  0  0  0  0  0  0  0  0
   61.8300   33.8270   46.6790 C   0  0  0  0  0  0  0  0  0  0  0  0
   61.4300   33.7060   48.0100 C   0  0  0  0  0  0  0  0  0  0  0  0
   60.1740   33.8540   48.5610 C   0  0  0  0  0  0  0  0  0  0  0  0
   58.9250   34.2380   47.8110 C   0  0  0  0  0  0  0  0  0  0  0  0
   58.1180   33.0530   47.4850 N   0  0  0  0  0  0  0  0  0  0  0  0
   58.7990   32.1390   46.5500 C   0  0  0  0  0  0  0  0  0  0  0  0
   58.0900   32.1550   45.1910 C   0  0  0  0  0  0  0  0  0  0  0  0
   57.1140   31.0480   45.0950 N   0  0  0  0  0  0  0  0  0  0  0  0
   57.7140   29.7890   45.5850 C   0  0  0  0  0  0  0  0  0  0  0  0
   56.8150   28.5800   45.2560 C   0  0  0  0  0  0  0  0  0  0  0  0
   55.5250   29.0020   44.8610 O   0  0  0  0  0  0  0  0  0  0  0  0
   55.6110   29.7190   43.6430 C   0  0  0  0  0  0  0  0  0  0  0  0
   56.6430   30.8660   43.7080 C   0  0  0  0  0  0  0  0  0  0  0  0
   60.3490   33.6720   49.9360 C   0  0  0  0  0  0  0  0  0  0  0  0
   59.2680   33.7540   50.9800 C   0  0  0  0  0  0  0  0  0  0  0  0
   61.6530   33.3910   50.2150 N   0  0  0  0  0  0  0  0  0  0  0  0
   62.2030   33.1440   51.5520 C   0  0  0  0  0  0  0  0  0  0  0  0
   62.3180   33.4340   49.0290 C   0  0  0  0  0  0  0  0  0  0  0  0
   64.2954   33.1094   50.7998 H   0  0  0  0  0  0  0  0  0  0  0  0
   65.1058   31.9571   49.6854 H   0  0  0  0  0  0  0  0  0  0  0  0
   65.5790   33.6899   49.6854 H   0  0  0  0  0  0  0  0  0  0  0  0
   65.1737   33.2441   47.1479 H   0  0  0  0  0  0  0  0  0  0  0  0
   63.5303   33.7364   45.3395 H   0  0  0  0  0  0  0  0  0  0  0  0
   61.1004   34.0511   45.8869 H   0  0  0  0  0  0  0  0  0  0  0  0
   58.3271   34.9196   48.4339 H   0  0  0  0  0  0  0  0  0  0  0  0
   59.2186   34.7299   46.8719 H   0  0  0  0  0  0  0  0  0  0  0  0
   57.2420   33.3940   47.0240 H   0  0  0  0  0  0  0  0  0  0  0  0
   59.8425   32.4618   46.4202 H   0  0  0  0  0  0  0  0  0  0  0  0
   58.7722   31.1183   46.9591 H   0  0  0  0  0  0  0  0  0  0  0  0
   57.5622   33.1126   45.0708 H   0  0  0  0  0  0  0  0  0  0  0  0
   58.8431   32.0309   44.3989 H   0  0  0  0  0  0  0  0  0  0  0  0
   58.6944   29.6483   45.1065 H   0  0  0  0  0  0  0  0  0  0  0  0
   57.8228   29.8561   46.6775 H   0  0  0  0  0  0  0  0  0  0  0  0
   57.2716   28.0041   44.4376 H   0  0  0  0  0  0  0  0  0  0  0  0
   56.7198   27.9576   46.1580 H   0  0  0  0  0  0  0  0  0  0  0  0
   55.9055   29.0234   42.8434 H   0  0  0  0  0  0  0  0  0  0  0  0
   54.6251   30.1650   43.4455 H   0  0  0  0  0  0  0  0  0  0  0  0
   57.4994   30.6217   43.0623 H   0  0  0  0  0  0  0  0  0  0  0  0
   56.1681   31.7968   43.3645 H   0  0  0  0  0  0  0  0  0  0  0  0
   59.7220   33.7196   51.9814 H   0  0  0  0  0  0  0  0  0  0  0  0
   58.7139   34.6968   50.8608 H   0  0  0  0  0  0  0  0  0  0  0  0
   58.5780   32.9056   50.8608 H   0  0  0  0  0  0  0  0  0  0  0  0
   61.4781   33.4696   52.3126 H   0  0  0  0  0  0  0  0  0  0  0  0
   62.4038   32.0693   51.6731 H   0  0  0  0  0  0  0  0  0  0  0  0
   63.1397   33.7079   51.6731 H   0  0  0  0  0  0  0  0  0  0  0  0
  1  2  1  0
  2  3  2  0
  3  4  1  0
  4  5  2  0
  5  6  1  0
  6  7  1  0
  7  8  1  0
  8  9  1  0
  9 10  1  0
 10 11  1  0
 11 12  1  0
 12 13  1  0
 13 14  1  0
 14 15  1  0
 15 16  1  0
 16 17  1  0
  7 18  2  0
 18 19  1  0
 18 20  1  0
 20 21  1  0
 20 22  1  0
 22  2  1  0
 22  6  2  0
 17 12  1  0
  1 23  1  0
  1 24  1  0
  1 25  1  0
  3 26  1  0
  4 27  1  0
  5 28  1  0
  8 29  1  0
  8 30  1  0
  9 31  1  0
 10 32  1  0
 10 33  1  0
 11 34  1  0
 11 35  1  0
 13 36  1  0
 13 37  1  0
 14 38  1  0
 14 39  1  0
 16 40  1  0
 16 41  1  0
 17 42  1  0
 17 43  1  0
 19 44  1  0
 19 45  1  0
 19 46  1  0
 21 47  1  0
 21 48  1  0
 21 49  1  0
M  END
>  <UniqueID>  (15) 
15

>  <SMILES>  (15) 
Cc1cccc2c(CNCCN3CCOCC3)c(C)n(C)c12

>  <Energy>  (15) 
92.9544835488763

>  <Genealogy>  (15) 
Cc1cccc2c(CNCCN3CCOCC3)c(C)n(C)c12 (3D coordinates assigned)
Cc1cccc2c(CNCCN3CCOCC3)c(C)n(C)c12 (nonaromatic ring conformer: 92.9544835488763 kcal/mol)

>  <smiles>  (15) 
Cc1cccc2c(CNCCN3CCOCC3)c(C)n(C)c12

>  <score_type>  (15) 
oracle

>  <origin>  (15) 
adg

>  <m_score__min__energy>  (15) 
-8.1600000000000001

>  <m_primary>  (15) 
energy

$$$$
16:0
     RDKit          3D

 71 73  0  0  0  0  0  0  0  0999 V2000
   61.1550   26.5990   50.6910 C   0  0  0  0  0  0  0  0  0  0  0  0
   60.7760   27.5730   49.5720 C   0  0  0  0  0  0  0  0  0  0  0  0
   60.6700   28.9810   50.0130 N   0  0  0  0  0  0  0  0  0  0  0  0
   61.9050   29.5210   50.6440 C   0  0  0  0  0  0  0  0  0  0  0  0
   61.6880   30.2910   51.9560 C   0  0  0  0  0  0  0  0  0  0  0  0
   59.3870   29.3050   50.6750 C   0  0  0  0  0  0  0  0  0  0  0  0
   58.7390   30.5450   50.0500 C   0  0  0  0  0  0  0  0  0  0  0  0
   59.7420   31.4790   49.6940 O   0  0  0  0  0  0  0  0  0  0  0  0
   59.5810   32.6810   50.4210 C   0  0  0  0  0  0  0  0  0  0  0  0
   59.6830   33.8700   49.4670 C   0  0  0  0  0  0  0  0  0  0  0  0
   60.8780   34.5940   49.6930 O   0  0  0  0  0  0  0  0  0  0  0  0
   61.9520   34.0850   48.9210 C   0  0  0  0  0  0  0  0  0  0  0  0
   62.8880   33.2760   49.8100 C   0  0  0  0  0  0  0  0  0  0  0  0
   62.8380   31.9210   49.4150 O   0  0  0  0  0  0  0  0  0  0  0  0
   63.4660   31.7380   48.1610 C   0  0  0  0  0  0  0  0  0  0  0  0
   62.4680   31.2050   47.1200 C   0  0  0  0  0  0  0  0  0  0  0  0
   61.1010   31.1400   47.6650 N   0  0  0  0  0  0  0  0  0  0  0  0
   60.1220   31.0550   46.5910 C   0  0  0  0  0  0  0  0  0  0  0  0
   59.6740   29.7900   46.1270 C   0  0  0  0  0  0  0  0  0  0  0  0
   60.2670   28.5830   46.5740 C   0  0  0  0  0  0  0  0  0  0  0  0
   59.7510   27.3460   46.2010 C   0  0  0  0  0  0  0  0  0  0  0  0
   58.6320   27.2790   45.3850 C   0  0  0  0  0  0  0  0  0  0  0  0
   58.0630   28.4470   44.8820 C   0  0  0  0  0  0  0  0  0  0  0  0
   58.6060   29.7220   45.1900 C   0  0  0  0  0  0  0  0  0  0  0  0
   58.1140   30.8730   44.6090 N   0  0  0  0  0  0  0  0  0  0  0  0
   57.2280   30.7850   43.4240 C   0  0  0  0  0  0  0  0  0  0  0  0
   58.4920   32.1130   45.0890 C   0  0  0  0  0  0  0  0  0  0  0  0
   57.8350   33.2990   44.6660 C   0  0  0  0  0  0  0  0  0  0  0  0
   58.2760   34.5540   45.0760 C   0  0  0  0  0  0  0  0  0  0  0  0
   59.3720   34.6650   45.9160 C   0  0  0  0  0  0  0  0  0  0  0  0
   60.0060   33.5210   46.3930 C   0  0  0  0  0  0  0  0  0  0  0  0
   59.5500   32.2280   46.0340 C   0  0  0  0  0  0  0  0  0  0  0  0
   60.9709   27.0721   51.6669 H   0  0  0  0  0  0  0  0  0  0  0  0
   60.5462   25.6869   50.6050 H   0  0  0  0  0  0  0  0  0  0  0  0
   62.2202   26.3383   50.6050 H   0  0  0  0  0  0  0  0  0  0  0  0
   61.5433   27.5131   48.7861 H   0  0  0  0  0  0  0  0  0  0  0  0
   59.7797   27.2750   49.2133 H   0  0  0  0  0  0  0  0  0  0  0  0
   62.5775   28.6760   50.8529 H   0  0  0  0  0  0  0  0  0  0  0  0
   62.3196   30.2473   49.9295 H   0  0  0  0  0  0  0  0  0  0  0  0
   61.8764   29.6225   52.8090 H   0  0  0  0  0  0  0  0  0  0  0  0
   62.3806   31.1445   51.9991 H   0  0  0  0  0  0  0  0  0  0  0  0
   60.6517   30.6572   51.9991 H   0  0  0  0  0  0  0  0  0  0  0  0
   58.7026   28.4504   50.5689 H   0  0  0  0  0  0  0  0  0  0  0  0
   59.5855   29.5133   51.7367 H   0  0  0  0  0  0  0  0  0  0  0  0
   58.1778   30.2505   49.1509 H   0  0  0  0  0  0  0  0  0  0  0  0
   58.0547   31.0048   50.7782 H   0  0  0  0  0  0  0  0  0  0  0  0
   58.5950   32.6855   50.9086 H   0  0  0  0  0  0  0  0  0  0  0  0
   60.3682   32.7556   51.1857 H   0  0  0  0  0  0  0  0  0  0  0  0
   59.6745   33.5024   48.4303 H   0  0  0  0  0  0  0  0  0  0  0  0
   58.8270   34.5381   49.6431 H   0  0  0  0  0  0  0  0  0  0  0  0
   61.5550   33.4384   48.1246 H   0  0  0  0  0  0  0  0  0  0  0  0
   62.5081   34.9228   48.4752 H   0  0  0  0  0  0  0  0  0  0  0  0
   63.9157   33.6536   49.7041 H   0  0  0  0  0  0  0  0  0  0  0  0
   62.5764   33.3692   50.8608 H   0  0  0  0  0  0  0  0  0  0  0  0
   63.8669   32.7021   47.8149 H   0  0  0  0  0  0  0  0  0  0  0  0
   64.2771   31.0043   48.2780 H   0  0  0  0  0  0  0  0  0  0  0  0
   62.4727   31.8728   46.2459 H   0  0  0  0  0  0  0  0  0  0  0  0
   62.7752   30.1872   46.8375 H   0  0  0  0  0  0  0  0  0  0  0  0
   60.9200   31.9590   48.2850 H   0  0  0  0  0  0  0  0  0  0  0  0
   60.9920   30.3300   48.3180 H   0  0  0  0  0  0  0  0  0  0  0  0
   61.1509   28.6249   47.2274 H   0  0  0  0  0  0  0  0  0  0  0  0
   60.2308   26.4210   46.5535 H   0  0  0  0  0  0  0  0  0  0  0  0
   58.1928   26.3021   45.1344 H   0  0  0  0  0  0  0  0  0  0  0  0
   57.1765   28.3800   44.2342 H   0  0  0  0  0  0  0  0  0  0  0  0
   56.1838   30.6813   43.7538 H   0  0  0  0  0  0  0  0  0  0  0  0
   57.3326   31.6980   42.8194 H   0  0  0  0  0  0  0  0  0  0  0  0
   57.5101   29.9105   42.8194 H   0  0  0  0  0  0  0  0  0  0  0  0
   56.9613   33.2244   44.0019 H   0  0  0  0  0  0  0  0  0  0  0  0
   57.7535   35.4590   44.7325 H   0  0  0  0  0  0  0  0  0  0  0  0
   59.7421   35.6592   46.2067 H   0  0  0  0  0  0  0  0  0  0  0  0
   60.8752   33.6223   47.0595 H   0  0  0  0  0  0  0  0  0  0  0  0
  1  2  1  0
  2  3  1  0
  3  4  1  0
  4  5  1  0
  3  6  1  0
  6  7  1  0
  7  8  1  0
  8  9  1  0
  9 10  1  0
 10 11  1  0
 11 12  1  0
 12 13  1  0
 13 14  1  0
 14 15  1  0
 15 16  1  0
 16 17  1  0
 17 18  1  0
 18 19  2  0
 19 20  1  0
 20 21  2  0
 21 22  1  0
 22 23  2  0
 23 24  1  0
 24 25  2  0
 25 26  1  0
 25 27  1  0
 27 28  2  0
 28 29  1  0
 29 30  2  0
 30 31  1  0
 31 32  2  0
 32 18  1  0
 24 19  1  0
 32 27  1  0
  1 33  1  0
  1 34  1  0
  1 35  1  0
  2 36  1  0
  2 37  1  0
  4 38  1  0
  4 39  1  0
  5 40  1  0
  5 41  1  0
  5 42  1  0
  6 43  1  0
  6 44  1  0
  7 45  1  0
  7 46  1  0
  9 47  1  0
  9 48  1  0
 10 49  1  0
 10 50  1  0
 12 51  1  0
 12 52  1  0
 13 53  1  0
 13 54  1  0
 15 55  1  0
 15 56  1  0
 16 57  1  0
 16 58  1  0
 17 59  1  0
 17 60  1  0
 20 61  1  0
 21 62  1  0
 22 63  1  0
 23 64  1  0
 26 65  1  0
 26 66  1  0
 26 67  1  0
 28 68  1  0
 29 69  1  0
 30 70  1  0
 31 71  1  0
M  CHG  2  17   1  25   1
M  END
>  <UniqueID>  (16) 
16

>  <SMILES>  (16) 
CCN(CC)CCOCCOCCOCC[NH2+]c1c2ccccc2[n+](C)c2ccccc12

>  <Energy>  (16) 
103.77818242348292

>  <Genealogy>  (16) 
CCN(CC)CCOCCOCCOCC[NH2+]c1c2ccccc2[n+](C)c2ccccc12 (protonated)
CCN(CC)CCOCCOCCOCC[NH2+]c1c2ccccc2[n+](C)c2ccccc12 (3D coordinates assigned)
CCN(CC)CCOCCOCCOCC[NH2+]c1c2ccccc2[n+](C)c2ccccc12 (optimized conformer: 103.77818242348292 kcal/mol)

>  <smiles>  (16) 
CCN(CC)CCOCCOCCOCCNc1c2ccccc2[n+](C)c2ccccc12

>  <score_type>  (16) 
oracle

>  <origin>  (16) 
adg

>  <m_score__min__energy>  (16) 
-3.1499999999999999

>  <m_primary>  (16) 
energy

$$$$
17:0
     RDKit          3D

 37 38  0  0  0  0  0  0  0  0999 V2000
   62.7040   33.4540   47.3770 C   0  0  0  0  0  0  0  0  0  0  0  0
   61.4140   34.0730   47.8880 C   0  0  0  0  0  0  0  0  0  0  0  0
   60.6170   34.4940   46.7840 O   0  0  0  0  0  0  0  0  0  0  0  0
   59.5340   33.7670   46.2680 C   0  0  0  0  0  0  0  0  0  0  0  0
   58.4880   34.3800   45.5520 C   0  0  0  0  0  0  0  0  0  0  0  0
   57.4190   33.6160   45.0770 C   0  0  0  0  0  0  0  0  0  0  0  0
   57.3700   32.2340   45.3210 C   0  0  0  0  0  0  0  0  0  0  0  0
   56.2840   31.4290   44.8430 N   0  0  0  0  0  0  0  0  0  0  0  0
   56.3570   30.0410   44.4840 C   0  0  0  0  0  0  0  0  0  0  0  0
   55.4640   29.2580   44.9010 O   0  0  0  0  0  0  0  0  0  0  0  0
   57.4070   29.5170   43.5440 C   0  0  0  0  0  0  0  0  0  0  0  0
   57.3980   28.0460   43.5240 N   0  0  0  0  0  0  0  0  0  0  0  0
   58.7030   27.4930   43.9180 C   0  0  0  0  0  0  0  0  0  0  0  0
   59.1470   28.0020   45.2610 C   0  0  0  0  0  0  0  0  0  0  0  0
   58.4510   27.8620   46.4550 C   0  0  0  0  0  0  0  0  0  0  0  0
   59.0820   28.4850   47.5380 C   0  0  0  0  0  0  0  0  0  0  0  0
   60.2690   29.1230   47.2000 C   0  0  0  0  0  0  0  0  0  0  0  0
   60.5330   28.9100   45.5530 S   0  0  0  0  0  0  0  0  0  0  0  0
   58.4320   31.6200   45.9940 C   0  0  0  0  0  0  0  0  0  0  0  0
   59.5000   32.3830   46.4740 C   0  0  0  0  0  0  0  0  0  0  0  0
   63.3298   33.1537   48.2304 H   0  0  0  0  0  0  0  0  0  0  0  0
   62.4695   32.5703   46.7653 H   0  0  0  0  0  0  0  0  0  0  0  0
   63.2466   34.1898   46.7653 H   0  0  0  0  0  0  0  0  0  0  0  0
   60.8590   33.3286   48.4777 H   0  0  0  0  0  0  0  0  0  0  0  0
   61.6504   34.9412   48.5207 H   0  0  0  0  0  0  0  0  0  0  0  0
   58.5125   35.4639   45.3660 H   0  0  0  0  0  0  0  0  0  0  0  0
   56.6111   34.0999   44.5086 H   0  0  0  0  0  0  0  0  0  0  0  0
   57.2048   29.8934   42.5304 H   0  0  0  0  0  0  0  0  0  0  0  0
   58.3937   29.8605   43.8882 H   0  0  0  0  0  0  0  0  0  0  0  0
   56.6600   27.6800   44.1700 H   0  0  0  0  0  0  0  0  0  0  0  0
   58.6258   26.3966   43.9614 H   0  0  0  0  0  0  0  0  0  0  0  0
   59.4461   27.8099   43.1715 H   0  0  0  0  0  0  0  0  0  0  0  0
   57.4997   27.3164   46.5408 H   0  0  0  0  0  0  0  0  0  0  0  0
   58.6763   28.4708   48.5604 H   0  0  0  0  0  0  0  0  0  0  0  0
   60.9240   29.6733   47.8915 H   0  0  0  0  0  0  0  0  0  0  0  0
   58.4263   30.5306   46.1461 H   0  0  0  0  0  0  0  0  0  0  0  0
   60.3204   31.8920   47.0180 H   0  0  0  0  0  0  0  0  0  0  0  0
  1  2  1  0
  2  3  1  0
  3  4  1  0
  4  5  2  0
  5  6  1  0
  6  7  2  0
  7  8  1  0
  8  9  1  0
  9 10  2  0
  9 11  1  0
 11 12  1  0
 12 13  1  0
 13 14  1  0
 14 15  2  0
 15 16  1  0
 16 17  2  0
 17 18  1  0
  7 19  1  0
 19 20  2  0
 20  4  1  0
 18 14  1  0
  1 21  1  0
  1 22  1  0
  1 23  1  0
  2 24  1  0
  2 25  1  0
  5 26  1  0
  6 27  1  0
 11 28  1  0
 11 29  1  0
 12 30  1  0
 13 31  1  0
 13 32  1  0
 15 33  1  0
 16 34  1  0
 17 35  1  0
 19 36  1  0
 20 37  1  0
M  CHG  1   8  -1
M  END
>  <UniqueID>  (17) 
17

>  <SMILES>  (17) 
CCOc1ccc([N-]C(=O)CNCc2cccs2)cc1

>  <Energy>  (17) 
60.12031564188612

>  <Genealogy>  (17) 
CCOc1ccc([N-]C(=O)CNCc2cccs2)cc1 (protonated)
CCOc1ccc([N-]C(=O)CNCc2cccs2)cc1 (3D coordinates assigned)
CCOc1ccc([N-]C(=O)CNCc2cccs2)cc1 (optimized conformer: 60.12031564188612 kcal/mol)

>  <smiles>  (17) 
CCOc1ccc(NC(=O)CNCc2cccs2)cc1

>  <score_type>  (17) 
oracle

>  <origin>  (17) 
adg

>  <m_score__min__energy>  (17) 
-8.2899999999999991

>  <m_primary>  (17) 
energy

$$$$
18:0
     RDKit          3D

 45 46  0  0  0  0  0  0  0  0999 V2000
   55.2550   30.7200   52.0990 C   0  0  0  0  0  0  0  0  0  0  0  0
   56.7540   31.0110   52.0950 C   0  0  0  0  0  0  0  0  0  0  0  0
   57.0620   32.1700   51.2380 N   0  0  0  0  0  0  0  0  0  0  0  0
   58.5150   32.3460   51.0550 C   0  0  0  0  0  0  0  0  0  0  0  0
   58.8870   32.5800   49.5780 C   0  0  0  0  0  0  0  0  0  0  0  0
   59.7450   33.8440   49.3720 C   0  0  0  0  0  0  0  0  0  0  0  0
   61.0330   33.5870   48.6070 C   0  0  0  0  0  0  0  0  0  0  0  0
   62.0970   32.9300   49.2590 C   0  0  0  0  0  0  0  0  0  0  0  0
   63.3020   32.6890   48.6000 C   0  0  0  0  0  0  0  0  0  0  0  0
   63.4830   33.1260   47.2910 C   0  0  0  0  0  0  0  0  0  0  0  0
   62.4630   33.8210   46.6420 C   0  0  0  0  0  0  0  0  0  0  0  0
   61.2370   34.0570   47.2820 C   0  0  0  0  0  0  0  0  0  0  0  0
   60.0220   35.0480   46.3890 S   0  0  0  0  0  0  0  0  0  0  0  0
   59.0050   33.6410   45.9330 C   0  0  0  0  0  0  0  0  0  0  0  0
   59.4550   32.3360   46.1660 C   0  0  0  0  0  0  0  0  0  0  0  0
   58.6560   31.2440   45.8140 C   0  0  0  0  0  0  0  0  0  0  0  0
   57.4020   31.4490   45.2070 C   0  0  0  0  0  0  0  0  0  0  0  0
   56.5590   30.3890   44.8410 O   0  0  0  0  0  0  0  0  0  0  0  0
   56.5450   29.7830   43.5510 C   0  0  0  0  0  0  0  0  0  0  0  0
   56.9740   32.7570   44.9510 C   0  0  0  0  0  0  0  0  0  0  0  0
   57.7750   33.8460   45.3030 C   0  0  0  0  0  0  0  0  0  0  0  0
   54.8977   30.6506   53.1370 H   0  0  0  0  0  0  0  0  0  0  0  0
   54.7226   31.5315   51.5814 H   0  0  0  0  0  0  0  0  0  0  0  0
   55.0649   29.7682   51.5814 H   0  0  0  0  0  0  0  0  0  0  0  0
   57.0820   31.2257   53.1228 H   0  0  0  0  0  0  0  0  0  0  0  0
   57.2820   30.1309   51.6993 H   0  0  0  0  0  0  0  0  0  0  0  0
   56.6330   32.0070   50.2970 H   0  0  0  0  0  0  0  0  0  0  0  0
   56.6400   33.0390   51.6420 H   0  0  0  0  0  0  0  0  0  0  0  0
   58.8448   33.2132   51.6459 H   0  0  0  0  0  0  0  0  0  0  0  0
   59.0135   31.4240   51.3888 H   0  0  0  0  0  0  0  0  0  0  0  0
   59.4520   31.7086   49.2154 H   0  0  0  0  0  0  0  0  0  0  0  0
   57.9504   32.7202   49.0184 H   0  0  0  0  0  0  0  0  0  0  0  0
   59.1497   34.5811   48.8131 H   0  0  0  0  0  0  0  0  0  0  0  0
   60.0298   34.2069   50.3706 H   0  0  0  0  0  0  0  0  0  0  0  0
   61.9746   32.6030   50.3021 H   0  0  0  0  0  0  0  0  0  0  0  0
   64.1116   32.1521   49.1160 H   0  0  0  0  0  0  0  0  0  0  0  0
   64.4298   32.9233   46.7689 H   0  0  0  0  0  0  0  0  0  0  0  0
   62.6213   34.1881   45.6172 H   0  0  0  0  0  0  0  0  0  0  0  0
   60.4397   32.1693   46.6272 H   0  0  0  0  0  0  0  0  0  0  0  0
   59.0082   30.2209   46.0120 H   0  0  0  0  0  0  0  0  0  0  0  0
   56.5197   28.6887   43.6602 H   0  0  0  0  0  0  0  0  0  0  0  0
   55.6543   30.1170   42.9986 H   0  0  0  0  0  0  0  0  0  0  0  0
   57.4501   30.0756   42.9986 H   0  0  0  0  0  0  0  0  0  0  0  0
   56.0001   32.9285   44.4693 H   0  0  0  0  0  0  0  0  0  0  0  0
   57.4359   34.8691   45.0833 H   0  0  0  0  0  0  0  0  0  0  0  0
  1  2  1  0
  2  3  1  0
  3  4  1  0
  4  5  1  0
  5  6  1  0
  6  7  1  0
  7  8  2  0
  8  9  1  0
  9 10  2  0
 10 11  1  0
 11 12  2  0
 12 13  1  0
 13 14  1  0
 14 15  2  0
 15 16  1  0
 16 17  2  0
 17 18  1  0
 18 19  1  0
 17 20  1  0
 20 21  2  0
 12  7  1  0
 21 14  1  0
  1 22  1  0
  1 23  1  0
  1 24  1  0
  2 25  1  0
  2 26  1  0
  3 27  1  0
  3 28  1  0
  4 29  1  0
  4 30  1  0
  5 31  1  0
  5 32  1  0
  6 33  1  0
  6 34  1  0
  8 35  1  0
  9 36  1  0
 10 37  1  0
 11 38  1  0
 15 39  1  0
 16 40  1  0
 19 41  1  0
 19 42  1  0
 19 43  1  0
 20 44  1  0
 21 45  1  0
M  CHG  1   3   1
M  END
>  <UniqueID>  (18) 
18

>  <SMILES>  (18) 
CC[NH2+]CCCc1ccccc1Sc1ccc(OC)cc1

>  <Energy>  (18) 
36.57923841267551

>  <Genealogy>  (18) 
CC[NH2+]CCCc1ccccc1Sc1ccc(OC)cc1 (protonated)
CC[NH2+]CCCc1ccccc1Sc1ccc(OC)cc1 (3D coordinates assigned)
CC[NH2+]CCCc1ccccc1Sc1ccc(OC)cc1 (optimized conformer: 36.57923841267551 kcal/mol)

>  <smiles>  (18) 
CCNCCCc1ccccc1Sc1ccc(OC)cc1

>  <score_type>  (18) 
oracle

>  <origin>  (18) 
adg

>  <m_score__min__energy>  (18) 
-5.9000000000000004

>  <m_primary>  (18) 
energy

$$$$
19:0
     RDKit          3D

 47 49  0  0  0  0  0  0  0  0999 V2000
   64.5250   32.9460   49.3780 C   0  0  0  0  0  0  0  0  0  0  0  0
   63.3550   33.7410   48.8050 C   0  0  0  0  0  0  0  0  0  0  0  0
   62.7830   33.1050   47.5940 N   0  0  0  0  0  0  0  0  0  0  0  0
   63.2480   33.8450   46.4070 C   0  0  0  0  0  0  0  0  0  0  0  0
   63.1430   31.6680   47.4810 C   0  0  0  0  0  0  0  0  0  0  0  0
   61.8900   30.7690   47.5180 C   0  0  0  0  0  0  0  0  0  0  0  0
   60.6940   31.4460   48.0680 N   0  0  0  0  0  0  0  0  0  0  0  0
   59.6780   31.6890   47.0530 C   0  0  0  0  0  0  0  0  0  0  0  0
   59.0090   30.6110   46.3990 C   0  0  0  0  0  0  0  0  0  0  0  0
   58.8760   29.3380   47.0030 C   0  0  0  0  0  0  0  0  0  0  0  0
   58.2670   28.2830   46.3280 C   0  0  0  0  0  0  0  0  0  0  0  0
   57.7560   28.4710   45.0520 C   0  0  0  0  0  0  0  0  0  0  0  0
   57.8200   29.7240   44.4490 C   0  0  0  0  0  0  0  0  0  0  0  0
   58.4280   30.8220   45.1060 C   0  0  0  0  0  0  0  0  0  0  0  0
   58.4530   32.0750   44.5290 N   0  0  0  0  0  0  0  0  0  0  0  0
   57.9590   32.2970   43.1560 C   0  0  0  0  0  0  0  0  0  0  0  0
   58.8800   33.1320   45.2830 C   0  0  0  0  0  0  0  0  0  0  0  0
   58.8020   34.7640   44.8730 S   0  0  0  0  0  0  0  0  0  0  0  0
   59.4510   35.3350   46.3080 C   0  0  0  0  0  0  0  0  0  0  0  0
   59.7350   34.2560   47.1450 C   0  0  0  0  0  0  0  0  0  0  0  0
   60.1410   34.4990   48.5720 C   0  0  0  0  0  0  0  0  0  0  0  0
   59.4450   32.9930   46.5470 C   0  0  0  0  0  0  0  0  0  0  0  0
   64.4840   32.9738   50.4769 H   0  0  0  0  0  0  0  0  0  0  0  0
   64.4623   31.9027   49.0350 H   0  0  0  0  0  0  0  0  0  0  0  0
   65.4719   33.3885   49.0350 H   0  0  0  0  0  0  0  0  0  0  0  0
   62.5687   33.8151   49.5707 H   0  0  0  0  0  0  0  0  0  0  0  0
   63.7309   34.7342   48.5183 H   0  0  0  0  0  0  0  0  0  0  0  0
   63.8080   34.7362   46.7266 H   0  0  0  0  0  0  0  0  0  0  0  0
   63.9020   33.1977   45.8043 H   0  0  0  0  0  0  0  0  0  0  0  0
   62.3810   34.1534   45.8043 H   0  0  0  0  0  0  0  0  0  0  0  0
   63.6722   31.5053   46.5305 H   0  0  0  0  0  0  0  0  0  0  0  0
   63.7840   31.4036   48.3350 H   0  0  0  0  0  0  0  0  0  0  0  0
   61.6647   30.4432   46.4918 H   0  0  0  0  0  0  0  0  0  0  0  0
   62.1179   29.9233   48.1834 H   0  0  0  0  0  0  0  0  0  0  0  0
   60.3540   30.8640   48.8610 H   0  0  0  0  0  0  0  0  0  0  0  0
   60.9680   32.3490   48.5100 H   0  0  0  0  0  0  0  0  0  0  0  0
   59.2597   29.1794   48.0216 H   0  0  0  0  0  0  0  0  0  0  0  0
   58.1908   27.2965   46.8086 H   0  0  0  0  0  0  0  0  0  0  0  0
   57.2987   27.6270   44.5149 H   0  0  0  0  0  0  0  0  0  0  0  0
   57.3913   29.8639   43.4457 H   0  0  0  0  0  0  0  0  0  0  0  0
   56.9563   32.7476   43.1955 H   0  0  0  0  0  0  0  0  0  0  0  0
   58.6444   32.9736   42.6246 H   0  0  0  0  0  0  0  0  0  0  0  0
   57.9081   31.3352   42.6246 H   0  0  0  0  0  0  0  0  0  0  0  0
   59.6256   36.3934   46.5516 H   0  0  0  0  0  0  0  0  0  0  0  0
   59.3954   34.0527   49.2464 H   0  0  0  0  0  0  0  0  0  0  0  0
   61.1236   34.0404   48.7568 H   0  0  0  0  0  0  0  0  0  0  0  0
   60.2011   35.5817   48.7568 H   0  0  0  0  0  0  0  0  0  0  0  0
  1  2  1  0
  2  3  1  0
  3  4  1  0
  3  5  1  0
  5  6  1  0
  6  7  1  0
  7  8  1  0
  8  9  2  0
  9 10  1  0
 10 11  2  0
 11 12  1  0
 12 13  2  0
 13 14  1  0
 14 15  2  0
 15 16  1  0
 15 17  1  0
 17 18  1  0
 18 19  1  0
 19 20  2  0
 20 21  1  0
 20 22  1  0
 22  8  1  0
 14  9  1  0
 22 17  2  0
  1 23  1  0
  1 24  1  0
  1 25  1  0
  2 26  1  0
  2 27  1  0
  4 28  1  0
  4 29  1  0
  4 30  1  0
  5 31  1  0
  5 32  1  0
  6 33  1  0
  6 34  1  0
  7 35  1  0
  7 36  1  0
 10 37  1  0
 11 38  1  0
 12 39  1  0
 13 40  1  0
 16 41  1  0
 16 42  1  0
 16 43  1  0
 19 44  1  0
 21 45  1  0
 21 46  1  0
 21 47  1  0
M  CHG  2   7   1  15   1
M  END
>  <UniqueID>  (19) 
19

>  <SMILES>  (19) 
CCN(C)CC[NH2+]c1c2ccccc2[n+](C)c2scc(C)c12

>  <Energy>  (19) 
102.90018379636763

>  <Genealogy>  (19) 
CCN(C)CC[NH2+]c1c2ccccc2[n+](C)c2scc(C)c12 (protonated)
CCN(C)CC[NH2+]c1c2ccccc2[n+](C)c2scc(C)c12 (3D coordinates assigned)
CCN(C)CC[NH2+]c1c2ccccc2[n+](C)c2scc(C)c12 (optimized conformer: 102.90018379636763 kcal/mol)

>  <smiles>  (19) 
CCN(C)CCNc1c2ccccc2[n+](C)c2scc(C)c12

>  <score_type>  (19) 
oracle

>  <origin>  (19) 
adg

>  <m_score__min__energy>  (19) 
-4.1500000000000004

>  <m_primary>  (19) 
energy

$$$$
20:0
     RDKit          3D

 63 66  0  0  0  0  0  0  0  0999 V2000
   56.5980   30.6020   43.1570 C   0  0  0  0  0  0  0  0  0  0  0  0
   57.6920   30.8330   44.2000 C   0  0  0  0  0  0  0  0  0  0  0  0
   57.5380   29.9070   45.3470 N   0  0  0  0  0  0  0  0  0  0  0  0
   57.0490   28.5720   44.9140 C   0  0  0  0  0  0  0  0  0  0  0  0
   58.1350   27.8680   44.1070 C   0  0  0  0  0  0  0  0  0  0  0  0
   58.8030   29.8090   46.1090 C   0  0  0  0  0  0  0  0  0  0  0  0
   58.6770   28.8050   47.2630 C   0  0  0  0  0  0  0  0  0  0  0  0
   58.9600   29.4450   48.4950 O   0  0  0  0  0  0  0  0  0  0  0  0
   60.1460   28.9270   49.0600 C   0  0  0  0  0  0  0  0  0  0  0  0
   60.2980   29.4690   50.4850 C   0  0  0  0  0  0  0  0  0  0  0  0
   60.1660   30.9380   50.5500 N   0  0  0  0  0  0  0  0  0  0  0  0
   61.0780   31.6120   49.6310 C   0  0  0  0  0  0  0  0  0  0  0  0
   62.4730   31.6520   49.9130 C   0  0  0  0  0  0  0  0  0  0  0  0
   63.0200   31.0410   51.0730 C   0  0  0  0  0  0  0  0  0  0  0  0
   64.3740   31.1460   51.3730 C   0  0  0  0  0  0  0  0  0  0  0  0
   65.2190   31.8640   50.5410 C   0  0  0  0  0  0  0  0  0  0  0  0
   64.7200   32.4470   49.3800 C   0  0  0  0  0  0  0  0  0  0  0  0
   63.3540   32.3170   49.0170 C   0  0  0  0  0  0  0  0  0  0  0  0
   62.8820   32.8320   47.8290 N   0  0  0  0  0  0  0  0  0  0  0  0
   63.8370   33.2110   46.7600 C   0  0  0  0  0  0  0  0  0  0  0  0
   61.5250   32.9500   47.6130 C   0  0  0  0  0  0  0  0  0  0  0  0
   61.0260   33.7390   46.5440 C   0  0  0  0  0  0  0  0  0  0  0  0
   59.6630   33.7900   46.2490 C   0  0  0  0  0  0  0  0  0  0  0  0
   59.1920   34.5570   45.1680 C   0  0  0  0  0  0  0  0  0  0  0  0
   57.8270   34.5840   44.8690 C   0  0  0  0  0  0  0  0  0  0  0  0
   56.9260   33.8500   45.6420 C   0  0  0  0  0  0  0  0  0  0  0  0
   57.3850   33.0900   46.7210 C   0  0  0  0  0  0  0  0  0  0  0  0
   58.7560   33.0580   47.0320 C   0  0  0  0  0  0  0  0  0  0  0  0
   59.2210   32.3200   48.1250 C   0  0  0  0  0  0  0  0  0  0  0  0
   60.5980   32.2870   48.4680 C   0  0  0  0  0  0  0  0  0  0  0  0
   55.6435   30.4005   43.6653 H   0  0  0  0  0  0  0  0  0  0  0  0
   56.4962   31.4984   42.5277 H   0  0  0  0  0  0  0  0  0  0  0  0
   56.8673   29.7409   42.5277 H   0  0  0  0  0  0  0  0  0  0  0  0
   58.6743   30.6672   43.7335 H   0  0  0  0  0  0  0  0  0  0  0  0
   57.6100   31.8655   44.5704 H   0  0  0  0  0  0  0  0  0  0  0  0
   56.8007   27.9680   45.7992 H   0  0  0  0  0  0  0  0  0  0  0  0
   56.1516   28.6957   44.2900 H   0  0  0  0  0  0  0  0  0  0  0  0
   58.8565   27.4003   44.7930 H   0  0  0  0  0  0  0  0  0  0  0  0
   57.6773   27.0944   43.4730 H   0  0  0  0  0  0  0  0  0  0  0  0
   58.6544   28.6016   43.4730 H   0  0  0  0  0  0  0  0  0  0  0  0
   59.6053   29.4797   45.4324 H   0  0  0  0  0  0  0  0  0  0  0  0
   59.0343   30.7983   46.5306 H   0  0  0  0  0  0  0  0  0  0  0  0
   57.6528   28.4046   47.2873 H   0  0  0  0  0  0  0  0  0  0  0  0
   59.3943   27.9855   47.1086 H   0  0  0  0  0  0  0  0  0  0  0  0
   60.0925   27.8286   49.0870 H   0  0  0  0  0  0  0  0  0  0  0  0
   61.0109   29.2316   48.4524 H   0  0  0  0  0  0  0  0  0  0  0  0
   59.5209   29.0169   51.1188 H   0  0  0  0  0  0  0  0  0  0  0  0
   61.3081   29.2091   50.8347 H   0  0  0  0  0  0  0  0  0  0  0  0
   60.3500   31.2560   51.5270 H   0  0  0  0  0  0  0  0  0  0  0  0
   59.1700   31.2150   50.4290 H   0  0  0  0  0  0  0  0  0  0  0  0
   62.3603   30.4743   51.7465 H   0  0  0  0  0  0  0  0  0  0  0  0
   64.7756   30.6578   52.2732 H   0  0  0  0  0  0  0  0  0  0  0  0
   66.2829   31.9728   50.7982 H   0  0  0  0  0  0  0  0  0  0  0  0
   65.3980   33.0202   48.7305 H   0  0  0  0  0  0  0  0  0  0  0  0
   64.7682   33.5805   47.2143 H   0  0  0  0  0  0  0  0  0  0  0  0
   64.0570   32.3320   46.1363 H   0  0  0  0  0  0  0  0  0  0  0  0
   63.3944   34.0016   46.1363 H   0  0  0  0  0  0  0  0  0  0  0  0
   61.7300   34.3239   45.9338 H   0  0  0  0  0  0  0  0  0  0  0  0
   59.8994   35.1367   44.5568 H   0  0  0  0  0  0  0  0  0  0  0  0
   57.4621   35.1848   44.0229 H   0  0  0  0  0  0  0  0  0  0  0  0
   55.8528   33.8698   45.4014 H   0  0  0  0  0  0  0  0  0  0  0  0
   56.6714   32.5148   47.3292 H   0  0  0  0  0  0  0  0  0  0  0  0
   58.5024   31.7514   48.7336 H   0  0  0  0  0  0  0  0  0  0  0  0
  1  2  1  0
  2  3  1  0
  3  4  1  0
  4  5  1  0
  3  6  1  0
  6  7  1  0
  7  8  1  0
  8  9  1  0
  9 10  1  0
 10 11  1  0
 11 12  1  0
 12 13  2  0
 13 14  1  0
 14 15  2  0
 15 16  1  0
 16 17  2  0
 17 18  1  0
 18 19  2  0
 19 20  1  0
 19 21  1  0
 21 22  2  0
 22 23  1  0
 23 24  2  0
 24 25  1  0
 25 26  2  0
 26 27  1  0
 27 28  2  0
 28 29  1  0
 29 30  2  0
 30 12  1  0
 18 13  1  0
 30 21  1  0
 28 23  1  0
  1 31  1  0
  1 32  1  0
  1 33  1  0
  2 34  1  0
  2 35  1  0
  4 36  1  0
  4 37  1  0
  5 38  1  0
  5 39  1  0
  5 40  1  0
  6 41  1  0
  6 42  1  0
  7 43  1  0
  7 44  1  0
  9 45  1  0
  9 46  1  0
 10 47  1  0
 10 48  1  0
 11 49  1  0
 11 50  1  0
 14 51  1  0
 15 52  1  0
 16 53  1  0
 17 54  1  0
 20 55  1  0
 20 56  1  0
 20 57  1  0
 22 58  1  0
 24 59  1  0
 25 60  1  0
 26 61  1  0
 27 62  1  0
 29 63  1  0
M  CHG  2  11   1  19   1
M  END
>  <UniqueID>  (20) 
20

>  <SMILES>  (20) 
CCN(CC)CCOCC[NH2+]c1c2ccccc2[n+](C)c2cc3ccccc3cc12

>  <Energy>  (20) 
98.49506776713672

>  <Genealogy>  (20) 
CCN(CC)CCOCC[NH2+]c1c2ccccc2[n+](C)c2cc3ccccc3cc12 (protonated)
CCN(CC)CCOCC[NH2+]c1c2ccccc2[n+](C)c2cc3ccccc3cc12 (3D coordinates assigned)
CCN(CC)CCOCC[NH2+]c1c2ccccc2[n+](C)c2cc3ccccc3cc12 (optimized conformer: 98.49506776713672 kcal/mol)

>  <smiles>  (20) 
CCN(CC)CCOCCNc1c2ccccc2[n+](C)c2cc3ccccc3cc12

>  <score_type>  (20) 
oracle

>  <origin>  (20) 
adg

>  <m_score__min__energy>  (20) 
-5.3399999999999999

>  <m_primary>  (20) 
energy

$$$$
21:0
     RDKit          3D

 85 88  0  0  0  0  0  0  0  0999 V2000
   61.5830   30.6440   54.0710 C   0  0  0  0  0  0  0  0  0  0  0  0
   61.1440   31.8680   53.2560 C   0  0  0  0  0  0  0  0  0  0  0  0
   59.7330   32.2650   53.5060 N   0  0  0  0  0  0  0  0  0  0  0  0
   59.6130   33.7440   53.4120 C   0  0  0  0  0  0  0  0  0  0  0  0
   58.5940   34.2080   52.3640 C   0  0  0  0  0  0  0  0  0  0  0  0
   59.1550   31.6820   54.7530 C   0  0  0  0  0  0  0  0  0  0  0  0
   57.6750   31.2510   54.6790 C   0  0  0  0  0  0  0  0  0  0  0  0
   57.0860   31.6240   53.4500 O   0  0  0  0  0  0  0  0  0  0  0  0
   56.0440   30.7380   53.0980 C   0  0  0  0  0  0  0  0  0  0  0  0
   56.6280   29.4760   52.4340 C   0  0  0  0  0  0  0  0  0  0  0  0
   57.7660   29.7150   51.5150 N   0  0  0  0  0  0  0  0  0  0  0  0
   59.0840   29.4110   52.0900 C   0  0  0  0  0  0  0  0  0  0  0  0
   60.1440   29.3250   50.9740 C   0  0  0  0  0  0  0  0  0  0  0  0
   59.7750   30.0820   49.7510 N   0  0  0  0  0  0  0  0  0  0  0  0
   59.0930   29.2580   48.7250 C   0  0  0  0  0  0  0  0  0  0  0  0
   60.1270   28.5400   47.8580 C   0  0  0  0  0  0  0  0  0  0  0  0
   60.5500   29.3960   46.7520 N   0  0  0  0  0  0  0  0  0  0  0  0
   59.7680   30.5320   46.3390 C   0  0  0  0  0  0  0  0  0  0  0  0
   58.6240   30.3500   45.5430 C   0  0  0  0  0  0  0  0  0  0  0  0
   58.2030   29.0570   45.1620 C   0  0  0  0  0  0  0  0  0  0  0  0
   57.0360   28.8800   44.4230 C   0  0  0  0  0  0  0  0  0  0  0  0
   56.2700   29.9790   44.0540 C   0  0  0  0  0  0  0  0  0  0  0  0
   56.6840   31.2670   44.3910 C   0  0  0  0  0  0  0  0  0  0  0  0
   57.8860   31.4850   45.1110 C   0  0  0  0  0  0  0  0  0  0  0  0
   58.3400   32.7580   45.3990 N   0  0  0  0  0  0  0  0  0  0  0  0
   57.7530   33.9280   44.7070 C   0  0  0  0  0  0  0  0  0  0  0  0
   59.3570   32.9370   46.3190 C   0  0  0  0  0  0  0  0  0  0  0  0
   59.6690   34.2150   46.8440 C   0  0  0  0  0  0  0  0  0  0  0  0
   60.7190   34.3940   47.7430 C   0  0  0  0  0  0  0  0  0  0  0  0
   61.4860   33.3040   48.1750 C   0  0  0  0  0  0  0  0  0  0  0  0
   62.5890   33.4900   49.0960 N   0  0  0  0  0  0  0  0  0  0  0  0
   62.3630   34.1040   50.4110 C   0  0  0  0  0  0  0  0  0  0  0  0
   63.9400   33.0450   48.7420 C   0  0  0  0  0  0  0  0  0  0  0  0
   61.1510   32.0250   47.7080 C   0  0  0  0  0  0  0  0  0  0  0  0
   60.1040   31.8260   46.7830 C   0  0  0  0  0  0  0  0  0  0  0  0
   59.0350   31.3210   50.0800 C   0  0  0  0  0  0  0  0  0  0  0  0
   57.7380   31.0430   50.8730 C   0  0  0  0  0  0  0  0  0  0  0  0
   61.5019   30.8700   55.1445 H   0  0  0  0  0  0  0  0  0  0  0  0
   60.9354   29.7891   53.8263 H   0  0  0  0  0  0  0  0  0  0  0  0
   62.6263   30.3956   53.8263 H   0  0  0  0  0  0  0  0  0  0  0  0
   61.7965   32.7141   53.5176 H   0  0  0  0  0  0  0  0  0  0  0  0
   61.2231   31.5973   52.1928 H   0  0  0  0  0  0  0  0  0  0  0  0
   59.1710   31.8770   52.7110 H   0  0  0  0  0  0  0  0  0  0  0  0
   59.3041   34.1317   54.3940 H   0  0  0  0  0  0  0  0  0  0  0  0
   60.5954   34.1300   53.1023 H   0  0  0  0  0  0  0  0  0  0  0  0
   57.7054   34.6126   52.8706 H   0  0  0  0  0  0  0  0  0  0  0  0
   59.0451   34.9895   51.7349 H   0  0  0  0  0  0  0  0  0  0  0  0
   58.3007   33.3547   51.7349 H   0  0  0  0  0  0  0  0  0  0  0  0
   59.7503   30.7954   55.0167 H   0  0  0  0  0  0  0  0  0  0  0  0
   59.1906   32.4886   55.5001 H   0  0  0  0  0  0  0  0  0  0  0  0
   57.6156   30.1578   54.7862 H   0  0  0  0  0  0  0  0  0  0  0  0
   57.1286   31.7552   55.4897 H   0  0  0  0  0  0  0  0  0  0  0  0
   55.4892   30.4500   54.0031 H   0  0  0  0  0  0  0  0  0  0  0  0
   55.3676   31.2389   52.3898 H   0  0  0  0  0  0  0  0  0  0  0  0
   56.9706   28.7998   53.2311 H   0  0  0  0  0  0  0  0  0  0  0  0
   55.8208   29.0547   51.8168 H   0  0  0  0  0  0  0  0  0  0  0  0
   59.3642   30.2058   52.7970 H   0  0  0  0  0  0  0  0  0  0  0  0
   59.0336   28.4445   52.6127 H   0  0  0  0  0  0  0  0  0  0  0  0
   61.0914   29.7281   51.3611 H   0  0  0  0  0  0  0  0  0  0  0  0
   60.2290   28.2664   50.6875 H   0  0  0  0  0  0  0  0  0  0  0  0
   58.4541   28.5131   49.2219 H   0  0  0  0  0  0  0  0  0  0  0  0
   58.4788   29.9111   48.0876 H   0  0  0  0  0  0  0  0  0  0  0  0
   61.0021   28.2855   48.4740 H   0  0  0  0  0  0  0  0  0  0  0  0
   59.6738   27.6257   47.4472 H   0  0  0  0  0  0  0  0  0  0  0  0
   61.5100   29.2670   46.3600 H   0  0  0  0  0  0  0  0  0  0  0  0
   58.8025   28.1814   45.4517 H   0  0  0  0  0  0  0  0  0  0  0  0
   56.7199   27.8678   44.1307 H   0  0  0  0  0  0  0  0  0  0  0  0
   55.3344   29.8324   43.4944 H   0  0  0  0  0  0  0  0  0  0  0  0
   56.0680   32.1284   44.0934 H   0  0  0  0  0  0  0  0  0  0  0  0
   57.3903   34.6510   45.4525 H   0  0  0  0  0  0  0  0  0  0  0  0
   58.5191   34.4039   44.0772 H   0  0  0  0  0  0  0  0  0  0  0  0
   56.9135   33.5984   44.0772 H   0  0  0  0  0  0  0  0  0  0  0  0
   59.0700   35.0846   46.5357 H   0  0  0  0  0  0  0  0  0  0  0  0
   60.9481   35.4026   48.1176 H   0  0  0  0  0  0  0  0  0  0  0  0
   62.6273   33.3859   51.2013 H   0  0  0  0  0  0  0  0  0  0  0  0
   62.9891   35.0032   50.5083 H   0  0  0  0  0  0  0  0  0  0  0  0
   61.3034   34.3827   50.5083 H   0  0  0  0  0  0  0  0  0  0  0  0
   64.5158   32.8553   49.6598 H   0  0  0  0  0  0  0  0  0  0  0  0
   63.8780   32.1198   48.1503 H   0  0  0  0  0  0  0  0  0  0  0  0
   64.4400   33.8259   48.1503 H   0  0  0  0  0  0  0  0  0  0  0  0
   61.7182   31.1555   48.0716 H   0  0  0  0  0  0  0  0  0  0  0  0
   59.6855   31.9705   50.6842 H   0  0  0  0  0  0  0  0  0  0  0  0
   58.7507   31.8020   49.1325 H   0  0  0  0  0  0  0  0  0  0  0  0
   57.6234   31.8127   51.6505 H   0  0  0  0  0  0  0  0  0  0  0  0
   56.8934   31.0660   50.1687 H   0  0  0  0  0  0  0  0  0  0  0  0
  1  2  1  0
  2  3  1  0
  3  4  1  0
  4  5  1  0
  3  6  1  0
  6  7  1  0
  7  8  1  0
  8  9  1  0
  9 10  1  0
 10 11  1  0
 11 12  1  0
 12 13  1  0
 13 14  1  0
 14 15  1  0
 15 16  1  0
 16 17  1  0
 17 18  1  0
 18 19  1  0
 19 20  2  0
 20 21  1  0
 21 22  2  0
 22 23  1  0
 23 24  2  0
 24 25  1  0
 25 26  1  0
 25 27  2  0
 27 28  1  0
 28 29  2  0
 29 30  1  0
 30 31  1  0
 31 32  1  0
 31 33  1  0
 30 34  2  0
 34 35  1  0
 14 36  1  0
 36 37  1  0
 37 11  1  0
 35 18  2  0
 24 19  1  0
 35 27  1  0
  1 38  1  0
  1 39  1  0
  1 40  1  0
  2 41  1  0
  2 42  1  0
  3 43  1  0
  4 44  1  0
  4 45  1  0
  5 46  1  0
  5 47  1  0
  5 48  1  0
  6 49  1  0
  6 50  1  0
  7 51  1  0
  7 52  1  0
  9 53  1  0
  9 54  1  0
 10 55  1  0
 10 56  1  0
 12 57  1  0
 12 58  1  0
 13 59  1  0
 13 60  1  0
 15 61  1  0
 15 62  1  0
 16 63  1  0
 16 64  1  0
 17 65  1  0
 20 66  1  0
 21 67  1  0
 22 68  1  0
 23 69  1  0
 26 70  1  0
 26 71  1  0
 26 72  1  0
 28 73  1  0
 29 74  1  0
 32 75  1  0
 32 76  1  0
 32 77  1  0
 33 78  1  0
 33 79  1  0
 33 80  1  0
 34 81  1  0
 36 82  1  0
 36 83  1  0
 37 84  1  0
 37 85  1  0
M  CHG  2   3   1  25   1
M  END
>  <UniqueID>  (21) 
21

>  <SMILES>  (21) 
CC[NH+](CC)CCOCCN1CCN(CCNc2c3ccccc3[n+](C)c3ccc(N(C)C)cc23)CC1

>  <Energy>  (21) 
133.36798515426509

>  <Genealogy>  (21) 
CC[NH+](CC)CCOCCN1CCN(CCNc2c3ccccc3[n+](C)c3ccc(N(C)C)cc23)CC1 (protonated)
CC[NH+](CC)CCOCCN1CCN(CCNc2c3ccccc3[n+](C)c3ccc(N(C)C)cc23)CC1 (3D coordinates assigned)
CC[NH+](CC)CCOCCN1CCN(CCNc2c3ccccc3[n+](C)c3ccc(N(C)C)cc23)CC1 (nonaromatic ring conformer: 133.36798515426509 kcal/mol)

>  <smiles>  (21) 
CCN(CC)CCOCCN1CCN(CCNc2c3ccccc3[n+](C)c3ccc(N(C)C)cc23)CC1

>  <score_type>  (21) 
oracle

>  <origin>  (21) 
adg

>  <m_score__min__energy>  (21) 
-5.4500000000000002

>  <m_primary>  (21) 
energy

$$$$
22:0
     RDKit          3D

 79 82  0  0  0  0  0  0  0  0999 V2000
   60.6686   35.2810   47.5682 H   0  0  0  0  0  0  0  0  0  0  0  0
   60.7440   34.2960   48.0520 C   0  0  0  0  0  0  0  0  0  0  0  0
   59.6500   33.5200   48.0640 C   0  0  0  0  0  0  0  0  0  0  0  0
   59.3781   32.9774   48.9814 H   0  0  0  0  0  0  0  0  0  0  0  0
   58.8070   33.3860   46.8600 C   0  0  0  0  0  0  0  0  0  0  0  0
   58.2830   34.5400   46.3680 N   0  0  0  0  0  0  0  0  0  0  0  0
   57.5600   34.5920   45.2300 C   0  0  0  0  0  0  0  0  0  0  0  0
   57.1174   35.5444   44.9028 H   0  0  0  0  0  0  0  0  0  0  0  0
   57.3750   33.4470   44.4740 C   0  0  0  0  0  0  0  0  0  0  0  0
   56.8044   33.4981   43.5349 H   0  0  0  0  0  0  0  0  0  0  0  0
   57.9140   32.2150   44.9010 C   0  0  0  0  0  0  0  0  0  0  0  0
   58.5640   32.1530   46.1720 C   0  0  0  0  0  0  0  0  0  0  0  0
   58.8820   30.8690   46.6960 C   0  0  0  0  0  0  0  0  0  0  0  0
   59.5440   30.7070   47.9620 N   0  0  0  0  0  0  0  0  0  0  0  0
   59.0400   31.0290   48.8210 H   0  0  0  0  0  0  0  0  0  0  0  0
   60.9500   30.3110   48.0500 C   0  0  0  0  0  0  0  0  0  0  0  0
   61.5370   30.9130   47.3407 H   0  0  0  0  0  0  0  0  0  0  0  0
   61.0253   29.2408   47.8072 H   0  0  0  0  0  0  0  0  0  0  0  0
   61.5050   30.5280   49.4730 C   0  0  0  0  0  0  0  0  0  0  0  0
   62.0334   31.4926   49.4914 H   0  0  0  0  0  0  0  0  0  0  0  0
   62.1616   29.6712   49.6847 H   0  0  0  0  0  0  0  0  0  0  0  0
   60.4320   30.5440   50.5900 C   0  0  0  0  0  0  0  0  0  0  0  0
   60.9282   30.3933   51.5601 H   0  0  0  0  0  0  0  0  0  0  0  0
   59.7127   29.7390   50.3790 H   0  0  0  0  0  0  0  0  0  0  0  0
   59.6790   31.8330   50.6300 N   0  0  0  0  0  0  0  0  0  0  0  0
   60.2090   32.7230   51.6920 C   0  0  0  0  0  0  0  0  0  0  0  0
   61.1459   33.1784   51.3386 H   0  0  0  0  0  0  0  0  0  0  0  0
   60.3770   32.1141   52.5926 H   0  0  0  0  0  0  0  0  0  0  0  0
   59.2270   33.8330   52.0510 C   0  0  0  0  0  0  0  0  0  0  0  0
   59.1527   33.9170   53.1453 H   0  0  0  0  0  0  0  0  0  0  0  0
   59.5827   34.7865   51.6334 H   0  0  0  0  0  0  0  0  0  0  0  0
   58.2373   33.5962   51.6334 H   0  0  0  0  0  0  0  0  0  0  0  0
   58.2340   31.6120   50.9110 C   0  0  0  0  0  0  0  0  0  0  0  0
   57.9257   32.2879   51.7222 H   0  0  0  0  0  0  0  0  0  0  0  0
   57.6800   31.8128   49.9822 H   0  0  0  0  0  0  0  0  0  0  0  0
   57.9300   30.1800   51.3280 C   0  0  0  0  0  0  0  0  0  0  0  0
   57.9158   30.1130   52.4259 H   0  0  0  0  0  0  0  0  0  0  0  0
   56.9487   29.8826   50.9297 H   0  0  0  0  0  0  0  0  0  0  0  0
   58.7058   29.5096   50.9297 H   0  0  0  0  0  0  0  0  0  0  0  0
   58.5170   29.7150   45.9710 C   0  0  0  0  0  0  0  0  0  0  0  0
   58.6860   28.4310   46.5260 C   0  0  0  0  0  0  0  0  0  0  0  0
   59.1104   28.3302   47.5358 H   0  0  0  0  0  0  0  0  0  0  0  0
   58.3250   27.2870   45.8180 C   0  0  0  0  0  0  0  0  0  0  0  0
   58.4789   26.2928   46.2627 H   0  0  0  0  0  0  0  0  0  0  0  0
   57.7710   27.4030   44.5510 C   0  0  0  0  0  0  0  0  0  0  0  0
   57.4787   26.5000   43.9950 H   0  0  0  0  0  0  0  0  0  0  0  0
   57.5840   28.6620   43.9810 C   0  0  0  0  0  0  0  0  0  0  0  0
   57.1333   28.7420   42.9808 H   0  0  0  0  0  0  0  0  0  0  0  0
   57.9660   29.8410   44.6710 C   0  0  0  0  0  0  0  0  0  0  0  0
   57.7900   31.0870   44.1170 N   0  0  0  0  0  0  0  0  0  0  0  0
   57.5000   31.2140   42.6710 C   0  0  0  0  0  0  0  0  0  0  0  0
   56.5002   31.6519   42.5346 H   0  0  0  0  0  0  0  0  0  0  0  0
   58.2525   31.8650   42.2019 H   0  0  0  0  0  0  0  0  0  0  0  0
   57.5319   30.2195   42.2019 H   0  0  0  0  0  0  0  0  0  0  0  0
   62.0490   33.9160   48.6470 C   0  0  0  0  0  0  0  0  0  0  0  0
   62.9960   33.1260   47.9690 C   0  0  0  0  0  0  0  0  0  0  0  0
   62.7910   32.7873   46.9427 H   0  0  0  0  0  0  0  0  0  0  0  0
   64.1960   32.7690   48.5920 C   0  0  0  0  0  0  0  0  0  0  0  0
   64.9237   32.1412   48.0570 H   0  0  0  0  0  0  0  0  0  0  0  0
   64.4770   33.2050   49.8910 C   0  0  0  0  0  0  0  0  0  0  0  0
   65.6700   32.7680   50.5590 N   0  0  0  0  0  0  0  0  0  0  0  0
   66.6390   33.7650   51.0310 C   0  0  0  0  0  0  0  0  0  0  0  0
   66.3329   34.7600   50.6758 H   0  0  0  0  0  0  0  0  0  0  0  0
   66.6617   33.7376   52.1304 H   0  0  0  0  0  0  0  0  0  0  0  0
   68.0370   33.4590   50.5100 C   0  0  0  0  0  0  0  0  0  0  0  0
   68.7201   33.3095   51.3591 H   0  0  0  0  0  0  0  0  0  0  0  0
   68.0083   32.5459   49.8973 H   0  0  0  0  0  0  0  0  0  0  0  0
   68.3923   34.3006   49.8973 H   0  0  0  0  0  0  0  0  0  0  0  0
   65.9490   31.3330   50.6920 C   0  0  0  0  0  0  0  0  0  0  0  0
   66.1564   30.9113   49.6974 H   0  0  0  0  0  0  0  0  0  0  0  0
   66.8201   31.2006   51.3506 H   0  0  0  0  0  0  0  0  0  0  0  0
   64.7540   30.6080   51.3050 C   0  0  0  0  0  0  0  0  0  0  0  0
   64.8230   30.6499   52.4020 H   0  0  0  0  0  0  0  0  0  0  0  0
   63.8230   31.0937   50.9774 H   0  0  0  0  0  0  0  0  0  0  0  0
   64.7547   29.5579   50.9774 H   0  0  0  0  0  0  0  0  0  0  0  0
   63.5680   34.0440   50.5470 C   0  0  0  0  0  0  0  0  0  0  0  0
   63.8025   34.4288   51.5505 H   0  0  0  0  0  0  0  0  0  0  0  0
   62.3630   34.3940   49.9300 C   0  0  0  0  0  0  0  0  0  0  0  0
   61.6535   35.0506   50.4549 H   0  0  0  0  0  0  0  0  0  0  0  0
  1  2  1  0
  2  3  2  0
  3  4  1  0
  3  5  1  0
  5  6  2  0
  6  7  1  0
  7  8  1  0
  7  9  2  0
  9 10  1  0
  9 11  1  0
 11 12  2  0
 12 13  1  0
 13 14  1  0
 14 15  1  0
 14 16  1  0
 16 17  1  0
 16 18  1  0
 16 19  1  0
 19 20  1  0
 19 21  1  0
 19 22  1  0
 22 23  1  0
 22 24  1  0
 22 25  1  0
 25 26  1  0
 26 27  1  0
 26 28  1  0
 26 29  1  0
 29 30  1  0
 29 31  1  0
 29 32  1  0
 25 33  1  0
 33 34  1  0
 33 35  1  0
 33 36  1  0
 36 37  1  0
 36 38  1  0
 36 39  1  0
 13 40  2  0
 40 41  1  0
 41 42  1  0
 41 43  2  0
 43 44  1  0
 43 45  1  0
 45 46  1  0
 45 47  2  0
 47 48  1  0
 47 49  1  0
 49 50  2  0
 50 51  1  0
 51 52  1  0
 51 53  1  0
 51 54  1  0
  2 55  1  0
 55 56  2  0
 56 57  1  0
 56 58  1  0
 58 59  1  0
 58 60  2  0
 60 61  1  0
 61 62  1  0
 62 63  1  0
 62 64  1  0
 62 65  1  0
 65 66  1  0
 65 67  1  0
 65 68  1  0
 61 69  1  0
 69 70  1  0
 69 71  1  0
 69 72  1  0
 72 73  1  0
 72 74  1  0
 72 75  1  0
 60 76  1  0
 76 77  1  0
 76 78  2  0
 78 79  1  0
 12  5  1  0
 49 40  1  0
 78 55  1  0
 50 11  1  0
M  CHG  1  50   1
M  END
>  <UniqueID>  (22) 
22

>  <SMILES>  (22) 
CCN(CC)CCCNc1c2ccccc2[n+](C)c2ccnc(/C=C/c3ccc(N(CC)CC)cc3)c12

>  <Energy>  (22) 
117.35803917873581

>  <Genealogy>  (22) 
CCN(CC)CCCNc1c2ccccc2[n+](C)c2ccnc(/C=C/c3ccc(N(CC)CC)cc3)c12 (cis-trans isomerization)
CCN(CC)CCCNc1c2ccccc2[n+](C)c2ccnc(/C=C/c3ccc(N(CC)CC)cc3)c12 (3D coordinates assigned)
CCN(CC)CCCNc1c2ccccc2[n+](C)c2ccnc(/C=C/c3ccc(N(CC)CC)cc3)c12 (optimized conformer: 117.35803917873581 kcal/mol)

>  <smiles>  (22) 
CCN(CC)CCCNc1c2ccccc2[n+](C)c2ccnc(C=Cc3ccc(N(CC)CC)cc3)c12

>  <score_type>  (22) 
oracle

>  <origin>  (22) 
adg

>  <m_score__min__energy>  (22) 
-7.1699999999999999

>  <m_primary>  (22) 
energy

$$$$
