0:0
     RDKit          3D

 45 46  0  0  0  0  0  0  0  0999 V2000
   55.5010   30.0730   44.1200 C   0  0  0  0  0  0  0  0  0  0  0  0
   56.8550   29.5630   44.3500 N   0  0  0  0  0  0  0  0  0  0  0  0
   58.0140   30.3940   43.9880 C   0  0  0  0  0  0  0  0  0  0  0  0
   57.5970   31.8520   43.7530 C   0  0  0  0  0  0  0  0  0  0  0  0
   58.0930   32.7600   44.8510 C   0  0  0  0  0  0  0  0  0  0  0  0
   57.7620   32.5010   46.1920 C   0  0  0  0  0  0  0  0  0  0  0  0
   58.2500   33.3250   47.2110 C   0  0  0  0  0  0  0  0  0  0  0  0
   59.0790   34.4070   46.9000 C   0  0  0  0  0  0  0  0  0  0  0  0
   59.4210   34.6650   45.5700 C   0  0  0  0  0  0  0  0  0  0  0  0
   58.9330   33.8450   44.5480 C   0  0  0  0  0  0  0  0  0  0  0  0
   57.0310   28.3130   45.0420 C   0  0  0  0  0  0  0  0  0  0  0  0
   56.0530   27.7580   45.6140 O   0  0  0  0  0  0  0  0  0  0  0  0
   58.3180   27.6850   45.0680 N   0  0  0  0  0  0  0  0  0  0  0  0
   59.2550   27.7840   46.1860 C   0  0  2  0  0  0  0  0  0  0  0  0
   58.5510   28.4790   47.3700 C   0  0  0  0  0  0  0  0  0  0  0  0
   59.5510   29.2790   48.2160 C   0  0  0  0  0  0  0  0  0  0  0  0
   60.1800   30.3750   47.4320 N   0  0  1  0  0  0  0  0  0  0  0  0
   61.4380   30.7940   48.0780 C   0  0  0  0  0  0  0  0  0  0  0  0
   60.4050   30.0430   45.9960 C   0  0  0  0  0  0  0  0  0  0  0  0
   60.5380   28.5320   45.7540 C   0  0  0  0  0  0  0  0  0  0  0  0
   55.0098   30.2580   45.0867 H   0  0  0  0  0  0  0  0  0  0  0  0
   55.5549   31.0124   43.5503 H   0  0  0  0  0  0  0  0  0  0  0  0
   54.9217   29.3314   43.5503 H   0  0  0  0  0  0  0  0  0  0  0  0
   58.7506   30.3582   44.8042 H   0  0  0  0  0  0  0  0  0  0  0  0
   58.4486   30.0007   43.0572 H   0  0  0  0  0  0  0  0  0  0  0  0
   58.0149   32.1918   42.7939 H   0  0  0  0  0  0  0  0  0  0  0  0
   56.4979   31.8961   43.7429 H   0  0  0  0  0  0  0  0  0  0  0  0
   57.1161   31.6462   46.4412 H   0  0  0  0  0  0  0  0  0  0  0  0
   57.9814   33.1217   48.2581 H   0  0  0  0  0  0  0  0  0  0  0  0
   59.4619   35.0550   47.7021 H   0  0  0  0  0  0  0  0  0  0  0  0
   60.0755   35.5149   45.3265 H   0  0  0  0  0  0  0  0  0  0  0  0
   59.2077   34.0500   43.5028 H   0  0  0  0  0  0  0  0  0  0  0  0
   59.5655   26.7787   46.5069 H   0  0  0  0  0  0  0  0  0  0  0  0
   57.7828   29.1629   46.9798 H   0  0  0  0  0  0  0  0  0  0  0  0
   58.0944   27.7068   48.0066 H   0  0  0  0  0  0  0  0  0  0  0  0
   59.0221   29.7143   49.0767 H   0  0  0  0  0  0  0  0  0  0  0  0
   60.3455   28.5942   48.5474 H   0  0  0  0  0  0  0  0  0  0  0  0
   59.5330   31.1990   47.4670 H   0  0  0  0  0  0  0  0  0  0  0  0
   61.3198   30.7546   49.1709 H   0  0  0  0  0  0  0  0  0  0  0  0
   62.2500   30.1178   47.7724 H   0  0  0  0  0  0  0  0  0  0  0  0
   61.6824   31.8221   47.7724 H   0  0  0  0  0  0  0  0  0  0  0  0
   59.5544   30.4204   45.4095 H   0  0  0  0  0  0  0  0  0  0  0  0
   61.3501   30.5146   45.6887 H   0  0  0  0  0  0  0  0  0  0  0  0
   60.7144   28.3538   44.6830 H   0  0  0  0  0  0  0  0  0  0  0  0
   61.3805   28.1551   46.3524 H   0  0  0  0  0  0  0  0  0  0  0  0
  1  2  1  0
  2  3  1  0
  3  4  1  0
  4  5  1  0
  5  6  2  0
  6  7  1  0
  7  8  2  0
  8  9  1  0
  9 10  2  0
  2 11  1  0
 11 12  2  0
 11 13  1  0
 13 14  1  0
 14 15  1  0
 15 16  1  0
 16 17  1  0
 17 18  1  0
 17 19  1  0
 19 20  1  0
 10  5  1  0
 20 14  1  0
  1 21  1  0
  1 22  1  0
  1 23  1  0
  3 24  1  0
  3 25  1  0
  4 26  1  0
  4 27  1  0
  6 28  1  0
  7 29  1  0
  8 30  1  0
  9 31  1  0
 10 32  1  0
 14 33  1  1
 15 34  1  0
 15 35  1  0
 16 36  1  0
 16 37  1  0
 17 38  1  6
 18 39  1  0
 18 40  1  0
 18 41  1  0
 19 42  1  0
 19 43  1  0
 20 44  1  0
 20 45  1  0
M  CHG  2  13  -1  17   1
M  END
>  <UniqueID>  (1) 
1

>  <SMILES>  (1) 
CN(CCc1ccccc1)C(=O)[N-]C1CC[NH+](C)CC1

>  <Energy>  (1) 
41.52320465522875

>  <Genealogy>  (1) 
CN(CCc1ccccc1)C(=O)[N-]C1CC[NH+](C)CC1 (protonated)
CN(CCc1ccccc1)C(=O)[N-]C1CC[NH+](C)CC1 (3D coordinates assigned)
CN(CCc1ccccc1)C(=O)[N-]C1CC[NH+](C)CC1 (nonaromatic ring conformer: 41.52320465522875 kcal/mol)

>  <smiles>  (1) 
CN1CCC(NC(=O)N(C)CCc2ccccc2)CC1

>  <score_type>  (1) 
oracle

>  <origin>  (1) 
adg

>  <m_score__min__energy>  (1) 
-7.04

>  <m_primary>  (1) 
energy

$$$$
1:0
     RDKit          3D

 42 43  0  0  0  0  0  0  0  0999 V2000
   58.1020   32.8170   43.4730 C   0  0  0  0  0  0  0  0  0  0  0  0
   58.2530   33.4330   44.8050 N   0  0  0  0  0  0  0  0  0  0  0  0
   57.0140   34.1440   45.1580 C   0  0  0  0  0  0  0  0  0  0  0  0
   59.3940   34.3690   44.8250 C   0  0  0  0  0  0  0  0  0  0  0  0
   60.3210   34.0200   45.9080 C   0  0  0  0  0  0  0  0  0  0  0  0
   61.0740   33.7210   46.8000 C   0  0  0  0  0  0  0  0  0  0  0  0
   61.9860   33.3400   47.8970 C   0  0  1  0  0  0  0  0  0  0  0  0
   63.4550   33.4970   47.4410 C   0  0  0  0  0  0  0  0  0  0  0  0
   63.5760   34.5710   46.5760 F   0  0  0  0  0  0  0  0  0  0  0  0
   63.8750   32.3500   46.7870 F   0  0  0  0  0  0  0  0  0  0  0  0
   64.2880   33.7050   48.5270 F   0  0  0  0  0  0  0  0  0  0  0  0
   61.6870   34.2150   49.1510 C   0  0  0  0  0  0  0  0  0  0  0  0
   60.8550   33.3540   50.1090 C   0  0  0  0  0  0  0  0  0  0  0  0
   61.0100   31.9950   49.5580 C   0  0  0  0  0  0  0  0  0  0  0  0
   60.5390   30.9660   50.1110 O   0  0  0  0  0  0  0  0  0  0  0  0
   61.6930   31.9670   48.3150 N   0  0  0  0  0  0  0  0  0  0  0  0
   61.8110   30.7660   47.4730 C   0  0  0  0  0  0  0  0  0  0  0  0
   60.5260   30.4980   46.7320 C   0  0  0  0  0  0  0  0  0  0  0  0
   60.5160   29.6440   45.6150 C   0  0  0  0  0  0  0  0  0  0  0  0
   59.3270   29.4010   44.9210 C   0  0  0  0  0  0  0  0  0  0  0  0
   58.1390   30.0160   45.3260 C   0  0  0  0  0  0  0  0  0  0  0  0
   56.5170   29.6820   44.3780 Br  0  0  0  0  0  0  0  0  0  0  0  0
   58.1430   30.8810   46.4250 C   0  0  0  0  0  0  0  0  0  0  0  0
   59.3300   31.1260   47.1210 C   0  0  0  0  0  0  0  0  0  0  0  0
   57.8415   31.7545   43.5878 H   0  0  0  0  0  0  0  0  0  0  0  0
   57.3036   33.3324   42.9190 H   0  0  0  0  0  0  0  0  0  0  0  0
   59.0483   32.9048   42.9190 H   0  0  0  0  0  0  0  0  0  0  0  0
   56.9211   34.1973   46.2528 H   0  0  0  0  0  0  0  0  0  0  0  0
   57.0444   35.1621   44.7426 H   0  0  0  0  0  0  0  0  0  0  0  0
   56.1503   33.6041   44.7426 H   0  0  0  0  0  0  0  0  0  0  0  0
   59.9240   34.3156   43.8626 H   0  0  0  0  0  0  0  0  0  0  0  0
   59.0170   35.3888   44.9918 H   0  0  0  0  0  0  0  0  0  0  0  0
   62.6279   34.5168   49.6344 H   0  0  0  0  0  0  0  0  0  0  0  0
   61.1433   35.1295   48.8716 H   0  0  0  0  0  0  0  0  0  0  0  0
   61.2486   33.4115   51.1345 H   0  0  0  0  0  0  0  0  0  0  0  0
   59.8052   33.6753   50.1780 H   0  0  0  0  0  0  0  0  0  0  0  0
   62.6218   30.9153   46.7448 H   0  0  0  0  0  0  0  0  0  0  0  0
   62.0288   29.9038   48.1205 H   0  0  0  0  0  0  0  0  0  0  0  0
   61.4493   29.1642   45.2853 H   0  0  0  0  0  0  0  0  0  0  0  0
   59.3264   28.7241   44.0540 H   0  0  0  0  0  0  0  0  0  0  0  0
   57.2099   31.3696   46.7423 H   0  0  0  0  0  0  0  0  0  0  0  0
   59.3283   31.8147   47.9787 H   0  0  0  0  0  0  0  0  0  0  0  0
  1  2  1  0
  2  3  1  0
  2  4  1  0
  4  5  1  0
  5  6  3  0
  7  6  1  6
  7  8  1  0
  8  9  1  0
  8 10  1  0
  8 11  1  0
  7 12  1  0
 12 13  1  0
 13 14  1  0
 14 15  2  0
 14 16  1  0
 16 17  1  0
 17 18  1  0
 18 19  2  0
 19 20  1  0
 20 21  2  0
 21 22  1  0
 21 23  1  0
 23 24  2  0
 16  7  1  0
 24 18  1  0
  1 25  1  0
  1 26  1  0
  1 27  1  0
  3 28  1  0
  3 29  1  0
  3 30  1  0
  4 31  1  0
  4 32  1  0
 12 33  1  0
 12 34  1  0
 13 35  1  0
 13 36  1  0
 17 37  1  0
 17 38  1  0
 19 39  1  0
 20 40  1  0
 23 41  1  0
 24 42  1  0
M  END
>  <UniqueID>  (2) 
2

>  <SMILES>  (2) 
CN(C)CC#C[C@@]1(C(F)(F)F)CCC(=O)N1Cc1ccc(Br)cc1

>  <Energy>  (2) 
42.503934460655074

>  <Genealogy>  (2) 
CN(C)CC#C[C@@]1(C(F)(F)F)CCC(=O)N1Cc1ccc(Br)cc1 (chirality)
CN(C)CC#C[C@@]1(C(F)(F)F)CCC(=O)N1Cc1ccc(Br)cc1 (3D coordinates assigned)
CN(C)CC#C[C@@]1(C(F)(F)F)CCC(=O)N1Cc1ccc(Br)cc1 (nonaromatic ring conformer: 42.503934460655074 kcal/mol)

>  <smiles>  (2) 
CN(C)CC#CC1(C(F)(F)F)CCC(=O)N1Cc1ccc(Br)cc1

>  <score_type>  (2) 
oracle

>  <origin>  (2) 
adg

>  <m_score__min__energy>  (2) 
-5.9500000000000002

>  <m_primary>  (2) 
energy

$$$$
2:0
     RDKit          3D

 76 78  0  0  0  0  0  0  0  0999 V2000
   61.5600   32.3500   51.0060 C   0  0  0  0  0  0  0  0  0  0  0  0
   60.9070   31.4280   49.9810 C   0  0  0  0  0  0  0  0  0  0  0  0
   59.6730   30.8350   50.5420 N   0  0  0  0  0  0  0  0  0  0  0  0
   58.4690   31.5780   50.1010 C   0  0  0  0  0  0  0  0  0  0  0  0
   57.5850   31.9090   51.3010 C   0  0  0  0  0  0  0  0  0  0  0  0
   59.5620   29.3970   50.2000 C   0  0  0  0  0  0  0  0  0  0  0  0
   60.9120   28.8290   49.7380 C   0  0  0  0  0  0  0  0  0  0  0  0
   60.8250   28.3110   48.3720 N   0  0  0  0  0  0  0  0  0  0  0  0
   59.9140   28.8070   47.3700 C   0  0  0  0  0  0  0  0  0  0  0  0
   59.9450   30.1630   47.0270 C   0  0  0  0  0  0  0  0  0  0  0  0
   58.9550   30.7210   46.2350 C   0  0  0  0  0  0  0  0  0  0  0  0
   57.8680   29.9590   45.8020 C   0  0  0  0  0  0  0  0  0  0  0  0
   56.8900   30.5820   44.9520 N   0  0  0  0  0  0  0  0  0  0  0  0
   57.2320   31.2020   43.6710 C   0  0  0  0  0  0  0  0  0  0  0  0
   57.9640   32.5280   43.8760 C   0  0  0  0  0  0  0  0  0  0  0  0
   57.2030   33.3800   44.7080 O   0  0  0  0  0  0  0  0  0  0  0  0
   58.0070   34.4500   45.1560 C   0  0  0  0  0  0  0  0  0  0  0  0
   59.4750   34.0140   45.2030 C   0  0  0  0  0  0  0  0  0  0  0  0
   59.9410   33.6860   46.5720 N   0  0  0  0  0  0  0  0  0  0  0  0
   59.0860   34.2130   47.6650 C   0  0  0  0  0  0  0  0  0  0  0  0
   59.8510   34.4970   48.9680 C   0  0  0  0  0  0  0  0  0  0  0  0
   61.3680   34.0500   46.7500 C   0  0  0  0  0  0  0  0  0  0  0  0
   62.1660   32.8130   47.1310 C   0  0  0  0  0  0  0  0  0  0  0  0
   57.7990   28.5770   46.1340 C   0  0  0  0  0  0  0  0  0  0  0  0
   56.6690   27.7870   45.8120 C   0  0  0  0  0  0  0  0  0  0  0  0
   55.5300   28.3680   45.2550 O   0  0  0  0  0  0  0  0  0  0  0  0
   56.6580   26.4080   46.0830 C   0  0  0  0  0  0  0  0  0  0  0  0
   55.5170   25.6340   45.7780 C   0  0  0  0  0  0  0  0  0  0  0  0
   55.4930   24.2690   46.0490 C   0  0  0  0  0  0  0  0  0  0  0  0
   56.5970   23.6550   46.6280 C   0  0  0  0  0  0  0  0  0  0  0  0
   57.7370   24.3990   46.9340 C   0  0  0  0  0  0  0  0  0  0  0  0
   57.7930   25.7830   46.6560 C   0  0  0  0  0  0  0  0  0  0  0  0
   58.9300   26.5650   46.9760 C   0  0  0  0  0  0  0  0  0  0  0  0
   60.1320   25.9630   47.3730 O   0  0  0  0  0  0  0  0  0  0  0  0
   58.8830   27.9770   46.8410 C   0  0  0  0  0  0  0  0  0  0  0  0
   61.3142   32.0029   52.0205 H   0  0  0  0  0  0  0  0  0  0  0  0
   62.6513   32.3368   50.8683 H   0  0  0  0  0  0  0  0  0  0  0  0
   61.1854   33.3750   50.8683 H   0  0  0  0  0  0  0  0  0  0  0  0
   60.6553   32.0065   49.0799 H   0  0  0  0  0  0  0  0  0  0  0  0
   61.6092   30.6211   49.7245 H   0  0  0  0  0  0  0  0  0  0  0  0
   58.7783   32.5119   49.6089 H   0  0  0  0  0  0  0  0  0  0  0  0
   57.8995   30.9534   49.3970 H   0  0  0  0  0  0  0  0  0  0  0  0
   58.1361   31.7027   52.2304 H   0  0  0  0  0  0  0  0  0  0  0  0
   57.3060   32.9725   51.2686 H   0  0  0  0  0  0  0  0  0  0  0  0
   56.6761   31.2903   51.2686 H   0  0  0  0  0  0  0  0  0  0  0  0
   59.2245   28.8423   51.0879 H   0  0  0  0  0  0  0  0  0  0  0  0
   58.8397   29.2899   49.3773 H   0  0  0  0  0  0  0  0  0  0  0  0
   61.6684   29.6270   49.7723 H   0  0  0  0  0  0  0  0  0  0  0  0
   61.1916   28.0028   50.4082 H   0  0  0  0  0  0  0  0  0  0  0  0
   61.3660   27.4410   48.1620 H   0  0  0  0  0  0  0  0  0  0  0  0
   60.7678   30.7955   47.3917 H   0  0  0  0  0  0  0  0  0  0  0  0
   59.0261   31.7792   45.9431 H   0  0  0  0  0  0  0  0  0  0  0  0
   55.8840   30.5320   45.2290 H   0  0  0  0  0  0  0  0  0  0  0  0
   57.8804   30.5183   43.1034 H   0  0  0  0  0  0  0  0  0  0  0  0
   56.3005   31.4001   43.1205 H   0  0  0  0  0  0  0  0  0  0  0  0
   58.9394   32.3360   44.3470 H   0  0  0  0  0  0  0  0  0  0  0  0
   58.1086   33.0138   42.8997 H   0  0  0  0  0  0  0  0  0  0  0  0
   57.9007   35.3000   44.4660 H   0  0  0  0  0  0  0  0  0  0  0  0
   57.6849   34.7479   46.1647 H   0  0  0  0  0  0  0  0  0  0  0  0
   59.5960   33.1231   44.5692 H   0  0  0  0  0  0  0  0  0  0  0  0
   60.0800   34.8599   44.8445 H   0  0  0  0  0  0  0  0  0  0  0  0
   58.6238   35.1506   47.3226 H   0  0  0  0  0  0  0  0  0  0  0  0
   58.3416   33.4359   47.8930 H   0  0  0  0  0  0  0  0  0  0  0  0
   59.2094   34.2588   49.8292 H   0  0  0  0  0  0  0  0  0  0  0  0
   60.7580   33.8757   49.0035 H   0  0  0  0  0  0  0  0  0  0  0  0
   60.1329   35.5597   49.0035 H   0  0  0  0  0  0  0  0  0  0  0  0
   61.7605   34.4635   45.8093 H   0  0  0  0  0  0  0  0  0  0  0  0
   61.4565   34.8020   47.5479 H   0  0  0  0  0  0  0  0  0  0  0  0
   62.2176   32.7331   48.2269 H   0  0  0  0  0  0  0  0  0  0  0  0
   61.6741   31.9186   46.7209 H   0  0  0  0  0  0  0  0  0  0  0  0
   63.1836   32.8924   46.7209 H   0  0  0  0  0  0  0  0  0  0  0  0
   54.6388   26.1144   45.3219 H   0  0  0  0  0  0  0  0  0  0  0  0
   54.5995   23.6758   45.8047 H   0  0  0  0  0  0  0  0  0  0  0  0
   56.5720   22.5771   46.8461 H   0  0  0  0  0  0  0  0  0  0  0  0
   58.6023   23.9021   47.3971 H   0  0  0  0  0  0  0  0  0  0  0  0
   61.0170   26.0720   46.9010 H   0  0  0  0  0  0  0  0  0  0  0  0
  1  2  1  0
  2  3  1  0
  3  4  1  0
  4  5  1  0
  3  6  1  0
  6  7  1  0
  7  8  1  0
  8  9  1  0
  9 10  2  0
 10 11  1  0
 11 12  2  0
 12 13  1  0
 13 14  1  0
 14 15  1  0
 15 16  1  0
 16 17  1  0
 17 18  1  0
 18 19  1  0
 19 20  1  0
 20 21  1  0
 19 22  1  0
 22 23  1  0
 12 24  1  0
 24 25  2  0
 25 26  1  0
 25 27  1  0
 27 28  2  0
 28 29  1  0
 29 30  2  0
 30 31  1  0
 31 32  2  0
 32 33  1  0
 33 34  1  0
 33 35  2  0
 35  9  1  0
 35 24  1  0
 32 27  1  0
  1 36  1  0
  1 37  1  0
  1 38  1  0
  2 39  1  0
  2 40  1  0
  4 41  1  0
  4 42  1  0
  5 43  1  0
  5 44  1  0
  5 45  1  0
  6 46  1  0
  6 47  1  0
  7 48  1  0
  7 49  1  0
  8 50  1  0
 10 51  1  0
 11 52  1  0
 13 53  1  0
 14 54  1  0
 14 55  1  0
 15 56  1  0
 15 57  1  0
 17 58  1  0
 17 59  1  0
 18 60  1  0
 18 61  1  0
 20 62  1  0
 20 63  1  0
 21 64  1  0
 21 65  1  0
 21 66  1  0
 22 67  1  0
 22 68  1  0
 23 69  1  0
 23 70  1  0
 23 71  1  0
 28 72  1  0
 29 73  1  0
 30 74  1  0
 31 75  1  0
 34 76  1  0
M  CHG  1  26  -1
M  END
>  <UniqueID>  (3) 
3

>  <SMILES>  (3) 
CCN(CC)CCNc1ccc(NCCOCCN(CC)CC)c2c([O-])c3ccccc3c(O)c12

>  <Energy>  (3) 
94.83664640649738

>  <Genealogy>  (3) 
CCN(CC)CCNc1ccc(NCCOCCN(CC)CC)c2c([O-])c3ccccc3c(O)c12 (protonated)
CCN(CC)CCNc1ccc(NCCOCCN(CC)CC)c2c([O-])c3ccccc3c(O)c12 (3D coordinates assigned)
CCN(CC)CCNc1ccc(NCCOCCN(CC)CC)c2c([O-])c3ccccc3c(O)c12 (optimized conformer: 94.83664640649738 kcal/mol)

>  <smiles>  (3) 
CCN(CC)CCNc1ccc(NCCOCCN(CC)CC)c2c(O)c3ccccc3c(O)c12

>  <score_type>  (3) 
oracle

>  <origin>  (3) 
adg

>  <m_score__min__energy>  (3) 
-10.56

>  <m_primary>  (3) 
energy

$$$$
3:0
     RDKit          3D

 50 54  0  0  0  0  0  0  0  0999 V2000
   58.9500   33.4200   53.3580 C   0  0  0  0  0  0  0  0  0  0  0  0
   59.3790   32.5290   52.3330 O   0  0  0  0  0  0  0  0  0  0  0  0
   59.3210   32.8110   50.9590 C   0  0  0  0  0  0  0  0  0  0  0  0
   60.0860   33.8390   50.3740 C   0  0  0  0  0  0  0  0  0  0  0  0
   60.0130   34.0800   49.0010 C   0  0  0  0  0  0  0  0  0  0  0  0
   59.1810   33.3000   48.1880 C   0  0  0  0  0  0  0  0  0  0  0  0
   59.1080   33.5600   46.7360 C   0  0  0  0  0  0  0  0  0  0  0  0
   58.8830   34.8150   46.1820 C   0  0  0  0  0  0  0  0  0  0  0  0
   58.5040   34.6950   44.9280 O   0  0  0  0  0  0  0  0  0  0  0  0
   58.4690   33.4170   44.6410 C   0  0  0  0  0  0  0  0  0  0  0  0
   58.0000   32.8510   43.4660 C   0  0  0  0  0  0  0  0  0  0  0  0
   57.8720   31.4570   43.4120 C   0  0  0  0  0  0  0  0  0  0  0  0
   58.2920   30.6390   44.4990 C   0  0  0  0  0  0  0  0  0  0  0  0
   58.0990   29.2420   44.4900 C   0  0  0  0  0  0  0  0  0  0  0  0
   57.3890   28.6110   43.4110 N   0  0  0  0  0  0  0  0  0  0  0  0
   58.5750   28.4750   45.5760 C   0  0  0  0  0  0  0  0  0  0  0  0
   58.2740   27.1010   45.6940 C   0  0  0  0  0  0  0  0  0  0  0  0
   58.7790   26.3480   46.7540 C   0  0  0  0  0  0  0  0  0  0  0  0
   59.5840   26.9480   47.7150 C   0  0  0  0  0  0  0  0  0  0  0  0
   59.8850   28.3060   47.6280 C   0  0  0  0  0  0  0  0  0  0  0  0
   59.3810   29.0980   46.5680 C   0  0  0  0  0  0  0  0  0  0  0  0
   59.6610   30.4440   46.4870 N   0  0  0  0  0  0  0  0  0  0  0  0
   60.8770   30.9610   47.1520 C   0  0  0  0  0  0  0  0  0  0  0  0
   58.9510   31.2370   45.6110 C   0  0  0  0  0  0  0  0  0  0  0  0
   58.8950   32.6530   45.6990 C   0  0  0  0  0  0  0  0  0  0  0  0
   58.3890   32.3000   48.7740 C   0  0  0  0  0  0  0  0  0  0  0  0
   58.4730   32.0350   50.1540 C   0  0  0  0  0  0  0  0  0  0  0  0
   57.7320   31.0070   50.7590 O   0  0  0  0  0  0  0  0  0  0  0  0
   56.7360   31.2120   51.7560 C   0  0  0  0  0  0  0  0  0  0  0  0
   59.1633   32.9769   54.3419 H   0  0  0  0  0  0  0  0  0  0  0  0
   59.4869   34.3752   53.2618 H   0  0  0  0  0  0  0  0  0  0  0  0
   57.8684   33.5960   53.2618 H   0  0  0  0  0  0  0  0  0  0  0  0
   60.7449   34.4556   51.0030 H   0  0  0  0  0  0  0  0  0  0  0  0
   60.6125   34.8873   48.5549 H   0  0  0  0  0  0  0  0  0  0  0  0
   59.0043   35.7697   46.7148 H   0  0  0  0  0  0  0  0  0  0  0  0
   57.7361   33.4778   42.6014 H   0  0  0  0  0  0  0  0  0  0  0  0
   57.4403   30.9872   42.5159 H   0  0  0  0  0  0  0  0  0  0  0  0
   57.4980   28.9340   42.4250 H   0  0  0  0  0  0  0  0  0  0  0  0
   56.7380   27.8140   43.5840 H   0  0  0  0  0  0  0  0  0  0  0  0
   57.6336   26.6183   44.9411 H   0  0  0  0  0  0  0  0  0  0  0  0
   58.5396   25.2770   46.8295 H   0  0  0  0  0  0  0  0  0  0  0  0
   59.9846   26.3495   48.5464 H   0  0  0  0  0  0  0  0  0  0  0  0
   60.5237   28.7695   48.3943 H   0  0  0  0  0  0  0  0  0  0  0  0
   60.7494   30.9067   48.2432 H   0  0  0  0  0  0  0  0  0  0  0  0
   61.7444   30.3538   46.8536 H   0  0  0  0  0  0  0  0  0  0  0  0
   61.0415   32.0069   46.8536 H   0  0  0  0  0  0  0  0  0  0  0  0
   57.6960   31.7178   48.1488 H   0  0  0  0  0  0  0  0  0  0  0  0
   57.1907   31.1184   52.7532 H   0  0  0  0  0  0  0  0  0  0  0  0
   56.3050   32.2177   51.6424 H   0  0  0  0  0  0  0  0  0  0  0  0
   55.9429   30.4583   51.6424 H   0  0  0  0  0  0  0  0  0  0  0  0
  1  2  1  0
  2  3  1  0
  3  4  2  0
  4  5  1  0
  5  6  2  0
  6  7  1  0
  7  8  2  0
  8  9  1  0
  9 10  1  0
 10 11  2  0
 11 12  1  0
 12 13  2  0
 13 14  1  0
 14 15  1  0
 14 16  2  0
 16 17  1  0
 17 18  2  0
 18 19  1  0
 19 20  2  0
 20 21  1  0
 21 22  2  0
 22 23  1  0
 22 24  1  0
 24 25  2  0
  6 26  1  0
 26 27  2  0
 27 28  1  0
 28 29  1  0
 27  3  1  0
 25  7  1  0
 25 10  1  0
 24 13  1  0
 21 16  1  0
  1 30  1  0
  1 31  1  0
  1 32  1  0
  4 33  1  0
  5 34  1  0
  8 35  1  0
 11 36  1  0
 12 37  1  0
 15 38  1  0
 15 39  1  0
 17 40  1  0
 18 41  1  0
 19 42  1  0
 20 43  1  0
 23 44  1  0
 23 45  1  0
 23 46  1  0
 26 47  1  0
 29 48  1  0
 29 49  1  0
 29 50  1  0
M  CHG  1  22   1
M  END
>  <UniqueID>  (4) 
4

>  <SMILES>  (4) 
COc1ccc(-c2coc3ccc4c(N)c5ccccc5[n+](C)c4c23)cc1OC

>  <Energy>  (4) 
127.62366551949172

>  <Genealogy>  (4) 
COc1ccc(-c2coc3ccc4c(N)c5ccccc5[n+](C)c4c23)cc1OC (3D coordinates assigned)
COc1ccc(-c2coc3ccc4c(N)c5ccccc5[n+](C)c4c23)cc1OC (optimized conformer: 127.62366551949172 kcal/mol)

>  <smiles>  (4) 
COc1ccc(-c2coc3ccc4c(N)c5ccccc5[n+](C)c4c23)cc1OC

>  <score_type>  (4) 
oracle

>  <origin>  (4) 
adg

>  <m_score__min__energy>  (4) 
-6.96

>  <m_primary>  (4) 
energy

$$$$
4:0
     RDKit          3D

 59 61  0  0  0  0  0  0  0  0999 V2000
   57.3200   25.8830   46.3410 C   0  0  0  0  0  0  0  0  0  0  0  0
   57.4980   27.3350   46.7780 C   0  0  0  0  0  0  0  0  0  0  0  0
   58.8820   27.6020   47.2470 N   0  0  0  0  0  0  0  0  0  0  0  0
   59.5960   26.3040   47.3700 C   0  0  0  0  0  0  0  0  0  0  0  0
   60.7590   26.1680   46.3900 C   0  0  0  0  0  0  0  0  0  0  0  0
   58.8540   28.3430   48.5390 C   0  0  0  0  0  0  0  0  0  0  0  0
   60.0480   29.3130   48.6910 C   0  0  0  0  0  0  0  0  0  0  0  0
   60.7560   29.5980   47.4150 N   0  0  0  0  0  0  0  0  0  0  0  0
   60.2120   30.7560   46.7000 C   0  0  0  0  0  0  0  0  0  0  0  0
   60.4050   32.0610   47.2140 C   0  0  0  0  0  0  0  0  0  0  0  0
   61.5210   32.3800   48.0220 C   0  0  0  0  0  0  0  0  0  0  0  0
   61.6380   33.6300   48.6230 C   0  0  0  0  0  0  0  0  0  0  0  0
   60.6560   34.5890   48.4260 C   0  0  0  0  0  0  0  0  0  0  0  0
   59.5870   34.3290   47.5730 C   0  0  0  0  0  0  0  0  0  0  0  0
   59.4750   33.0880   46.8930 C   0  0  0  0  0  0  0  0  0  0  0  0
   58.4780   32.8570   45.9660 N   0  0  0  0  0  0  0  0  0  0  0  0
   57.6430   33.9840   45.4860 C   0  0  0  0  0  0  0  0  0  0  0  0
   58.3100   31.5970   45.4230 C   0  0  0  0  0  0  0  0  0  0  0  0
   57.1470   31.2590   44.6980 C   0  0  0  0  0  0  0  0  0  0  0  0
   57.0000   30.0160   44.0760 C   0  0  0  0  0  0  0  0  0  0  0  0
   55.7110   29.7150   43.3490 C   0  0  0  0  0  0  0  0  0  0  0  0
   58.0600   29.0860   44.1190 C   0  0  0  0  0  0  0  0  0  0  0  0
   57.9390   27.7600   43.3930 C   0  0  0  0  0  0  0  0  0  0  0  0
   59.2560   29.4310   44.7960 C   0  0  0  0  0  0  0  0  0  0  0  0
   60.5200   28.6490   44.5080 C   0  0  0  0  0  0  0  0  0  0  0  0
   59.2880   30.5920   45.6260 C   0  0  0  0  0  0  0  0  0  0  0  0
   57.2411   25.2396   47.2298 H   0  0  0  0  0  0  0  0  0  0  0  0
   56.4038   25.7909   45.7392 H   0  0  0  0  0  0  0  0  0  0  0  0
   58.1868   25.5723   45.7392 H   0  0  0  0  0  0  0  0  0  0  0  0
   57.2774   27.9936   45.9250 H   0  0  0  0  0  0  0  0  0  0  0  0
   56.8095   27.5284   47.6138 H   0  0  0  0  0  0  0  0  0  0  0  0
   59.9881   26.2152   48.3939 H   0  0  0  0  0  0  0  0  0  0  0  0
   58.8739   25.5077   47.1365 H   0  0  0  0  0  0  0  0  0  0  0  0
   61.6994   26.0580   46.9500 H   0  0  0  0  0  0  0  0  0  0  0  0
   60.6034   25.2819   45.7570 H   0  0  0  0  0  0  0  0  0  0  0  0
   60.8120   27.0661   45.7570 H   0  0  0  0  0  0  0  0  0  0  0  0
   57.9202   28.9217   48.5936 H   0  0  0  0  0  0  0  0  0  0  0  0
   58.9191   27.6030   49.3502 H   0  0  0  0  0  0  0  0  0  0  0  0
   59.6731   30.2631   49.0993 H   0  0  0  0  0  0  0  0  0  0  0  0
   60.7740   28.8253   49.3581 H   0  0  0  0  0  0  0  0  0  0  0  0
   60.7450   28.7600   46.7980 H   0  0  0  0  0  0  0  0  0  0  0  0
   61.7630   29.7180   47.6390 H   0  0  0  0  0  0  0  0  0  0  0  0
   62.3089   31.6285   48.1779 H   0  0  0  0  0  0  0  0  0  0  0  0
   62.5096   33.8572   49.2544 H   0  0  0  0  0  0  0  0  0  0  0  0
   60.7218   35.5568   48.9446 H   0  0  0  0  0  0  0  0  0  0  0  0
   58.8156   35.0987   47.4233 H   0  0  0  0  0  0  0  0  0  0  0  0
   57.2366   34.5325   46.3485 H   0  0  0  0  0  0  0  0  0  0  0  0
   58.2581   34.6625   44.8767 H   0  0  0  0  0  0  0  0  0  0  0  0
   56.8148   33.5932   44.8767 H   0  0  0  0  0  0  0  0  0  0  0  0
   56.3331   31.9949   44.6203 H   0  0  0  0  0  0  0  0  0  0  0  0
   54.9119   29.5284   44.0815 H   0  0  0  0  0  0  0  0  0  0  0  0
   55.4369   30.5733   42.7180 H   0  0  0  0  0  0  0  0  0  0  0  0
   55.8454   28.8241   42.7180 H   0  0  0  0  0  0  0  0  0  0  0  0
   57.8646   26.9450   44.1280 H   0  0  0  0  0  0  0  0  0  0  0  0
   57.0379   27.7682   42.7622 H   0  0  0  0  0  0  0  0  0  0  0  0
   58.8267   27.6050   42.7622 H   0  0  0  0  0  0  0  0  0  0  0  0
   60.9939   28.3558   45.4564 H   0  0  0  0  0  0  0  0  0  0  0  0
   60.2697   27.7477   43.9292 H   0  0  0  0  0  0  0  0  0  0  0  0
   61.2148   29.2753   43.9292 H   0  0  0  0  0  0  0  0  0  0  0  0
  1  2  1  0
  2  3  1  0
  3  4  1  0
  4  5  1  0
  3  6  1  0
  6  7  1  0
  7  8  1  0
  8  9  1  0
  9 10  2  0
 10 11  1  0
 11 12  2  0
 12 13  1  0
 13 14  2  0
 14 15  1  0
 15 16  2  0
 16 17  1  0
 16 18  1  0
 18 19  2  0
 19 20  1  0
 20 21  1  0
 20 22  2  0
 22 23  1  0
 22 24  1  0
 24 25  1  0
 24 26  2  0
 26  9  1  0
 15 10  1  0
 26 18  1  0
  1 27  1  0
  1 28  1  0
  1 29  1  0
  2 30  1  0
  2 31  1  0
  4 32  1  0
  4 33  1  0
  5 34  1  0
  5 35  1  0
  5 36  1  0
  6 37  1  0
  6 38  1  0
  7 39  1  0
  7 40  1  0
  8 41  1  0
  8 42  1  0
 11 43  1  0
 12 44  1  0
 13 45  1  0
 14 46  1  0
 17 47  1  0
 17 48  1  0
 17 49  1  0
 19 50  1  0
 21 51  1  0
 21 52  1  0
 21 53  1  0
 23 54  1  0
 23 55  1  0
 23 56  1  0
 25 57  1  0
 25 58  1  0
 25 59  1  0
M  CHG  2   8   1  16   1
M  END
>  <UniqueID>  (5) 
5

>  <SMILES>  (5) 
CCN(CC)CC[NH2+]c1c2ccccc2[n+](C)c2cc(C)c(C)c(C)c12

>  <Energy>  (5) 
110.71515865535903

>  <Genealogy>  (5) 
CCN(CC)CC[NH2+]c1c2ccccc2[n+](C)c2cc(C)c(C)c(C)c12 (protonated)
CCN(CC)CC[NH2+]c1c2ccccc2[n+](C)c2cc(C)c(C)c(C)c12 (3D coordinates assigned)
CCN(CC)CC[NH2+]c1c2ccccc2[n+](C)c2cc(C)c(C)c(C)c12 (optimized conformer: 110.71515865535903 kcal/mol)

>  <smiles>  (5) 
CCN(CC)CCNc1c2ccccc2[n+](C)c2cc(C)c(C)c(C)c12

>  <score_type>  (5) 
oracle

>  <origin>  (5) 
adg

>  <m_score__min__energy>  (5) 
-4.6600000000000001

>  <m_primary>  (5) 
energy

$$$$
5:0
     RDKit          3D

 57 60  0  0  0  0  0  0  0  0999 V2000
   55.1610   29.6960   44.1240 C   0  0  0  0  0  0  0  0  0  0  0  0
   56.4150   30.1100   44.6160 O   0  0  0  0  0  0  0  0  0  0  0  0
   57.0530   30.9170   43.6480 C   0  0  0  0  0  0  0  0  0  0  0  0
   58.5670   30.7490   43.7770 C   0  0  0  0  0  0  0  0  0  0  0  0
   58.9000   30.0550   45.0300 N   0  0  0  0  0  0  0  0  0  0  0  0
   59.6480   28.8150   44.7750 C   0  0  0  0  0  0  0  0  0  0  0  0
   58.8680   27.9150   43.8180 C   0  0  0  0  0  0  0  0  0  0  0  0
   57.6470   27.4190   44.4530 N   0  0  0  0  0  0  0  0  0  0  0  0
   57.5540   26.1060   45.0310 C   0  0  0  0  0  0  0  0  0  0  0  0
   56.9120   25.0780   44.3160 C   0  0  0  0  0  0  0  0  0  0  0  0
   56.8830   23.7760   44.8160 C   0  0  0  0  0  0  0  0  0  0  0  0
   57.5030   23.4780   46.0290 C   0  0  0  0  0  0  0  0  0  0  0  0
   58.1490   24.4840   46.7500 C   0  0  0  0  0  0  0  0  0  0  0  0
   58.1770   25.8070   46.2710 C   0  0  0  0  0  0  0  0  0  0  0  0
   58.8470   26.8430   47.0940 C   0  0  0  0  0  0  0  0  0  0  0  0
   58.2390   28.0780   47.3540 C   0  0  0  0  0  0  0  0  0  0  0  0
   58.9220   29.0180   48.1380 C   0  0  0  0  0  0  0  0  0  0  0  0
   58.3760   30.2780   48.4170 O   0  0  0  0  0  0  0  0  0  0  0  0
   59.1130   31.4690   48.5310 C   0  0  0  0  0  0  0  0  0  0  0  0
   60.0310   31.6530   49.5820 C   0  0  0  0  0  0  0  0  0  0  0  0
   60.7480   32.8450   49.7010 C   0  0  0  0  0  0  0  0  0  0  0  0
   60.5550   33.8770   48.7820 C   0  0  0  0  0  0  0  0  0  0  0  0
   59.6330   33.7250   47.7360 C   0  0  0  0  0  0  0  0  0  0  0  0
   59.4280   34.7640   46.8150 C   0  0  0  0  0  0  0  0  0  0  0  0
   58.5090   34.6100   45.7740 C   0  0  0  0  0  0  0  0  0  0  0  0
   57.7890   33.4220   45.6440 C   0  0  0  0  0  0  0  0  0  0  0  0
   57.9800   32.3780   46.5530 C   0  0  0  0  0  0  0  0  0  0  0  0
   58.9010   32.5150   47.6090 C   0  0  0  0  0  0  0  0  0  0  0  0
   60.1260   28.6900   48.6740 N   0  0  0  0  0  0  0  0  0  0  0  0
   60.6930   27.4780   48.4400 C   0  0  0  0  0  0  0  0  0  0  0  0
   60.0560   26.5690   47.6580 N   0  0  0  0  0  0  0  0  0  0  0  0
   54.4909   29.4748   44.9678 H   0  0  0  0  0  0  0  0  0  0  0  0
   54.7251   30.4979   43.5101 H   0  0  0  0  0  0  0  0  0  0  0  0
   55.2882   28.7922   43.5101 H   0  0  0  0  0  0  0  0  0  0  0  0
   56.7324   30.6087   42.6419 H   0  0  0  0  0  0  0  0  0  0  0  0
   56.7819   31.9712   43.8069 H   0  0  0  0  0  0  0  0  0  0  0  0
   58.9403   30.1602   42.9261 H   0  0  0  0  0  0  0  0  0  0  0  0
   59.0374   31.7433   43.7835 H   0  0  0  0  0  0  0  0  0  0  0  0
   58.0010   29.7920   45.4960 H   0  0  0  0  0  0  0  0  0  0  0  0
   60.6217   29.0636   44.3276 H   0  0  0  0  0  0  0  0  0  0  0  0
   59.7964   28.2835   45.7266 H   0  0  0  0  0  0  0  0  0  0  0  0
   58.5996   28.4902   42.9196 H   0  0  0  0  0  0  0  0  0  0  0  0
   59.4994   27.0560   43.5471 H   0  0  0  0  0  0  0  0  0  0  0  0
   56.7740   27.9810   44.3310 H   0  0  0  0  0  0  0  0  0  0  0  0
   56.4285   25.3032   43.3539 H   0  0  0  0  0  0  0  0  0  0  0  0
   56.3700   22.9828   44.2523 H   0  0  0  0  0  0  0  0  0  0  0  0
   57.4831   22.4493   46.4181 H   0  0  0  0  0  0  0  0  0  0  0  0
   58.6414   24.2399   47.7028 H   0  0  0  0  0  0  0  0  0  0  0  0
   57.2419   28.3063   46.9495 H   0  0  0  0  0  0  0  0  0  0  0  0
   60.1851   30.8494   50.3171 H   0  0  0  0  0  0  0  0  0  0  0  0
   61.4682   32.9711   50.5228 H   0  0  0  0  0  0  0  0  0  0  0  0
   61.1270   34.8116   48.8780 H   0  0  0  0  0  0  0  0  0  0  0  0
   59.9928   35.7028   46.9131 H   0  0  0  0  0  0  0  0  0  0  0  0
   58.3527   35.4276   45.0549 H   0  0  0  0  0  0  0  0  0  0  0  0
   57.0674   33.3066   44.8218 H   0  0  0  0  0  0  0  0  0  0  0  0
   57.4081   31.4448   46.4430 H   0  0  0  0  0  0  0  0  0  0  0  0
   61.6689   27.2328   48.8844 H   0  0  0  0  0  0  0  0  0  0  0  0
  1  2  1  0
  2  3  1  0
  3  4  1  0
  4  5  1  0
  5  6  1  0
  6  7  1  0
  7  8  1  0
  8  9  1  0
  9 10  2  0
 10 11  1  0
 11 12  2  0
 12 13  1  0
 13 14  2  0
 14 15  1  0
 15 16  2  0
 16 17  1  0
 17 18  1  0
 18 19  1  0
 19 20  2  0
 20 21  1  0
 21 22  2  0
 22 23  1  0
 23 24  2  0
 24 25  1  0
 25 26  2  0
 26 27  1  0
 27 28  2  0
 17 29  2  0
 29 30  1  0
 30 31  2  0
 14  9  1  0
 31 15  1  0
 28 19  1  0
 28 23  1  0
  1 32  1  0
  1 33  1  0
  1 34  1  0
  3 35  1  0
  3 36  1  0
  4 37  1  0
  4 38  1  0
  5 39  1  0
  6 40  1  0
  6 41  1  0
  7 42  1  0
  7 43  1  0
  8 44  1  0
 10 45  1  0
 11 46  1  0
 12 47  1  0
 13 48  1  0
 16 49  1  0
 20 50  1  0
 21 51  1  0
 22 52  1  0
 24 53  1  0
 25 54  1  0
 26 55  1  0
 27 56  1  0
 30 57  1  0
M  END
>  <UniqueID>  (6) 
6

>  <SMILES>  (6) 
COCCNCCNc1ccccc1-c1cc(Oc2cccc3ccccc23)ncn1

>  <Energy>  (6) 
75.0184360246466

>  <Genealogy>  (6) 
COCCNCCNc1ccccc1-c1cc(Oc2cccc3ccccc23)ncn1 (3D coordinates assigned)
COCCNCCNc1ccccc1-c1cc(Oc2cccc3ccccc23)ncn1 (optimized conformer: 75.0184360246466 kcal/mol)

>  <smiles>  (6) 
COCCNCCNc1ccccc1-c1cc(Oc2cccc3ccccc23)ncn1

>  <score_type>  (6) 
oracle

>  <origin>  (6) 
adg

>  <m_score__min__energy>  (6) 
-8.2200000000000006

>  <m_primary>  (6) 
energy

$$$$
6:0
     RDKit          3D

 41 43  0  0  0  0  0  0  0  0999 V2000
   59.2150   30.2960   48.3260 C   0  0  0  0  0  0  0  0  0  0  0  0
   59.0450   31.7290   48.8140 C   0  0  0  0  0  0  0  0  0  0  0  0
   59.7980   32.6520   47.9610 N   0  0  0  0  0  0  0  0  0  0  0  0
   59.3120   33.5140   47.0290 C   0  0  0  0  0  0  0  0  0  0  0  0
   57.5620   33.8160   46.7480 S   0  0  0  0  0  0  0  0  0  0  0  0
   57.6540   33.6390   44.9290 C   0  0  0  0  0  0  0  0  0  0  0  0
   58.2070   32.2770   44.4770 C   0  0  0  0  0  0  0  0  0  0  0  0
   57.1940   31.2090   44.6390 N   0  0  0  0  0  0  0  0  0  0  0  0
   56.6050   30.8100   43.3470 C   0  0  0  0  0  0  0  0  0  0  0  0
   55.5270   29.7260   43.5650 C   0  0  0  0  0  0  0  0  0  0  0  0
   55.5200   29.2320   44.8930 O   0  0  0  0  0  0  0  0  0  0  0  0
   56.8230   28.8230   45.2550 C   0  0  0  0  0  0  0  0  0  0  0  0
   57.7840   30.0270   45.3010 C   0  0  0  0  0  0  0  0  0  0  0  0
   60.2790   34.1190   46.2910 N   0  0  0  0  0  0  0  0  0  0  0  0
   61.4110   33.6040   46.8000 C   0  0  0  0  0  0  0  0  0  0  0  0
   62.7190   33.8670   46.3970 C   0  0  0  0  0  0  0  0  0  0  0  0
   63.7580   33.1820   47.0540 C   0  0  0  0  0  0  0  0  0  0  0  0
   63.4670   32.2560   48.0820 C   0  0  0  0  0  0  0  0  0  0  0  0
   62.1360   32.0100   48.4630 C   0  0  0  0  0  0  0  0  0  0  0  0
   61.1310   32.7150   47.7980 C   0  0  0  0  0  0  0  0  0  0  0  0
   59.2951   29.6212   49.1910 H   0  0  0  0  0  0  0  0  0  0  0  0
   58.3445   30.0102   47.7173 H   0  0  0  0  0  0  0  0  0  0  0  0
   60.1282   30.2218   47.7173 H   0  0  0  0  0  0  0  0  0  0  0  0
   57.9786   31.9974   48.7856 H   0  0  0  0  0  0  0  0  0  0  0  0
   59.4262   31.8029   49.8432 H   0  0  0  0  0  0  0  0  0  0  0  0
   56.6421   33.7597   44.5149 H   0  0  0  0  0  0  0  0  0  0  0  0
   58.3472   34.4100   44.5615 H   0  0  0  0  0  0  0  0  0  0  0  0
   58.4957   32.3404   43.4175 H   0  0  0  0  0  0  0  0  0  0  0  0
   59.0781   32.0294   45.1014 H   0  0  0  0  0  0  0  0  0  0  0  0
   56.1458   31.6885   42.8701 H   0  0  0  0  0  0  0  0  0  0  0  0
   57.3974   30.4037   42.7012 H   0  0  0  0  0  0  0  0  0  0  0  0
   54.5404   30.1592   43.3438 H   0  0  0  0  0  0  0  0  0  0  0  0
   55.7566   28.8845   42.8948 H   0  0  0  0  0  0  0  0  0  0  0  0
   56.7895   28.3507   46.2479 H   0  0  0  0  0  0  0  0  0  0  0  0
   57.1893   28.1093   44.5024 H   0  0  0  0  0  0  0  0  0  0  0  0
   57.9990   30.2742   46.3511 H   0  0  0  0  0  0  0  0  0  0  0  0
   58.7075   29.7553   44.7688 H   0  0  0  0  0  0  0  0  0  0  0  0
   62.9321   34.5860   45.5922 H   0  0  0  0  0  0  0  0  0  0  0  0
   64.8032   33.3682   46.7659 H   0  0  0  0  0  0  0  0  0  0  0  0
   64.2871   31.7246   48.5870 H   0  0  0  0  0  0  0  0  0  0  0  0
   61.8951   31.2877   49.2569 H   0  0  0  0  0  0  0  0  0  0  0  0
  1  2  1  0
  2  3  1  0
  3  4  1  0
  4  5  1  0
  5  6  1  0
  6  7  1  0
  7  8  1  0
  8  9  1  0
  9 10  1  0
 10 11  1  0
 11 12  1  0
 12 13  1  0
  4 14  2  0
 14 15  1  0
 15 16  2  0
 16 17  1  0
 17 18  2  0
 18 19  1  0
 19 20  2  0
 20  3  1  0
 13  8  1  0
 20 15  1  0
  1 21  1  0
  1 22  1  0
  1 23  1  0
  2 24  1  0
  2 25  1  0
  6 26  1  0
  6 27  1  0
  7 28  1  0
  7 29  1  0
  9 30  1  0
  9 31  1  0
 10 32  1  0
 10 33  1  0
 12 34  1  0
 12 35  1  0
 13 36  1  0
 13 37  1  0
 16 38  1  0
 17 39  1  0
 18 40  1  0
 19 41  1  0
M  END
>  <UniqueID>  (7) 
7

>  <SMILES>  (7) 
CCn1c(SCCN2CCOCC2)nc2ccccc21

>  <Energy>  (7) 
82.60974904229377

>  <Genealogy>  (7) 
CCn1c(SCCN2CCOCC2)nc2ccccc21 (3D coordinates assigned)
CCn1c(SCCN2CCOCC2)nc2ccccc21 (nonaromatic ring conformer: 82.60974904229377 kcal/mol)

>  <smiles>  (7) 
CCn1c(SCCN2CCOCC2)nc2ccccc21

>  <score_type>  (7) 
oracle

>  <origin>  (7) 
adg

>  <m_score__min__energy>  (7) 
-7.6900000000000004

>  <m_primary>  (7) 
energy

$$$$
7:0
     RDKit          3D

 26 25  0  0  0  0  0  0  0  0999 V2000
   58.1240   33.0480   44.2360 C   0  0  0  0  0  0  0  0  0  0  0  0
   57.1730   32.3920   45.2330 C   0  0  0  0  0  0  0  0  0  0  0  0
   56.9810   30.9630   44.8950 N   0  0  0  0  0  0  0  0  0  0  0  0
   56.9720   30.7550   43.4280 C   0  0  0  0  0  0  0  0  0  0  0  0
   55.9220   29.7150   43.0480 C   0  0  0  0  0  0  0  0  0  0  0  0
   58.0170   30.1240   45.5360 C   0  0  0  0  0  0  0  0  0  0  0  0
   57.5000   28.7680   45.7560 C   0  0  0  0  0  0  0  0  0  0  0  0
   57.0770   27.6550   45.9440 C   0  0  0  0  0  0  0  0  0  0  0  0
   56.5660   26.3000   46.1700 C   0  0  0  0  0  0  0  0  0  0  0  0
   55.1080   26.3180   46.1870 N   0  0  0  0  0  0  0  0  0  0  0  0
   58.9102   33.5904   44.7816 H   0  0  0  0  0  0  0  0  0  0  0  0
   58.5836   32.2739   43.6039 H   0  0  0  0  0  0  0  0  0  0  0  0
   57.5637   33.7526   43.6039 H   0  0  0  0  0  0  0  0  0  0  0  0
   57.5964   32.4719   46.2451 H   0  0  0  0  0  0  0  0  0  0  0  0
   56.2003   32.9040   45.1903 H   0  0  0  0  0  0  0  0  0  0  0  0
   56.7383   31.7064   42.9278 H   0  0  0  0  0  0  0  0  0  0  0  0
   57.9624   30.3965   43.1109 H   0  0  0  0  0  0  0  0  0  0  0  0
   55.4862   29.2834   43.9611 H   0  0  0  0  0  0  0  0  0  0  0  0
   55.1294   30.1941   42.4545 H   0  0  0  0  0  0  0  0  0  0  0  0
   56.3935   28.9179   42.4545 H   0  0  0  0  0  0  0  0  0  0  0  0
   58.9012   30.0752   44.8835 H   0  0  0  0  0  0  0  0  0  0  0  0
   58.2918   30.5670   46.5046 H   0  0  0  0  0  0  0  0  0  0  0  0
   56.9136   25.6392   45.3622 H   0  0  0  0  0  0  0  0  0  0  0  0
   56.9358   25.9292   47.1373 H   0  0  0  0  0  0  0  0  0  0  0  0
   54.7950   26.7210   47.1000 H   0  0  0  0  0  0  0  0  0  0  0  0
   54.7790   25.3260   46.1740 H   0  0  0  0  0  0  0  0  0  0  0  0
  1  2  1  0
  2  3  1  0
  3  4  1  0
  4  5  1  0
  3  6  1  0
  6  7  1  0
  7  8  3  0
  8  9  1  0
  9 10  1  0
  1 11  1  0
  1 12  1  0
  1 13  1  0
  2 14  1  0
  2 15  1  0
  4 16  1  0
  4 17  1  0
  5 18  1  0
  5 19  1  0
  5 20  1  0
  6 21  1  0
  6 22  1  0
  9 23  1  0
  9 24  1  0
 10 25  1  0
 10 26  1  0
M  END
>  <UniqueID>  (8) 
8

>  <SMILES>  (8) 
CCN(CC)CC#CCN

>  <Energy>  (8) 
13.199943159322162

>  <Genealogy>  (8) 
CCN(CC)CC#CCN (3D coordinates assigned)
CCN(CC)CC#CCN (optimized conformer: 13.199943159322162 kcal/mol)

>  <smiles>  (8) 
CCN(CC)CC#CCN

>  <score_type>  (8) 
oracle

>  <origin>  (8) 
adg

>  <m_score__min__energy>  (8) 
-4.75

>  <m_primary>  (8) 
energy

$$$$
8:0
     RDKit          3D

 50 53  0  0  0  0  0  0  0  0999 V2000
   56.4380   30.1610   42.6760 C   0  0  0  0  0  0  0  0  0  0  0  0
   56.0150   30.4120   44.1230 C   0  0  0  0  0  0  0  0  0  0  0  0
   57.1100   31.0090   44.9200 N   0  0  0  0  0  0  0  0  0  0  0  0
   57.0000   32.4720   45.1380 C   0  0  0  0  0  0  0  0  0  0  0  0
   58.3400   33.1650   45.4200 C   0  0  0  0  0  0  0  0  0  0  0  0
   58.4500   30.6010   44.4320 C   0  0  0  0  0  0  0  0  0  0  0  0
   58.6380   29.0940   44.6280 C   0  0  0  0  0  0  0  0  0  0  0  0
   58.2950   28.6550   46.0570 C   0  0  0  0  0  0  0  0  0  0  0  0
   58.5220   29.7520   46.9940 N   0  0  0  0  0  0  0  0  0  0  0  0
   59.4980   29.6780   48.0480 C   0  0  0  0  0  0  0  0  0  0  0  0
   59.3990   28.7210   49.0140 N   0  0  0  0  0  0  0  0  0  0  0  0
   60.3300   28.5890   50.0000 C   0  0  0  0  0  0  0  0  0  0  0  0
   61.4280   29.4580   50.0660 C   0  0  0  0  0  0  0  0  0  0  0  0
   61.5240   30.5030   49.1320 C   0  0  0  0  0  0  0  0  0  0  0  0
   60.5850   30.5580   48.0970 C   0  0  0  0  0  0  0  0  0  0  0  0
   61.0350   31.7060   46.9520 S   0  0  0  0  0  0  0  0  0  0  0  0
   62.4240   32.1680   47.7830 C   0  0  0  0  0  0  0  0  0  0  0  0
   63.3930   33.0740   47.3640 C   0  0  0  0  0  0  0  0  0  0  0  0
   63.2920   33.6580   46.2530 O   0  0  0  0  0  0  0  0  0  0  0  0
   64.4410   33.3100   48.1450 O   0  0  0  0  0  0  0  0  0  0  0  0
   64.5850   32.7520   49.3490 C   0  0  0  0  0  0  0  0  0  0  0  0
   65.6960   33.0980   50.1250 C   0  0  0  0  0  0  0  0  0  0  0  0
   65.8200   32.6180   51.4280 C   0  0  0  0  0  0  0  0  0  0  0  0
   64.8140   31.8200   51.9770 C   0  0  0  0  0  0  0  0  0  0  0  0
   63.7050   31.4530   51.2100 C   0  0  0  0  0  0  0  0  0  0  0  0
   63.6090   31.8450   49.8580 C   0  0  0  0  0  0  0  0  0  0  0  0
   62.5460   31.4830   48.9920 C   0  0  0  0  0  0  0  0  0  0  0  0
   57.3839   29.5997   42.6626 H   0  0  0  0  0  0  0  0  0  0  0  0
   55.6589   29.5789   42.1620 H   0  0  0  0  0  0  0  0  0  0  0  0
   56.5756   31.1237   42.1620 H   0  0  0  0  0  0  0  0  0  0  0  0
   55.1554   31.0983   44.1287 H   0  0  0  0  0  0  0  0  0  0  0  0
   55.7514   29.4444   44.5749 H   0  0  0  0  0  0  0  0  0  0  0  0
   56.5603   32.9237   44.2365 H   0  0  0  0  0  0  0  0  0  0  0  0
   56.3748   32.6138   46.0318 H   0  0  0  0  0  0  0  0  0  0  0  0
   58.4909   33.2430   46.5068 H   0  0  0  0  0  0  0  0  0  0  0  0
   59.1574   32.5766   44.9777 H   0  0  0  0  0  0  0  0  0  0  0  0
   58.3322   34.1721   44.9777 H   0  0  0  0  0  0  0  0  0  0  0  0
   58.5386   30.8438   43.3628 H   0  0  0  0  0  0  0  0  0  0  0  0
   59.2225   31.1398   45.0003 H   0  0  0  0  0  0  0  0  0  0  0  0
   57.9822   28.5596   43.9249 H   0  0  0  0  0  0  0  0  0  0  0  0
   59.6959   28.8560   44.4433 H   0  0  0  0  0  0  0  0  0  0  0  0
   57.2378   28.3543   46.1000 H   0  0  0  0  0  0  0  0  0  0  0  0
   58.9400   27.8084   46.3351 H   0  0  0  0  0  0  0  0  0  0  0  0
   57.9770   30.6320   46.8540 H   0  0  0  0  0  0  0  0  0  0  0  0
   60.2190   27.7932   50.7512 H   0  0  0  0  0  0  0  0  0  0  0  0
   62.2016   29.3239   50.8364 H   0  0  0  0  0  0  0  0  0  0  0  0
   66.4751   33.7515   49.7055 H   0  0  0  0  0  0  0  0  0  0  0  0
   66.7103   32.8679   52.0237 H   0  0  0  0  0  0  0  0  0  0  0  0
   64.8950   31.4783   53.0194 H   0  0  0  0  0  0  0  0  0  0  0  0
   62.9013   30.8543   51.6635 H   0  0  0  0  0  0  0  0  0  0  0  0
  1  2  1  0
  2  3  1  0
  3  4  1  0
  4  5  1  0
  3  6  1  0
  6  7  1  0
  7  8  1  0
  8  9  1  0
  9 10  1  0
 10 11  2  0
 11 12  1  0
 12 13  2  0
 13 14  1  0
 14 15  2  0
 15 16  1  0
 16 17  1  0
 17 18  1  0
 18 19  2  0
 18 20  1  0
 20 21  1  0
 21 22  2  0
 22 23  1  0
 23 24  2  0
 24 25  1  0
 25 26  2  0
 26 27  1  0
 15 10  1  0
 27 17  2  0
 27 14  1  0
 26 21  1  0
  1 28  1  0
  1 29  1  0
  1 30  1  0
  2 31  1  0
  2 32  1  0
  4 33  1  0
  4 34  1  0
  5 35  1  0
  5 36  1  0
  5 37  1  0
  6 38  1  0
  6 39  1  0
  7 40  1  0
  7 41  1  0
  8 42  1  0
  8 43  1  0
  9 44  1  0
 12 45  1  0
 13 46  1  0
 22 47  1  0
 23 48  1  0
 24 49  1  0
 25 50  1  0
M  END
>  <UniqueID>  (9) 
9

>  <SMILES>  (9) 
CCN(CC)CCCNc1nccc2c1sc1c(=O)oc3ccccc3c12

>  <Energy>  (9) 
104.29392979796167

>  <Genealogy>  (9) 
CCN(CC)CCCNc1nccc2c1sc1c(=O)oc3ccccc3c12 (3D coordinates assigned)
CCN(CC)CCCNc1nccc2c1sc1c(=O)oc3ccccc3c12 (optimized conformer: 104.29392979796167 kcal/mol)

>  <smiles>  (9) 
CCN(CC)CCCNc1nccc2c1sc1c(=O)oc3ccccc3c12

>  <score_type>  (9) 
oracle

>  <origin>  (9) 
adg

>  <m_score__min__energy>  (9) 
-8

>  <m_primary>  (9) 
energy

$$$$
9:0
     RDKit          3D

 42 42  0  0  0  0  0  0  0  0999 V2000
   59.9020   31.1880   47.9100 C   0  0  0  0  0  0  0  0  0  0  0  0
   60.7280   31.9270   46.8590 C   0  0  0  0  0  0  0  0  0  0  0  0
   61.0830   33.2970   47.2990 N   0  0  0  0  0  0  0  0  0  0  0  0
   62.3500   33.8090   46.7200 C   0  0  0  0  0  0  0  0  0  0  0  0
   63.5990   33.4810   47.5510 C   0  0  0  0  0  0  0  0  0  0  0  0
   59.9570   34.2390   47.1090 C   0  0  0  0  0  0  0  0  0  0  0  0
   59.5030   34.2290   45.6470 C   0  0  0  0  0  0  0  0  0  0  0  0
   58.1510   34.6390   45.5550 O   0  0  0  0  0  0  0  0  0  0  0  0
   57.3750   33.6510   44.9090 C   0  0  0  0  0  0  0  0  0  0  0  0
   57.5170   32.3290   45.6600 C   0  0  0  0  0  0  0  0  0  0  0  0
   57.1070   31.2300   44.8420 O   0  0  0  0  0  0  0  0  0  0  0  0
   57.5420   29.9010   44.9770 C   0  0  0  0  0  0  0  0  0  0  0  0
   58.8320   29.5850   44.5380 C   0  0  0  0  0  0  0  0  0  0  0  0
   59.3170   28.2800   44.6440 C   0  0  0  0  0  0  0  0  0  0  0  0
   58.5180   27.2770   45.1930 C   0  0  0  0  0  0  0  0  0  0  0  0
   57.2190   27.5690   45.6470 C   0  0  0  0  0  0  0  0  0  0  0  0
   56.3930   26.5370   46.2180 N   0  0  0  0  0  0  0  0  0  0  0  0
   55.1670   26.5000   45.9840 O   0  0  0  0  0  0  0  0  0  0  0  0
   56.9410   25.5680   47.0260 O   0  0  0  0  0  0  0  0  0  0  0  0
   56.7370   28.8870   45.5360 C   0  0  0  0  0  0  0  0  0  0  0  0
   60.2355   31.4864   48.9148 H   0  0  0  0  0  0  0  0  0  0  0  0
   58.8389   31.4420   47.7860 H   0  0  0  0  0  0  0  0  0  0  0  0
   60.0367   30.1033   47.7860 H   0  0  0  0  0  0  0  0  0  0  0  0
   61.6534   31.3624   46.6723 H   0  0  0  0  0  0  0  0  0  0  0  0
   60.1222   32.0086   45.9445 H   0  0  0  0  0  0  0  0  0  0  0  0
   62.4753   33.3682   45.7200 H   0  0  0  0  0  0  0  0  0  0  0  0
   62.2659   34.9055   46.6947 H   0  0  0  0  0  0  0  0  0  0  0  0
   63.3544   33.5452   48.6215 H   0  0  0  0  0  0  0  0  0  0  0  0
   63.9405   32.4627   47.3134 H   0  0  0  0  0  0  0  0  0  0  0  0
   64.3968   34.2001   47.3134 H   0  0  0  0  0  0  0  0  0  0  0  0
   59.1176   33.9370   47.7526 H   0  0  0  0  0  0  0  0  0  0  0  0
   60.2877   35.2535   47.3761 H   0  0  0  0  0  0  0  0  0  0  0  0
   60.1327   34.9186   45.0657 H   0  0  0  0  0  0  0  0  0  0  0  0
   59.5980   33.2086   45.2473 H   0  0  0  0  0  0  0  0  0  0  0  0
   56.3190   33.9588   44.9027 H   0  0  0  0  0  0  0  0  0  0  0  0
   57.7238   33.5265   43.8732 H   0  0  0  0  0  0  0  0  0  0  0  0
   58.5694   32.1901   45.9485 H   0  0  0  0  0  0  0  0  0  0  0  0
   56.8746   32.3613   46.5524 H   0  0  0  0  0  0  0  0  0  0  0  0
   59.4692   30.3707   44.1059 H   0  0  0  0  0  0  0  0  0  0  0  0
   60.3322   28.0421   44.2935 H   0  0  0  0  0  0  0  0  0  0  0  0
   58.9063   26.2508   45.2714 H   0  0  0  0  0  0  0  0  0  0  0  0
   55.7233   29.1281   45.8885 H   0  0  0  0  0  0  0  0  0  0  0  0
  1  2  1  0
  2  3  1  0
  3  4  1  0
  4  5  1  0
  3  6  1  0
  6  7  1  0
  7  8  1  0
  8  9  1  0
  9 10  1  0
 10 11  1  0
 11 12  1  0
 12 13  2  0
 13 14  1  0
 14 15  2  0
 15 16  1  0
 16 17  1  0
 17 18  2  0
 17 19  1  0
 16 20  2  0
 20 12  1  0
  1 21  1  0
  1 22  1  0
  1 23  1  0
  2 24  1  0
  2 25  1  0
  4 26  1  0
  4 27  1  0
  5 28  1  0
  5 29  1  0
  5 30  1  0
  6 31  1  0
  6 32  1  0
  7 33  1  0
  7 34  1  0
  9 35  1  0
  9 36  1  0
 10 37  1  0
 10 38  1  0
 13 39  1  0
 14 40  1  0
 15 41  1  0
 20 42  1  0
M  CHG  2  17   1  19  -1
M  END
>  <UniqueID>  (10) 
10

>  <SMILES>  (10) 
CCN(CC)CCOCCOc1cccc([N+](=O)[O-])c1

>  <Energy>  (10) 
41.49169262341934

>  <Genealogy>  (10) 
CCN(CC)CCOCCOc1cccc([N+](=O)[O-])c1 (3D coordinates assigned)
CCN(CC)CCOCCOc1cccc([N+](=O)[O-])c1 (optimized conformer: 41.49169262341934 kcal/mol)

>  <smiles>  (10) 
CCN(CC)CCOCCOc1cccc([N+](=O)[O-])c1

>  <score_type>  (10) 
oracle

>  <origin>  (10) 
adg

>  <m_score__min__energy>  (10) 
-6.1100000000000003

>  <m_primary>  (10) 
energy

$$$$
10:0
     RDKit          3D

 31 33  0  0  0  0  0  0  0  0999 V2000
   60.7030   33.8460   50.4580 C   0  0  0  0  0  0  0  0  0  0  0  0
   59.9950   33.4450   49.2030 C   0  0  0  0  0  0  0  0  0  0  0  0
   59.1050   32.3630   49.2080 C   0  0  0  0  0  0  0  0  0  0  0  0
   58.4510   32.0040   48.0290 C   0  0  0  0  0  0  0  0  0  0  0  0
   58.6840   32.7250   46.8470 C   0  0  0  0  0  0  0  0  0  0  0  0
   58.0350   32.3950   45.6400 C   0  0  0  0  0  0  0  0  0  0  0  0
   57.1430   31.3090   45.6070 O   0  0  0  0  0  0  0  0  0  0  0  0
   57.5300   29.9640   45.6100 C   0  0  0  0  0  0  0  0  0  0  0  0
   58.1720   29.4510   46.7420 C   0  0  0  0  0  0  0  0  0  0  0  0
   58.5810   28.1150   46.7790 C   0  0  0  0  0  0  0  0  0  0  0  0
   58.3360   27.2790   45.6860 C   0  0  0  0  0  0  0  0  0  0  0  0
   58.8930   25.4520   45.7370 Br  0  0  0  0  0  0  0  0  0  0  0  0
   57.6740   27.7770   44.5600 C   0  0  0  0  0  0  0  0  0  0  0  0
   57.2620   29.1150   44.5170 C   0  0  0  0  0  0  0  0  0  0  0  0
   56.2730   29.7210   42.9920 Br  0  0  0  0  0  0  0  0  0  0  0  0
   58.3150   33.1490   44.4820 C   0  0  0  0  0  0  0  0  0  0  0  0
   59.2100   34.2210   44.5320 C   0  0  0  0  0  0  0  0  0  0  0  0
   59.8430   34.5540   45.7300 C   0  0  0  0  0  0  0  0  0  0  0  0
   59.5880   33.8120   46.8870 C   0  0  0  0  0  0  0  0  0  0  0  0
   60.2110   34.1370   48.0510 N   0  0  0  0  0  0  0  0  0  0  0  0
   60.1194   33.5154   51.3298 H   0  0  0  0  0  0  0  0  0  0  0  0
   61.6978   33.3772   50.4836 H   0  0  0  0  0  0  0  0  0  0  0  0
   60.8125   34.9402   50.4836 H   0  0  0  0  0  0  0  0  0  0  0  0
   58.9230   31.8002   50.1354 H   0  0  0  0  0  0  0  0  0  0  0  0
   57.7518   31.1548   48.0255 H   0  0  0  0  0  0  0  0  0  0  0  0
   58.3561   30.1031   47.6085 H   0  0  0  0  0  0  0  0  0  0  0  0
   59.0956   27.7216   47.6681 H   0  0  0  0  0  0  0  0  0  0  0  0
   57.4758   27.1152   43.7040 H   0  0  0  0  0  0  0  0  0  0  0  0
   57.8250   32.8913   43.5315 H   0  0  0  0  0  0  0  0  0  0  0  0
   59.4164   34.8049   43.6229 H   0  0  0  0  0  0  0  0  0  0  0  0
   60.5435   35.4014   45.7641 H   0  0  0  0  0  0  0  0  0  0  0  0
  1  2  1  0
  2  3  2  0
  3  4  1  0
  4  5  2  0
  5  6  1  0
  6  7  1  0
  7  8  1  0
  8  9  2  0
  9 10  1  0
 10 11  2  0
 11 12  1  0
 11 13  1  0
 13 14  2  0
 14 15  1  0
  6 16  2  0
 16 17  1  0
 17 18  2  0
 18 19  1  0
 19 20  2  0
 20  2  1  0
 19  5  1  0
 14  8  1  0
  1 21  1  0
  1 22  1  0
  1 23  1  0
  3 24  1  0
  4 25  1  0
  9 26  1  0
 10 27  1  0
 13 28  1  0
 16 29  1  0
 17 30  1  0
 18 31  1  0
M  END
>  <UniqueID>  (11) 
11

>  <SMILES>  (11) 
Cc1ccc2c(Oc3ccc(Br)cc3Br)cccc2n1

>  <Energy>  (11) 
44.796190695673054

>  <Genealogy>  (11) 
Cc1ccc2c(Oc3ccc(Br)cc3Br)cccc2n1 (3D coordinates assigned)
Cc1ccc2c(Oc3ccc(Br)cc3Br)cccc2n1 (optimized conformer: 44.796190695673054 kcal/mol)

>  <smiles>  (11) 
Cc1ccc2c(Oc3ccc(Br)cc3Br)cccc2n1

>  <score_type>  (11) 
oracle

>  <origin>  (11) 
adg

>  <m_score__min__energy>  (11) 
-7.7699999999999996

>  <m_primary>  (11) 
energy

$$$$
11:0
     RDKit          3D

 40 40  0  0  0  0  0  0  0  0999 V2000
   59.6480   35.2170   45.8330 C   0  0  0  0  0  0  0  0  0  0  0  0
   60.0050   34.5880   47.1840 C   0  0  0  0  0  0  0  0  0  0  0  0
   60.9600   33.4560   47.0430 N   0  0  0  0  0  0  0  0  0  0  0  0
   62.4030   33.8330   46.9890 C   0  0  0  0  0  0  0  0  0  0  0  0
   63.4060   32.6780   47.1550 C   0  0  0  0  0  0  0  0  0  0  0  0
   60.6710   32.3330   47.9790 C   0  0  0  0  0  0  0  0  0  0  0  0
   59.8220   31.1860   47.4120 C   0  0  0  0  0  0  0  0  0  0  0  0
   59.7060   31.3010   45.9970 O   0  0  0  0  0  0  0  0  0  0  0  0
   58.6740   30.7360   45.2320 C   0  0  0  0  0  0  0  0  0  0  0  0
   58.8100   29.3890   44.8380 C   0  0  0  0  0  0  0  0  0  0  0  0
   60.0370   28.6120   45.2270 C   0  0  0  0  0  0  0  0  0  0  0  0
   57.7870   28.7660   44.1100 C   0  0  0  0  0  0  0  0  0  0  0  0
   56.6400   29.4740   43.7600 C   0  0  0  0  0  0  0  0  0  0  0  0
   56.5090   30.8160   44.1140 C   0  0  0  0  0  0  0  0  0  0  0  0
   57.5260   31.4690   44.8300 C   0  0  0  0  0  0  0  0  0  0  0  0
   57.3740   32.9380   45.1170 C   0  0  0  0  0  0  0  0  0  0  0  0
   59.1113   36.1627   45.9992 H   0  0  0  0  0  0  0  0  0  0  0  0
   60.5693   35.4133   45.2650 H   0  0  0  0  0  0  0  0  0  0  0  0
   59.0071   34.5266   45.2650 H   0  0  0  0  0  0  0  0  0  0  0  0
   60.4607   35.3581   47.8238 H   0  0  0  0  0  0  0  0  0  0  0  0
   59.0788   34.1946   47.6282 H   0  0  0  0  0  0  0  0  0  0  0  0
   60.7550   33.0360   46.1040 H   0  0  0  0  0  0  0  0  0  0  0  0
   62.5916   34.3056   46.0138 H   0  0  0  0  0  0  0  0  0  0  0  0
   62.5694   34.4977   47.8495 H   0  0  0  0  0  0  0  0  0  0  0  0
   63.5716   32.4872   48.2256 H   0  0  0  0  0  0  0  0  0  0  0  0
   63.0036   31.7716   46.6790 H   0  0  0  0  0  0  0  0  0  0  0  0
   64.3598   32.9494   46.6790 H   0  0  0  0  0  0  0  0  0  0  0  0
   61.6329   31.9105   48.3050 H   0  0  0  0  0  0  0  0  0  0  0  0
   60.0732   32.7708   48.7920 H   0  0  0  0  0  0  0  0  0  0  0  0
   60.2996   30.2263   47.6589 H   0  0  0  0  0  0  0  0  0  0  0  0
   58.8167   31.2357   47.8557 H   0  0  0  0  0  0  0  0  0  0  0  0
   60.1095   28.5661   46.3236 H   0  0  0  0  0  0  0  0  0  0  0  0
   59.9691   27.5919   44.8210 H   0  0  0  0  0  0  0  0  0  0  0  0
   60.9301   29.1095   44.8210 H   0  0  0  0  0  0  0  0  0  0  0  0
   57.8907   27.7118   43.8134 H   0  0  0  0  0  0  0  0  0  0  0  0
   55.8350   28.9728   43.2025 H   0  0  0  0  0  0  0  0  0  0  0  0
   55.6012   31.3685   43.8301 H   0  0  0  0  0  0  0  0  0  0  0  0
   57.3573   33.0992   46.2050 H   0  0  0  0  0  0  0  0  0  0  0  0
   58.2201   33.4869   44.6779 H   0  0  0  0  0  0  0  0  0  0  0  0
   56.4334   33.3020   44.6779 H   0  0  0  0  0  0  0  0  0  0  0  0
  1  2  1  0
  2  3  1  0
  3  4  1  0
  4  5  1  0
  3  6  1  0
  6  7  1  0
  7  8  1  0
  8  9  1  0
  9 10  2  0
 10 11  1  0
 10 12  1  0
 12 13  2  0
 13 14  1  0
 14 15  2  0
 15 16  1  0
 15  9  1  0
  1 17  1  0
  1 18  1  0
  1 19  1  0
  2 20  1  0
  2 21  1  0
  3 22  1  0
  4 23  1  0
  4 24  1  0
  5 25  1  0
  5 26  1  0
  5 27  1  0
  6 28  1  0
  6 29  1  0
  7 30  1  0
  7 31  1  0
 11 32  1  0
 11 33  1  0
 11 34  1  0
 12 35  1  0
 13 36  1  0
 14 37  1  0
 16 38  1  0
 16 39  1  0
 16 40  1  0
M  CHG  1   3   1
M  END
>  <UniqueID>  (12) 
12

>  <SMILES>  (12) 
CC[NH+](CC)CCOc1c(C)cccc1C

>  <Energy>  (12) 
49.59291888565913

>  <Genealogy>  (12) 
CC[NH+](CC)CCOc1c(C)cccc1C (protonated)
CC[NH+](CC)CCOc1c(C)cccc1C (3D coordinates assigned)
CC[NH+](CC)CCOc1c(C)cccc1C (optimized conformer: 49.59291888565913 kcal/mol)

>  <smiles>  (12) 
CCN(CC)CCOc1c(C)cccc1C

>  <score_type>  (12) 
oracle

>  <origin>  (12) 
adg

>  <m_score__min__energy>  (12) 
-3.4199999999999999

>  <m_primary>  (12) 
energy

$$$$
12:0
     RDKit          3D

 57 59  0  0  0  0  0  0  0  0999 V2000
   58.2900   30.4550   50.5800 C   0  0  0  0  0  0  0  0  0  0  0  0
   59.5370   29.6960   51.0410 C   0  0  0  0  0  0  0  0  0  0  0  0
   60.1410   28.9000   49.9560 N   0  0  0  0  0  0  0  0  0  0  0  0
   60.6900   27.6210   50.4310 C   0  0  0  0  0  0  0  0  0  0  0  0
   60.8680   26.6540   49.2560 C   0  0  0  0  0  0  0  0  0  0  0  0
   60.4330   27.2760   48.0050 N   0  0  0  0  0  0  0  0  0  0  0  0
   59.0950   27.1440   47.4930 C   0  0  0  0  0  0  0  0  0  0  0  0
   58.4450   25.9200   47.6630 C   0  0  0  0  0  0  0  0  0  0  0  0
   57.2040   25.6880   47.0980 C   0  0  0  0  0  0  0  0  0  0  0  0
   56.5680   26.6660   46.3300 C   0  0  0  0  0  0  0  0  0  0  0  0
   55.3090   26.3300   45.7230 N   0  0  0  0  0  0  0  0  0  0  0  0
   54.8290   24.9520   45.5960 C   0  0  0  0  0  0  0  0  0  0  0  0
   55.5820   24.2080   44.4690 C   0  0  0  0  0  0  0  0  0  0  0  0
   56.3010   22.9870   44.9020 N   0  0  0  0  0  0  0  0  0  0  0  0
   57.7520   23.0570   44.6650 C   0  0  0  0  0  0  0  0  0  0  0  0
   56.0010   22.5960   46.2870 C   0  0  0  0  0  0  0  0  0  0  0  0
   57.1940   27.9360   46.1380 C   0  0  0  0  0  0  0  0  0  0  0  0
   56.5790   28.9680   45.3830 C   0  0  0  0  0  0  0  0  0  0  0  0
   55.3260   28.7840   44.8030 O   0  0  0  0  0  0  0  0  0  0  0  0
   57.2150   30.2060   45.2010 C   0  0  0  0  0  0  0  0  0  0  0  0
   56.6170   31.2010   44.4000 C   0  0  0  0  0  0  0  0  0  0  0  0
   57.2470   32.4270   44.1980 C   0  0  0  0  0  0  0  0  0  0  0  0
   58.4840   32.6770   44.7820 C   0  0  0  0  0  0  0  0  0  0  0  0
   59.0890   31.7100   45.5860 C   0  0  0  0  0  0  0  0  0  0  0  0
   58.4570   30.4690   45.8280 C   0  0  0  0  0  0  0  0  0  0  0  0
   59.0380   29.4860   46.6660 C   0  0  0  0  0  0  0  0  0  0  0  0
   60.1500   29.7950   47.4580 O   0  0  0  0  0  0  0  0  0  0  0  0
   58.4610   28.1890   46.7550 C   0  0  0  0  0  0  0  0  0  0  0  0
   57.7246   30.7992   51.4585 H   0  0  0  0  0  0  0  0  0  0  0  0
   58.5917   31.3228   49.9751 H   0  0  0  0  0  0  0  0  0  0  0  0
   57.6577   29.7884   49.9751 H   0  0  0  0  0  0  0  0  0  0  0  0
   60.2798   30.4224   51.4024 H   0  0  0  0  0  0  0  0  0  0  0  0
   59.2328   29.0019   51.8383 H   0  0  0  0  0  0  0  0  0  0  0  0
   59.4240   28.7140   49.2170 H   0  0  0  0  0  0  0  0  0  0  0  0
   61.6658   27.7985   50.9068 H   0  0  0  0  0  0  0  0  0  0  0  0
   59.9932   27.1787   51.1582 H   0  0  0  0  0  0  0  0  0  0  0  0
   61.9297   26.3786   49.1724 H   0  0  0  0  0  0  0  0  0  0  0  0
   60.2552   25.7589   49.4382 H   0  0  0  0  0  0  0  0  0  0  0  0
   61.1310   27.8250   47.4550 H   0  0  0  0  0  0  0  0  0  0  0  0
   58.9271   25.1283   48.2552 H   0  0  0  0  0  0  0  0  0  0  0  0
   56.7101   24.7179   47.2560 H   0  0  0  0  0  0  0  0  0  0  0  0
   54.7700   27.0780   45.2330 H   0  0  0  0  0  0  0  0  0  0  0  0
   54.9920   24.4246   46.5474 H   0  0  0  0  0  0  0  0  0  0  0  0
   53.7575   24.9741   45.3481 H   0  0  0  0  0  0  0  0  0  0  0  0
   54.8495   23.9193   43.7009 H   0  0  0  0  0  0  0  0  0  0  0  0
   56.3492   24.9036   44.0981 H   0  0  0  0  0  0  0  0  0  0  0  0
   58.2803   23.0825   45.6295 H   0  0  0  0  0  0  0  0  0  0  0  0
   58.0733   22.1733   44.0942 H   0  0  0  0  0  0  0  0  0  0  0  0
   57.9868   23.9675   44.0942 H   0  0  0  0  0  0  0  0  0  0  0  0
   56.5209   23.2737   46.9801 H   0  0  0  0  0  0  0  0  0  0  0  0
   54.9162   22.6576   46.4586 H   0  0  0  0  0  0  0  0  0  0  0  0
   56.3414   21.5642   46.4586 H   0  0  0  0  0  0  0  0  0  0  0  0
   55.6419   31.0067   43.9294 H   0  0  0  0  0  0  0  0  0  0  0  0
   56.7661   33.1970   43.5768 H   0  0  0  0  0  0  0  0  0  0  0  0
   58.9872   33.6399   44.6097 H   0  0  0  0  0  0  0  0  0  0  0  0
   60.0707   31.9163   46.0374 H   0  0  0  0  0  0  0  0  0  0  0  0
   60.2510   29.5520   48.4330 H   0  0  0  0  0  0  0  0  0  0  0  0
  1  2  1  0
  2  3  1  0
  3  4  1  0
  4  5  1  0
  5  6  1  0
  6  7  1  0
  7  8  2  0
  8  9  1  0
  9 10  2  0
 10 11  1  0
 11 12  1  0
 12 13  1  0
 13 14  1  0
 14 15  1  0
 14 16  1  0
 10 17  1  0
 17 18  2  0
 18 19  1  0
 18 20  1  0
 20 21  2  0
 21 22  1  0
 22 23  2  0
 23 24  1  0
 24 25  2  0
 25 26  1  0
 26 27  1  0
 26 28  2  0
 28  7  1  0
 28 17  1  0
 25 20  1  0
  1 29  1  0
  1 30  1  0
  1 31  1  0
  2 32  1  0
  2 33  1  0
  3 34  1  0
  4 35  1  0
  4 36  1  0
  5 37  1  0
  5 38  1  0
  6 39  1  0
  8 40  1  0
  9 41  1  0
 11 42  1  0
 12 43  1  0
 12 44  1  0
 13 45  1  0
 13 46  1  0
 15 47  1  0
 15 48  1  0
 15 49  1  0
 16 50  1  0
 16 51  1  0
 16 52  1  0
 21 53  1  0
 22 54  1  0
 23 55  1  0
 24 56  1  0
 27 57  1  0
M  CHG  1  19  -1
M  END
>  <UniqueID>  (13) 
13

>  <SMILES>  (13) 
CCNCCNc1ccc(NCCN(C)C)c2c([O-])c3ccccc3c(O)c12

>  <Energy>  (13) 
86.7484164118344

>  <Genealogy>  (13) 
CCNCCNc1ccc(NCCN(C)C)c2c([O-])c3ccccc3c(O)c12 (protonated)
CCNCCNc1ccc(NCCN(C)C)c2c([O-])c3ccccc3c(O)c12 (3D coordinates assigned)
CCNCCNc1ccc(NCCN(C)C)c2c([O-])c3ccccc3c(O)c12 (optimized conformer: 86.7484164118344 kcal/mol)

>  <smiles>  (13) 
CCNCCNc1ccc(NCCN(C)C)c2c(O)c3ccccc3c(O)c12

>  <score_type>  (13) 
oracle

>  <origin>  (13) 
adg

>  <m_score__min__energy>  (13) 
-8.5700000000000003

>  <m_primary>  (13) 
energy

$$$$
13:0
     RDKit          3D

 58 61  0  0  0  0  0  0  0  0999 V2000
   60.7640   29.8590   51.8570 C   0  0  0  0  0  0  0  0  0  0  0  0
   61.7550   29.4220   50.7820 C   0  0  0  0  0  0  0  0  0  0  0  0
   61.2290   29.7250   49.4310 N   0  0  0  0  0  0  0  0  0  0  0  0
   60.3540   28.8230   48.8540 C   0  0  0  0  0  0  0  0  0  0  0  0
   60.0330   27.7620   49.4550 O   0  0  0  0  0  0  0  0  0  0  0  0
   59.8130   29.0980   47.5930 C   0  0  0  0  0  0  0  0  0  0  0  0
   60.1490   30.2400   46.9280 C   0  0  0  0  0  0  0  0  0  0  0  0
   59.4220   30.2630   45.7520 C   0  0  0  0  0  0  0  0  0  0  0  0
   58.6430   29.1150   45.7720 C   0  0  0  0  0  0  0  0  0  0  0  0
   57.6040   28.7830   44.7290 C   0  0  0  0  0  0  0  0  0  0  0  0
   56.5180   29.7800   44.6880 N   0  0  0  0  0  0  0  0  0  0  0  0
   56.6920   30.8320   43.6720 C   0  0  0  0  0  0  0  0  0  0  0  0
   57.3880   32.1050   44.1940 C   0  0  0  0  0  0  0  0  0  0  0  0
   57.0250   32.4460   45.6510 C   0  0  0  0  0  0  0  0  0  0  0  0
   57.4810   33.8070   46.0060 N   0  0  0  0  0  0  0  0  0  0  0  0
   58.3850   33.7600   47.1780 C   0  0  0  0  0  0  0  0  0  0  0  0
   59.2870   35.0040   47.2310 C   0  0  0  0  0  0  0  0  0  0  0  0
   60.1410   35.1370   46.1020 O   0  0  0  0  0  0  0  0  0  0  0  0
   59.6260   34.5330   44.9220 C   0  0  0  0  0  0  0  0  0  0  0  0
   58.0880   34.5240   44.8550 C   0  0  0  0  0  0  0  0  0  0  0  0
   58.9060   28.3820   46.8870 N   0  0  0  0  0  0  0  0  0  0  0  0
   58.3030   27.1020   47.2690 C   0  0  0  0  0  0  0  0  0  0  0  0
   61.0490   31.1610   47.4590 C   0  0  0  0  0  0  0  0  0  0  0  0
   61.3960   32.3360   46.7710 C   0  0  0  0  0  0  0  0  0  0  0  0
   62.3070   33.2310   47.3270 C   0  0  0  0  0  0  0  0  0  0  0  0
   62.8860   32.9590   48.5640 C   0  0  0  0  0  0  0  0  0  0  0  0
   62.5510   31.7970   49.2650 C   0  0  0  0  0  0  0  0  0  0  0  0
   61.6110   30.8750   48.7400 C   0  0  0  0  0  0  0  0  0  0  0  0
   61.1944   29.6692   52.8514 H   0  0  0  0  0  0  0  0  0  0  0  0
   60.5540   30.9332   51.7473 H   0  0  0  0  0  0  0  0  0  0  0  0
   59.8293   29.2896   51.7473 H   0  0  0  0  0  0  0  0  0  0  0  0
   62.7051   29.9567   50.9279 H   0  0  0  0  0  0  0  0  0  0  0  0
   61.9114   28.3364   50.8654 H   0  0  0  0  0  0  0  0  0  0  0  0
   59.4545   31.0309   44.9651 H   0  0  0  0  0  0  0  0  0  0  0  0
   58.0903   28.7481   43.7430 H   0  0  0  0  0  0  0  0  0  0  0  0
   57.1606   27.8110   44.9911 H   0  0  0  0  0  0  0  0  0  0  0  0
   56.3150   30.1960   45.6240 H   0  0  0  0  0  0  0  0  0  0  0  0
   57.2960   30.4210   42.8496 H   0  0  0  0  0  0  0  0  0  0  0  0
   55.6835   31.1318   43.3511 H   0  0  0  0  0  0  0  0  0  0  0  0
   58.4763   31.9583   44.1309 H   0  0  0  0  0  0  0  0  0  0  0  0
   57.0447   32.9426   43.5690 H   0  0  0  0  0  0  0  0  0  0  0  0
   55.9332   32.3893   45.7724 H   0  0  0  0  0  0  0  0  0  0  0  0
   57.5245   31.7248   46.3146 H   0  0  0  0  0  0  0  0  0  0  0  0
   57.7809   33.7148   48.0962 H   0  0  0  0  0  0  0  0  0  0  0  0
   59.0236   32.8686   47.0913 H   0  0  0  0  0  0  0  0  0  0  0  0
   58.6460   35.8960   47.2890 H   0  0  0  0  0  0  0  0  0  0  0  0
   59.9343   34.8955   48.1138 H   0  0  0  0  0  0  0  0  0  0  0  0
   60.0087   35.0871   44.0522 H   0  0  0  0  0  0  0  0  0  0  0  0
   59.9548   33.4833   44.9271 H   0  0  0  0  0  0  0  0  0  0  0  0
   57.7272   35.5631   44.8546 H   0  0  0  0  0  0  0  0  0  0  0  0
   57.7928   33.9978   43.9352 H   0  0  0  0  0  0  0  0  0  0  0  0
   58.2673   27.0263   48.3658 H   0  0  0  0  0  0  0  0  0  0  0  0
   57.2820   27.0423   46.8640 H   0  0  0  0  0  0  0  0  0  0  0  0
   58.9070   26.2767   46.8640 H   0  0  0  0  0  0  0  0  0  0  0  0
   60.9467   32.5498   45.7900 H   0  0  0  0  0  0  0  0  0  0  0  0
   62.5694   34.1536   46.7885 H   0  0  0  0  0  0  0  0  0  0  0  0
   63.6129   33.6644   48.9930 H   0  0  0  0  0  0  0  0  0  0  0  0
   63.0234   31.5952   50.2377 H   0  0  0  0  0  0  0  0  0  0  0  0
  1  2  1  0
  2  3  1  0
  3  4  1  0
  4  5  2  0
  4  6  1  0
  6  7  2  0
  7  8  1  0
  8  9  2  0
  9 10  1  0
 10 11  1  0
 11 12  1  0
 12 13  1  0
 13 14  1  0
 14 15  1  0
 15 16  1  0
 16 17  1  0
 17 18  1  0
 18 19  1  0
 19 20  1  0
  9 21  1  0
 21 22  1  0
  7 23  1  0
 23 24  2  0
 24 25  1  0
 25 26  2  0
 26 27  1  0
 27 28  2  0
 28  3  1  0
 21  6  1  0
 28 23  1  0
 20 15  1  0
  1 29  1  0
  1 30  1  0
  1 31  1  0
  2 32  1  0
  2 33  1  0
  8 34  1  0
 10 35  1  0
 10 36  1  0
 11 37  1  0
 12 38  1  0
 12 39  1  0
 13 40  1  0
 13 41  1  0
 14 42  1  0
 14 43  1  0
 16 44  1  0
 16 45  1  0
 17 46  1  0
 17 47  1  0
 19 48  1  0
 19 49  1  0
 20 50  1  0
 20 51  1  0
 22 52  1  0
 22 53  1  0
 22 54  1  0
 24 55  1  0
 25 56  1  0
 26 57  1  0
 27 58  1  0
M  END
>  <UniqueID>  (14) 
14

>  <SMILES>  (14) 
CCn1c(=O)c2c(cc(CNCCCN3CCOCC3)n2C)c2ccccc21

>  <Energy>  (14) 
113.26952348340306

>  <Genealogy>  (14) 
CCn1c(=O)c2c(cc(CNCCCN3CCOCC3)n2C)c2ccccc21 (3D coordinates assigned)
CCn1c(=O)c2c(cc(CNCCCN3CCOCC3)n2C)c2ccccc21 (nonaromatic ring conformer: 113.26952348340306 kcal/mol)

>  <smiles>  (14) 
CCn1c(=O)c2c(cc(CNCCCN3CCOCC3)n2C)c2ccccc21

>  <score_type>  (14) 
oracle

>  <origin>  (14) 
adg

>  <m_score__min__energy>  (14) 
-8.0800000000000001

>  <m_primary>  (14) 
energy

$$$$
14:0
     RDKit          3D

 39 41  0  0  0  0  0  0  0  0999 V2000
   65.3600   31.8810   50.4840 C   0  0  0  0  0  0  0  0  0  0  0  0
   65.1000   33.0660   49.5510 C   0  0  0  0  0  0  0  0  0  0  0  0
   64.4000   32.6660   48.3180 N   0  0  0  0  0  0  0  0  0  0  0  0
   62.9920   32.9830   48.3800 C   0  0  0  0  0  0  0  0  0  0  0  0
   62.5150   33.9170   49.3150 C   0  0  0  0  0  0  0  0  0  0  0  0
   61.1570   34.2410   49.3590 C   0  0  0  0  0  0  0  0  0  0  0  0
   60.2630   33.6410   48.4700 C   0  0  0  0  0  0  0  0  0  0  0  0
   60.7200   32.7040   47.5310 C   0  0  0  0  0  0  0  0  0  0  0  0
   59.7780   32.0810   46.5740 C   0  0  0  0  0  0  0  0  0  0  0  0
   59.1020   32.7600   45.5590 C   0  0  0  0  0  0  0  0  0  0  0  0
   59.1620   34.1670   45.2570 C   0  0  0  0  0  0  0  0  0  0  0  0
   59.2090   35.2970   45.0150 N   0  0  0  0  0  0  0  0  0  0  0  0
   58.2940   31.8240   44.9500 C   0  0  0  0  0  0  0  0  0  0  0  0
   57.3830   31.9490   43.9000 C   0  0  0  0  0  0  0  0  0  0  0  0
   56.6770   30.8010   43.5030 C   0  0  0  0  0  0  0  0  0  0  0  0
   56.8880   29.5690   44.1590 C   0  0  0  0  0  0  0  0  0  0  0  0
   57.8100   29.4730   45.2170 C   0  0  0  0  0  0  0  0  0  0  0  0
   58.5050   30.6270   45.5900 C   0  0  0  0  0  0  0  0  0  0  0  0
   59.4220   30.7670   46.5750 N   0  0  0  0  0  0  0  0  0  0  0  0
   59.9050   29.7130   47.4690 C   0  0  0  0  0  0  0  0  0  0  0  0
   62.0860   32.3830   47.4870 C   0  0  0  0  0  0  0  0  0  0  0  0
   65.2868   32.2146   51.5296 H   0  0  0  0  0  0  0  0  0  0  0  0
   64.6128   31.0958   50.2965 H   0  0  0  0  0  0  0  0  0  0  0  0
   66.3673   31.4808   50.2965 H   0  0  0  0  0  0  0  0  0  0  0  0
   64.4840   33.8060   50.0829 H   0  0  0  0  0  0  0  0  0  0  0  0
   66.0747   33.4862   49.2624 H   0  0  0  0  0  0  0  0  0  0  0  0
   64.5080   31.6330   48.1940 H   0  0  0  0  0  0  0  0  0  0  0  0
   64.8480   33.1230   47.4890 H   0  0  0  0  0  0  0  0  0  0  0  0
   63.2147   34.3956   50.0160 H   0  0  0  0  0  0  0  0  0  0  0  0
   60.7909   34.9709   50.0961 H   0  0  0  0  0  0  0  0  0  0  0  0
   59.1955   33.9041   48.5060 H   0  0  0  0  0  0  0  0  0  0  0  0
   57.2229   32.9153   43.3994 H   0  0  0  0  0  0  0  0  0  0  0  0
   55.9550   30.8626   42.6754 H   0  0  0  0  0  0  0  0  0  0  0  0
   56.3274   28.6777   43.8406 H   0  0  0  0  0  0  0  0  0  0  0  0
   57.9791   28.5178   45.7356 H   0  0  0  0  0  0  0  0  0  0  0  0
   59.7621   30.0247   48.5142 H   0  0  0  0  0  0  0  0  0  0  0  0
   59.3414   28.7870   47.2823 H   0  0  0  0  0  0  0  0  0  0  0  0
   60.9744   29.5353   47.2823 H   0  0  0  0  0  0  0  0  0  0  0  0
   62.4512   31.6554   46.7472 H   0  0  0  0  0  0  0  0  0  0  0  0
  1  2  1  0
  2  3  1  0
  3  4  1  0
  4  5  2  0
  5  6  1  0
  6  7  2  0
  7  8  1  0
  8  9  1  0
  9 10  2  0
 10 11  1  0
 11 12  3  0
 10 13  1  0
 13 14  2  0
 14 15  1  0
 15 16  2  0
 16 17  1  0
 17 18  2  0
 18 19  1  0
 19 20  1  0
  8 21  2  0
 21  4  1  0
 19  9  1  0
 18 13  1  0
  1 22  1  0
  1 23  1  0
  1 24  1  0
  2 25  1  0
  2 26  1  0
  3 27  1  0
  3 28  1  0
  5 29  1  0
  6 30  1  0
  7 31  1  0
 14 32  1  0
 15 33  1  0
 16 34  1  0
 17 35  1  0
 20 36  1  0
 20 37  1  0
 20 38  1  0
 21 39  1  0
M  CHG  1   3   1
M  END
>  <UniqueID>  (15) 
15

>  <SMILES>  (15) 
CC[NH2+]c1cccc(-c2c(C#N)c3ccccc3n2C)c1

>  <Energy>  (15) 
79.20599766132203

>  <Genealogy>  (15) 
CC[NH2+]c1cccc(-c2c(C#N)c3ccccc3n2C)c1 (protonated)
CC[NH2+]c1cccc(-c2c(C#N)c3ccccc3n2C)c1 (3D coordinates assigned)
CC[NH2+]c1cccc(-c2c(C#N)c3ccccc3n2C)c1 (optimized conformer: 79.20599766132203 kcal/mol)

>  <smiles>  (15) 
CCNc1cccc(-c2c(C#N)c3ccccc3n2C)c1

>  <score_type>  (15) 
oracle

>  <origin>  (15) 
adg

>  <m_score__min__energy>  (15) 
-6.0300000000000002

>  <m_primary>  (15) 
energy

$$$$
15:0
     RDKit          3D

 61 64  0  0  0  0  0  0  0  0999 V2000
   56.6660   24.4210   44.1580 C   0  0  0  0  0  0  0  0  0  0  0  0
   55.4990   24.3960   45.1430 C   0  0  0  0  0  0  0  0  0  0  0  0
   55.5170   25.5500   45.9840 O   0  0  0  0  0  0  0  0  0  0  0  0
   56.6380   26.3590   46.2390 C   0  0  0  0  0  0  0  0  0  0  0  0
   57.6990   25.7970   46.9820 C   0  0  0  0  0  0  0  0  0  0  0  0
   58.8380   26.5520   47.2980 C   0  0  0  0  0  0  0  0  0  0  0  0
   58.9070   27.8620   46.8350 C   0  0  0  0  0  0  0  0  0  0  0  0
   59.8770   28.7540   47.1100 N   0  0  0  0  0  0  0  0  0  0  0  0
   59.4790   29.9040   46.5240 C   0  0  0  0  0  0  0  0  0  0  0  0
   60.0910   31.1470   46.6300 C   0  0  0  0  0  0  0  0  0  0  0  0
   61.2580   31.2990   47.4550 N   0  0  0  0  0  0  0  0  0  0  0  0
   61.1700   31.8550   48.8070 C   0  0  0  0  0  0  0  0  0  0  0  0
   61.7070   33.3010   48.8540 C   0  0  0  0  0  0  0  0  0  0  0  0
   63.1960   33.3610   48.8850 N   0  0  0  0  0  0  0  0  0  0  0  0
   63.7680   32.9070   47.5880 C   0  0  0  0  0  0  0  0  0  0  0  0
   63.3740   33.8120   46.4120 C   0  0  0  0  0  0  0  0  0  0  0  0
   63.7450   32.6310   50.0590 C   0  0  0  0  0  0  0  0  0  0  0  0
   65.2510   32.3430   49.9800 C   0  0  0  0  0  0  0  0  0  0  0  0
   59.4580   32.2440   45.9970 C   0  0  0  0  0  0  0  0  0  0  0  0
   60.0380   33.5270   46.0260 C   0  0  0  0  0  0  0  0  0  0  0  0
   59.3780   34.6180   45.4660 C   0  0  0  0  0  0  0  0  0  0  0  0
   58.1330   34.4530   44.8690 C   0  0  0  0  0  0  0  0  0  0  0  0
   57.5530   33.1860   44.7860 C   0  0  0  0  0  0  0  0  0  0  0  0
   58.2160   32.0440   45.3030 C   0  0  0  0  0  0  0  0  0  0  0  0
   57.6860   30.7680   45.1660 N   0  0  0  0  0  0  0  0  0  0  0  0
   56.5670   30.4860   44.2520 C   0  0  0  0  0  0  0  0  0  0  0  0
   58.2850   29.7440   45.8540 C   0  0  0  0  0  0  0  0  0  0  0  0
   57.8950   28.4220   46.0780 C   0  0  0  0  0  0  0  0  0  0  0  0
   56.7260   27.7020   45.7980 C   0  0  0  0  0  0  0  0  0  0  0  0
   57.6148   24.4413   44.7141 H   0  0  0  0  0  0  0  0  0  0  0  0
   56.6311   23.5219   43.5252 H   0  0  0  0  0  0  0  0  0  0  0  0
   56.5926   25.3178   43.5252 H   0  0  0  0  0  0  0  0  0  0  0  0
   54.5537   24.3748   44.5809 H   0  0  0  0  0  0  0  0  0  0  0  0
   55.5910   23.4998   45.7741 H   0  0  0  0  0  0  0  0  0  0  0  0
   57.6313   24.7517   47.3179 H   0  0  0  0  0  0  0  0  0  0  0  0
   59.6543   26.1201   47.8956 H   0  0  0  0  0  0  0  0  0  0  0  0
   60.7240   28.5950   47.6990 H   0  0  0  0  0  0  0  0  0  0  0  0
   62.0680   30.6780   47.2570 H   0  0  0  0  0  0  0  0  0  0  0  0
   60.1178   31.8528   49.1277 H   0  0  0  0  0  0  0  0  0  0  0  0
   61.7824   31.2350   49.4782 H   0  0  0  0  0  0  0  0  0  0  0  0
   61.3517   33.8375   47.9619 H   0  0  0  0  0  0  0  0  0  0  0  0
   61.3365   33.7630   49.7810 H   0  0  0  0  0  0  0  0  0  0  0  0
   63.4820   34.3590   49.0120 H   0  0  0  0  0  0  0  0  0  0  0  0
   64.8648   32.8981   47.6720 H   0  0  0  0  0  0  0  0  0  0  0  0
   63.3651   31.9043   47.3824 H   0  0  0  0  0  0  0  0  0  0  0  0
   62.9628   34.7565   46.7979 H   0  0  0  0  0  0  0  0  0  0  0  0
   64.2619   34.0225   45.7978 H   0  0  0  0  0  0  0  0  0  0  0  0
   62.6150   33.3054   45.7978 H   0  0  0  0  0  0  0  0  0  0  0  0
   63.5572   33.2356   50.9585 H   0  0  0  0  0  0  0  0  0  0  0  0
   63.2398   31.6542   50.0853 H   0  0  0  0  0  0  0  0  0  0  0  0
   65.6631   32.2642   50.9969 H   0  0  0  0  0  0  0  0  0  0  0  0
   65.4158   31.3971   49.4433 H   0  0  0  0  0  0  0  0  0  0  0  0
   65.7532   33.1614   49.4433 H   0  0  0  0  0  0  0  0  0  0  0  0
   61.0225   33.6688   46.4958 H   0  0  0  0  0  0  0  0  0  0  0  0
   59.8434   35.6142   45.4961 H   0  0  0  0  0  0  0  0  0  0  0  0
   57.6024   35.3255   44.4600 H   0  0  0  0  0  0  0  0  0  0  0  0
   56.5668   33.0717   44.3124 H   0  0  0  0  0  0  0  0  0  0  0  0
   55.6639   30.2584   44.8373 H   0  0  0  0  0  0  0  0  0  0  0  0
   56.3810   31.3654   43.6179 H   0  0  0  0  0  0  0  0  0  0  0  0
   56.8200   29.6235   43.6179 H   0  0  0  0  0  0  0  0  0  0  0  0
   55.8956   28.1692   45.2482 H   0  0  0  0  0  0  0  0  0  0  0  0
  1  2  1  0
  2  3  1  0
  3  4  1  0
  4  5  2  0
  5  6  1  0
  6  7  2  0
  7  8  1  0
  8  9  1  0
  9 10  2  0
 10 11  1  0
 11 12  1  0
 12 13  1  0
 13 14  1  0
 14 15  1  0
 15 16  1  0
 14 17  1  0
 17 18  1  0
 10 19  1  0
 19 20  2  0
 20 21  1  0
 21 22  2  0
 22 23  1  0
 23 24  2  0
 24 25  1  0
 25 26  1  0
 25 27  2  0
 27 28  1  0
 28 29  2  0
 29  4  1  0
 28  7  1  0
 27  9  1  0
 24 19  1  0
  1 30  1  0
  1 31  1  0
  1 32  1  0
  2 33  1  0
  2 34  1  0
  5 35  1  0
  6 36  1  0
  8 37  1  0
 11 38  1  0
 12 39  1  0
 12 40  1  0
 13 41  1  0
 13 42  1  0
 14 43  1  0
 15 44  1  0
 15 45  1  0
 16 46  1  0
 16 47  1  0
 16 48  1  0
 17 49  1  0
 17 50  1  0
 18 51  1  0
 18 52  1  0
 18 53  1  0
 20 54  1  0
 21 55  1  0
 22 56  1  0
 23 57  1  0
 26 58  1  0
 26 59  1  0
 26 60  1  0
 29 61  1  0
M  CHG  2  14   1  25   1
M  END
>  <UniqueID>  (16) 
16

>  <SMILES>  (16) 
CCOc1ccc2[nH]c3c(NCC[NH+](CC)CC)c4ccccc4[n+](C)c3c2c1

>  <Energy>  (16) 
123.06231031272945

>  <Genealogy>  (16) 
CCOc1ccc2[nH]c3c(NCC[NH+](CC)CC)c4ccccc4[n+](C)c3c2c1 (protonated)
CCOc1ccc2[nH]c3c(NCC[NH+](CC)CC)c4ccccc4[n+](C)c3c2c1 (3D coordinates assigned)
CCOc1ccc2[nH]c3c(NCC[NH+](CC)CC)c4ccccc4[n+](C)c3c2c1 (optimized conformer: 123.06231031272945 kcal/mol)

>  <smiles>  (16) 
CCOc1ccc2[nH]c3c(NCCN(CC)CC)c4ccccc4[n+](C)c3c2c1

>  <score_type>  (16) 
oracle

>  <origin>  (16) 
adg

>  <m_score__min__energy>  (16) 
-5.4699999999999998

>  <m_primary>  (16) 
energy

$$$$
16:0
     RDKit          3D

 61 64  0  0  0  0  0  0  0  0999 V2000
   63.6150   33.4510   48.1300 C   0  0  0  0  0  0  0  0  0  0  0  0
   62.6750   34.2200   49.0440 C   0  0  0  0  0  0  0  0  0  0  0  0
   61.8430   33.3070   49.7520 O   0  0  0  0  0  0  0  0  0  0  0  0
   60.5450   33.6250   50.1630 C   0  0  0  0  0  0  0  0  0  0  0  0
   59.6890   33.9830   49.3110 O   0  0  0  0  0  0  0  0  0  0  0  0
   60.1820   33.5360   51.5550 N   0  0  0  0  0  0  0  0  0  0  0  0
   58.8560   33.9960   51.9900 C   0  0  0  0  0  0  0  0  0  0  0  0
   58.5290   33.5110   53.4080 C   0  0  0  0  0  0  0  0  0  0  0  0
   59.1590   32.2130   53.7150 N   0  0  0  0  0  0  0  0  0  0  0  0
   58.4460   31.0090   53.2270 C   0  0  0  0  0  0  0  0  0  0  0  0
   59.0250   30.3910   51.9320 C   0  0  0  0  0  0  0  0  0  0  0  0
   58.3210   30.9430   50.6860 C   0  0  0  0  0  0  0  0  0  0  0  0
   59.2120   30.9150   49.5240 N   0  0  0  0  0  0  0  0  0  0  0  0
   59.5260   29.6910   48.8480 C   0  0  0  0  0  0  0  0  0  0  0  0
   59.3020   28.5850   49.4100 O   0  0  0  0  0  0  0  0  0  0  0  0
   60.1410   29.7070   47.4740 C   0  0  0  0  0  0  0  0  0  0  0  0
   59.5130   30.7480   46.6240 N   0  0  0  0  0  0  0  0  0  0  0  0
   59.9860   32.0390   46.7440 C   0  0  0  0  0  0  0  0  0  0  0  0
   60.9240   32.3220   47.5420 O   0  0  0  0  0  0  0  0  0  0  0  0
   59.4200   33.0470   45.9690 C   0  0  0  0  0  0  0  0  0  0  0  0
   59.7410   34.3920   45.9460 C   0  0  0  0  0  0  0  0  0  0  0  0
   58.8930   34.9620   45.0110 C   0  0  0  0  0  0  0  0  0  0  0  0
   58.0990   33.9440   44.5070 C   0  0  0  0  0  0  0  0  0  0  0  0
   58.4330   32.7780   45.1030 N   0  0  0  0  0  0  0  0  0  0  0  0
   57.9450   31.5190   44.9220 C   0  0  0  0  0  0  0  0  0  0  0  0
   56.9250   31.2480   43.9890 C   0  0  0  0  0  0  0  0  0  0  0  0
   56.4690   29.9460   43.8030 C   0  0  0  0  0  0  0  0  0  0  0  0
   57.0270   28.8990   44.5310 C   0  0  0  0  0  0  0  0  0  0  0  0
   58.0370   29.1440   45.4640 C   0  0  0  0  0  0  0  0  0  0  0  0
   58.5100   30.4610   45.6980 C   0  0  0  0  0  0  0  0  0  0  0  0
   60.6340   32.1920   53.6010 C   0  0  0  0  0  0  0  0  0  0  0  0
   61.1870   33.1950   52.5690 C   0  0  0  0  0  0  0  0  0  0  0  0
   64.3244   32.8706   48.7382 H   0  0  0  0  0  0  0  0  0  0  0  0
   63.0317   32.7678   47.4952 H   0  0  0  0  0  0  0  0  0  0  0  0
   64.1691   34.1581   47.4952 H   0  0  0  0  0  0  0  0  0  0  0  0
   63.2638   34.8104   49.7614 H   0  0  0  0  0  0  0  0  0  0  0  0
   62.0479   34.8924   48.4402 H   0  0  0  0  0  0  0  0  0  0  0  0
   58.8368   35.0957   51.9752 H   0  0  0  0  0  0  0  0  0  0  0  0
   58.1045   33.5815   51.3020 H   0  0  0  0  0  0  0  0  0  0  0  0
   58.8898   34.2588   54.1296 H   0  0  0  0  0  0  0  0  0  0  0  0
   57.4389   33.3804   53.4759 H   0  0  0  0  0  0  0  0  0  0  0  0
   58.4844   30.2450   54.0174 H   0  0  0  0  0  0  0  0  0  0  0  0
   57.4230   31.3325   52.9846 H   0  0  0  0  0  0  0  0  0  0  0  0
   60.0977   30.6269   51.8712 H   0  0  0  0  0  0  0  0  0  0  0  0
   58.8664   29.3030   51.9662 H   0  0  0  0  0  0  0  0  0  0  0  0
   57.4330   30.3297   50.4732 H   0  0  0  0  0  0  0  0  0  0  0  0
   58.0313   31.9862   50.8804 H   0  0  0  0  0  0  0  0  0  0  0  0
   59.5750   31.8150   49.1390 H   0  0  0  0  0  0  0  0  0  0  0  0
   61.2171   29.9165   47.5637 H   0  0  0  0  0  0  0  0  0  0  0  0
   59.9779   28.7255   47.0050 H   0  0  0  0  0  0  0  0  0  0  0  0
   60.5094   34.9025   46.5452 H   0  0  0  0  0  0  0  0  0  0  0  0
   58.8566   36.0229   44.7227 H   0  0  0  0  0  0  0  0  0  0  0  0
   57.3187   34.0661   43.7413 H   0  0  0  0  0  0  0  0  0  0  0  0
   56.4864   32.0699   43.4041 H   0  0  0  0  0  0  0  0  0  0  0  0
   55.6658   29.7441   43.0790 H   0  0  0  0  0  0  0  0  0  0  0  0
   56.6699   27.8711   44.3703 H   0  0  0  0  0  0  0  0  0  0  0  0
   58.4719   28.3040   46.0254 H   0  0  0  0  0  0  0  0  0  0  0  0
   61.0624   32.4335   54.5849 H   0  0  0  0  0  0  0  0  0  0  0  0
   60.9170   31.1861   53.2573 H   0  0  0  0  0  0  0  0  0  0  0  0
   61.4925   34.1133   53.0919 H   0  0  0  0  0  0  0  0  0  0  0  0
   62.0440   32.7287   52.0610 H   0  0  0  0  0  0  0  0  0  0  0  0
  1  2  1  0
  2  3  1  0
  3  4  1  0
  4  5  2  0
  4  6  1  0
  6  7  1  0
  7  8  1  0
  8  9  1  0
  9 10  1  0
 10 11  1  0
 11 12  1  0
 12 13  1  0
 13 14  1  0
 14 15  2  0
 14 16  1  0
 16 17  1  0
 17 18  1  0
 18 19  2  0
 18 20  1  0
 20 21  2  0
 21 22  1  0
 22 23  2  0
 23 24  1  0
 24 25  1  0
 25 26  2  0
 26 27  1  0
 27 28  2  0
 28 29  1  0
 29 30  2  0
  9 31  1  0
 31 32  1  0
 32  6  1  0
 30 17  1  0
 24 20  1  0
 30 25  1  0
  1 33  1  0
  1 34  1  0
  1 35  1  0
  2 36  1  0
  2 37  1  0
  7 38  1  0
  7 39  1  0
  8 40  1  0
  8 41  1  0
 10 42  1  0
 10 43  1  0
 11 44  1  0
 11 45  1  0
 12 46  1  0
 12 47  1  0
 13 48  1  0
 16 49  1  0
 16 50  1  0
 21 51  1  0
 22 52  1  0
 23 53  1  0
 26 54  1  0
 27 55  1  0
 28 56  1  0
 29 57  1  0
 31 58  1  0
 31 59  1  0
 32 60  1  0
 32 61  1  0
M  END
>  <UniqueID>  (17) 
17

>  <SMILES>  (17) 
CCOC(=O)N1CCN(CCCNC(=O)Cn2c(=O)c3cccn3c3ccccc32)CC1

>  <Energy>  (17) 
108.78088761474703

>  <Genealogy>  (17) 
CCOC(=O)N1CCN(CCCNC(=O)Cn2c(=O)c3cccn3c3ccccc32)CC1 (3D coordinates assigned)
CCOC(=O)N1CCN(CCCNC(=O)Cn2c(=O)c3cccn3c3ccccc32)CC1 (nonaromatic ring conformer: 108.78088761474703 kcal/mol)

>  <smiles>  (17) 
CCOC(=O)N1CCN(CCCNC(=O)Cn2c(=O)c3cccn3c3ccccc32)CC1

>  <score_type>  (17) 
oracle

>  <origin>  (17) 
adg

>  <m_score__min__energy>  (17) 
-8.8499999999999996

>  <m_primary>  (17) 
energy

$$$$
17:0
     RDKit          3D

 59 62  0  0  0  0  0  0  0  0999 V2000
   52.1550   23.7170   44.7640 C   0  0  0  0  0  0  0  0  0  0  0  0
   53.2300   23.7970   45.8600 C   0  0  0  0  0  0  0  0  0  0  0  0
   54.0730   22.5150   45.8390 C   0  0  0  0  0  0  0  0  0  0  0  0
   54.0980   24.9730   45.6460 N   0  0  0  0  0  0  0  0  0  0  0  0
   55.5140   24.6530   45.8910 C   0  0  0  0  0  0  0  0  0  0  0  0
   56.3130   25.9240   46.2340 C   0  0  2  0  0  0  0  0  0  0  0  0
   55.5420   27.0670   45.9720 O   0  0  0  0  0  0  0  0  0  0  0  0
   57.6300   25.9810   45.4440 C   0  0  0  0  0  0  0  0  0  0  0  0
   57.9010   27.3140   45.0030 O   0  0  0  0  0  0  0  0  0  0  0  0
   58.5250   28.3220   45.7550 C   0  0  0  0  0  0  0  0  0  0  0  0
   59.4790   29.1230   45.1160 C   0  0  0  0  0  0  0  0  0  0  0  0
   60.1400   30.1380   45.8130 C   0  0  0  0  0  0  0  0  0  0  0  0
   59.8540   30.3690   47.1670 C   0  0  0  0  0  0  0  0  0  0  0  0
   60.5750   31.4270   47.9150 C   0  0  0  0  0  0  0  0  0  0  0  0
   60.2710   32.8010   47.7420 C   0  0  0  0  0  0  0  0  0  0  0  0
   59.3020   33.2810   46.7320 C   0  0  0  0  0  0  0  0  0  0  0  0
   57.9430   32.9490   46.8600 C   0  0  0  0  0  0  0  0  0  0  0  0
   57.0140   33.4020   45.9190 C   0  0  0  0  0  0  0  0  0  0  0  0
   57.4310   34.2010   44.8500 C   0  0  0  0  0  0  0  0  0  0  0  0
   58.7760   34.5560   44.7280 C   0  0  0  0  0  0  0  0  0  0  0  0
   59.7090   34.1070   45.6670 C   0  0  0  0  0  0  0  0  0  0  0  0
   60.8700   33.7150   48.5000 O   0  0  0  0  0  0  0  0  0  0  0  0
   61.7830   33.4170   49.4160 C   0  0  0  0  0  0  0  0  0  0  0  0
   62.3710   34.4420   50.1660 C   0  0  0  0  0  0  0  0  0  0  0  0
   63.3390   34.1430   51.1290 C   0  0  0  0  0  0  0  0  0  0  0  0
   63.7210   32.8180   51.3500 C   0  0  0  0  0  0  0  0  0  0  0  0
   63.1380   31.7850   50.6090 C   0  0  0  0  0  0  0  0  0  0  0  0
   62.1650   32.0760   49.6340 C   0  0  0  0  0  0  0  0  0  0  0  0
   61.5430   31.0740   48.8740 C   0  0  0  0  0  0  0  0  0  0  0  0
   61.8360   29.8590   49.0630 O   0  0  0  0  0  0  0  0  0  0  0  0
   58.8870   29.5810   47.8090 C   0  0  0  0  0  0  0  0  0  0  0  0
   58.2260   28.5640   47.1120 C   0  0  0  0  0  0  0  0  0  0  0  0
   51.1612   23.6430   45.2298 H   0  0  0  0  0  0  0  0  0  0  0  0
   52.2006   24.6210   44.1390 H   0  0  0  0  0  0  0  0  0  0  0  0
   52.3339   22.8297   44.1390 H   0  0  0  0  0  0  0  0  0  0  0  0
   52.7385   23.8997   46.8387 H   0  0  0  0  0  0  0  0  0  0  0  0
   54.2822   22.1968   46.8710 H   0  0  0  0  0  0  0  0  0  0  0  0
   53.5201   21.7211   45.3155 H   0  0  0  0  0  0  0  0  0  0  0  0
   55.0210   22.7081   45.3155 H   0  0  0  0  0  0  0  0  0  0  0  0
   53.8360   25.7260   46.3250 H   0  0  0  0  0  0  0  0  0  0  0  0
   55.5834   23.9462   46.7310 H   0  0  0  0  0  0  0  0  0  0  0  0
   55.9368   24.2076   44.9784 H   0  0  0  0  0  0  0  0  0  0  0  0
   56.5582   25.8936   47.3059 H   0  0  0  0  0  0  0  0  0  0  0  0
   55.8830   27.4540   45.1230 H   0  0  0  0  0  0  0  0  0  0  0  0
   58.4528   25.6406   46.0898 H   0  0  0  0  0  0  0  0  0  0  0  0
   57.5404   25.3295   44.5622 H   0  0  0  0  0  0  0  0  0  0  0  0
   59.7106   28.9517   44.0544 H   0  0  0  0  0  0  0  0  0  0  0  0
   60.8879   30.7586   45.2977 H   0  0  0  0  0  0  0  0  0  0  0  0
   57.6083   32.3294   47.7050 H   0  0  0  0  0  0  0  0  0  0  0  0
   55.9531   33.1295   46.0196 H   0  0  0  0  0  0  0  0  0  0  0  0
   56.7000   34.5497   44.1056 H   0  0  0  0  0  0  0  0  0  0  0  0
   59.1021   35.1906   43.8908 H   0  0  0  0  0  0  0  0  0  0  0  0
   60.7651   34.4001   45.5735 H   0  0  0  0  0  0  0  0  0  0  0  0
   62.0703   35.4865   49.9970 H   0  0  0  0  0  0  0  0  0  0  0  0
   63.8005   34.9525   51.7136 H   0  0  0  0  0  0  0  0  0  0  0  0
   64.4826   32.5862   52.1091 H   0  0  0  0  0  0  0  0  0  0  0  0
   63.4404   30.7427   50.7884 H   0  0  0  0  0  0  0  0  0  0  0  0
   58.6471   29.7639   48.8668 H   0  0  0  0  0  0  0  0  0  0  0  0
   57.4701   27.9506   47.6243 H   0  0  0  0  0  0  0  0  0  0  0  0
  1  2  1  0
  2  3  1  0
  2  4  1  0
  4  5  1  0
  5  6  1  0
  6  7  1  0
  6  8  1  0
  8  9  1  0
  9 10  1  0
 10 11  2  0
 11 12  1  0
 12 13  2  0
 13 14  1  0
 14 15  2  0
 15 16  1  0
 16 17  2  0
 17 18  1  0
 18 19  2  0
 19 20  1  0
 20 21  2  0
 15 22  1  0
 22 23  1  0
 23 24  2  0
 24 25  1  0
 25 26  2  0
 26 27  1  0
 27 28  2  0
 28 29  1  0
 29 30  2  0
 13 31  1  0
 31 32  2  0
 32 10  1  0
 29 14  1  0
 21 16  1  0
 28 23  1  0
  1 33  1  0
  1 34  1  0
  1 35  1  0
  2 36  1  0
  3 37  1  0
  3 38  1  0
  3 39  1  0
  4 40  1  0
  5 41  1  0
  5 42  1  0
  6 43  1  1
  7 44  1  0
  8 45  1  0
  8 46  1  0
 11 47  1  0
 12 48  1  0
 17 49  1  0
 18 50  1  0
 19 51  1  0
 20 52  1  0
 21 53  1  0
 24 54  1  0
 25 55  1  0
 26 56  1  0
 27 57  1  0
 31 58  1  0
 32 59  1  0
M  END
>  <UniqueID>  (18) 
18

>  <SMILES>  (18) 
CC(C)NC[C@H](O)COc1ccc(-c2c(-c3ccccc3)oc3ccccc3c2=O)cc1

>  <Energy>  (18) 
76.07550572356149

>  <Genealogy>  (18) 
CC(C)NC[C@H](O)COc1ccc(-c2c(-c3ccccc3)oc3ccccc3c2=O)cc1 (chirality)
CC(C)NC[C@H](O)COc1ccc(-c2c(-c3ccccc3)oc3ccccc3c2=O)cc1 (3D coordinates assigned)
CC(C)NC[C@H](O)COc1ccc(-c2c(-c3ccccc3)oc3ccccc3c2=O)cc1 (optimized conformer: 76.07550572356149 kcal/mol)

>  <smiles>  (18) 
CC(C)NCC(O)COc1ccc(-c2c(-c3ccccc3)oc3ccccc3c2=O)cc1

>  <score_type>  (18) 
oracle

>  <origin>  (18) 
adg

>  <m_score__min__energy>  (18) 
-9.1699999999999999

>  <m_primary>  (18) 
energy

$$$$
18:0
     RDKit          3D

 43 45  0  0  0  0  0  0  0  0999 V2000
   59.6810   35.6820   45.8590 C   0  0  0  0  0  0  0  0  0  0  0  0
   59.2520   34.2550   45.5320 C   0  0  0  0  0  0  0  0  0  0  0  0
   58.0970   33.8640   46.3740 N   0  0  0  0  0  0  0  0  0  0  0  0
   58.5100   32.9550   47.4660 C   0  0  0  0  0  0  0  0  0  0  0  0
   59.4930   33.6560   48.4000 C   0  0  0  0  0  0  0  0  0  0  0  0
   56.9850   33.2960   45.5670 C   0  0  0  0  0  0  0  0  0  0  0  0
   57.5440   32.3280   44.5210 C   0  0  0  0  0  0  0  0  0  0  0  0
   57.2510   30.9370   44.8690 N   0  0  0  0  0  0  0  0  0  0  0  0
   58.2460   29.9650   45.2390 C   0  0  0  0  0  0  0  0  0  0  0  0
   59.6330   30.2580   45.2570 C   0  0  0  0  0  0  0  0  0  0  0  0
   60.5750   29.2660   45.6100 C   0  0  0  0  0  0  0  0  0  0  0  0
   60.1570   27.9680   45.9480 C   0  0  0  0  0  0  0  0  0  0  0  0
   58.7910   27.7050   45.9240 C   0  0  0  0  0  0  0  0  0  0  0  0
   57.8620   28.6660   45.5830 C   0  0  0  0  0  0  0  0  0  0  0  0
   56.6380   28.1740   45.6200 O   0  0  0  0  0  0  0  0  0  0  0  0
   56.7500   26.9100   45.9780 C   0  0  0  0  0  0  0  0  0  0  0  0
   55.7250   25.9810   46.1480 C   0  0  0  0  0  0  0  0  0  0  0  0
   54.3990   26.3390   45.9400 O   0  0  0  0  0  0  0  0  0  0  0  0
   56.0750   24.6710   46.5350 C   0  0  0  0  0  0  0  0  0  0  0  0
   55.0860   23.7120   46.7150 O   0  0  0  0  0  0  0  0  0  0  0  0
   57.4320   24.3250   46.7400 C   0  0  0  0  0  0  0  0  0  0  0  0
   58.4500   25.2810   46.5620 C   0  0  0  0  0  0  0  0  0  0  0  0
   58.0690   26.5650   46.1800 C   0  0  0  0  0  0  0  0  0  0  0  0
   59.7201   35.8121   46.9506 H   0  0  0  0  0  0  0  0  0  0  0  0
   60.6762   35.8728   45.4311 H   0  0  0  0  0  0  0  0  0  0  0  0
   58.9560   36.3900   45.4311 H   0  0  0  0  0  0  0  0  0  0  0  0
   58.9657   34.1953   44.4716 H   0  0  0  0  0  0  0  0  0  0  0  0
   60.0909   33.5723   45.7327 H   0  0  0  0  0  0  0  0  0  0  0  0
   57.6217   32.6492   48.0383 H   0  0  0  0  0  0  0  0  0  0  0  0
   59.0008   32.0729   47.0290 H   0  0  0  0  0  0  0  0  0  0  0  0
   59.2125   33.4559   49.4446 H   0  0  0  0  0  0  0  0  0  0  0  0
   60.5089   33.2774   48.2142 H   0  0  0  0  0  0  0  0  0  0  0  0
   59.4660   34.7399   48.2142 H   0  0  0  0  0  0  0  0  0  0  0  0
   56.2916   32.7571   46.2294 H   0  0  0  0  0  0  0  0  0  0  0  0
   56.4524   34.1127   45.0576 H   0  0  0  0  0  0  0  0  0  0  0  0
   57.0910   32.5556   43.5448 H   0  0  0  0  0  0  0  0  0  0  0  0
   58.6363   32.4524   44.4835 H   0  0  0  0  0  0  0  0  0  0  0  0
   56.2560   30.6260   44.7940 H   0  0  0  0  0  0  0  0  0  0  0  0
   59.9793   31.2682   44.9934 H   0  0  0  0  0  0  0  0  0  0  0  0
   61.6470   29.5125   45.6203 H   0  0  0  0  0  0  0  0  0  0  0  0
   60.8831   27.1883   46.2216 H   0  0  0  0  0  0  0  0  0  0  0  0
   57.6936   23.2999   47.0411 H   0  0  0  0  0  0  0  0  0  0  0  0
   59.5078   25.0232   46.7189 H   0  0  0  0  0  0  0  0  0  0  0  0
  1  2  1  0
  2  3  1  0
  3  4  1  0
  4  5  1  0
  3  6  1  0
  6  7  1  0
  7  8  1  0
  8  9  1  0
  9 10  2  0
 10 11  1  0
 11 12  2  0
 12 13  1  0
 13 14  2  0
 14 15  1  0
 15 16  1  0
 16 17  2  0
 17 18  1  0
 17 19  1  0
 19 20  1  0
 19 21  2  0
 21 22  1  0
 22 23  2  0
 14  9  1  0
 23 16  1  0
 23 13  1  0
  1 24  1  0
  1 25  1  0
  1 26  1  0
  2 27  1  0
  2 28  1  0
  4 29  1  0
  4 30  1  0
  5 31  1  0
  5 32  1  0
  5 33  1  0
  6 34  1  0
  6 35  1  0
  7 36  1  0
  7 37  1  0
  8 38  1  0
 10 39  1  0
 11 40  1  0
 12 41  1  0
 21 42  1  0
 22 43  1  0
M  CHG  2  18  -1  20  -1
M  END
>  <UniqueID>  (19) 
19

>  <SMILES>  (19) 
CCN(CC)CCNc1cccc2c1oc1c([O-])c([O-])ccc12

>  <Energy>  (19) 
83.23761685546746

>  <Genealogy>  (19) 
CCN(CC)CCNc1cccc2c1oc1c([O-])c([O-])ccc12 (protonated)
CCN(CC)CCNc1cccc2c1oc1c([O-])c([O-])ccc12 (3D coordinates assigned)
CCN(CC)CCNc1cccc2c1oc1c([O-])c([O-])ccc12 (optimized conformer: 83.23761685546746 kcal/mol)

>  <smiles>  (19) 
CCN(CC)CCNc1cccc2c1oc1c(O)c(O)ccc12

>  <score_type>  (19) 
oracle

>  <origin>  (19) 
adg

>  <m_score__min__energy>  (19) 
-12.66

>  <m_primary>  (19) 
energy

$$$$
19:0
     RDKit          3D

 59 63  0  0  0  0  0  0  0  0999 V2000
   63.3400   33.6770   46.3900 C   0  0  0  0  0  0  0  0  0  0  0  0
   63.4430   34.1250   47.8550 C   0  0  0  0  0  0  0  0  0  0  0  0
   63.4390   33.0100   48.8290 N   0  0  0  0  0  0  0  0  0  0  0  0
   64.7130   32.9100   49.5640 C   0  0  0  0  0  0  0  0  0  0  0  0
   63.0400   31.7230   48.2160 C   0  0  0  0  0  0  0  0  0  0  0  0
   61.5130   31.6150   48.0790 C   0  0  0  0  0  0  0  0  0  0  0  0
   61.1200   31.0030   46.8060 N   0  0  0  0  0  0  0  0  0  0  0  0
   59.7460   31.0270   46.3790 C   0  0  0  0  0  0  0  0  0  0  0  0
   59.2140   32.2180   45.8590 C   0  0  0  0  0  0  0  0  0  0  0  0
   59.8360   33.4630   46.0940 C   0  0  0  0  0  0  0  0  0  0  0  0
   59.2710   34.6420   45.6140 C   0  0  0  0  0  0  0  0  0  0  0  0
   58.0790   34.6030   44.9000 C   0  0  0  0  0  0  0  0  0  0  0  0
   57.4630   33.3800   44.6310 C   0  0  0  0  0  0  0  0  0  0  0  0
   58.0400   32.1620   45.0710 C   0  0  0  0  0  0  0  0  0  0  0  0
   57.5060   30.9370   44.7260 N   0  0  0  0  0  0  0  0  0  0  0  0
   56.5560   30.8430   43.5950 C   0  0  0  0  0  0  0  0  0  0  0  0
   57.8810   29.7990   45.4220 C   0  0  0  0  0  0  0  0  0  0  0  0
   57.1890   28.5810   45.2500 C   0  0  0  0  0  0  0  0  0  0  0  0
   57.5750   27.4050   45.9000 C   0  0  0  0  0  0  0  0  0  0  0  0
   56.7730   26.1810   45.6440 C   0  0  0  0  0  0  0  0  0  0  0  0
   57.1990   25.0700   44.9370 C   0  0  0  0  0  0  0  0  0  0  0  0
   56.1290   24.2010   44.9260 C   0  0  0  0  0  0  0  0  0  0  0  0
   55.1170   24.8330   45.6190 C   0  0  0  0  0  0  0  0  0  0  0  0
   55.5290   26.0090   46.0290 O   0  0  0  0  0  0  0  0  0  0  0  0
   58.6280   27.4450   46.8400 C   0  0  0  0  0  0  0  0  0  0  0  0
   59.0600   26.2790   47.5140 C   0  0  0  0  0  0  0  0  0  0  0  0
   59.9840   26.3560   48.5520 C   0  0  0  0  0  0  0  0  0  0  0  0
   60.4760   27.5900   48.9530 C   0  0  0  0  0  0  0  0  0  0  0  0
   60.1090   28.7460   48.2670 C   0  0  0  0  0  0  0  0  0  0  0  0
   59.2600   28.6870   47.1330 C   0  0  0  0  0  0  0  0  0  0  0  0
   58.9710   29.8390   46.3330 C   0  0  0  0  0  0  0  0  0  0  0  0
   63.0937   32.6057   46.3506 H   0  0  0  0  0  0  0  0  0  0  0  0
   62.5510   34.2534   45.8849 H   0  0  0  0  0  0  0  0  0  0  0  0
   64.3016   33.8510   45.8849 H   0  0  0  0  0  0  0  0  0  0  0  0
   64.3794   34.6888   47.9790 H   0  0  0  0  0  0  0  0  0  0  0  0
   62.5506   34.7330   48.0646 H   0  0  0  0  0  0  0  0  0  0  0  0
   64.5144   32.9256   50.6458 H   0  0  0  0  0  0  0  0  0  0  0  0
   65.2173   31.9695   49.2973 H   0  0  0  0  0  0  0  0  0  0  0  0
   65.3579   33.7603   49.2973 H   0  0  0  0  0  0  0  0  0  0  0  0
   63.4950   31.6462   47.2174 H   0  0  0  0  0  0  0  0  0  0  0  0
   63.3870   30.9076   48.8676 H   0  0  0  0  0  0  0  0  0  0  0  0
   61.1246   30.9999   48.9041 H   0  0  0  0  0  0  0  0  0  0  0  0
   61.0951   32.6320   48.1116 H   0  0  0  0  0  0  0  0  0  0  0  0
   61.8210   30.4940   46.2230 H   0  0  0  0  0  0  0  0  0  0  0  0
   60.7770   33.5025   46.6623 H   0  0  0  0  0  0  0  0  0  0  0  0
   59.7686   35.6052   45.8001 H   0  0  0  0  0  0  0  0  0  0  0  0
   57.6203   35.5381   44.5463 H   0  0  0  0  0  0  0  0  0  0  0  0
   56.5170   33.3608   44.0700 H   0  0  0  0  0  0  0  0  0  0  0  0
   55.5320   30.7417   43.9837 H   0  0  0  0  0  0  0  0  0  0  0  0
   56.6265   31.7525   42.9803 H   0  0  0  0  0  0  0  0  0  0  0  0
   56.8034   29.9650   42.9803 H   0  0  0  0  0  0  0  0  0  0  0  0
   56.3158   28.5562   44.5814 H   0  0  0  0  0  0  0  0  0  0  0  0
   58.1867   24.9130   44.4789 H   0  0  0  0  0  0  0  0  0  0  0  0
   56.0899   23.2056   44.4594 H   0  0  0  0  0  0  0  0  0  0  0  0
   54.1162   24.4141   45.8002 H   0  0  0  0  0  0  0  0  0  0  0  0
   58.6607   25.2989   47.2140 H   0  0  0  0  0  0  0  0  0  0  0  0
   60.3243   25.4386   49.0545 H   0  0  0  0  0  0  0  0  0  0  0  0
   61.1572   27.6558   49.8142 H   0  0  0  0  0  0  0  0  0  0  0  0
   60.4844   29.7210   48.6111 H   0  0  0  0  0  0  0  0  0  0  0  0
  1  2  1  0
  2  3  1  0
  3  4  1  0
  3  5  1  0
  5  6  1  0
  6  7  1  0
  7  8  1  0
  8  9  2  0
  9 10  1  0
 10 11  2  0
 11 12  1  0
 12 13  2  0
 13 14  1  0
 14 15  2  0
 15 16  1  0
 15 17  1  0
 17 18  2  0
 18 19  1  0
 19 20  1  0
 20 21  2  0
 21 22  1  0
 22 23  2  0
 23 24  1  0
 19 25  2  0
 25 26  1  0
 26 27  2  0
 27 28  1  0
 28 29  2  0
 29 30  1  0
 30 31  2  0
 31  8  1  0
 14  9  1  0
 31 17  1  0
 24 20  1  0
 30 25  1  0
  1 32  1  0
  1 33  1  0
  1 34  1  0
  2 35  1  0
  2 36  1  0
  4 37  1  0
  4 38  1  0
  4 39  1  0
  5 40  1  0
  5 41  1  0
  6 42  1  0
  6 43  1  0
  7 44  1  0
 10 45  1  0
 11 46  1  0
 12 47  1  0
 13 48  1  0
 16 49  1  0
 16 50  1  0
 16 51  1  0
 18 52  1  0
 21 53  1  0
 22 54  1  0
 23 55  1  0
 26 56  1  0
 27 57  1  0
 28 58  1  0
 29 59  1  0
M  CHG  1  15   1
M  END
>  <UniqueID>  (20) 
20

>  <SMILES>  (20) 
CCN(C)CCNc1c2ccccc2[n+](C)c2cc(-c3ccco3)c3ccccc3c12

>  <Energy>  (20) 
141.58987780108663

>  <Genealogy>  (20) 
CCN(C)CCNc1c2ccccc2[n+](C)c2cc(-c3ccco3)c3ccccc3c12 (3D coordinates assigned)
CCN(C)CCNc1c2ccccc2[n+](C)c2cc(-c3ccco3)c3ccccc3c12 (optimized conformer: 141.58987780108663 kcal/mol)

>  <smiles>  (20) 
CCN(C)CCNc1c2ccccc2[n+](C)c2cc(-c3ccco3)c3ccccc3c12

>  <score_type>  (20) 
oracle

>  <origin>  (20) 
adg

>  <m_score__min__energy>  (20) 
-7.7800000000000002

>  <m_primary>  (20) 
energy

$$$$
20:0
     RDKit          3D

 55 58  0  0  0  0  0  0  0  0999 V2000
   56.1820   31.9550   50.5360 H   0  0  0  0  0  0  0  0  0  0  0  0
   57.1150   31.8700   50.9980 N   0  0  0  0  0  0  0  0  0  0  0  0
   57.4670   30.8010   51.6400 C   0  0  0  0  0  0  0  0  0  0  0  0
   56.6980   30.1120   52.5600 C   0  0  0  0  0  0  0  0  0  0  0  0
   55.0610   30.4700   53.0860 Cl  0  0  0  0  0  0  0  0  0  0  0  0
   57.4950   29.0400   52.9340 C   0  0  0  0  0  0  0  0  0  0  0  0
   57.1060   27.9130   53.8400 C   0  0  0  0  0  0  0  0  0  0  0  0
   56.6389   28.3233   54.7475 H   0  0  0  0  0  0  0  0  0  0  0  0
   56.3975   27.2598   53.3096 H   0  0  0  0  0  0  0  0  0  0  0  0
   58.3300   27.0940   54.2330 C   0  0  0  0  0  0  0  0  0  0  0  0
   58.4022   27.0457   55.3296 H   0  0  0  0  0  0  0  0  0  0  0  0
   58.2361   26.0762   53.8265 H   0  0  0  0  0  0  0  0  0  0  0  0
   59.2350   27.5691   53.8265 H   0  0  0  0  0  0  0  0  0  0  0  0
   58.6610   29.0990   52.2560 N   0  0  0  0  0  0  0  0  0  0  0  0
   59.4400   28.4050   52.3040 H   0  0  0  0  0  0  0  0  0  0  0  0
   58.6480   30.1700   51.4770 N   0  0  0  0  0  0  0  0  0  0  0  0
   59.7300   30.5260   50.5550 C   0  0  0  0  0  0  0  0  0  0  0  0
   60.1683   31.4826   50.8754 H   0  0  0  0  0  0  0  0  0  0  0  0
   60.4748   29.7169   50.5792 H   0  0  0  0  0  0  0  0  0  0  0  0
   59.2400   30.6670   49.1240 C   0  0  0  0  0  0  0  0  0  0  0  0
   58.9790   29.5200   48.3480 C   0  0  0  0  0  0  0  0  0  0  0  0
   59.1153   28.5229   48.7921 H   0  0  0  0  0  0  0  0  0  0  0  0
   58.5510   29.6300   47.0270 C   0  0  0  0  0  0  0  0  0  0  0  0
   58.3678   28.7209   46.4353 H   0  0  0  0  0  0  0  0  0  0  0  0
   58.3520   30.8890   46.4460 C   0  0  0  0  0  0  0  0  0  0  0  0
   57.8970   31.0090   45.0360 C   0  0  0  0  0  0  0  0  0  0  0  0
   57.1250   29.9920   44.4420 C   0  0  0  0  0  0  0  0  0  0  0  0
   56.8578   29.0980   45.0246 H   0  0  0  0  0  0  0  0  0  0  0  0
   56.6960   30.1110   43.1170 C   0  0  0  0  0  0  0  0  0  0  0  0
   56.0924   29.3120   42.6617 H   0  0  0  0  0  0  0  0  0  0  0  0
   57.0320   31.2420   42.3700 C   0  0  0  0  0  0  0  0  0  0  0  0
   56.6941   31.3327   41.3271 H   0  0  0  0  0  0  0  0  0  0  0  0
   57.7970   32.2580   42.9470 C   0  0  0  0  0  0  0  0  0  0  0  0
   58.0611   33.1486   42.3578 H   0  0  0  0  0  0  0  0  0  0  0  0
   58.2280   32.1450   44.2730 C   0  0  0  0  0  0  0  0  0  0  0  0
   58.8294   32.9489   44.7225 H   0  0  0  0  0  0  0  0  0  0  0  0
   58.5670   32.0380   47.2230 C   0  0  0  0  0  0  0  0  0  0  0  0
   58.4019   33.0296   46.7765 H   0  0  0  0  0  0  0  0  0  0  0  0
   58.9900   31.9460   48.5630 C   0  0  0  0  0  0  0  0  0  0  0  0
   59.1270   33.1400   49.3640 N   0  0  0  0  0  0  0  0  0  0  0  0
   58.6290   33.2030   50.2810 H   0  0  0  0  0  0  0  0  0  0  0  0
   59.9020   34.3140   48.9600 C   0  0  0  0  0  0  0  0  0  0  0  0
   59.3363   34.8767   48.2028 H   0  0  0  0  0  0  0  0  0  0  0  0
   60.0821   34.9402   49.8462 H   0  0  0  0  0  0  0  0  0  0  0  0
   61.2310   33.9030   48.3800 C   0  0  0  0  0  0  0  0  0  0  0  0
   61.4280   33.8830   46.9890 C   0  0  0  0  0  0  0  0  0  0  0  0
   60.6092   34.1771   46.3160 H   0  0  0  0  0  0  0  0  0  0  0  0
   62.6600   33.4910   46.4560 C   0  0  0  0  0  0  0  0  0  0  0  0
   62.8112   33.4874   45.3664 H   0  0  0  0  0  0  0  0  0  0  0  0
   63.6990   33.1040   47.3060 C   0  0  0  0  0  0  0  0  0  0  0  0
   64.6683   32.7982   46.8852 H   0  0  0  0  0  0  0  0  0  0  0  0
   63.5080   33.1050   48.6900 C   0  0  0  0  0  0  0  0  0  0  0  0
   64.3258   32.7967   49.3580 H   0  0  0  0  0  0  0  0  0  0  0  0
   62.2770   33.4980   49.2270 C   0  0  0  0  0  0  0  0  0  0  0  0
   62.1273   33.4899   50.3167 H   0  0  0  0  0  0  0  0  0  0  0  0
  1  2  1  0
  2  3  2  0
  3  4  1  0
  4  5  1  0
  4  6  2  0
  6  7  1  0
  7  8  1  0
  7  9  1  0
  7 10  1  0
 10 11  1  0
 10 12  1  0
 10 13  1  0
  6 14  1  0
 14 15  1  0
 14 16  1  0
 16 17  1  0
 17 18  1  0
 17 19  1  0
 17 20  1  0
 20 21  2  0
 21 22  1  0
 21 23  1  0
 23 24  1  0
 23 25  2  0
 25 26  1  0
 26 27  2  0
 27 28  1  0
 27 29  1  0
 29 30  1  0
 29 31  2  0
 31 32  1  0
 31 33  1  0
 33 34  1  0
 33 35  2  0
 35 36  1  0
 25 37  1  0
 37 38  1  0
 37 39  2  0
 39 40  1  0
 40 41  1  0
 40 42  1  0
 42 43  1  0
 42 44  1  0
 42 45  1  0
 45 46  2  0
 46 47  1  0
 46 48  1  0
 48 49  1  0
 48 50  2  0
 50 51  1  0
 50 52  1  0
 52 53  1  0
 52 54  2  0
 54 55  1  0
 16  3  1  0
 39 20  1  0
 54 45  1  0
 35 26  1  0
M  END
>  <UniqueID>  (21) 
21

>  <SMILES>  (21) 
[H]/N=c1\c(Cl)c(CC)[nH]n1Cc1ccc(-c2ccccc2)cc1NCc1ccccc1

>  <Energy>  (21) 
96.53880515610228

>  <Genealogy>  (21) 
[H]/N=c1\c(Cl)c(CC)[nH]n1Cc1ccc(-c2ccccc2)cc1NCc1ccccc1 (cis-trans isomerization)
[H]/N=c1\c(Cl)c(CC)[nH]n1Cc1ccc(-c2ccccc2)cc1NCc1ccccc1 (3D coordinates assigned)
[H]/N=c1\c(Cl)c(CC)[nH]n1Cc1ccc(-c2ccccc2)cc1NCc1ccccc1 (optimized conformer: 96.53880515610228 kcal/mol)

>  <smiles>  (21) 
CCc1[nH]n(Cc2ccc(-c3ccccc3)cc2NCc2ccccc2)c(=N)c1Cl

>  <score_type>  (21) 
oracle

>  <origin>  (21) 
adg

>  <m_score__min__energy>  (21) 
-8.7200000000000006

>  <m_primary>  (21) 
energy

$$$$
21:0
     RDKit          3D

 42 43  0  0  0  0  0  0  0  0999 V2000
   56.3140   26.2860   46.0120 C   0  0  0  0  0  0  0  0  0  0  0  0
   55.8590   27.5740   45.6140 O   0  0  0  0  0  0  0  0  0  0  0  0
   56.7020   28.6290   45.2340 C   0  0  0  0  0  0  0  0  0  0  0  0
   56.2810   29.6560   44.3670 C   0  0  0  0  0  0  0  0  0  0  0  0
   57.1580   30.6870   44.0210 C   0  0  0  0  0  0  0  0  0  0  0  0
   58.4580   30.7050   44.5300 C   0  0  0  0  0  0  0  0  0  0  0  0
   58.8930   29.6870   45.3930 C   0  0  0  0  0  0  0  0  0  0  0  0
   60.2920   29.7120   45.9610 C   0  0  0  0  0  0  0  0  0  0  0  0
   60.3810   30.5240   47.1900 N   0  0  0  0  0  0  0  0  0  0  0  0
   61.4770   31.5160   47.1780 C   0  0  0  0  0  0  0  0  0  0  0  0
   61.0330   32.9370   47.5760 C   0  0  0  0  0  0  0  0  0  0  0  0
   59.7990   33.3850   46.8260 C   0  0  0  0  0  0  0  0  0  0  0  0
   59.9360   34.2920   45.7620 C   0  0  0  0  0  0  0  0  0  0  0  0
   58.8200   34.7050   45.0340 C   0  0  0  0  0  0  0  0  0  0  0  0
   57.5550   34.2170   45.3580 C   0  0  0  0  0  0  0  0  0  0  0  0
   57.4010   33.3100   46.4090 C   0  0  0  0  0  0  0  0  0  0  0  0
   58.5200   32.8820   47.1530 C   0  0  0  0  0  0  0  0  0  0  0  0
   58.3940   31.9670   48.2100 O   0  0  0  0  0  0  0  0  0  0  0  0
   58.5220   32.2980   49.5880 C   0  0  0  0  0  0  0  0  0  0  0  0
   58.0070   28.6540   45.7410 C   0  0  0  0  0  0  0  0  0  0  0  0
   56.3346   26.2276   47.1103 H   0  0  0  0  0  0  0  0  0  0  0  0
   55.6327   25.5181   45.6167 H   0  0  0  0  0  0  0  0  0  0  0  0
   57.3264   26.1165   45.6167 H   0  0  0  0  0  0  0  0  0  0  0  0
   55.2587   29.6463   43.9611 H   0  0  0  0  0  0  0  0  0  0  0  0
   56.8231   31.4876   43.3450 H   0  0  0  0  0  0  0  0  0  0  0  0
   59.1436   31.5197   44.2538 H   0  0  0  0  0  0  0  0  0  0  0  0
   60.5978   28.6815   46.1945 H   0  0  0  0  0  0  0  0  0  0  0  0
   60.9536   30.1656   45.2083 H   0  0  0  0  0  0  0  0  0  0  0  0
   59.4770   31.0340   47.3240 H   0  0  0  0  0  0  0  0  0  0  0  0
   60.4880   29.8850   48.0100 H   0  0  0  0  0  0  0  0  0  0  0  0
   62.2528   31.1844   47.8838 H   0  0  0  0  0  0  0  0  0  0  0  0
   61.8464   31.5733   46.1435 H   0  0  0  0  0  0  0  0  0  0  0  0
   60.8157   32.9505   48.6542 H   0  0  0  0  0  0  0  0  0  0  0  0
   61.8502   33.6280   47.3216 H   0  0  0  0  0  0  0  0  0  0  0  0
   60.9317   34.6798   45.5007 H   0  0  0  0  0  0  0  0  0  0  0  0
   58.9383   35.4165   44.2034 H   0  0  0  0  0  0  0  0  0  0  0  0
   56.6761   34.5470   44.7847 H   0  0  0  0  0  0  0  0  0  0  0  0
   56.4003   32.9270   46.6580 H   0  0  0  0  0  0  0  0  0  0  0  0
   58.1928   31.4466   50.2017 H   0  0  0  0  0  0  0  0  0  0  0  0
   59.5738   32.5277   49.8138 H   0  0  0  0  0  0  0  0  0  0  0  0
   57.8984   33.1756   49.8138 H   0  0  0  0  0  0  0  0  0  0  0  0
   58.3422   27.8557   46.4195 H   0  0  0  0  0  0  0  0  0  0  0  0
  1  2  1  0
  2  3  1  0
  3  4  2  0
  4  5  1  0
  5  6  2  0
  6  7  1  0
  7  8  1  0
  8  9  1  0
  9 10  1  0
 10 11  1  0
 11 12  1  0
 12 13  2  0
 13 14  1  0
 14 15  2  0
 15 16  1  0
 16 17  2  0
 17 18  1  0
 18 19  1  0
  7 20  2  0
 20  3  1  0
 17 12  1  0
  1 21  1  0
  1 22  1  0
  1 23  1  0
  4 24  1  0
  5 25  1  0
  6 26  1  0
  8 27  1  0
  8 28  1  0
  9 29  1  0
  9 30  1  0
 10 31  1  0
 10 32  1  0
 11 33  1  0
 11 34  1  0
 13 35  1  0
 14 36  1  0
 15 37  1  0
 16 38  1  0
 19 39  1  0
 19 40  1  0
 19 41  1  0
 20 42  1  0
M  CHG  1   9   1
M  END
>  <UniqueID>  (22) 
22

>  <SMILES>  (22) 
COc1cccc(C[NH2+]CCc2ccccc2OC)c1

>  <Energy>  (22) 
40.324050320621815

>  <Genealogy>  (22) 
COc1cccc(C[NH2+]CCc2ccccc2OC)c1 (protonated)
COc1cccc(C[NH2+]CCc2ccccc2OC)c1 (3D coordinates assigned)
COc1cccc(C[NH2+]CCc2ccccc2OC)c1 (optimized conformer: 40.324050320621815 kcal/mol)

>  <smiles>  (22) 
COc1cccc(CNCCc2ccccc2OC)c1

>  <score_type>  (22) 
oracle

>  <origin>  (22) 
adg

>  <m_score__min__energy>  (22) 
-5.0599999999999996

>  <m_primary>  (22) 
energy

$$$$
22:0
     RDKit          3D

 53 55  0  0  0  0  0  0  0  0999 V2000
   56.2160   29.7230   42.9700 C   0  0  0  0  0  0  0  0  0  0  0  0
   56.1140   30.0320   44.4690 C   0  0  0  0  0  0  0  0  0  0  0  0
   57.3390   30.6400   45.0470 N   0  0  0  0  0  0  0  0  0  0  0  0
   58.1260   29.6730   45.8430 C   0  0  0  0  0  0  0  0  0  0  0  0
   59.5070   29.4830   45.2230 C   0  0  0  0  0  0  0  0  0  0  0  0
   58.1850   31.3580   44.0610 C   0  0  0  0  0  0  0  0  0  0  0  0
   57.8970   32.8600   44.0630 C   0  0  0  0  0  0  0  0  0  0  0  0
   58.6890   33.4930   45.0490 O   0  0  0  0  0  0  0  0  0  0  0  0
   57.8710   34.1370   46.0110 C   0  0  0  0  0  0  0  0  0  0  0  0
   57.9660   33.4640   47.3950 C   0  0  0  0  0  0  0  0  0  0  0  0
   58.7790   32.2470   47.3320 N   0  0  0  0  0  0  0  0  0  0  0  0
   59.9220   32.0740   48.1850 C   0  0  0  0  0  0  0  0  0  0  0  0
   61.2080   32.5290   47.8240 C   0  0  0  0  0  0  0  0  0  0  0  0
   61.3910   33.3540   46.6980 C   0  0  0  0  0  0  0  0  0  0  0  0
   62.6600   33.8170   46.3560 C   0  0  0  0  0  0  0  0  0  0  0  0
   63.7590   33.4880   47.1410 C   0  0  0  0  0  0  0  0  0  0  0  0
   63.6050   32.6880   48.2730 C   0  0  0  0  0  0  0  0  0  0  0  0
   62.3350   32.1770   48.6380 C   0  0  0  0  0  0  0  0  0  0  0  0
   62.1660   31.3730   49.7570 N   0  0  0  0  0  0  0  0  0  0  0  0
   63.3310   30.8570   50.5040 C   0  0  0  0  0  0  0  0  0  0  0  0
   60.8900   31.0630   50.1650 C   0  0  0  0  0  0  0  0  0  0  0  0
   60.5280   30.3750   51.3440 C   0  0  0  0  0  0  0  0  0  0  0  0
   59.1580   30.1570   51.4540 C   0  0  0  0  0  0  0  0  0  0  0  0
   58.3890   30.8190   50.1110 S   0  0  0  0  0  0  0  0  0  0  0  0
   59.7930   31.3980   49.3900 C   0  0  0  0  0  0  0  0  0  0  0  0
   56.5581   28.6867   42.8317 H   0  0  0  0  0  0  0  0  0  0  0  0
   55.2287   29.8488   42.5017 H   0  0  0  0  0  0  0  0  0  0  0  0
   56.9344   30.4119   42.5017 H   0  0  0  0  0  0  0  0  0  0  0  0
   55.2771   30.7292   44.6219 H   0  0  0  0  0  0  0  0  0  0  0  0
   55.9647   29.0704   44.9818 H   0  0  0  0  0  0  0  0  0  0  0  0
   58.2373   30.0523   46.8695 H   0  0  0  0  0  0  0  0  0  0  0  0
   57.6014   28.7063   45.8555 H   0  0  0  0  0  0  0  0  0  0  0  0
   60.2564   29.3799   46.0216 H   0  0  0  0  0  0  0  0  0  0  0  0
   59.5077   28.5763   44.6002 H   0  0  0  0  0  0  0  0  0  0  0  0
   59.7526   30.3558   44.6002 H   0  0  0  0  0  0  0  0  0  0  0  0
   59.2434   31.1968   44.3137 H   0  0  0  0  0  0  0  0  0  0  0  0
   57.9569   30.9644   43.0595 H   0  0  0  0  0  0  0  0  0  0  0  0
   58.1370   33.2802   43.0752 H   0  0  0  0  0  0  0  0  0  0  0  0
   56.8329   33.0279   44.2856 H   0  0  0  0  0  0  0  0  0  0  0  0
   58.1903   35.1856   46.1035 H   0  0  0  0  0  0  0  0  0  0  0  0
   56.8274   34.0669   45.6705 H   0  0  0  0  0  0  0  0  0  0  0  0
   58.4248   34.1668   48.1060 H   0  0  0  0  0  0  0  0  0  0  0  0
   56.9519   33.1916   47.7227 H   0  0  0  0  0  0  0  0  0  0  0  0
   58.7580   31.7140   46.4340 H   0  0  0  0  0  0  0  0  0  0  0  0
   60.5240   33.6358   46.0824 H   0  0  0  0  0  0  0  0  0  0  0  0
   62.7925   34.4446   45.4624 H   0  0  0  0  0  0  0  0  0  0  0  0
   64.7570   33.8612   46.8675 H   0  0  0  0  0  0  0  0  0  0  0  0
   64.4828   32.4502   48.8918 H   0  0  0  0  0  0  0  0  0  0  0  0
   63.1406   30.9413   51.5841 H   0  0  0  0  0  0  0  0  0  0  0  0
   63.4963   29.8015   50.2421 H   0  0  0  0  0  0  0  0  0  0  0  0
   64.2237   31.4439   50.2421 H   0  0  0  0  0  0  0  0  0  0  0  0
   61.2560   30.0446   52.0996 H   0  0  0  0  0  0  0  0  0  0  0  0
   58.6584   29.6363   52.2843 H   0  0  0  0  0  0  0  0  0  0  0  0
  1  2  1  0
  2  3  1  0
  3  4  1  0
  4  5  1  0
  3  6  1  0
  6  7  1  0
  7  8  1  0
  8  9  1  0
  9 10  1  0
 10 11  1  0
 11 12  1  0
 12 13  2  0
 13 14  1  0
 14 15  2  0
 15 16  1  0
 16 17  2  0
 17 18  1  0
 18 19  2  0
 19 20  1  0
 19 21  1  0
 21 22  1  0
 22 23  2  0
 23 24  1  0
 24 25  1  0
 25 12  1  0
 18 13  1  0
 25 21  2  0
  1 26  1  0
  1 27  1  0
  1 28  1  0
  2 29  1  0
  2 30  1  0
  4 31  1  0
  4 32  1  0
  5 33  1  0
  5 34  1  0
  5 35  1  0
  6 36  1  0
  6 37  1  0
  7 38  1  0
  7 39  1  0
  9 40  1  0
  9 41  1  0
 10 42  1  0
 10 43  1  0
 11 44  1  0
 14 45  1  0
 15 46  1  0
 16 47  1  0
 17 48  1  0
 20 49  1  0
 20 50  1  0
 20 51  1  0
 22 52  1  0
 23 53  1  0
M  CHG  1  19   1
M  END
>  <UniqueID>  (23) 
23

>  <SMILES>  (23) 
CCN(CC)CCOCCNc1c2ccccc2[n+](C)c2ccsc12

>  <Energy>  (23) 
101.01548276510317

>  <Genealogy>  (23) 
CCN(CC)CCOCCNc1c2ccccc2[n+](C)c2ccsc12 (3D coordinates assigned)
CCN(CC)CCOCCNc1c2ccccc2[n+](C)c2ccsc12 (optimized conformer: 101.01548276510317 kcal/mol)

>  <smiles>  (23) 
CCN(CC)CCOCCNc1c2ccccc2[n+](C)c2ccsc12

>  <score_type>  (23) 
oracle

>  <origin>  (23) 
adg

>  <m_score__min__energy>  (23) 
-5.6299999999999999

>  <m_primary>  (23) 
energy

$$$$
23:0
     RDKit          3D

 40 41  0  0  0  0  0  0  0  0999 V2000
   63.3040   33.9090   46.2160 C   0  0  0  0  0  0  0  0  0  0  0  0
   63.5180   33.0950   47.4880 C   0  0  0  0  0  0  0  0  0  0  0  0
   62.7340   33.6730   48.6010 N   0  0  0  0  0  0  0  0  0  0  0  0
   63.5580   33.8550   49.8200 C   0  0  0  0  0  0  0  0  0  0  0  0
   64.8480   33.0390   49.7630 C   0  0  0  0  0  0  0  0  0  0  0  0
   61.4310   32.9900   48.8190 C   0  0  0  0  0  0  0  0  0  0  0  0
   60.3850   33.7940   49.6170 C   0  0  0  0  0  0  0  0  0  0  0  0
   59.5070   34.5610   48.7320 N   0  0  0  0  0  0  0  0  0  0  0  0
   59.1570   34.1670   47.3930 C   0  0  0  0  0  0  0  0  0  0  0  0
   59.5180   34.9980   46.3190 C   0  0  0  0  0  0  0  0  0  0  0  0
   59.2020   34.6400   45.0040 C   0  0  0  0  0  0  0  0  0  0  0  0
   58.5100   33.4560   44.7540 C   0  0  0  0  0  0  0  0  0  0  0  0
   58.0980   32.6440   45.8190 C   0  0  0  0  0  0  0  0  0  0  0  0
   58.4270   32.9890   47.1330 C   0  0  0  0  0  0  0  0  0  0  0  0
   57.3540   31.4920   45.5470 O   0  0  0  0  0  0  0  0  0  0  0  0
   56.7810   31.2690   44.2560 C   0  0  0  0  0  0  0  0  0  0  0  0
   57.7440   31.7410   43.1590 C   0  0  0  0  0  0  0  0  0  0  0  0
   58.2100   33.0630   43.4450 O   0  0  0  0  0  0  0  0  0  0  0  0
   63.0326   34.9412   46.4825 H   0  0  0  0  0  0  0  0  0  0  0  0
   64.2311   33.9148   45.6241 H   0  0  0  0  0  0  0  0  0  0  0  0
   62.4939   33.4581   45.6241 H   0  0  0  0  0  0  0  0  0  0  0  0
   63.1938   32.0582   47.3150 H   0  0  0  0  0  0  0  0  0  0  0  0
   64.5856   33.1150   47.7521 H   0  0  0  0  0  0  0  0  0  0  0  0
   63.8150   34.9199   49.9197 H   0  0  0  0  0  0  0  0  0  0  0  0
   62.9718   33.5059   50.6828 H   0  0  0  0  0  0  0  0  0  0  0  0
   65.1904   32.8224   50.7857 H   0  0  0  0  0  0  0  0  0  0  0  0
   64.6612   32.0944   49.2311 H   0  0  0  0  0  0  0  0  0  0  0  0
   65.6214   33.6125   49.2311 H   0  0  0  0  0  0  0  0  0  0  0  0
   61.0007   32.7586   47.8335 H   0  0  0  0  0  0  0  0  0  0  0  0
   61.6545   32.1000   49.4255 H   0  0  0  0  0  0  0  0  0  0  0  0
   59.7743   33.0967   50.2093 H   0  0  0  0  0  0  0  0  0  0  0  0
   60.9183   34.5004   50.2701 H   0  0  0  0  0  0  0  0  0  0  0  0
   59.1480   35.4780   49.0850 H   0  0  0  0  0  0  0  0  0  0  0  0
   60.0540   35.9386   46.5139 H   0  0  0  0  0  0  0  0  0  0  0  0
   59.4990   35.2915   44.1690 H   0  0  0  0  0  0  0  0  0  0  0  0
   58.1160   32.3406   47.9654 H   0  0  0  0  0  0  0  0  0  0  0  0
   56.5825   30.1947   44.1274 H   0  0  0  0  0  0  0  0  0  0  0  0
   55.8422   31.8369   44.1775 H   0  0  0  0  0  0  0  0  0  0  0  0
   58.6030   31.0557   43.1103 H   0  0  0  0  0  0  0  0  0  0  0  0
   57.2138   31.7483   42.1952 H   0  0  0  0  0  0  0  0  0  0  0  0
  1  2  1  0
  2  3  1  0
  3  4  1  0
  4  5  1  0
  3  6  1  0
  6  7  1  0
  7  8  1  0
  8  9  1  0
  9 10  2  0
 10 11  1  0
 11 12  2  0
 12 13  1  0
 13 14  2  0
 13 15  1  0
 15 16  1  0
 16 17  1  0
 17 18  1  0
 14  9  1  0
 18 12  1  0
  1 19  1  0
  1 20  1  0
  1 21  1  0
  2 22  1  0
  2 23  1  0
  4 24  1  0
  4 25  1  0
  5 26  1  0
  5 27  1  0
  5 28  1  0
  6 29  1  0
  6 30  1  0
  7 31  1  0
  7 32  1  0
  8 33  1  0
 10 34  1  0
 11 35  1  0
 14 36  1  0
 16 37  1  0
 16 38  1  0
 17 39  1  0
 17 40  1  0
M  END
>  <UniqueID>  (24) 
24

>  <SMILES>  (24) 
CCN(CC)CCNc1ccc2c(c1)OCCO2

>  <Energy>  (24) 
42.18292867830436

>  <Genealogy>  (24) 
CCN(CC)CCNc1ccc2c(c1)OCCO2 (3D coordinates assigned)
CCN(CC)CCNc1ccc2c(c1)OCCO2 (nonaromatic ring conformer: 42.18292867830436 kcal/mol)

>  <smiles>  (24) 
CCN(CC)CCNc1ccc2c(c1)OCCO2

>  <score_type>  (24) 
oracle

>  <origin>  (24) 
adg

>  <m_score__min__energy>  (24) 
-5.6600000000000001

>  <m_primary>  (24) 
energy

$$$$
24:0
     RDKit          3D

 49 50  0  0  0  0  0  0  0  0999 V2000
   63.0090   33.8710   46.3700 C   0  0  0  0  0  0  0  0  0  0  0  0
   63.7410   33.2510   47.5620 C   0  0  0  0  0  0  0  0  0  0  0  0
   62.7800   32.6500   48.6010 C   0  0  0  0  0  0  0  0  0  0  0  0
   61.3340   32.5520   48.0900 C   0  0  0  0  0  0  0  0  0  0  0  0
   60.4380   33.3510   48.9580 N   0  0  0  0  0  0  0  0  0  0  0  0
   59.2860   32.5490   49.4290 C   0  0  0  0  0  0  0  0  0  0  0  0
   58.9980   32.8460   50.8980 C   0  0  0  0  0  0  0  0  0  0  0  0
   59.9900   34.5850   48.2750 C   0  0  0  0  0  0  0  0  0  0  0  0
   59.5400   34.2570   46.8840 C   0  0  0  0  0  0  0  0  0  0  0  0
   59.6320   35.0830   45.7850 C   0  0  0  0  0  0  0  0  0  0  0  0
   59.0970   34.4490   44.7680 O   0  0  0  0  0  0  0  0  0  0  0  0
   58.6750   33.2780   45.2010 C   0  0  0  0  0  0  0  0  0  0  0  0
   58.0040   32.2710   44.3390 C   0  0  0  0  0  0  0  0  0  0  0  0
   57.8160   32.5300   42.9700 C   0  0  0  0  0  0  0  0  0  0  0  0
   57.2000   31.5870   42.1460 C   0  0  0  0  0  0  0  0  0  0  0  0
   56.7680   30.3720   42.6740 C   0  0  0  0  0  0  0  0  0  0  0  0
   56.9460   30.0950   44.0290 C   0  0  0  0  0  0  0  0  0  0  0  0
   57.5630   31.0370   44.8790 C   0  0  0  0  0  0  0  0  0  0  0  0
   57.7350   30.7920   46.2540 O   0  0  0  0  0  0  0  0  0  0  0  0
   58.6410   29.8520   46.8330 C   0  0  0  0  0  0  0  0  0  0  0  0
   59.9710   29.8520   46.0860 C   0  0  0  0  0  0  0  0  0  0  0  0
   58.9270   33.1180   46.5190 N   0  0  0  0  0  0  0  0  0  0  0  0
   62.2171   34.5418   46.7346 H   0  0  0  0  0  0  0  0  0  0  0  0
   63.7223   34.4438   45.7592 H   0  0  0  0  0  0  0  0  0  0  0  0
   62.5614   33.0731   45.7592 H   0  0  0  0  0  0  0  0  0  0  0  0
   64.4031   32.4541   47.1926 H   0  0  0  0  0  0  0  0  0  0  0  0
   64.3074   34.0530   48.0580 H   0  0  0  0  0  0  0  0  0  0  0  0
   63.1301   31.6400   48.8603 H   0  0  0  0  0  0  0  0  0  0  0  0
   62.7774   33.3185   49.4746 H   0  0  0  0  0  0  0  0  0  0  0  0
   61.2838   32.9372   47.0609 H   0  0  0  0  0  0  0  0  0  0  0  0
   61.0134   31.4999   48.1089 H   0  0  0  0  0  0  0  0  0  0  0  0
   58.3996   32.7995   48.8277 H   0  0  0  0  0  0  0  0  0  0  0  0
   59.5258   31.4809   49.3206 H   0  0  0  0  0  0  0  0  0  0  0  0
   59.6237   32.2007   51.5321 H   0  0  0  0  0  0  0  0  0  0  0  0
   59.2261   33.9009   51.1104 H   0  0  0  0  0  0  0  0  0  0  0  0
   57.9366   32.6504   51.1104 H   0  0  0  0  0  0  0  0  0  0  0  0
   59.1539   35.0297   48.8346 H   0  0  0  0  0  0  0  0  0  0  0  0
   60.8250   35.2996   48.2289 H   0  0  0  0  0  0  0  0  0  0  0  0
   60.0734   36.0903   45.7639 H   0  0  0  0  0  0  0  0  0  0  0  0
   58.1577   33.4850   42.5443 H   0  0  0  0  0  0  0  0  0  0  0  0
   57.0552   31.8034   41.0773 H   0  0  0  0  0  0  0  0  0  0  0  0
   56.2857   29.6300   42.0207 H   0  0  0  0  0  0  0  0  0  0  0  0
   56.6024   29.1337   44.4387 H   0  0  0  0  0  0  0  0  0  0  0  0
   58.8178   30.1220   47.8846 H   0  0  0  0  0  0  0  0  0  0  0  0
   58.1982   28.8473   46.7653 H   0  0  0  0  0  0  0  0  0  0  0  0
   60.2907   28.8149   45.9064 H   0  0  0  0  0  0  0  0  0  0  0  0
   59.8509   30.3705   45.1234 H   0  0  0  0  0  0  0  0  0  0  0  0
   60.7305   30.3705   46.6895 H   0  0  0  0  0  0  0  0  0  0  0  0
   58.7240   32.2950   47.1270 H   0  0  0  0  0  0  0  0  0  0  0  0
  1  2  1  0
  2  3  1  0
  3  4  1  0
  4  5  1  0
  5  6  1  0
  6  7  1  0
  5  8  1  0
  8  9  1  0
  9 10  2  0
 10 11  1  0
 11 12  1  0
 12 13  1  0
 13 14  2  0
 14 15  1  0
 15 16  2  0
 16 17  1  0
 17 18  2  0
 18 19  1  0
 19 20  1  0
 20 21  1  0
 12 22  2  0
 22  9  1  0
 18 13  1  0
  1 23  1  0
  1 24  1  0
  1 25  1  0
  2 26  1  0
  2 27  1  0
  3 28  1  0
  3 29  1  0
  4 30  1  0
  4 31  1  0
  6 32  1  0
  6 33  1  0
  7 34  1  0
  7 35  1  0
  7 36  1  0
  8 37  1  0
  8 38  1  0
 10 39  1  0
 14 40  1  0
 15 41  1  0
 16 42  1  0
 17 43  1  0
 20 44  1  0
 20 45  1  0
 21 46  1  0
 21 47  1  0
 21 48  1  0
 22 49  1  0
M  CHG  1  22   1
M  END
>  <UniqueID>  (25) 
25

>  <SMILES>  (25) 
CCCCN(CC)Cc1coc(-c2ccccc2OCC)[nH+]1

>  <Energy>  (25) 
73.90687786828818

>  <Genealogy>  (25) 
CCCCN(CC)Cc1coc(-c2ccccc2OCC)[nH+]1 (protonated)
CCCCN(CC)Cc1coc(-c2ccccc2OCC)[nH+]1 (3D coordinates assigned)
CCCCN(CC)Cc1coc(-c2ccccc2OCC)[nH+]1 (optimized conformer: 73.90687786828818 kcal/mol)

>  <smiles>  (25) 
CCCCN(CC)Cc1coc(-c2ccccc2OCC)n1

>  <score_type>  (25) 
oracle

>  <origin>  (25) 
adg

>  <m_score__min__energy>  (25) 
-5.4900000000000002

>  <m_primary>  (25) 
energy

$$$$
25:0
     RDKit          3D

 51 52  0  0  0  0  0  0  0  0999 V2000
   63.3560   33.8450   46.3590 C   0  0  0  0  0  0  0  0  0  0  0  0
   63.4550   32.5470   47.1580 C   0  0  0  0  0  0  0  0  0  0  0  0
   62.9260   32.7270   48.5260 N   0  0  0  0  0  0  0  0  0  0  0  0
   63.2750   34.0360   49.1300 C   0  0  0  0  0  0  0  0  0  0  0  0
   62.6660   34.1330   50.5240 C   0  0  0  0  0  0  0  0  0  0  0  0
   63.2280   31.5810   49.4140 C   0  0  0  0  0  0  0  0  0  0  0  0
   61.9850   30.7720   49.8430 C   0  0  0  0  0  0  0  0  0  0  0  0
   60.8460   31.6140   50.0160 O   0  0  0  0  0  0  0  0  0  0  0  0
   59.5750   31.3050   49.5200 C   0  0  0  0  0  0  0  0  0  0  0  0
   59.2800   30.1240   49.1890 O   0  0  0  0  0  0  0  0  0  0  0  0
   58.5740   32.4010   49.3410 C   0  0  0  0  0  0  0  0  0  0  0  0
   59.2890   33.7570   49.2310 C   0  0  0  0  0  0  0  0  0  0  0  0
   60.3930   33.7460   48.2530 N   0  0  0  0  0  0  0  0  0  0  0  0
   60.0020   34.2120   46.9140 C   0  0  0  0  0  0  0  0  0  0  0  0
   59.1530   33.1840   46.1990 C   0  0  0  0  0  0  0  0  0  0  0  0
   57.9400   33.5900   45.6230 C   0  0  0  0  0  0  0  0  0  0  0  0
   57.1090   32.6660   44.9890 C   0  0  0  0  0  0  0  0  0  0  0  0
   57.4660   31.3170   44.9200 C   0  0  0  0  0  0  0  0  0  0  0  0
   56.2520   30.1220   44.0320 Br  0  0  0  0  0  0  0  0  0  0  0  0
   58.6780   30.8820   45.4970 C   0  0  0  0  0  0  0  0  0  0  0  0
   59.0820   29.5350   45.4620 C   0  0  0  0  0  0  0  0  0  0  0  0
   60.2900   29.1490   46.0430 C   0  0  0  0  0  0  0  0  0  0  0  0
   61.0930   30.1090   46.6560 C   0  0  0  0  0  0  0  0  0  0  0  0
   60.6980   31.4060   46.6920 N   0  0  0  0  0  0  0  0  0  0  0  0
   59.5250   31.8240   46.1380 C   0  0  0  0  0  0  0  0  0  0  0  0
   63.2910   34.6975   47.0511 H   0  0  0  0  0  0  0  0  0  0  0  0
   64.2484   33.9544   45.7253 H   0  0  0  0  0  0  0  0  0  0  0  0
   62.4573   33.8178   45.7253 H   0  0  0  0  0  0  0  0  0  0  0  0
   62.8740   31.7648   46.6474 H   0  0  0  0  0  0  0  0  0  0  0  0
   64.5138   32.2569   47.2265 H   0  0  0  0  0  0  0  0  0  0  0  0
   64.3690   34.1267   49.2010 H   0  0  0  0  0  0  0  0  0  0  0  0
   62.8791   34.8466   48.5006 H   0  0  0  0  0  0  0  0  0  0  0  0
   63.4561   34.0071   51.2789 H   0  0  0  0  0  0  0  0  0  0  0  0
   62.1925   35.1179   50.6495 H   0  0  0  0  0  0  0  0  0  0  0  0
   61.9099   33.3440   50.6495 H   0  0  0  0  0  0  0  0  0  0  0  0
   63.9145   30.9045   48.8838 H   0  0  0  0  0  0  0  0  0  0  0  0
   63.6677   31.9980   50.3320 H   0  0  0  0  0  0  0  0  0  0  0  0
   61.7614   30.0232   49.0688 H   0  0  0  0  0  0  0  0  0  0  0  0
   62.2047   30.2872   50.8056 H   0  0  0  0  0  0  0  0  0  0  0  0
   57.9957   32.2192   48.4231 H   0  0  0  0  0  0  0  0  0  0  0  0
   57.9005   32.4188   50.2105 H   0  0  0  0  0  0  0  0  0  0  0  0
   58.5553   34.5167   48.9236 H   0  0  0  0  0  0  0  0  0  0  0  0
   59.7231   33.9822   50.2163 H   0  0  0  0  0  0  0  0  0  0  0  0
   60.7680   32.7720   48.1710 H   0  0  0  0  0  0  0  0  0  0  0  0
   59.4273   35.1447   47.0131 H   0  0  0  0  0  0  0  0  0  0  0  0
   60.9156   34.3779   46.3242 H   0  0  0  0  0  0  0  0  0  0  0  0
   57.6411   34.6475   45.6717 H   0  0  0  0  0  0  0  0  0  0  0  0
   56.1635   33.0028   44.5390 H   0  0  0  0  0  0  0  0  0  0  0  0
   58.4432   28.7836   44.9749 H   0  0  0  0  0  0  0  0  0  0  0  0
   60.6061   28.0957   46.0175 H   0  0  0  0  0  0  0  0  0  0  0  0
   62.0497   29.8141   47.1118 H   0  0  0  0  0  0  0  0  0  0  0  0
  1  2  1  0
  2  3  1  0
  3  4  1  0
  4  5  1  0
  3  6  1  0
  6  7  1  0
  7  8  1  0
  8  9  1  0
  9 10  2  0
  9 11  1  0
 11 12  1  0
 12 13  1  0
 13 14  1  0
 14 15  1  0
 15 16  2  0
 16 17  1  0
 17 18  2  0
 18 19  1  0
 18 20  1  0
 20 21  2  0
 21 22  1  0
 22 23  2  0
 23 24  1  0
 24 25  2  0
 25 15  1  0
 25 20  1  0
  1 26  1  0
  1 27  1  0
  1 28  1  0
  2 29  1  0
  2 30  1  0
  4 31  1  0
  4 32  1  0
  5 33  1  0
  5 34  1  0
  5 35  1  0
  6 36  1  0
  6 37  1  0
  7 38  1  0
  7 39  1  0
 11 40  1  0
 11 41  1  0
 12 42  1  0
 12 43  1  0
 13 44  1  0
 14 45  1  0
 14 46  1  0
 16 47  1  0
 17 48  1  0
 21 49  1  0
 22 50  1  0
 23 51  1  0
M  END
>  <UniqueID>  (26) 
26

>  <SMILES>  (26) 
CCN(CC)CCOC(=O)CCNCc1ccc(Br)c2cccnc12

>  <Energy>  (26) 
51.33911930374199

>  <Genealogy>  (26) 
CCN(CC)CCOC(=O)CCNCc1ccc(Br)c2cccnc12 (3D coordinates assigned)
CCN(CC)CCOC(=O)CCNCc1ccc(Br)c2cccnc12 (optimized conformer: 51.33911930374199 kcal/mol)

>  <smiles>  (26) 
CCN(CC)CCOC(=O)CCNCc1ccc(Br)c2cccnc12

>  <score_type>  (26) 
oracle

>  <origin>  (26) 
adg

>  <m_score__min__energy>  (26) 
-7.4400000000000004

>  <m_primary>  (26) 
energy

$$$$
26:0
     RDKit          3D

 29 30  0  0  0  0  0  0  0  0999 V2000
   59.2190   34.8220   45.3680 C   0  0  0  0  0  0  0  0  0  0  0  0
   58.2140   33.7790   46.4690 S   0  0  0  0  0  0  0  0  0  0  0  0
   57.9000   32.5430   45.2060 C   0  0  0  0  0  0  0  0  0  0  0  0
   57.7740   32.9280   43.8640 C   0  0  0  0  0  0  0  0  0  0  0  0
   57.5260   31.9660   42.8780 C   0  0  0  0  0  0  0  0  0  0  0  0
   57.4020   32.3620   41.5000 C   0  0  0  0  0  0  0  0  0  0  0  0
   57.3020   32.6810   40.3920 N   0  0  0  0  0  0  0  0  0  0  0  0
   57.3990   30.6160   43.2350 C   0  0  0  0  0  0  0  0  0  0  0  0
   57.5200   30.2310   44.5760 C   0  0  0  0  0  0  0  0  0  0  0  0
   57.3900   28.8460   44.9430 C   0  0  0  0  0  0  0  0  0  0  0  0
   57.2810   27.6850   45.2490 C   0  0  0  0  0  0  0  0  0  0  0  0
   57.1500   26.2990   45.6160 C   0  0  0  0  0  0  0  0  0  0  0  0
   55.9010   25.7860   45.9860 C   0  0  0  0  0  0  0  0  0  0  0  0
   55.7750   24.4380   46.3420 C   0  0  0  0  0  0  0  0  0  0  0  0
   56.8960   23.6030   46.3290 C   0  0  0  0  0  0  0  0  0  0  0  0
   58.1460   24.1140   45.9610 C   0  0  0  0  0  0  0  0  0  0  0  0
   59.2320   23.3030   45.9490 F   0  0  0  0  0  0  0  0  0  0  0  0
   58.2740   25.4610   45.6050 C   0  0  0  0  0  0  0  0  0  0  0  0
   57.7680   31.1960   45.5610 C   0  0  0  0  0  0  0  0  0  0  0  0
   59.8570   35.4841   45.9717 H   0  0  0  0  0  0  0  0  0  0  0  0
   59.8506   34.1830   44.7333 H   0  0  0  0  0  0  0  0  0  0  0  0
   58.5571   35.4294   44.7333 H   0  0  0  0  0  0  0  0  0  0  0  0
   57.8702   33.9878   43.5854 H   0  0  0  0  0  0  0  0  0  0  0  0
   57.2042   29.8588   42.4612 H   0  0  0  0  0  0  0  0  0  0  0  0
   55.0184   26.4424   45.9970 H   0  0  0  0  0  0  0  0  0  0  0  0
   54.7932   24.0356   46.6322 H   0  0  0  0  0  0  0  0  0  0  0  0
   56.7957   22.5437   46.6081 H   0  0  0  0  0  0  0  0  0  0  0  0
   59.2566   25.8626   45.3165 H   0  0  0  0  0  0  0  0  0  0  0  0
   57.8591   30.8943   46.6149 H   0  0  0  0  0  0  0  0  0  0  0  0
  1  2  1  0
  2  3  1  0
  3  4  2  0
  4  5  1  0
  5  6  1  0
  6  7  3  0
  5  8  2  0
  8  9  1  0
  9 10  1  0
 10 11  3  0
 11 12  1  0
 12 13  2  0
 13 14  1  0
 14 15  2  0
 15 16  1  0
 16 17  1  0
 16 18  2  0
  9 19  2  0
 19  3  1  0
 18 12  1  0
  1 20  1  0
  1 21  1  0
  1 22  1  0
  4 23  1  0
  8 24  1  0
 13 25  1  0
 14 26  1  0
 15 27  1  0
 18 28  1  0
 19 29  1  0
M  END
>  <UniqueID>  (27) 
27

>  <SMILES>  (27) 
CSc1cc(C#N)cc(C#Cc2cccc(F)c2)c1

>  <Energy>  (27) 
20.686411174778677

>  <Genealogy>  (27) 
CSc1cc(C#N)cc(C#Cc2cccc(F)c2)c1 (3D coordinates assigned)
CSc1cc(C#N)cc(C#Cc2cccc(F)c2)c1 (optimized conformer: 20.686411174778677 kcal/mol)

>  <smiles>  (27) 
CSc1cc(C#N)cc(C#Cc2cccc(F)c2)c1

>  <score_type>  (27) 
oracle

>  <origin>  (27) 
adg

>  <m_score__min__energy>  (27) 
-6.1100000000000003

>  <m_primary>  (27) 
energy

$$$$
27:0
     RDKit          3D

 45 47  0  0  0  0  0  0  0  0999 V2000
   59.9985   33.9227   49.3832 H   0  0  0  0  0  0  0  0  0  0  0  0
   59.6640   33.8850   48.3360 C   0  0  0  0  0  0  0  0  0  0  0  0
   60.0180   34.9110   47.4540 C   0  0  0  0  0  0  0  0  0  0  0  0
   60.6309   35.7525   47.8092 H   0  0  0  0  0  0  0  0  0  0  0  0
   59.5950   34.8700   46.1220 C   0  0  0  0  0  0  0  0  0  0  0  0
   59.8745   35.6789   45.4309 H   0  0  0  0  0  0  0  0  0  0  0  0
   58.8140   33.7970   45.6670 C   0  0  0  0  0  0  0  0  0  0  0  0
   58.3750   33.7270   44.3410 C   0  0  0  0  0  0  0  0  0  0  0  0
   58.6407   34.5235   43.6303 H   0  0  0  0  0  0  0  0  0  0  0  0
   57.5990   32.6450   43.9200 C   0  0  0  0  0  0  0  0  0  0  0  0
   57.2516   32.5861   42.8780 H   0  0  0  0  0  0  0  0  0  0  0  0
   57.2630   31.6280   44.8380 C   0  0  0  0  0  0  0  0  0  0  0  0
   56.5460   30.5940   44.5010 N   0  0  0  0  0  0  0  0  0  0  0  0
   56.7360   29.7580   43.3150 C   0  0  0  0  0  0  0  0  0  0  0  0
   57.3484   30.3027   42.5813 H   0  0  0  0  0  0  0  0  0  0  0  0
   55.7527   29.5209   42.8828 H   0  0  0  0  0  0  0  0  0  0  0  0
   57.4420   28.4530   43.6930 C   0  0  0  0  0  0  0  0  0  0  0  0
   57.6108   27.8719   42.7744 H   0  0  0  0  0  0  0  0  0  0  0  0
   56.7885   27.9321   44.4083 H   0  0  0  0  0  0  0  0  0  0  0  0
   58.8030   28.6580   44.3960 C   0  0  0  0  0  0  0  0  0  0  0  0
   59.3704   29.4217   43.8439 H   0  0  0  0  0  0  0  0  0  0  0  0
   59.3179   27.6860   44.4025 H   0  0  0  0  0  0  0  0  0  0  0  0
   58.6690   29.1010   45.8200 N   0  0  0  0  0  0  0  0  0  0  0  0
   58.1860   30.0310   45.8270 H   0  0  0  0  0  0  0  0  0  0  0  0
   57.7850   28.1950   46.5940 C   0  0  0  0  0  0  0  0  0  0  0  0
   56.8783   27.9983   46.0031 H   0  0  0  0  0  0  0  0  0  0  0  0
   57.5494   28.6933   47.5460 H   0  0  0  0  0  0  0  0  0  0  0  0
   58.4600   26.8470   46.9270 C   0  0  0  0  0  0  0  0  0  0  0  0
   58.4265   26.2113   46.0299 H   0  0  0  0  0  0  0  0  0  0  0  0
   57.9068   26.4115   47.7722 H   0  0  0  0  0  0  0  0  0  0  0  0
   59.8730   26.9760   47.3560 N   0  0  0  0  0  0  0  0  0  0  0  0
   60.8050   26.3430   46.4070 C   0  0  0  0  0  0  0  0  0  0  0  0
   61.5897   25.8101   46.9640 H   0  0  0  0  0  0  0  0  0  0  0  0
   60.2560   25.6301   45.7742 H   0  0  0  0  0  0  0  0  0  0  0  0
   61.2653   27.1161   45.7742 H   0  0  0  0  0  0  0  0  0  0  0  0
   60.2620   28.3610   47.6700 C   0  0  0  0  0  0  0  0  0  0  0  0
   61.3378   28.3832   47.8982 H   0  0  0  0  0  0  0  0  0  0  0  0
   59.6619   28.6923   48.5303 H   0  0  0  0  0  0  0  0  0  0  0  0
   59.9830   29.3270   46.5000 C   0  0  0  0  0  0  0  0  0  0  0  0
   60.7828   29.2065   45.7545 H   0  0  0  0  0  0  0  0  0  0  0  0
   59.9487   30.3402   46.9269 H   0  0  0  0  0  0  0  0  0  0  0  0
   57.7010   31.7210   46.1220 N   0  0  0  0  0  0  0  0  0  0  0  0
   58.4580   32.7630   46.5600 C   0  0  0  0  0  0  0  0  0  0  0  0
   58.8860   32.8110   47.8910 C   0  0  0  0  0  0  0  0  0  0  0  0
   58.6110   32.0049   48.5871 H   0  0  0  0  0  0  0  0  0  0  0  0
  1  2  1  0
  2  3  2  0
  3  4  1  0
  3  5  1  0
  5  6  1  0
  5  7  2  0
  7  8  1  0
  8  9  1  0
  8 10  2  0
 10 11  1  0
 10 12  1  0
 12 13  2  0
 13 14  1  0
 14 15  1  0
 14 16  1  0
 14 17  1  0
 17 18  1  0
 17 19  1  0
 17 20  1  0
 20 21  1  0
 20 22  1  0
 20 23  1  0
 23 24  1  0
 23 25  1  0
 25 26  1  0
 25 27  1  0
 25 28  1  0
 28 29  1  0
 28 30  1  0
 28 31  1  0
 31 32  1  0
 32 33  1  0
 32 34  1  0
 32 35  1  0
 31 36  1  0
 36 37  1  0
 36 38  1  0
 36 39  1  0
 39 40  1  0
 39 41  1  0
 12 42  1  0
 42 43  1  0
 43 44  2  0
 44 45  1  0
 44  2  1  0
 43  7  1  0
 39 23  1  0
M  CHG  2  23   1  42  -1
M  END
>  <UniqueID>  (28) 
28

>  <SMILES>  (28) 
CN1CC[NH+](CCC/N=c2\ccc3ccccc3[n-]2)CC1

>  <Energy>  (28) 
67.34836456183262

>  <Genealogy>  (28) 
CN1CC[NH+](CCCN=c2ccc3ccccc3[n-]2)CC1 (protonated)
CN1CC[NH+](CCC/N=c2\ccc3ccccc3[n-]2)CC1 (cis-trans isomerization)
CN1CC[NH+](CCC/N=c2\ccc3ccccc3[n-]2)CC1 (3D coordinates assigned)
CN1CC[NH+](CCC/N=c2\ccc3ccccc3[n-]2)CC1 (nonaromatic ring conformer: 67.34836456183262 kcal/mol)

>  <smiles>  (28) 
CN1CCN(CCCN=c2ccc3ccccc3[nH]2)CC1

>  <score_type>  (28) 
oracle

>  <origin>  (28) 
adg

>  <m_score__min__energy>  (28) 
-6.5999999999999996

>  <m_primary>  (28) 
energy

$$$$
28:0
     RDKit          3D

 52 54  0  0  0  0  0  0  0  0999 V2000
   63.4290   33.1940   46.9210 C   0  0  0  0  0  0  0  0  0  0  0  0
   62.5840   32.9470   48.1700 C   0  0  0  0  0  0  0  0  0  0  0  0
   63.0010   31.7110   48.8690 N   0  0  0  0  0  0  0  0  0  0  0  0
   64.2760   31.9470   49.5700 C   0  0  0  0  0  0  0  0  0  0  0  0
   61.9630   31.2190   49.8120 C   0  0  0  0  0  0  0  0  0  0  0  0
   60.9550   30.3350   49.0720 C   0  0  0  0  0  0  0  0  0  0  0  0
   61.1850   30.3730   47.6250 N   0  0  0  0  0  0  0  0  0  0  0  0
   60.1150   30.1730   46.6850 C   0  0  0  0  0  0  0  0  0  0  0  0
   59.7370   28.8680   46.3230 C   0  0  0  0  0  0  0  0  0  0  0  0
   60.4010   27.7470   46.8650 C   0  0  0  0  0  0  0  0  0  0  0  0
   59.9830   26.4550   46.5620 C   0  0  0  0  0  0  0  0  0  0  0  0
   58.8910   26.2560   45.7260 C   0  0  0  0  0  0  0  0  0  0  0  0
   58.2280   27.3480   45.1650 C   0  0  0  0  0  0  0  0  0  0  0  0
   58.6570   28.6760   45.4210 C   0  0  0  0  0  0  0  0  0  0  0  0
   58.0380   29.7650   44.8370 N   0  0  0  0  0  0  0  0  0  0  0  0
   57.1190   29.5640   43.6930 C   0  0  0  0  0  0  0  0  0  0  0  0
   58.3080   31.0440   45.2910 C   0  0  0  0  0  0  0  0  0  0  0  0
   57.5140   32.1530   44.9090 C   0  0  0  0  0  0  0  0  0  0  0  0
   57.8360   33.4590   45.3020 C   0  0  0  0  0  0  0  0  0  0  0  0
   56.9620   34.6030   44.8520 C   0  0  0  0  0  0  0  0  0  0  0  0
   58.9850   33.6840   46.0840 C   0  0  0  0  0  0  0  0  0  0  0  0
   59.3850   35.0760   46.5030 C   0  0  0  0  0  0  0  0  0  0  0  0
   59.7420   32.5910   46.5220 C   0  0  0  0  0  0  0  0  0  0  0  0
   59.3920   31.2700   46.1760 C   0  0  0  0  0  0  0  0  0  0  0  0
   64.4454   33.4911   47.2188 H   0  0  0  0  0  0  0  0  0  0  0  0
   63.4769   32.2723   46.3226 H   0  0  0  0  0  0  0  0  0  0  0  0
   62.9730   33.9964   46.3226 H   0  0  0  0  0  0  0  0  0  0  0  0
   62.6984   33.8008   48.8540 H   0  0  0  0  0  0  0  0  0  0  0  0
   61.5347   32.8322   47.8606 H   0  0  0  0  0  0  0  0  0  0  0  0
   64.1082   31.9159   50.6567 H   0  0  0  0  0  0  0  0  0  0  0  0
   64.9991   31.1674   49.2882 H   0  0  0  0  0  0  0  0  0  0  0  0
   64.6722   32.9337   49.2882 H   0  0  0  0  0  0  0  0  0  0  0  0
   62.4441   30.6332   50.6091 H   0  0  0  0  0  0  0  0  0  0  0  0
   61.4348   32.0804   50.2468 H   0  0  0  0  0  0  0  0  0  0  0  0
   61.0583   29.2985   49.4254 H   0  0  0  0  0  0  0  0  0  0  0  0
   59.9422   30.7128   49.2756 H   0  0  0  0  0  0  0  0  0  0  0  0
   62.1560   30.5030   47.2630 H   0  0  0  0  0  0  0  0  0  0  0  0
   61.2600   27.8965   47.5356 H   0  0  0  0  0  0  0  0  0  0  0  0
   60.5170   25.5910   46.9843 H   0  0  0  0  0  0  0  0  0  0  0  0
   58.5482   25.2343   45.5058 H   0  0  0  0  0  0  0  0  0  0  0  0
   57.3584   27.1765   44.5135 H   0  0  0  0  0  0  0  0  0  0  0  0
   56.1090   29.3431   44.0685 H   0  0  0  0  0  0  0  0  0  0  0  0
   57.0909   30.4772   43.0804 H   0  0  0  0  0  0  0  0  0  0  0  0
   57.4747   28.7224   43.0804 H   0  0  0  0  0  0  0  0  0  0  0  0
   56.6218   31.9848   44.2880 H   0  0  0  0  0  0  0  0  0  0  0  0
   56.5617   35.1270   45.7325 H   0  0  0  0  0  0  0  0  0  0  0  0
   57.5572   35.3034   44.2477 H   0  0  0  0  0  0  0  0  0  0  0  0
   56.1298   34.2129   44.2477 H   0  0  0  0  0  0  0  0  0  0  0  0
   59.4027   35.1375   47.6011 H   0  0  0  0  0  0  0  0  0  0  0  0
   60.3853   35.3050   46.1068 H   0  0  0  0  0  0  0  0  0  0  0  0
   58.6589   35.8011   46.1068 H   0  0  0  0  0  0  0  0  0  0  0  0
   60.6284   32.7666   47.1492 H   0  0  0  0  0  0  0  0  0  0  0  0
  1  2  1  0
  2  3  1  0
  3  4  1  0
  3  5  1  0
  5  6  1  0
  6  7  1  0
  7  8  1  0
  8  9  2  0
  9 10  1  0
 10 11  2  0
 11 12  1  0
 12 13  2  0
 13 14  1  0
 14 15  2  0
 15 16  1  0
 15 17  1  0
 17 18  2  0
 18 19  1  0
 19 20  1  0
 19 21  2  0
 21 22  1  0
 21 23  1  0
 23 24  2  0
 24  8  1  0
 14  9  1  0
 24 17  1  0
  1 25  1  0
  1 26  1  0
  1 27  1  0
  2 28  1  0
  2 29  1  0
  4 30  1  0
  4 31  1  0
  4 32  1  0
  5 33  1  0
  5 34  1  0
  6 35  1  0
  6 36  1  0
  7 37  1  0
 10 38  1  0
 11 39  1  0
 12 40  1  0
 13 41  1  0
 16 42  1  0
 16 43  1  0
 16 44  1  0
 18 45  1  0
 20 46  1  0
 20 47  1  0
 20 48  1  0
 22 49  1  0
 22 50  1  0
 22 51  1  0
 23 52  1  0
M  CHG  1  15   1
M  END
>  <UniqueID>  (29) 
29

>  <SMILES>  (29) 
CCN(C)CCNc1c2ccccc2[n+](C)c2cc(C)c(C)cc12

>  <Energy>  (29) 
79.62878382150957

>  <Genealogy>  (29) 
CCN(C)CCNc1c2ccccc2[n+](C)c2cc(C)c(C)cc12 (3D coordinates assigned)
CCN(C)CCNc1c2ccccc2[n+](C)c2cc(C)c(C)cc12 (optimized conformer: 79.62878382150957 kcal/mol)

>  <smiles>  (29) 
CCN(C)CCNc1c2ccccc2[n+](C)c2cc(C)c(C)cc12

>  <score_type>  (29) 
oracle

>  <origin>  (29) 
adg

>  <m_score__min__energy>  (29) 
-5.9400000000000004

>  <m_primary>  (29) 
energy

$$$$
29:0
     RDKit          3D

 67 70  0  0  0  0  0  0  0  0999 V2000
   58.0830   27.8270   44.0310 C   0  0  0  0  0  0  0  0  0  0  0  0
   57.8510   28.4710   45.3970 C   0  0  0  0  0  0  0  0  0  0  0  0
   58.4290   29.8330   45.5440 N   0  0  0  0  0  0  0  0  0  0  0  0
   59.6470   29.8490   46.3960 C   0  0  0  0  0  0  0  0  0  0  0  0
   59.3470   29.4270   47.8420 C   0  0  0  0  0  0  0  0  0  0  0  0
   58.5260   30.5760   44.2450 C   0  0  0  0  0  0  0  0  0  0  0  0
   57.6050   31.8060   44.0520 C   0  0  0  0  0  0  0  0  0  0  0  0
   56.9730   32.1810   45.2620 O   0  0  0  0  0  0  0  0  0  0  0  0
   57.0240   33.5880   45.4140 C   0  0  0  0  0  0  0  0  0  0  0  0
   57.9350   33.9490   46.5920 C   0  0  0  0  0  0  0  0  0  0  0  0
   58.3600   32.7530   47.3260 N   0  0  0  0  0  0  0  0  0  0  0  0
   59.3920   32.8030   48.3200 C   0  0  0  0  0  0  0  0  0  0  0  0
   60.7350   33.1000   47.9980 C   0  0  0  0  0  0  0  0  0  0  0  0
   61.0920   33.5470   46.7120 C   0  0  0  0  0  0  0  0  0  0  0  0
   62.4220   33.8260   46.3990 C   0  0  0  0  0  0  0  0  0  0  0  0
   63.4160   33.6650   47.3610 C   0  0  0  0  0  0  0  0  0  0  0  0
   63.0860   33.2390   48.6510 C   0  0  0  0  0  0  0  0  0  0  0  0
   61.7480   32.9500   49.0010 C   0  0  0  0  0  0  0  0  0  0  0  0
   61.4140   32.5090   50.2700 N   0  0  0  0  0  0  0  0  0  0  0  0
   62.4240   31.8420   51.1020 C   0  0  0  0  0  0  0  0  0  0  0  0
   60.0820   32.4930   50.6160 C   0  0  0  0  0  0  0  0  0  0  0  0
   59.0930   32.5520   49.6530 C   0  0  0  0  0  0  0  0  0  0  0  0
   57.8870   32.2310   50.1580 N   0  0  0  0  0  0  0  0  0  0  0  0
   58.1040   31.9920   51.4630 C   0  0  0  0  0  0  0  0  0  0  0  0
   57.1450   31.5810   52.3840 C   0  0  0  0  0  0  0  0  0  0  0  0
   57.5450   31.3600   53.7130 C   0  0  0  0  0  0  0  0  0  0  0  0
   56.5460   30.8670   54.7140 C   0  0  0  0  0  0  0  0  0  0  0  0
   58.8610   31.6830   54.1120 C   0  0  0  0  0  0  0  0  0  0  0  0
   59.8100   32.1570   53.1790 C   0  0  0  0  0  0  0  0  0  0  0  0
   61.0730   32.7730   53.7040 C   0  0  0  0  0  0  0  0  0  0  0  0
   59.4300   32.1840   51.8160 C   0  0  0  0  0  0  0  0  0  0  0  0
   58.4529   26.8001   44.1678 H   0  0  0  0  0  0  0  0  0  0  0  0
   57.1366   27.8042   43.4709 H   0  0  0  0  0  0  0  0  0  0  0  0
   58.8265   28.4130   43.4709 H   0  0  0  0  0  0  0  0  0  0  0  0
   56.7660   28.5385   45.5649 H   0  0  0  0  0  0  0  0  0  0  0  0
   58.3621   27.8337   46.1336 H   0  0  0  0  0  0  0  0  0  0  0  0
   57.6930   30.3380   46.0970 H   0  0  0  0  0  0  0  0  0  0  0  0
   60.3866   29.1550   45.9703 H   0  0  0  0  0  0  0  0  0  0  0  0
   60.0318   30.8793   46.4170 H   0  0  0  0  0  0  0  0  0  0  0  0
   59.8411   30.1220   48.5368 H   0  0  0  0  0  0  0  0  0  0  0  0
   58.2605   29.4488   48.0124 H   0  0  0  0  0  0  0  0  0  0  0  0
   59.7245   28.4080   48.0124 H   0  0  0  0  0  0  0  0  0  0  0  0
   59.5646   30.9231   44.1412 H   0  0  0  0  0  0  0  0  0  0  0  0
   58.1915   29.8546   43.4849 H   0  0  0  0  0  0  0  0  0  0  0  0
   58.2091   32.6504   43.6886 H   0  0  0  0  0  0  0  0  0  0  0  0
   56.8237   31.5391   43.3251 H   0  0  0  0  0  0  0  0  0  0  0  0
   57.4205   34.0408   44.4933 H   0  0  0  0  0  0  0  0  0  0  0  0
   56.0107   33.9698   45.6076 H   0  0  0  0  0  0  0  0  0  0  0  0
   58.8254   34.4693   46.2094 H   0  0  0  0  0  0  0  0  0  0  0  0
   57.3708   34.5953   47.2804 H   0  0  0  0  0  0  0  0  0  0  0  0
   58.0540   31.8180   46.9620 H   0  0  0  0  0  0  0  0  0  0  0  0
   60.3137   33.6777   45.9458 H   0  0  0  0  0  0  0  0  0  0  0  0
   62.6866   34.1741   45.3897 H   0  0  0  0  0  0  0  0  0  0  0  0
   64.4652   33.8739   47.1048 H   0  0  0  0  0  0  0  0  0  0  0  0
   63.8796   33.1272   49.4045 H   0  0  0  0  0  0  0  0  0  0  0  0
   62.1859   31.9992   52.1644 H   0  0  0  0  0  0  0  0  0  0  0  0
   62.4263   30.7641   50.8824 H   0  0  0  0  0  0  0  0  0  0  0  0
   63.4162   32.2631   50.8824 H   0  0  0  0  0  0  0  0  0  0  0  0
   56.9820   32.1470   49.6420 H   0  0  0  0  0  0  0  0  0  0  0  0
   56.0986   31.4326   52.0789 H   0  0  0  0  0  0  0  0  0  0  0  0
   56.9230   31.0531   55.7305 H   0  0  0  0  0  0  0  0  0  0  0  0
   55.5932   31.3983   54.5734 H   0  0  0  0  0  0  0  0  0  0  0  0
   56.3881   29.7875   54.5734 H   0  0  0  0  0  0  0  0  0  0  0  0
   59.1515   31.5635   55.1662 H   0  0  0  0  0  0  0  0  0  0  0  0
   61.0555   32.7645   54.8038 H   0  0  0  0  0  0  0  0  0  0  0  0
   61.9386   32.1959   53.3466 H   0  0  0  0  0  0  0  0  0  0  0  0
   61.1511   33.8104   53.3466 H   0  0  0  0  0  0  0  0  0  0  0  0
  1  2  1  0
  2  3  1  0
  3  4  1  0
  4  5  1  0
  3  6  1  0
  6  7  1  0
  7  8  1  0
  8  9  1  0
  9 10  1  0
 10 11  1  0
 11 12  1  0
 12 13  2  0
 13 14  1  0
 14 15  2  0
 15 16  1  0
 16 17  2  0
 17 18  1  0
 18 19  2  0
 19 20  1  0
 19 21  1  0
 21 22  2  0
 22 23  1  0
 23 24  1  0
 24 25  2  0
 25 26  1  0
 26 27  1  0
 26 28  2  0
 28 29  1  0
 29 30  1  0
 29 31  2  0
 22 12  1  0
 31 24  1  0
 18 13  1  0
 31 21  1  0
  1 32  1  0
  1 33  1  0
  1 34  1  0
  2 35  1  0
  2 36  1  0
  3 37  1  0
  4 38  1  0
  4 39  1  0
  5 40  1  0
  5 41  1  0
  5 42  1  0
  6 43  1  0
  6 44  1  0
  7 45  1  0
  7 46  1  0
  9 47  1  0
  9 48  1  0
 10 49  1  0
 10 50  1  0
 11 51  1  0
 14 52  1  0
 15 53  1  0
 16 54  1  0
 17 55  1  0
 20 56  1  0
 20 57  1  0
 20 58  1  0
 23 59  1  0
 25 60  1  0
 27 61  1  0
 27 62  1  0
 27 63  1  0
 28 64  1  0
 30 65  1  0
 30 66  1  0
 30 67  1  0
M  CHG  2   3   1  19   1
M  END
>  <UniqueID>  (30) 
30

>  <SMILES>  (30) 
CC[NH+](CC)CCOCCNc1c2ccccc2[n+](C)c2c1[nH]c1cc(C)cc(C)c12

>  <Energy>  (30) 
139.31101448301038

>  <Genealogy>  (30) 
CC[NH+](CC)CCOCCNc1c2ccccc2[n+](C)c2c1[nH]c1cc(C)cc(C)c12 (protonated)
CC[NH+](CC)CCOCCNc1c2ccccc2[n+](C)c2c1[nH]c1cc(C)cc(C)c12 (3D coordinates assigned)
CC[NH+](CC)CCOCCNc1c2ccccc2[n+](C)c2c1[nH]c1cc(C)cc(C)c12 (optimized conformer: 139.31101448301038 kcal/mol)

>  <smiles>  (30) 
CCN(CC)CCOCCNc1c2ccccc2[n+](C)c2c1[nH]c1cc(C)cc(C)c12

>  <score_type>  (30) 
oracle

>  <origin>  (30) 
adg

>  <m_score__min__energy>  (30) 
-4.6100000000000003

>  <m_primary>  (30) 
energy

$$$$
30:0
     RDKit          3D

 32 34  0  0  0  0  0  0  0  0999 V2000
   59.2700   35.0330   46.5790 C   0  0  0  0  0  0  0  0  0  0  0  0
   59.0870   33.9230   47.6060 C   0  0  0  0  0  0  0  0  0  0  0  0
   60.1840   32.9550   47.5100 N   0  0  0  0  0  0  0  0  0  0  0  0
   60.2370   31.8230   46.7510 C   0  0  0  0  0  0  0  0  0  0  0  0
   59.1080   31.2860   45.9690 C   0  0  0  0  0  0  0  0  0  0  0  0
   58.5060   32.0880   44.9870 C   0  0  0  0  0  0  0  0  0  0  0  0
   57.4240   31.6060   44.2450 C   0  0  0  0  0  0  0  0  0  0  0  0
   56.9310   30.3190   44.4830 C   0  0  0  0  0  0  0  0  0  0  0  0
   55.5730   29.7150   43.5520 Cl  0  0  0  0  0  0  0  0  0  0  0  0
   57.5200   29.5160   45.4630 C   0  0  0  0  0  0  0  0  0  0  0  0
   58.6050   29.9910   46.2100 C   0  0  0  0  0  0  0  0  0  0  0  0
   59.3360   28.9280   47.4080 Cl  0  0  0  0  0  0  0  0  0  0  0  0
   61.4650   31.2470   46.7590 N   0  0  0  0  0  0  0  0  0  0  0  0
   62.2050   32.0530   47.5360 C   0  0  0  0  0  0  0  0  0  0  0  0
   63.5580   31.9410   47.8480 C   0  0  0  0  0  0  0  0  0  0  0  0
   64.1280   32.9460   48.6510 C   0  0  0  0  0  0  0  0  0  0  0  0
   63.3420   34.0270   49.1100 C   0  0  0  0  0  0  0  0  0  0  0  0
   61.9780   34.1130   48.7720 C   0  0  0  0  0  0  0  0  0  0  0  0
   61.4390   33.0920   47.9840 C   0  0  0  0  0  0  0  0  0  0  0  0
   59.4278   35.9901   47.0977 H   0  0  0  0  0  0  0  0  0  0  0  0
   60.1434   34.8091   45.9488 H   0  0  0  0  0  0  0  0  0  0  0  0
   58.3710   35.1013   45.9488 H   0  0  0  0  0  0  0  0  0  0  0  0
   59.0764   34.3605   48.6152 H   0  0  0  0  0  0  0  0  0  0  0  0
   58.1359   33.4066   47.4091 H   0  0  0  0  0  0  0  0  0  0  0  0
   58.8882   33.1024   44.8001 H   0  0  0  0  0  0  0  0  0  0  0  0
   56.9603   32.2388   43.4740 H   0  0  0  0  0  0  0  0  0  0  0  0
   57.1291   28.5047   45.6488 H   0  0  0  0  0  0  0  0  0  0  0  0
   61.7710   30.3840   46.2580 H   0  0  0  0  0  0  0  0  0  0  0  0
   64.1594   31.0968   47.4797 H   0  0  0  0  0  0  0  0  0  0  0  0
   65.1923   32.8899   48.9233 H   0  0  0  0  0  0  0  0  0  0  0  0
   63.7994   34.8072   49.7362 H   0  0  0  0  0  0  0  0  0  0  0  0
   61.3582   34.9541   49.1160 H   0  0  0  0  0  0  0  0  0  0  0  0
  1  2  1  0
  2  3  1  0
  3  4  1  0
  4  5  1  0
  5  6  2  0
  6  7  1  0
  7  8  2  0
  8  9  1  0
  8 10  1  0
 10 11  2  0
 11 12  1  0
  4 13  2  0
 13 14  1  0
 14 15  2  0
 15 16  1  0
 16 17  2  0
 17 18  1  0
 18 19  2  0
 19  3  1  0
 11  5  1  0
 19 14  1  0
  1 20  1  0
  1 21  1  0
  1 22  1  0
  2 23  1  0
  2 24  1  0
  6 25  1  0
  7 26  1  0
 10 27  1  0
 13 28  1  0
 15 29  1  0
 16 30  1  0
 17 31  1  0
 18 32  1  0
M  CHG  1  13   1
M  END
>  <UniqueID>  (31) 
31

>  <SMILES>  (31) 
CCn1c(-c2ccc(Cl)cc2Cl)[nH+]c2ccccc21

>  <Energy>  (31) 
76.55893568309806

>  <Genealogy>  (31) 
CCn1c(-c2ccc(Cl)cc2Cl)[nH+]c2ccccc21 (protonated)
CCn1c(-c2ccc(Cl)cc2Cl)[nH+]c2ccccc21 (3D coordinates assigned)
CCn1c(-c2ccc(Cl)cc2Cl)[nH+]c2ccccc21 (optimized conformer: 76.55893568309806 kcal/mol)

>  <smiles>  (31) 
CCn1c(-c2ccc(Cl)cc2Cl)nc2ccccc21

>  <score_type>  (31) 
oracle

>  <origin>  (31) 
adg

>  <m_score__min__energy>  (31) 
-5.4900000000000002

>  <m_primary>  (31) 
energy

$$$$
31:0
     RDKit          3D

 47 50  0  0  0  0  0  0  0  0999 V2000
   56.8580   24.8530   47.2540 C   0  0  0  0  0  0  0  0  0  0  0  0
   56.3790   25.6590   46.1160 N   0  0  0  0  0  0  0  0  0  0  0  0
   55.1190   25.0890   45.6110 C   0  0  0  0  0  0  0  0  0  0  0  0
   57.3880   25.7070   45.0360 C   0  0  0  0  0  0  0  0  0  0  0  0
   57.8100   27.1510   44.7530 C   0  0  0  0  0  0  0  0  0  0  0  0
   57.3050   28.0390   45.7990 N   0  0  0  0  0  0  0  0  0  0  0  0
   58.1870   28.9100   46.5240 C   0  0  0  0  0  0  0  0  0  0  0  0
   58.2180   30.2740   46.2440 C   0  0  0  0  0  0  0  0  0  0  0  0
   59.0740   31.1290   46.9180 C   0  0  0  0  0  0  0  0  0  0  0  0
   59.8370   30.6990   47.9730 N   0  0  0  0  0  0  0  0  0  0  0  0
   60.4800   31.6790   48.8650 C   0  0  0  0  0  0  0  0  0  0  0  0
   59.9230   29.3350   48.2150 C   0  0  0  0  0  0  0  0  0  0  0  0
   60.8570   28.8030   49.1370 C   0  0  0  0  0  0  0  0  0  0  0  0
   60.9100   27.4320   49.3950 C   0  0  0  0  0  0  0  0  0  0  0  0
   60.0520   26.5590   48.7360 C   0  0  0  0  0  0  0  0  0  0  0  0
   59.1430   27.0430   47.7980 C   0  0  0  0  0  0  0  0  0  0  0  0
   59.0710   28.4210   47.5120 C   0  0  0  0  0  0  0  0  0  0  0  0
   58.8980   32.4910   46.3520 C   0  0  0  0  0  0  0  0  0  0  0  0
   59.6460   33.6680   46.5050 C   0  0  0  0  0  0  0  0  0  0  0  0
   59.2750   34.8030   45.7640 C   0  0  0  0  0  0  0  0  0  0  0  0
   58.2040   34.7440   44.8540 C   0  0  0  0  0  0  0  0  0  0  0  0
   57.5050   33.5430   44.6580 C   0  0  0  0  0  0  0  0  0  0  0  0
   57.8790   32.4330   45.4120 C   0  0  0  0  0  0  0  0  0  0  0  0
   57.4100   31.0610   45.3150 C   0  0  0  0  0  0  0  0  0  0  0  0
   56.4700   30.6460   44.5880 O   0  0  0  0  0  0  0  0  0  0  0  0
   56.5682   25.3407   48.1964 H   0  0  0  0  0  0  0  0  0  0  0  0
   56.4095   23.8497   47.2073 H   0  0  0  0  0  0  0  0  0  0  0  0
   57.9537   24.7674   47.2073 H   0  0  0  0  0  0  0  0  0  0  0  0
   54.4811   24.8004   46.4594 H   0  0  0  0  0  0  0  0  0  0  0  0
   54.5971   25.8387   44.9981 H   0  0  0  0  0  0  0  0  0  0  0  0
   55.3374   24.2020   44.9981 H   0  0  0  0  0  0  0  0  0  0  0  0
   58.2709   25.1260   45.3407 H   0  0  0  0  0  0  0  0  0  0  0  0
   56.9479   25.2818   44.1219 H   0  0  0  0  0  0  0  0  0  0  0  0
   58.9081   27.2098   44.7253 H   0  0  0  0  0  0  0  0  0  0  0  0
   57.3926   27.4636   43.7845 H   0  0  0  0  0  0  0  0  0  0  0  0
   56.3690   27.8230   46.2100 H   0  0  0  0  0  0  0  0  0  0  0  0
   60.2955   31.3978   49.9123 H   0  0  0  0  0  0  0  0  0  0  0  0
   61.5633   31.6928   48.6744 H   0  0  0  0  0  0  0  0  0  0  0  0
   60.0614   32.6782   48.6744 H   0  0  0  0  0  0  0  0  0  0  0  0
   61.5507   29.4797   49.6574 H   0  0  0  0  0  0  0  0  0  0  0  0
   61.6348   27.0403   50.1239 H   0  0  0  0  0  0  0  0  0  0  0  0
   60.0910   25.4820   48.9561 H   0  0  0  0  0  0  0  0  0  0  0  0
   58.4748   26.3427   47.2754 H   0  0  0  0  0  0  0  0  0  0  0  0
   60.5053   33.7017   47.1909 H   0  0  0  0  0  0  0  0  0  0  0  0
   59.8267   35.7453   45.8967 H   0  0  0  0  0  0  0  0  0  0  0  0
   57.9128   35.6442   44.2929 H   0  0  0  0  0  0  0  0  0  0  0  0
   56.6840   33.4798   43.9287 H   0  0  0  0  0  0  0  0  0  0  0  0
  1  2  1  0
  2  3  1  0
  2  4  1  0
  4  5  1  0
  5  6  1  0
  6  7  1  0
  7  8  2  0
  8  9  1  0
  9 10  2  0
 10 11  1  0
 10 12  1  0
 12 13  2  0
 13 14  1  0
 14 15  2  0
 15 16  1  0
 16 17  2  0
  9 18  1  0
 18 19  2  0
 19 20  1  0
 20 21  2  0
 21 22  1  0
 22 23  2  0
 23 24  1  0
 24 25  2  0
 17  7  1  0
 23 18  1  0
 24  8  1  0
 17 12  1  0
  1 26  1  0
  1 27  1  0
  1 28  1  0
  3 29  1  0
  3 30  1  0
  3 31  1  0
  4 32  1  0
  4 33  1  0
  5 34  1  0
  5 35  1  0
  6 36  1  0
 11 37  1  0
 11 38  1  0
 11 39  1  0
 13 40  1  0
 14 41  1  0
 15 42  1  0
 16 43  1  0
 19 44  1  0
 20 45  1  0
 21 46  1  0
 22 47  1  0
M  CHG  1  10   1
M  END
>  <UniqueID>  (32) 
32

>  <SMILES>  (32) 
CN(C)CCNc1c2c([n+](C)c3ccccc13)-c1ccccc1C2=O

>  <Energy>  (32) 
103.22472708711436

>  <Genealogy>  (32) 
CN(C)CCNc1c2c([n+](C)c3ccccc13)-c1ccccc1C2=O (3D coordinates assigned)
CN(C)CCNc1c2c([n+](C)c3ccccc13)-c1ccccc1C2=O (nonaromatic ring conformer: 103.22472708711436 kcal/mol)

>  <smiles>  (32) 
CN(C)CCNc1c2c([n+](C)c3ccccc13)-c1ccccc1C2=O

>  <score_type>  (32) 
oracle

>  <origin>  (32) 
adg

>  <m_score__min__energy>  (32) 
-6.1200000000000001

>  <m_primary>  (32) 
energy

$$$$
