0:0
     RDKit          3D

 64 68  0  0  0  0  0  0  0  0999 V2000
   63.3360   33.8680   46.0000 C   0  0  0  0  0  0  0  0  0  0  0  0
   62.3140   33.7910   47.0440 N   0  0  0  0  0  0  0  0  0  0  0  0
   62.5120   33.5690   48.3680 C   0  0  0  0  0  0  0  0  0  0  0  0
   61.3120   33.5190   49.0460 C   0  0  0  0  0  0  0  0  0  0  0  0
   60.3300   33.6540   48.0900 C   0  0  0  0  0  0  0  0  0  0  0  0
   58.9410   33.6200   48.1930 C   0  0  0  0  0  0  0  0  0  0  0  0
   58.1920   33.7630   47.0110 C   0  0  0  0  0  0  0  0  0  0  0  0
   58.8420   33.9260   45.7680 C   0  0  0  0  0  0  0  0  0  0  0  0
   60.2470   33.9510   45.6920 C   0  0  0  0  0  0  0  0  0  0  0  0
   60.9710   33.8150   46.8820 C   0  0  0  0  0  0  0  0  0  0  0  0
   61.1900   33.2360   50.5080 C   0  0  0  0  0  0  0  0  0  0  0  0
   62.5740   33.3490   51.1870 C   0  0  0  0  0  0  0  0  0  0  0  0
   63.6800   32.7620   50.3810 N   0  0  0  0  0  0  0  0  0  0  0  0
   63.5770   31.2920   50.2180 C   0  0  0  0  0  0  0  0  0  0  0  0
   64.0450   30.5290   51.4710 C   0  0  0  0  0  0  0  0  0  0  0  0
   63.3050   29.2000   51.7050 C   0  0  0  0  0  0  0  0  0  0  0  0
   61.7840   29.3780   51.7930 C   0  0  0  0  0  0  0  0  0  0  0  0
   61.2220   29.7190   50.4860 N   0  0  0  0  0  0  0  0  0  0  0  0
   60.6540   28.7120   49.6350 C   0  0  0  0  0  0  0  0  0  0  0  0
   60.7610   27.4960   49.9530 O   0  0  0  0  0  0  0  0  0  0  0  0
   59.9590   29.0730   48.3760 C   0  0  0  0  0  0  0  0  0  0  0  0
   58.8820   28.3070   47.8960 C   0  0  0  0  0  0  0  0  0  0  0  0
   58.2360   28.6600   46.7070 C   0  0  0  0  0  0  0  0  0  0  0  0
   58.6550   29.7790   45.9690 C   0  0  0  0  0  0  0  0  0  0  0  0
   57.9650   30.1550   44.7080 C   0  0  0  0  0  0  0  0  0  0  0  0
   58.3430   31.3120   44.0000 C   0  0  0  0  0  0  0  0  0  0  0  0
   57.6910   31.6620   42.8130 C   0  0  0  0  0  0  0  0  0  0  0  0
   56.6550   30.8640   42.3210 C   0  0  0  0  0  0  0  0  0  0  0  0
   56.2700   29.7160   43.0140 C   0  0  0  0  0  0  0  0  0  0  0  0
   56.9180   29.3600   44.2010 C   0  0  0  0  0  0  0  0  0  0  0  0
   59.7400   30.5370   46.4430 C   0  0  0  0  0  0  0  0  0  0  0  0
   60.3860   30.1850   47.6310 C   0  0  0  0  0  0  0  0  0  0  0  0
   63.8320   33.4530   49.0770 C   0  0  0  0  0  0  0  0  0  0  0  0
   64.3301   33.9429   46.4649 H   0  0  0  0  0  0  0  0  0  0  0  0
   63.2906   32.9639   45.3751 H   0  0  0  0  0  0  0  0  0  0  0  0
   63.1557   34.7551   45.3751 H   0  0  0  0  0  0  0  0  0  0  0  0
   58.4465   33.4858   49.1664 H   0  0  0  0  0  0  0  0  0  0  0  0
   57.0930   33.7478   47.0552 H   0  0  0  0  0  0  0  0  0  0  0  0
   58.2446   34.0344   44.8507 H   0  0  0  0  0  0  0  0  0  0  0  0
   60.7604   34.0737   44.7269 H   0  0  0  0  0  0  0  0  0  0  0  0
   60.5008   33.9625   50.9632 H   0  0  0  0  0  0  0  0  0  0  0  0
   60.8026   32.2158   50.6466 H   0  0  0  0  0  0  0  0  0  0  0  0
   62.7932   34.4136   51.3559 H   0  0  0  0  0  0  0  0  0  0  0  0
   62.5210   32.7801   52.1270 H   0  0  0  0  0  0  0  0  0  0  0  0
   62.5274   31.0314   50.0170 H   0  0  0  0  0  0  0  0  0  0  0  0
   64.2313   31.0001   49.3833 H   0  0  0  0  0  0  0  0  0  0  0  0
   65.1184   30.3135   51.3644 H   0  0  0  0  0  0  0  0  0  0  0  0
   63.8270   31.1723   52.3363 H   0  0  0  0  0  0  0  0  0  0  0  0
   63.5322   28.5190   50.8715 H   0  0  0  0  0  0  0  0  0  0  0  0
   63.6485   28.7929   52.6674 H   0  0  0  0  0  0  0  0  0  0  0  0
   61.3314   28.4396   52.1460 H   0  0  0  0  0  0  0  0  0  0  0  0
   61.5659   30.1972   52.4940 H   0  0  0  0  0  0  0  0  0  0  0  0
   61.2780   30.7050   50.1470 H   0  0  0  0  0  0  0  0  0  0  0  0
   58.5454   27.4243   48.4595 H   0  0  0  0  0  0  0  0  0  0  0  0
   57.3911   28.0551   46.3461 H   0  0  0  0  0  0  0  0  0  0  0  0
   59.1569   31.9451   44.3831 H   0  0  0  0  0  0  0  0  0  0  0  0
   57.9944   32.5669   42.2660 H   0  0  0  0  0  0  0  0  0  0  0  0
   56.1431   31.1408   41.3876 H   0  0  0  0  0  0  0  0  0  0  0  0
   55.4541   29.0888   42.6255 H   0  0  0  0  0  0  0  0  0  0  0  0
   56.6084   28.4538   44.7422 H   0  0  0  0  0  0  0  0  0  0  0  0
   60.0830   31.4139   45.8743 H   0  0  0  0  0  0  0  0  0  0  0  0
   61.2372   30.7844   47.9864 H   0  0  0  0  0  0  0  0  0  0  0  0
   64.2366   34.4612   49.2499 H   0  0  0  0  0  0  0  0  0  0  0  0
   64.5156   32.8642   48.4477 H   0  0  0  0  0  0  0  0  0  0  0  0
  1  2  1  0
  2  3  1  0
  3  4  2  0
  4  5  1  0
  5  6  2  0
  6  7  1  0
  7  8  2  0
  8  9  1  0
  9 10  2  0
  4 11  1  0
 11 12  1  0
 12 13  1  0
 13 14  1  0
 14 15  1  0
 15 16  1  0
 16 17  1  0
 17 18  1  0
 18 19  1  0
 19 20  2  0
 19 21  1  0
 21 22  2  0
 22 23  1  0
 23 24  2  0
 24 25  1  0
 25 26  2  0
 26 27  1  0
 27 28  2  0
 28 29  1  0
 29 30  2  0
 24 31  1  0
 31 32  2  0
 13 33  1  0
 10  2  1  0
 32 21  1  0
 33  3  1  0
 10  5  1  0
 30 25  1  0
  1 34  1  0
  1 35  1  0
  1 36  1  0
  6 37  1  0
  7 38  1  0
  8 39  1  0
  9 40  1  0
 11 41  1  0
 11 42  1  0
 12 43  1  0
 12 44  1  0
 14 45  1  0
 14 46  1  0
 15 47  1  0
 15 48  1  0
 16 49  1  0
 16 50  1  0
 17 51  1  0
 17 52  1  0
 18 53  1  0
 22 54  1  0
 23 55  1  0
 26 56  1  0
 27 57  1  0
 28 58  1  0
 29 59  1  0
 30 60  1  0
 31 61  1  0
 32 62  1  0
 33 63  1  0
 33 64  1  0
M  END
>  <UniqueID>  (1) 
1

>  <SMILES>  (1) 
Cn1c2c(c3ccccc31)CCN(CCCCNC(=O)c1ccc(-c3ccccc3)cc1)C2

>  <Energy>  (1) 
112.52692469317775

>  <Genealogy>  (1) 
Cn1c2c(c3ccccc31)CCN(CCCCNC(=O)c1ccc(-c3ccccc3)cc1)C2 (3D coordinates assigned)
Cn1c2c(c3ccccc31)CCN(CCCCNC(=O)c1ccc(-c3ccccc3)cc1)C2 (nonaromatic ring conformer: 112.52692469317775 kcal/mol)

>  <smiles>  (1) 
Cn1c2c(c3ccccc31)CCN(CCCCNC(=O)c1ccc(-c3ccccc3)cc1)C2

>  <score_type>  (1) 
oracle

>  <origin>  (1) 
adg

>  <m_score__min__energy>  (1) 
-9.5800000000000001

>  <m_primary>  (1) 
energy

$$$$
2:0
     RDKit          3D

 83 88  0  0  0  0  0  0  0  0999 V2000
   57.8220   27.2380   42.5970 C   0  0  0  0  0  0  0  0  0  0  0  0
   57.9260   27.6520   44.0070 N   0  0  0  0  0  0  0  0  0  0  0  0
   57.9220   26.7260   45.0410 C   0  0  0  0  0  0  0  0  0  0  0  0
   57.7040   25.3470   44.8010 C   0  0  0  0  0  0  0  0  0  0  0  0
   57.7390   24.4220   45.8430 C   0  0  0  0  0  0  0  0  0  0  0  0
   57.9790   24.8390   47.1480 C   0  0  0  0  0  0  0  0  0  0  0  0
   58.1670   26.1900   47.4280 C   0  0  0  0  0  0  0  0  0  0  0  0
   58.1280   27.1520   46.3980 C   0  0  0  0  0  0  0  0  0  0  0  0
   58.2910   28.5280   46.6860 C   0  0  0  0  0  0  0  0  0  0  0  0
   58.5530   28.9930   48.0160 N   0  0  0  0  0  0  0  0  0  0  0  0
   59.8940   28.8970   48.5880 C   0  0  0  0  0  0  0  0  0  0  0  0
   59.9600   29.6510   49.9190 C   0  0  0  0  0  0  0  0  0  0  0  0
   58.6200   30.1470   50.3070 N   0  0  0  0  0  0  0  0  0  0  0  0
   58.4690   31.6140   50.1170 C   0  0  0  0  0  0  0  0  0  0  0  0
   57.9480   32.3490   51.3660 C   0  0  0  0  0  0  0  0  0  0  0  0
   58.7080   31.9810   52.5800 N   0  0  0  0  0  0  0  0  0  0  0  0
   60.0380   32.6220   52.5910 C   0  0  0  0  0  0  0  0  0  0  0  0
   58.8170   30.5080   52.7840 C   0  0  0  0  0  0  0  0  0  0  0  0
   58.1980   29.6750   51.6440 C   0  0  0  0  0  0  0  0  0  0  0  0
   58.1810   29.4220   45.6240 C   0  0  0  0  0  0  0  0  0  0  0  0
   58.1460   30.8070   45.5690 C   0  0  0  0  0  0  0  0  0  0  0  0
   58.1900   31.7930   46.5580 C   0  0  0  0  0  0  0  0  0  0  0  0
   58.0500   33.1470   46.1630 C   0  0  0  0  0  0  0  0  0  0  0  0
   58.0750   34.2090   47.0800 O   0  0  0  0  0  0  0  0  0  0  0  0
   59.2270   34.9710   47.4420 C   0  0  0  0  0  0  0  0  0  0  0  0
   60.5050   34.2780   46.9380 C   0  0  0  0  0  0  0  0  0  0  0  0
   61.3710   33.6020   47.9650 N   0  0  0  0  0  0  0  0  0  0  0  0
   60.9260   34.1770   49.2700 C   0  0  0  0  0  0  0  0  0  0  0  0
   61.1070   32.1210   48.0510 C   0  0  0  0  0  0  0  0  0  0  0  0
   61.9970   31.2170   47.1790 C   0  0  0  0  0  0  0  0  0  0  0  0
   63.4620   31.5820   47.3160 C   0  0  0  0  0  0  0  0  0  0  0  0
   63.6490   33.0320   46.9120 C   0  0  0  0  0  0  0  0  0  0  0  0
   62.8240   33.9590   47.8200 C   0  0  0  0  0  0  0  0  0  0  0  0
   57.8730   33.4600   44.7960 C   0  0  0  0  0  0  0  0  0  0  0  0
   57.8170   32.4470   43.8240 C   0  0  0  0  0  0  0  0  0  0  0  0
   57.9540   31.1280   44.2430 C   0  0  0  0  0  0  0  0  0  0  0  0
   57.8650   30.0260   43.4710 N   0  0  0  0  0  0  0  0  0  0  0  0
   58.0020   28.9830   44.3280 C   0  0  0  0  0  0  0  0  0  0  0  0
   57.5543   26.1723   42.5466 H   0  0  0  0  0  0  0  0  0  0  0  0
   57.0460   27.8351   42.0958 H   0  0  0  0  0  0  0  0  0  0  0  0
   58.7881   27.3975   42.0958 H   0  0  0  0  0  0  0  0  0  0  0  0
   57.5040   25.0008   43.7762 H   0  0  0  0  0  0  0  0  0  0  0  0
   57.5757   23.3549   45.6318 H   0  0  0  0  0  0  0  0  0  0  0  0
   58.0204   24.0994   47.9612 H   0  0  0  0  0  0  0  0  0  0  0  0
   58.3480   26.5104   48.4646 H   0  0  0  0  0  0  0  0  0  0  0  0
   57.7480   29.1120   48.6720 H   0  0  0  0  0  0  0  0  0  0  0  0
   60.1409   27.8386   48.7580 H   0  0  0  0  0  0  0  0  0  0  0  0
   60.6144   29.3446   47.8875 H   0  0  0  0  0  0  0  0  0  0  0  0
   60.3339   28.9727   50.7000 H   0  0  0  0  0  0  0  0  0  0  0  0
   60.6359   30.5113   49.8047 H   0  0  0  0  0  0  0  0  0  0  0  0
   59.4510   32.0328   49.8518 H   0  0  0  0  0  0  0  0  0  0  0  0
   57.7223   31.7604   49.3227 H   0  0  0  0  0  0  0  0  0  0  0  0
   58.0393   33.4332   51.2044 H   0  0  0  0  0  0  0  0  0  0  0  0
   56.8985   32.0577   51.5197 H   0  0  0  0  0  0  0  0  0  0  0  0
   58.1820   32.3790   53.3950 H   0  0  0  0  0  0  0  0  0  0  0  0
   60.3613   32.7778   53.6308 H   0  0  0  0  0  0  0  0  0  0  0  0
   60.7617   31.9738   52.0752 H   0  0  0  0  0  0  0  0  0  0  0  0
   59.9818   33.5919   52.0752 H   0  0  0  0  0  0  0  0  0  0  0  0
   59.8825   30.2470   52.8653 H   0  0  0  0  0  0  0  0  0  0  0  0
   58.2541   30.2684   53.6982 H   0  0  0  0  0  0  0  0  0  0  0  0
   58.5096   28.6268   51.7631 H   0  0  0  0  0  0  0  0  0  0  0  0
   57.1049   29.7804   51.7071 H   0  0  0  0  0  0  0  0  0  0  0  0
   58.3297   31.5254   47.6158 H   0  0  0  0  0  0  0  0  0  0  0  0
   59.1557   35.9724   46.9925 H   0  0  0  0  0  0  0  0  0  0  0  0
   59.2724   35.0526   48.5380 H   0  0  0  0  0  0  0  0  0  0  0  0
   60.2010   33.5142   46.2071 H   0  0  0  0  0  0  0  0  0  0  0  0
   61.1268   35.0899   46.5329 H   0  0  0  0  0  0  0  0  0  0  0  0
   61.3713   33.6017   50.0951 H   0  0  0  0  0  0  0  0  0  0  0  0
   61.2498   35.2261   49.3379 H   0  0  0  0  0  0  0  0  0  0  0  0
   59.8293   34.1267   49.3379 H   0  0  0  0  0  0  0  0  0  0  0  0
   61.2450   31.8164   49.0989 H   0  0  0  0  0  0  0  0  0  0  0  0
   60.0850   31.9829   47.6682 H   0  0  0  0  0  0  0  0  0  0  0  0
   61.8584   30.1712   47.4906 H   0  0  0  0  0  0  0  0  0  0  0  0
   61.7037   31.3542   46.1277 H   0  0  0  0  0  0  0  0  0  0  0  0
   63.7799   31.4461   48.3602 H   0  0  0  0  0  0  0  0  0  0  0  0
   64.0690   30.9339   46.6668 H   0  0  0  0  0  0  0  0  0  0  0  0
   64.7133   33.2964   46.9973 H   0  0  0  0  0  0  0  0  0  0  0  0
   63.3071   33.1572   45.8740 H   0  0  0  0  0  0  0  0  0  0  0  0
   63.2780   33.9429   48.8218 H   0  0  0  0  0  0  0  0  0  0  0  0
   62.8441   34.9476   47.3381 H   0  0  0  0  0  0  0  0  0  0  0  0
   57.7777   34.5119   44.4887 H   0  0  0  0  0  0  0  0  0  0  0  0
   57.6690   32.6903   42.7615 H   0  0  0  0  0  0  0  0  0  0  0  0
   57.6660   30.0150   42.4470 H   0  0  0  0  0  0  0  0  0  0  0  0
  1  2  1  0
  2  3  2  0
  3  4  1  0
  4  5  2  0
  5  6  1  0
  6  7  2  0
  7  8  1  0
  8  9  2  0
  9 10  1  0
 10 11  1  0
 11 12  1  0
 12 13  1  0
 13 14  1  0
 14 15  1  0
 15 16  1  0
 16 17  1  0
 16 18  1  0
 18 19  1  0
  9 20  1  0
 20 21  1  0
 21 22  2  0
 22 23  1  0
 23 24  1  0
 24 25  1  0
 25 26  1  0
 26 27  1  0
 27 28  1  0
 27 29  1  0
 29 30  1  0
 30 31  1  0
 31 32  1  0
 32 33  1  0
 23 34  2  0
 34 35  1  0
 35 36  2  0
 36 37  1  0
 37 38  1  0
 38  2  1  0
  8  3  1  0
 19 13  1  0
 38 20  2  0
 36 21  1  0
 33 27  1  0
  1 39  1  0
  1 40  1  0
  1 41  1  0
  4 42  1  0
  5 43  1  0
  6 44  1  0
  7 45  1  0
 10 46  1  0
 11 47  1  0
 11 48  1  0
 12 49  1  0
 12 50  1  0
 14 51  1  0
 14 52  1  0
 15 53  1  0
 15 54  1  0
 16 55  1  0
 17 56  1  0
 17 57  1  0
 17 58  1  0
 18 59  1  0
 18 60  1  0
 19 61  1  0
 19 62  1  0
 22 63  1  0
 25 64  1  0
 25 65  1  0
 26 66  1  0
 26 67  1  0
 28 68  1  0
 28 69  1  0
 28 70  1  0
 29 71  1  0
 29 72  1  0
 30 73  1  0
 30 74  1  0
 31 75  1  0
 31 76  1  0
 32 77  1  0
 32 78  1  0
 33 79  1  0
 33 80  1  0
 34 81  1  0
 35 82  1  0
 37 83  1  0
M  CHG  3   2   1  16   1  27   1
M  END
>  <UniqueID>  (2) 
2

>  <SMILES>  (2) 
C[n+]1c2ccccc2c(NCCN2CC[NH+](C)CC2)c2c3cc(OCC[N+]4(C)CCCCC4)ccc3[nH]c21

>  <Energy>  (2) 
173.11048394221308

>  <Genealogy>  (2) 
C[n+]1c2ccccc2c(NCCN2CC[NH+](C)CC2)c2c3cc(OCC[N+]4(C)CCCCC4)ccc3[nH]c21 (protonated)
C[n+]1c2ccccc2c(NCCN2CC[NH+](C)CC2)c2c3cc(OCC[N+]4(C)CCCCC4)ccc3[nH]c21 (3D coordinates assigned)
C[n+]1c2ccccc2c(NCCN2CC[NH+](C)CC2)c2c3cc(OCC[N+]4(C)CCCCC4)ccc3[nH]c21 (nonaromatic ring conformer: 173.11048394221308 kcal/mol)

>  <smiles>  (2) 
CN1CCN(CCNc2c3ccccc3[n+](C)c3[nH]c4ccc(OCC[N+]5(C)CCCCC5)cc4c23)CC1

>  <score_type>  (2) 
oracle

>  <origin>  (2) 
adg

>  <m_score__min__energy>  (2) 
-5.4699999999999998

>  <m_primary>  (2) 
energy

$$$$
3:0
     RDKit          3D

 69 72  0  0  0  0  0  0  0  0999 V2000
   66.7770   31.3530   50.8810 C   0  0  0  0  0  0  0  0  0  0  0  0
   65.4480   30.7090   51.2570 C   0  0  0  0  0  0  0  0  0  0  0  0
   64.3980   31.3910   50.6000 O   0  0  0  0  0  0  0  0  0  0  0  0
   64.5620   32.7930   50.7210 C   0  0  0  0  0  0  0  0  0  0  0  0
   64.8160   33.4450   49.3540 C   0  0  0  0  0  0  0  0  0  0  0  0
   64.0690   32.8010   48.3390 O   0  0  0  0  0  0  0  0  0  0  0  0
   62.8220   33.4400   48.1030 C   0  0  1  0  0  0  0  0  0  0  0  0
   62.5500   33.4720   46.5970 C   0  0  0  0  0  0  0  0  0  0  0  0
   61.0750   33.1470   46.3900 C   0  0  0  0  0  0  0  0  0  0  0  0
   60.4620   32.9990   47.7860 C   0  0  1  0  0  0  0  0  0  0  0  0
   59.2010   32.0820   47.9380 C   0  0  1  0  0  0  0  0  0  0  0  0
   58.1190   32.3450   46.8660 C   0  0  0  0  0  0  0  0  0  0  0  0
   58.1240   31.3360   45.7100 C   0  0  2  0  0  0  0  0  0  0  0  0
   57.0150   31.6120   44.8650 O   0  0  0  0  0  0  0  0  0  0  0  0
   57.4120   31.6690   43.5100 C   0  0  0  0  0  0  0  0  0  0  0  0
   56.7130   30.5620   42.7380 C   0  0  0  0  0  0  0  0  0  0  0  0
   57.9630   29.9180   46.2770 C   0  0  1  0  0  0  0  0  0  0  0  0
   57.7500   28.9650   45.1950 N   0  0  0  0  0  0  0  0  0  0  0  0
   58.8360   28.3560   44.5060 C   0  0  0  0  0  0  0  0  0  0  0  0
   58.6010   27.5390   43.5750 O   0  0  0  0  0  0  0  0  0  0  0  0
   60.2490   28.6980   44.8540 C   0  0  0  0  0  0  0  0  0  0  0  0
   60.4510   29.2440   46.2910 C   0  0  0  0  0  0  0  0  0  0  0  0
   59.1730   29.4840   47.1590 C   0  0  2  0  0  0  0  0  0  0  0  0
   58.7860   28.1240   47.8220 C   0  0  0  0  0  0  0  0  0  0  0  0
   59.4100   30.5630   48.3010 C   0  0  1  0  0  0  0  0  0  0  0  0
   60.6690   30.3310   49.1860 C   0  0  0  0  0  0  0  0  0  0  0  0
   61.8990   31.1560   48.7870 C   0  0  0  0  0  0  0  0  0  0  0  0
   61.6270   32.6810   48.7430 C   0  0  1  0  0  0  0  0  0  0  0  0
   61.3420   33.2240   50.1670 C   0  0  0  0  0  0  0  0  0  0  0  0
   67.3270   31.6195   51.7956 H   0  0  0  0  0  0  0  0  0  0  0  0
   67.3733   30.6439   50.2880 H   0  0  0  0  0  0  0  0  0  0  0  0
   66.5900   32.2604   50.2880 H   0  0  0  0  0  0  0  0  0  0  0  0
   65.4506   29.6532   50.9485 H   0  0  0  0  0  0  0  0  0  0  0  0
   65.3033   30.7693   52.3458 H   0  0  0  0  0  0  0  0  0  0  0  0
   63.6499   33.2239   51.1596 H   0  0  0  0  0  0  0  0  0  0  0  0
   65.4324   32.9865   51.3651 H   0  0  0  0  0  0  0  0  0  0  0  0
   64.5220   34.5040   49.4002 H   0  0  0  0  0  0  0  0  0  0  0  0
   65.8856   33.3525   49.1146 H   0  0  0  0  0  0  0  0  0  0  0  0
   62.8978   34.4436   48.5470 H   0  0  0  0  0  0  0  0  0  0  0  0
   62.7740   34.4716   46.1962 H   0  0  0  0  0  0  0  0  0  0  0  0
   63.1845   32.7418   46.0734 H   0  0  0  0  0  0  0  0  0  0  0  0
   60.5796   33.9620   45.8419 H   0  0  0  0  0  0  0  0  0  0  0  0
   60.9494   32.2266   45.8009 H   0  0  0  0  0  0  0  0  0  0  0  0
   59.9804   33.9519   48.0509 H   0  0  0  0  0  0  0  0  0  0  0  0
   58.7947   32.4386   48.8960 H   0  0  0  0  0  0  0  0  0  0  0  0
   57.1336   32.3071   47.3533 H   0  0  0  0  0  0  0  0  0  0  0  0
   58.3390   33.3299   46.4283 H   0  0  0  0  0  0  0  0  0  0  0  0
   59.0673   31.4121   45.1493 H   0  0  0  0  0  0  0  0  0  0  0  0
   57.1344   32.6453   43.0859 H   0  0  0  0  0  0  0  0  0  0  0  0
   58.5019   31.5386   43.4382 H   0  0  0  0  0  0  0  0  0  0  0  0
   56.2631   29.8495   43.4451 H   0  0  0  0  0  0  0  0  0  0  0  0
   55.9256   30.9972   42.1051 H   0  0  0  0  0  0  0  0  0  0  0  0
   57.4444   30.0381   42.1051 H   0  0  0  0  0  0  0  0  0  0  0  0
   57.0800   29.9286   46.9329 H   0  0  0  0  0  0  0  0  0  0  0  0
   60.8580   27.7885   44.7448 H   0  0  0  0  0  0  0  0  0  0  0  0
   60.5492   29.5061   44.1707 H   0  0  0  0  0  0  0  0  0  0  0  0
   61.0852   28.5251   46.8304 H   0  0  0  0  0  0  0  0  0  0  0  0
   60.8867   30.2444   46.1517 H   0  0  0  0  0  0  0  0  0  0  0  0
   58.8156   28.2282   48.9167 H   0  0  0  0  0  0  0  0  0  0  0  0
   57.7710   27.8388   47.5082 H   0  0  0  0  0  0  0  0  0  0  0  0
   59.4987   27.3471   47.5082 H   0  0  0  0  0  0  0  0  0  0  0  0
   58.5369   30.3380   48.9311 H   0  0  0  0  0  0  0  0  0  0  0  0
   60.4088   30.5855   50.2240 H   0  0  0  0  0  0  0  0  0  0  0  0
   60.9490   29.2755   49.0539 H   0  0  0  0  0  0  0  0  0  0  0  0
   62.6992   30.9651   49.5173 H   0  0  0  0  0  0  0  0  0  0  0  0
   62.1828   30.8465   47.7703 H   0  0  0  0  0  0  0  0  0  0  0  0
   61.7173   32.5090   50.9140 H   0  0  0  0  0  0  0  0  0  0  0  0
   61.8485   34.1915   50.2987 H   0  0  0  0  0  0  0  0  0  0  0  0
   60.2580   33.3567   50.2987 H   0  0  0  0  0  0  0  0  0  0  0  0
  1  2  1  0
  2  3  1  0
  3  4  1  0
  4  5  1  0
  5  6  1  0
  6  7  1  0
  7  8  1  0
  8  9  1  0
  9 10  1  0
 10 11  1  0
 11 12  1  0
 12 13  1  0
 13 14  1  0
 14 15  1  0
 15 16  1  0
 13 17  1  0
 17 18  1  0
 18 19  1  0
 19 20  2  0
 19 21  1  0
 21 22  1  0
 22 23  1  0
 23 24  1  1
 23 25  1  0
 25 26  1  0
 26 27  1  0
 27 28  1  0
 28 29  1  1
 28  7  1  0
 28 10  1  0
 25 11  1  0
 23 17  1  0
  1 30  1  0
  1 31  1  0
  1 32  1  0
  2 33  1  0
  2 34  1  0
  4 35  1  0
  4 36  1  0
  5 37  1  0
  5 38  1  0
  7 39  1  1
  8 40  1  0
  8 41  1  0
  9 42  1  0
  9 43  1  0
 10 44  1  1
 11 45  1  1
 12 46  1  0
 12 47  1  0
 13 48  1  6
 15 49  1  0
 15 50  1  0
 16 51  1  0
 16 52  1  0
 16 53  1  0
 17 54  1  1
 21 55  1  0
 21 56  1  0
 22 57  1  0
 22 58  1  0
 24 59  1  0
 24 60  1  0
 24 61  1  0
 25 62  1  1
 26 63  1  0
 26 64  1  0
 27 65  1  0
 27 66  1  0
 29 67  1  0
 29 68  1  0
 29 69  1  0
M  CHG  1  18  -1
M  END
>  <UniqueID>  (3) 
3

>  <SMILES>  (3) 
CCOCCO[C@H]1CC[C@H]2C3CC(OCC)C4[N-]C(=O)CCC4(C)C3CCC12C

>  <Energy>  (3) 
99.00433056361084

>  <Genealogy>  (3) 
CCOCCOC1CCC2C3CC(OCC)C4[N-]C(=O)CCC4(C)C3CCC12C (protonated)
CCOCCO[C@H]1CC[C@H]2C3CC(OCC)C4[N-]C(=O)CCC4(C)C3CCC12C (chirality)
CCOCCO[C@H]1CC[C@H]2C3CC(OCC)C4[N-]C(=O)CCC4(C)C3CCC12C (3D coordinates assigned)
CCOCCO[C@H]1CC[C@H]2C3CC(OCC)C4[N-]C(=O)CCC4(C)C3CCC12C (nonaromatic ring conformer: 99.00433056361084 kcal/mol)

>  <smiles>  (3) 
CCOCCOC1CCC2C3CC(OCC)C4NC(=O)CCC4(C)C3CCC12C

>  <score_type>  (3) 
oracle

>  <origin>  (3) 
adg

>  <m_score__min__energy>  (3) 
-9.6600000000000001

>  <m_primary>  (3) 
energy

$$$$
4:0
     RDKit          3D

 29 30  0  0  0  0  0  0  0  0999 V2000
   55.5590   29.8030   44.1040 C   0  0  0  0  0  0  0  0  0  0  0  0
   56.9130   29.1180   44.2980 C   0  0  0  0  0  0  0  0  0  0  0  0
   58.0120   29.8390   43.6270 N   0  0  0  0  0  0  0  0  0  0  0  0
   58.2490   31.1350   44.2290 C   0  0  0  0  0  0  0  0  0  0  0  0
   58.6150   31.2030   45.5870 C   0  0  0  0  0  0  0  0  0  0  0  0
   58.8350   32.4360   46.2130 C   0  0  0  0  0  0  0  0  0  0  0  0
   59.1920   32.5000   47.5670 C   0  0  0  0  0  0  0  0  0  0  0  0
   59.4060   33.7450   48.1600 C   0  0  0  0  0  0  0  0  0  0  0  0
   59.2700   34.8840   47.4300 N   0  0  0  0  0  0  0  0  0  0  0  0
   58.9240   34.8550   46.1150 C   0  0  0  0  0  0  0  0  0  0  0  0
   58.6970   33.6280   45.4750 C   0  0  0  0  0  0  0  0  0  0  0  0
   58.3420   33.5740   44.1220 C   0  0  0  0  0  0  0  0  0  0  0  0
   58.1080   32.3400   43.4890 C   0  0  0  0  0  0  0  0  0  0  0  0
   57.7810   32.3340   42.0180 C   0  0  0  0  0  0  0  0  0  0  0  0
   55.1171   30.0266   45.0862 H   0  0  0  0  0  0  0  0  0  0  0  0
   55.6986   30.7389   43.5431 H   0  0  0  0  0  0  0  0  0  0  0  0
   54.8877   29.1361   43.5431 H   0  0  0  0  0  0  0  0  0  0  0  0
   57.1309   29.0659   45.3749 H   0  0  0  0  0  0  0  0  0  0  0  0
   56.8479   28.1156   43.8497 H   0  0  0  0  0  0  0  0  0  0  0  0
   57.7770   29.9510   42.6150 H   0  0  0  0  0  0  0  0  0  0  0  0
   58.8850   29.2610   43.6540 H   0  0  0  0  0  0  0  0  0  0  0  0
   58.7298   30.2739   46.1645 H   0  0  0  0  0  0  0  0  0  0  0  0
   59.3024   31.5778   48.1564 H   0  0  0  0  0  0  0  0  0  0  0  0
   59.6858   33.8051   49.2221 H   0  0  0  0  0  0  0  0  0  0  0  0
   58.8221   35.7950   45.5528 H   0  0  0  0  0  0  0  0  0  0  0  0
   58.2450   34.5070   43.5475 H   0  0  0  0  0  0  0  0  0  0  0  0
   56.6892   32.3140   41.8852 H   0  0  0  0  0  0  0  0  0  0  0  0
   58.1911   33.2398   41.5475 H   0  0  0  0  0  0  0  0  0  0  0  0
   58.2240   31.4438   41.5475 H   0  0  0  0  0  0  0  0  0  0  0  0
  1  2  1  0
  2  3  1  0
  3  4  1  0
  4  5  2  0
  5  6  1  0
  6  7  2  0
  7  8  1  0
  8  9  2  0
  9 10  1  0
 10 11  2  0
 11 12  1  0
 12 13  2  0
 13 14  1  0
 13  4  1  0
 11  6  1  0
  1 15  1  0
  1 16  1  0
  1 17  1  0
  2 18  1  0
  2 19  1  0
  3 20  1  0
  3 21  1  0
  5 22  1  0
  7 23  1  0
  8 24  1  0
 10 25  1  0
 12 26  1  0
 14 27  1  0
 14 28  1  0
 14 29  1  0
M  CHG  1   3   1
M  END
>  <UniqueID>  (4) 
4

>  <SMILES>  (4) 
CC[NH2+]c1cc2ccncc2cc1C

>  <Energy>  (4) 
33.55169568662811

>  <Genealogy>  (4) 
CC[NH2+]c1cc2ccncc2cc1C (protonated)
CC[NH2+]c1cc2ccncc2cc1C (3D coordinates assigned)
CC[NH2+]c1cc2ccncc2cc1C (optimized conformer: 33.55169568662811 kcal/mol)

>  <smiles>  (4) 
CCNc1cc2ccncc2cc1C

>  <score_type>  (4) 
oracle

>  <origin>  (4) 
adg

>  <m_score__min__energy>  (4) 
-4.3300000000000001

>  <m_primary>  (4) 
energy

$$$$
5:0
     RDKit          3D

 46 48  0  0  0  0  0  0  0  0999 V2000
   57.6820   28.7010   44.0960 C   0  0  0  0  0  0  0  0  0  0  0  0
   56.9550   29.9330   43.5660 C   0  0  0  0  0  0  0  0  0  0  0  0
   56.6200   30.8220   44.6320 O   0  0  0  0  0  0  0  0  0  0  0  0
   57.3990   31.9050   45.0740 C   0  0  0  0  0  0  0  0  0  0  0  0
   57.4010   33.1510   44.4150 C   0  0  0  0  0  0  0  0  0  0  0  0
   58.1880   34.2000   44.8910 C   0  0  0  0  0  0  0  0  0  0  0  0
   58.9880   34.0260   46.0260 C   0  0  0  0  0  0  0  0  0  0  0  0
   59.8730   35.1400   46.5190 C   0  0  0  0  0  0  0  0  0  0  0  0
   60.4850   34.7830   47.8000 N   0  0  0  0  0  0  0  0  0  0  0  0
   61.5570   33.8300   47.9330 C   0  0  0  0  0  0  0  0  0  0  0  0
   62.5910   33.8430   46.9840 C   0  0  0  0  0  0  0  0  0  0  0  0
   63.6620   32.9520   47.0810 C   0  0  0  0  0  0  0  0  0  0  0  0
   63.7140   32.0250   48.1240 C   0  0  0  0  0  0  0  0  0  0  0  0
   62.6830   31.9770   49.0720 C   0  0  0  0  0  0  0  0  0  0  0  0
   62.7060   31.0400   50.1140 C   0  0  0  0  0  0  0  0  0  0  0  0
   61.6570   30.9970   51.0330 C   0  0  0  0  0  0  0  0  0  0  0  0
   60.5920   31.8900   50.8990 C   0  0  0  0  0  0  0  0  0  0  0  0
   60.5830   32.7960   49.8870 N   0  0  0  0  0  0  0  0  0  0  0  0
   61.5940   32.8790   48.9790 C   0  0  0  0  0  0  0  0  0  0  0  0
   59.0000   32.7840   46.6790 C   0  0  0  0  0  0  0  0  0  0  0  0
   58.2030   31.7210   46.2100 C   0  0  0  0  0  0  0  0  0  0  0  0
   58.1870   30.4600   46.8330 O   0  0  0  0  0  0  0  0  0  0  0  0
   59.3190   29.7890   47.3890 C   0  0  0  0  0  0  0  0  0  0  0  0
   60.4760   29.7650   46.3950 C   0  0  0  0  0  0  0  0  0  0  0  0
   57.6736   28.7152   45.1959 H   0  0  0  0  0  0  0  0  0  0  0  0
   57.1748   27.7933   43.7371 H   0  0  0  0  0  0  0  0  0  0  0  0
   58.7218   28.7062   43.7371 H   0  0  0  0  0  0  0  0  0  0  0  0
   57.6068   30.4566   42.8512 H   0  0  0  0  0  0  0  0  0  0  0  0
   56.0269   29.6094   43.0721 H   0  0  0  0  0  0  0  0  0  0  0  0
   56.7783   33.2971   43.5201 H   0  0  0  0  0  0  0  0  0  0  0  0
   58.1797   35.1694   44.3712 H   0  0  0  0  0  0  0  0  0  0  0  0
   60.6654   35.3265   45.7792 H   0  0  0  0  0  0  0  0  0  0  0  0
   59.2616   36.0439   46.6576 H   0  0  0  0  0  0  0  0  0  0  0  0
   59.9540   35.0390   48.6630 H   0  0  0  0  0  0  0  0  0  0  0  0
   62.5574   34.5638   46.1537 H   0  0  0  0  0  0  0  0  0  0  0  0
   64.4678   32.9806   46.3328 H   0  0  0  0  0  0  0  0  0  0  0  0
   64.5647   31.3320   48.2016 H   0  0  0  0  0  0  0  0  0  0  0  0
   63.5493   30.3399   50.2071 H   0  0  0  0  0  0  0  0  0  0  0  0
   61.6689   30.2665   51.8553 H   0  0  0  0  0  0  0  0  0  0  0  0
   59.7577   31.8597   51.6152 H   0  0  0  0  0  0  0  0  0  0  0  0
   59.6368   32.6391   47.5642 H   0  0  0  0  0  0  0  0  0  0  0  0
   59.6379   30.3147   48.3011 H   0  0  0  0  0  0  0  0  0  0  0  0
   59.0345   28.7528   47.6243 H   0  0  0  0  0  0  0  0  0  0  0  0
   61.4297   29.7452   46.9428 H   0  0  0  0  0  0  0  0  0  0  0  0
   60.3977   28.8683   45.7627 H   0  0  0  0  0  0  0  0  0  0  0  0
   60.4349   30.6642   45.7627 H   0  0  0  0  0  0  0  0  0  0  0  0
  1  2  1  0
  2  3  1  0
  3  4  1  0
  4  5  2  0
  5  6  1  0
  6  7  2  0
  7  8  1  0
  8  9  1  0
  9 10  1  0
 10 11  2  0
 11 12  1  0
 12 13  2  0
 13 14  1  0
 14 15  2  0
 15 16  1  0
 16 17  2  0
 17 18  1  0
 18 19  2  0
  7 20  1  0
 20 21  2  0
 21 22  1  0
 22 23  1  0
 23 24  1  0
 21  4  1  0
 19 10  1  0
 19 14  1  0
  1 25  1  0
  1 26  1  0
  1 27  1  0
  2 28  1  0
  2 29  1  0
  5 30  1  0
  6 31  1  0
  8 32  1  0
  8 33  1  0
  9 34  1  0
 11 35  1  0
 12 36  1  0
 13 37  1  0
 15 38  1  0
 16 39  1  0
 17 40  1  0
 20 41  1  0
 23 42  1  0
 23 43  1  0
 24 44  1  0
 24 45  1  0
 24 46  1  0
M  END
>  <UniqueID>  (5) 
5

>  <SMILES>  (5) 
CCOc1ccc(CNc2cccc3cccnc23)cc1OCC

>  <Energy>  (5) 
49.366080141065595

>  <Genealogy>  (5) 
CCOc1ccc(CNc2cccc3cccnc23)cc1OCC (3D coordinates assigned)
CCOc1ccc(CNc2cccc3cccnc23)cc1OCC (optimized conformer: 49.366080141065595 kcal/mol)

>  <smiles>  (5) 
CCOc1ccc(CNc2cccc3cccnc23)cc1OCC

>  <score_type>  (5) 
oracle

>  <origin>  (5) 
adg

>  <m_score__min__energy>  (5) 
-8.4900000000000002

>  <m_primary>  (5) 
energy

$$$$
6:0
     RDKit          3D

 42 44  0  0  0  0  0  0  0  0999 V2000
   56.8366   32.9478   46.5746 H   0  0  0  0  0  0  0  0  0  0  0  0
   57.5140   32.3230   45.9740 C   0  0  0  0  0  0  0  0  0  0  0  0
   57.0520   31.7900   44.8830 N   0  0  0  0  0  0  0  0  0  0  0  0
   56.3970   30.5780   44.8540 O   0  0  0  0  0  0  0  0  0  0  0  0
   55.9110   30.0510   43.6300 C   0  0  0  0  0  0  0  0  0  0  0  0
   55.6838   30.8768   42.9397 H   0  0  0  0  0  0  0  0  0  0  0  0
   54.9970   29.4688   43.8187 H   0  0  0  0  0  0  0  0  0  0  0  0
   56.9680   29.1490   43.0110 C   0  0  0  0  0  0  0  0  0  0  0  0
   57.5438   28.6576   43.8091 H   0  0  0  0  0  0  0  0  0  0  0  0
   56.4793   28.3854   42.3881 H   0  0  0  0  0  0  0  0  0  0  0  0
   57.6453   29.7517   42.3881 H   0  0  0  0  0  0  0  0  0  0  0  0
   58.9070   32.1350   46.4550 C   0  0  0  0  0  0  0  0  0  0  0  0
   59.8410   33.1070   46.2680 N   0  0  0  0  0  0  0  0  0  0  0  0
   61.1200   32.9640   46.6970 C   0  0  0  0  0  0  0  0  0  0  0  0
   62.0550   33.9830   46.4900 C   0  0  0  0  0  0  0  0  0  0  0  0
   61.7547   34.9113   45.9820 H   0  0  0  0  0  0  0  0  0  0  0  0
   63.3730   33.8200   46.9300 C   0  0  0  0  0  0  0  0  0  0  0  0
   64.1091   34.6214   46.7686 H   0  0  0  0  0  0  0  0  0  0  0  0
   63.7560   32.6390   47.5750 C   0  0  0  0  0  0  0  0  0  0  0  0
   64.7933   32.5141   47.9191 H   0  0  0  0  0  0  0  0  0  0  0  0
   62.8240   31.6160   47.7840 C   0  0  0  0  0  0  0  0  0  0  0  0
   63.1297   30.6878   48.2889 H   0  0  0  0  0  0  0  0  0  0  0  0
   61.4990   31.7750   47.3490 C   0  0  0  0  0  0  0  0  0  0  0  0
   60.5730   30.7950   47.5380 N   0  0  0  0  0  0  0  0  0  0  0  0
   60.8630   29.8980   47.9880 H   0  0  0  0  0  0  0  0  0  0  0  0
   59.2800   30.9530   47.1240 C   0  0  0  0  0  0  0  0  0  0  0  0
   58.3340   29.9350   47.3200 O   0  0  0  0  0  0  0  0  0  0  0  0
   58.4950   28.5960   46.9390 C   0  0  0  0  0  0  0  0  0  0  0  0
   57.6920   28.0120   45.9410 C   0  0  0  0  0  0  0  0  0  0  0  0
   56.9075   28.6076   45.4513 H   0  0  0  0  0  0  0  0  0  0  0  0
   57.8870   26.6800   45.5700 C   0  0  0  0  0  0  0  0  0  0  0  0
   57.2506   26.2264   44.7959 H   0  0  0  0  0  0  0  0  0  0  0  0
   58.8880   25.9240   46.1800 C   0  0  0  0  0  0  0  0  0  0  0  0
   59.0354   24.8731   45.8904 H   0  0  0  0  0  0  0  0  0  0  0  0
   59.7030   26.4980   47.1570 C   0  0  0  0  0  0  0  0  0  0  0  0
   60.4952   25.8990   47.6299 H   0  0  0  0  0  0  0  0  0  0  0  0
   59.5160   27.8420   47.5410 C   0  0  0  0  0  0  0  0  0  0  0  0
   60.3170   28.4590   48.5140 O   0  0  0  0  0  0  0  0  0  0  0  0
   60.7680   27.8240   49.7070 C   0  0  0  0  0  0  0  0  0  0  0  0
   60.3812   28.3686   50.5810 H   0  0  0  0  0  0  0  0  0  0  0  0
   60.4032   26.7865   49.7306 H   0  0  0  0  0  0  0  0  0  0  0  0
   61.8677   27.8266   49.7306 H   0  0  0  0  0  0  0  0  0  0  0  0
  1  2  1  0
  2  3  2  0
  3  4  1  0
  4  5  1  0
  5  6  1  0
  5  7  1  0
  5  8  1  0
  8  9  1  0
  8 10  1  0
  8 11  1  0
  2 12  1  0
 12 13  2  0
 13 14  1  0
 14 15  2  0
 15 16  1  0
 15 17  1  0
 17 18  1  0
 17 19  2  0
 19 20  1  0
 19 21  1  0
 21 22  1  0
 21 23  2  0
 23 24  1  0
 24 25  1  0
 24 26  2  0
 26 27  1  0
 27 28  1  0
 28 29  2  0
 29 30  1  0
 29 31  1  0
 31 32  1  0
 31 33  2  0
 33 34  1  0
 33 35  1  0
 35 36  1  0
 35 37  2  0
 37 38  1  0
 38 39  1  0
 39 40  1  0
 39 41  1  0
 39 42  1  0
 26 12  1  0
 37 28  1  0
 23 14  1  0
M  CHG  1  24   1
M  END
>  <UniqueID>  (6) 
6

>  <SMILES>  (6) 
CCO/N=C\c1nc2ccccc2[nH+]c1Oc1ccccc1OC

>  <Energy>  (6) 
48.17002045618902

>  <Genealogy>  (6) 
CCON=Cc1nc2ccccc2[nH+]c1Oc1ccccc1OC (protonated)
CCO/N=C\c1nc2ccccc2[nH+]c1Oc1ccccc1OC (cis-trans isomerization)
CCO/N=C\c1nc2ccccc2[nH+]c1Oc1ccccc1OC (3D coordinates assigned)
CCO/N=C\c1nc2ccccc2[nH+]c1Oc1ccccc1OC (optimized conformer: 48.17002045618902 kcal/mol)

>  <smiles>  (6) 
CCON=Cc1nc2ccccc2nc1Oc1ccccc1OC

>  <score_type>  (6) 
oracle

>  <origin>  (6) 
adg

>  <m_score__min__energy>  (6) 
-5.0999999999999996

>  <m_primary>  (6) 
energy

$$$$
7:0
     RDKit          3D

 36 37  0  0  0  0  0  0  0  0999 V2000
   55.8500   23.7200   43.9280 C   0  0  0  0  0  0  0  0  0  0  0  0
   55.8040   24.1750   45.3840 C   0  0  0  0  0  0  0  0  0  0  0  0
   54.6580   25.1560   45.6220 C   0  0  0  0  0  0  0  0  0  0  0  0
   55.1990   26.4610   45.9760 N   0  0  0  0  0  0  0  0  0  0  0  0
   56.5930   26.7760   46.0890 C   0  0  0  0  0  0  0  0  0  0  0  0
   57.1480   26.6510   47.2130 O   0  0  0  0  0  0  0  0  0  0  0  0
   57.4060   27.2770   44.9230 C   0  0  0  0  0  0  0  0  0  0  0  0
   57.3050   28.7380   44.8260 N   0  0  0  0  0  0  0  0  0  0  0  0
   56.1940   29.3680   44.3650 C   0  0  0  0  0  0  0  0  0  0  0  0
   56.2220   30.7120   44.5250 N   0  0  0  0  0  0  0  0  0  0  0  0
   57.4070   30.9160   45.1200 C   0  0  0  0  0  0  0  0  0  0  0  0
   57.9430   32.1200   45.5330 C   0  0  0  0  0  0  0  0  0  0  0  0
   57.3090   33.1930   45.3390 O   0  0  0  0  0  0  0  0  0  0  0  0
   59.1670   32.1110   46.1550 N   0  0  0  0  0  0  0  0  0  0  0  0
   59.7730   33.3800   46.5940 C   0  0  0  0  0  0  0  0  0  0  0  0
   59.8660   30.9260   46.2990 C   0  0  0  0  0  0  0  0  0  0  0  0
   61.0180   30.9520   46.8190 O   0  0  0  0  0  0  0  0  0  0  0  0
   59.3290   29.7220   45.8740 N   0  0  0  0  0  0  0  0  0  0  0  0
   60.1260   28.4890   45.9590 C   0  0  0  0  0  0  0  0  0  0  0  0
   58.0760   29.7490   45.3100 C   0  0  0  0  0  0  0  0  0  0  0  0
   55.9606   22.6263   43.8890 H   0  0  0  0  0  0  0  0  0  0  0  0
   54.9177   24.0126   43.4228 H   0  0  0  0  0  0  0  0  0  0  0  0
   56.7049   24.1932   43.4228 H   0  0  0  0  0  0  0  0  0  0  0  0
   55.6633   23.2959   46.0300 H   0  0  0  0  0  0  0  0  0  0  0  0
   56.7509   24.6829   45.6195 H   0  0  0  0  0  0  0  0  0  0  0  0
   54.0560   25.2453   44.7057 H   0  0  0  0  0  0  0  0  0  0  0  0
   54.0255   24.7873   46.4430 H   0  0  0  0  0  0  0  0  0  0  0  0
   58.4593   26.9942   45.0661 H   0  0  0  0  0  0  0  0  0  0  0  0
   57.0195   26.8279   43.9962 H   0  0  0  0  0  0  0  0  0  0  0  0
   55.3491   28.8354   43.9040 H   0  0  0  0  0  0  0  0  0  0  0  0
   59.7906   33.4170   47.6932 H   0  0  0  0  0  0  0  0  0  0  0  0
   60.8009   33.4483   46.2083 H   0  0  0  0  0  0  0  0  0  0  0  0
   59.1799   34.2223   46.2083 H   0  0  0  0  0  0  0  0  0  0  0  0
   60.2922   28.2319   47.0155 H   0  0  0  0  0  0  0  0  0  0  0  0
   59.5867   27.6688   45.4625 H   0  0  0  0  0  0  0  0  0  0  0  0
   61.0953   28.6440   45.4625 H   0  0  0  0  0  0  0  0  0  0  0  0
  1  2  1  0
  2  3  1  0
  3  4  1  0
  4  5  1  0
  5  6  2  0
  5  7  1  0
  7  8  1  0
  8  9  1  0
  9 10  2  0
 10 11  1  0
 11 12  1  0
 12 13  2  0
 12 14  1  0
 14 15  1  0
 14 16  1  0
 16 17  2  0
 16 18  1  0
 18 19  1  0
 18 20  1  0
 20  8  1  0
 20 11  2  0
  1 21  1  0
  1 22  1  0
  1 23  1  0
  2 24  1  0
  2 25  1  0
  3 26  1  0
  3 27  1  0
  7 28  1  0
  7 29  1  0
  9 30  1  0
 15 31  1  0
 15 32  1  0
 15 33  1  0
 19 34  1  0
 19 35  1  0
 19 36  1  0
M  CHG  1   4  -1
M  END
>  <UniqueID>  (7) 
7

>  <SMILES>  (7) 
CCC[N-]C(=O)Cn1cnc2c(=O)n(C)c(=O)n(C)c21

>  <Energy>  (7) 
80.4588336597848

>  <Genealogy>  (7) 
CCC[N-]C(=O)Cn1cnc2c(=O)n(C)c(=O)n(C)c21 (protonated)
CCC[N-]C(=O)Cn1cnc2c(=O)n(C)c(=O)n(C)c21 (3D coordinates assigned)
CCC[N-]C(=O)Cn1cnc2c(=O)n(C)c(=O)n(C)c21 (optimized conformer: 80.4588336597848 kcal/mol)

>  <smiles>  (7) 
CCCNC(=O)Cn1cnc2c(=O)n(C)c(=O)n(C)c21

>  <score_type>  (7) 
oracle

>  <origin>  (7) 
adg

>  <m_score__min__energy>  (7) 
-8.0500000000000007

>  <m_primary>  (7) 
energy

$$$$
8:0
     RDKit          3D

 58 60  0  0  0  0  0  0  0  0999 V2000
   55.8280   29.0720   53.0870 C   0  0  0  0  0  0  0  0  0  0  0  0
   57.1370   29.3330   52.3540 C   0  0  0  0  0  0  0  0  0  0  0  0
   56.9860   30.4790   51.4470 N   0  0  0  0  0  0  0  0  0  0  0  0
   56.6090   31.7010   52.1770 C   0  0  0  0  0  0  0  0  0  0  0  0
   57.8530   32.3890   52.7370 C   0  0  0  0  0  0  0  0  0  0  0  0
   58.9870   32.0270   51.9770 O   0  0  0  0  0  0  0  0  0  0  0  0
   59.6350   33.1910   51.5110 C   0  0  0  0  0  0  0  0  0  0  0  0
   59.8360   33.0930   50.0000 C   0  0  0  0  0  0  0  0  0  0  0  0
   58.8340   32.2200   49.3870 N   0  0  0  0  0  0  0  0  0  0  0  0
   58.8650   31.9210   47.9810 C   0  0  0  0  0  0  0  0  0  0  0  0
   58.9790   32.9730   47.0540 C   0  0  0  0  0  0  0  0  0  0  0  0
   59.2820   34.2840   47.4790 C   0  0  0  0  0  0  0  0  0  0  0  0
   59.4240   35.3180   46.5560 C   0  0  0  0  0  0  0  0  0  0  0  0
   59.2870   35.0600   45.1960 C   0  0  0  0  0  0  0  0  0  0  0  0
   58.9930   33.7710   44.7540 C   0  0  0  0  0  0  0  0  0  0  0  0
   58.8100   32.7050   45.6720 C   0  0  0  0  0  0  0  0  0  0  0  0
   58.4880   31.4310   45.2520 N   0  0  0  0  0  0  0  0  0  0  0  0
   57.9840   31.2160   43.8770 C   0  0  0  0  0  0  0  0  0  0  0  0
   58.6250   30.3630   46.1190 C   0  0  0  0  0  0  0  0  0  0  0  0
   58.6170   29.0300   45.6410 C   0  0  0  0  0  0  0  0  0  0  0  0
   58.7110   27.9400   46.5130 C   0  0  0  0  0  0  0  0  0  0  0  0
   58.6840   26.6090   46.0660 O   0  0  0  0  0  0  0  0  0  0  0  0
   58.0210   26.1640   44.8870 C   0  0  0  0  0  0  0  0  0  0  0  0
   58.8450   28.1680   47.8760 C   0  0  0  0  0  0  0  0  0  0  0  0
   58.9120   29.4720   48.3950 C   0  0  0  0  0  0  0  0  0  0  0  0
   59.1180   29.6750   49.7700 O   0  0  0  0  0  0  0  0  0  0  0  0
   60.3270   29.3940   50.4700 C   0  0  0  0  0  0  0  0  0  0  0  0
   58.7980   30.5860   47.5150 C   0  0  0  0  0  0  0  0  0  0  0  0
   56.0024   29.1068   54.1725 H   0  0  0  0  0  0  0  0  0  0  0  0
   55.0924   29.8412   52.8090 H   0  0  0  0  0  0  0  0  0  0  0  0
   55.4436   28.0795   52.8090 H   0  0  0  0  0  0  0  0  0  0  0  0
   57.9277   29.5505   53.0871 H   0  0  0  0  0  0  0  0  0  0  0  0
   57.4061   28.4420   51.7678 H   0  0  0  0  0  0  0  0  0  0  0  0
   57.9160   30.6440   50.9920 H   0  0  0  0  0  0  0  0  0  0  0  0
   56.0918   32.3883   51.4914 H   0  0  0  0  0  0  0  0  0  0  0  0
   55.9445   31.4294   53.0104 H   0  0  0  0  0  0  0  0  0  0  0  0
   57.7175   33.4797   52.6926 H   0  0  0  0  0  0  0  0  0  0  0  0
   58.0015   32.0743   53.7805 H   0  0  0  0  0  0  0  0  0  0  0  0
   59.0176   34.0716   51.7422 H   0  0  0  0  0  0  0  0  0  0  0  0
   60.6130   33.2883   52.0049 H   0  0  0  0  0  0  0  0  0  0  0  0
   59.7523   34.0982   49.5612 H   0  0  0  0  0  0  0  0  0  0  0  0
   60.8320   32.6672   49.8086 H   0  0  0  0  0  0  0  0  0  0  0  0
   58.1910   31.6720   50.0030 H   0  0  0  0  0  0  0  0  0  0  0  0
   59.4076   34.4921   48.5518 H   0  0  0  0  0  0  0  0  0  0  0  0
   59.6444   36.3384   46.9028 H   0  0  0  0  0  0  0  0  0  0  0  0
   59.4109   35.8750   44.4676 H   0  0  0  0  0  0  0  0  0  0  0  0
   58.9013   33.5771   43.6751 H   0  0  0  0  0  0  0  0  0  0  0  0
   56.9730   30.7847   43.9203 H   0  0  0  0  0  0  0  0  0  0  0  0
   57.9498   32.1779   43.3444 H   0  0  0  0  0  0  0  0  0  0  0  0
   58.6546   30.5256   43.3444 H   0  0  0  0  0  0  0  0  0  0  0  0
   58.5350   28.8474   44.5594 H   0  0  0  0  0  0  0  0  0  0  0  0
   57.1373   25.5709   45.1650 H   0  0  0  0  0  0  0  0  0  0  0  0
   57.7062   27.0344   44.2926 H   0  0  0  0  0  0  0  0  0  0  0  0
   58.7073   25.5429   44.2926 H   0  0  0  0  0  0  0  0  0  0  0  0
   58.8998   27.3108   48.5632 H   0  0  0  0  0  0  0  0  0  0  0  0
   60.1419   29.4370   51.5535 H   0  0  0  0  0  0  0  0  0  0  0  0
   60.6829   28.3892   50.1984 H   0  0  0  0  0  0  0  0  0  0  0  0
   61.0895   30.1389   50.1984 H   0  0  0  0  0  0  0  0  0  0  0  0
  1  2  1  0
  2  3  1  0
  3  4  1  0
  4  5  1  0
  5  6  1  0
  6  7  1  0
  7  8  1  0
  8  9  1  0
  9 10  1  0
 10 11  2  0
 11 12  1  0
 12 13  2  0
 13 14  1  0
 14 15  2  0
 15 16  1  0
 16 17  2  0
 17 18  1  0
 17 19  1  0
 19 20  2  0
 20 21  1  0
 21 22  1  0
 22 23  1  0
 21 24  2  0
 24 25  1  0
 25 26  1  0
 26 27  1  0
 25 28  2  0
 28 10  1  0
 16 11  1  0
 28 19  1  0
  1 29  1  0
  1 30  1  0
  1 31  1  0
  2 32  1  0
  2 33  1  0
  3 34  1  0
  4 35  1  0
  4 36  1  0
  5 37  1  0
  5 38  1  0
  7 39  1  0
  7 40  1  0
  8 41  1  0
  8 42  1  0
  9 43  1  0
 12 44  1  0
 13 45  1  0
 14 46  1  0
 15 47  1  0
 18 48  1  0
 18 49  1  0
 18 50  1  0
 20 51  1  0
 23 52  1  0
 23 53  1  0
 23 54  1  0
 24 55  1  0
 27 56  1  0
 27 57  1  0
 27 58  1  0
M  CHG  1  17   1
M  END
>  <UniqueID>  (8) 
8

>  <SMILES>  (8) 
CCNCCOCCNc1c2ccccc2[n+](C)c2cc(OC)cc(OC)c12

>  <Energy>  (8) 
80.4761610223592

>  <Genealogy>  (8) 
CCNCCOCCNc1c2ccccc2[n+](C)c2cc(OC)cc(OC)c12 (3D coordinates assigned)
CCNCCOCCNc1c2ccccc2[n+](C)c2cc(OC)cc(OC)c12 (optimized conformer: 80.4761610223592 kcal/mol)

>  <smiles>  (8) 
CCNCCOCCNc1c2ccccc2[n+](C)c2cc(OC)cc(OC)c12

>  <score_type>  (8) 
oracle

>  <origin>  (8) 
adg

>  <m_score__min__energy>  (8) 
-4.9800000000000004

>  <m_primary>  (8) 
energy

$$$$
9:0
     RDKit          3D

 36 38  0  0  0  0  0  0  0  0999 V2000
   54.0920   22.1870   49.6670 C   0  0  0  0  0  0  0  0  0  0  0  0
   55.4410   21.4880   49.7330 C   0  0  0  0  0  0  0  0  0  0  0  0
   55.9400   21.3120   48.4200 O   0  0  0  0  0  0  0  0  0  0  0  0
   56.8740   22.2790   48.1410 N   0  0  0  0  0  0  0  0  0  0  0  0
   57.2070   22.2190   46.7180 C   0  0  0  0  0  0  0  0  0  0  0  0
   57.7440   23.5490   46.2640 C   0  0  0  0  0  0  0  0  0  0  0  0
   59.1170   23.7160   46.0420 C   0  0  0  0  0  0  0  0  0  0  0  0
   59.6230   24.9580   45.6540 C   0  0  0  0  0  0  0  0  0  0  0  0
   58.7640   26.0550   45.4930 C   0  0  0  0  0  0  0  0  0  0  0  0
   59.2760   27.2970   45.1050 C   0  0  0  0  0  0  0  0  0  0  0  0
   58.4270   28.4000   44.9460 C   0  0  0  0  0  0  0  0  0  0  0  0
   58.9610   29.6380   44.5560 C   0  0  0  0  0  0  0  0  0  0  0  0
   58.1290   30.7440   44.3950 C   0  0  0  0  0  0  0  0  0  0  0  0
   56.7580   30.6280   44.6210 C   0  0  0  0  0  0  0  0  0  0  0  0
   56.2030   29.4050   45.0100 C   0  0  0  0  0  0  0  0  0  0  0  0
   54.8300   29.3430   45.2240 O   0  0  0  0  0  0  0  0  0  0  0  0
   57.0320   28.2690   45.1800 C   0  0  0  0  0  0  0  0  0  0  0  0
   56.5150   27.0100   45.5730 C   0  0  0  0  0  0  0  0  0  0  0  0
   55.1510   26.8490   45.8100 O   0  0  0  0  0  0  0  0  0  0  0  0
   57.3770   25.9040   45.7290 C   0  0  0  0  0  0  0  0  0  0  0  0
   56.8810   24.6460   46.1200 C   0  0  0  0  0  0  0  0  0  0  0  0
   53.7268   22.3762   50.6872 H   0  0  0  0  0  0  0  0  0  0  0  0
   54.1999   23.1426   49.1330 H   0  0  0  0  0  0  0  0  0  0  0  0
   53.3735   21.5477   49.1330 H   0  0  0  0  0  0  0  0  0  0  0  0
   56.1449   22.1013   50.3147 H   0  0  0  0  0  0  0  0  0  0  0  0
   55.3254   20.5077   50.2184 H   0  0  0  0  0  0  0  0  0  0  0  0
   57.7470   22.2140   48.7240 H   0  0  0  0  0  0  0  0  0  0  0  0
   57.9684   21.4423   46.5535 H   0  0  0  0  0  0  0  0  0  0  0  0
   56.3010   21.9775   46.1428 H   0  0  0  0  0  0  0  0  0  0  0  0
   59.8001   22.8640   46.1741 H   0  0  0  0  0  0  0  0  0  0  0  0
   60.7016   25.0769   45.4735 H   0  0  0  0  0  0  0  0  0  0  0  0
   60.3550   27.4090   44.9230 H   0  0  0  0  0  0  0  0  0  0  0  0
   60.0419   29.7356   44.3765 H   0  0  0  0  0  0  0  0  0  0  0  0
   58.5548   31.7110   44.0889 H   0  0  0  0  0  0  0  0  0  0  0  0
   56.1077   31.5058   44.4922 H   0  0  0  0  0  0  0  0  0  0  0  0
   55.8055   24.5216   46.3147 H   0  0  0  0  0  0  0  0  0  0  0  0
  1  2  1  0
  2  3  1  0
  3  4  1  0
  4  5  1  0
  5  6  1  0
  6  7  2  0
  7  8  1  0
  8  9  2  0
  9 10  1  0
 10 11  2  0
 11 12  1  0
 12 13  2  0
 13 14  1  0
 14 15  2  0
 15 16  1  0
 15 17  1  0
 17 18  2  0
 18 19  1  0
 18 20  1  0
 20 21  2  0
 21  6  1  0
 20  9  1  0
 17 11  1  0
  1 22  1  0
  1 23  1  0
  1 24  1  0
  2 25  1  0
  2 26  1  0
  4 27  1  0
  5 28  1  0
  5 29  1  0
  7 30  1  0
  8 31  1  0
 10 32  1  0
 12 33  1  0
 13 34  1  0
 14 35  1  0
 21 36  1  0
M  CHG  2  16  -1  19  -1
M  END
>  <UniqueID>  (9) 
9

>  <SMILES>  (9) 
CCONCc1ccc2cc3cccc([O-])c3c([O-])c2c1

>  <Energy>  (9) 
49.53484962848014

>  <Genealogy>  (9) 
CCONCc1ccc2cc3cccc([O-])c3c([O-])c2c1 (protonated)
CCONCc1ccc2cc3cccc([O-])c3c([O-])c2c1 (3D coordinates assigned)
CCONCc1ccc2cc3cccc([O-])c3c([O-])c2c1 (optimized conformer: 49.53484962848014 kcal/mol)

>  <smiles>  (9) 
CCONCc1ccc2cc3cccc(O)c3c(O)c2c1

>  <score_type>  (9) 
oracle

>  <origin>  (9) 
adg

>  <m_score__min__energy>  (9) 
-13.800000000000001

>  <m_primary>  (9) 
energy

$$$$
10:0
     RDKit          3D

 52 54  0  0  0  0  0  0  0  0999 V2000
   55.7880   22.1390   49.1590 C   0  0  0  0  0  0  0  0  0  0  0  0
   56.3580   21.2490   48.0590 C   0  0  0  0  0  0  0  0  0  0  0  0
   57.1950   22.0020   47.1840 O   0  0  0  0  0  0  0  0  0  0  0  0
   57.0250   22.1200   45.7930 C   0  0  0  0  0  0  0  0  0  0  0  0
   57.7900   21.3970   44.9140 N   0  0  0  0  0  0  0  0  0  0  0  0
   57.6060   21.4870   43.5660 C   0  0  0  0  0  0  0  0  0  0  0  0
   56.6400   22.3460   43.0430 C   0  0  0  0  0  0  0  0  0  0  0  0
   55.8640   23.1090   43.9130 C   0  0  0  0  0  0  0  0  0  0  0  0
   56.0370   22.9930   45.2990 C   0  0  0  0  0  0  0  0  0  0  0  0
   55.2050   23.8430   46.2320 C   0  0  0  0  0  0  0  0  0  0  0  0
   55.8400   25.1530   46.4930 N   0  0  0  0  0  0  0  0  0  0  0  0
   56.6640   25.6500   45.3750 C   0  0  0  0  0  0  0  0  0  0  0  0
   57.1420   27.0720   45.6770 C   0  0  0  0  0  0  0  0  0  0  0  0
   56.1610   28.0710   45.2470 N   0  0  0  0  0  0  0  0  0  0  0  0
   56.5150   29.2610   44.5190 C   0  0  0  0  0  0  0  0  0  0  0  0
   56.2810   29.3800   43.1360 C   0  0  0  0  0  0  0  0  0  0  0  0
   56.6400   30.5470   42.4590 C   0  0  0  0  0  0  0  0  0  0  0  0
   57.2340   31.6080   43.1470 C   0  0  0  0  0  0  0  0  0  0  0  0
   57.4780   31.5110   44.5280 C   0  0  0  0  0  0  0  0  0  0  0  0
   58.1120   32.6330   45.2650 C   0  0  0  0  0  0  0  0  0  0  0  0
   58.2250   32.5950   46.6670 C   0  0  0  0  0  0  0  0  0  0  0  0
   58.8410   33.6450   47.3570 C   0  0  0  0  0  0  0  0  0  0  0  0
   59.3480   34.7410   46.6550 C   0  0  0  0  0  0  0  0  0  0  0  0
   59.2370   34.7920   45.2630 C   0  0  0  0  0  0  0  0  0  0  0  0
   58.6240   33.7450   44.5680 C   0  0  0  0  0  0  0  0  0  0  0  0
   57.1210   30.3290   45.2020 C   0  0  0  0  0  0  0  0  0  0  0  0
   56.0543   21.7232   50.1419 H   0  0  0  0  0  0  0  0  0  0  0  0
   56.2056   23.1522   49.0641 H   0  0  0  0  0  0  0  0  0  0  0  0
   54.6930   22.1834   49.0641 H   0  0  0  0  0  0  0  0  0  0  0  0
   56.9483   20.4418   48.5173 H   0  0  0  0  0  0  0  0  0  0  0  0
   55.5246   20.8292   47.4766 H   0  0  0  0  0  0  0  0  0  0  0  0
   58.5230   20.7400   45.2520 H   0  0  0  0  0  0  0  0  0  0  0  0
   58.2226   20.8790   42.8877 H   0  0  0  0  0  0  0  0  0  0  0  0
   56.4923   22.4204   41.9555 H   0  0  0  0  0  0  0  0  0  0  0  0
   55.1130   23.8048   43.5107 H   0  0  0  0  0  0  0  0  0  0  0  0
   54.2177   24.0101   45.7766 H   0  0  0  0  0  0  0  0  0  0  0  0
   55.1129   23.3102   47.1900 H   0  0  0  0  0  0  0  0  0  0  0  0
   55.1230   25.8740   46.7460 H   0  0  0  0  0  0  0  0  0  0  0  0
   57.5355   24.9920   45.2427 H   0  0  0  0  0  0  0  0  0  0  0  0
   56.0620   25.6565   44.4544 H   0  0  0  0  0  0  0  0  0  0  0  0
   57.3029   27.1724   46.7605 H   0  0  0  0  0  0  0  0  0  0  0  0
   58.0770   27.2464   45.1243 H   0  0  0  0  0  0  0  0  0  0  0  0
   55.1450   27.8860   45.4100 H   0  0  0  0  0  0  0  0  0  0  0  0
   55.8133   28.5499   42.5863 H   0  0  0  0  0  0  0  0  0  0  0  0
   56.4542   30.6316   41.3781 H   0  0  0  0  0  0  0  0  0  0  0  0
   57.5122   32.5240   42.6052 H   0  0  0  0  0  0  0  0  0  0  0  0
   57.8265   31.7343   47.2242 H   0  0  0  0  0  0  0  0  0  0  0  0
   58.9260   33.6073   48.4531 H   0  0  0  0  0  0  0  0  0  0  0  0
   59.8349   35.5643   47.1982 H   0  0  0  0  0  0  0  0  0  0  0  0
   59.6329   35.6581   44.7125 H   0  0  0  0  0  0  0  0  0  0  0  0
   58.5412   33.7898   43.4720 H   0  0  0  0  0  0  0  0  0  0  0  0
   57.3193   30.2394   46.2803 H   0  0  0  0  0  0  0  0  0  0  0  0
  1  2  1  0
  2  3  1  0
  3  4  1  0
  4  5  2  0
  5  6  1  0
  6  7  2  0
  7  8  1  0
  8  9  2  0
  9 10  1  0
 10 11  1  0
 11 12  1  0
 12 13  1  0
 13 14  1  0
 14 15  1  0
 15 16  2  0
 16 17  1  0
 17 18  2  0
 18 19  1  0
 19 20  1  0
 20 21  2  0
 21 22  1  0
 22 23  2  0
 23 24  1  0
 24 25  2  0
 19 26  2  0
  9  4  1  0
 26 15  1  0
 25 20  1  0
  1 27  1  0
  1 28  1  0
  1 29  1  0
  2 30  1  0
  2 31  1  0
  5 32  1  0
  6 33  1  0
  7 34  1  0
  8 35  1  0
 10 36  1  0
 10 37  1  0
 11 38  1  0
 12 39  1  0
 12 40  1  0
 13 41  1  0
 13 42  1  0
 14 43  1  0
 16 44  1  0
 17 45  1  0
 18 46  1  0
 21 47  1  0
 22 48  1  0
 23 49  1  0
 24 50  1  0
 25 51  1  0
 26 52  1  0
M  CHG  1   5   1
M  END
>  <UniqueID>  (10) 
10

>  <SMILES>  (10) 
CCOc1[nH+]cccc1CNCCNc1cccc(-c2ccccc2)c1

>  <Energy>  (10) 
59.21487273965986

>  <Genealogy>  (10) 
CCOc1[nH+]cccc1CNCCNc1cccc(-c2ccccc2)c1 (protonated)
CCOc1[nH+]cccc1CNCCNc1cccc(-c2ccccc2)c1 (3D coordinates assigned)
CCOc1[nH+]cccc1CNCCNc1cccc(-c2ccccc2)c1 (optimized conformer: 59.21487273965986 kcal/mol)

>  <smiles>  (10) 
CCOc1ncccc1CNCCNc1cccc(-c2ccccc2)c1

>  <score_type>  (10) 
oracle

>  <origin>  (10) 
adg

>  <m_score__min__energy>  (10) 
-8.0899999999999999

>  <m_primary>  (10) 
energy

$$$$
11:0
     RDKit          3D

 56 58  0  0  0  0  0  0  0  0999 V2000
   57.0680   31.1790   42.4420 C   0  0  0  0  0  0  0  0  0  0  0  0
   56.5280   30.1780   43.4570 C   0  0  0  0  0  0  0  0  0  0  0  0
   56.6010   30.7090   44.7810 O   0  0  0  0  0  0  0  0  0  0  0  0
   57.7570   30.8170   45.5730 C   0  0  0  0  0  0  0  0  0  0  0  0
   58.4710   29.6740   45.9770 C   0  0  0  0  0  0  0  0  0  0  0  0
   59.6060   29.7760   46.7890 C   0  0  0  0  0  0  0  0  0  0  0  0
   60.0530   31.0490   47.2140 C   0  0  0  0  0  0  0  0  0  0  0  0
   59.3740   32.2000   46.7690 C   0  0  0  0  0  0  0  0  0  0  0  0
   59.8700   33.4620   47.1150 O   0  0  0  0  0  0  0  0  0  0  0  0
   59.3060   34.2290   48.1720 C   0  0  0  0  0  0  0  0  0  0  0  0
   58.2150   32.0960   45.9790 C   0  0  0  0  0  0  0  0  0  0  0  0
   57.5660   33.2990   45.6390 O   0  0  0  0  0  0  0  0  0  0  0  0
   58.0730   34.3340   44.8020 C   0  0  0  0  0  0  0  0  0  0  0  0
   61.2850   31.1790   48.0660 C   0  0  0  0  0  0  0  0  0  0  0  0
   62.2210   32.1120   47.6080 C   0  0  0  0  0  0  0  0  0  0  0  0
   63.4820   32.4270   48.0890 C   0  0  0  0  0  0  0  0  0  0  0  0
   64.1110   32.0430   49.2780 C   0  0  0  0  0  0  0  0  0  0  0  0
   65.4340   32.4680   49.5280 O   0  0  0  0  0  0  0  0  0  0  0  0
   65.8400   33.4370   50.4910 C   0  0  0  0  0  0  0  0  0  0  0  0
   63.5290   31.2950   50.3060 C   0  0  0  0  0  0  0  0  0  0  0  0
   64.2000   31.1900   51.3710 O   0  0  0  0  0  0  0  0  0  0  0  0
   62.3040   30.6280   50.2970 C   0  0  0  0  0  0  0  0  0  0  0  0
   61.3660   30.4290   49.2680 C   0  0  0  0  0  0  0  0  0  0  0  0
   60.2250   29.4340   49.5490 C   0  0  1  0  0  0  0  0  0  0  0  0
   58.8970   30.0330   49.3980 N   0  0  0  0  0  0  0  0  0  0  0  0
   58.1840   30.7120   50.4400 C   0  0  0  0  0  0  0  0  0  0  0  0
   58.3570   32.1800   50.6860 C   0  0  0  0  0  0  0  0  0  0  0  0
   57.3920   30.0540   51.1660 O   0  0  0  0  0  0  0  0  0  0  0  0
   60.3430   28.1970   48.6330 C   0  0  0  0  0  0  0  0  0  0  0  0
   60.4000   28.5330   47.1250 C   0  0  0  0  0  0  0  0  0  0  0  0
   57.5257   32.0275   42.9716 H   0  0  0  0  0  0  0  0  0  0  0  0
   57.8244   30.6895   41.8110 H   0  0  0  0  0  0  0  0  0  0  0  0
   56.2435   31.5423   41.8110 H   0  0  0  0  0  0  0  0  0  0  0  0
   55.4788   29.9511   43.2167 H   0  0  0  0  0  0  0  0  0  0  0  0
   57.1379   29.2638   43.4095 H   0  0  0  0  0  0  0  0  0  0  0  0
   58.1304   28.6811   45.6482 H   0  0  0  0  0  0  0  0  0  0  0  0
   59.6171   33.8059   49.1385 H   0  0  0  0  0  0  0  0  0  0  0  0
   59.6559   35.2692   48.0974 H   0  0  0  0  0  0  0  0  0  0  0  0
   58.2088   34.2050   48.0974 H   0  0  0  0  0  0  0  0  0  0  0  0
   58.4716   35.1477   45.4257 H   0  0  0  0  0  0  0  0  0  0  0  0
   58.8760   33.9317   44.1670 H   0  0  0  0  0  0  0  0  0  0  0  0
   57.2629   34.7219   44.1670 H   0  0  0  0  0  0  0  0  0  0  0  0
   61.9060   32.6876   46.7251 H   0  0  0  0  0  0  0  0  0  0  0  0
   64.0801   33.0791   47.4355 H   0  0  0  0  0  0  0  0  0  0  0  0
   65.6736   33.0400   51.5033 H   0  0  0  0  0  0  0  0  0  0  0  0
   66.9082   33.6624   50.3565 H   0  0  0  0  0  0  0  0  0  0  0  0
   65.2515   34.3565   50.3565 H   0  0  0  0  0  0  0  0  0  0  0  0
   62.0229   30.1801   51.2616 H   0  0  0  0  0  0  0  0  0  0  0  0
   60.3318   29.1302   50.6008 H   0  0  0  0  0  0  0  0  0  0  0  0
   58.3794   32.3701   51.7692 H   0  0  0  0  0  0  0  0  0  0  0  0
   59.3013   32.5186   50.2347 H   0  0  0  0  0  0  0  0  0  0  0  0
   57.5173   32.7289   50.2347 H   0  0  0  0  0  0  0  0  0  0  0  0
   61.2616   27.6546   48.9013 H   0  0  0  0  0  0  0  0  0  0  0  0
   59.4347   27.5970   48.7908 H   0  0  0  0  0  0  0  0  0  0  0  0
   61.4493   28.6936   46.8367 H   0  0  0  0  0  0  0  0  0  0  0  0
   59.9593   27.6898   46.5730 H   0  0  0  0  0  0  0  0  0  0  0  0
  1  2  1  0
  2  3  1  0
  3  4  1  0
  4  5  2  0
  5  6  1  0
  6  7  2  0
  7  8  1  0
  8  9  1  0
  9 10  1  0
  8 11  2  0
 11 12  1  0
 12 13  1  0
  7 14  1  0
 14 15  2  0
 15 16  1  0
 16 17  2  0
 17 18  1  0
 18 19  1  0
 17 20  1  0
 20 21  2  0
 20 22  1  0
 22 23  2  0
 23 24  1  0
 24 25  1  0
 25 26  1  0
 26 27  1  0
 26 28  2  0
 24 29  1  0
 29 30  1  0
 11  4  1  0
 23 14  1  0
 30  6  1  0
  1 31  1  0
  1 32  1  0
  1 33  1  0
  2 34  1  0
  2 35  1  0
  5 36  1  0
 10 37  1  0
 10 38  1  0
 10 39  1  0
 13 40  1  0
 13 41  1  0
 13 42  1  0
 15 43  1  0
 16 44  1  0
 19 45  1  0
 19 46  1  0
 19 47  1  0
 22 48  1  0
 24 49  1  1
 27 50  1  0
 27 51  1  0
 27 52  1  0
 29 53  1  0
 29 54  1  0
 30 55  1  0
 30 56  1  0
M  CHG  1  25  -1
M  END
>  <UniqueID>  (11) 
11

>  <SMILES>  (11) 
CCOc1cc2c(c(OC)c1OC)-c1ccc(OC)c(=O)cc1[C@@H]([N-]C(C)=O)CC2

>  <Energy>  (11) 
100.37105386287618

>  <Genealogy>  (11) 
CCOc1cc2c(c(OC)c1OC)-c1ccc(OC)c(=O)cc1C([N-]C(C)=O)CC2 (protonated)
CCOc1cc2c(c(OC)c1OC)-c1ccc(OC)c(=O)cc1[C@@H]([N-]C(C)=O)CC2 (chirality)
CCOc1cc2c(c(OC)c1OC)-c1ccc(OC)c(=O)cc1[C@@H]([N-]C(C)=O)CC2 (3D coordinates assigned)
CCOc1cc2c(c(OC)c1OC)-c1ccc(OC)c(=O)cc1[C@@H]([N-]C(C)=O)CC2 (nonaromatic ring conformer: 100.37105386287618 kcal/mol)

>  <smiles>  (11) 
CCOc1cc2c(c(OC)c1OC)-c1ccc(OC)c(=O)cc1C(NC(C)=O)CC2

>  <score_type>  (11) 
oracle

>  <origin>  (11) 
adg

>  <m_score__min__energy>  (11) 
-7.46

>  <m_primary>  (11) 
energy

$$$$
12:0
     RDKit          3D

 54 56  0  0  0  0  0  0  0  0999 V2000
   58.7040   30.4240   50.2510 C   0  0  0  0  0  0  0  0  0  0  0  0
   58.4660   31.9260   50.2160 C   0  0  0  0  0  0  0  0  0  0  0  0
   59.5280   32.5420   49.5150 O   0  0  0  0  0  0  0  0  0  0  0  0
   59.8320   33.8090   50.0720 C   0  0  0  0  0  0  0  0  0  0  0  0
   61.2310   33.8250   50.7040 C   0  0  0  0  0  0  0  0  0  0  0  0
   62.0400   32.8000   50.1570 O   0  0  0  0  0  0  0  0  0  0  0  0
   63.4100   32.9940   50.4590 C   0  0  0  0  0  0  0  0  0  0  0  0
   64.1760   33.4110   49.2050 C   0  0  0  0  0  0  0  0  0  0  0  0
   63.2570   33.7110   48.1780 O   0  0  0  0  0  0  0  0  0  0  0  0
   63.4360   32.8180   47.1000 C   0  0  0  0  0  0  0  0  0  0  0  0
   62.6570   31.5320   47.3830 C   0  0  0  0  0  0  0  0  0  0  0  0
   61.3270   31.8270   47.9460 N   0  0  0  0  0  0  0  0  0  0  0  0
   60.2920   31.5510   46.9700 C   0  0  0  0  0  0  0  0  0  0  0  0
   59.6170   32.5720   46.2460 C   0  0  0  0  0  0  0  0  0  0  0  0
   59.9190   33.9380   46.4430 C   0  0  0  0  0  0  0  0  0  0  0  0
   59.2230   34.9300   45.7580 C   0  0  0  0  0  0  0  0  0  0  0  0
   58.2070   34.5900   44.8740 C   0  0  0  0  0  0  0  0  0  0  0  0
   57.8860   33.2530   44.6540 C   0  0  0  0  0  0  0  0  0  0  0  0
   58.5890   32.2110   45.3090 C   0  0  0  0  0  0  0  0  0  0  0  0
   58.2840   30.8780   45.0760 N   0  0  0  0  0  0  0  0  0  0  0  0
   57.3460   30.4920   44.0020 C   0  0  0  0  0  0  0  0  0  0  0  0
   58.8600   29.9150   45.8680 C   0  0  0  0  0  0  0  0  0  0  0  0
   58.5380   28.5390   45.8860 C   0  0  0  0  0  0  0  0  0  0  0  0
   59.2920   27.8050   46.7950 C   0  0  0  0  0  0  0  0  0  0  0  0
   60.3420   28.8500   47.5910 S   0  0  0  0  0  0  0  0  0  0  0  0
   59.8480   30.2410   46.7820 C   0  0  0  0  0  0  0  0  0  0  0  0
   58.7576   30.0855   51.2963 H   0  0  0  0  0  0  0  0  0  0  0  0
   57.8762   29.9096   49.7410 H   0  0  0  0  0  0  0  0  0  0  0  0
   59.6503   30.1907   49.7410 H   0  0  0  0  0  0  0  0  0  0  0  0
   57.5149   32.1373   49.7054 H   0  0  0  0  0  0  0  0  0  0  0  0
   58.4189   32.3198   51.2420 H   0  0  0  0  0  0  0  0  0  0  0  0
   59.7902   34.5682   49.2771 H   0  0  0  0  0  0  0  0  0  0  0  0
   59.0951   34.0255   50.8595 H   0  0  0  0  0  0  0  0  0  0  0  0
   61.7033   34.7994   50.5106 H   0  0  0  0  0  0  0  0  0  0  0  0
   61.1315   33.6567   51.7865 H   0  0  0  0  0  0  0  0  0  0  0  0
   63.5055   33.7815   51.2211 H   0  0  0  0  0  0  0  0  0  0  0  0
   63.8299   32.0503   50.8372 H   0  0  0  0  0  0  0  0  0  0  0  0
   64.7852   34.3001   49.4248 H   0  0  0  0  0  0  0  0  0  0  0  0
   64.8338   32.5899   48.8838 H   0  0  0  0  0  0  0  0  0  0  0  0
   63.0627   33.2789   46.1736 H   0  0  0  0  0  0  0  0  0  0  0  0
   64.5050   32.5865   46.9831 H   0  0  0  0  0  0  0  0  0  0  0  0
   62.5330   30.9735   46.4434 H   0  0  0  0  0  0  0  0  0  0  0  0
   63.2214   30.9373   48.1163 H   0  0  0  0  0  0  0  0  0  0  0  0
   61.2740   32.8310   48.2350 H   0  0  0  0  0  0  0  0  0  0  0  0
   61.1700   31.2810   48.8230 H   0  0  0  0  0  0  0  0  0  0  0  0
   60.7150   34.2215   47.1473 H   0  0  0  0  0  0  0  0  0  0  0  0
   59.4788   35.9879   45.9175 H   0  0  0  0  0  0  0  0  0  0  0  0
   57.6536   35.3802   44.3455 H   0  0  0  0  0  0  0  0  0  0  0  0
   57.0716   33.0008   43.9589 H   0  0  0  0  0  0  0  0  0  0  0  0
   56.4159   30.1093   44.4475 H   0  0  0  0  0  0  0  0  0  0  0  0
   57.1200   31.3702   43.3794 H   0  0  0  0  0  0  0  0  0  0  0  0
   57.8036   29.7091   43.3794 H   0  0  0  0  0  0  0  0  0  0  0  0
   57.7655   28.0919   45.2431 H   0  0  0  0  0  0  0  0  0  0  0  0
   59.2145   26.7210   46.9651 H   0  0  0  0  0  0  0  0  0  0  0  0
  1  2  1  0
  2  3  1  0
  3  4  1  0
  4  5  1  0
  5  6  1  0
  6  7  1  0
  7  8  1  0
  8  9  1  0
  9 10  1  0
 10 11  1  0
 11 12  1  0
 12 13  1  0
 13 14  2  0
 14 15  1  0
 15 16  2  0
 16 17  1  0
 17 18  2  0
 18 19  1  0
 19 20  2  0
 20 21  1  0
 20 22  1  0
 22 23  1  0
 23 24  2  0
 24 25  1  0
 25 26  1  0
 26 13  1  0
 19 14  1  0
 26 22  2  0
  1 27  1  0
  1 28  1  0
  1 29  1  0
  2 30  1  0
  2 31  1  0
  4 32  1  0
  4 33  1  0
  5 34  1  0
  5 35  1  0
  7 36  1  0
  7 37  1  0
  8 38  1  0
  8 39  1  0
 10 40  1  0
 10 41  1  0
 11 42  1  0
 11 43  1  0
 12 44  1  0
 12 45  1  0
 15 46  1  0
 16 47  1  0
 17 48  1  0
 18 49  1  0
 21 50  1  0
 21 51  1  0
 21 52  1  0
 23 53  1  0
 24 54  1  0
M  CHG  2  12   1  20   1
M  END
>  <UniqueID>  (12) 
12

>  <SMILES>  (12) 
CCOCCOCCOCC[NH2+]c1c2ccccc2[n+](C)c2ccsc12

>  <Energy>  (12) 
98.50902270787894

>  <Genealogy>  (12) 
CCOCCOCCOCC[NH2+]c1c2ccccc2[n+](C)c2ccsc12 (protonated)
CCOCCOCCOCC[NH2+]c1c2ccccc2[n+](C)c2ccsc12 (3D coordinates assigned)
CCOCCOCCOCC[NH2+]c1c2ccccc2[n+](C)c2ccsc12 (optimized conformer: 98.50902270787894 kcal/mol)

>  <smiles>  (12) 
CCOCCOCCOCCNc1c2ccccc2[n+](C)c2ccsc12

>  <score_type>  (12) 
oracle

>  <origin>  (12) 
adg

>  <m_score__min__energy>  (12) 
-2.8100000000000001

>  <m_primary>  (12) 
energy

$$$$
13:0
     RDKit          3D

 60 62  0  0  0  0  0  0  0  0999 V2000
   59.2440   33.7220   48.5740 C   0  0  0  0  0  0  0  0  0  0  0  0
   58.2630   32.6190   48.1620 C   0  0  0  0  0  0  0  0  0  0  0  0
   58.1630   32.4680   46.7020 N   0  0  0  0  0  0  0  0  0  0  0  0
   57.4440   33.5820   46.0720 C   0  0  0  0  0  0  0  0  0  0  0  0
   57.7930   33.6660   44.5800 C   0  0  0  0  0  0  0  0  0  0  0  0
   57.6910   32.3080   43.8660 C   0  0  0  0  0  0  0  0  0  0  0  0
   56.7630   31.4470   44.4980 O   0  0  0  0  0  0  0  0  0  0  0  0
   56.9540   30.1090   44.0820 C   0  0  0  0  0  0  0  0  0  0  0  0
   56.8270   29.1820   45.2850 C   0  0  0  0  0  0  0  0  0  0  0  0
   57.9510   29.3650   46.1180 O   0  0  0  0  0  0  0  0  0  0  0  0
   59.0190   28.5520   45.6870 C   0  0  0  0  0  0  0  0  0  0  0  0
   60.3430   29.2090   46.0810 C   0  0  0  0  0  0  0  0  0  0  0  0
   60.1280   30.4050   46.9030 N   0  0  0  0  0  0  0  0  0  0  0  0
   61.0060   30.7640   47.9880 C   0  0  0  0  0  0  0  0  0  0  0  0
   61.8730   31.8650   47.8730 C   0  0  0  0  0  0  0  0  0  0  0  0
   61.8020   32.7300   46.7610 C   0  0  0  0  0  0  0  0  0  0  0  0
   62.7160   33.7700   46.6090 C   0  0  0  0  0  0  0  0  0  0  0  0
   63.7140   33.9630   47.5560 C   0  0  0  0  0  0  0  0  0  0  0  0
   63.7740   33.1500   48.6880 C   0  0  0  0  0  0  0  0  0  0  0  0
   62.8240   32.1170   48.8980 C   0  0  0  0  0  0  0  0  0  0  0  0
   62.8150   31.3610   50.0570 N   0  0  0  0  0  0  0  0  0  0  0  0
   63.6030   31.7900   51.2310 C   0  0  0  0  0  0  0  0  0  0  0  0
   62.0330   30.2250   50.1380 C   0  0  0  0  0  0  0  0  0  0  0  0
   62.1750   29.3320   51.1740 N   0  0  0  0  0  0  0  0  0  0  0  0
   61.3830   28.2340   51.2990 C   0  0  0  0  0  0  0  0  0  0  0  0
   60.3990   27.9660   50.3560 C   0  0  0  0  0  0  0  0  0  0  0  0
   60.2520   28.8150   49.2660 C   0  0  0  0  0  0  0  0  0  0  0  0
   61.0800   29.9450   49.1270 C   0  0  0  0  0  0  0  0  0  0  0  0
   59.2934   33.7776   49.6715 H   0  0  0  0  0  0  0  0  0  0  0  0
   60.2425   33.4932   48.1731 H   0  0  0  0  0  0  0  0  0  0  0  0
   58.9002   34.6869   48.1731 H   0  0  0  0  0  0  0  0  0  0  0  0
   58.6036   31.6657   48.5924 H   0  0  0  0  0  0  0  0  0  0  0  0
   57.2680   32.9006   48.5370 H   0  0  0  0  0  0  0  0  0  0  0  0
   57.6710   31.5700   46.4800 H   0  0  0  0  0  0  0  0  0  0  0  0
   56.3611   33.4238   46.1829 H   0  0  0  0  0  0  0  0  0  0  0  0
   57.7400   34.5213   46.5619 H   0  0  0  0  0  0  0  0  0  0  0  0
   57.1001   34.3702   44.0962 H   0  0  0  0  0  0  0  0  0  0  0  0
   58.8374   34.0027   44.5030 H   0  0  0  0  0  0  0  0  0  0  0  0
   57.3700   32.4757   42.8274 H   0  0  0  0  0  0  0  0  0  0  0  0
   58.6803   31.8286   43.9033 H   0  0  0  0  0  0  0  0  0  0  0  0
   56.1925   29.8452   43.3333 H   0  0  0  0  0  0  0  0  0  0  0  0
   57.9551   30.0012   43.6391 H   0  0  0  0  0  0  0  0  0  0  0  0
   55.9099   29.4228   45.8426 H   0  0  0  0  0  0  0  0  0  0  0  0
   56.7764   28.1360   44.9483 H   0  0  0  0  0  0  0  0  0  0  0  0
   58.9434   27.5629   46.1624 H   0  0  0  0  0  0  0  0  0  0  0  0
   58.9759   28.4345   44.5941 H   0  0  0  0  0  0  0  0  0  0  0  0
   60.9442   28.4864   46.6523 H   0  0  0  0  0  0  0  0  0  0  0  0
   60.8640   29.5125   45.1610 H   0  0  0  0  0  0  0  0  0  0  0  0
   59.2490   30.9540   46.7700 H   0  0  0  0  0  0  0  0  0  0  0  0
   61.0162   32.5816   46.0057 H   0  0  0  0  0  0  0  0  0  0  0  0
   62.6476   34.4390   45.7385 H   0  0  0  0  0  0  0  0  0  0  0  0
   64.4592   34.7594   47.4128 H   0  0  0  0  0  0  0  0  0  0  0  0
   64.5702   33.3122   49.4295 H   0  0  0  0  0  0  0  0  0  0  0  0
   63.0748   31.5025   52.1521 H   0  0  0  0  0  0  0  0  0  0  0  0
   64.5898   31.3046   51.2075 H   0  0  0  0  0  0  0  0  0  0  0  0
   63.7310   32.8823   51.2075 H   0  0  0  0  0  0  0  0  0  0  0  0
   62.9320   29.4300   51.8850 H   0  0  0  0  0  0  0  0  0  0  0  0
   61.5223   27.5537   52.1521 H   0  0  0  0  0  0  0  0  0  0  0  0
   59.7429   27.0906   50.4710 H   0  0  0  0  0  0  0  0  0  0  0  0
   59.4842   28.6030   48.5073 H   0  0  0  0  0  0  0  0  0  0  0  0
  1  2  1  0
  2  3  1  0
  3  4  1  0
  4  5  1  0
  5  6  1  0
  6  7  1  0
  7  8  1  0
  8  9  1  0
  9 10  1  0
 10 11  1  0
 11 12  1  0
 12 13  1  0
 13 14  1  0
 14 15  2  0
 15 16  1  0
 16 17  2  0
 17 18  1  0
 18 19  2  0
 19 20  1  0
 20 21  2  0
 21 22  1  0
 21 23  1  0
 23 24  2  0
 24 25  1  0
 25 26  2  0
 26 27  1  0
 27 28  2  0
 28 14  1  0
 20 15  1  0
 28 23  1  0
  1 29  1  0
  1 30  1  0
  1 31  1  0
  2 32  1  0
  2 33  1  0
  3 34  1  0
  4 35  1  0
  4 36  1  0
  5 37  1  0
  5 38  1  0
  6 39  1  0
  6 40  1  0
  8 41  1  0
  8 42  1  0
  9 43  1  0
  9 44  1  0
 11 45  1  0
 11 46  1  0
 12 47  1  0
 12 48  1  0
 13 49  1  0
 16 50  1  0
 17 51  1  0
 18 52  1  0
 19 53  1  0
 22 54  1  0
 22 55  1  0
 22 56  1  0
 24 57  1  0
 25 58  1  0
 26 59  1  0
 27 60  1  0
M  CHG  2  21   1  24   1
M  END
>  <UniqueID>  (13) 
13

>  <SMILES>  (13) 
CCNCCCOCCOCCNc1c2ccccc2[n+](C)c2[nH+]cccc12

>  <Energy>  (13) 
76.2888905193326

>  <Genealogy>  (13) 
CCNCCCOCCOCCNc1c2ccccc2[n+](C)c2[nH+]cccc12 (protonated)
CCNCCCOCCOCCNc1c2ccccc2[n+](C)c2[nH+]cccc12 (3D coordinates assigned)
CCNCCCOCCOCCNc1c2ccccc2[n+](C)c2[nH+]cccc12 (optimized conformer: 76.2888905193326 kcal/mol)

>  <smiles>  (13) 
CCNCCCOCCOCCNc1c2ccccc2[n+](C)c2ncccc12

>  <score_type>  (13) 
oracle

>  <origin>  (13) 
adg

>  <m_score__min__energy>  (13) 
-4.3899999999999997

>  <m_primary>  (13) 
energy

$$$$
14:0
     RDKit          3D

 45 48  0  0  0  0  0  0  0  0999 V2000
   56.2590   29.7200   42.7110 C   0  0  0  0  0  0  0  0  0  0  0  0
   55.6510   29.7050   44.1040 C   0  0  0  0  0  0  0  0  0  0  0  0
   56.6790   29.5070   45.0700 O   0  0  0  0  0  0  0  0  0  0  0  0
   57.6540   30.4610   45.3990 C   0  0  0  0  0  0  0  0  0  0  0  0
   58.6450   30.1050   46.3160 C   0  0  0  0  0  0  0  0  0  0  0  0
   59.6430   31.0140   46.6750 C   0  0  0  0  0  0  0  0  0  0  0  0
   59.6640   32.3030   46.1130 C   0  0  0  0  0  0  0  0  0  0  0  0
   58.6560   32.6790   45.2000 C   0  0  0  0  0  0  0  0  0  0  0  0
   57.6630   31.7540   44.8440 C   0  0  0  0  0  0  0  0  0  0  0  0
   58.5740   34.0930   44.6490 C   0  0  0  0  0  0  0  0  0  0  0  0
   59.6180   35.0900   45.2290 C   0  0  0  0  0  0  0  0  0  0  0  0
   60.1660   34.6730   46.5420 N   0  0  0  0  0  0  0  0  0  0  0  0
   59.1090   34.8050   47.5810 C   0  0  0  0  0  0  0  0  0  0  0  0
   59.5220   34.2670   48.9480 C   0  0  0  0  0  0  0  0  0  0  0  0
   60.9780   34.5940   49.2610 C   0  0  0  0  0  0  0  0  0  0  0  0
   61.9050   33.5190   48.7540 C   0  0  0  0  0  0  0  0  0  0  0  0
   62.9480   33.1090   49.6080 C   0  0  0  0  0  0  0  0  0  0  0  0
   63.8610   32.1350   49.2110 C   0  0  0  0  0  0  0  0  0  0  0  0
   63.7600   31.5610   47.9490 C   0  0  0  0  0  0  0  0  0  0  0  0
   62.7480   31.9620   47.0800 C   0  0  0  0  0  0  0  0  0  0  0  0
   61.8010   32.9420   47.4540 C   0  0  0  0  0  0  0  0  0  0  0  0
   60.7530   33.3170   46.3950 C   0  0  1  0  0  0  0  0  0  0  0  0
   57.3558   29.7471   42.7899 H   0  0  0  0  0  0  0  0  0  0  0  0
   55.9527   28.8140   42.1675 H   0  0  0  0  0  0  0  0  0  0  0  0
   55.9084   30.6098   42.1675 H   0  0  0  0  0  0  0  0  0  0  0  0
   55.1487   30.6648   44.2949 H   0  0  0  0  0  0  0  0  0  0  0  0
   54.9192   28.8869   44.1753 H   0  0  0  0  0  0  0  0  0  0  0  0
   58.6397   29.0987   46.7601 H   0  0  0  0  0  0  0  0  0  0  0  0
   60.4159   30.7203   47.4005 H   0  0  0  0  0  0  0  0  0  0  0  0
   56.8834   32.0425   44.1236 H   0  0  0  0  0  0  0  0  0  0  0  0
   58.7193   34.0430   43.5598 H   0  0  0  0  0  0  0  0  0  0  0  0
   57.5866   34.4789   44.9425 H   0  0  0  0  0  0  0  0  0  0  0  0
   60.4507   35.1768   44.5155 H   0  0  0  0  0  0  0  0  0  0  0  0
   59.1003   36.0482   45.3833 H   0  0  0  0  0  0  0  0  0  0  0  0
   58.8587   35.8708   47.6884 H   0  0  0  0  0  0  0  0  0  0  0  0
   58.2510   34.2042   47.2449 H   0  0  0  0  0  0  0  0  0  0  0  0
   58.8805   34.7192   49.7187 H   0  0  0  0  0  0  0  0  0  0  0  0
   59.4089   33.1729   48.9367 H   0  0  0  0  0  0  0  0  0  0  0  0
   61.2413   35.5486   48.7820 H   0  0  0  0  0  0  0  0  0  0  0  0
   61.0904   34.6609   50.3532 H   0  0  0  0  0  0  0  0  0  0  0  0
   63.0427   33.5655   50.6043 H   0  0  0  0  0  0  0  0  0  0  0  0
   64.6619   31.8200   49.8960 H   0  0  0  0  0  0  0  0  0  0  0  0
   64.4795   30.7899   47.6365 H   0  0  0  0  0  0  0  0  0  0  0  0
   62.6846   31.5060   46.0810 H   0  0  0  0  0  0  0  0  0  0  0  0
   61.3945   33.3176   45.5014 H   0  0  0  0  0  0  0  0  0  0  0  0
  1  2  1  0
  2  3  1  0
  3  4  1  0
  4  5  2  0
  5  6  1  0
  6  7  2  0
  7  8  1  0
  8  9  2  0
  8 10  1  0
 10 11  1  0
 11 12  1  0
 12 13  1  0
 13 14  1  0
 14 15  1  0
 15 16  1  0
 16 17  2  0
 17 18  1  0
 18 19  2  0
 19 20  1  0
 20 21  2  0
 21 22  1  0
  9  4  1  0
 22 12  1  0
 22  7  1  0
 21 16  1  0
  1 23  1  0
  1 24  1  0
  1 25  1  0
  2 26  1  0
  2 27  1  0
  5 28  1  0
  6 29  1  0
  9 30  1  0
 10 31  1  0
 10 32  1  0
 11 33  1  0
 11 34  1  0
 13 35  1  0
 13 36  1  0
 14 37  1  0
 14 38  1  0
 15 39  1  0
 15 40  1  0
 17 41  1  0
 18 42  1  0
 19 43  1  0
 20 44  1  0
 22 45  1  6
M  END
>  <UniqueID>  (14) 
14

>  <SMILES>  (14) 
CCOc1ccc2c(c1)CCN1CCCc3ccccc3[C@@H]21

>  <Energy>  (14) 
70.39095616391756

>  <Genealogy>  (14) 
CCOc1ccc2c(c1)CCN1CCCc3ccccc3[C@@H]21 (chirality)
CCOc1ccc2c(c1)CCN1CCCc3ccccc3[C@@H]21 (3D coordinates assigned)
CCOc1ccc2c(c1)CCN1CCCc3ccccc3[C@@H]21 (nonaromatic ring conformer: 70.39095616391756 kcal/mol)

>  <smiles>  (14) 
CCOc1ccc2c(c1)CCN1CCCc3ccccc3C21

>  <score_type>  (14) 
oracle

>  <origin>  (14) 
adg

>  <m_score__min__energy>  (14) 
-6.5800000000000001

>  <m_primary>  (14) 
energy

$$$$
15:0
     RDKit          3D

 43 44  0  0  0  0  0  0  0  0999 V2000
   58.1660   27.6220   43.6690 C   0  0  0  0  0  0  0  0  0  0  0  0
   57.6240   28.4270   44.8600 C   0  0  0  0  0  0  0  0  0  0  0  0
   57.0820   27.5000   45.9540 C   0  0  0  0  0  0  0  0  0  0  0  0
   56.5950   29.5050   44.4300 C   0  0  0  0  0  0  0  0  0  0  0  0
   56.8720   30.8580   44.9580 N   0  0  0  0  0  0  0  0  0  0  0  0
   58.0440   31.4890   44.3330 C   0  0  0  0  0  0  0  0  0  0  0  0
   57.6910   32.9050   43.8560 C   0  0  0  0  0  0  0  0  0  0  0  0
   57.8810   33.9660   44.9530 C   0  0  0  0  0  0  0  0  0  0  0  0
   57.4830   33.4670   46.2790 N   0  0  0  0  0  0  0  0  0  0  0  0
   58.6340   33.4130   47.1520 C   0  0  0  0  0  0  0  0  0  0  0  0
   59.2600   34.6060   47.5600 C   0  0  0  0  0  0  0  0  0  0  0  0
   60.3560   34.5770   48.4240 C   0  0  0  0  0  0  0  0  0  0  0  0
   60.8420   33.3590   48.9070 C   0  0  0  0  0  0  0  0  0  0  0  0
   60.2250   32.1610   48.5280 C   0  0  0  0  0  0  0  0  0  0  0  0
   60.6870   30.9280   49.0110 C   0  0  0  0  0  0  0  0  0  0  0  0
   60.0490   29.7480   48.6270 C   0  0  0  0  0  0  0  0  0  0  0  0
   58.9540   29.8080   47.7630 C   0  0  0  0  0  0  0  0  0  0  0  0
   58.5160   31.0100   47.3000 N   0  0  0  0  0  0  0  0  0  0  0  0
   59.1140   32.1820   47.6520 C   0  0  0  0  0  0  0  0  0  0  0  0
   58.7444   26.7630   44.0399 H   0  0  0  0  0  0  0  0  0  0  0  0
   57.3258   27.2617   43.0572 H   0  0  0  0  0  0  0  0  0  0  0  0
   58.8159   28.2649   43.0572 H   0  0  0  0  0  0  0  0  0  0  0  0
   58.4710   28.9801   45.2921 H   0  0  0  0  0  0  0  0  0  0  0  0
   57.3259   27.9172   46.9421 H   0  0  0  0  0  0  0  0  0  0  0  0
   55.9902   27.4121   45.8524 H   0  0  0  0  0  0  0  0  0  0  0  0
   57.5409   26.5055   45.8524 H   0  0  0  0  0  0  0  0  0  0  0  0
   56.5913   29.5584   43.3313 H   0  0  0  0  0  0  0  0  0  0  0  0
   55.6248   29.1974   44.8473 H   0  0  0  0  0  0  0  0  0  0  0  0
   57.0060   30.8430   45.9940 H   0  0  0  0  0  0  0  0  0  0  0  0
   58.8611   31.5458   45.0672 H   0  0  0  0  0  0  0  0  0  0  0  0
   58.3583   30.8863   43.4681 H   0  0  0  0  0  0  0  0  0  0  0  0
   58.3377   33.1605   43.0036 H   0  0  0  0  0  0  0  0  0  0  0  0
   56.6276   32.9051   43.5746 H   0  0  0  0  0  0  0  0  0  0  0  0
   58.9416   34.2559   44.9865 H   0  0  0  0  0  0  0  0  0  0  0  0
   57.2404   34.8260   44.7078 H   0  0  0  0  0  0  0  0  0  0  0  0
   56.7460   34.0840   46.6930 H   0  0  0  0  0  0  0  0  0  0  0  0
   57.0760   32.5070   46.1890 H   0  0  0  0  0  0  0  0  0  0  0  0
   58.8813   35.5717   47.1939 H   0  0  0  0  0  0  0  0  0  0  0  0
   60.8396   35.5176   48.7262 H   0  0  0  0  0  0  0  0  0  0  0  0
   61.7085   33.3417   49.5843 H   0  0  0  0  0  0  0  0  0  0  0  0
   61.5507   30.8913   49.6912 H   0  0  0  0  0  0  0  0  0  0  0  0
   60.4062   28.7776   49.0022 H   0  0  0  0  0  0  0  0  0  0  0  0
   58.4448   28.8824   47.4563 H   0  0  0  0  0  0  0  0  0  0  0  0
  1  2  1  0
  2  3  1  0
  2  4  1  0
  4  5  1  0
  5  6  1  0
  6  7  1  0
  7  8  1  0
  8  9  1  0
  9 10  1  0
 10 11  2  0
 11 12  1  0
 12 13  2  0
 13 14  1  0
 14 15  2  0
 15 16  1  0
 16 17  2  0
 17 18  1  0
 18 19  2  0
 19 10  1  0
 19 14  1  0
  1 20  1  0
  1 21  1  0
  1 22  1  0
  2 23  1  0
  3 24  1  0
  3 25  1  0
  3 26  1  0
  4 27  1  0
  4 28  1  0
  5 29  1  0
  6 30  1  0
  6 31  1  0
  7 32  1  0
  7 33  1  0
  8 34  1  0
  8 35  1  0
  9 36  1  0
  9 37  1  0
 11 38  1  0
 12 39  1  0
 13 40  1  0
 15 41  1  0
 16 42  1  0
 17 43  1  0
M  CHG  1   9   1
M  END
>  <UniqueID>  (15) 
15

>  <SMILES>  (15) 
CC(C)CNCCC[NH2+]c1cccc2cccnc12

>  <Energy>  (15) 
42.994263145140714

>  <Genealogy>  (15) 
CC(C)CNCCC[NH2+]c1cccc2cccnc12 (protonated)
CC(C)CNCCC[NH2+]c1cccc2cccnc12 (3D coordinates assigned)
CC(C)CNCCC[NH2+]c1cccc2cccnc12 (optimized conformer: 42.994263145140714 kcal/mol)

>  <smiles>  (15) 
CC(C)CNCCCNc1cccc2cccnc12

>  <score_type>  (15) 
oracle

>  <origin>  (15) 
adg

>  <m_score__min__energy>  (15) 
-5.1699999999999999

>  <m_primary>  (15) 
energy

$$$$
16:0
     RDKit          3D

 39 41  0  0  0  0  0  0  0  0999 V2000
   57.9460   32.2560   42.4840 C   0  0  0  0  0  0  0  0  0  0  0  0
   58.0360   32.7030   43.9180 C   0  0  0  0  0  0  0  0  0  0  0  0
   58.8520   33.7940   44.2630 C   0  0  0  0  0  0  0  0  0  0  0  0
   58.9390   34.2190   45.5920 C   0  0  0  0  0  0  0  0  0  0  0  0
   59.9640   35.5790   46.0120 Cl  0  0  0  0  0  0  0  0  0  0  0  0
   58.2180   33.5560   46.5860 C   0  0  0  0  0  0  0  0  0  0  0  0
   57.4000   32.4730   46.2550 C   0  0  0  0  0  0  0  0  0  0  0  0
   57.2860   32.0490   44.9170 C   0  0  0  0  0  0  0  0  0  0  0  0
   56.4660   30.9270   44.5570 N   0  0  0  0  0  0  0  0  0  0  0  0
   56.6300   29.5700   44.9900 C   0  0  0  0  0  0  0  0  0  0  0  0
   55.6300   28.8460   45.2440 O   0  0  0  0  0  0  0  0  0  0  0  0
   58.0020   28.9800   45.0320 C   0  0  0  0  0  0  0  0  0  0  0  0
   58.7750   29.5780   46.1640 C   0  0  0  0  0  0  0  0  0  0  0  0
   58.5170   29.3860   47.5170 C   0  0  0  0  0  0  0  0  0  0  0  0
   59.4570   29.9970   48.3540 C   0  0  0  0  0  0  0  0  0  0  0  0
   60.4670   30.6550   47.6540 C   0  0  0  0  0  0  0  0  0  0  0  0
   61.5750   31.3800   48.2170 N   0  0  0  0  0  0  0  0  0  0  0  0
   62.1690   31.0610   49.5060 C   0  0  0  0  0  0  0  0  0  0  0  0
   63.3570   32.0250   49.6870 C   0  0  0  0  0  0  0  0  0  0  0  0
   63.3020   33.0370   48.5360 C   0  0  0  0  0  0  0  0  0  0  0  0
   62.2140   32.5270   47.6800 C   0  0  0  0  0  0  0  0  0  0  0  0
   61.8670   33.0810   46.6050 O   0  0  0  0  0  0  0  0  0  0  0  0
   60.1830   30.4820   46.0010 S   0  0  0  0  0  0  0  0  0  0  0  0
   57.7290   31.1782   42.4488 H   0  0  0  0  0  0  0  0  0  0  0  0
   57.1411   32.8088   41.9774 H   0  0  0  0  0  0  0  0  0  0  0  0
   58.9021   32.4542   41.9774 H   0  0  0  0  0  0  0  0  0  0  0  0
   59.4254   34.3164   43.4830 H   0  0  0  0  0  0  0  0  0  0  0  0
   58.2939   33.8868   47.6323 H   0  0  0  0  0  0  0  0  0  0  0  0
   56.8416   31.9483   47.0442 H   0  0  0  0  0  0  0  0  0  0  0  0
   57.9276   27.8919   45.1749 H   0  0  0  0  0  0  0  0  0  0  0  0
   58.5192   29.1944   44.0851 H   0  0  0  0  0  0  0  0  0  0  0  0
   57.6581   28.8102   47.8923 H   0  0  0  0  0  0  0  0  0  0  0  0
   59.4044   29.9617   49.4522 H   0  0  0  0  0  0  0  0  0  0  0  0
   61.4336   31.2079   50.3107 H   0  0  0  0  0  0  0  0  0  0  0  0
   62.4968   30.0117   49.5457 H   0  0  0  0  0  0  0  0  0  0  0  0
   63.2746   32.5471   50.6517 H   0  0  0  0  0  0  0  0  0  0  0  0
   64.3098   31.4753   49.6773 H   0  0  0  0  0  0  0  0  0  0  0  0
   63.0686   34.0449   48.9096 H   0  0  0  0  0  0  0  0  0  0  0  0
   64.2591   33.1305   48.0019 H   0  0  0  0  0  0  0  0  0  0  0  0
  1  2  1  0
  2  3  2  0
  3  4  1  0
  4  5  1  0
  4  6  2  0
  6  7  1  0
  7  8  2  0
  8  9  1  0
  9 10  1  0
 10 11  2  0
 10 12  1  0
 12 13  1  0
 13 14  2  0
 14 15  1  0
 15 16  2  0
 16 17  1  0
 17 18  1  0
 18 19  1  0
 19 20  1  0
 20 21  1  0
 21 22  2  0
 16 23  1  0
  8  2  1  0
 23 13  1  0
 21 17  1  0
  1 24  1  0
  1 25  1  0
  1 26  1  0
  3 27  1  0
  6 28  1  0
  7 29  1  0
 12 30  1  0
 12 31  1  0
 14 32  1  0
 15 33  1  0
 18 34  1  0
 18 35  1  0
 19 36  1  0
 19 37  1  0
 20 38  1  0
 20 39  1  0
M  CHG  1   9  -1
M  END
>  <UniqueID>  (16) 
16

>  <SMILES>  (16) 
Cc1cc(Cl)ccc1[N-]C(=O)Cc1ccc(N2CCCC2=O)s1

>  <Energy>  (16) 
75.08961233235675

>  <Genealogy>  (16) 
Cc1cc(Cl)ccc1[N-]C(=O)Cc1ccc(N2CCCC2=O)s1 (protonated)
Cc1cc(Cl)ccc1[N-]C(=O)Cc1ccc(N2CCCC2=O)s1 (3D coordinates assigned)
Cc1cc(Cl)ccc1[N-]C(=O)Cc1ccc(N2CCCC2=O)s1 (nonaromatic ring conformer: 75.08961233235675 kcal/mol)

>  <smiles>  (16) 
Cc1cc(Cl)ccc1NC(=O)Cc1ccc(N2CCCC2=O)s1

>  <score_type>  (16) 
oracle

>  <origin>  (16) 
adg

>  <m_score__min__energy>  (16) 
-9.9499999999999993

>  <m_primary>  (16) 
energy

$$$$
17:0
     RDKit          3D

 30 32  0  0  0  0  0  0  0  0999 V2000
   60.0488   34.0253   50.3483 H   0  0  0  0  0  0  0  0  0  0  0  0
   59.6840   33.7150   49.3580 C   0  0  0  0  0  0  0  0  0  0  0  0
   59.0370   32.4900   49.2080 C   0  0  0  0  0  0  0  0  0  0  0  0
   58.9069   31.8299   50.0782 H   0  0  0  0  0  0  0  0  0  0  0  0
   58.5530   32.0960   47.9590 C   0  0  0  0  0  0  0  0  0  0  0  0
   58.0546   31.1212   47.8519 H   0  0  0  0  0  0  0  0  0  0  0  0
   58.6960   32.9350   46.8310 C   0  0  0  0  0  0  0  0  0  0  0  0
   58.2070   32.5790   45.5420 C   0  0  0  0  0  0  0  0  0  0  0  0
   57.3840   31.3760   45.2800 C   0  0  0  0  0  0  0  0  0  0  0  0
   56.2810   31.3460   44.5030 N   0  0  0  0  0  0  0  0  0  0  0  0
   55.8650   30.0880   44.4820 N   0  0  0  0  0  0  0  0  0  0  0  0
   56.7390   29.4030   45.2380 C   0  0  0  0  0  0  0  0  0  0  0  0
   56.6530   28.1260   45.4480 N   0  0  0  0  0  0  0  0  0  0  0  0
   57.6770   27.1680   45.0360 C   0  0  0  0  0  0  0  0  0  0  0  0
   57.2507   26.1541   45.0555 H   0  0  0  0  0  0  0  0  0  0  0  0
   58.5266   27.2403   45.7309 H   0  0  0  0  0  0  0  0  0  0  0  0
   58.1720   27.4750   43.6260 C   0  0  0  0  0  0  0  0  0  0  0  0
   59.1056   28.0540   43.6831 H   0  0  0  0  0  0  0  0  0  0  0  0
   58.3571   26.5329   43.0891 H   0  0  0  0  0  0  0  0  0  0  0  0
   57.4103   28.0595   43.0891 H   0  0  0  0  0  0  0  0  0  0  0  0
   57.6760   30.1770   45.7300 O   0  0  0  0  0  0  0  0  0  0  0  0
   58.4850   33.4170   44.4490 C   0  0  0  0  0  0  0  0  0  0  0  0
   58.1455   33.1266   43.4438 H   0  0  0  0  0  0  0  0  0  0  0  0
   59.1840   34.6100   44.6190 C   0  0  0  0  0  0  0  0  0  0  0  0
   59.3884   35.2532   43.7504 H   0  0  0  0  0  0  0  0  0  0  0  0
   59.6250   34.9920   45.8830 C   0  0  0  0  0  0  0  0  0  0  0  0
   60.1566   35.9462   46.0127 H   0  0  0  0  0  0  0  0  0  0  0  0
   59.3940   34.1650   46.9910 C   0  0  0  0  0  0  0  0  0  0  0  0
   59.8700   34.5480   48.2560 C   0  0  0  0  0  0  0  0  0  0  0  0
   60.3915   35.5089   48.3773 H   0  0  0  0  0  0  0  0  0  0  0  0
  1  2  1  0
  2  3  2  0
  3  4  1  0
  3  5  1  0
  5  6  1  0
  5  7  2  0
  7  8  1  0
  8  9  1  0
  9 10  2  0
 10 11  1  0
 11 12  1  0
 12 13  2  0
 13 14  1  0
 14 15  1  0
 14 16  1  0
 14 17  1  0
 17 18  1  0
 17 19  1  0
 17 20  1  0
 12 21  1  0
  8 22  2  0
 22 23  1  0
 22 24  1  0
 24 25  1  0
 24 26  2  0
 26 27  1  0
 26 28  1  0
 28 29  2  0
 29 30  1  0
 29  2  1  0
 28  7  1  0
 21  9  1  0
M  CHG  1  11  -1
M  END
>  <UniqueID>  (17) 
17

>  <SMILES>  (17) 
CC/N=c1/[n-]nc(-c2cccc3ccccc23)o1

>  <Energy>  (17) 
73.74101305772284

>  <Genealogy>  (17) 
CCN=c1[n-]nc(-c2cccc3ccccc23)o1 (protonated)
CC/N=c1/[n-]nc(-c2cccc3ccccc23)o1 (cis-trans isomerization)
CC/N=c1/[n-]nc(-c2cccc3ccccc23)o1 (3D coordinates assigned)
CC/N=c1/[n-]nc(-c2cccc3ccccc23)o1 (optimized conformer: 73.74101305772284 kcal/mol)

>  <smiles>  (17) 
CCN=c1[nH]nc(-c2cccc3ccccc23)o1

>  <score_type>  (17) 
oracle

>  <origin>  (17) 
adg

>  <m_score__min__energy>  (17) 
-8.9299999999999997

>  <m_primary>  (17) 
energy

$$$$
18:0
     RDKit          3D

 56 58  0  0  0  0  0  0  0  0999 V2000
   63.3810   34.0190   46.4180 C   0  0  0  0  0  0  0  0  0  0  0  0
   62.8950   33.0110   47.4700 C   0  0  0  0  0  0  0  0  0  0  0  0
   63.3890   31.5940   47.1370 C   0  0  0  0  0  0  0  0  0  0  0  0
   63.2580   33.4410   48.9120 C   0  0  0  0  0  0  0  0  0  0  0  0
   62.1400   34.1980   49.6540 C   0  0  0  0  0  0  0  0  0  0  0  0
   61.9080   33.6050   50.9820 N   0  0  0  0  0  0  0  0  0  0  0  0
   60.4700   33.4660   51.2870 C   0  0  0  0  0  0  0  0  0  0  0  0
   59.6220   33.2890   50.0160 C   0  0  0  0  0  0  0  0  0  0  0  0
   59.4730   31.8090   49.6510 C   0  0  0  0  0  0  0  0  0  0  0  0
   60.2750   31.4860   48.4700 N   0  0  0  0  0  0  0  0  0  0  0  0
   59.6910   31.4190   47.1580 C   0  0  0  0  0  0  0  0  0  0  0  0
   59.4450   30.1720   46.5600 C   0  0  0  0  0  0  0  0  0  0  0  0
   59.8530   28.9760   47.1890 C   0  0  0  0  0  0  0  0  0  0  0  0
   59.6330   27.7430   46.5810 C   0  0  0  0  0  0  0  0  0  0  0  0
   59.0200   27.6800   45.3340 C   0  0  0  0  0  0  0  0  0  0  0  0
   58.5990   28.8480   44.6990 C   0  0  0  0  0  0  0  0  0  0  0  0
   58.7700   30.1160   45.3100 C   0  0  0  0  0  0  0  0  0  0  0  0
   58.3100   31.2790   44.7190 N   0  0  0  0  0  0  0  0  0  0  0  0
   57.3600   31.2080   43.5860 C   0  0  0  0  0  0  0  0  0  0  0  0
   58.7220   32.5080   45.2010 C   0  0  0  0  0  0  0  0  0  0  0  0
   58.5090   33.7050   44.4700 C   0  0  0  0  0  0  0  0  0  0  0  0
   58.9040   34.9410   44.9820 C   0  0  0  0  0  0  0  0  0  0  0  0
   59.5370   35.0170   46.2180 C   0  0  0  0  0  0  0  0  0  0  0  0
   59.7930   33.8560   46.9440 C   0  0  0  0  0  0  0  0  0  0  0  0
   59.3970   32.5960   46.4480 C   0  0  0  0  0  0  0  0  0  0  0  0
   63.8055   34.8995   46.9225 H   0  0  0  0  0  0  0  0  0  0  0  0
   64.1518   33.5496   45.7890 H   0  0  0  0  0  0  0  0  0  0  0  0
   62.5338   34.3298   45.7890 H   0  0  0  0  0  0  0  0  0  0  0  0
   61.7958   32.9956   47.4322 H   0  0  0  0  0  0  0  0  0  0  0  0
   63.5808   31.0438   48.0700 H   0  0  0  0  0  0  0  0  0  0  0  0
   62.6218   31.0664   46.5513 H   0  0  0  0  0  0  0  0  0  0  0  0
   64.3179   31.6577   46.5513 H   0  0  0  0  0  0  0  0  0  0  0  0
   63.5020   32.5368   49.4889 H   0  0  0  0  0  0  0  0  0  0  0  0
   64.1043   34.1384   48.8266 H   0  0  0  0  0  0  0  0  0  0  0  0
   62.4343   35.2511   49.7743 H   0  0  0  0  0  0  0  0  0  0  0  0
   61.2127   34.1277   49.0665 H   0  0  0  0  0  0  0  0  0  0  0  0
   62.3740   34.1830   51.7210 H   0  0  0  0  0  0  0  0  0  0  0  0
   62.3350   32.6500   51.0000 H   0  0  0  0  0  0  0  0  0  0  0  0
   60.3280   32.5871   51.9330 H   0  0  0  0  0  0  0  0  0  0  0  0
   60.1399   34.3880   51.7880 H   0  0  0  0  0  0  0  0  0  0  0  0
   58.6240   33.7184   50.1879 H   0  0  0  0  0  0  0  0  0  0  0  0
   60.1278   33.8033   49.1855 H   0  0  0  0  0  0  0  0  0  0  0  0
   59.8107   31.1923   50.4970 H   0  0  0  0  0  0  0  0  0  0  0  0
   58.4155   31.6035   49.4284 H   0  0  0  0  0  0  0  0  0  0  0  0
   61.2810   31.2310   48.5910 H   0  0  0  0  0  0  0  0  0  0  0  0
   60.3498   29.0186   48.1695 H   0  0  0  0  0  0  0  0  0  0  0  0
   59.9443   26.8175   47.0874 H   0  0  0  0  0  0  0  0  0  0  0  0
   58.8668   26.7056   44.8471 H   0  0  0  0  0  0  0  0  0  0  0  0
   58.1264   28.7845   43.7077 H   0  0  0  0  0  0  0  0  0  0  0  0
   56.3331   31.1313   43.9728 H   0  0  0  0  0  0  0  0  0  0  0  0
   57.4535   32.1156   42.9716 H   0  0  0  0  0  0  0  0  0  0  0  0
   57.5874   30.3243   42.9716 H   0  0  0  0  0  0  0  0  0  0  0  0
   58.0246   33.6577   43.4836 H   0  0  0  0  0  0  0  0  0  0  0  0
   58.7141   35.8588   44.4061 H   0  0  0  0  0  0  0  0  0  0  0  0
   59.8359   35.9951   46.6228 H   0  0  0  0  0  0  0  0  0  0  0  0
   60.3088   33.9223   47.9133 H   0  0  0  0  0  0  0  0  0  0  0  0
  1  2  1  0
  2  3  1  0
  2  4  1  0
  4  5  1  0
  5  6  1  0
  6  7  1  0
  7  8  1  0
  8  9  1  0
  9 10  1  0
 10 11  1  0
 11 12  2  0
 12 13  1  0
 13 14  2  0
 14 15  1  0
 15 16  2  0
 16 17  1  0
 17 18  2  0
 18 19  1  0
 18 20  1  0
 20 21  2  0
 21 22  1  0
 22 23  2  0
 23 24  1  0
 24 25  2  0
 25 11  1  0
 17 12  1  0
 25 20  1  0
  1 26  1  0
  1 27  1  0
  1 28  1  0
  2 29  1  0
  3 30  1  0
  3 31  1  0
  3 32  1  0
  4 33  1  0
  4 34  1  0
  5 35  1  0
  5 36  1  0
  6 37  1  0
  6 38  1  0
  7 39  1  0
  7 40  1  0
  8 41  1  0
  8 42  1  0
  9 43  1  0
  9 44  1  0
 10 45  1  0
 13 46  1  0
 14 47  1  0
 15 48  1  0
 16 49  1  0
 19 50  1  0
 19 51  1  0
 19 52  1  0
 21 53  1  0
 22 54  1  0
 23 55  1  0
 24 56  1  0
M  CHG  2   6   1  18   1
M  END
>  <UniqueID>  (18) 
18

>  <SMILES>  (18) 
CC(C)CC[NH2+]CCCNc1c2ccccc2[n+](C)c2ccccc12

>  <Energy>  (18) 
73.22229983814626

>  <Genealogy>  (18) 
CC(C)CC[NH2+]CCCNc1c2ccccc2[n+](C)c2ccccc12 (protonated)
CC(C)CC[NH2+]CCCNc1c2ccccc2[n+](C)c2ccccc12 (3D coordinates assigned)
CC(C)CC[NH2+]CCCNc1c2ccccc2[n+](C)c2ccccc12 (optimized conformer: 73.22229983814626 kcal/mol)

>  <smiles>  (18) 
CC(C)CCNCCCNc1c2ccccc2[n+](C)c2ccccc12

>  <score_type>  (18) 
oracle

>  <origin>  (18) 
adg

>  <m_score__min__energy>  (18) 
-4.7199999999999998

>  <m_primary>  (18) 
energy

$$$$
19:0
     RDKit          3D

 61 64  0  0  1  0  0  0  0  0999 V2000
   66.2060   32.6580   50.0940 C   0  0  0  0  0  0  0  0  0  0  0  0
   64.7500   32.4490   49.7670 C   0  0  0  0  0  0  0  0  0  0  0  0
   64.1550   33.6900   49.4160 O   0  0  0  0  0  0  0  0  0  0  0  0
   63.0430   33.8250   48.6140 C   0  0  0  0  0  0  0  0  0  0  0  0
   61.8270   34.2960   49.0170 C   0  0  0  0  0  0  0  0  0  0  0  0
   60.7670   34.3910   48.1240 C   0  0  0  0  0  0  0  0  0  0  0  0
   60.8820   34.0180   46.7990 C   0  0  0  0  0  0  0  0  0  0  0  0
   59.7370   34.1390   45.8920 C   0  0  0  0  0  0  0  0  0  0  0  0
   58.4660   33.9670   46.4140 N   0  0  0  0  0  0  0  0  0  0  0  0
   57.3490   34.0170   45.5250 C   0  0  0  0  0  0  0  0  0  0  0  0
   57.4390   32.8260   44.5950 C   0  0  0  0  0  0  0  0  0  0  0  0
   56.9730   31.6360   45.0740 O   0  0  0  0  0  0  0  0  0  0  0  0
   57.5130   30.5120   45.5750 C   0  0  0  0  0  0  0  0  0  0  0  0
   58.6020   30.4540   46.4650 C   0  0  0  0  0  0  0  0  0  0  0  0
   59.0590   29.2410   46.9010 C   0  0  0  0  0  0  0  0  0  0  0  0
   60.1190   29.1560   47.7680 C   0  0  0  0  0  0  0  0  0  0  0  0
   60.6340   30.1560   48.2570 N   0  0  0  0  0  0  0  0  0  0  0  0
   60.3430   30.9780   49.2890 C   0  0  0  0  0  0  0  0  0  0  0  0
   59.1290   31.7070   49.3760 C   0  0  0  0  0  0  0  0  0  0  0  0
   58.9590   32.6310   50.4100 C   0  0  0  0  0  0  0  0  0  0  0  0
   59.9330   32.8610   51.3550 C   0  0  0  0  0  0  0  0  0  0  0  0
   59.7980   33.7490   52.3700 F   0  0  0  0  0  0  0  0  0  0  0  0
   61.1130   32.1510   51.2690 C   0  0  0  0  0  0  0  0  0  0  0  0
   62.3990   32.4050   52.4560 Cl  0  0  0  0  0  0  0  0  0  0  0  0
   61.3410   31.2240   50.2690 C   0  0  0  0  0  0  0  0  0  0  0  0
   60.5860   27.9400   48.1980 N   0  0  0  0  0  0  0  0  0  0  0  0
   59.9820   26.8370   47.7550 C   0  0  0  0  0  0  0  0  0  0  0  0
   58.9390   26.8450   46.9100 N   0  0  0  0  0  0  0  0  0  0  0  0
   58.5030   28.0500   46.5040 C   0  0  0  0  0  0  0  0  0  0  0  0
   57.4430   28.0780   45.6390 C   0  0  0  0  0  0  0  0  0  0  0  0
   56.9960   29.2950   45.2140 C   0  0  0  0  0  0  0  0  0  0  0  0
   55.9210   29.3170   44.3410 O   0  0  0  0  0  0  0  0  0  0  0  0
   56.1620   29.7180   43.0050 C   0  0  0  0  0  0  0  0  0  0  0  0
   62.1160   33.5420   46.3970 C   0  0  0  0  0  0  0  0  0  0  0  0
   63.1750   33.4460   47.2870 C   0  0  0  0  0  0  0  0  0  0  0  0
   66.3375   32.6769   51.1859 H   0  0  0  0  0  0  0  0  0  0  0  0
   66.7993   31.8358   49.6674 H   0  0  0  0  0  0  0  0  0  0  0  0
   66.5441   33.6139   49.6674 H   0  0  0  0  0  0  0  0  0  0  0  0
   64.6617   31.7494   48.9227 H   0  0  0  0  0  0  0  0  0  0  0  0
   64.2352   32.0341   50.6461 H   0  0  0  0  0  0  0  0  0  0  0  0
   61.6843   34.6046   50.0631 H   0  0  0  0  0  0  0  0  0  0  0  0
   59.8021   34.7768   48.4848 H   0  0  0  0  0  0  0  0  0  0  0  0
   59.7749   35.1464   45.4519 H   0  0  0  0  0  0  0  0  0  0  0  0
   59.8576   33.3019   45.1887 H   0  0  0  0  0  0  0  0  0  0  0  0
   58.3260   33.4600   47.2830 H   0  0  0  0  0  0  0  0  0  0  0  0
   56.4121   33.9722   46.0996 H   0  0  0  0  0  0  0  0  0  0  0  0
   57.3602   34.9540   44.9489 H   0  0  0  0  0  0  0  0  0  0  0  0
   56.8653   33.0676   43.6881 H   0  0  0  0  0  0  0  0  0  0  0  0
   58.5153   32.6691   44.4307 H   0  0  0  0  0  0  0  0  0  0  0  0
   59.0838   31.3812   46.8087 H   0  0  0  0  0  0  0  0  0  0  0  0
   58.3301   31.5464   48.6372 H   0  0  0  0  0  0  0  0  0  0  0  0
   58.0156   33.1933   50.4709 H   0  0  0  0  0  0  0  0  0  0  0  0
   62.2948   30.6773   50.2324 H   0  0  0  0  0  0  0  0  0  0  0  0
   60.3603   25.8641   48.1020 H   0  0  0  0  0  0  0  0  0  0  0  0
   58.4960   25.9660   46.5900 H   0  0  0  0  0  0  0  0  0  0  0  0
   56.9659   27.1478   45.2968 H   0  0  0  0  0  0  0  0  0  0  0  0
   56.7286   30.6608   43.0017 H   0  0  0  0  0  0  0  0  0  0  0  0
   56.7421   28.9397   42.4876 H   0  0  0  0  0  0  0  0  0  0  0  0
   55.2025   29.8650   42.4876 H   0  0  0  0  0  0  0  0  0  0  0  0
   62.2606   33.2335   45.3511 H   0  0  0  0  0  0  0  0  0  0  0  0
   64.1420   33.0603   46.9320 H   0  0  0  0  0  0  0  0  0  0  0  0
  1  2  1  0
  2  3  1  0
  3  4  1  0
  4  5  2  0
  5  6  1  0
  6  7  2  0
  7  8  1  0
  8  9  1  0
  9 10  1  0
 10 11  1  0
 11 12  1  0
 12 13  1  0
 13 14  2  0
 14 15  1  0
 15 16  1  0
 16 17  2  0
 17 18  1  0
 18 19  2  0
 19 20  1  0
 20 21  2  0
 21 22  1  0
 21 23  1  0
 23 24  1  0
 23 25  2  0
 16 26  1  0
 26 27  2  0
 27 28  1  0
 28 29  1  0
 29 30  1  0
 30 31  2  0
 31 32  1  0
 32 33  1  0
  7 34  1  0
 34 35  2  0
 35  4  1  0
 31 13  1  0
 29 15  2  0
 25 18  1  0
  1 36  1  0
  1 37  1  0
  1 38  1  0
  2 39  1  0
  2 40  1  0
  5 41  1  0
  6 42  1  0
  8 43  1  0
  8 44  1  0
  9 45  1  0
 10 46  1  0
 10 47  1  0
 11 48  1  0
 11 49  1  0
 14 50  1  0
 19 51  1  0
 20 52  1  0
 25 53  1  0
 27 54  1  0
 28 55  1  0
 30 56  1  0
 33 57  1  0
 33 58  1  0
 33 59  1  0
 34 60  1  0
 35 61  1  0
M  END
>  <smiles>  (19) 
CCOc1ccc(CNCCOc2cc3c(=Nc4ccc(F)c(Cl)c4)nc[nH]c3cc2OC)cc1

>  <score_type>  (19) 
oracle

>  <origin>  (19) 
adg

>  <m_score__min__energy>  (19) 
-8.3399999999999999

>  <m_primary>  (19) 
energy

$$$$
20:0
     RDKit          3D

 43 46  0  0  0  0  0  0  0  0999 V2000
   58.9410   28.7540   45.4770 C   0  0  0  0  0  0  0  0  0  0  0  0
   57.6250   29.3010   45.1760 N   0  0  0  0  0  0  0  0  0  0  0  0
   56.5020   28.6080   45.1470 N   0  0  0  0  0  0  0  0  0  0  0  0
   55.5200   29.4140   44.7700 N   0  0  0  0  0  0  0  0  0  0  0  0
   55.9910   30.6330   44.5370 N   0  0  0  0  0  0  0  0  0  0  0  0
   57.3100   30.5450   44.7870 C   0  0  0  0  0  0  0  0  0  0  0  0
   58.4660   31.9050   44.6100 S   0  0  0  0  0  0  0  0  0  0  0  0
   57.3750   33.0960   45.4590 C   0  0  0  0  0  0  0  0  0  0  0  0
   57.7240   34.5360   45.0690 C   0  0  0  0  0  0  0  0  0  0  0  0
   59.2480   34.7170   44.8700 C   0  0  0  0  0  0  0  0  0  0  0  0
   60.0250   34.8990   46.1170 N   0  0  0  0  0  0  0  0  0  0  0  0
   59.2320   34.9740   47.3540 C   0  0  0  0  0  0  0  0  0  0  0  0
   59.8930   34.0950   48.4030 C   0  0  1  0  0  0  0  0  0  0  0  0
   59.8750   32.5950   48.1420 C   0  0  0  0  0  0  0  0  0  0  0  0
   61.0770   33.4380   47.7310 C   0  0  2  0  0  0  0  0  0  0  0  0
   62.3280   33.3500   48.5650 C   0  0  0  0  0  0  0  0  0  0  0  0
   63.3620   32.4690   48.2080 C   0  0  0  0  0  0  0  0  0  0  0  0
   64.5060   32.3650   49.0060 C   0  0  0  0  0  0  0  0  0  0  0  0
   64.6190   33.1310   50.1700 C   0  0  0  0  0  0  0  0  0  0  0  0
   63.5840   33.9960   50.5420 C   0  0  0  0  0  0  0  0  0  0  0  0
   63.6910   34.7290   51.6770 F   0  0  0  0  0  0  0  0  0  0  0  0
   62.4390   34.1010   49.7460 C   0  0  0  0  0  0  0  0  0  0  0  0
   61.1420   33.9620   46.3050 C   0  0  0  0  0  0  0  0  0  0  0  0
   59.0744   28.6986   46.5675 H   0  0  0  0  0  0  0  0  0  0  0  0
   59.0265   27.7458   45.0454 H   0  0  0  0  0  0  0  0  0  0  0  0
   59.7160   29.4045   45.0454 H   0  0  0  0  0  0  0  0  0  0  0  0
   56.3313   32.8905   45.1789 H   0  0  0  0  0  0  0  0  0  0  0  0
   57.5122   32.9842   46.5447 H   0  0  0  0  0  0  0  0  0  0  0  0
   57.2088   34.7867   44.1300 H   0  0  0  0  0  0  0  0  0  0  0  0
   57.4011   35.2016   45.8831 H   0  0  0  0  0  0  0  0  0  0  0  0
   59.6332   33.8245   44.3552 H   0  0  0  0  0  0  0  0  0  0  0  0
   59.3743   35.6439   44.2913 H   0  0  0  0  0  0  0  0  0  0  0  0
   59.1967   36.0142   47.7099 H   0  0  0  0  0  0  0  0  0  0  0  0
   58.2047   34.6290   47.1653 H   0  0  0  0  0  0  0  0  0  0  0  0
   59.6602   34.6772   49.3068 H   0  0  0  0  0  0  0  0  0  0  0  0
   59.9580   31.8883   48.9808 H   0  0  0  0  0  0  0  0  0  0  0  0
   59.1956   31.9002   47.6265 H   0  0  0  0  0  0  0  0  0  0  0  0
   63.2718   31.8585   47.2974 H   0  0  0  0  0  0  0  0  0  0  0  0
   65.3171   31.6802   48.7176 H   0  0  0  0  0  0  0  0  0  0  0  0
   65.5219   33.0537   50.7936 H   0  0  0  0  0  0  0  0  0  0  0  0
   61.6226   34.7743   50.0462 H   0  0  0  0  0  0  0  0  0  0  0  0
   62.0975   34.4817   46.1409 H   0  0  0  0  0  0  0  0  0  0  0  0
   61.0703   33.1312   45.5877 H   0  0  0  0  0  0  0  0  0  0  0  0
  1  2  1  0
  2  3  1  0
  3  4  2  0
  4  5  1  0
  5  6  2  0
  6  7  1  0
  7  8  1  0
  8  9  1  0
  9 10  1  0
 10 11  1  0
 11 12  1  0
 12 13  1  0
 13 14  1  0
 14 15  1  0
 15 16  1  1
 16 17  2  0
 17 18  1  0
 18 19  2  0
 19 20  1  0
 20 21  1  0
 20 22  2  0
 15 23  1  0
  6  2  1  0
 23 11  1  0
 15 13  1  0
 22 16  1  0
  1 24  1  0
  1 25  1  0
  1 26  1  0
  8 27  1  0
  8 28  1  0
  9 29  1  0
  9 30  1  0
 10 31  1  0
 10 32  1  0
 12 33  1  0
 12 34  1  0
 13 35  1  1
 14 36  1  0
 14 37  1  0
 17 38  1  0
 18 39  1  0
 19 40  1  0
 22 41  1  0
 23 42  1  0
 23 43  1  0
M  END
>  <UniqueID>  (20) 
19

>  <SMILES>  (20) 
Cn1nnnc1SCCCN1C[C@H]2C[C@@]2(c2cccc(F)c2)C1

>  <Energy>  (20) 
353.76087902637124

>  <Genealogy>  (20) 
Cn1nnnc1SCCCN1C[C@H]2C[C@@]2(c2cccc(F)c2)C1 (chirality)
Cn1nnnc1SCCCN1C[C@H]2C[C@@]2(c2cccc(F)c2)C1 (3D coordinates assigned)
Cn1nnnc1SCCCN1C[C@H]2C[C@@]2(c2cccc(F)c2)C1 (nonaromatic ring conformer: 353.76087902637124 kcal/mol)

>  <smiles>  (20) 
Cn1nnnc1SCCCN1CC2CC2(c2cccc(F)c2)C1

>  <score_type>  (20) 
oracle

>  <origin>  (20) 
adg

>  <m_score__min__energy>  (20) 
-8.6600000000000001

>  <m_primary>  (20) 
energy

$$$$
21:0
     RDKit          3D

 60 62  0  0  0  0  0  0  0  0999 V2000
   60.3990   29.8440   46.3700 C   0  0  0  0  0  0  0  0  0  0  0  0
   59.1920   29.3570   47.1640 C   0  0  0  0  0  0  0  0  0  0  0  0
   57.9920   29.6900   46.4890 O   0  0  0  0  0  0  0  0  0  0  0  0
   57.7580   28.7920   45.4240 C   0  0  0  0  0  0  0  0  0  0  0  0
   56.7940   29.4410   44.4310 C   0  0  0  0  0  0  0  0  0  0  0  0
   56.5690   30.8040   44.7390 O   0  0  0  0  0  0  0  0  0  0  0  0
   57.3430   31.6530   43.9120 C   0  0  0  0  0  0  0  0  0  0  0  0
   58.4820   32.2410   44.7460 C   0  0  0  0  0  0  0  0  0  0  0  0
   58.4160   33.6570   44.8090 O   0  0  0  0  0  0  0  0  0  0  0  0
   57.7850   34.1010   45.9980 C   0  0  0  0  0  0  0  0  0  0  0  0
   57.9120   33.0780   47.1460 C   0  0  0  0  0  0  0  0  0  0  0  0
   58.8660   33.5340   48.1590 N   0  0  0  0  0  0  0  0  0  0  0  0
   59.9600   32.7060   48.5910 C   0  0  0  0  0  0  0  0  0  0  0  0
   61.2410   32.8760   48.0360 C   0  0  0  0  0  0  0  0  0  0  0  0
   61.4390   33.7080   46.9140 C   0  0  0  0  0  0  0  0  0  0  0  0
   62.7030   33.8430   46.3440 C   0  0  0  0  0  0  0  0  0  0  0  0
   63.7830   33.1400   46.8660 C   0  0  0  0  0  0  0  0  0  0  0  0
   63.6100   32.3110   47.9740 C   0  0  0  0  0  0  0  0  0  0  0  0
   62.3430   32.1800   48.6010 C   0  0  0  0  0  0  0  0  0  0  0  0
   62.1620   31.3890   49.7210 N   0  0  0  0  0  0  0  0  0  0  0  0
   63.3340   30.9150   50.4890 C   0  0  0  0  0  0  0  0  0  0  0  0
   60.8840   31.0540   50.1290 C   0  0  0  0  0  0  0  0  0  0  0  0
   60.6510   30.0400   51.0900 C   0  0  0  0  0  0  0  0  0  0  0  0
   59.3610   29.7450   51.5280 C   0  0  0  0  0  0  0  0  0  0  0  0
   58.2590   30.4360   51.0090 C   0  0  0  0  0  0  0  0  0  0  0  0
   56.9450   30.1780   51.4270 O   0  0  0  0  0  0  0  0  0  0  0  0
   56.1770   31.0490   52.2510 C   0  0  0  0  0  0  0  0  0  0  0  0
   58.4660   31.4100   50.0330 C   0  0  0  0  0  0  0  0  0  0  0  0
   59.7620   31.7250   49.5770 C   0  0  0  0  0  0  0  0  0  0  0  0
   61.1901   30.1632   47.0644 H   0  0  0  0  0  0  0  0  0  0  0  0
   60.7749   29.0272   45.7364 H   0  0  0  0  0  0  0  0  0  0  0  0
   60.1028   30.6930   45.7364 H   0  0  0  0  0  0  0  0  0  0  0  0
   59.2514   28.2648   47.2810 H   0  0  0  0  0  0  0  0  0  0  0  0
   59.1937   29.8426   48.1510 H   0  0  0  0  0  0  0  0  0  0  0  0
   58.7081   28.5620   44.9196 H   0  0  0  0  0  0  0  0  0  0  0  0
   57.3214   27.8599   45.8119 H   0  0  0  0  0  0  0  0  0  0  0  0
   57.2211   29.3692   43.4198 H   0  0  0  0  0  0  0  0  0  0  0  0
   55.8316   28.9115   44.4892 H   0  0  0  0  0  0  0  0  0  0  0  0
   57.7581   31.0752   43.0731 H   0  0  0  0  0  0  0  0  0  0  0  0
   56.7145   32.4619   43.5112 H   0  0  0  0  0  0  0  0  0  0  0  0
   58.4205   31.8365   45.7671 H   0  0  0  0  0  0  0  0  0  0  0  0
   59.4328   31.9653   44.2665 H   0  0  0  0  0  0  0  0  0  0  0  0
   58.2505   35.0464   46.3136 H   0  0  0  0  0  0  0  0  0  0  0  0
   56.7145   34.2326   45.7817 H   0  0  0  0  0  0  0  0  0  0  0  0
   56.9269   32.9424   47.6162 H   0  0  0  0  0  0  0  0  0  0  0  0
   58.2762   32.1282   46.7273 H   0  0  0  0  0  0  0  0  0  0  0  0
   58.7740   34.4970   48.5520 H   0  0  0  0  0  0  0  0  0  0  0  0
   60.5869   34.2556   46.4850 H   0  0  0  0  0  0  0  0  0  0  0  0
   62.8469   34.5072   45.4791 H   0  0  0  0  0  0  0  0  0  0  0  0
   64.7764   33.2379   46.4039 H   0  0  0  0  0  0  0  0  0  0  0  0
   64.4695   31.7493   48.3687 H   0  0  0  0  0  0  0  0  0  0  0  0
   63.1253   30.9994   51.5657 H   0  0  0  0  0  0  0  0  0  0  0  0
   63.5374   29.8639   50.2362 H   0  0  0  0  0  0  0  0  0  0  0  0
   64.2108   31.5292   50.2362 H   0  0  0  0  0  0  0  0  0  0  0  0
   61.5026   29.4756   51.4977 H   0  0  0  0  0  0  0  0  0  0  0  0
   59.2074   28.9637   52.2869 H   0  0  0  0  0  0  0  0  0  0  0  0
   56.3762   30.8231   53.3090 H   0  0  0  0  0  0  0  0  0  0  0  0
   56.4544   32.0924   52.0403 H   0  0  0  0  0  0  0  0  0  0  0  0
   55.1071   30.9044   52.0403 H   0  0  0  0  0  0  0  0  0  0  0  0
   57.6013   31.9428   49.6107 H   0  0  0  0  0  0  0  0  0  0  0  0
  1  2  1  0
  2  3  1  0
  3  4  1  0
  4  5  1  0
  5  6  1  0
  6  7  1  0
  7  8  1  0
  8  9  1  0
  9 10  1  0
 10 11  1  0
 11 12  1  0
 12 13  1  0
 13 14  2  0
 14 15  1  0
 15 16  2  0
 16 17  1  0
 17 18  2  0
 18 19  1  0
 19 20  2  0
 20 21  1  0
 20 22  1  0
 22 23  2  0
 23 24  1  0
 24 25  2  0
 25 26  1  0
 26 27  1  0
 25 28  1  0
 28 29  2  0
 29 13  1  0
 19 14  1  0
 29 22  1  0
  1 30  1  0
  1 31  1  0
  1 32  1  0
  2 33  1  0
  2 34  1  0
  4 35  1  0
  4 36  1  0
  5 37  1  0
  5 38  1  0
  7 39  1  0
  7 40  1  0
  8 41  1  0
  8 42  1  0
 10 43  1  0
 10 44  1  0
 11 45  1  0
 11 46  1  0
 12 47  1  0
 15 48  1  0
 16 49  1  0
 17 50  1  0
 18 51  1  0
 21 52  1  0
 21 53  1  0
 21 54  1  0
 23 55  1  0
 24 56  1  0
 27 57  1  0
 27 58  1  0
 27 59  1  0
 28 60  1  0
M  CHG  1  20   1
M  END
>  <UniqueID>  (21) 
20

>  <SMILES>  (21) 
CCOCCOCCOCCNc1c2ccccc2[n+](C)c2ccc(OC)cc12

>  <Energy>  (21) 
86.19782991080345

>  <Genealogy>  (21) 
CCOCCOCCOCCNc1c2ccccc2[n+](C)c2ccc(OC)cc12 (3D coordinates assigned)
CCOCCOCCOCCNc1c2ccccc2[n+](C)c2ccc(OC)cc12 (optimized conformer: 86.19782991080345 kcal/mol)

>  <smiles>  (21) 
CCOCCOCCOCCNc1c2ccccc2[n+](C)c2ccc(OC)cc12

>  <score_type>  (21) 
oracle

>  <origin>  (21) 
adg

>  <m_score__min__energy>  (21) 
-5.8300000000000001

>  <m_primary>  (21) 
energy

$$$$
