0:0
     RDKit          3D

 59 60  0  0  0  0  0  0  0  0999 V2000
   56.2360   29.7400   42.6440 C   0  0  0  0  0  0  0  0  0  0  0  0
   56.4440   29.3430   44.1140 C   0  0  0  0  0  0  0  0  0  0  0  0
   57.6560   28.4190   44.2490 C   0  0  0  0  0  0  0  0  0  0  0  0
   56.6500   30.5290   44.9690 N   0  0  0  0  0  0  0  0  0  0  0  0
   57.9080   31.2340   44.6760 C   0  0  0  0  0  0  0  0  0  0  0  0
   57.6260   32.6210   44.0780 C   0  0  0  0  0  0  0  0  0  0  0  0
   57.0900   33.6320   45.1050 C   0  0  0  0  0  0  0  0  0  0  0  0
   58.0540   33.8430   46.2440 C   0  0  0  0  0  0  0  0  0  0  0  0
   57.9550   33.0690   47.4120 C   0  0  0  0  0  0  0  0  0  0  0  0
   58.8900   33.2190   48.4390 C   0  0  0  0  0  0  0  0  0  0  0  0
   59.9350   34.1460   48.3160 C   0  0  0  0  0  0  0  0  0  0  0  0
   60.9830   34.2490   49.3930 C   0  0  0  0  0  0  0  0  0  0  0  0
   61.1970   32.8750   50.0640 C   0  0  0  0  0  0  0  0  0  0  0  0
   62.6220   32.4680   50.1640 N   0  0  1  0  0  0  0  0  0  0  0  0
   62.7530   31.0820   50.6850 C   0  0  0  0  0  0  0  0  0  0  0  0
   64.0550   30.8430   51.4760 C   0  0  0  0  0  0  0  0  0  0  0  0
   65.3570   31.2480   50.7620 C   0  0  0  0  0  0  0  0  0  0  0  0
   65.4350   32.6740   50.3770 N   0  0  0  0  0  0  0  0  0  0  0  0
   66.7900   33.2190   50.5530 C   0  0  0  0  0  0  0  0  0  0  0  0
   64.8850   33.0320   49.0500 C   0  0  0  0  0  0  0  0  0  0  0  0
   63.3680   32.7690   48.8970 C   0  0  0  0  0  0  0  0  0  0  0  0
   60.0380   34.9160   47.1470 C   0  0  0  0  0  0  0  0  0  0  0  0
   59.1010   34.7670   46.1200 C   0  0  0  0  0  0  0  0  0  0  0  0
   55.7260   30.7134   42.5957 H   0  0  0  0  0  0  0  0  0  0  0  0
   57.2121   29.8122   42.1420 H   0  0  0  0  0  0  0  0  0  0  0  0
   55.6210   28.9785   42.1420 H   0  0  0  0  0  0  0  0  0  0  0  0
   55.5343   28.8202   44.4444 H   0  0  0  0  0  0  0  0  0  0  0  0
   57.8737   28.2530   45.3144 H   0  0  0  0  0  0  0  0  0  0  0  0
   57.4383   27.4556   43.7648 H   0  0  0  0  0  0  0  0  0  0  0  0
   58.5274   28.8841   43.7648 H   0  0  0  0  0  0  0  0  0  0  0  0
   56.6350   30.2550   45.9780 H   0  0  0  0  0  0  0  0  0  0  0  0
   58.4813   31.3520   45.6073 H   0  0  0  0  0  0  0  0  0  0  0  0
   58.4826   30.6443   43.9466 H   0  0  0  0  0  0  0  0  0  0  0  0
   58.5622   33.0156   43.6563 H   0  0  0  0  0  0  0  0  0  0  0  0
   56.8466   32.4919   43.3126 H   0  0  0  0  0  0  0  0  0  0  0  0
   56.9198   34.5946   44.6006 H   0  0  0  0  0  0  0  0  0  0  0  0
   56.1542   33.2306   45.5212 H   0  0  0  0  0  0  0  0  0  0  0  0
   57.1372   32.3411   47.5185 H   0  0  0  0  0  0  0  0  0  0  0  0
   58.8061   32.6067   49.3490 H   0  0  0  0  0  0  0  0  0  0  0  0
   61.9301   34.5867   48.9469 H   0  0  0  0  0  0  0  0  0  0  0  0
   60.6466   34.9701   50.1525 H   0  0  0  0  0  0  0  0  0  0  0  0
   60.7769   32.9167   51.0798 H   0  0  0  0  0  0  0  0  0  0  0  0
   60.6963   32.1290   49.4294 H   0  0  0  0  0  0  0  0  0  0  0  0
   63.0200   33.0950   50.9040 H   0  0  0  0  0  0  0  0  0  0  0  0
   61.8999   30.8773   51.3485 H   0  0  0  0  0  0  0  0  0  0  0  0
   62.7750   30.4098   49.8146 H   0  0  0  0  0  0  0  0  0  0  0  0
   63.9911   31.4168   52.4123 H   0  0  0  0  0  0  0  0  0  0  0  0
   64.1204   29.7546   51.6215 H   0  0  0  0  0  0  0  0  0  0  0  0
   66.1990   31.0286   51.4350 H   0  0  0  0  0  0  0  0  0  0  0  0
   65.3889   30.6720   49.8254 H   0  0  0  0  0  0  0  0  0  0  0  0
   67.0126   33.3085   51.6265 H   0  0  0  0  0  0  0  0  0  0  0  0
   67.5205   32.5447   50.0820 H   0  0  0  0  0  0  0  0  0  0  0  0
   66.8501   34.2113   50.0820 H   0  0  0  0  0  0  0  0  0  0  0  0
   65.0678   34.1031   48.8790 H   0  0  0  0  0  0  0  0  0  0  0  0
   65.3917   32.3889   48.3153 H   0  0  0  0  0  0  0  0  0  0  0  0
   62.9152   33.6634   48.4441 H   0  0  0  0  0  0  0  0  0  0  0  0
   63.2847   31.8616   48.2808 H   0  0  0  0  0  0  0  0  0  0  0  0
   60.8593   35.6397   47.0384 H   0  0  0  0  0  0  0  0  0  0  0  0
   59.1858   35.3783   45.2095 H   0  0  0  0  0  0  0  0  0  0  0  0
  1  2  1  0
  2  3  1  0
  2  4  1  0
  4  5  1  0
  5  6  1  0
  6  7  1  0
  7  8  1  0
  8  9  2  0
  9 10  1  0
 10 11  2  0
 11 12  1  0
 12 13  1  0
 13 14  1  0
 14 15  1  0
 15 16  1  0
 16 17  1  0
 17 18  1  0
 18 19  1  0
 18 20  1  0
 20 21  1  0
 11 22  1  0
 22 23  2  0
 23  8  1  0
 21 14  1  0
  1 24  1  0
  1 25  1  0
  1 26  1  0
  2 27  1  0
  3 28  1  0
  3 29  1  0
  3 30  1  0
  4 31  1  0
  5 32  1  0
  5 33  1  0
  6 34  1  0
  6 35  1  0
  7 36  1  0
  7 37  1  0
  9 38  1  0
 10 39  1  0
 12 40  1  0
 12 41  1  0
 13 42  1  0
 13 43  1  0
 14 44  1  1
 15 45  1  0
 15 46  1  0
 16 47  1  0
 16 48  1  0
 17 49  1  0
 17 50  1  0
 19 51  1  0
 19 52  1  0
 19 53  1  0
 20 54  1  0
 20 55  1  0
 21 56  1  0
 21 57  1  0
 22 58  1  0
 23 59  1  0
M  CHG  1  14   1
M  END
>  <UniqueID>  (1) 
1

>  <SMILES>  (1) 
CC(C)NCCCc1ccc(CC[N@H+]2CCCN(C)CC2)cc1

>  <Energy>  (1) 
72.0494132706882

>  <Genealogy>  (1) 
CC(C)NCCCc1ccc(CC[NH+]2CCCN(C)CC2)cc1 (protonated)
CC(C)NCCCc1ccc(CC[N@H+]2CCCN(C)CC2)cc1 (chirality)
CC(C)NCCCc1ccc(CC[N@H+]2CCCN(C)CC2)cc1 (3D coordinates assigned)
CC(C)NCCCc1ccc(CC[N@H+]2CCCN(C)CC2)cc1 (nonaromatic ring conformer: 72.0494132706882 kcal/mol)

>  <smiles>  (1) 
CC(C)NCCCc1ccc(CCN2CCCN(C)CC2)cc1

>  <score_type>  (1) 
oracle

>  <origin>  (1) 
adg

>  <m_score__min__energy>  (1) 
-4.54

>  <m_primary>  (1) 
energy

$$$$
1:0
     RDKit          3D

 51 54  0  0  0  0  0  0  0  0999 V2000
   56.6440   30.4780   42.6040 C   0  0  0  0  0  0  0  0  0  0  0  0
   56.3800   29.7100   43.8930 C   0  0  0  0  0  0  0  0  0  0  0  0
   56.6810   30.5590   45.0530 N   0  0  0  0  0  0  0  0  0  0  0  0
   58.1300   30.7280   45.2310 C   0  0  0  0  0  0  0  0  0  0  0  0
   58.5850   30.0770   46.5470 C   0  0  0  0  0  0  0  0  0  0  0  0
   59.9260   30.5310   46.9590 N   0  0  0  0  0  0  0  0  0  0  0  0
   60.0300   30.6860   48.3990 C   0  0  0  0  0  0  0  0  0  0  0  0
   60.3670   29.5820   49.2450 C   0  0  0  0  0  0  0  0  0  0  0  0
   60.4270   28.2600   48.7430 C   0  0  0  0  0  0  0  0  0  0  0  0
   60.7280   27.1880   49.5780 C   0  0  0  0  0  0  0  0  0  0  0  0
   60.9690   27.3970   50.9290 C   0  0  0  0  0  0  0  0  0  0  0  0
   60.9290   28.6850   51.4570 C   0  0  0  0  0  0  0  0  0  0  0  0
   60.6500   29.8060   50.6370 C   0  0  0  0  0  0  0  0  0  0  0  0
   60.6530   31.0890   51.1540 N   0  0  0  0  0  0  0  0  0  0  0  0
   61.0550   31.3540   52.5490 C   0  0  0  0  0  0  0  0  0  0  0  0
   60.2430   32.1140   50.3450 C   0  0  0  0  0  0  0  0  0  0  0  0
   60.0880   33.4560   50.6460 C   0  0  0  0  0  0  0  0  0  0  0  0
   59.6670   34.0800   49.5700 O   0  0  0  0  0  0  0  0  0  0  0  0
   59.5290   33.2200   48.5850 C   0  0  0  0  0  0  0  0  0  0  0  0
   58.9770   33.6360   47.2880 C   0  0  0  0  0  0  0  0  0  0  0  0
   59.7790   34.3460   46.3830 C   0  0  0  0  0  0  0  0  0  0  0  0
   59.2470   34.7810   45.1650 C   0  0  0  0  0  0  0  0  0  0  0  0
   57.9050   34.5320   44.8580 C   0  0  0  0  0  0  0  0  0  0  0  0
   57.0920   33.8570   45.7730 C   0  0  0  0  0  0  0  0  0  0  0  0
   57.6220   33.4180   46.9900 C   0  0  0  0  0  0  0  0  0  0  0  0
   59.9080   31.9450   49.0240 C   0  0  0  0  0  0  0  0  0  0  0  0
   56.9928   31.4926   42.8466 H   0  0  0  0  0  0  0  0  0  0  0  0
   57.4143   29.9560   42.0174 H   0  0  0  0  0  0  0  0  0  0  0  0
   55.7156   30.5399   42.0174 H   0  0  0  0  0  0  0  0  0  0  0  0
   55.3229   29.4077   43.9271 H   0  0  0  0  0  0  0  0  0  0  0  0
   57.0236   28.8184   43.9209 H   0  0  0  0  0  0  0  0  0  0  0  0
   56.3100   30.0720   45.9020 H   0  0  0  0  0  0  0  0  0  0  0  0
   58.6568   30.2532   44.3901 H   0  0  0  0  0  0  0  0  0  0  0  0
   58.3637   31.8024   45.2636 H   0  0  0  0  0  0  0  0  0  0  0  0
   57.8651   30.3357   47.3375 H   0  0  0  0  0  0  0  0  0  0  0  0
   58.6311   28.9896   46.3874 H   0  0  0  0  0  0  0  0  0  0  0  0
   60.1550   31.4350   46.4880 H   0  0  0  0  0  0  0  0  0  0  0  0
   60.6240   29.8650   46.5810 H   0  0  0  0  0  0  0  0  0  0  0  0
   60.2326   28.0769   47.6759 H   0  0  0  0  0  0  0  0  0  0  0  0
   60.7752   26.1695   49.1651 H   0  0  0  0  0  0  0  0  0  0  0  0
   61.1923   26.5424   51.5846 H   0  0  0  0  0  0  0  0  0  0  0  0
   61.1175   28.8347   52.5303 H   0  0  0  0  0  0  0  0  0  0  0  0
   60.3364   30.8803   53.2340 H   0  0  0  0  0  0  0  0  0  0  0  0
   62.0585   30.9397   52.7264 H   0  0  0  0  0  0  0  0  0  0  0  0
   61.0698   32.4395   52.7264 H   0  0  0  0  0  0  0  0  0  0  0  0
   60.2846   33.9218   51.6229 H   0  0  0  0  0  0  0  0  0  0  0  0
   60.8287   34.5612   46.6316 H   0  0  0  0  0  0  0  0  0  0  0  0
   59.8842   35.3193   44.4479 H   0  0  0  0  0  0  0  0  0  0  0  0
   57.4895   34.8675   43.8963 H   0  0  0  0  0  0  0  0  0  0  0  0
   56.0342   33.6710   45.5353 H   0  0  0  0  0  0  0  0  0  0  0  0
   56.9766   32.9010   47.7153 H   0  0  0  0  0  0  0  0  0  0  0  0
  1  2  1  0
  2  3  1  0
  3  4  1  0
  4  5  1  0
  5  6  1  0
  6  7  1  0
  7  8  2  0
  8  9  1  0
  9 10  2  0
 10 11  1  0
 11 12  2  0
 12 13  1  0
 13 14  2  0
 14 15  1  0
 14 16  1  0
 16 17  2  0
 17 18  1  0
 18 19  1  0
 19 20  1  0
 20 21  2  0
 21 22  1  0
 22 23  2  0
 23 24  1  0
 24 25  2  0
 19 26  2  0
 26  7  1  0
 13  8  1  0
 26 16  1  0
 25 20  1  0
  1 27  1  0
  1 28  1  0
  1 29  1  0
  2 30  1  0
  2 31  1  0
  3 32  1  0
  4 33  1  0
  4 34  1  0
  5 35  1  0
  5 36  1  0
  6 37  1  0
  6 38  1  0
  9 39  1  0
 10 40  1  0
 11 41  1  0
 12 42  1  0
 15 43  1  0
 15 44  1  0
 15 45  1  0
 17 46  1  0
 21 47  1  0
 22 48  1  0
 23 49  1  0
 24 50  1  0
 25 51  1  0
M  CHG  2   6   1  14   1
M  END
>  <UniqueID>  (2) 
2

>  <SMILES>  (2) 
CCNCC[NH2+]c1c2ccccc2[n+](C)c2coc(-c3ccccc3)c12

>  <Energy>  (2) 
109.69309819879713

>  <Genealogy>  (2) 
CCNCC[NH2+]c1c2ccccc2[n+](C)c2coc(-c3ccccc3)c12 (protonated)
CCNCC[NH2+]c1c2ccccc2[n+](C)c2coc(-c3ccccc3)c12 (3D coordinates assigned)
CCNCC[NH2+]c1c2ccccc2[n+](C)c2coc(-c3ccccc3)c12 (optimized conformer: 109.69309819879713 kcal/mol)

>  <smiles>  (2) 
CCNCCNc1c2ccccc2[n+](C)c2coc(-c3ccccc3)c12

>  <score_type>  (2) 
oracle

>  <origin>  (2) 
adg

>  <m_score__min__energy>  (2) 
-4.5599999999999996

>  <m_primary>  (2) 
energy

$$$$
2:0
     RDKit          3D

 47 49  0  0  0  0  0  0  0  0999 V2000
   61.6290   32.3280   48.4270 H   0  0  0  0  0  0  0  0  0  0  0  0
   60.7490   31.9900   47.8600 C   0  0  0  0  0  0  0  0  0  0  0  0
   59.9290   32.9320   47.2310 C   0  0  0  0  0  0  0  0  0  0  0  0
   60.2240   34.3970   47.3590 C   0  0  0  0  0  0  0  0  0  0  0  0
   60.2786   34.6684   48.4236 H   0  0  0  0  0  0  0  0  0  0  0  0
   61.1853   34.6212   46.8736 H   0  0  0  0  0  0  0  0  0  0  0  0
   59.4244   34.9758   46.8736 H   0  0  0  0  0  0  0  0  0  0  0  0
   58.7970   32.5000   46.5320 C   0  0  0  0  0  0  0  0  0  0  0  0
   58.1373   33.2381   46.0524 H   0  0  0  0  0  0  0  0  0  0  0  0
   58.4970   31.1360   46.4380 C   0  0  0  0  0  0  0  0  0  0  0  0
   57.3970   30.7530   45.7240 N   0  0  0  0  0  0  0  0  0  0  0  0
   57.0350   29.4490   45.5770 C   0  0  0  0  0  0  0  0  0  0  0  0
   55.9850   29.1200   44.8840 N   0  0  0  0  0  0  0  0  0  0  0  0
   55.5300   29.8480   43.7010 C   0  0  0  0  0  0  0  0  0  0  0  0
   54.7896   29.2370   43.1640 H   0  0  0  0  0  0  0  0  0  0  0  0
   55.0801   30.7987   44.0231 H   0  0  0  0  0  0  0  0  0  0  0  0
   56.7120   30.1540   42.7590 C   0  0  0  0  0  0  0  0  0  0  0  0
   57.6147   29.6908   43.1840 H   0  0  0  0  0  0  0  0  0  0  0  0
   56.4318   29.7485   41.7756 H   0  0  0  0  0  0  0  0  0  0  0  0
   56.9920   31.5930   42.5460 N   0  0  0  0  0  0  0  0  0  0  0  0
   58.1530   32.0780   43.3040 C   0  0  0  0  0  0  0  0  0  0  0  0
   57.9490   31.9928   44.3816 H   0  0  0  0  0  0  0  0  0  0  0  0
   59.0359   31.4735   43.0490 H   0  0  0  0  0  0  0  0  0  0  0  0
   58.3435   33.1309   43.0490 H   0  0  0  0  0  0  0  0  0  0  0  0
   57.0850   31.9670   41.1260 C   0  0  0  0  0  0  0  0  0  0  0  0
   57.3497   33.0315   41.0438 H   0  0  0  0  0  0  0  0  0  0  0  0
   57.8590   31.3578   40.6363 H   0  0  0  0  0  0  0  0  0  0  0  0
   56.1158   31.7913   40.6363 H   0  0  0  0  0  0  0  0  0  0  0  0
   57.8260   28.4770   46.1900 C   0  0  0  0  0  0  0  0  0  0  0  0
   57.7300   27.1010   46.2370 C   0  0  0  0  0  0  0  0  0  0  0  0
   56.6700   26.2380   45.6320 C   0  0  0  0  0  0  0  0  0  0  0  0
   56.0845   25.7613   46.4319 H   0  0  0  0  0  0  0  0  0  0  0  0
   56.0057   26.8553   45.0094 H   0  0  0  0  0  0  0  0  0  0  0  0
   57.1398   25.4623   45.0094 H   0  0  0  0  0  0  0  0  0  0  0  0
   58.7350   26.6250   46.9950 N   0  0  0  0  0  0  0  0  0  0  0  0
   59.4700   27.6470   47.4210 N   0  0  0  0  0  0  0  0  0  0  0  0
   60.6370   27.4160   48.2730 C   0  0  0  0  0  0  0  0  0  0  0  0
   61.5072   27.9320   47.8411 H   0  0  0  0  0  0  0  0  0  0  0  0
   60.8247   26.3336   48.3299 H   0  0  0  0  0  0  0  0  0  0  0  0
   60.3890   27.9460   49.6830 C   0  0  0  0  0  0  0  0  0  0  0  0
   60.7354   27.2057   50.4192 H   0  0  0  0  0  0  0  0  0  0  0  0
   60.9399   28.8878   49.8229 H   0  0  0  0  0  0  0  0  0  0  0  0
   59.3130   28.1264   49.8229 H   0  0  0  0  0  0  0  0  0  0  0  0
   58.9410   28.8050   46.9310 C   0  0  0  0  0  0  0  0  0  0  0  0
   59.3310   30.1670   47.0740 C   0  0  0  0  0  0  0  0  0  0  0  0
   60.4640   30.6240   47.7770 C   0  0  0  0  0  0  0  0  0  0  0  0
   61.1309   29.8982   48.2654 H   0  0  0  0  0  0  0  0  0  0  0  0
  1  2  1  0
  2  3  2  0
  3  4  1  0
  4  5  1  0
  4  6  1  0
  4  7  1  0
  3  8  1  0
  8  9  1  0
  8 10  2  0
 10 11  1  0
 11 12  1  0
 12 13  2  0
 13 14  1  0
 14 15  1  0
 14 16  1  0
 14 17  1  0
 17 18  1  0
 17 19  1  0
 17 20  1  0
 20 21  1  0
 21 22  1  0
 21 23  1  0
 21 24  1  0
 20 25  1  0
 25 26  1  0
 25 27  1  0
 25 28  1  0
 12 29  1  0
 29 30  1  0
 30 31  1  0
 31 32  1  0
 31 33  1  0
 31 34  1  0
 30 35  2  0
 35 36  1  0
 36 37  1  0
 37 38  1  0
 37 39  1  0
 37 40  1  0
 40 41  1  0
 40 42  1  0
 40 43  1  0
 36 44  1  0
 44 45  1  0
 45 46  2  0
 46 47  1  0
 46  2  1  0
 45 10  1  0
 44 29  2  0
M  CHG  1  11  -1
M  END
>  <UniqueID>  (3) 
3

>  <SMILES>  (3) 
CCn1nc(C)c2/c(=N/CCN(C)C)[n-]c3cc(C)ccc3c21

>  <Energy>  (3) 
94.36284537124293

>  <Genealogy>  (3) 
CCn1nc(C)c2c(=NCCN(C)C)[n-]c3cc(C)ccc3c21 (protonated)
CCn1nc(C)c2/c(=N/CCN(C)C)[n-]c3cc(C)ccc3c21 (cis-trans isomerization)
CCn1nc(C)c2/c(=N/CCN(C)C)[n-]c3cc(C)ccc3c21 (3D coordinates assigned)
CCn1nc(C)c2/c(=N/CCN(C)C)[n-]c3cc(C)ccc3c21 (optimized conformer: 94.36284537124293 kcal/mol)

>  <smiles>  (3) 
CCn1nc(C)c2c(=NCCN(C)C)[nH]c3cc(C)ccc3c21

>  <score_type>  (3) 
oracle

>  <origin>  (3) 
adg

>  <m_score__min__energy>  (3) 
-8.8599999999999994

>  <m_primary>  (3) 
energy

$$$$
3:0
     RDKit          3D

 45 47  0  0  0  0  0  0  0  0999 V2000
   56.6740   30.4450   43.3150 C   0  0  0  0  0  0  0  0  0  0  0  0
   57.6740   31.4420   43.9190 C   0  0  0  0  0  0  0  0  0  0  0  0
   57.3950   31.8000   45.3310 N   0  0  0  0  0  0  0  0  0  0  0  0
   58.4570   31.3990   46.2810 C   0  0  0  0  0  0  0  0  0  0  0  0
   59.2740   30.2200   45.7540 C   0  0  0  0  0  0  0  0  0  0  0  0
   57.0290   33.2260   45.4870 C   0  0  0  0  0  0  0  0  0  0  0  0
   58.1100   34.1230   44.8740 C   0  0  0  0  0  0  0  0  0  0  0  0
   58.8000   34.8590   45.8850 O   0  0  0  0  0  0  0  0  0  0  0  0
   59.8480   34.3690   46.6810 C   0  0  0  0  0  0  0  0  0  0  0  0
   59.7990   34.3600   48.0870 C   0  0  0  0  0  0  0  0  0  0  0  0
   60.8700   33.8550   48.8290 C   0  0  0  0  0  0  0  0  0  0  0  0
   62.0130   33.3510   48.1820 C   0  0  0  0  0  0  0  0  0  0  0  0
   63.1430   32.8150   48.9780 C   0  0  0  0  0  0  0  0  0  0  0  0
   64.3730   33.3900   49.0020 N   0  0  0  0  0  0  0  0  0  0  0  0
   65.2240   32.7060   49.8070 C   0  0  0  0  0  0  0  0  0  0  0  0
   66.5570   33.0600   50.0290 C   0  0  0  0  0  0  0  0  0  0  0  0
   67.3330   32.2640   50.8890 C   0  0  0  0  0  0  0  0  0  0  0  0
   66.7720   31.1310   51.5130 C   0  0  0  0  0  0  0  0  0  0  0  0
   65.4310   30.7860   51.2830 C   0  0  0  0  0  0  0  0  0  0  0  0
   64.6850   31.5910   50.4270 C   0  0  0  0  0  0  0  0  0  0  0  0
   63.0820   31.4330   49.9660 S   0  0  0  0  0  0  0  0  0  0  0  0
   62.0610   33.3700   46.7770 C   0  0  0  0  0  0  0  0  0  0  0  0
   60.9890   33.8770   46.0380 C   0  0  0  0  0  0  0  0  0  0  0  0
   56.1464   29.9190   44.1243 H   0  0  0  0  0  0  0  0  0  0  0  0
   55.9455   30.9870   42.6940 H   0  0  0  0  0  0  0  0  0  0  0  0
   57.2138   29.7149   42.6940 H   0  0  0  0  0  0  0  0  0  0  0  0
   58.6788   30.9973   43.8675 H   0  0  0  0  0  0  0  0  0  0  0  0
   57.5892   32.3697   43.3341 H   0  0  0  0  0  0  0  0  0  0  0  0
   59.1298   32.2537   46.4445 H   0  0  0  0  0  0  0  0  0  0  0  0
   57.9762   31.0891   47.2206 H   0  0  0  0  0  0  0  0  0  0  0  0
   59.6737   29.6431   46.6010 H   0  0  0  0  0  0  0  0  0  0  0  0
   58.6300   29.5725   45.1408 H   0  0  0  0  0  0  0  0  0  0  0  0
   60.1064   30.5956   45.1408 H   0  0  0  0  0  0  0  0  0  0  0  0
   56.0715   33.4125   44.9786 H   0  0  0  0  0  0  0  0  0  0  0  0
   56.9380   33.4568   46.5587 H   0  0  0  0  0  0  0  0  0  0  0  0
   58.8317   33.4958   44.3302 H   0  0  0  0  0  0  0  0  0  0  0  0
   57.6265   34.8364   44.1904 H   0  0  0  0  0  0  0  0  0  0  0  0
   58.9120   34.7530   48.6055 H   0  0  0  0  0  0  0  0  0  0  0  0
   60.8189   33.8515   49.9278 H   0  0  0  0  0  0  0  0  0  0  0  0
   66.9910   33.9447   49.5401 H   0  0  0  0  0  0  0  0  0  0  0  0
   68.3846   32.5266   51.0764 H   0  0  0  0  0  0  0  0  0  0  0  0
   67.3884   30.5142   52.1835 H   0  0  0  0  0  0  0  0  0  0  0  0
   64.9826   29.9049   51.7653 H   0  0  0  0  0  0  0  0  0  0  0  0
   62.9489   32.9829   46.2557 H   0  0  0  0  0  0  0  0  0  0  0  0
   61.0427   33.8894   44.9394 H   0  0  0  0  0  0  0  0  0  0  0  0
  1  2  1  0
  2  3  1  0
  3  4  1  0
  4  5  1  0
  3  6  1  0
  6  7  1  0
  7  8  1  0
  8  9  1  0
  9 10  2  0
 10 11  1  0
 11 12  2  0
 12 13  1  0
 13 14  2  0
 14 15  1  0
 15 16  2  0
 16 17  1  0
 17 18  2  0
 18 19  1  0
 19 20  2  0
 20 21  1  0
 12 22  1  0
 22 23  2  0
 23  9  1  0
 21 13  1  0
 20 15  1  0
  1 24  1  0
  1 25  1  0
  1 26  1  0
  2 27  1  0
  2 28  1  0
  4 29  1  0
  4 30  1  0
  5 31  1  0
  5 32  1  0
  5 33  1  0
  6 34  1  0
  6 35  1  0
  7 36  1  0
  7 37  1  0
 10 38  1  0
 11 39  1  0
 16 40  1  0
 17 41  1  0
 18 42  1  0
 19 43  1  0
 22 44  1  0
 23 45  1  0
M  END
>  <UniqueID>  (4) 
4

>  <SMILES>  (4) 
CCN(CC)CCOc1ccc(-c2nc3ccccc3s2)cc1

>  <Energy>  (4) 
82.6920876566523

>  <Genealogy>  (4) 
CCN(CC)CCOc1ccc(-c2nc3ccccc3s2)cc1 (3D coordinates assigned)
CCN(CC)CCOc1ccc(-c2nc3ccccc3s2)cc1 (optimized conformer: 82.6920876566523 kcal/mol)

>  <smiles>  (4) 
CCN(CC)CCOc1ccc(-c2nc3ccccc3s2)cc1

>  <score_type>  (4) 
oracle

>  <origin>  (4) 
adg

>  <m_score__min__energy>  (4) 
-7.0099999999999998

>  <m_primary>  (4) 
energy

$$$$
4:0
     RDKit          3D

 43 43  0  0  0  0  0  0  0  0999 V2000
   56.3050   29.6800   42.6360 C   0  0  0  0  0  0  0  0  0  0  0  0
   57.0590   30.1920   43.8270 C   0  0  0  0  0  0  0  0  0  0  0  0
   57.8340   29.3170   44.6020 C   0  0  0  0  0  0  0  0  0  0  0  0
   58.5680   29.7990   45.6890 C   0  0  0  0  0  0  0  0  0  0  0  0
   58.5520   31.1710   46.0080 C   0  0  0  0  0  0  0  0  0  0  0  0
   59.2680   31.7020   47.0920 O   0  0  0  0  0  0  0  0  0  0  0  0
   59.6350   31.0040   48.2830 C   0  0  0  0  0  0  0  0  0  0  0  0
   61.0830   30.4820   48.2210 C   0  0  1  0  0  0  0  0  0  0  0  0
   61.6640   30.8710   47.0040 O   0  0  0  0  0  0  0  0  0  0  0  0
   61.9580   30.9870   49.3920 C   0  0  0  0  0  0  0  0  0  0  0  0
   63.1740   31.6720   48.9220 N   0  0  0  0  0  0  0  0  0  0  0  0
   63.2860   33.0060   49.5330 C   0  0  0  0  0  0  0  0  0  0  0  0
   62.5450   34.0570   48.6770 C   0  0  0  0  0  0  0  0  0  0  0  0
   62.2500   33.6230   47.2930 N   0  0  0  0  0  0  0  0  0  0  0  0
   61.0030   34.1950   46.7620 C   0  0  0  0  0  0  0  0  0  0  0  0
   63.3740   33.8460   46.3690 C   0  0  0  0  0  0  0  0  0  0  0  0
   57.7830   32.0440   45.2230 C   0  0  0  0  0  0  0  0  0  0  0  0
   57.7510   33.9200   45.6080 Br  0  0  0  0  0  0  0  0  0  0  0  0
   57.0500   31.5590   44.1340 C   0  0  0  0  0  0  0  0  0  0  0  0
   55.4393   29.0921   42.9751 H   0  0  0  0  0  0  0  0  0  0  0  0
   55.9568   30.5292   42.0297 H   0  0  0  0  0  0  0  0  0  0  0  0
   56.9659   29.0431   42.0297 H   0  0  0  0  0  0  0  0  0  0  0  0
   57.8642   28.2460   44.3530 H   0  0  0  0  0  0  0  0  0  0  0  0
   59.1620   29.1028   46.2993 H   0  0  0  0  0  0  0  0  0  0  0  0
   59.5401   31.6879   49.1393 H   0  0  0  0  0  0  0  0  0  0  0  0
   58.9652   30.1381   48.3902 H   0  0  0  0  0  0  0  0  0  0  0  0
   61.0368   29.3860   48.3020 H   0  0  0  0  0  0  0  0  0  0  0  0
   61.2800   31.7570   46.7690 H   0  0  0  0  0  0  0  0  0  0  0  0
   61.3674   31.6896   49.9983 H   0  0  0  0  0  0  0  0  0  0  0  0
   62.2695   30.1128   49.9826 H   0  0  0  0  0  0  0  0  0  0  0  0
   64.0150   31.1110   49.1910 H   0  0  0  0  0  0  0  0  0  0  0  0
   63.1360   31.7710   47.8800 H   0  0  0  0  0  0  0  0  0  0  0  0
   62.8431   32.9815   50.5396 H   0  0  0  0  0  0  0  0  0  0  0  0
   64.3492   33.2817   49.5932 H   0  0  0  0  0  0  0  0  0  0  0  0
   61.5924   34.2946   49.1731 H   0  0  0  0  0  0  0  0  0  0  0  0
   63.2160   34.9250   48.5967 H   0  0  0  0  0  0  0  0  0  0  0  0
   60.3519   34.4936   47.5968 H   0  0  0  0  0  0  0  0  0  0  0  0
   61.2368   35.0759   46.1461 H   0  0  0  0  0  0  0  0  0  0  0  0
   60.4878   33.4432   46.1461 H   0  0  0  0  0  0  0  0  0  0  0  0
   64.2925   34.0282   46.9462 H   0  0  0  0  0  0  0  0  0  0  0  0
   63.5095   32.9572   45.7352 H   0  0  0  0  0  0  0  0  0  0  0  0
   63.1599   34.7192   45.7352 H   0  0  0  0  0  0  0  0  0  0  0  0
   56.4637   32.2547   43.5158 H   0  0  0  0  0  0  0  0  0  0  0  0
  1  2  1  0
  2  3  2  0
  3  4  1  0
  4  5  2  0
  5  6  1  0
  6  7  1  0
  7  8  1  0
  8  9  1  0
  8 10  1  0
 10 11  1  0
 11 12  1  0
 12 13  1  0
 13 14  1  0
 14 15  1  0
 14 16  1  0
  5 17  1  0
 17 18  1  0
 17 19  2  0
 19  2  1  0
  1 20  1  0
  1 21  1  0
  1 22  1  0
  3 23  1  0
  4 24  1  0
  7 25  1  0
  7 26  1  0
  8 27  1  6
  9 28  1  0
 10 29  1  0
 10 30  1  0
 11 31  1  0
 11 32  1  0
 12 33  1  0
 12 34  1  0
 13 35  1  0
 13 36  1  0
 15 37  1  0
 15 38  1  0
 15 39  1  0
 16 40  1  0
 16 41  1  0
 16 42  1  0
 19 43  1  0
M  CHG  1  11   1
M  END
>  <UniqueID>  (5) 
5

>  <SMILES>  (5) 
Cc1ccc(OC[C@@H](O)C[NH2+]CCN(C)C)c(Br)c1

>  <Energy>  (5) 
39.14671033833875

>  <Genealogy>  (5) 
Cc1ccc(OCC(O)C[NH2+]CCN(C)C)c(Br)c1 (protonated)
Cc1ccc(OC[C@@H](O)C[NH2+]CCN(C)C)c(Br)c1 (chirality)
Cc1ccc(OC[C@@H](O)C[NH2+]CCN(C)C)c(Br)c1 (3D coordinates assigned)
Cc1ccc(OC[C@@H](O)C[NH2+]CCN(C)C)c(Br)c1 (optimized conformer: 39.14671033833875 kcal/mol)

>  <smiles>  (5) 
Cc1ccc(OCC(O)CNCCN(C)C)c(Br)c1

>  <score_type>  (5) 
oracle

>  <origin>  (5) 
adg

>  <m_score__min__energy>  (5) 
-4.4000000000000004

>  <m_primary>  (5) 
energy

$$$$
5:0
     RDKit          3D

 49 50  0  0  0  0  0  0  0  0999 V2000
   60.4520   30.2010   49.6600 C   0  0  0  0  0  0  0  0  0  0  0  0
   61.3620   30.8780   48.6320 C   0  0  0  0  0  0  0  0  0  0  0  0
   61.6130   32.3100   48.9120 N   0  0  0  0  0  0  0  0  0  0  0  0
   61.0170   32.7920   50.1780 C   0  0  0  0  0  0  0  0  0  0  0  0
   59.7550   33.6090   49.9100 C   0  0  0  0  0  0  0  0  0  0  0  0
   62.9870   32.7750   48.5890 C   0  0  0  0  0  0  0  0  0  0  0  0
   63.3040   32.8640   47.0810 C   0  0  0  0  0  0  0  0  0  0  0  0
   62.3350   33.8270   46.3720 C   0  0  0  0  0  0  0  0  0  0  0  0
   60.9780   33.7850   46.9470 N   0  0  0  0  0  0  0  0  0  0  0  0
   60.0040   34.5450   46.1390 C   0  0  0  0  0  0  0  0  0  0  0  0
   58.5440   34.1620   46.4700 C   0  0  1  0  0  0  0  0  0  0  0  0
   57.5850   34.2600   45.2650 C   0  0  0  0  0  0  0  0  0  0  0  0
   57.9060   33.2040   44.1980 C   0  0  0  0  0  0  0  0  0  0  0  0
   58.1080   31.8380   44.8040 C   0  0  0  0  0  0  0  0  0  0  0  0
   58.0340   30.6920   43.9970 C   0  0  0  0  0  0  0  0  0  0  0  0
   58.2360   29.4250   44.5530 C   0  0  0  0  0  0  0  0  0  0  0  0
   58.5200   29.2950   45.9160 C   0  0  0  0  0  0  0  0  0  0  0  0
   58.6110   30.4310   46.7250 C   0  0  0  0  0  0  0  0  0  0  0  0
   58.4190   31.7030   46.1730 C   0  0  0  0  0  0  0  0  0  0  0  0
   58.5170   32.8330   46.9940 O   0  0  0  0  0  0  0  0  0  0  0  0
   60.7928   30.4546   50.6747 H   0  0  0  0  0  0  0  0  0  0  0  0
   59.4185   30.5516   49.5220 H   0  0  0  0  0  0  0  0  0  0  0  0
   60.4907   29.1104   49.5220 H   0  0  0  0  0  0  0  0  0  0  0  0
   62.3277   30.3514   48.6227 H   0  0  0  0  0  0  0  0  0  0  0  0
   60.8463   30.8254   47.6618 H   0  0  0  0  0  0  0  0  0  0  0  0
   60.7593   31.9271   50.8069 H   0  0  0  0  0  0  0  0  0  0  0  0
   61.7494   33.4342   50.6891 H   0  0  0  0  0  0  0  0  0  0  0  0
   59.2992   33.9041   50.8666 H   0  0  0  0  0  0  0  0  0  0  0  0
   60.0165   34.5097   49.3352 H   0  0  0  0  0  0  0  0  0  0  0  0
   59.0403   33.0018   49.3352 H   0  0  0  0  0  0  0  0  0  0  0  0
   63.1210   33.7755   49.0262 H   0  0  0  0  0  0  0  0  0  0  0  0
   63.6736   32.0231   49.0053 H   0  0  0  0  0  0  0  0  0  0  0  0
   64.3337   33.2282   46.9503 H   0  0  0  0  0  0  0  0  0  0  0  0
   63.1914   31.8632   46.6385 H   0  0  0  0  0  0  0  0  0  0  0  0
   62.7255   34.8513   46.4632 H   0  0  0  0  0  0  0  0  0  0  0  0
   62.2626   33.5147   45.3197 H   0  0  0  0  0  0  0  0  0  0  0  0
   60.6820   32.7830   46.9890 H   0  0  0  0  0  0  0  0  0  0  0  0
   61.0080   34.1630   47.9220 H   0  0  0  0  0  0  0  0  0  0  0  0
   60.1417   35.6184   46.3359 H   0  0  0  0  0  0  0  0  0  0  0  0
   60.1838   34.3051   45.0806 H   0  0  0  0  0  0  0  0  0  0  0  0
   58.1850   34.8916   47.2108 H   0  0  0  0  0  0  0  0  0  0  0  0
   56.5537   34.1096   45.6168 H   0  0  0  0  0  0  0  0  0  0  0  0
   57.7049   35.2546   44.8107 H   0  0  0  0  0  0  0  0  0  0  0  0
   57.0720   33.1561   43.4824 H   0  0  0  0  0  0  0  0  0  0  0  0
   58.8406   33.4973   43.6974 H   0  0  0  0  0  0  0  0  0  0  0  0
   57.8163   30.7909   42.9233 H   0  0  0  0  0  0  0  0  0  0  0  0
   58.1714   28.5295   43.9174 H   0  0  0  0  0  0  0  0  0  0  0  0
   58.6721   28.2967   46.3523 H   0  0  0  0  0  0  0  0  0  0  0  0
   58.8338   30.3254   47.7970 H   0  0  0  0  0  0  0  0  0  0  0  0
  1  2  1  0
  2  3  1  0
  3  4  1  0
  4  5  1  0
  3  6  1  0
  6  7  1  0
  7  8  1  0
  8  9  1  0
  9 10  1  0
 10 11  1  0
 11 12  1  0
 12 13  1  0
 13 14  1  0
 14 15  2  0
 15 16  1  0
 16 17  2  0
 17 18  1  0
 18 19  2  0
 19 20  1  0
 20 11  1  0
 19 14  1  0
  1 21  1  0
  1 22  1  0
  1 23  1  0
  2 24  1  0
  2 25  1  0
  4 26  1  0
  4 27  1  0
  5 28  1  0
  5 29  1  0
  5 30  1  0
  6 31  1  0
  6 32  1  0
  7 33  1  0
  7 34  1  0
  8 35  1  0
  8 36  1  0
  9 37  1  0
  9 38  1  0
 10 39  1  0
 10 40  1  0
 11 41  1  1
 12 42  1  0
 12 43  1  0
 13 44  1  0
 13 45  1  0
 15 46  1  0
 16 47  1  0
 17 48  1  0
 18 49  1  0
M  CHG  1   9   1
M  END
>  <UniqueID>  (6) 
6

>  <SMILES>  (6) 
CCN(CC)CCC[NH2+]C[C@H]1CCc2ccccc2O1

>  <Energy>  (6) 
49.843267475502415

>  <Genealogy>  (6) 
CCN(CC)CCC[NH2+]CC1CCc2ccccc2O1 (protonated)
CCN(CC)CCC[NH2+]C[C@H]1CCc2ccccc2O1 (chirality)
CCN(CC)CCC[NH2+]C[C@H]1CCc2ccccc2O1 (3D coordinates assigned)
CCN(CC)CCC[NH2+]C[C@H]1CCc2ccccc2O1 (nonaromatic ring conformer: 49.843267475502415 kcal/mol)

>  <smiles>  (6) 
CCN(CC)CCCNCC1CCc2ccccc2O1

>  <score_type>  (6) 
oracle

>  <origin>  (6) 
adg

>  <m_score__min__energy>  (6) 
-3.96

>  <m_primary>  (6) 
energy

$$$$
6:0
     RDKit          3D

 57 60  0  0  0  0  0  0  0  0999 V2000
   64.7200   33.0490   49.8780 C   0  0  0  0  0  0  0  0  0  0  0  0
   64.0460   31.6850   49.7330 C   0  0  0  0  0  0  0  0  0  0  0  0
   62.9700   31.6960   48.7180 N   0  0  0  0  0  0  0  0  0  0  0  0
   63.4100   31.7210   47.3000 C   0  0  0  0  0  0  0  0  0  0  0  0
   63.7690   33.1130   46.7530 C   0  0  0  0  0  0  0  0  0  0  0  0
   61.7750   30.8600   48.9880 C   0  0  0  0  0  0  0  0  0  0  0  0
   61.0640   30.3150   47.7270 C   0  0  0  0  0  0  0  0  0  0  0  0
   59.5950   30.3090   47.8670 N   0  0  0  0  0  0  0  0  0  0  0  0
   58.9540   30.4530   46.5730 C   0  0  0  0  0  0  0  0  0  0  0  0
   58.7310   29.3110   45.7400 C   0  0  0  0  0  0  0  0  0  0  0  0
   59.2090   28.0260   46.1000 C   0  0  0  0  0  0  0  0  0  0  0  0
   58.9900   26.9200   45.2830 C   0  0  0  0  0  0  0  0  0  0  0  0
   58.2990   27.0590   44.0890 C   0  0  0  0  0  0  0  0  0  0  0  0
   57.8200   28.3050   43.6990 C   0  0  0  0  0  0  0  0  0  0  0  0
   58.0170   29.4550   44.5070 C   0  0  0  0  0  0  0  0  0  0  0  0
   57.5410   30.6900   44.1150 N   0  0  0  0  0  0  0  0  0  0  0  0
   56.7580   30.8400   42.8710 C   0  0  0  0  0  0  0  0  0  0  0  0
   57.8290   31.7830   44.8830 C   0  0  0  0  0  0  0  0  0  0  0  0
   57.4310   33.3850   44.5370 S   0  0  0  0  0  0  0  0  0  0  0  0
   58.1400   34.0450   45.8990 C   0  0  0  0  0  0  0  0  0  0  0  0
   58.7100   33.0250   46.6560 C   0  0  0  0  0  0  0  0  0  0  0  0
   59.4530   33.3890   47.8740 C   0  0  0  0  0  0  0  0  0  0  0  0
   58.9460   33.0470   49.1370 C   0  0  0  0  0  0  0  0  0  0  0  0
   59.6790   33.3410   50.2910 C   0  0  0  0  0  0  0  0  0  0  0  0
   60.9300   33.9550   50.1880 C   0  0  0  0  0  0  0  0  0  0  0  0
   61.4570   34.2630   48.9310 C   0  0  0  0  0  0  0  0  0  0  0  0
   60.7290   33.9670   47.7750 C   0  0  0  0  0  0  0  0  0  0  0  0
   58.5320   31.7210   46.0880 C   0  0  0  0  0  0  0  0  0  0  0  0
   64.8381   33.2880   50.9452 H   0  0  0  0  0  0  0  0  0  0  0  0
   65.7087   33.0225   49.3966 H   0  0  0  0  0  0  0  0  0  0  0  0
   64.0983   33.8182   49.3966 H   0  0  0  0  0  0  0  0  0  0  0  0
   64.8043   30.9453   49.4367 H   0  0  0  0  0  0  0  0  0  0  0  0
   63.5923   31.4289   50.7018 H   0  0  0  0  0  0  0  0  0  0  0  0
   64.2983   31.0789   47.2074 H   0  0  0  0  0  0  0  0  0  0  0  0
   62.5525   31.3704   46.7068 H   0  0  0  0  0  0  0  0  0  0  0  0
   63.9467   33.8020   47.5919 H   0  0  0  0  0  0  0  0  0  0  0  0
   64.6782   33.0420   46.1380 H   0  0  0  0  0  0  0  0  0  0  0  0
   62.9388   33.4906   46.1380 H   0  0  0  0  0  0  0  0  0  0  0  0
   62.0892   30.0023   49.6009 H   0  0  0  0  0  0  0  0  0  0  0  0
   61.0489   31.5134   49.4939 H   0  0  0  0  0  0  0  0  0  0  0  0
   61.3343   30.9471   46.8683 H   0  0  0  0  0  0  0  0  0  0  0  0
   61.3910   29.2749   47.5811 H   0  0  0  0  0  0  0  0  0  0  0  0
   59.2690   29.4380   48.3340 H   0  0  0  0  0  0  0  0  0  0  0  0
   59.2710   31.0490   48.5170 H   0  0  0  0  0  0  0  0  0  0  0  0
   59.7630   27.9003   47.0419 H   0  0  0  0  0  0  0  0  0  0  0  0
   59.3667   25.9320   45.5860 H   0  0  0  0  0  0  0  0  0  0  0  0
   58.1292   26.1811   43.4483 H   0  0  0  0  0  0  0  0  0  0  0  0
   57.2783   28.4010   42.7465 H   0  0  0  0  0  0  0  0  0  0  0  0
   55.7061   31.0415   43.1219 H   0  0  0  0  0  0  0  0  0  0  0  0
   57.1615   31.6772   42.2825 H   0  0  0  0  0  0  0  0  0  0  0  0
   56.8235   29.9130   42.2825 H   0  0  0  0  0  0  0  0  0  0  0  0
   58.1540   35.1144   46.1562 H   0  0  0  0  0  0  0  0  0  0  0  0
   57.9699   32.5466   49.2194 H   0  0  0  0  0  0  0  0  0  0  0  0
   59.2705   33.0887   51.2807 H   0  0  0  0  0  0  0  0  0  0  0  0
   61.5004   34.1961   51.0971 H   0  0  0  0  0  0  0  0  0  0  0  0
   62.4456   34.7388   48.8511 H   0  0  0  0  0  0  0  0  0  0  0  0
   61.1565   34.1873   46.7857 H   0  0  0  0  0  0  0  0  0  0  0  0
  1  2  1  0
  2  3  1  0
  3  4  1  0
  4  5  1  0
  3  6  1  0
  6  7  1  0
  7  8  1  0
  8  9  1  0
  9 10  2  0
 10 11  1  0
 11 12  2  0
 12 13  1  0
 13 14  2  0
 14 15  1  0
 15 16  2  0
 16 17  1  0
 16 18  1  0
 18 19  1  0
 19 20  1  0
 20 21  2  0
 21 22  1  0
 22 23  2  0
 23 24  1  0
 24 25  2  0
 25 26  1  0
 26 27  2  0
 21 28  1  0
 28  9  1  0
 15 10  1  0
 28 18  2  0
 27 22  1  0
  1 29  1  0
  1 30  1  0
  1 31  1  0
  2 32  1  0
  2 33  1  0
  4 34  1  0
  4 35  1  0
  5 36  1  0
  5 37  1  0
  5 38  1  0
  6 39  1  0
  6 40  1  0
  7 41  1  0
  7 42  1  0
  8 43  1  0
  8 44  1  0
 11 45  1  0
 12 46  1  0
 13 47  1  0
 14 48  1  0
 17 49  1  0
 17 50  1  0
 17 51  1  0
 20 52  1  0
 23 53  1  0
 24 54  1  0
 25 55  1  0
 26 56  1  0
 27 57  1  0
M  CHG  2   8   1  16   1
M  END
>  <UniqueID>  (7) 
7

>  <SMILES>  (7) 
CCN(CC)CC[NH2+]c1c2ccccc2[n+](C)c2scc(-c3ccccc3)c12

>  <Energy>  (7) 
126.583666607209

>  <Genealogy>  (7) 
CCN(CC)CC[NH2+]c1c2ccccc2[n+](C)c2scc(-c3ccccc3)c12 (protonated)
CCN(CC)CC[NH2+]c1c2ccccc2[n+](C)c2scc(-c3ccccc3)c12 (3D coordinates assigned)
CCN(CC)CC[NH2+]c1c2ccccc2[n+](C)c2scc(-c3ccccc3)c12 (optimized conformer: 126.583666607209 kcal/mol)

>  <smiles>  (7) 
CCN(CC)CCNc1c2ccccc2[n+](C)c2scc(-c3ccccc3)c12

>  <score_type>  (7) 
oracle

>  <origin>  (7) 
adg

>  <m_score__min__energy>  (7) 
-5.0499999999999998

>  <m_primary>  (7) 
energy

$$$$
7:0
     RDKit          3D

 55 58  0  0  0  0  0  0  0  0999 V2000
   59.9170   34.1860   49.5470 C   0  0  0  0  0  0  0  0  0  0  0  0
   61.3040   34.2100   48.9080 C   0  0  0  0  0  0  0  0  0  0  0  0
   61.2730   33.7490   47.4990 N   0  0  0  0  0  0  0  0  0  0  0  0
   62.6340   33.6510   46.9290 C   0  0  0  0  0  0  0  0  0  0  0  0
   63.3320   32.3930   47.4380 C   0  0  0  0  0  0  0  0  0  0  0  0
   60.3530   34.5200   46.6260 C   0  0  0  0  0  0  0  0  0  0  0  0
   59.5990   33.6620   45.5950 C   0  0  0  0  0  0  0  0  0  0  0  0
   58.6530   32.7720   46.2690 N   0  0  0  0  0  0  0  0  0  0  0  0
   58.7310   31.3430   46.1180 C   0  0  0  0  0  0  0  0  0  0  0  0
   58.0740   30.7060   45.0520 C   0  0  0  0  0  0  0  0  0  0  0  0
   57.3330   31.4470   44.1040 C   0  0  0  0  0  0  0  0  0  0  0  0
   56.6420   30.8050   43.0800 C   0  0  0  0  0  0  0  0  0  0  0  0
   56.6650   29.4190   42.9870 C   0  0  0  0  0  0  0  0  0  0  0  0
   57.4000   28.6670   43.9030 C   0  0  0  0  0  0  0  0  0  0  0  0
   58.1450   29.2920   44.9350 C   0  0  0  0  0  0  0  0  0  0  0  0
   58.9100   28.5610   45.8220 N   0  0  0  0  0  0  0  0  0  0  0  0
   59.2910   27.1740   45.4760 C   0  0  0  0  0  0  0  0  0  0  0  0
   59.4040   29.1600   46.9690 C   0  0  0  0  0  0  0  0  0  0  0  0
   59.9080   28.4240   48.0780 C   0  0  0  0  0  0  0  0  0  0  0  0
   59.7160   27.1780   48.1480 O   0  0  0  0  0  0  0  0  0  0  0  0
   60.5510   29.0650   49.1080 N   0  0  0  0  0  0  0  0  0  0  0  0
   61.1000   28.3450   50.1410 C   0  0  0  0  0  0  0  0  0  0  0  0
   61.7720   28.9820   51.1850 C   0  0  0  0  0  0  0  0  0  0  0  0
   61.8850   30.3670   51.1820 C   0  0  0  0  0  0  0  0  0  0  0  0
   61.3240   31.1010   50.1430 C   0  0  0  0  0  0  0  0  0  0  0  0
   60.6510   30.4380   49.1030 C   0  0  0  0  0  0  0  0  0  0  0  0
   60.0750   31.1640   48.1090 N   0  0  0  0  0  0  0  0  0  0  0  0
   59.4060   30.5670   47.0810 C   0  0  0  0  0  0  0  0  0  0  0  0
   60.0179   34.1877   50.6424 H   0  0  0  0  0  0  0  0  0  0  0  0
   59.3516   35.0745   49.2294 H   0  0  0  0  0  0  0  0  0  0  0  0
   59.3826   33.2785   49.2294 H   0  0  0  0  0  0  0  0  0  0  0  0
   61.6908   35.2394   48.9367 H   0  0  0  0  0  0  0  0  0  0  0  0
   61.9522   33.5262   49.4757 H   0  0  0  0  0  0  0  0  0  0  0  0
   62.5658   33.6095   45.8319 H   0  0  0  0  0  0  0  0  0  0  0  0
   63.2154   34.5324   47.2373 H   0  0  0  0  0  0  0  0  0  0  0  0
   63.3319   32.3932   48.5380 H   0  0  0  0  0  0  0  0  0  0  0  0
   62.7983   31.5037   47.0714 H   0  0  0  0  0  0  0  0  0  0  0  0
   64.3690   32.3753   47.0714 H   0  0  0  0  0  0  0  0  0  0  0  0
   59.6121   35.0237   47.2643 H   0  0  0  0  0  0  0  0  0  0  0  0
   60.9741   35.2273   46.0567 H   0  0  0  0  0  0  0  0  0  0  0  0
   59.0497   34.3212   44.9067 H   0  0  0  0  0  0  0  0  0  0  0  0
   60.3255   33.0543   45.0357 H   0  0  0  0  0  0  0  0  0  0  0  0
   58.1030   33.1620   47.0690 H   0  0  0  0  0  0  0  0  0  0  0  0
   57.3018   32.5442   44.1760 H   0  0  0  0  0  0  0  0  0  0  0  0
   56.0772   31.3958   42.3438 H   0  0  0  0  0  0  0  0  0  0  0  0
   56.1019   28.9134   42.1887 H   0  0  0  0  0  0  0  0  0  0  0  0
   57.4019   27.5699   43.8236 H   0  0  0  0  0  0  0  0  0  0  0  0
   59.4497   26.5964   46.3986 H   0  0  0  0  0  0  0  0  0  0  0  0
   58.4872   26.7093   44.8861 H   0  0  0  0  0  0  0  0  0  0  0  0
   60.2194   27.1851   44.8861 H   0  0  0  0  0  0  0  0  0  0  0  0
   61.0085   27.2488   50.1453 H   0  0  0  0  0  0  0  0  0  0  0  0
   62.2090   28.3922   52.0042 H   0  0  0  0  0  0  0  0  0  0  0  0
   62.4156   30.8801   51.9976 H   0  0  0  0  0  0  0  0  0  0  0  0
   61.4068   32.1978   50.1352 H   0  0  0  0  0  0  0  0  0  0  0  0
   60.1680   32.2040   48.1420 H   0  0  0  0  0  0  0  0  0  0  0  0
  1  2  1  0
  2  3  1  0
  3  4  1  0
  4  5  1  0
  3  6  1  0
  6  7  1  0
  7  8  1  0
  8  9  1  0
  9 10  2  0
 10 11  1  0
 11 12  2  0
 12 13  1  0
 13 14  2  0
 14 15  1  0
 15 16  2  0
 16 17  1  0
 16 18  1  0
 18 19  1  0
 19 20  2  0
 19 21  1  0
 21 22  1  0
 22 23  2  0
 23 24  1  0
 24 25  2  0
 25 26  1  0
 26 27  2  0
 27 28  1  0
 28  9  1  0
 15 10  1  0
 28 18  2  0
 26 21  1  0
  1 29  1  0
  1 30  1  0
  1 31  1  0
  2 32  1  0
  2 33  1  0
  4 34  1  0
  4 35  1  0
  5 36  1  0
  5 37  1  0
  5 38  1  0
  6 39  1  0
  6 40  1  0
  7 41  1  0
  7 42  1  0
  8 43  1  0
 11 44  1  0
 12 45  1  0
 13 46  1  0
 14 47  1  0
 17 48  1  0
 17 49  1  0
 17 50  1  0
 22 51  1  0
 23 52  1  0
 24 53  1  0
 25 54  1  0
 27 55  1  0
M  CHG  2  16   1  27   1
M  END
>  <UniqueID>  (8) 
8

>  <SMILES>  (8) 
CCN(CC)CCNc1c2ccccc2[n+](C)c2c(=O)n3ccccc3[nH+]c12

>  <Energy>  (8) 
94.86969081222244

>  <Genealogy>  (8) 
CCN(CC)CCNc1c2ccccc2[n+](C)c2c(=O)n3ccccc3[nH+]c12 (protonated)
CCN(CC)CCNc1c2ccccc2[n+](C)c2c(=O)n3ccccc3[nH+]c12 (3D coordinates assigned)
CCN(CC)CCNc1c2ccccc2[n+](C)c2c(=O)n3ccccc3[nH+]c12 (optimized conformer: 94.86969081222244 kcal/mol)

>  <smiles>  (8) 
CCN(CC)CCNc1c2ccccc2[n+](C)c2c(=O)n3ccccc3nc12

>  <score_type>  (8) 
oracle

>  <origin>  (8) 
adg

>  <m_score__min__energy>  (8) 
-4.6799999999999997

>  <m_primary>  (8) 
energy

$$$$
8:0
     RDKit          3D

 42 45  0  0  0  0  0  0  0  0999 V2000
   57.1140   23.2840   44.1160 Cl  0  0  0  0  0  0  0  0  0  0  0  0
   57.3540   25.0170   44.2470 C   0  0  0  0  0  0  0  0  0  0  0  0
   57.1310   25.6640   45.4650 C   0  0  0  0  0  0  0  0  0  0  0  0
   57.3220   27.0460   45.5720 C   0  0  0  0  0  0  0  0  0  0  0  0
   57.7390   27.7960   44.4560 C   0  0  0  0  0  0  0  0  0  0  0  0
   57.9410   29.2640   44.5660 C   0  0  0  0  0  0  0  0  0  0  0  0
   58.8000   29.7970   45.5430 C   0  0  0  0  0  0  0  0  0  0  0  0
   58.9910   31.1790   45.6450 C   0  0  0  0  0  0  0  0  0  0  0  0
   58.3280   32.0550   44.7650 C   0  0  0  0  0  0  0  0  0  0  0  0
   58.4890   33.4480   44.8190 O   0  0  0  0  0  0  0  0  0  0  0  0
   58.2750   34.2590   45.9750 C   0  0  0  0  0  0  0  0  0  0  0  0
   59.4420   34.1560   46.9200 C   0  0  0  0  0  0  0  0  0  0  0  0
   59.2930   34.5150   48.2680 C   0  0  0  0  0  0  0  0  0  0  0  0
   60.3820   34.4190   49.1340 C   0  0  0  0  0  0  0  0  0  0  0  0
   61.6180   33.9760   48.6520 C   0  0  0  0  0  0  0  0  0  0  0  0
   62.7300   33.8700   49.5020 C   0  0  0  0  0  0  0  0  0  0  0  0
   63.9570   33.4280   48.9960 C   0  0  0  0  0  0  0  0  0  0  0  0
   64.0800   33.0920   47.6450 C   0  0  0  0  0  0  0  0  0  0  0  0
   62.9780   33.1950   46.7900 C   0  0  0  0  0  0  0  0  0  0  0  0
   61.7400   33.6370   47.2860 C   0  0  0  0  0  0  0  0  0  0  0  0
   60.6580   33.7400   46.4590 N   0  0  0  0  0  0  0  0  0  0  0  0
   57.4690   31.5240   43.7970 C   0  0  0  0  0  0  0  0  0  0  0  0
   57.2760   30.1440   43.6930 C   0  0  0  0  0  0  0  0  0  0  0  0
   57.9600   27.1330   43.2350 C   0  0  0  0  0  0  0  0  0  0  0  0
   57.7690   25.7520   43.1330 C   0  0  0  0  0  0  0  0  0  0  0  0
   56.8045   25.0856   46.3419 H   0  0  0  0  0  0  0  0  0  0  0  0
   57.1453   27.5495   46.5339 H   0  0  0  0  0  0  0  0  0  0  0  0
   59.3265   29.1214   46.2332 H   0  0  0  0  0  0  0  0  0  0  0  0
   59.6626   31.5832   46.4167 H   0  0  0  0  0  0  0  0  0  0  0  0
   58.1538   35.3070   45.6636 H   0  0  0  0  0  0  0  0  0  0  0  0
   57.3695   33.9074   46.4912 H   0  0  0  0  0  0  0  0  0  0  0  0
   58.3211   34.8708   48.6405 H   0  0  0  0  0  0  0  0  0  0  0  0
   60.2691   34.6911   50.1938 H   0  0  0  0  0  0  0  0  0  0  0  0
   62.6366   34.1344   50.5657 H   0  0  0  0  0  0  0  0  0  0  0  0
   64.8275   33.3447   49.6633 H   0  0  0  0  0  0  0  0  0  0  0  0
   65.0473   32.7452   47.2526 H   0  0  0  0  0  0  0  0  0  0  0  0
   63.0807   32.9295   45.7275 H   0  0  0  0  0  0  0  0  0  0  0  0
   60.7590   33.4920   45.4470 H   0  0  0  0  0  0  0  0  0  0  0  0
   56.9395   32.2005   43.1099 H   0  0  0  0  0  0  0  0  0  0  0  0
   56.5997   29.7432   42.9236 H   0  0  0  0  0  0  0  0  0  0  0  0
   58.2855   27.7056   42.3540 H   0  0  0  0  0  0  0  0  0  0  0  0
   57.9457   25.2428   42.1741 H   0  0  0  0  0  0  0  0  0  0  0  0
  1  2  1  0
  2  3  2  0
  3  4  1  0
  4  5  2  0
  5  6  1  0
  6  7  2  0
  7  8  1  0
  8  9  2  0
  9 10  1  0
 10 11  1  0
 11 12  1  0
 12 13  2  0
 13 14  1  0
 14 15  2  0
 15 16  1  0
 16 17  2  0
 17 18  1  0
 18 19  2  0
 19 20  1  0
 20 21  2  0
  9 22  1  0
 22 23  2  0
  5 24  1  0
 24 25  2  0
 25  2  1  0
 23  6  1  0
 21 12  1  0
 20 15  1  0
  3 26  1  0
  4 27  1  0
  7 28  1  0
  8 29  1  0
 11 30  1  0
 11 31  1  0
 13 32  1  0
 14 33  1  0
 16 34  1  0
 17 35  1  0
 18 36  1  0
 19 37  1  0
 21 38  1  0
 22 39  1  0
 23 40  1  0
 24 41  1  0
 25 42  1  0
M  CHG  1  21   1
M  END
>  <UniqueID>  (9) 
9

>  <SMILES>  (9) 
Clc1ccc(-c2ccc(OCc3ccc4ccccc4[nH+]3)cc2)cc1

>  <Energy>  (9) 
54.729277864103565

>  <Genealogy>  (9) 
Clc1ccc(-c2ccc(OCc3ccc4ccccc4[nH+]3)cc2)cc1 (protonated)
Clc1ccc(-c2ccc(OCc3ccc4ccccc4[nH+]3)cc2)cc1 (3D coordinates assigned)
Clc1ccc(-c2ccc(OCc3ccc4ccccc4[nH+]3)cc2)cc1 (optimized conformer: 54.729277864103565 kcal/mol)

>  <smiles>  (9) 
Clc1ccc(-c2ccc(OCc3ccc4ccccc4n3)cc2)cc1

>  <score_type>  (9) 
oracle

>  <origin>  (9) 
adg

>  <m_score__min__energy>  (9) 
-7.2300000000000004

>  <m_primary>  (9) 
energy

$$$$
9:0
     RDKit          3D

 70 74  0  0  0  0  0  0  0  0999 V2000
   63.1510   33.5100   47.1640 C   0  0  0  0  0  0  0  0  0  0  0  0
   63.2220   32.6090   48.3250 N   0  0  0  0  0  0  0  0  0  0  0  0
   64.5080   32.7290   49.0250 C   0  0  0  0  0  0  0  0  0  0  0  0
   62.0450   32.7070   49.2220 C   0  0  0  0  0  0  0  0  0  0  0  0
   60.8380   31.8260   48.8280 C   0  0  0  0  0  0  0  0  0  0  0  0
   60.9800   31.2550   47.4910 N   0  0  0  0  0  0  0  0  0  0  0  0
   59.8380   31.1390   46.6290 C   0  0  0  0  0  0  0  0  0  0  0  0
   59.2890   32.2800   46.0160 C   0  0  0  0  0  0  0  0  0  0  0  0
   59.8030   33.5640   46.2880 C   0  0  0  0  0  0  0  0  0  0  0  0
   59.2260   34.6970   45.7190 C   0  0  0  0  0  0  0  0  0  0  0  0
   58.1240   34.5730   44.8820 C   0  0  0  0  0  0  0  0  0  0  0  0
   57.6000   33.3140   44.5960 C   0  0  0  0  0  0  0  0  0  0  0  0
   58.1810   32.1380   45.1370 C   0  0  0  0  0  0  0  0  0  0  0  0
   57.6800   30.8810   44.8490 N   0  0  0  0  0  0  0  0  0  0  0  0
   56.7260   30.7020   43.7330 C   0  0  0  0  0  0  0  0  0  0  0  0
   58.0900   29.7880   45.5920 C   0  0  0  0  0  0  0  0  0  0  0  0
   57.4050   28.5460   45.5310 C   0  0  0  0  0  0  0  0  0  0  0  0
   57.8640   27.4250   46.2280 C   0  0  0  0  0  0  0  0  0  0  0  0
   57.1370   26.2300   46.1170 O   0  0  0  0  0  0  0  0  0  0  0  0
   57.3130   25.0990   46.9660 C   0  0  0  0  0  0  0  0  0  0  0  0
   56.3780   23.9400   46.5610 C   0  0  0  0  0  0  0  0  0  0  0  0
   56.7970   23.1020   45.3920 N   0  0  1  0  0  0  0  0  0  0  0  0
   58.2870   23.0030   45.2780 C   0  0  0  0  0  0  0  0  0  0  0  0
   58.7010   22.0490   44.1270 C   0  0  0  0  0  0  0  0  0  0  0  0
   57.4420   21.5140   43.4220 C   0  0  1  0  0  0  0  0  0  0  0  0
   56.6010   20.7610   44.4610 C   0  0  0  0  0  0  0  0  0  0  0  0
   56.2440   21.7260   45.6180 C   0  0  0  0  0  0  0  0  0  0  0  0
   56.6130   22.7060   42.9140 C   0  0  0  0  0  0  0  0  0  0  0  0
   56.2490   23.6320   44.1040 C   0  0  0  0  0  0  0  0  0  0  0  0
   59.0210   27.5290   47.0110 C   0  0  0  0  0  0  0  0  0  0  0  0
   59.6810   28.7490   47.1300 C   0  0  0  0  0  0  0  0  0  0  0  0
   59.2110   29.8930   46.4550 C   0  0  0  0  0  0  0  0  0  0  0  0
   63.0690   34.5504   47.5117 H   0  0  0  0  0  0  0  0  0  0  0  0
   64.0608   33.3972   46.5561 H   0  0  0  0  0  0  0  0  0  0  0  0
   62.2701   33.2561   46.5561 H   0  0  0  0  0  0  0  0  0  0  0  0
   64.3369   32.7130   50.1115 H   0  0  0  0  0  0  0  0  0  0  0  0
   65.1584   31.8876   48.7438 H   0  0  0  0  0  0  0  0  0  0  0  0
   64.9915   33.6762   48.7438 H   0  0  0  0  0  0  0  0  0  0  0  0
   62.3634   32.4142   50.2334 H   0  0  0  0  0  0  0  0  0  0  0  0
   61.6965   33.7481   49.1532 H   0  0  0  0  0  0  0  0  0  0  0  0
   60.7469   31.0055   49.5550 H   0  0  0  0  0  0  0  0  0  0  0  0
   59.9421   32.4643   48.8274 H   0  0  0  0  0  0  0  0  0  0  0  0
   61.9280   31.1370   47.0640 H   0  0  0  0  0  0  0  0  0  0  0  0
   60.6694   33.6725   46.9570 H   0  0  0  0  0  0  0  0  0  0  0  0
   59.6437   35.6919   45.9328 H   0  0  0  0  0  0  0  0  0  0  0  0
   57.6640   35.4711   44.4440 H   0  0  0  0  0  0  0  0  0  0  0  0
   56.7211   33.2304   43.9398 H   0  0  0  0  0  0  0  0  0  0  0  0
   55.7204   30.5133   44.1369 H   0  0  0  0  0  0  0  0  0  0  0  0
   56.7084   31.6125   43.1160 H   0  0  0  0  0  0  0  0  0  0  0  0
   57.0397   29.8470   43.1160 H   0  0  0  0  0  0  0  0  0  0  0  0
   56.4928   28.4642   44.9217 H   0  0  0  0  0  0  0  0  0  0  0  0
   58.3565   24.7581   46.8963 H   0  0  0  0  0  0  0  0  0  0  0  0
   57.0680   25.3978   47.9959 H   0  0  0  0  0  0  0  0  0  0  0  0
   56.2822   23.2724   47.4300 H   0  0  0  0  0  0  0  0  0  0  0  0
   55.4438   24.4258   46.2427 H   0  0  0  0  0  0  0  0  0  0  0  0
   58.6987   24.0036   45.0799 H   0  0  0  0  0  0  0  0  0  0  0  0
   58.6819   22.6003   46.2224 H   0  0  0  0  0  0  0  0  0  0  0  0
   59.3213   22.5970   43.4025 H   0  0  0  0  0  0  0  0  0  0  0  0
   59.2747   21.2061   44.5396 H   0  0  0  0  0  0  0  0  0  0  0  0
   57.7216   20.8572   42.5851 H   0  0  0  0  0  0  0  0  0  0  0  0
   55.6776   20.3922   43.9905 H   0  0  0  0  0  0  0  0  0  0  0  0
   57.1731   19.9072   44.8531 H   0  0  0  0  0  0  0  0  0  0  0  0
   55.1491   21.7922   45.7003 H   0  0  0  0  0  0  0  0  0  0  0  0
   56.6888   21.3283   46.5421 H   0  0  0  0  0  0  0  0  0  0  0  0
   57.2002   23.2722   42.1760 H   0  0  0  0  0  0  0  0  0  0  0  0
   55.6900   22.3351   42.4443 H   0  0  0  0  0  0  0  0  0  0  0  0
   56.6680   24.6325   43.9209 H   0  0  0  0  0  0  0  0  0  0  0  0
   55.1530   23.6784   44.1856 H   0  0  0  0  0  0  0  0  0  0  0  0
   59.4097   26.6428   47.5341 H   0  0  0  0  0  0  0  0  0  0  0  0
   60.5807   28.8207   47.7589 H   0  0  0  0  0  0  0  0  0  0  0  0
  1  2  1  0
  2  3  1  0
  2  4  1  0
  4  5  1  0
  5  6  1  0
  6  7  1  0
  7  8  2  0
  8  9  1  0
  9 10  2  0
 10 11  1  0
 11 12  2  0
 12 13  1  0
 13 14  2  0
 14 15  1  0
 14 16  1  0
 16 17  2  0
 17 18  1  0
 18 19  1  0
 19 20  1  0
 20 21  1  0
 22 21  1  1
 22 23  1  0
 23 24  1  0
 24 25  1  0
 25 26  1  0
 26 27  1  0
 25 28  1  0
 28 29  1  0
 18 30  2  0
 30 31  1  0
 31 32  2  0
 32  7  1  0
 13  8  1  0
 32 16  1  0
 27 22  1  0
 29 22  1  0
  1 33  1  0
  1 34  1  0
  1 35  1  0
  3 36  1  0
  3 37  1  0
  3 38  1  0
  4 39  1  0
  4 40  1  0
  5 41  1  0
  5 42  1  0
  6 43  1  0
  9 44  1  0
 10 45  1  0
 11 46  1  0
 12 47  1  0
 15 48  1  0
 15 49  1  0
 15 50  1  0
 17 51  1  0
 20 52  1  0
 20 53  1  0
 21 54  1  0
 21 55  1  0
 23 56  1  0
 23 57  1  0
 24 58  1  0
 24 59  1  0
 25 60  1  6
 26 61  1  0
 26 62  1  0
 27 63  1  0
 27 64  1  0
 28 65  1  0
 28 66  1  0
 29 67  1  0
 29 68  1  0
 30 69  1  0
 31 70  1  0
M  CHG  2  14   1  22   1
M  END
>  <UniqueID>  (10) 
10

>  <SMILES>  (10) 
CN(C)CCNc1c2ccccc2[n+](C)c2cc(OCC[N+]34CCC(CC3)CC4)ccc12

>  <Energy>  (10) 
122.34232884518724

>  <Genealogy>  (10) 
CN(C)CCNc1c2ccccc2[n+](C)c2cc(OCC[N+]34CCC(CC3)CC4)ccc12 (3D coordinates assigned)
CN(C)CCNc1c2ccccc2[n+](C)c2cc(OCC[N+]34CCC(CC3)CC4)ccc12 (nonaromatic ring conformer: 122.34232884518724 kcal/mol)

>  <smiles>  (10) 
CN(C)CCNc1c2ccccc2[n+](C)c2cc(OCC[N+]34CCC(CC3)CC4)ccc12

>  <score_type>  (10) 
oracle

>  <origin>  (10) 
adg

>  <m_score__min__energy>  (10) 
-5.3499999999999996

>  <m_primary>  (10) 
energy

$$$$
10:0
     RDKit          3D

 43 45  0  0  0  0  0  0  0  0999 V2000
   56.2950   29.7080   42.6580 C   0  0  0  0  0  0  0  0  0  0  0  0
   55.6210   30.0380   43.9810 C   0  0  0  0  0  0  0  0  0  0  0  0
   56.6000   30.0850   44.9990 O   0  0  0  0  0  0  0  0  0  0  0  0
   57.8290   29.5610   44.5370 C   0  0  0  0  0  0  0  0  0  0  0  0
   59.0190   30.3740   45.0980 C   0  0  2  0  0  0  0  0  0  0  0  0
   59.8960   29.5420   46.0890 C   0  0  0  0  0  0  0  0  0  0  0  0
   59.4970   29.6510   47.5140 N   0  0  0  0  0  0  0  0  0  0  0  0
   58.7110   28.5530   48.1110 C   0  0  0  0  0  0  0  0  0  0  0  0
   58.4760   27.4030   47.1720 C   0  0  0  0  0  0  0  0  0  0  0  0
   59.4880   26.4720   46.8870 C   0  0  0  0  0  0  0  0  0  0  0  0
   59.2330   25.4360   45.9850 C   0  0  0  0  0  0  0  0  0  0  0  0
   57.9870   25.3450   45.3640 C   0  0  0  0  0  0  0  0  0  0  0  0
   57.0100   26.3010   45.6510 C   0  0  0  0  0  0  0  0  0  0  0  0
   57.2750   27.2990   46.5360 N   0  0  0  0  0  0  0  0  0  0  0  0
   59.3060   31.0060   48.0680 C   0  0  0  0  0  0  0  0  0  0  0  0
   58.5990   31.8800   47.0920 C   0  0  0  0  0  0  0  0  0  0  0  0
   58.0890   33.1480   47.2760 C   0  0  0  0  0  0  0  0  0  0  0  0
   57.7320   33.6500   46.0750 N   0  0  0  0  0  0  0  0  0  0  0  0
   58.0230   32.7450   45.1500 N   0  0  0  0  0  0  0  0  0  0  0  0
   57.7690   32.9520   43.7300 C   0  0  0  0  0  0  0  0  0  0  0  0
   58.5520   31.6520   45.7460 C   0  0  0  0  0  0  0  0  0  0  0  0
   57.2677   29.2318   42.8508 H   0  0  0  0  0  0  0  0  0  0  0  0
   55.6574   29.0201   42.0832 H   0  0  0  0  0  0  0  0  0  0  0  0
   56.4473   30.6334   42.0832 H   0  0  0  0  0  0  0  0  0  0  0  0
   55.1203   31.0146   43.9059 H   0  0  0  0  0  0  0  0  0  0  0  0
   54.8746   29.2660   44.2197 H   0  0  0  0  0  0  0  0  0  0  0  0
   57.9208   28.5149   44.8645 H   0  0  0  0  0  0  0  0  0  0  0  0
   57.8473   29.6218   43.4388 H   0  0  0  0  0  0  0  0  0  0  0  0
   59.6547   30.6315   44.2380 H   0  0  0  0  0  0  0  0  0  0  0  0
   59.8333   28.4836   45.7959 H   0  0  0  0  0  0  0  0  0  0  0  0
   60.9147   29.9514   46.0201 H   0  0  0  0  0  0  0  0  0  0  0  0
   59.2513   28.1776   48.9925 H   0  0  0  0  0  0  0  0  0  0  0  0
   57.7247   28.9654   48.3699 H   0  0  0  0  0  0  0  0  0  0  0  0
   60.4727   26.5577   47.3697 H   0  0  0  0  0  0  0  0  0  0  0  0
   60.0137   24.6930   45.7647 H   0  0  0  0  0  0  0  0  0  0  0  0
   57.7764   24.5296   44.6564 H   0  0  0  0  0  0  0  0  0  0  0  0
   56.0265   26.2467   45.1613 H   0  0  0  0  0  0  0  0  0  0  0  0
   58.7096   30.9382   48.9898 H   0  0  0  0  0  0  0  0  0  0  0  0
   60.2928   31.4422   48.2824 H   0  0  0  0  0  0  0  0  0  0  0  0
   57.9896   33.6649   48.2419 H   0  0  0  0  0  0  0  0  0  0  0  0
   56.9218   33.6425   43.6059 H   0  0  0  0  0  0  0  0  0  0  0  0
   58.6642   33.3811   43.2561 H   0  0  0  0  0  0  0  0  0  0  0  0
   57.5294   31.9887   43.2561 H   0  0  0  0  0  0  0  0  0  0  0  0
  1  2  1  0
  2  3  1  0
  3  4  1  0
  4  5  1  0
  5  6  1  0
  6  7  1  0
  7  8  1  0
  8  9  1  0
  9 10  2  0
 10 11  1  0
 11 12  2  0
 12 13  1  0
 13 14  2  0
  7 15  1  0
 15 16  1  0
 16 17  1  0
 17 18  2  0
 18 19  1  0
 19 20  1  0
 19 21  1  0
 21  5  1  0
 14  9  1  0
 21 16  2  0
  1 22  1  0
  1 23  1  0
  1 24  1  0
  2 25  1  0
  2 26  1  0
  4 27  1  0
  4 28  1  0
  5 29  1  6
  6 30  1  0
  6 31  1  0
  8 32  1  0
  8 33  1  0
 10 34  1  0
 11 35  1  0
 12 36  1  0
 13 37  1  0
 15 38  1  0
 15 39  1  0
 17 40  1  0
 20 41  1  0
 20 42  1  0
 20 43  1  0
M  END
>  <UniqueID>  (11) 
11

>  <SMILES>  (11) 
CCOC[C@@H]1CN(Cc2ccccn2)Cc2cnn(C)c21

>  <Energy>  (11) 
89.73357342326885

>  <Genealogy>  (11) 
CCOC[C@@H]1CN(Cc2ccccn2)Cc2cnn(C)c21 (chirality)
CCOC[C@@H]1CN(Cc2ccccn2)Cc2cnn(C)c21 (3D coordinates assigned)
CCOC[C@@H]1CN(Cc2ccccn2)Cc2cnn(C)c21 (nonaromatic ring conformer: 89.73357342326885 kcal/mol)

>  <smiles>  (11) 
CCOCC1CN(Cc2ccccn2)Cc2cnn(C)c21

>  <score_type>  (11) 
oracle

>  <origin>  (11) 
adg

>  <m_score__min__energy>  (11) 
-6.8399999999999999

>  <m_primary>  (11) 
energy

$$$$
11:0
     RDKit          3D

 72 75  0  0  0  0  0  0  0  0999 V2000
   60.0740   34.2000   49.4980 C   0  0  0  0  0  0  0  0  0  0  0  0
   59.6490   33.4840   48.2090 C   0  0  0  0  0  0  0  0  0  0  0  0
   60.6450   33.5600   47.1070 N   0  0  0  0  0  0  0  0  0  0  0  0
   60.1450   34.3950   45.9880 C   0  0  0  0  0  0  0  0  0  0  0  0
   58.6590   34.1470   45.7500 C   0  0  0  0  0  0  0  0  0  0  0  0
   62.0030   33.9940   47.5290 C   0  0  0  0  0  0  0  0  0  0  0  0
   63.1590   33.3140   46.7450 C   0  0  0  0  0  0  0  0  0  0  0  0
   63.5100   31.9350   47.1640 N   0  0  0  0  0  0  0  0  0  0  0  0
   62.6320   31.3570   48.1630 C   0  0  0  0  0  0  0  0  0  0  0  0
   61.4530   30.6510   47.7900 C   0  0  0  0  0  0  0  0  0  0  0  0
   61.1380   30.4070   46.4340 C   0  0  0  0  0  0  0  0  0  0  0  0
   59.9710   29.7400   46.0720 C   0  0  0  0  0  0  0  0  0  0  0  0
   59.0670   29.3170   47.0380 C   0  0  0  0  0  0  0  0  0  0  0  0
   57.8940   28.6740   46.6100 O   0  0  0  0  0  0  0  0  0  0  0  0
   57.7750   27.9320   45.4010 C   0  0  0  0  0  0  0  0  0  0  0  0
   59.3520   29.5450   48.3920 C   0  0  0  0  0  0  0  0  0  0  0  0
   60.5560   30.1770   48.8000 C   0  0  0  0  0  0  0  0  0  0  0  0
   60.8520   30.3470   50.1420 N   0  0  0  0  0  0  0  0  0  0  0  0
   60.1580   29.5140   51.1400 C   0  0  0  0  0  0  0  0  0  0  0  0
   61.9080   31.1620   50.4900 C   0  0  0  0  0  0  0  0  0  0  0  0
   62.8350   31.5850   49.5420 C   0  0  0  0  0  0  0  0  0  0  0  0
   63.8080   32.2950   50.2510 C   0  0  0  0  0  0  0  0  0  0  0  0
   65.0480   32.8530   49.8910 C   0  0  0  0  0  0  0  0  0  0  0  0
   65.7660   33.5750   50.8560 C   0  0  0  0  0  0  0  0  0  0  0  0
   65.2570   33.7290   52.1550 C   0  0  0  0  0  0  0  0  0  0  0  0
   64.0470   33.1230   52.5160 C   0  0  0  0  0  0  0  0  0  0  0  0
   63.3590   32.3660   51.5550 C   0  0  0  0  0  0  0  0  0  0  0  0
   62.2110   31.6640   51.7320 N   0  0  0  0  0  0  0  0  0  0  0  0
   61.3880   31.7290   52.9550 C   0  0  0  0  0  0  0  0  0  0  0  0
   60.5700   33.0340   53.0710 C   0  0  0  0  0  0  0  0  0  0  0  0
   59.2840   32.9510   52.3350 N   0  0  0  0  0  0  0  0  0  0  0  0
   58.5230   34.2040   52.4510 C   0  0  0  0  0  0  0  0  0  0  0  0
   58.4590   31.8300   52.8170 C   0  0  0  0  0  0  0  0  0  0  0  0
   59.7309   33.6220   50.3687 H   0  0  0  0  0  0  0  0  0  0  0  0
   61.1702   34.2872   49.5246 H   0  0  0  0  0  0  0  0  0  0  0  0
   59.6256   35.2041   49.5246 H   0  0  0  0  0  0  0  0  0  0  0  0
   59.4774   32.4234   48.4451 H   0  0  0  0  0  0  0  0  0  0  0  0
   58.7437   33.9952   47.8498 H   0  0  0  0  0  0  0  0  0  0  0  0
   60.2989   35.4563   46.2330 H   0  0  0  0  0  0  0  0  0  0  0  0
   60.6978   34.1291   45.0749 H   0  0  0  0  0  0  0  0  0  0  0  0
   58.1421   34.0607   46.7172 H   0  0  0  0  0  0  0  0  0  0  0  0
   58.2337   34.9866   45.1806 H   0  0  0  0  0  0  0  0  0  0  0  0
   58.5294   33.2148   45.1806 H   0  0  0  0  0  0  0  0  0  0  0  0
   62.0791   35.0815   47.3823 H   0  0  0  0  0  0  0  0  0  0  0  0
   62.1173   33.6981   48.5823 H   0  0  0  0  0  0  0  0  0  0  0  0
   62.8706   33.2796   45.6840 H   0  0  0  0  0  0  0  0  0  0  0  0
   64.0526   33.9215   46.9510 H   0  0  0  0  0  0  0  0  0  0  0  0
   63.5930   31.3110   46.3390 H   0  0  0  0  0  0  0  0  0  0  0  0
   64.4920   31.9320   47.5180 H   0  0  0  0  0  0  0  0  0  0  0  0
   61.8283   30.7508   45.6496 H   0  0  0  0  0  0  0  0  0  0  0  0
   59.7625   29.5458   45.0095 H   0  0  0  0  0  0  0  0  0  0  0  0
   57.6049   26.8712   45.6371 H   0  0  0  0  0  0  0  0  0  0  0  0
   56.9273   28.3179   44.8158 H   0  0  0  0  0  0  0  0  0  0  0  0
   58.7009   28.0335   44.8158 H   0  0  0  0  0  0  0  0  0  0  0  0
   58.6264   29.2270   49.1551 H   0  0  0  0  0  0  0  0  0  0  0  0
   60.4349   29.8464   52.1514 H   0  0  0  0  0  0  0  0  0  0  0  0
   59.0705   29.6118   51.0068 H   0  0  0  0  0  0  0  0  0  0  0  0
   60.4506   28.4620   51.0068 H   0  0  0  0  0  0  0  0  0  0  0  0
   65.4465   32.7258   48.8737 H   0  0  0  0  0  0  0  0  0  0  0  0
   66.7351   34.0238   50.5927 H   0  0  0  0  0  0  0  0  0  0  0  0
   65.8108   34.3282   52.8927 H   0  0  0  0  0  0  0  0  0  0  0  0
   63.6437   33.2381   53.5329 H   0  0  0  0  0  0  0  0  0  0  0  0
   60.6904   30.8785   52.9522 H   0  0  0  0  0  0  0  0  0  0  0  0
   62.0756   31.6976   53.8130 H   0  0  0  0  0  0  0  0  0  0  0  0
   60.3595   33.2280   54.1331 H   0  0  0  0  0  0  0  0  0  0  0  0
   61.1633   33.8475   52.6280 H   0  0  0  0  0  0  0  0  0  0  0  0
   58.3757   34.4465   53.5138 H   0  0  0  0  0  0  0  0  0  0  0  0
   59.0797   35.0176   51.9630 H   0  0  0  0  0  0  0  0  0  0  0  0
   57.5444   34.0851   51.9630 H   0  0  0  0  0  0  0  0  0  0  0  0
   58.4548   31.8243   53.9170 H   0  0  0  0  0  0  0  0  0  0  0  0
   57.4297   31.9466   52.4470 H   0  0  0  0  0  0  0  0  0  0  0  0
   58.8764   30.8819   52.4470 H   0  0  0  0  0  0  0  0  0  0  0  0
  1  2  1  0
  2  3  1  0
  3  4  1  0
  4  5  1  0
  3  6  1  0
  6  7  1  0
  7  8  1  0
  8  9  1  0
  9 10  2  0
 10 11  1  0
 11 12  2  0
 12 13  1  0
 13 14  1  0
 14 15  1  0
 13 16  2  0
 16 17  1  0
 17 18  2  0
 18 19  1  0
 18 20  1  0
 20 21  2  0
 21 22  1  0
 22 23  2  0
 23 24  1  0
 24 25  2  0
 25 26  1  0
 26 27  2  0
 27 28  1  0
 28 29  1  0
 29 30  1  0
 30 31  1  0
 31 32  1  0
 31 33  1  0
 21  9  1  0
 27 22  1  0
 17 10  1  0
 28 20  1  0
  1 34  1  0
  1 35  1  0
  1 36  1  0
  2 37  1  0
  2 38  1  0
  4 39  1  0
  4 40  1  0
  5 41  1  0
  5 42  1  0
  5 43  1  0
  6 44  1  0
  6 45  1  0
  7 46  1  0
  7 47  1  0
  8 48  1  0
  8 49  1  0
 11 50  1  0
 12 51  1  0
 15 52  1  0
 15 53  1  0
 15 54  1  0
 16 55  1  0
 19 56  1  0
 19 57  1  0
 19 58  1  0
 23 59  1  0
 24 60  1  0
 25 61  1  0
 26 62  1  0
 29 63  1  0
 29 64  1  0
 30 65  1  0
 30 66  1  0
 32 67  1  0
 32 68  1  0
 32 69  1  0
 33 70  1  0
 33 71  1  0
 33 72  1  0
M  CHG  2   8   1  18   1
M  END
>  <UniqueID>  (12) 
12

>  <SMILES>  (12) 
CCN(CC)CC[NH2+]c1c2ccc(OC)cc2[n+](C)c2c1c1ccccc1n2CCN(C)C

>  <Energy>  (12) 
148.55891311392617

>  <Genealogy>  (12) 
CCN(CC)CC[NH2+]c1c2ccc(OC)cc2[n+](C)c2c1c1ccccc1n2CCN(C)C (protonated)
CCN(CC)CC[NH2+]c1c2ccc(OC)cc2[n+](C)c2c1c1ccccc1n2CCN(C)C (3D coordinates assigned)
CCN(CC)CC[NH2+]c1c2ccc(OC)cc2[n+](C)c2c1c1ccccc1n2CCN(C)C (optimized conformer: 148.55891311392617 kcal/mol)

>  <smiles>  (12) 
CCN(CC)CCNc1c2ccc(OC)cc2[n+](C)c2c1c1ccccc1n2CCN(C)C

>  <score_type>  (12) 
oracle

>  <origin>  (12) 
adg

>  <m_score__min__energy>  (12) 
-4.96

>  <m_primary>  (12) 
energy

$$$$
12:0
     RDKit          3D

 54 57  0  0  0  0  0  0  0  0999 V2000
   59.6500   30.7220   47.8370 C   0  0  0  0  0  0  0  0  0  0  0  0
   58.5870   31.8070   47.7230 C   0  0  0  0  0  0  0  0  0  0  0  0
   58.6180   32.4050   46.3850 N   0  0  0  0  0  0  0  0  0  0  0  0
   58.8660   33.7010   46.0330 C   0  0  0  0  0  0  0  0  0  0  0  0
   59.2980   34.7840   46.9850 C   0  0  0  0  0  0  0  0  0  0  0  0
   60.7170   34.6180   47.3590 N   0  0  0  0  0  0  0  0  0  0  0  0
   61.3630   33.5480   46.5650 C   0  0  0  0  0  0  0  0  0  0  0  0
   62.9020   33.7060   46.5320 C   0  0  0  0  0  0  0  0  0  0  0  0
   63.5180   34.1810   47.8680 C   0  0  0  0  0  0  0  0  0  0  0  0
   63.1370   33.3590   49.0500 N   0  0  0  0  0  0  0  0  0  0  0  0
   63.8120   32.0440   49.0230 C   0  0  0  0  0  0  0  0  0  0  0  0
   65.0100   32.0350   49.9360 C   0  0  0  0  0  0  0  0  0  0  0  0
   65.9400   33.0830   49.8820 C   0  0  0  0  0  0  0  0  0  0  0  0
   67.0200   33.1080   50.7660 C   0  0  0  0  0  0  0  0  0  0  0  0
   67.1850   32.0840   51.7040 C   0  0  0  0  0  0  0  0  0  0  0  0
   66.2670   31.0280   51.7540 C   0  0  0  0  0  0  0  0  0  0  0  0
   65.1860   31.0030   50.8740 C   0  0  0  0  0  0  0  0  0  0  0  0
   61.6770   33.1630   49.2250 C   0  0  0  0  0  0  0  0  0  0  0  0
   60.8230   34.3870   48.8190 C   0  0  0  0  0  0  0  0  0  0  0  0
   58.6580   33.9520   44.7110 N   0  0  0  0  0  0  0  0  0  0  0  0
   58.2500   32.7620   44.2350 C   0  0  0  0  0  0  0  0  0  0  0  0
   57.8280   32.4670   42.9380 C   0  0  0  0  0  0  0  0  0  0  0  0
   57.3680   31.1620   42.6800 C   0  0  0  0  0  0  0  0  0  0  0  0
   57.3390   30.1940   43.7130 C   0  0  0  0  0  0  0  0  0  0  0  0
   57.7630   30.5270   45.0130 C   0  0  0  0  0  0  0  0  0  0  0  0
   58.2190   31.8300   45.2350 C   0  0  0  0  0  0  0  0  0  0  0  0
   59.8516   30.5163   48.8986 H   0  0  0  0  0  0  0  0  0  0  0  0
   59.2915   29.8045   47.3474 H   0  0  0  0  0  0  0  0  0  0  0  0
   60.5746   31.0616   47.3474 H   0  0  0  0  0  0  0  0  0  0  0  0
   57.5956   31.3649   47.9009 H   0  0  0  0  0  0  0  0  0  0  0  0
   58.7886   32.5881   48.4708 H   0  0  0  0  0  0  0  0  0  0  0  0
   59.1645   35.7632   46.5019 H   0  0  0  0  0  0  0  0  0  0  0  0
   58.6836   34.7192   47.8951 H   0  0  0  0  0  0  0  0  0  0  0  0
   61.1146   32.5739   47.0116 H   0  0  0  0  0  0  0  0  0  0  0  0
   60.9902   33.6162   45.5324 H   0  0  0  0  0  0  0  0  0  0  0  0
   63.3436   32.7318   46.2754 H   0  0  0  0  0  0  0  0  0  0  0  0
   63.1245   34.4838   45.7866 H   0  0  0  0  0  0  0  0  0  0  0  0
   64.6133   34.1549   47.7699 H   0  0  0  0  0  0  0  0  0  0  0  0
   63.1268   35.1927   48.0510 H   0  0  0  0  0  0  0  0  0  0  0  0
   63.1036   31.2689   49.3509 H   0  0  0  0  0  0  0  0  0  0  0  0
   64.1518   31.8448   47.9959 H   0  0  0  0  0  0  0  0  0  0  0  0
   65.8182   33.8872   49.1414 H   0  0  0  0  0  0  0  0  0  0  0  0
   67.7434   33.9356   50.7247 H   0  0  0  0  0  0  0  0  0  0  0  0
   68.0350   32.1081   52.4017 H   0  0  0  0  0  0  0  0  0  0  0  0
   66.3986   30.2186   52.4872 H   0  0  0  0  0  0  0  0  0  0  0  0
   64.4671   30.1714   50.9139 H   0  0  0  0  0  0  0  0  0  0  0  0
   61.3671   32.3059   48.6091 H   0  0  0  0  0  0  0  0  0  0  0  0
   61.5053   32.9982   50.2989 H   0  0  0  0  0  0  0  0  0  0  0  0
   59.8076   34.2421   49.2165 H   0  0  0  0  0  0  0  0  0  0  0  0
   61.3318   35.2693   49.2345 H   0  0  0  0  0  0  0  0  0  0  0  0
   57.8540   33.2283   42.1444 H   0  0  0  0  0  0  0  0  0  0  0  0
   57.0287   30.8923   41.6690 H   0  0  0  0  0  0  0  0  0  0  0  0
   56.9829   29.1756   43.4981 H   0  0  0  0  0  0  0  0  0  0  0  0
   57.7366   29.7873   45.8268 H   0  0  0  0  0  0  0  0  0  0  0  0
  1  2  1  0
  2  3  1  0
  3  4  1  0
  4  5  1  0
  5  6  1  0
  6  7  1  0
  7  8  1  0
  8  9  1  0
  9 10  1  0
 10 11  1  0
 11 12  1  0
 12 13  2  0
 13 14  1  0
 14 15  2  0
 15 16  1  0
 16 17  2  0
 10 18  1  0
 18 19  1  0
  4 20  2  0
 20 21  1  0
 21 22  2  0
 22 23  1  0
 23 24  2  0
 24 25  1  0
 25 26  2  0
 26  3  1  0
 19  6  1  0
 26 21  1  0
 17 12  1  0
  1 27  1  0
  1 28  1  0
  1 29  1  0
  2 30  1  0
  2 31  1  0
  5 32  1  0
  5 33  1  0
  7 34  1  0
  7 35  1  0
  8 36  1  0
  8 37  1  0
  9 38  1  0
  9 39  1  0
 11 40  1  0
 11 41  1  0
 13 42  1  0
 14 43  1  0
 15 44  1  0
 16 45  1  0
 17 46  1  0
 18 47  1  0
 18 48  1  0
 19 49  1  0
 19 50  1  0
 22 51  1  0
 23 52  1  0
 24 53  1  0
 25 54  1  0
M  END
>  <UniqueID>  (13) 
13

>  <SMILES>  (13) 
CCn1c(CN2CCCN(Cc3ccccc3)CC2)nc2ccccc21

>  <Energy>  (13) 
108.6326692641455

>  <Genealogy>  (13) 
CCn1c(CN2CCCN(Cc3ccccc3)CC2)nc2ccccc21 (3D coordinates assigned)
CCn1c(CN2CCCN(Cc3ccccc3)CC2)nc2ccccc21 (nonaromatic ring conformer: 108.6326692641455 kcal/mol)

>  <smiles>  (13) 
CCn1c(CN2CCCN(Cc3ccccc3)CC2)nc2ccccc21

>  <score_type>  (13) 
oracle

>  <origin>  (13) 
adg

>  <m_score__min__energy>  (13) 
-6.1200000000000001

>  <m_primary>  (13) 
energy

$$$$
13:0
     RDKit          3D

 59 62  0  0  0  0  0  0  0  0999 V2000
   58.7630   33.8730   52.1810 C   0  0  0  0  0  0  0  0  0  0  0  0
   59.6330   34.0470   50.9370 C   0  0  0  0  0  0  0  0  0  0  0  0
   60.3290   32.7970   50.5970 N   0  0  0  0  0  0  0  0  0  0  0  0
   59.9760   31.5560   51.3100 C   0  0  0  0  0  0  0  0  0  0  0  0
   58.8610   30.7800   50.5740 C   0  0  0  0  0  0  0  0  0  0  0  0
   59.3160   29.8270   49.4850 C   0  0  0  0  0  0  0  0  0  0  0  0
   59.8520   28.6030   49.7080 N   0  0  0  0  0  0  0  0  0  0  0  0
   60.1230   28.0360   48.5440 N   0  0  0  0  0  0  0  0  0  0  0  0
   59.7400   28.9250   47.6110 C   0  0  0  0  0  0  0  0  0  0  0  0
   59.8490   28.7420   46.2640 N   0  0  0  0  0  0  0  0  0  0  0  0
   60.3890   27.4830   45.7210 C   0  0  0  0  0  0  0  0  0  0  0  0
   59.4410   26.3260   46.0170 C   0  0  0  0  0  0  0  0  0  0  0  0
   59.3970   29.7380   45.4340 C   0  0  0  0  0  0  0  0  0  0  0  0
   59.4530   29.5910   44.1800 O   0  0  0  0  0  0  0  0  0  0  0  0
   58.8600   30.9330   45.9680 C   0  0  0  0  0  0  0  0  0  0  0  0
   58.7380   31.0660   47.3660 C   0  0  0  0  0  0  0  0  0  0  0  0
   59.2190   30.0470   48.1450 N   0  0  0  0  0  0  0  0  0  0  0  0
   58.1500   32.3380   47.9450 C   0  0  0  0  0  0  0  0  0  0  0  0
   57.4510   33.1380   47.0030 O   0  0  0  0  0  0  0  0  0  0  0  0
   58.1680   33.3520   45.7960 C   0  0  0  0  0  0  0  0  0  0  0  0
   57.3110   34.2860   44.9250 C   0  0  0  0  0  0  0  0  0  0  0  0
   59.5330   34.0490   46.0360 C   0  0  0  0  0  0  0  0  0  0  0  0
   58.3460   32.0120   45.0530 C   0  0  0  0  0  0  0  0  0  0  0  0
   61.3020   32.7720   49.5220 C   0  0  0  0  0  0  0  0  0  0  0  0
   62.0760   31.6190   49.2750 C   0  0  0  0  0  0  0  0  0  0  0  0
   63.0130   31.5980   48.2370 C   0  0  0  0  0  0  0  0  0  0  0  0
   63.1910   32.7230   47.4310 C   0  0  0  0  0  0  0  0  0  0  0  0
   64.1000   32.7000   46.4250 F   0  0  0  0  0  0  0  0  0  0  0  0
   62.4330   33.8720   47.6600 C   0  0  0  0  0  0  0  0  0  0  0  0
   61.4940   33.8990   48.6970 C   0  0  0  0  0  0  0  0  0  0  0  0
   59.3822   33.9968   53.0817 H   0  0  0  0  0  0  0  0  0  0  0  0
   57.9641   34.6292   52.1784 H   0  0  0  0  0  0  0  0  0  0  0  0
   58.3164   32.8677   52.1784 H   0  0  0  0  0  0  0  0  0  0  0  0
   58.9951   34.3442   50.0915 H   0  0  0  0  0  0  0  0  0  0  0  0
   60.3869   34.8208   51.1441 H   0  0  0  0  0  0  0  0  0  0  0  0
   60.8691   30.9178   51.3810 H   0  0  0  0  0  0  0  0  0  0  0  0
   59.6075   31.8250   52.3109 H   0  0  0  0  0  0  0  0  0  0  0  0
   58.3087   30.1942   51.3235 H   0  0  0  0  0  0  0  0  0  0  0  0
   58.2576   31.5448   50.0631 H   0  0  0  0  0  0  0  0  0  0  0  0
   60.0370   28.1350   50.6200 H   0  0  0  0  0  0  0  0  0  0  0  0
   60.5121   27.5812   44.6323 H   0  0  0  0  0  0  0  0  0  0  0  0
   61.3605   27.2781   46.1945 H   0  0  0  0  0  0  0  0  0  0  0  0
   59.3406   26.2035   47.1055 H   0  0  0  0  0  0  0  0  0  0  0  0
   58.4545   26.5391   45.5795 H   0  0  0  0  0  0  0  0  0  0  0  0
   59.8440   25.4007   45.5795 H   0  0  0  0  0  0  0  0  0  0  0  0
   57.4511   32.0606   48.7478 H   0  0  0  0  0  0  0  0  0  0  0  0
   58.9960   32.9414   48.3057 H   0  0  0  0  0  0  0  0  0  0  0  0
   56.7096   34.9414   45.5721 H   0  0  0  0  0  0  0  0  0  0  0  0
   57.9670   34.8995   44.2900 H   0  0  0  0  0  0  0  0  0  0  0  0
   56.6435   33.6851   44.2900 H   0  0  0  0  0  0  0  0  0  0  0  0
   59.7127   34.1408   47.1173 H   0  0  0  0  0  0  0  0  0  0  0  0
   60.3355   33.4503   45.5804 H   0  0  0  0  0  0  0  0  0  0  0  0
   59.5186   35.0501   45.5804 H   0  0  0  0  0  0  0  0  0  0  0  0
   57.3741   31.6994   44.6436 H   0  0  0  0  0  0  0  0  0  0  0  0
   59.0824   32.1602   44.2495 H   0  0  0  0  0  0  0  0  0  0  0  0
   61.9413   30.7275   49.9051 H   0  0  0  0  0  0  0  0  0  0  0  0
   63.6109   30.6927   48.0556 H   0  0  0  0  0  0  0  0  0  0  0  0
   62.5740   34.7583   47.0240 H   0  0  0  0  0  0  0  0  0  0  0  0
   60.8998   34.8084   48.8702 H   0  0  0  0  0  0  0  0  0  0  0  0
  1  2  1  0
  2  3  1  0
  3  4  1  0
  4  5  1  0
  5  6  1  0
  6  7  2  0
  7  8  1  0
  8  9  2  0
  9 10  1  0
 10 11  1  0
 11 12  1  0
 10 13  1  0
 13 14  2  0
 13 15  1  0
 15 16  2  0
 16 17  1  0
 16 18  1  0
 18 19  1  0
 19 20  1  0
 20 21  1  0
 20 22  1  0
 20 23  1  0
  3 24  1  0
 24 25  2  0
 25 26  1  0
 26 27  2  0
 27 28  1  0
 27 29  1  0
 29 30  2  0
 17  6  1  0
 30 24  1  0
 17  9  1  0
 23 15  1  0
  1 31  1  0
  1 32  1  0
  1 33  1  0
  2 34  1  0
  2 35  1  0
  4 36  1  0
  4 37  1  0
  5 38  1  0
  5 39  1  0
  7 40  1  0
 11 41  1  0
 11 42  1  0
 12 43  1  0
 12 44  1  0
 12 45  1  0
 18 46  1  0
 18 47  1  0
 21 48  1  0
 21 49  1  0
 21 50  1  0
 22 51  1  0
 22 52  1  0
 22 53  1  0
 23 54  1  0
 23 55  1  0
 25 56  1  0
 26 57  1  0
 29 58  1  0
 30 59  1  0
M  CHG  1   7   1
M  END
>  <UniqueID>  (14) 
14

>  <SMILES>  (14) 
CCN(CCc1[nH+]nc2n(CC)c(=O)c3c(n12)COC(C)(C)C3)c1ccc(F)cc1

>  <Energy>  (14) 
117.59505658520666

>  <Genealogy>  (14) 
CCN(CCc1[nH+]nc2n(CC)c(=O)c3c(n12)COC(C)(C)C3)c1ccc(F)cc1 (protonated)
CCN(CCc1[nH+]nc2n(CC)c(=O)c3c(n12)COC(C)(C)C3)c1ccc(F)cc1 (3D coordinates assigned)
CCN(CCc1[nH+]nc2n(CC)c(=O)c3c(n12)COC(C)(C)C3)c1ccc(F)cc1 (nonaromatic ring conformer: 117.59505658520666 kcal/mol)

>  <smiles>  (14) 
CCN(CCc1nnc2n(CC)c(=O)c3c(n12)COC(C)(C)C3)c1ccc(F)cc1

>  <score_type>  (14) 
oracle

>  <origin>  (14) 
adg

>  <m_score__min__energy>  (14) 
-6.5800000000000001

>  <m_primary>  (14) 
energy

$$$$
14:0
     RDKit          3D

 56 58  0  0  0  0  0  0  0  0999 V2000
   61.0230   34.0490   50.0360 C   0  0  0  0  0  0  0  0  0  0  0  0
   61.0660   34.4350   48.6650 O   0  0  0  0  0  0  0  0  0  0  0  0
   60.0900   34.0950   47.7140 C   0  0  0  0  0  0  0  0  0  0  0  0
   60.2540   34.3530   46.3400 C   0  0  0  0  0  0  0  0  0  0  0  0
   59.2610   33.9880   45.4290 C   0  0  0  0  0  0  0  0  0  0  0  0
   58.0900   33.3560   45.8760 C   0  0  0  0  0  0  0  0  0  0  0  0
   57.0460   32.9000   44.8860 C   0  0  0  0  0  0  0  0  0  0  0  0
   57.6100   31.8810   43.8860 C   0  0  0  0  0  0  0  0  0  0  0  0
   58.1120   30.6480   44.5710 C   0  0  0  0  0  0  0  0  0  0  0  0
   59.2190   30.1580   44.2320 O   0  0  0  0  0  0  0  0  0  0  0  0
   57.3370   30.0420   45.5660 O   0  0  0  0  0  0  0  0  0  0  0  0
   57.6700   28.7910   46.1630 C   0  0  0  0  0  0  0  0  0  0  0  0
   58.9120   28.9190   46.9910 C   0  0  0  0  0  0  0  0  0  0  0  0
   59.3470   27.9150   47.6200 O   0  0  0  0  0  0  0  0  0  0  0  0
   59.6070   30.1700   47.0530 N   0  0  0  0  0  0  0  0  0  0  0  0
   60.3940   30.5830   48.1810 C   0  0  0  0  0  0  0  0  0  0  0  0
   60.0360   30.4950   49.5190 C   0  0  0  0  0  0  0  0  0  0  0  0
   58.7030   30.0630   50.0560 C   0  0  0  0  0  0  0  0  0  0  0  0
   61.1140   30.8190   50.2770 N   0  0  0  0  0  0  0  0  0  0  0  0
   61.1610   30.8210   51.7410 C   0  0  0  0  0  0  0  0  0  0  0  0
   62.1290   31.1320   49.4710 N   0  0  0  0  0  0  0  0  0  0  0  0
   63.4420   31.5460   49.8870 C   0  0  0  0  0  0  0  0  0  0  0  0
   64.0490   32.6760   49.3100 C   0  0  0  0  0  0  0  0  0  0  0  0
   65.3260   33.0710   49.7120 C   0  0  0  0  0  0  0  0  0  0  0  0
   66.0090   32.3410   50.6850 C   0  0  0  0  0  0  0  0  0  0  0  0
   65.4150   31.2110   51.2570 C   0  0  0  0  0  0  0  0  0  0  0  0
   64.1380   30.8130   50.8580 C   0  0  0  0  0  0  0  0  0  0  0  0
   61.7220   30.9720   48.1960 C   0  0  0  0  0  0  0  0  0  0  0  0
   62.4650   31.1290   47.1900 O   0  0  0  0  0  0  0  0  0  0  0  0
   57.9190   33.1090   47.2470 C   0  0  0  0  0  0  0  0  0  0  0  0
   58.9140   33.4760   48.1570 C   0  0  0  0  0  0  0  0  0  0  0  0
   61.1224   34.9414   50.6715 H   0  0  0  0  0  0  0  0  0  0  0  0
   60.0641   33.5533   50.2474 H   0  0  0  0  0  0  0  0  0  0  0  0
   61.8493   33.3544   50.2474 H   0  0  0  0  0  0  0  0  0  0  0  0
   61.1702   34.8452   45.9818 H   0  0  0  0  0  0  0  0  0  0  0  0
   59.3967   34.1963   44.3575 H   0  0  0  0  0  0  0  0  0  0  0  0
   56.2140   32.4356   45.4355 H   0  0  0  0  0  0  0  0  0  0  0  0
   56.7062   33.7800   44.3201 H   0  0  0  0  0  0  0  0  0  0  0  0
   56.8153   31.5975   43.1803 H   0  0  0  0  0  0  0  0  0  0  0  0
   58.4562   32.3491   43.3619 H   0  0  0  0  0  0  0  0  0  0  0  0
   56.8390   28.4637   46.8051 H   0  0  0  0  0  0  0  0  0  0  0  0
   57.8475   28.0529   45.3670 H   0  0  0  0  0  0  0  0  0  0  0  0
   59.4800   30.8410   46.2620 H   0  0  0  0  0  0  0  0  0  0  0  0
   58.7303   30.0719   51.1556 H   0  0  0  0  0  0  0  0  0  0  0  0
   57.9239   30.7546   49.7030 H   0  0  0  0  0  0  0  0  0  0  0  0
   58.4777   29.0458   49.7030 H   0  0  0  0  0  0  0  0  0  0  0  0
   60.1371   30.7775   52.1408 H   0  0  0  0  0  0  0  0  0  0  0  0
   61.7287   29.9462   52.0908 H   0  0  0  0  0  0  0  0  0  0  0  0
   61.6524   31.7409   52.0908 H   0  0  0  0  0  0  0  0  0  0  0  0
   63.5152   33.2508   48.5388 H   0  0  0  0  0  0  0  0  0  0  0  0
   65.7941   33.9585   49.2613 H   0  0  0  0  0  0  0  0  0  0  0  0
   67.0146   32.6539   51.0024 H   0  0  0  0  0  0  0  0  0  0  0  0
   65.9553   30.6350   52.0227 H   0  0  0  0  0  0  0  0  0  0  0  0
   63.6764   29.9212   51.3071 H   0  0  0  0  0  0  0  0  0  0  0  0
   56.9989   32.6250   47.6063 H   0  0  0  0  0  0  0  0  0  0  0  0
   58.7727   33.2773   49.2296 H   0  0  0  0  0  0  0  0  0  0  0  0
  1  2  1  0
  2  3  1  0
  3  4  2  0
  4  5  1  0
  5  6  2  0
  6  7  1  0
  7  8  1  0
  8  9  1  0
  9 10  2  0
  9 11  1  0
 11 12  1  0
 12 13  1  0
 13 14  2  0
 13 15  1  0
 15 16  1  0
 16 17  2  0
 17 18  1  0
 17 19  1  0
 19 20  1  0
 19 21  1  0
 21 22  1  0
 22 23  2  0
 23 24  1  0
 24 25  2  0
 25 26  1  0
 26 27  2  0
 21 28  1  0
 28 29  2  0
  6 30  1  0
 30 31  2  0
 31  3  1  0
 28 16  1  0
 27 22  1  0
  1 32  1  0
  1 33  1  0
  1 34  1  0
  4 35  1  0
  5 36  1  0
  7 37  1  0
  7 38  1  0
  8 39  1  0
  8 40  1  0
 12 41  1  0
 12 42  1  0
 15 43  1  0
 18 44  1  0
 18 45  1  0
 18 46  1  0
 20 47  1  0
 20 48  1  0
 20 49  1  0
 23 50  1  0
 24 51  1  0
 25 52  1  0
 26 53  1  0
 27 54  1  0
 30 55  1  0
 31 56  1  0
M  END
>  <UniqueID>  (15) 
15

>  <SMILES>  (15) 
COc1ccc(CCC(=O)OCC(=O)Nc2c(C)n(C)n(-c3ccccc3)c2=O)cc1

>  <Energy>  (15) 
91.23088066172305

>  <Genealogy>  (15) 
COc1ccc(CCC(=O)OCC(=O)Nc2c(C)n(C)n(-c3ccccc3)c2=O)cc1 (3D coordinates assigned)
COc1ccc(CCC(=O)OCC(=O)Nc2c(C)n(C)n(-c3ccccc3)c2=O)cc1 (optimized conformer: 91.23088066172305 kcal/mol)

>  <smiles>  (15) 
COc1ccc(CCC(=O)OCC(=O)Nc2c(C)n(C)n(-c3ccccc3)c2=O)cc1

>  <score_type>  (15) 
oracle

>  <origin>  (15) 
adg

>  <m_score__min__energy>  (15) 
-8

>  <m_primary>  (15) 
energy

$$$$
15:0
     RDKit          3D

 52 52  0  0  0  0  0  0  0  0999 V2000
   63.3830   33.3910   47.1350 C   0  0  0  0  0  0  0  0  0  0  0  0
   61.9310   33.6630   46.7520 C   0  0  0  0  0  0  0  0  0  0  0  0
   61.0020   33.2290   47.8210 N   0  0  0  0  0  0  0  0  0  0  0  0
   59.8580   34.1510   48.0280 C   0  0  0  0  0  0  0  0  0  0  0  0
   59.5420   35.0430   46.8180 C   0  0  0  0  0  0  0  0  0  0  0  0
   60.5730   31.8200   47.6560 C   0  0  0  0  0  0  0  0  0  0  0  0
   59.1130   31.6540   48.0820 C   0  0  0  0  0  0  0  0  0  0  0  0
   58.3220   31.3460   46.9560 O   0  0  0  0  0  0  0  0  0  0  0  0
   58.8630   31.9540   45.8030 C   0  0  0  0  0  0  0  0  0  0  0  0
   57.7280   32.4490   44.8890 C   0  0  0  0  0  0  0  0  0  0  0  0
   56.5730   31.5360   44.8380 N   0  0  0  0  0  0  0  0  0  0  0  0
   56.4650   30.8390   43.5480 C   0  0  0  0  0  0  0  0  0  0  0  0
   55.5160   29.6420   43.6640 C   0  0  0  0  0  0  0  0  0  0  0  0
   55.6240   29.0150   44.9440 O   0  0  0  0  0  0  0  0  0  0  0  0
   56.7210   28.2650   45.4030 C   0  0  0  0  0  0  0  0  0  0  0  0
   58.0440   28.7480   45.3410 C   0  0  0  0  0  0  0  0  0  0  0  0
   59.1010   27.9700   45.8200 C   0  0  0  0  0  0  0  0  0  0  0  0
   58.8550   26.7050   46.3530 C   0  0  0  0  0  0  0  0  0  0  0  0
   57.5510   26.2100   46.4050 C   0  0  0  0  0  0  0  0  0  0  0  0
   56.4740   26.9870   45.9320 C   0  0  0  0  0  0  0  0  0  0  0  0
   55.1490   26.5280   45.9780 O   0  0  0  0  0  0  0  0  0  0  0  0
   54.7350   25.2150   45.6140 C   0  0  0  0  0  0  0  0  0  0  0  0
   63.4760   33.3736   48.2309 H   0  0  0  0  0  0  0  0  0  0  0  0
   63.6944   32.4189   46.7251 H   0  0  0  0  0  0  0  0  0  0  0  0
   64.0251   34.1845   46.7251 H   0  0  0  0  0  0  0  0  0  0  0  0
   61.8016   34.7419   46.5811 H   0  0  0  0  0  0  0  0  0  0  0  0
   61.7002   33.0939   45.8394 H   0  0  0  0  0  0  0  0  0  0  0  0
   58.9660   33.5486   48.2550 H   0  0  0  0  0  0  0  0  0  0  0  0
   60.1388   34.8235   48.8520 H   0  0  0  0  0  0  0  0  0  0  0  0
   59.1938   36.0259   47.1681 H   0  0  0  0  0  0  0  0  0  0  0  0
   60.4496   35.1708   46.2097 H   0  0  0  0  0  0  0  0  0  0  0  0
   58.7564   34.5710   46.2097 H   0  0  0  0  0  0  0  0  0  0  0  0
   60.6776   31.5305   46.5999 H   0  0  0  0  0  0  0  0  0  0  0  0
   61.2044   31.1783   48.2880 H   0  0  0  0  0  0  0  0  0  0  0  0
   59.0368   30.8388   48.8166 H   0  0  0  0  0  0  0  0  0  0  0  0
   58.7560   32.5917   48.5328 H   0  0  0  0  0  0  0  0  0  0  0  0
   59.4897   32.8076   46.1009 H   0  0  0  0  0  0  0  0  0  0  0  0
   59.4716   31.2177   45.2576 H   0  0  0  0  0  0  0  0  0  0  0  0
   57.3835   33.4257   45.2597 H   0  0  0  0  0  0  0  0  0  0  0  0
   58.1371   32.5099   43.8697 H   0  0  0  0  0  0  0  0  0  0  0  0
   56.6570   30.8340   45.6100 H   0  0  0  0  0  0  0  0  0  0  0  0
   56.0774   31.5365   42.7908 H   0  0  0  0  0  0  0  0  0  0  0  0
   57.4612   30.4766   43.2544 H   0  0  0  0  0  0  0  0  0  0  0  0
   54.4821   29.9894   43.5214 H   0  0  0  0  0  0  0  0  0  0  0  0
   55.7895   28.9064   42.8932 H   0  0  0  0  0  0  0  0  0  0  0  0
   58.2449   29.7415   44.9137 H   0  0  0  0  0  0  0  0  0  0  0  0
   60.1300   28.3563   45.7766 H   0  0  0  0  0  0  0  0  0  0  0  0
   59.6893   26.0969   46.7327 H   0  0  0  0  0  0  0  0  0  0  0  0
   57.3626   25.2078   46.8174 H   0  0  0  0  0  0  0  0  0  0  0  0
   54.5487   24.6241   46.5229 H   0  0  0  0  0  0  0  0  0  0  0  0
   53.8117   25.2734   45.0190 H   0  0  0  0  0  0  0  0  0  0  0  0
   55.5248   24.7332   45.0190 H   0  0  0  0  0  0  0  0  0  0  0  0
  1  2  1  0
  2  3  1  0
  3  4  1  0
  4  5  1  0
  3  6  1  0
  6  7  1  0
  7  8  1  0
  8  9  1  0
  9 10  1  0
 10 11  1  0
 11 12  1  0
 12 13  1  0
 13 14  1  0
 14 15  1  0
 15 16  2  0
 16 17  1  0
 17 18  2  0
 18 19  1  0
 19 20  2  0
 20 21  1  0
 21 22  1  0
 20 15  1  0
  1 23  1  0
  1 24  1  0
  1 25  1  0
  2 26  1  0
  2 27  1  0
  4 28  1  0
  4 29  1  0
  5 30  1  0
  5 31  1  0
  5 32  1  0
  6 33  1  0
  6 34  1  0
  7 35  1  0
  7 36  1  0
  9 37  1  0
  9 38  1  0
 10 39  1  0
 10 40  1  0
 11 41  1  0
 12 42  1  0
 12 43  1  0
 13 44  1  0
 13 45  1  0
 16 46  1  0
 17 47  1  0
 18 48  1  0
 19 49  1  0
 22 50  1  0
 22 51  1  0
 22 52  1  0
M  END
>  <UniqueID>  (16) 
16

>  <SMILES>  (16) 
CCN(CC)CCOCCNCCOc1ccccc1OC

>  <Energy>  (16) 
42.5297761695305

>  <Genealogy>  (16) 
CCN(CC)CCOCCNCCOc1ccccc1OC (3D coordinates assigned)
CCN(CC)CCOCCNCCOc1ccccc1OC (optimized conformer: 42.5297761695305 kcal/mol)

>  <smiles>  (16) 
CCN(CC)CCOCCNCCOc1ccccc1OC

>  <score_type>  (16) 
oracle

>  <origin>  (16) 
adg

>  <m_score__min__energy>  (16) 
-6.5099999999999998

>  <m_primary>  (16) 
energy

$$$$
16:0
     RDKit          3D

 46 48  0  0  0  0  0  0  0  0999 V2000
   57.0670   28.1560   45.5060 C   0  0  0  0  0  0  0  0  0  0  0  0
   57.8030   28.7260   44.3640 N   0  0  0  0  0  0  0  0  0  0  0  0
   56.9040   29.3990   43.3960 C   0  0  0  0  0  0  0  0  0  0  0  0
   56.8330   30.9270   43.5890 C   0  0  0  0  0  0  0  0  0  0  0  0
   57.0310   31.2690   45.0060 N   0  0  0  0  0  0  0  0  0  0  0  0
   56.7400   32.7000   45.2390 C   0  0  0  0  0  0  0  0  0  0  0  0
   57.8090   33.5940   44.5960 C   0  0  0  0  0  0  0  0  0  0  0  0
   58.3070   34.5450   45.5390 O   0  0  0  0  0  0  0  0  0  0  0  0
   59.3740   34.3340   46.4280 C   0  0  0  0  0  0  0  0  0  0  0  0
   59.2700   34.5650   47.8130 C   0  0  0  0  0  0  0  0  0  0  0  0
   60.3660   34.3360   48.6500 C   0  0  0  0  0  0  0  0  0  0  0  0
   61.5840   33.8710   48.1250 C   0  0  0  0  0  0  0  0  0  0  0  0
   62.7470   33.6280   49.0150 C   0  0  0  0  0  0  0  0  0  0  0  0
   63.8370   32.8530   48.5740 C   0  0  0  0  0  0  0  0  0  0  0  0
   64.9310   32.6260   49.4130 C   0  0  0  0  0  0  0  0  0  0  0  0
   64.9510   33.1670   50.7010 C   0  0  0  0  0  0  0  0  0  0  0  0
   63.8770   33.9350   51.1510 C   0  0  0  0  0  0  0  0  0  0  0  0
   62.7800   34.1670   50.3150 C   0  0  0  0  0  0  0  0  0  0  0  0
   61.6810   33.6390   46.7420 C   0  0  0  0  0  0  0  0  0  0  0  0
   60.5840   33.8690   45.9060 C   0  0  0  0  0  0  0  0  0  0  0  0
   58.4020   30.9140   45.4420 C   0  0  0  0  0  0  0  0  0  0  0  0
   58.9070   29.6010   44.8010 C   0  0  0  0  0  0  0  0  0  0  0  0
   57.5194   28.5064   46.4455 H   0  0  0  0  0  0  0  0  0  0  0  0
   56.0161   28.4781   45.4626 H   0  0  0  0  0  0  0  0  0  0  0  0
   57.1160   27.0580   45.4626 H   0  0  0  0  0  0  0  0  0  0  0  0
   57.2687   29.1923   42.3790 H   0  0  0  0  0  0  0  0  0  0  0  0
   55.8915   29.0026   43.5623 H   0  0  0  0  0  0  0  0  0  0  0  0
   57.6183   31.4064   42.9862 H   0  0  0  0  0  0  0  0  0  0  0  0
   55.8433   31.2841   43.2681 H   0  0  0  0  0  0  0  0  0  0  0  0
   55.7595   32.9426   44.8033 H   0  0  0  0  0  0  0  0  0  0  0  0
   56.7378   32.8836   46.3236 H   0  0  0  0  0  0  0  0  0  0  0  0
   58.6404   32.9659   44.2434 H   0  0  0  0  0  0  0  0  0  0  0  0
   57.3557   34.1363   43.7531 H   0  0  0  0  0  0  0  0  0  0  0  0
   58.3224   34.9272   48.2382 H   0  0  0  0  0  0  0  0  0  0  0  0
   60.2742   34.5216   49.7303 H   0  0  0  0  0  0  0  0  0  0  0  0
   63.8271   32.4232   47.5615 H   0  0  0  0  0  0  0  0  0  0  0  0
   65.7781   32.0202   49.0588 H   0  0  0  0  0  0  0  0  0  0  0  0
   65.8133   32.9874   51.3599 H   0  0  0  0  0  0  0  0  0  0  0  0
   63.8929   34.3592   52.1658 H   0  0  0  0  0  0  0  0  0  0  0  0
   61.9372   34.7748   50.6758 H   0  0  0  0  0  0  0  0  0  0  0  0
   62.6265   33.2740   46.3144 H   0  0  0  0  0  0  0  0  0  0  0  0
   60.6745   33.6819   44.8258 H   0  0  0  0  0  0  0  0  0  0  0  0
   59.0841   31.7294   45.1593 H   0  0  0  0  0  0  0  0  0  0  0  0
   58.3777   30.7656   46.5317 H   0  0  0  0  0  0  0  0  0  0  0  0
   59.5268   29.8504   43.9271 H   0  0  0  0  0  0  0  0  0  0  0  0
   59.4839   29.0567   45.5632 H   0  0  0  0  0  0  0  0  0  0  0  0
  1  2  1  0
  2  3  1  0
  3  4  1  0
  4  5  1  0
  5  6  1  0
  6  7  1  0
  7  8  1  0
  8  9  1  0
  9 10  2  0
 10 11  1  0
 11 12  2  0
 12 13  1  0
 13 14  2  0
 14 15  1  0
 15 16  2  0
 16 17  1  0
 17 18  2  0
 12 19  1  0
 19 20  2  0
  5 21  1  0
 21 22  1  0
 22  2  1  0
 20  9  1  0
 18 13  1  0
  1 23  1  0
  1 24  1  0
  1 25  1  0
  3 26  1  0
  3 27  1  0
  4 28  1  0
  4 29  1  0
  6 30  1  0
  6 31  1  0
  7 32  1  0
  7 33  1  0
 10 34  1  0
 11 35  1  0
 14 36  1  0
 15 37  1  0
 16 38  1  0
 17 39  1  0
 18 40  1  0
 19 41  1  0
 20 42  1  0
 21 43  1  0
 21 44  1  0
 22 45  1  0
 22 46  1  0
M  END
>  <UniqueID>  (17) 
17

>  <SMILES>  (17) 
CN1CCN(CCOc2ccc(-c3ccccc3)cc2)CC1

>  <Energy>  (17) 
62.738067737253054

>  <Genealogy>  (17) 
CN1CCN(CCOc2ccc(-c3ccccc3)cc2)CC1 (3D coordinates assigned)
CN1CCN(CCOc2ccc(-c3ccccc3)cc2)CC1 (nonaromatic ring conformer: 62.738067737253054 kcal/mol)

>  <smiles>  (17) 
CN1CCN(CCOc2ccc(-c3ccccc3)cc2)CC1

>  <score_type>  (17) 
oracle

>  <origin>  (17) 
adg

>  <m_score__min__energy>  (17) 
-7.2300000000000004

>  <m_primary>  (17) 
energy

$$$$
17:0
     RDKit          3D

 44 46  0  0  0  0  0  0  0  0999 V2000
   63.3840   33.5520   46.6770 C   0  0  0  0  0  0  0  0  0  0  0  0
   63.1210   33.8830   48.1430 C   0  0  0  0  0  0  0  0  0  0  0  0
   62.1880   32.8920   48.7310 N   0  0  0  0  0  0  0  0  0  0  0  0
   62.0240   33.1500   50.1740 C   0  0  0  0  0  0  0  0  0  0  0  0
   62.6530   31.5030   48.5200 C   0  0  0  0  0  0  0  0  0  0  0  0
   61.5010   30.5580   48.1150 C   0  0  0  0  0  0  0  0  0  0  0  0
   60.1600   31.1420   48.3140 N   0  0  0  0  0  0  0  0  0  0  0  0
   59.4310   31.2880   47.0660 C   0  0  0  0  0  0  0  0  0  0  0  0
   59.2770   32.5290   46.3800 C   0  0  0  0  0  0  0  0  0  0  0  0
   59.7970   33.7400   46.8950 C   0  0  0  0  0  0  0  0  0  0  0  0
   59.6010   34.9470   46.2290 C   0  0  0  0  0  0  0  0  0  0  0  0
   58.8770   34.9860   45.0470 C   0  0  0  0  0  0  0  0  0  0  0  0
   58.3600   33.8140   44.5040 C   0  0  0  0  0  0  0  0  0  0  0  0
   58.5650   32.5590   45.1300 C   0  0  0  0  0  0  0  0  0  0  0  0
   58.0830   31.3890   44.5630 N   0  0  0  0  0  0  0  0  0  0  0  0
   57.5130   31.3820   43.2000 C   0  0  0  0  0  0  0  0  0  0  0  0
   58.1420   30.2250   45.2870 C   0  0  0  0  0  0  0  0  0  0  0  0
   57.5610   28.9870   44.9310 C   0  0  0  0  0  0  0  0  0  0  0  0
   57.8050   27.9750   45.8530 C   0  0  0  0  0  0  0  0  0  0  0  0
   58.7200   28.6070   47.1150 S   0  0  0  0  0  0  0  0  0  0  0  0
   58.8130   30.1710   46.4970 C   0  0  0  0  0  0  0  0  0  0  0  0
   64.0671   32.6923   46.6121 H   0  0  0  0  0  0  0  0  0  0  0  0
   62.4341   33.3038   46.1810 H   0  0  0  0  0  0  0  0  0  0  0  0
   63.8404   34.4213   46.1810 H   0  0  0  0  0  0  0  0  0  0  0  0
   64.0712   33.8610   48.6968 H   0  0  0  0  0  0  0  0  0  0  0  0
   62.6709   34.8844   48.2103 H   0  0  0  0  0  0  0  0  0  0  0  0
   62.5275   32.3579   50.7476 H   0  0  0  0  0  0  0  0  0  0  0  0
   62.4691   34.1241   50.4252 H   0  0  0  0  0  0  0  0  0  0  0  0
   60.9531   33.1604   50.4252 H   0  0  0  0  0  0  0  0  0  0  0  0
   63.4106   31.5002   47.7225 H   0  0  0  0  0  0  0  0  0  0  0  0
   63.0709   31.1386   49.4700 H   0  0  0  0  0  0  0  0  0  0  0  0
   61.6160   30.3058   47.0505 H   0  0  0  0  0  0  0  0  0  0  0  0
   61.5668   29.6724   48.7642 H   0  0  0  0  0  0  0  0  0  0  0  0
   59.6200   30.4940   48.9340 H   0  0  0  0  0  0  0  0  0  0  0  0
   60.2210   32.0210   48.8700 H   0  0  0  0  0  0  0  0  0  0  0  0
   60.3653   33.7277   47.8368 H   0  0  0  0  0  0  0  0  0  0  0  0
   60.0229   35.8748   46.6428 H   0  0  0  0  0  0  0  0  0  0  0  0
   58.7109   35.9464   44.5371 H   0  0  0  0  0  0  0  0  0  0  0  0
   57.7806   33.8623   43.5702 H   0  0  0  0  0  0  0  0  0  0  0  0
   56.4148   31.3685   43.2619 H   0  0  0  0  0  0  0  0  0  0  0  0
   57.8389   32.2842   42.6616 H   0  0  0  0  0  0  0  0  0  0  0  0
   57.8609   30.4881   42.6616 H   0  0  0  0  0  0  0  0  0  0  0  0
   56.9727   28.8383   44.0135 H   0  0  0  0  0  0  0  0  0  0  0  0
   57.4575   26.9346   45.7707 H   0  0  0  0  0  0  0  0  0  0  0  0
  1  2  1  0
  2  3  1  0
  3  4  1  0
  3  5  1  0
  5  6  1  0
  6  7  1  0
  7  8  1  0
  8  9  2  0
  9 10  1  0
 10 11  2  0
 11 12  1  0
 12 13  2  0
 13 14  1  0
 14 15  2  0
 15 16  1  0
 15 17  1  0
 17 18  1  0
 18 19  2  0
 19 20  1  0
 20 21  1  0
 21  8  1  0
 14  9  1  0
 21 17  2  0
  1 22  1  0
  1 23  1  0
  1 24  1  0
  2 25  1  0
  2 26  1  0
  4 27  1  0
  4 28  1  0
  4 29  1  0
  5 30  1  0
  5 31  1  0
  6 32  1  0
  6 33  1  0
  7 34  1  0
  7 35  1  0
 10 36  1  0
 11 37  1  0
 12 38  1  0
 13 39  1  0
 16 40  1  0
 16 41  1  0
 16 42  1  0
 18 43  1  0
 19 44  1  0
M  CHG  2   7   1  15   1
M  END
>  <UniqueID>  (18) 
18

>  <SMILES>  (18) 
CCN(C)CC[NH2+]c1c2ccccc2[n+](C)c2ccsc12

>  <Energy>  (18) 
90.71616554202069

>  <Genealogy>  (18) 
CCN(C)CC[NH2+]c1c2ccccc2[n+](C)c2ccsc12 (protonated)
CCN(C)CC[NH2+]c1c2ccccc2[n+](C)c2ccsc12 (3D coordinates assigned)
CCN(C)CC[NH2+]c1c2ccccc2[n+](C)c2ccsc12 (optimized conformer: 90.71616554202069 kcal/mol)

>  <smiles>  (18) 
CCN(C)CCNc1c2ccccc2[n+](C)c2ccsc12

>  <score_type>  (18) 
oracle

>  <origin>  (18) 
adg

>  <m_score__min__energy>  (18) 
-3.3799999999999999

>  <m_primary>  (18) 
energy

$$$$
18:0
     RDKit          3D

 44 46  0  0  0  0  0  0  0  0999 V2000
   58.2370   26.8430   46.8150 C   0  0  0  0  0  0  0  0  0  0  0  0
   58.4870   28.3010   46.6250 C   0  0  0  0  0  0  0  0  0  0  0  0
   59.2860   29.0920   47.4410 C   0  0  0  0  0  0  0  0  0  0  0  0
   59.2100   30.3520   46.8820 C   0  0  0  0  0  0  0  0  0  0  0  0
   59.7960   31.5640   47.2540 C   0  0  0  0  0  0  0  0  0  0  0  0
   60.6660   31.6310   48.4090 N   0  0  0  0  0  0  0  0  0  0  0  0
   61.9010   30.8700   48.1590 C   0  0  0  0  0  0  0  0  0  0  0  0
   63.1160   31.8010   48.0150 C   0  0  0  0  0  0  0  0  0  0  0  0
   62.7000   33.2110   47.8400 N   0  0  0  0  0  0  0  0  0  0  0  0
   63.3790   33.8000   46.6740 C   0  0  0  0  0  0  0  0  0  0  0  0
   63.0060   34.0090   49.0400 C   0  0  0  0  0  0  0  0  0  0  0  0
   59.4570   32.7080   46.4700 C   0  0  0  0  0  0  0  0  0  0  0  0
   59.9400   33.9950   46.7930 C   0  0  0  0  0  0  0  0  0  0  0  0
   59.6090   35.1000   46.0120 C   0  0  0  0  0  0  0  0  0  0  0  0
   58.7890   34.9530   44.8980 C   0  0  0  0  0  0  0  0  0  0  0  0
   58.2840   33.7010   44.5570 C   0  0  0  0  0  0  0  0  0  0  0  0
   58.5940   32.5560   45.3270 C   0  0  0  0  0  0  0  0  0  0  0  0
   58.0760   31.3120   45.0010 N   0  0  0  0  0  0  0  0  0  0  0  0
   57.1900   31.1120   43.8420 C   0  0  0  0  0  0  0  0  0  0  0  0
   58.3890   30.2500   45.7950 C   0  0  0  0  0  0  0  0  0  0  0  0
   57.9640   29.0170   45.6490 O   0  0  0  0  0  0  0  0  0  0  0  0
   58.1979   26.6148   47.8904 H   0  0  0  0  0  0  0  0  0  0  0  0
   57.2791   26.5712   46.3474 H   0  0  0  0  0  0  0  0  0  0  0  0
   59.0496   26.2677   46.3474 H   0  0  0  0  0  0  0  0  0  0  0  0
   59.8521   28.7836   48.3323 H   0  0  0  0  0  0  0  0  0  0  0  0
   60.1700   31.2830   49.2590 H   0  0  0  0  0  0  0  0  0  0  0  0
   60.9130   32.6260   48.6150 H   0  0  0  0  0  0  0  0  0  0  0  0
   62.0744   30.1833   49.0006 H   0  0  0  0  0  0  0  0  0  0  0  0
   61.7792   30.3129   47.2184 H   0  0  0  0  0  0  0  0  0  0  0  0
   63.7371   31.7210   48.9194 H   0  0  0  0  0  0  0  0  0  0  0  0
   63.6825   31.4946   47.1233 H   0  0  0  0  0  0  0  0  0  0  0  0
   64.1686   34.4849   47.0168 H   0  0  0  0  0  0  0  0  0  0  0  0
   63.8264   32.9991   46.0670 H   0  0  0  0  0  0  0  0  0  0  0  0
   62.6494   34.3560   46.0670 H   0  0  0  0  0  0  0  0  0  0  0  0
   62.7797   33.4189   49.9403 H   0  0  0  0  0  0  0  0  0  0  0  0
   64.0720   34.2804   49.0378 H   0  0  0  0  0  0  0  0  0  0  0  0
   62.3948   34.9236   49.0378 H   0  0  0  0  0  0  0  0  0  0  0  0
   60.5864   34.1268   47.6732 H   0  0  0  0  0  0  0  0  0  0  0  0
   59.9981   36.0940   46.2776 H   0  0  0  0  0  0  0  0  0  0  0  0
   58.5383   35.8302   44.2834 H   0  0  0  0  0  0  0  0  0  0  0  0
   57.6340   33.6010   43.6752 H   0  0  0  0  0  0  0  0  0  0  0  0
   56.1731   30.8825   44.1931 H   0  0  0  0  0  0  0  0  0  0  0  0
   57.1697   32.0282   43.2335 H   0  0  0  0  0  0  0  0  0  0  0  0
   57.5653   30.2760   43.2335 H   0  0  0  0  0  0  0  0  0  0  0  0
  1  2  1  0
  2  3  2  0
  3  4  1  0
  4  5  2  0
  5  6  1  0
  6  7  1  0
  7  8  1  0
  8  9  1  0
  9 10  1  0
  9 11  1  0
  5 12  1  0
 12 13  2  0
 13 14  1  0
 14 15  2  0
 15 16  1  0
 16 17  2  0
 17 18  1  0
 18 19  1  0
 18 20  2  0
 20 21  1  0
 21  2  1  0
 20  4  1  0
 17 12  1  0
  1 22  1  0
  1 23  1  0
  1 24  1  0
  3 25  1  0
  6 26  1  0
  6 27  1  0
  7 28  1  0
  7 29  1  0
  8 30  1  0
  8 31  1  0
 10 32  1  0
 10 33  1  0
 10 34  1  0
 11 35  1  0
 11 36  1  0
 11 37  1  0
 13 38  1  0
 14 39  1  0
 15 40  1  0
 16 41  1  0
 19 42  1  0
 19 43  1  0
 19 44  1  0
M  CHG  2   6   1  18   1
M  END
>  <UniqueID>  (19) 
19

>  <SMILES>  (19) 
Cc1cc2c([NH2+]CCN(C)C)c3ccccc3[n+](C)c2o1

>  <Energy>  (19) 
87.07878362604937

>  <Genealogy>  (19) 
Cc1cc2c([NH2+]CCN(C)C)c3ccccc3[n+](C)c2o1 (protonated)
Cc1cc2c([NH2+]CCN(C)C)c3ccccc3[n+](C)c2o1 (3D coordinates assigned)
Cc1cc2c([NH2+]CCN(C)C)c3ccccc3[n+](C)c2o1 (optimized conformer: 87.07878362604937 kcal/mol)

>  <smiles>  (19) 
Cc1cc2c(NCCN(C)C)c3ccccc3[n+](C)c2o1

>  <score_type>  (19) 
oracle

>  <origin>  (19) 
adg

>  <m_score__min__energy>  (19) 
-3.29

>  <m_primary>  (19) 
energy

$$$$
19:0
     RDKit          3D

 49 52  0  0  0  0  0  0  0  0999 V2000
   55.9290   29.3580   44.5430 C   0  0  0  0  0  0  0  0  0  0  0  0
   57.1600   29.9550   43.8560 C   0  0  0  0  0  0  0  0  0  0  0  0
   57.0380   31.4860   43.5830 C   0  0  2  0  0  0  0  0  0  0  0  0
   57.3970   31.7740   42.1100 C   0  0  0  0  0  0  0  0  0  0  0  0
   57.9050   32.3390   44.4560 N   0  0  0  0  0  0  0  0  0  0  0  0
   57.3990   33.7380   44.4920 C   0  0  0  0  0  0  0  0  0  0  0  0
   58.4720   34.6880   45.0470 C   0  0  0  0  0  0  0  0  0  0  0  0
   59.0390   34.1170   46.3020 C   0  0  0  0  0  0  0  0  0  0  0  0
   60.0050   34.8950   47.4350 S   0  0  0  0  0  0  0  0  0  0  0  0
   60.2030   33.4910   48.3570 C   0  0  0  0  0  0  0  0  0  0  0  0
   60.9820   33.4140   49.6060 C   0  0  0  0  0  0  0  0  0  0  0  0
   60.4630   33.4750   50.8960 C   0  0  0  0  0  0  0  0  0  0  0  0
   61.4570   33.3750   51.8100 N   0  0  0  0  0  0  0  0  0  0  0  0
   61.2940   33.4610   53.2610 C   0  0  0  0  0  0  0  0  0  0  0  0
   59.8530   33.8100   53.6130 C   0  0  0  0  0  0  0  0  0  0  0  0
   62.6070   33.2690   51.1120 C   0  0  0  0  0  0  0  0  0  0  0  0
   63.9090   33.1680   51.6120 C   0  0  0  0  0  0  0  0  0  0  0  0
   64.9650   33.0710   50.6900 C   0  0  0  0  0  0  0  0  0  0  0  0
   64.7070   33.0800   49.3040 C   0  0  0  0  0  0  0  0  0  0  0  0
   63.3900   33.1880   48.8230 C   0  0  0  0  0  0  0  0  0  0  0  0
   62.3550   33.2820   49.7590 C   0  0  0  0  0  0  0  0  0  0  0  0
   59.5560   32.4380   47.8050 N   0  0  0  0  0  0  0  0  0  0  0  0
   58.9260   32.7860   46.6530 C   0  0  0  0  0  0  0  0  0  0  0  0
   58.0950   31.8350   45.8430 C   0  0  0  0  0  0  0  0  0  0  0  0
   56.0529   29.4181   45.6343 H   0  0  0  0  0  0  0  0  0  0  0  0
   55.0329   29.9216   44.2441 H   0  0  0  0  0  0  0  0  0  0  0  0
   55.8167   28.3053   44.2441 H   0  0  0  0  0  0  0  0  0  0  0  0
   58.0353   29.7847   44.5001 H   0  0  0  0  0  0  0  0  0  0  0  0
   57.2584   29.4587   42.8793 H   0  0  0  0  0  0  0  0  0  0  0  0
   55.9952   31.7497   43.8131 H   0  0  0  0  0  0  0  0  0  0  0  0
   58.2544   32.4619   42.0693 H   0  0  0  0  0  0  0  0  0  0  0  0
   57.6582   30.8321   41.6054 H   0  0  0  0  0  0  0  0  0  0  0  0
   56.5342   32.2333   41.6054 H   0  0  0  0  0  0  0  0  0  0  0  0
   57.1311   34.0517   43.4723 H   0  0  0  0  0  0  0  0  0  0  0  0
   56.5165   33.7788   45.1473 H   0  0  0  0  0  0  0  0  0  0  0  0
   59.2741   34.8094   44.3041 H   0  0  0  0  0  0  0  0  0  0  0  0
   58.0197   35.6676   45.2611 H   0  0  0  0  0  0  0  0  0  0  0  0
   59.3961   33.5884   51.1387 H   0  0  0  0  0  0  0  0  0  0  0  0
   61.5533   32.4923   53.7131 H   0  0  0  0  0  0  0  0  0  0  0  0
   61.9572   34.2482   53.6489 H   0  0  0  0  0  0  0  0  0  0  0  0
   59.7391   33.8376   54.7067 H   0  0  0  0  0  0  0  0  0  0  0  0
   59.6013   34.7951   53.1932 H   0  0  0  0  0  0  0  0  0  0  0  0
   59.1784   33.0493   53.1932 H   0  0  0  0  0  0  0  0  0  0  0  0
   64.1009   33.1646   52.6951 H   0  0  0  0  0  0  0  0  0  0  0  0
   66.0003   32.9875   51.0522 H   0  0  0  0  0  0  0  0  0  0  0  0
   65.5427   33.0019   48.5930 H   0  0  0  0  0  0  0  0  0  0  0  0
   63.1802   33.1982   47.7432 H   0  0  0  0  0  0  0  0  0  0  0  0
   58.6006   30.8588   45.8046 H   0  0  0  0  0  0  0  0  0  0  0  0
   57.1079   31.7401   46.3191 H   0  0  0  0  0  0  0  0  0  0  0  0
  1  2  1  0
  2  3  1  0
  3  4  1  0
  3  5  1  0
  5  6  1  0
  6  7  1  0
  7  8  1  0
  8  9  1  0
  9 10  1  0
 10 11  1  0
 11 12  2  0
 12 13  1  0
 13 14  1  0
 14 15  1  0
 13 16  1  0
 16 17  2  0
 17 18  1  0
 18 19  2  0
 19 20  1  0
 20 21  2  0
 10 22  2  0
 22 23  1  0
 23 24  1  0
 24  5  1  0
 23  8  2  0
 21 11  1  0
 21 16  1  0
  1 25  1  0
  1 26  1  0
  1 27  1  0
  2 28  1  0
  2 29  1  0
  3 30  1  6
  4 31  1  0
  4 32  1  0
  4 33  1  0
  6 34  1  0
  6 35  1  0
  7 36  1  0
  7 37  1  0
 12 38  1  0
 14 39  1  0
 14 40  1  0
 15 41  1  0
 15 42  1  0
 15 43  1  0
 17 44  1  0
 18 45  1  0
 19 46  1  0
 20 47  1  0
 24 48  1  0
 24 49  1  0
M  END
>  <UniqueID>  (20) 
20

>  <SMILES>  (20) 
CC[C@H](C)N1CCc2sc(-c3cn(CC)c4ccccc34)nc2C1

>  <Energy>  (20) 
119.46171499384452

>  <Genealogy>  (20) 
CC[C@H](C)N1CCc2sc(-c3cn(CC)c4ccccc34)nc2C1 (chirality)
CC[C@H](C)N1CCc2sc(-c3cn(CC)c4ccccc34)nc2C1 (3D coordinates assigned)
CC[C@H](C)N1CCc2sc(-c3cn(CC)c4ccccc34)nc2C1 (nonaromatic ring conformer: 119.46171499384452 kcal/mol)

>  <smiles>  (20) 
CCC(C)N1CCc2sc(-c3cn(CC)c4ccccc34)nc2C1

>  <score_type>  (20) 
oracle

>  <origin>  (20) 
adg

>  <m_score__min__energy>  (20) 
-7.4000000000000004

>  <m_primary>  (20) 
energy

$$$$
20:0
     RDKit          3D

 50 52  0  0  0  0  0  0  0  0999 V2000
   64.1300   34.4930   51.6050 C   0  0  0  0  0  0  0  0  0  0  0  0
   63.2180   34.6870   50.5280 O   0  0  0  0  0  0  0  0  0  0  0  0
   62.9890   33.7530   49.5080 C   0  0  0  0  0  0  0  0  0  0  0  0
   64.0150   32.9440   48.9790 C   0  0  0  0  0  0  0  0  0  0  0  0
   63.7330   32.0270   47.9640 C   0  0  0  0  0  0  0  0  0  0  0  0
   62.4350   31.9060   47.4650 C   0  0  0  0  0  0  0  0  0  0  0  0
   61.4040   32.7060   47.9810 C   0  0  0  0  0  0  0  0  0  0  0  0
   59.9970   32.5710   47.4600 C   0  0  0  0  0  0  0  0  0  0  0  0
   59.4090   33.8980   47.1680 N   0  0  0  0  0  0  0  0  0  0  0  0
   59.9410   34.4800   45.9070 C   0  0  0  0  0  0  0  0  0  0  0  0
   58.8520   34.8210   44.8720 C   0  0  0  0  0  0  0  0  0  0  0  0
   57.8770   33.7220   44.7050 N   0  0  0  0  0  0  0  0  0  0  0  0
   58.4030   32.6020   43.8940 C   0  0  0  0  0  0  0  0  0  0  0  0
   57.8540   31.2820   44.3710 C   0  0  0  0  0  0  0  0  0  0  0  0
   58.6440   30.4140   45.1390 C   0  0  0  0  0  0  0  0  0  0  0  0
   58.1320   29.1840   45.5650 C   0  0  0  0  0  0  0  0  0  0  0  0
   56.8180   28.8050   45.2250 C   0  0  0  0  0  0  0  0  0  0  0  0
   56.2620   27.5820   45.6300 O   0  0  0  0  0  0  0  0  0  0  0  0
   57.0240   26.4420   46.0180 C   0  0  0  0  0  0  0  0  0  0  0  0
   56.0340   29.6740   44.4570 C   0  0  0  0  0  0  0  0  0  0  0  0
   54.7670   29.3250   44.1200 F   0  0  0  0  0  0  0  0  0  0  0  0
   56.5460   30.9030   44.0310 C   0  0  0  0  0  0  0  0  0  0  0  0
   57.2930   33.2560   45.9890 C   0  0  0  0  0  0  0  0  0  0  0  0
   57.9310   33.9000   47.2340 C   0  0  0  0  0  0  0  0  0  0  0  0
   61.6900   33.6250   49.0020 C   0  0  0  0  0  0  0  0  0  0  0  0
   63.5978   34.6062   52.5610 H   0  0  0  0  0  0  0  0  0  0  0  0
   64.5613   33.4830   51.5428 H   0  0  0  0  0  0  0  0  0  0  0  0
   64.9351   35.2400   51.5428 H   0  0  0  0  0  0  0  0  0  0  0  0
   65.0404   33.0352   49.3666 H   0  0  0  0  0  0  0  0  0  0  0  0
   64.5374   31.3973   47.5560 H   0  0  0  0  0  0  0  0  0  0  0  0
   62.2198   31.1819   46.6654 H   0  0  0  0  0  0  0  0  0  0  0  0
   60.0112   31.9730   46.5369 H   0  0  0  0  0  0  0  0  0  0  0  0
   59.3845   32.0782   48.2294 H   0  0  0  0  0  0  0  0  0  0  0  0
   60.4861   35.4030   46.1539 H   0  0  0  0  0  0  0  0  0  0  0  0
   60.5894   33.7176   45.4506 H   0  0  0  0  0  0  0  0  0  0  0  0
   58.3164   35.7222   45.2050 H   0  0  0  0  0  0  0  0  0  0  0  0
   59.3462   34.9844   43.9029 H   0  0  0  0  0  0  0  0  0  0  0  0
   58.1142   32.7526   42.8433 H   0  0  0  0  0  0  0  0  0  0  0  0
   59.4982   32.5818   43.9949 H   0  0  0  0  0  0  0  0  0  0  0  0
   59.6711   30.7019   45.4076 H   0  0  0  0  0  0  0  0  0  0  0  0
   58.7578   28.5096   46.1680 H   0  0  0  0  0  0  0  0  0  0  0  0
   57.0631   26.3834   47.1157 H   0  0  0  0  0  0  0  0  0  0  0  0
   56.5518   25.5322   45.6189 H   0  0  0  0  0  0  0  0  0  0  0  0
   58.0452   26.5304   45.6189 H   0  0  0  0  0  0  0  0  0  0  0  0
   55.9208   31.5764   43.4263 H   0  0  0  0  0  0  0  0  0  0  0  0
   56.2190   33.4938   45.9877 H   0  0  0  0  0  0  0  0  0  0  0  0
   57.4856   32.1750   46.0541 H   0  0  0  0  0  0  0  0  0  0  0  0
   57.5812   34.9399   47.3137 H   0  0  0  0  0  0  0  0  0  0  0  0
   57.6310   33.3087   48.1117 H   0  0  0  0  0  0  0  0  0  0  0  0
   60.8838   34.2525   49.4098 H   0  0  0  0  0  0  0  0  0  0  0  0
  1  2  1  0
  2  3  1  0
  3  4  2  0
  4  5  1  0
  5  6  2  0
  6  7  1  0
  7  8  1  0
  8  9  1  0
  9 10  1  0
 10 11  1  0
 11 12  1  0
 12 13  1  0
 13 14  1  0
 14 15  2  0
 15 16  1  0
 16 17  2  0
 17 18  1  0
 18 19  1  0
 17 20  1  0
 20 21  1  0
 20 22  2  0
 12 23  1  0
 23 24  1  0
  7 25  2  0
 25  3  1  0
 24  9  1  0
 22 14  1  0
  1 26  1  0
  1 27  1  0
  1 28  1  0
  4 29  1  0
  5 30  1  0
  6 31  1  0
  8 32  1  0
  8 33  1  0
 10 34  1  0
 10 35  1  0
 11 36  1  0
 11 37  1  0
 13 38  1  0
 13 39  1  0
 15 40  1  0
 16 41  1  0
 19 42  1  0
 19 43  1  0
 19 44  1  0
 22 45  1  0
 23 46  1  0
 23 47  1  0
 24 48  1  0
 24 49  1  0
 25 50  1  0
M  END
>  <UniqueID>  (21) 
21

>  <SMILES>  (21) 
COc1cccc(CN2CCN(Cc3ccc(OC)c(F)c3)CC2)c1

>  <Energy>  (21) 
65.67975962211224

>  <Genealogy>  (21) 
COc1cccc(CN2CCN(Cc3ccc(OC)c(F)c3)CC2)c1 (3D coordinates assigned)
COc1cccc(CN2CCN(Cc3ccc(OC)c(F)c3)CC2)c1 (nonaromatic ring conformer: 65.67975962211224 kcal/mol)

>  <smiles>  (21) 
COc1cccc(CN2CCN(Cc3ccc(OC)c(F)c3)CC2)c1

>  <score_type>  (21) 
oracle

>  <origin>  (21) 
adg

>  <m_score__min__energy>  (21) 
-7.7599999999999998

>  <m_primary>  (21) 
energy

$$$$
21:0
     RDKit          3D

 46 46  0  0  0  0  0  0  0  0999 V2000
   63.2100   33.2080   47.2240 C   0  0  0  0  0  0  0  0  0  0  0  0
   62.0790   33.8440   46.4140 C   0  0  0  0  0  0  0  0  0  0  0  0
   60.7570   33.6340   47.0500 N   0  0  0  0  0  0  0  0  0  0  0  0
   59.8590   34.8020   46.8800 C   0  0  0  0  0  0  0  0  0  0  0  0
   59.2840   34.8190   45.4680 C   0  0  0  0  0  0  0  0  0  0  0  0
   60.8120   33.1550   48.4550 C   0  0  0  0  0  0  0  0  0  0  0  0
   60.4070   31.6690   48.6390 C   0  0  0  0  0  0  0  0  0  0  0  0
   59.6080   31.1650   47.5070 N   0  0  0  0  0  0  0  0  0  0  0  0
   60.2390   30.0060   46.8530 C   0  0  0  0  0  0  0  0  0  0  0  0
   59.1880   29.0570   46.3240 C   0  0  0  0  0  0  0  0  0  0  0  0
   59.4840   27.6880   46.2460 C   0  0  0  0  0  0  0  0  0  0  0  0
   58.5530   26.7940   45.7300 C   0  0  0  0  0  0  0  0  0  0  0  0
   57.3170   27.2520   45.2780 C   0  0  0  0  0  0  0  0  0  0  0  0
   56.9940   28.6220   45.3300 C   0  0  0  0  0  0  0  0  0  0  0  0
   55.7500   29.0830   44.8720 O   0  0  0  0  0  0  0  0  0  0  0  0
   55.5270   29.7340   43.6250 C   0  0  0  0  0  0  0  0  0  0  0  0
   57.9460   29.5400   45.8520 C   0  0  0  0  0  0  0  0  0  0  0  0
   57.7240   30.9300   45.9260 O   0  0  0  0  0  0  0  0  0  0  0  0
   57.7470   31.8530   44.8430 C   0  0  0  0  0  0  0  0  0  0  0  0
   63.0024   33.3247   48.2979 H   0  0  0  0  0  0  0  0  0  0  0  0
   63.2802   32.1381   46.9783 H   0  0  0  0  0  0  0  0  0  0  0  0
   64.1607   33.7038   46.9783 H   0  0  0  0  0  0  0  0  0  0  0  0
   62.2657   34.9248   46.3307 H   0  0  0  0  0  0  0  0  0  0  0  0
   62.0598   33.3669   45.4230 H   0  0  0  0  0  0  0  0  0  0  0  0
   59.0362   34.7374   47.6072 H   0  0  0  0  0  0  0  0  0  0  0  0
   60.4334   35.7253   47.0462 H   0  0  0  0  0  0  0  0  0  0  0  0
   58.1857   34.8515   45.5197 H   0  0  0  0  0  0  0  0  0  0  0  0
   59.6523   35.7066   44.9328 H   0  0  0  0  0  0  0  0  0  0  0  0
   59.5992   33.9111   44.9328 H   0  0  0  0  0  0  0  0  0  0  0  0
   61.8417   33.2793   48.8213 H   0  0  0  0  0  0  0  0  0  0  0  0
   60.0820   33.7528   49.0205 H   0  0  0  0  0  0  0  0  0  0  0  0
   61.3197   31.0614   48.7266 H   0  0  0  0  0  0  0  0  0  0  0  0
   59.7895   31.5973   49.5465 H   0  0  0  0  0  0  0  0  0  0  0  0
   58.6750   30.8710   47.8820 H   0  0  0  0  0  0  0  0  0  0  0  0
   59.4490   31.9290   46.8080 H   0  0  0  0  0  0  0  0  0  0  0  0
   60.8624   30.3573   46.0176 H   0  0  0  0  0  0  0  0  0  0  0  0
   60.8573   29.4748   47.5916 H   0  0  0  0  0  0  0  0  0  0  0  0
   60.4597   27.3194   46.5956 H   0  0  0  0  0  0  0  0  0  0  0  0
   58.7927   25.7217   45.6783 H   0  0  0  0  0  0  0  0  0  0  0  0
   56.5854   26.5356   44.8761 H   0  0  0  0  0  0  0  0  0  0  0  0
   55.1753   30.7606   43.8050 H   0  0  0  0  0  0  0  0  0  0  0  0
   56.4664   29.7631   43.0534 H   0  0  0  0  0  0  0  0  0  0  0  0
   54.7670   29.1810   43.0534 H   0  0  0  0  0  0  0  0  0  0  0  0
   57.7726   32.8798   45.2368 H   0  0  0  0  0  0  0  0  0  0  0  0
   58.6410   31.6739   44.2276 H   0  0  0  0  0  0  0  0  0  0  0  0
   56.8452   31.7187   44.2276 H   0  0  0  0  0  0  0  0  0  0  0  0
  1  2  1  0
  2  3  1  0
  3  4  1  0
  4  5  1  0
  3  6  1  0
  6  7  1  0
  7  8  1  0
  8  9  1  0
  9 10  1  0
 10 11  2  0
 11 12  1  0
 12 13  2  0
 13 14  1  0
 14 15  1  0
 15 16  1  0
 14 17  2  0
 17 18  1  0
 18 19  1  0
 17 10  1  0
  1 20  1  0
  1 21  1  0
  1 22  1  0
  2 23  1  0
  2 24  1  0
  4 25  1  0
  4 26  1  0
  5 27  1  0
  5 28  1  0
  5 29  1  0
  6 30  1  0
  6 31  1  0
  7 32  1  0
  7 33  1  0
  8 34  1  0
  8 35  1  0
  9 36  1  0
  9 37  1  0
 11 38  1  0
 12 39  1  0
 13 40  1  0
 16 41  1  0
 16 42  1  0
 16 43  1  0
 19 44  1  0
 19 45  1  0
 19 46  1  0
M  CHG  1   8   1
M  END
>  <UniqueID>  (22) 
22

>  <SMILES>  (22) 
CCN(CC)CC[NH2+]Cc1cccc(OC)c1OC

>  <Energy>  (22) 
47.21859848052665

>  <Genealogy>  (22) 
CCN(CC)CC[NH2+]Cc1cccc(OC)c1OC (protonated)
CCN(CC)CC[NH2+]Cc1cccc(OC)c1OC (3D coordinates assigned)
CCN(CC)CC[NH2+]Cc1cccc(OC)c1OC (optimized conformer: 47.21859848052665 kcal/mol)

>  <smiles>  (22) 
CCN(CC)CCNCc1cccc(OC)c1OC

>  <score_type>  (22) 
oracle

>  <origin>  (22) 
adg

>  <m_score__min__energy>  (22) 
-4.5199999999999996

>  <m_primary>  (22) 
energy

$$$$
22:0
     RDKit          3D

 46 47  0  0  0  0  0  0  0  0999 V2000
   56.8890   30.5130   43.7060 C   0  0  0  0  0  0  0  0  0  0  0  0
   56.6410   31.2850   44.8760 O   0  0  0  0  0  0  0  0  0  0  0  0
   57.4910   32.2960   45.3530 C   0  0  0  0  0  0  0  0  0  0  0  0
   57.6560   33.4450   44.5740 C   0  0  0  0  0  0  0  0  0  0  0  0
   58.4870   34.4780   45.0080 C   0  0  0  0  0  0  0  0  0  0  0  0
   59.1560   34.3780   46.2290 C   0  0  0  0  0  0  0  0  0  0  0  0
   58.9960   33.2370   47.0410 C   0  0  0  0  0  0  0  0  0  0  0  0
   59.7150   33.0960   48.3880 C   0  0  1  0  0  0  0  0  0  0  0  0
   58.7790   32.5240   49.4550 C   0  0  0  0  0  0  0  0  0  0  0  0
   59.1920   31.0690   49.6300 C   0  0  0  0  0  0  0  0  0  0  0  0
   60.4320   30.8770   48.7620 C   0  0  0  0  0  0  0  0  0  0  0  0
   60.9070   32.2120   48.3740 N   0  0  1  0  0  0  0  0  0  0  0  0
   61.7060   32.1720   47.1240 C   0  0  0  0  0  0  0  0  0  0  0  0
   62.5430   33.4470   46.8910 C   0  0  0  0  0  0  0  0  0  0  0  0
   63.8380   33.4840   47.7210 C   0  0  0  0  0  0  0  0  0  0  0  0
   63.5810   33.0780   49.1200 N   0  0  0  0  0  0  0  0  0  0  0  0
   63.0430   34.2160   49.8830 C   0  0  0  0  0  0  0  0  0  0  0  0
   64.8130   32.5950   49.7690 C   0  0  0  0  0  0  0  0  0  0  0  0
   58.1730   32.1920   46.5810 C   0  0  0  0  0  0  0  0  0  0  0  0
   57.2136   29.5026   43.9954 H   0  0  0  0  0  0  0  0  0  0  0  0
   55.9674   30.4452   43.1093 H   0  0  0  0  0  0  0  0  0  0  0  0
   57.6776   30.9946   43.1093 H   0  0  0  0  0  0  0  0  0  0  0  0
   57.1276   33.5351   43.6134 H   0  0  0  0  0  0  0  0  0  0  0  0
   58.6157   35.3755   44.3851 H   0  0  0  0  0  0  0  0  0  0  0  0
   59.8130   35.1958   46.5600 H   0  0  0  0  0  0  0  0  0  0  0  0
   60.0396   34.1230   48.6111 H   0  0  0  0  0  0  0  0  0  0  0  0
   58.8962   33.0722   50.4014 H   0  0  0  0  0  0  0  0  0  0  0  0
   57.7235   32.6130   49.1584 H   0  0  0  0  0  0  0  0  0  0  0  0
   59.4278   30.8627   50.6844 H   0  0  0  0  0  0  0  0  0  0  0  0
   58.3842   30.3826   49.3364 H   0  0  0  0  0  0  0  0  0  0  0  0
   61.2122   30.3511   49.3319 H   0  0  0  0  0  0  0  0  0  0  0  0
   60.1943   30.2753   47.8723 H   0  0  0  0  0  0  0  0  0  0  0  0
   61.5380   32.5260   49.1500 H   0  0  0  0  0  0  0  0  0  0  0  0
   62.3887   31.3110   47.1739 H   0  0  0  0  0  0  0  0  0  0  0  0
   60.9964   32.0919   46.2873 H   0  0  0  0  0  0  0  0  0  0  0  0
   62.8096   33.4999   45.8251 H   0  0  0  0  0  0  0  0  0  0  0  0
   61.9285   34.3029   47.2070 H   0  0  0  0  0  0  0  0  0  0  0  0
   64.5711   32.7956   47.2752 H   0  0  0  0  0  0  0  0  0  0  0  0
   64.2265   34.5131   47.7198 H   0  0  0  0  0  0  0  0  0  0  0  0
   63.1387   34.0135   50.9599 H   0  0  0  0  0  0  0  0  0  0  0  0
   63.6061   35.1264   49.6296 H   0  0  0  0  0  0  0  0  0  0  0  0
   61.9821   34.3586   49.6296 H   0  0  0  0  0  0  0  0  0  0  0  0
   64.6943   32.6415   50.8616 H   0  0  0  0  0  0  0  0  0  0  0  0
   65.0043   31.5553   49.4649 H   0  0  0  0  0  0  0  0  0  0  0  0
   65.6599   33.2277   49.4649 H   0  0  0  0  0  0  0  0  0  0  0  0
   58.0609   31.2819   47.1886 H   0  0  0  0  0  0  0  0  0  0  0  0
  1  2  1  0
  2  3  1  0
  3  4  2  0
  4  5  1  0
  5  6  2  0
  6  7  1  0
  7  8  1  0
  8  9  1  0
  9 10  1  0
 10 11  1  0
 11 12  1  0
 12 13  1  0
 13 14  1  0
 14 15  1  0
 15 16  1  0
 16 17  1  0
 16 18  1  0
  7 19  2  0
 19  3  1  0
 12  8  1  0
  1 20  1  0
  1 21  1  0
  1 22  1  0
  4 23  1  0
  5 24  1  0
  6 25  1  0
  8 26  1  1
  9 27  1  0
  9 28  1  0
 10 29  1  0
 10 30  1  0
 11 31  1  0
 11 32  1  0
 12 33  1  1
 13 34  1  0
 13 35  1  0
 14 36  1  0
 14 37  1  0
 15 38  1  0
 15 39  1  0
 17 40  1  0
 17 41  1  0
 17 42  1  0
 18 43  1  0
 18 44  1  0
 18 45  1  0
 19 46  1  0
M  CHG  1  12   1
M  END
>  <UniqueID>  (23) 
23

>  <SMILES>  (23) 
COc1cccc([C@H]2CCC[N@H+]2CCCN(C)C)c1

>  <Energy>  (23) 
51.661662009804076

>  <Genealogy>  (23) 
COc1cccc(C2CCC[NH+]2CCCN(C)C)c1 (protonated)
COc1cccc([C@H]2CCC[N@H+]2CCCN(C)C)c1 (chirality)
COc1cccc([C@H]2CCC[N@H+]2CCCN(C)C)c1 (3D coordinates assigned)
COc1cccc([C@H]2CCC[N@H+]2CCCN(C)C)c1 (nonaromatic ring conformer: 51.661662009804076 kcal/mol)

>  <smiles>  (23) 
COc1cccc(C2CCCN2CCCN(C)C)c1

>  <score_type>  (23) 
oracle

>  <origin>  (23) 
adg

>  <m_score__min__energy>  (23) 
-4.6799999999999997

>  <m_primary>  (23) 
energy

$$$$
23:0
     RDKit          3D

 60 63  0  0  0  0  0  0  0  0999 V2000
   65.8990   31.9140   50.5100 C   0  0  0  0  0  0  0  0  0  0  0  0
   65.2620   33.0790   49.7470 C   0  0  0  0  0  0  0  0  0  0  0  0
   63.8390   32.8000   49.3770 N   0  0  0  0  0  0  0  0  0  0  0  0
   63.7590   32.4340   47.9380 C   0  0  0  0  0  0  0  0  0  0  0  0
   63.4050   33.6190   47.0270 C   0  0  0  0  0  0  0  0  0  0  0  0
   63.2620   31.7200   50.2240 C   0  0  0  0  0  0  0  0  0  0  0  0
   62.0210   32.1750   51.0060 C   0  0  0  0  0  0  0  0  0  0  0  0
   61.7860   33.5370   50.7270 O   0  0  0  0  0  0  0  0  0  0  0  0
   60.5240   33.6990   50.1110 C   0  0  0  0  0  0  0  0  0  0  0  0
   59.9150   32.3230   49.8340 C   0  0  0  0  0  0  0  0  0  0  0  0
   60.4560   31.7350   48.6030 N   0  0  0  0  0  0  0  0  0  0  0  0
   59.6820   31.6430   47.3960 C   0  0  0  0  0  0  0  0  0  0  0  0
   59.4470   32.7590   46.5680 C   0  0  0  0  0  0  0  0  0  0  0  0
   59.8200   34.0550   46.9750 C   0  0  0  0  0  0  0  0  0  0  0  0
   59.6320   35.1470   46.1300 C   0  0  0  0  0  0  0  0  0  0  0  0
   59.0660   34.9680   44.8730 C   0  0  0  0  0  0  0  0  0  0  0  0
   58.6460   33.7030   44.4630 C   0  0  0  0  0  0  0  0  0  0  0  0
   58.7900   32.5760   45.3100 C   0  0  0  0  0  0  0  0  0  0  0  0
   58.3150   31.3260   44.9400 N   0  0  0  0  0  0  0  0  0  0  0  0
   57.3210   31.2090   43.8580 C   0  0  0  0  0  0  0  0  0  0  0  0
   58.6710   30.2270   45.6940 C   0  0  0  0  0  0  0  0  0  0  0  0
   59.2650   30.3990   46.9420 C   0  0  0  0  0  0  0  0  0  0  0  0
   59.4950   28.9170   47.7120 S   0  0  0  0  0  0  0  0  0  0  0  0
   58.8960   28.0140   46.4320 C   0  0  0  0  0  0  0  0  0  0  0  0
   58.8670   26.6250   46.3410 C   0  0  0  0  0  0  0  0  0  0  0  0
   58.4690   26.0430   45.1340 C   0  0  0  0  0  0  0  0  0  0  0  0
   58.1430   26.8530   44.0350 C   0  0  0  0  0  0  0  0  0  0  0  0
   58.1860   28.2520   44.1400 C   0  0  0  0  0  0  0  0  0  0  0  0
   58.5170   28.8470   45.3740 C   0  0  0  0  0  0  0  0  0  0  0  0
   65.8036   32.0884   51.5919 H   0  0  0  0  0  0  0  0  0  0  0  0
   65.3874   30.9775   50.2431 H   0  0  0  0  0  0  0  0  0  0  0  0
   66.9635   31.8393   50.2431 H   0  0  0  0  0  0  0  0  0  0  0  0
   65.2939   33.9775   50.3808 H   0  0  0  0  0  0  0  0  0  0  0  0
   65.8308   33.2256   48.8170 H   0  0  0  0  0  0  0  0  0  0  0  0
   63.2600   33.6630   49.5110 H   0  0  0  0  0  0  0  0  0  0  0  0
   64.7343   32.0328   47.6253 H   0  0  0  0  0  0  0  0  0  0  0  0
   62.9528   31.6927   47.8353 H   0  0  0  0  0  0  0  0  0  0  0  0
   63.1444   34.4912   47.6446 H   0  0  0  0  0  0  0  0  0  0  0  0
   64.2691   33.8643   46.3920 H   0  0  0  0  0  0  0  0  0  0  0  0
   62.5480   33.3501   46.3920 H   0  0  0  0  0  0  0  0  0  0  0  0
   62.9792   30.8779   49.5752 H   0  0  0  0  0  0  0  0  0  0  0  0
   64.0281   31.4304   50.9583 H   0  0  0  0  0  0  0  0  0  0  0  0
   61.1498   31.5782   50.6979 H   0  0  0  0  0  0  0  0  0  0  0  0
   62.1856   32.0360   52.0847 H   0  0  0  0  0  0  0  0  0  0  0  0
   59.8596   34.2670   50.7788 H   0  0  0  0  0  0  0  0  0  0  0  0
   60.6441   34.2457   49.1641 H   0  0  0  0  0  0  0  0  0  0  0  0
   60.1407   31.6553   50.6786 H   0  0  0  0  0  0  0  0  0  0  0  0
   58.8286   32.4441   49.7110 H   0  0  0  0  0  0  0  0  0  0  0  0
   61.4890   31.5970   48.5370 H   0  0  0  0  0  0  0  0  0  0  0  0
   60.2641   34.2065   47.9699 H   0  0  0  0  0  0  0  0  0  0  0  0
   59.9322   36.1530   46.4584 H   0  0  0  0  0  0  0  0  0  0  0  0
   58.9488   35.8287   44.1982 H   0  0  0  0  0  0  0  0  0  0  0  0
   58.1961   33.5781   43.4670 H   0  0  0  0  0  0  0  0  0  0  0  0
   56.3176   31.0909   44.2931 H   0  0  0  0  0  0  0  0  0  0  0  0
   57.3468   32.1164   43.2367 H   0  0  0  0  0  0  0  0  0  0  0  0
   57.5568   30.3324   43.2367 H   0  0  0  0  0  0  0  0  0  0  0  0
   59.1510   25.9994   47.2000 H   0  0  0  0  0  0  0  0  0  0  0  0
   58.4112   24.9481   45.0453 H   0  0  0  0  0  0  0  0  0  0  0  0
   57.8510   26.3869   43.0824 H   0  0  0  0  0  0  0  0  0  0  0  0
   57.9628   28.8799   43.2648 H   0  0  0  0  0  0  0  0  0  0  0  0
  1  2  1  0
  2  3  1  0
  3  4  1  0
  4  5  1  0
  3  6  1  0
  6  7  1  0
  7  8  1  0
  8  9  1  0
  9 10  1  0
 10 11  1  0
 11 12  1  0
 12 13  2  0
 13 14  1  0
 14 15  2  0
 15 16  1  0
 16 17  2  0
 17 18  1  0
 18 19  2  0
 19 20  1  0
 19 21  1  0
 21 22  2  0
 22 23  1  0
 23 24  1  0
 24 25  2  0
 25 26  1  0
 26 27  2  0
 27 28  1  0
 28 29  2  0
 22 12  1  0
 29 24  1  0
 18 13  1  0
 29 21  1  0
  1 30  1  0
  1 31  1  0
  1 32  1  0
  2 33  1  0
  2 34  1  0
  3 35  1  0
  4 36  1  0
  4 37  1  0
  5 38  1  0
  5 39  1  0
  5 40  1  0
  6 41  1  0
  6 42  1  0
  7 43  1  0
  7 44  1  0
  9 45  1  0
  9 46  1  0
 10 47  1  0
 10 48  1  0
 11 49  1  0
 14 50  1  0
 15 51  1  0
 16 52  1  0
 17 53  1  0
 20 54  1  0
 20 55  1  0
 20 56  1  0
 25 57  1  0
 26 58  1  0
 27 59  1  0
 28 60  1  0
M  CHG  2   3   1  19   1
M  END
>  <UniqueID>  (24) 
24

>  <SMILES>  (24) 
CC[NH+](CC)CCOCCNc1c2ccccc2[n+](C)c2c1sc1ccccc12

>  <Energy>  (24) 
120.25229661351499

>  <Genealogy>  (24) 
CC[NH+](CC)CCOCCNc1c2ccccc2[n+](C)c2c1sc1ccccc12 (protonated)
CC[NH+](CC)CCOCCNc1c2ccccc2[n+](C)c2c1sc1ccccc12 (3D coordinates assigned)
CC[NH+](CC)CCOCCNc1c2ccccc2[n+](C)c2c1sc1ccccc12 (optimized conformer: 120.25229661351499 kcal/mol)

>  <smiles>  (24) 
CCN(CC)CCOCCNc1c2ccccc2[n+](C)c2c1sc1ccccc12

>  <score_type>  (24) 
oracle

>  <origin>  (24) 
adg

>  <m_score__min__energy>  (24) 
-4.7800000000000002

>  <m_primary>  (24) 
energy

$$$$
24:0
     RDKit          3D

 45 47  0  0  0  0  0  0  0  0999 V2000
   57.3810   29.0440   43.7500 C   0  0  0  0  0  0  0  0  0  0  0  0
   56.4450   30.2470   43.7690 C   0  0  0  0  0  0  0  0  0  0  0  0
   56.7400   31.1000   44.8730 O   0  0  0  0  0  0  0  0  0  0  0  0
   57.7630   32.0540   44.8610 C   0  0  0  0  0  0  0  0  0  0  0  0
   58.5120   32.1750   43.8540 O   0  0  0  0  0  0  0  0  0  0  0  0
   58.0330   32.8610   46.0650 C   0  0  0  0  0  0  0  0  0  0  0  0
   58.2050   34.1720   45.9990 C   0  0  0  0  0  0  0  0  0  0  0  0
   58.9080   34.6430   47.2270 C   0  0  0  0  0  0  0  0  0  0  0  0
   59.5050   33.4190   47.7970 N   0  0  2  0  0  0  0  0  0  0  0  0
   61.0910   33.1250   47.0580 S   0  0  0  0  0  0  0  0  0  0  0  0
   61.1440   31.7620   46.4210 O   0  0  0  0  0  0  0  0  0  0  0  0
   61.4050   34.1350   45.9890 O   0  0  0  0  0  0  0  0  0  0  0  0
   62.3470   33.2530   48.2880 C   0  0  0  0  0  0  0  0  0  0  0  0
   62.1480   34.0920   49.3940 C   0  0  0  0  0  0  0  0  0  0  0  0
   63.1320   34.1980   50.3810 C   0  0  0  0  0  0  0  0  0  0  0  0
   64.3180   33.4680   50.2690 C   0  0  0  0  0  0  0  0  0  0  0  0
   64.5230   32.6340   49.1670 C   0  0  0  0  0  0  0  0  0  0  0  0
   63.5420   32.5260   48.1760 C   0  0  0  0  0  0  0  0  0  0  0  0
   58.4800   32.4090   47.4330 C   0  0  2  0  0  0  0  0  0  0  0  0
   58.8140   30.9380   47.6930 C   0  0  0  0  0  0  0  0  0  0  0  0
   58.8720   30.0000   46.6410 C   0  0  0  0  0  0  0  0  0  0  0  0
   59.2680   28.6800   46.8760 C   0  0  0  0  0  0  0  0  0  0  0  0
   59.6850   28.2910   48.1480 C   0  0  0  0  0  0  0  0  0  0  0  0
   60.0790   27.0140   48.3740 F   0  0  0  0  0  0  0  0  0  0  0  0
   59.7480   29.2330   49.1750 C   0  0  0  0  0  0  0  0  0  0  0  0
   59.3500   30.5530   48.9400 C   0  0  0  0  0  0  0  0  0  0  0  0
   57.6141   28.7444   44.7824 H   0  0  0  0  0  0  0  0  0  0  0  0
   56.8933   28.2082   43.2269 H   0  0  0  0  0  0  0  0  0  0  0  0
   58.3110   29.3113   43.2269 H   0  0  0  0  0  0  0  0  0  0  0  0
   56.5658   30.8129   42.8335 H   0  0  0  0  0  0  0  0  0  0  0  0
   55.4101   29.8874   43.8676 H   0  0  0  0  0  0  0  0  0  0  0  0
   57.8798   34.8143   45.1673 H   0  0  0  0  0  0  0  0  0  0  0  0
   59.6884   35.3753   46.9727 H   0  0  0  0  0  0  0  0  0  0  0  0
   58.2309   35.1480   47.9316 H   0  0  0  0  0  0  0  0  0  0  0  0
   59.5930   33.5120   48.8360 H   0  0  0  0  0  0  0  0  0  0  0  0
   61.2153   34.6680   49.4850 H   0  0  0  0  0  0  0  0  0  0  0  0
   62.9724   34.8571   51.2471 H   0  0  0  0  0  0  0  0  0  0  0  0
   65.0901   33.5499   51.0482 H   0  0  0  0  0  0  0  0  0  0  0  0
   65.4579   32.0611   49.0786 H   0  0  0  0  0  0  0  0  0  0  0  0
   63.7073   31.8707   47.3081 H   0  0  0  0  0  0  0  0  0  0  0  0
   57.6226   32.3823   48.1215 H   0  0  0  0  0  0  0  0  0  0  0  0
   58.6018   30.3116   45.6212 H   0  0  0  0  0  0  0  0  0  0  0  0
   59.2505   27.9472   46.0558 H   0  0  0  0  0  0  0  0  0  0  0  0
   60.1110   28.9374   50.1704 H   0  0  0  0  0  0  0  0  0  0  0  0
   59.4564   31.3017   49.7388 H   0  0  0  0  0  0  0  0  0  0  0  0
  1  2  1  0
  2  3  1  0
  3  4  1  0
  4  5  2  0
  4  6  1  0
  6  7  2  0
  7  8  1  0
  8  9  1  0
  9 10  1  0
 10 11  2  0
 10 12  2  0
 10 13  1  0
 13 14  2  0
 14 15  1  0
 15 16  2  0
 16 17  1  0
 17 18  2  0
  9 19  1  0
 19 20  1  0
 20 21  2  0
 21 22  1  0
 22 23  2  0
 23 24  1  0
 23 25  1  0
 25 26  2  0
 19  6  1  0
 26 20  1  0
 18 13  1  0
  1 27  1  0
  1 28  1  0
  1 29  1  0
  2 30  1  0
  2 31  1  0
  7 32  1  0
  8 33  1  0
  8 34  1  0
  9 35  1  1
 14 36  1  0
 15 37  1  0
 16 38  1  0
 17 39  1  0
 18 40  1  0
 19 41  1  1
 21 42  1  0
 22 43  1  0
 25 44  1  0
 26 45  1  0
M  CHG  1   9   1
M  END
>  <UniqueID>  (25) 
25

>  <SMILES>  (25) 
CCOC(=O)C1=CC[N@H+](S(=O)(=O)c2ccccc2)[C@@H]1c1ccc(F)cc1

>  <Energy>  (25) 
77.60416438160772

>  <Genealogy>  (25) 
CCOC(=O)C1=CC[NH+](S(=O)(=O)c2ccccc2)C1c1ccc(F)cc1 (protonated)
CCOC(=O)C1=CC[N@H+](S(=O)(=O)c2ccccc2)[C@@H]1c1ccc(F)cc1 (chirality)
CCOC(=O)C1=CC[N@H+](S(=O)(=O)c2ccccc2)[C@@H]1c1ccc(F)cc1 (3D coordinates assigned)
CCOC(=O)C1=CC[N@H+](S(=O)(=O)c2ccccc2)[C@@H]1c1ccc(F)cc1 (nonaromatic ring conformer: 77.60416438160772 kcal/mol)

>  <smiles>  (25) 
CCOC(=O)C1=CCN(S(=O)(=O)c2ccccc2)C1c1ccc(F)cc1

>  <score_type>  (25) 
oracle

>  <origin>  (25) 
adg

>  <m_score__min__energy>  (25) 
-6.8300000000000001

>  <m_primary>  (25) 
energy

$$$$
25:0
     RDKit          3D

 45 46  0  0  0  0  0  0  0  0999 V2000
   56.2660   29.4850   44.4660 C   0  0  0  0  0  0  0  0  0  0  0  0
   57.4500   30.4530   44.4470 C   0  0  0  0  0  0  0  0  0  0  0  0
   57.0310   31.8170   44.0490 N   0  0  0  0  0  0  0  0  0  0  0  0
   58.0670   32.4600   43.2150 C   0  0  0  0  0  0  0  0  0  0  0  0
   56.7440   32.6450   45.2450 C   0  0  0  0  0  0  0  0  0  0  0  0
   57.7630   33.7850   45.3800 C   0  0  0  0  0  0  0  0  0  0  0  0
   58.0830   34.0230   46.8080 N   0  0  0  0  0  0  0  0  0  0  0  0
   59.1890   34.9930   46.9550 C   0  0  0  0  0  0  0  0  0  0  0  0
   60.4050   34.6130   46.1020 C   0  0  0  0  0  0  0  0  0  0  0  0
   61.2580   33.5070   46.7020 C   0  0  0  0  0  0  0  0  0  0  0  0
   62.6120   33.8100   46.9280 C   0  0  0  0  0  0  0  0  0  0  0  0
   63.4740   32.8750   47.4890 C   0  0  0  0  0  0  0  0  0  0  0  0
   63.0060   31.6150   47.8380 C   0  0  0  0  0  0  0  0  0  0  0  0
   61.6550   31.2760   47.6460 C   0  0  0  0  0  0  0  0  0  0  0  0
   61.1770   29.9940   47.9750 O   0  0  0  0  0  0  0  0  0  0  0  0
   60.6930   29.6090   49.2580 C   0  0  0  0  0  0  0  0  0  0  0  0
   60.7550   32.2330   47.1110 C   0  0  0  0  0  0  0  0  0  0  0  0
   59.3030   31.8120   46.9100 C   0  0  0  0  0  0  0  0  0  0  0  0
   58.2790   32.7610   47.5600 C   0  0  0  0  0  0  0  0  0  0  0  0
   55.9921   29.2611   45.5076 H   0  0  0  0  0  0  0  0  0  0  0  0
   55.4087   29.9442   43.9520 H   0  0  0  0  0  0  0  0  0  0  0  0
   56.5456   28.5535   43.9520 H   0  0  0  0  0  0  0  0  0  0  0  0
   57.8935   30.4947   45.4528 H   0  0  0  0  0  0  0  0  0  0  0  0
   58.1815   30.0885   43.7107 H   0  0  0  0  0  0  0  0  0  0  0  0
   58.8216   32.9284   43.8640 H   0  0  0  0  0  0  0  0  0  0  0  0
   58.5490   31.7021   42.5800 H   0  0  0  0  0  0  0  0  0  0  0  0
   57.6018   33.2283   42.5800 H   0  0  0  0  0  0  0  0  0  0  0  0
   55.7349   33.0731   45.1528 H   0  0  0  0  0  0  0  0  0  0  0  0
   56.8107   32.0067   46.1383 H   0  0  0  0  0  0  0  0  0  0  0  0
   58.6836   33.5144   44.8421 H   0  0  0  0  0  0  0  0  0  0  0  0
   57.3323   34.7023   44.9522 H   0  0  0  0  0  0  0  0  0  0  0  0
   58.8336   35.9864   46.6437 H   0  0  0  0  0  0  0  0  0  0  0  0
   59.5014   34.9940   48.0097 H   0  0  0  0  0  0  0  0  0  0  0  0
   60.0462   34.2781   45.1176 H   0  0  0  0  0  0  0  0  0  0  0  0
   61.0418   35.5077   46.0380 H   0  0  0  0  0  0  0  0  0  0  0  0
   62.9960   34.8043   46.6562 H   0  0  0  0  0  0  0  0  0  0  0  0
   64.5298   33.1338   47.6570 H   0  0  0  0  0  0  0  0  0  0  0  0
   63.6980   30.8760   48.2682 H   0  0  0  0  0  0  0  0  0  0  0  0
   61.2995   30.0915   50.0386 H   0  0  0  0  0  0  0  0  0  0  0  0
   59.6437   29.9220   49.3631 H   0  0  0  0  0  0  0  0  0  0  0  0
   60.7620   28.5162   49.3631 H   0  0  0  0  0  0  0  0  0  0  0  0
   59.1008   31.7729   45.8295 H   0  0  0  0  0  0  0  0  0  0  0  0
   59.1850   30.8338   47.3992 H   0  0  0  0  0  0  0  0  0  0  0  0
   57.3124   32.2397   47.6235 H   0  0  0  0  0  0  0  0  0  0  0  0
   58.6723   33.0322   48.5508 H   0  0  0  0  0  0  0  0  0  0  0  0
  1  2  1  0
  2  3  1  0
  3  4  1  0
  3  5  1  0
  5  6  1  0
  6  7  1  0
  7  8  1  0
  8  9  1  0
  9 10  1  0
 10 11  2  0
 11 12  1  0
 12 13  2  0
 13 14  1  0
 14 15  1  0
 15 16  1  0
 14 17  2  0
 17 18  1  0
 18 19  1  0
 19  7  1  0
 17 10  1  0
  1 20  1  0
  1 21  1  0
  1 22  1  0
  2 23  1  0
  2 24  1  0
  4 25  1  0
  4 26  1  0
  4 27  1  0
  5 28  1  0
  5 29  1  0
  6 30  1  0
  6 31  1  0
  8 32  1  0
  8 33  1  0
  9 34  1  0
  9 35  1  0
 11 36  1  0
 12 37  1  0
 13 38  1  0
 16 39  1  0
 16 40  1  0
 16 41  1  0
 18 42  1  0
 18 43  1  0
 19 44  1  0
 19 45  1  0
M  END
>  <UniqueID>  (26) 
26

>  <SMILES>  (26) 
CCN(C)CCN1CCc2cccc(OC)c2CC1

>  <Energy>  (26) 
57.695446598023096

>  <Genealogy>  (26) 
CCN(C)CCN1CCc2cccc(OC)c2CC1 (3D coordinates assigned)
CCN(C)CCN1CCc2cccc(OC)c2CC1 (nonaromatic ring conformer: 57.695446598023096 kcal/mol)

>  <smiles>  (26) 
CCN(C)CCN1CCc2cccc(OC)c2CC1

>  <score_type>  (26) 
oracle

>  <origin>  (26) 
adg

>  <m_score__min__energy>  (26) 
-5

>  <m_primary>  (26) 
energy

$$$$
26:0
     RDKit          3D

 40 41  0  0  0  0  0  0  0  0999 V2000
   59.2840   34.5950   45.2050 C   0  0  0  0  0  0  0  0  0  0  0  0
   58.6350   33.2690   44.9360 C   0  0  0  0  0  0  0  0  0  0  0  0
   58.1340   32.9740   43.6600 C   0  0  0  0  0  0  0  0  0  0  0  0
   57.4970   31.7540   43.4170 C   0  0  0  0  0  0  0  0  0  0  0  0
   57.3400   30.8180   44.4520 C   0  0  0  0  0  0  0  0  0  0  0  0
   56.6730   29.4890   44.1880 C   0  0  0  0  0  0  0  0  0  0  0  0
   57.5270   28.5920   43.3880 N   0  0  0  0  0  0  0  0  0  0  0  0
   58.7620   28.2250   44.1040 C   0  0  0  0  0  0  0  0  0  0  0  0
   58.6210   26.8640   44.8080 C   0  0  0  0  0  0  0  0  0  0  0  0
   57.2080   26.4280   44.9050 N   0  0  0  0  0  0  0  0  0  0  0  0
   56.6530   26.6830   46.2560 C   0  0  0  0  0  0  0  0  0  0  0  0
   56.6350   25.4070   47.1180 C   0  0  0  0  0  0  0  0  0  0  0  0
   55.8670   24.3510   46.5590 O   0  0  0  0  0  0  0  0  0  0  0  0
   55.8040   24.3800   45.1390 C   0  0  0  0  0  0  0  0  0  0  0  0
   57.0400   25.0160   44.4830 C   0  0  0  0  0  0  0  0  0  0  0  0
   57.8310   31.1200   45.7320 C   0  0  0  0  0  0  0  0  0  0  0  0
   58.4670   32.3400   45.9740 C   0  0  0  0  0  0  0  0  0  0  0  0
   59.3609   34.7520   46.2910 H   0  0  0  0  0  0  0  0  0  0  0  0
   60.2901   34.6077   44.7606 H   0  0  0  0  0  0  0  0  0  0  0  0
   58.6767   35.3973   44.7606 H   0  0  0  0  0  0  0  0  0  0  0  0
   58.2429   33.7063   42.8464 H   0  0  0  0  0  0  0  0  0  0  0  0
   57.1168   31.5259   42.4103 H   0  0  0  0  0  0  0  0  0  0  0  0
   56.4529   29.0046   45.1508 H   0  0  0  0  0  0  0  0  0  0  0  0
   55.7514   29.6785   43.6182 H   0  0  0  0  0  0  0  0  0  0  0  0
   56.9920   27.7300   43.1300 H   0  0  0  0  0  0  0  0  0  0  0  0
   57.7780   29.0980   42.5070 H   0  0  0  0  0  0  0  0  0  0  0  0
   59.5908   28.1705   43.3828 H   0  0  0  0  0  0  0  0  0  0  0  0
   58.9589   28.9909   44.8686 H   0  0  0  0  0  0  0  0  0  0  0  0
   59.1860   26.1107   44.2393 H   0  0  0  0  0  0  0  0  0  0  0  0
   59.0127   26.9703   45.8304 H   0  0  0  0  0  0  0  0  0  0  0  0
   57.2712   27.4424   46.7572 H   0  0  0  0  0  0  0  0  0  0  0  0
   55.6160   27.0309   46.1392 H   0  0  0  0  0  0  0  0  0  0  0  0
   57.6703   25.0562   47.2407 H   0  0  0  0  0  0  0  0  0  0  0  0
   56.1656   25.6733   48.0765 H   0  0  0  0  0  0  0  0  0  0  0  0
   55.7088   23.3468   44.7736 H   0  0  0  0  0  0  0  0  0  0  0  0
   54.9377   25.0006   44.8663 H   0  0  0  0  0  0  0  0  0  0  0  0
   57.9341   24.4459   44.7755 H   0  0  0  0  0  0  0  0  0  0  0  0
   56.9038   24.9938   43.3917 H   0  0  0  0  0  0  0  0  0  0  0  0
   57.7143   30.3923   46.5486 H   0  0  0  0  0  0  0  0  0  0  0  0
   58.8378   32.5734   46.9830 H   0  0  0  0  0  0  0  0  0  0  0  0
  1  2  1  0
  2  3  2  0
  3  4  1  0
  4  5  2  0
  5  6  1  0
  6  7  1  0
  7  8  1  0
  8  9  1  0
  9 10  1  0
 10 11  1  0
 11 12  1  0
 12 13  1  0
 13 14  1  0
 14 15  1  0
  5 16  1  0
 16 17  2  0
 17  2  1  0
 15 10  1  0
  1 18  1  0
  1 19  1  0
  1 20  1  0
  3 21  1  0
  4 22  1  0
  6 23  1  0
  6 24  1  0
  7 25  1  0
  7 26  1  0
  8 27  1  0
  8 28  1  0
  9 29  1  0
  9 30  1  0
 11 31  1  0
 11 32  1  0
 12 33  1  0
 12 34  1  0
 14 35  1  0
 14 36  1  0
 15 37  1  0
 15 38  1  0
 16 39  1  0
 17 40  1  0
M  CHG  1   7   1
M  END
>  <UniqueID>  (27) 
27

>  <SMILES>  (27) 
Cc1ccc(C[NH2+]CCN2CCOCC2)cc1

>  <Energy>  (27) 
50.75637806136886

>  <Genealogy>  (27) 
Cc1ccc(C[NH2+]CCN2CCOCC2)cc1 (protonated)
Cc1ccc(C[NH2+]CCN2CCOCC2)cc1 (3D coordinates assigned)
Cc1ccc(C[NH2+]CCN2CCOCC2)cc1 (nonaromatic ring conformer: 50.75637806136886 kcal/mol)

>  <smiles>  (27) 
Cc1ccc(CNCCN2CCOCC2)cc1

>  <score_type>  (27) 
oracle

>  <origin>  (27) 
adg

>  <m_score__min__energy>  (27) 
-4.9000000000000004

>  <m_primary>  (27) 
energy

$$$$
27:0
     RDKit          3D

 44 46  0  0  0  0  0  0  0  0999 V2000
   61.3360   30.4520   48.0460 C   0  0  0  0  0  0  0  0  0  0  0  0
   60.0410   30.2900   47.3690 N   0  0  0  0  0  0  0  0  0  0  0  0
   60.2160   29.9990   45.9240 C   0  0  0  0  0  0  0  0  0  0  0  0
   60.0980   28.4980   45.6070 C   0  0  0  0  0  0  0  0  0  0  0  0
   58.7990   27.9210   46.0470 N   0  0  0  0  0  0  0  0  0  0  0  0
   57.8610   27.7290   44.9200 C   0  0  0  0  0  0  0  0  0  0  0  0
   56.6840   28.7040   45.0330 C   0  0  0  0  0  0  0  0  0  0  0  0
   57.0350   29.9940   44.4300 N   0  0  0  0  0  0  0  0  0  0  0  0
   57.5770   30.9330   45.2130 N   0  0  0  0  0  0  0  0  0  0  0  0
   57.9640   32.1490   44.7420 C   0  0  0  0  0  0  0  0  0  0  0  0
   58.5460   33.1390   45.6840 C   0  0  0  0  0  0  0  0  0  0  0  0
   58.9020   34.4320   45.2570 C   0  0  0  0  0  0  0  0  0  0  0  0
   59.4590   35.3320   46.1660 C   0  0  0  0  0  0  0  0  0  0  0  0
   59.6650   34.9440   47.4890 C   0  0  0  0  0  0  0  0  0  0  0  0
   59.3140   33.6540   47.8840 C   0  0  0  0  0  0  0  0  0  0  0  0
   58.7720   32.7840   46.9860 N   0  0  0  0  0  0  0  0  0  0  0  0
   57.7790   32.4310   43.3820 C   0  0  0  0  0  0  0  0  0  0  0  0
   57.2300   31.4580   42.5540 C   0  0  0  0  0  0  0  0  0  0  0  0
   56.8620   30.2260   43.0910 C   0  0  0  0  0  0  0  0  0  0  0  0
   56.3740   29.3400   42.3370 O   0  0  0  0  0  0  0  0  0  0  0  0
   58.1580   28.6830   47.1430 C   0  0  0  0  0  0  0  0  0  0  0  0
   59.2070   29.2920   48.0780 C   0  0  0  0  0  0  0  0  0  0  0  0
   61.1851   30.4331   49.1354 H   0  0  0  0  0  0  0  0  0  0  0  0
   62.0074   29.6308   47.7545 H   0  0  0  0  0  0  0  0  0  0  0  0
   61.7844   31.4132   47.7545 H   0  0  0  0  0  0  0  0  0  0  0  0
   59.4432   30.5408   45.3589 H   0  0  0  0  0  0  0  0  0  0  0  0
   61.2276   30.3226   45.6379 H   0  0  0  0  0  0  0  0  0  0  0  0
   60.1954   28.3587   44.5202 H   0  0  0  0  0  0  0  0  0  0  0  0
   60.8968   27.9776   46.1558 H   0  0  0  0  0  0  0  0  0  0  0  0
   58.3908   27.9085   43.9728 H   0  0  0  0  0  0  0  0  0  0  0  0
   57.4754   26.6992   44.9480 H   0  0  0  0  0  0  0  0  0  0  0  0
   55.8124   28.2836   44.5099 H   0  0  0  0  0  0  0  0  0  0  0  0
   56.4461   28.8576   46.0959 H   0  0  0  0  0  0  0  0  0  0  0  0
   58.7417   34.7318   44.2108 H   0  0  0  0  0  0  0  0  0  0  0  0
   59.7350   36.3455   45.8395 H   0  0  0  0  0  0  0  0  0  0  0  0
   60.0999   35.6482   48.2135 H   0  0  0  0  0  0  0  0  0  0  0  0
   59.4752   33.3370   48.9249 H   0  0  0  0  0  0  0  0  0  0  0  0
   58.5160   31.8290   47.3230 H   0  0  0  0  0  0  0  0  0  0  0  0
   58.0650   33.4116   42.9737 H   0  0  0  0  0  0  0  0  0  0  0  0
   57.0872   31.6596   41.4821 H   0  0  0  0  0  0  0  0  0  0  0  0
   57.5496   29.4911   46.7107 H   0  0  0  0  0  0  0  0  0  0  0  0
   57.5284   27.9944   47.7256 H   0  0  0  0  0  0  0  0  0  0  0  0
   58.6960   29.7837   48.9189 H   0  0  0  0  0  0  0  0  0  0  0  0
   59.8613   28.4853   48.4402 H   0  0  0  0  0  0  0  0  0  0  0  0
  1  2  1  0
  2  3  1  0
  3  4  1  0
  4  5  1  0
  5  6  1  0
  6  7  1  0
  7  8  1  0
  8  9  1  0
  9 10  2  0
 10 11  1  0
 11 12  2  0
 12 13  1  0
 13 14  2  0
 14 15  1  0
 15 16  2  0
 10 17  1  0
 17 18  2  0
 18 19  1  0
 19 20  2  0
  5 21  1  0
 21 22  1  0
 22  2  1  0
 19  8  1  0
 16 11  1  0
  1 23  1  0
  1 24  1  0
  1 25  1  0
  3 26  1  0
  3 27  1  0
  4 28  1  0
  4 29  1  0
  6 30  1  0
  6 31  1  0
  7 32  1  0
  7 33  1  0
 12 34  1  0
 13 35  1  0
 14 36  1  0
 15 37  1  0
 16 38  1  0
 17 39  1  0
 18 40  1  0
 21 41  1  0
 21 42  1  0
 22 43  1  0
 22 44  1  0
M  CHG  1  16   1
M  END
>  <UniqueID>  (28) 
28

>  <SMILES>  (28) 
CN1CCN(CCn2nc(-c3cccc[nH+]3)ccc2=O)CC1

>  <Energy>  (28) 
61.075892035581376

>  <Genealogy>  (28) 
CN1CCN(CCn2nc(-c3cccc[nH+]3)ccc2=O)CC1 (protonated)
CN1CCN(CCn2nc(-c3cccc[nH+]3)ccc2=O)CC1 (3D coordinates assigned)
CN1CCN(CCn2nc(-c3cccc[nH+]3)ccc2=O)CC1 (nonaromatic ring conformer: 61.075892035581376 kcal/mol)

>  <smiles>  (28) 
CN1CCN(CCn2nc(-c3ccccn3)ccc2=O)CC1

>  <score_type>  (28) 
oracle

>  <origin>  (28) 
adg

>  <m_score__min__energy>  (28) 
-5.1799999999999997

>  <m_primary>  (28) 
energy

$$$$
28:0
     RDKit          3D

 48 51  0  0  0  0  0  0  0  0999 V2000
   55.0490   23.1750   47.0920 C   0  0  0  0  0  0  0  0  0  0  0  0
   54.8730   24.3850   46.3620 O   0  0  0  0  0  0  0  0  0  0  0  0
   55.9230   25.1980   45.9110 C   0  0  0  0  0  0  0  0  0  0  0  0
   56.5760   24.8440   44.7250 C   0  0  0  0  0  0  0  0  0  0  0  0
   57.6250   25.6250   44.2320 C   0  0  0  0  0  0  0  0  0  0  0  0
   58.0290   26.7870   44.9100 C   0  0  0  0  0  0  0  0  0  0  0  0
   59.1630   27.6340   44.3670 C   0  0  0  0  0  0  0  0  0  0  0  0
   58.7960   29.0470   44.1250 N   0  0  0  0  0  0  0  0  0  0  0  0
   59.1810   29.9840   45.2080 C   0  0  0  0  0  0  0  0  0  0  0  0
   57.9610   30.4830   46.0000 C   0  0  0  0  0  0  0  0  0  0  0  0
   56.9490   31.1430   45.1320 N   0  0  0  0  0  0  0  0  0  0  0  0
   57.0190   32.6150   45.2120 C   0  0  0  0  0  0  0  0  0  0  0  0
   58.1560   33.0330   46.0930 C   0  0  0  0  0  0  0  0  0  0  0  0
   58.0030   33.2640   47.4240 N   0  0  0  0  0  0  0  0  0  0  0  0
   59.2470   33.5850   47.8050 C   0  0  0  0  0  0  0  0  0  0  0  0
   59.6880   33.9210   49.0830 C   0  0  0  0  0  0  0  0  0  0  0  0
   61.0550   34.2180   49.2460 C   0  0  0  0  0  0  0  0  0  0  0  0
   61.9330   34.1720   48.1390 C   0  0  0  0  0  0  0  0  0  0  0  0
   61.4510   33.8270   46.8610 C   0  0  0  0  0  0  0  0  0  0  0  0
   60.0930   33.5400   46.7390 C   0  0  0  0  0  0  0  0  0  0  0  0
   59.4250   33.1890   45.6310 N   0  0  0  0  0  0  0  0  0  0  0  0
   56.9940   30.6960   43.7190 C   0  0  0  0  0  0  0  0  0  0  0  0
   57.4180   29.2290   43.6170 C   0  0  0  0  0  0  0  0  0  0  0  0
   57.3920   27.1260   46.1140 C   0  0  0  0  0  0  0  0  0  0  0  0
   56.3430   26.3470   46.6080 C   0  0  0  0  0  0  0  0  0  0  0  0
   55.0178   23.3895   48.1704 H   0  0  0  0  0  0  0  0  0  0  0  0
   54.2438   22.4711   46.8347 H   0  0  0  0  0  0  0  0  0  0  0  0
   56.0214   22.7297   46.8347 H   0  0  0  0  0  0  0  0  0  0  0  0
   56.2612   23.9440   44.1764 H   0  0  0  0  0  0  0  0  0  0  0  0
   58.1383   25.3274   43.3057 H   0  0  0  0  0  0  0  0  0  0  0  0
   59.9900   27.6107   45.0919 H   0  0  0  0  0  0  0  0  0  0  0  0
   59.4417   27.2061   43.3927 H   0  0  0  0  0  0  0  0  0  0  0  0
   59.8649   29.4677   45.8977 H   0  0  0  0  0  0  0  0  0  0  0  0
   59.6654   30.8566   44.7455 H   0  0  0  0  0  0  0  0  0  0  0  0
   57.4900   29.6241   46.5005 H   0  0  0  0  0  0  0  0  0  0  0  0
   58.3163   31.2293   46.7258 H   0  0  0  0  0  0  0  0  0  0  0  0
   57.1709   33.0267   44.2033 H   0  0  0  0  0  0  0  0  0  0  0  0
   56.0782   32.9960   45.6361 H   0  0  0  0  0  0  0  0  0  0  0  0
   58.9929   33.9532   49.9349 H   0  0  0  0  0  0  0  0  0  0  0  0
   61.4416   34.4872   50.2400 H   0  0  0  0  0  0  0  0  0  0  0  0
   62.9988   34.4070   48.2763 H   0  0  0  0  0  0  0  0  0  0  0  0
   62.1226   33.7857   45.9908 H   0  0  0  0  0  0  0  0  0  0  0  0
   55.9950   30.8128   43.2735 H   0  0  0  0  0  0  0  0  0  0  0  0
   57.7317   31.3104   43.1821 H   0  0  0  0  0  0  0  0  0  0  0  0
   56.7291   28.6117   44.2122 H   0  0  0  0  0  0  0  0  0  0  0  0
   57.3871   28.9242   42.5605 H   0  0  0  0  0  0  0  0  0  0  0  0
   57.7220   28.0135   46.6738 H   0  0  0  0  0  0  0  0  0  0  0  0
   55.8431   26.6324   47.5453 H   0  0  0  0  0  0  0  0  0  0  0  0
  1  2  1  0
  2  3  1  0
  3  4  2  0
  4  5  1  0
  5  6  2  0
  6  7  1  0
  7  8  1  0
  8  9  1  0
  9 10  1  0
 10 11  1  0
 11 12  1  0
 12 13  1  0
 13 14  2  0
 14 15  1  0
 15 16  2  0
 16 17  1  0
 17 18  2  0
 18 19  1  0
 19 20  2  0
 20 21  1  0
 11 22  1  0
 22 23  1  0
  6 24  1  0
 24 25  2  0
 25  3  1  0
 23  8  1  0
 21 13  1  0
 20 15  1  0
  1 26  1  0
  1 27  1  0
  1 28  1  0
  4 29  1  0
  5 30  1  0
  7 31  1  0
  7 32  1  0
  9 33  1  0
  9 34  1  0
 10 35  1  0
 10 36  1  0
 12 37  1  0
 12 38  1  0
 16 39  1  0
 17 40  1  0
 18 41  1  0
 19 42  1  0
 22 43  1  0
 22 44  1  0
 23 45  1  0
 23 46  1  0
 24 47  1  0
 25 48  1  0
M  CHG  1  21  -1
M  END
>  <UniqueID>  (29) 
29

>  <SMILES>  (29) 
COc1ccc(CN2CCN(Cc3nc4ccccc4[n-]3)CC2)cc1

>  <Energy>  (29) 
99.90870783125064

>  <Genealogy>  (29) 
COc1ccc(CN2CCN(Cc3nc4ccccc4[n-]3)CC2)cc1 (protonated)
COc1ccc(CN2CCN(Cc3nc4ccccc4[n-]3)CC2)cc1 (3D coordinates assigned)
COc1ccc(CN2CCN(Cc3nc4ccccc4[n-]3)CC2)cc1 (nonaromatic ring conformer: 99.90870783125064 kcal/mol)

>  <smiles>  (29) 
COc1ccc(CN2CCN(Cc3nc4ccccc4[nH]3)CC2)cc1

>  <score_type>  (29) 
oracle

>  <origin>  (29) 
adg

>  <m_score__min__energy>  (29) 
-9.3200000000000003

>  <m_primary>  (29) 
energy

$$$$
29:0
     RDKit          3D

 81 83  0  0  0  0  0  0  0  0999 V2000
   61.9250   30.2160   51.9950 C   0  0  0  0  0  0  0  0  0  0  0  0
   61.9400   29.7810   50.5310 C   0  0  0  0  0  0  0  0  0  0  0  0
   60.6250   29.2560   50.0970 N   0  0  0  0  0  0  0  0  0  0  0  0
   60.7430   27.9050   49.5040 C   0  0  0  0  0  0  0  0  0  0  0  0
   61.0950   26.8890   50.5850 C   0  0  0  0  0  0  0  0  0  0  0  0
   59.5520   29.3480   51.1210 C   0  0  0  0  0  0  0  0  0  0  0  0
   58.3760   30.2760   50.7620 C   0  0  0  0  0  0  0  0  0  0  0  0
   58.6440   30.9850   49.5690 O   0  0  0  0  0  0  0  0  0  0  0  0
   58.1960   32.3250   49.6750 C   0  0  0  0  0  0  0  0  0  0  0  0
   59.3740   33.3020   49.7970 C   0  0  0  0  0  0  0  0  0  0  0  0
   59.7740   33.6290   51.2490 C   0  0  0  0  0  0  0  0  0  0  0  0
   61.2910   33.6710   51.5120 C   0  0  0  0  0  0  0  0  0  0  0  0
   62.1720   33.2300   50.3270 C   0  0  0  0  0  0  0  0  0  0  0  0
   62.4610   34.3620   49.3190 C   0  0  0  0  0  0  0  0  0  0  0  0
   63.4300   33.9240   48.2090 C   0  0  0  0  0  0  0  0  0  0  0  0
   62.7560   32.9370   47.2440 C   0  0  0  0  0  0  0  0  0  0  0  0
   62.7820   31.4800   47.7460 C   0  0  0  0  0  0  0  0  0  0  0  0
   61.6960   30.5610   47.1270 C   0  0  0  0  0  0  0  0  0  0  0  0
   60.3510   30.7560   47.7080 N   0  0  0  0  0  0  0  0  0  0  0  0
   59.3180   30.8800   46.6860 C   0  0  0  0  0  0  0  0  0  0  0  0
   58.6210   29.7210   46.2360 C   0  0  0  0  0  0  0  0  0  0  0  0
   58.7510   28.4660   46.8840 C   0  0  0  0  0  0  0  0  0  0  0  0
   58.0270   27.3550   46.4600 C   0  0  0  0  0  0  0  0  0  0  0  0
   57.1510   27.4610   45.3890 C   0  0  0  0  0  0  0  0  0  0  0  0
   57.0170   28.6720   44.7180 C   0  0  0  0  0  0  0  0  0  0  0  0
   57.7680   29.8120   45.1020 C   0  0  0  0  0  0  0  0  0  0  0  0
   57.6760   30.9920   44.3960 N   0  0  0  0  0  0  0  0  0  0  0  0
   57.1110   30.9880   43.0280 C   0  0  0  0  0  0  0  0  0  0  0  0
   58.1430   32.1650   44.9460 C   0  0  0  0  0  0  0  0  0  0  0  0
   57.7830   33.4200   44.3920 C   0  0  0  0  0  0  0  0  0  0  0  0
   58.3120   34.6070   44.8850 C   0  0  0  0  0  0  0  0  0  0  0  0
   59.2050   34.5770   45.9450 C   0  0  0  0  0  0  0  0  0  0  0  0
   59.5480   33.3670   46.5430 C   0  0  0  0  0  0  0  0  0  0  0  0
   59.0060   32.1370   46.0810 C   0  0  0  0  0  0  0  0  0  0  0  0
   61.9557   29.3269   52.6420 H   0  0  0  0  0  0  0  0  0  0  0  0
   62.8019   30.8481   52.1987 H   0  0  0  0  0  0  0  0  0  0  0  0
   61.0067   30.7862   52.1987 H   0  0  0  0  0  0  0  0  0  0  0  0
   62.2011   30.6473   49.9053 H   0  0  0  0  0  0  0  0  0  0  0  0
   62.6812   28.9755   50.4225 H   0  0  0  0  0  0  0  0  0  0  0  0
   59.7854   27.6261   49.0401 H   0  0  0  0  0  0  0  0  0  0  0  0
   61.5380   27.9129   48.7438 H   0  0  0  0  0  0  0  0  0  0  0  0
   60.9389   27.3394   51.5763 H   0  0  0  0  0  0  0  0  0  0  0  0
   60.4514   26.0033   50.4793 H   0  0  0  0  0  0  0  0  0  0  0  0
   62.1487   26.5913   50.4793 H   0  0  0  0  0  0  0  0  0  0  0  0
   59.1497   28.3371   51.2832 H   0  0  0  0  0  0  0  0  0  0  0  0
   60.0216   29.7846   52.0147 H   0  0  0  0  0  0  0  0  0  0  0  0
   57.4674   29.6711   50.6260 H   0  0  0  0  0  0  0  0  0  0  0  0
   58.2348   30.9993   51.5786 H   0  0  0  0  0  0  0  0  0  0  0  0
   57.6119   32.5790   48.7782 H   0  0  0  0  0  0  0  0  0  0  0  0
   57.5785   32.4127   50.5811 H   0  0  0  0  0  0  0  0  0  0  0  0
   60.2441   32.8586   49.2907 H   0  0  0  0  0  0  0  0  0  0  0  0
   59.0503   34.2474   49.3371 H   0  0  0  0  0  0  0  0  0  0  0  0
   59.3559   34.6138   51.5047 H   0  0  0  0  0  0  0  0  0  0  0  0
   59.3768   32.8118   51.8690 H   0  0  0  0  0  0  0  0  0  0  0  0
   61.5632   34.7043   51.7730 H   0  0  0  0  0  0  0  0  0  0  0  0
   61.4819   32.9503   52.3208 H   0  0  0  0  0  0  0  0  0  0  0  0
   63.1306   32.8638   50.7233 H   0  0  0  0  0  0  0  0  0  0  0  0
   61.6181   32.4488   49.7857 H   0  0  0  0  0  0  0  0  0  0  0  0
   61.5128   34.6746   48.8573 H   0  0  0  0  0  0  0  0  0  0  0  0
   62.9329   35.1892   49.8694 H   0  0  0  0  0  0  0  0  0  0  0  0
   63.7559   34.8110   47.6460 H   0  0  0  0  0  0  0  0  0  0  0  0
   64.2917   33.4236   48.6750 H   0  0  0  0  0  0  0  0  0  0  0  0
   61.7075   33.2413   47.1093 H   0  0  0  0  0  0  0  0  0  0  0  0
   63.3206   32.9667   46.3004 H   0  0  0  0  0  0  0  0  0  0  0  0
   63.7677   31.0534   47.5085 H   0  0  0  0  0  0  0  0  0  0  0  0
   62.5762   31.5200   48.8258 H   0  0  0  0  0  0  0  0  0  0  0  0
   61.6412   30.7664   46.0477 H   0  0  0  0  0  0  0  0  0  0  0  0
   61.9919   29.5236   47.3423 H   0  0  0  0  0  0  0  0  0  0  0  0
   60.3890   31.5450   48.3820 H   0  0  0  0  0  0  0  0  0  0  0  0
   60.1260   29.9510   48.3340 H   0  0  0  0  0  0  0  0  0  0  0  0
   59.4372   28.3686   47.7382 H   0  0  0  0  0  0  0  0  0  0  0  0
   58.1497   26.3909   46.9752 H   0  0  0  0  0  0  0  0  0  0  0  0
   56.5628   26.5876   45.0708 H   0  0  0  0  0  0  0  0  0  0  0  0
   56.3156   28.7468   43.8740 H   0  0  0  0  0  0  0  0  0  0  0  0
   56.0125   30.9802   43.0850 H   0  0  0  0  0  0  0  0  0  0  0  0
   57.4439   31.8885   42.4911 H   0  0  0  0  0  0  0  0  0  0  0  0
   57.4567   30.0923   42.4911 H   0  0  0  0  0  0  0  0  0  0  0  0
   57.0703   33.4547   43.5548 H   0  0  0  0  0  0  0  0  0  0  0  0
   58.0227   35.5682   44.4351 H   0  0  0  0  0  0  0  0  0  0  0  0
   59.6452   35.5144   46.3159 H   0  0  0  0  0  0  0  0  0  0  0  0
   60.2515   33.3631   47.3886 H   0  0  0  0  0  0  0  0  0  0  0  0
  1  2  1  0
  2  3  1  0
  3  4  1  0
  4  5  1  0
  3  6  1  0
  6  7  1  0
  7  8  1  0
  8  9  1  0
  9 10  1  0
 10 11  1  0
 11 12  1  0
 12 13  1  0
 13 14  1  0
 14 15  1  0
 15 16  1  0
 16 17  1  0
 17 18  1  0
 18 19  1  0
 19 20  1  0
 20 21  2  0
 21 22  1  0
 22 23  2  0
 23 24  1  0
 24 25  2  0
 25 26  1  0
 26 27  2  0
 27 28  1  0
 27 29  1  0
 29 30  2  0
 30 31  1  0
 31 32  2  0
 32 33  1  0
 33 34  2  0
 34 20  1  0
 26 21  1  0
 34 29  1  0
  1 35  1  0
  1 36  1  0
  1 37  1  0
  2 38  1  0
  2 39  1  0
  4 40  1  0
  4 41  1  0
  5 42  1  0
  5 43  1  0
  5 44  1  0
  6 45  1  0
  6 46  1  0
  7 47  1  0
  7 48  1  0
  9 49  1  0
  9 50  1  0
 10 51  1  0
 10 52  1  0
 11 53  1  0
 11 54  1  0
 12 55  1  0
 12 56  1  0
 13 57  1  0
 13 58  1  0
 14 59  1  0
 14 60  1  0
 15 61  1  0
 15 62  1  0
 16 63  1  0
 16 64  1  0
 17 65  1  0
 17 66  1  0
 18 67  1  0
 18 68  1  0
 19 69  1  0
 19 70  1  0
 22 71  1  0
 23 72  1  0
 24 73  1  0
 25 74  1  0
 28 75  1  0
 28 76  1  0
 28 77  1  0
 30 78  1  0
 31 79  1  0
 32 80  1  0
 33 81  1  0
M  CHG  2  19   1  27   1
M  END
>  <UniqueID>  (30) 
30

>  <SMILES>  (30) 
CCN(CC)CCOCCCCCCCCCC[NH2+]c1c2ccccc2[n+](C)c2ccccc12

>  <Energy>  (30) 
100.30145512141758

>  <Genealogy>  (30) 
CCN(CC)CCOCCCCCCCCCC[NH2+]c1c2ccccc2[n+](C)c2ccccc12 (protonated)
CCN(CC)CCOCCCCCCCCCC[NH2+]c1c2ccccc2[n+](C)c2ccccc12 (3D coordinates assigned)
CCN(CC)CCOCCCCCCCCCC[NH2+]c1c2ccccc2[n+](C)c2ccccc12 (optimized conformer: 100.30145512141758 kcal/mol)

>  <smiles>  (30) 
CCN(CC)CCOCCCCCCCCCCNc1c2ccccc2[n+](C)c2ccccc12

>  <score_type>  (30) 
oracle

>  <origin>  (30) 
adg

>  <m_score__min__energy>  (30) 
-6.1600000000000001

>  <m_primary>  (30) 
energy

$$$$
30:0
     RDKit          3D

 41 44  0  0  0  0  0  0  0  0999 V2000
   55.8580   27.4420   45.6200 F   0  0  0  0  0  0  0  0  0  0  0  0
   57.1410   27.5470   45.1110 C   0  0  2  0  0  0  0  0  0  0  0  0
   58.1430   26.9820   46.1280 C   0  0  0  0  0  0  0  0  0  0  0  0
   58.3210   27.9010   47.2590 N   0  0  0  0  0  0  0  0  0  0  0  0
   58.9490   29.1550   46.8180 C   0  0  0  0  0  0  0  0  0  0  0  0
   58.2290   29.7780   45.6440 C   0  0  0  0  0  0  0  0  0  0  0  0
   58.4430   31.1310   45.3430 C   0  0  0  0  0  0  0  0  0  0  0  0
   57.8380   31.7220   44.2290 C   0  0  0  0  0  0  0  0  0  0  0  0
   58.0770   33.0860   43.9890 O   0  0  0  0  0  0  0  0  0  0  0  0
   57.7130   34.1520   44.8660 C   0  0  0  0  0  0  0  0  0  0  0  0
   58.6980   34.2770   45.9860 C   0  0  0  0  0  0  0  0  0  0  0  0
   59.9260   33.7300   45.9900 N   0  0  0  0  0  0  0  0  0  0  0  0
   60.4220   34.1200   47.1810 C   0  0  0  0  0  0  0  0  0  0  0  0
   61.7690   33.7770   47.7020 C   0  0  0  0  0  0  0  0  0  0  0  0
   62.8190   33.4150   46.8350 C   0  0  0  0  0  0  0  0  0  0  0  0
   64.0800   33.0950   47.3450 C   0  0  0  0  0  0  0  0  0  0  0  0
   64.3100   33.1320   48.7220 C   0  0  0  0  0  0  0  0  0  0  0  0
   63.2780   33.4870   49.5920 C   0  0  0  0  0  0  0  0  0  0  0  0
   62.0150   33.8080   49.0870 C   0  0  0  0  0  0  0  0  0  0  0  0
   59.5310   34.8760   47.8580 N   0  0  0  0  0  0  0  0  0  0  0  0
   58.4840   34.9510   47.0900 O   0  0  0  0  0  0  0  0  0  0  0  0
   57.0200   30.9370   43.3950 C   0  0  0  0  0  0  0  0  0  0  0  0
   56.8140   29.5860   43.6800 C   0  0  0  0  0  0  0  0  0  0  0  0
   57.4250   28.9920   44.7930 C   0  0  0  0  0  0  0  0  0  0  0  0
   57.2381   26.9635   44.1836 H   0  0  0  0  0  0  0  0  0  0  0  0
   57.7693   26.0180   46.5034 H   0  0  0  0  0  0  0  0  0  0  0  0
   59.1137   26.8510   45.6273 H   0  0  0  0  0  0  0  0  0  0  0  0
   57.3860   28.1180   47.6780 H   0  0  0  0  0  0  0  0  0  0  0  0
   58.9413   29.8677   47.6558 H   0  0  0  0  0  0  0  0  0  0  0  0
   59.9749   28.9216   46.4969 H   0  0  0  0  0  0  0  0  0  0  0  0
   59.0949   31.7350   45.9912 H   0  0  0  0  0  0  0  0  0  0  0  0
   57.6901   35.0942   44.2987 H   0  0  0  0  0  0  0  0  0  0  0  0
   56.7212   33.9371   45.2904 H   0  0  0  0  0  0  0  0  0  0  0  0
   60.3620   33.1480   45.2420 H   0  0  0  0  0  0  0  0  0  0  0  0
   62.6449   33.3841   45.7493 H   0  0  0  0  0  0  0  0  0  0  0  0
   64.8935   32.8133   46.6602 H   0  0  0  0  0  0  0  0  0  0  0  0
   65.3041   32.8815   49.1207 H   0  0  0  0  0  0  0  0  0  0  0  0
   63.4590   33.5142   50.6767 H   0  0  0  0  0  0  0  0  0  0  0  0
   61.2062   34.0873   49.7783 H   0  0  0  0  0  0  0  0  0  0  0  0
   56.5408   31.3901   42.5146 H   0  0  0  0  0  0  0  0  0  0  0  0
   56.1671   28.9828   43.0260 H   0  0  0  0  0  0  0  0  0  0  0  0
  1  2  1  0
  2  3  1  0
  3  4  1  0
  4  5  1  0
  5  6  1  0
  6  7  2  0
  7  8  1  0
  8  9  1  0
  9 10  1  0
 10 11  1  0
 11 12  2  0
 12 13  1  0
 13 14  1  0
 14 15  2  0
 15 16  1  0
 16 17  2  0
 17 18  1  0
 18 19  2  0
 13 20  2  0
 20 21  1  0
  8 22  2  0
 22 23  1  0
 23 24  2  0
 24  2  1  0
 24  6  1  0
 21 11  1  0
 19 14  1  0
  2 25  1  6
  3 26  1  0
  3 27  1  0
  4 28  1  0
  5 29  1  0
  5 30  1  0
  7 31  1  0
 10 32  1  0
 10 33  1  0
 12 34  1  0
 15 35  1  0
 16 36  1  0
 17 37  1  0
 18 38  1  0
 19 39  1  0
 22 40  1  0
 23 41  1  0
M  CHG  1  12   1
M  END
>  <UniqueID>  (31) 
31

>  <SMILES>  (31) 
F[C@@H]1CNCc2cc(OCc3[nH+]c(-c4ccccc4)no3)ccc21

>  <Energy>  (31) 
82.10382138442198

>  <Genealogy>  (31) 
FC1CNCc2cc(OCc3[nH+]c(-c4ccccc4)no3)ccc21 (protonated)
F[C@@H]1CNCc2cc(OCc3[nH+]c(-c4ccccc4)no3)ccc21 (chirality)
F[C@@H]1CNCc2cc(OCc3[nH+]c(-c4ccccc4)no3)ccc21 (3D coordinates assigned)
F[C@@H]1CNCc2cc(OCc3[nH+]c(-c4ccccc4)no3)ccc21 (nonaromatic ring conformer: 82.10382138442198 kcal/mol)

>  <smiles>  (31) 
FC1CNCc2cc(OCc3nc(-c4ccccc4)no3)ccc21

>  <score_type>  (31) 
oracle

>  <origin>  (31) 
adg

>  <m_score__min__energy>  (31) 
-6.5599999999999996

>  <m_primary>  (31) 
energy

$$$$
31:0
     RDKit          3D

 60 63  0  0  0  0  0  0  0  0999 V2000
   57.1871   22.5706   46.8981 H   0  0  0  0  0  0  0  0  0  0  0  0
   57.3950   23.5270   46.3960 C   0  0  0  0  0  0  0  0  0  0  0  0
   57.6370   24.6420   47.1330 N   0  0  0  0  0  0  0  0  0  0  0  0
   57.8930   25.8450   46.5550 C   0  0  0  0  0  0  0  0  0  0  0  0
   58.1410   26.9540   47.3640 C   0  0  0  0  0  0  0  0  0  0  0  0
   58.0978   26.8549   48.4587 H   0  0  0  0  0  0  0  0  0  0  0  0
   58.4430   28.1860   46.7900 C   0  0  0  0  0  0  0  0  0  0  0  0
   58.6301   29.0562   47.4364 H   0  0  0  0  0  0  0  0  0  0  0  0
   58.5110   28.3290   45.4010 C   0  0  0  0  0  0  0  0  0  0  0  0
   58.9050   29.6030   44.8730 N   0  0  0  0  0  0  0  0  0  0  0  0
   58.5710   30.8160   45.2460 C   0  0  0  0  0  0  0  0  0  0  0  0
   57.3190   31.2970   44.8020 C   0  0  0  0  0  0  0  0  0  0  0  0
   56.4030   30.4450   44.0740 C   0  0  0  0  0  0  0  0  0  0  0  0
   55.6710   29.7630   43.4910 N   0  0  0  0  0  0  0  0  0  0  0  0
   56.9770   32.6360   44.9840 C   0  0  0  0  0  0  0  0  0  0  0  0
   56.0085   33.0082   44.6187 H   0  0  0  0  0  0  0  0  0  0  0  0
   57.8310   33.4800   45.6080 N   0  0  0  0  0  0  0  0  0  0  0  0
   59.0130   33.0610   46.1220 C   0  0  0  0  0  0  0  0  0  0  0  0
   59.8170   33.9830   46.7990 C   0  0  0  0  0  0  0  0  0  0  0  0
   59.5178   35.0406   46.8432 H   0  0  0  0  0  0  0  0  0  0  0  0
   60.9950   33.5700   47.4180 C   0  0  0  0  0  0  0  0  0  0  0  0
   61.6358   34.3077   47.9231 H   0  0  0  0  0  0  0  0  0  0  0  0
   61.3670   32.2200   47.4000 C   0  0  0  0  0  0  0  0  0  0  0  0
   62.5430   31.7800   48.1140 N   0  0  0  0  0  0  0  0  0  0  0  0
   62.4460   31.9740   49.1390 H   0  0  0  0  0  0  0  0  0  0  0  0
   62.6330   30.7410   48.0100 H   0  0  0  0  0  0  0  0  0  0  0  0
   63.7650   32.4120   47.5880 C   0  0  0  0  0  0  0  0  0  0  0  0
   63.4917   33.0634   46.7449 H   0  0  0  0  0  0  0  0  0  0  0  0
   64.4488   31.6108   47.2710 H   0  0  0  0  0  0  0  0  0  0  0  0
   64.4890   33.2560   48.6510 C   0  0  0  0  0  0  0  0  0  0  0  0
   64.4023   34.3216   48.3922 H   0  0  0  0  0  0  0  0  0  0  0  0
   65.5498   32.9668   48.6829 H   0  0  0  0  0  0  0  0  0  0  0  0
   63.8790   33.0220   49.9800 N   0  0  0  0  0  0  0  0  0  0  0  0
   64.8310   32.4550   50.9650 C   0  0  0  0  0  0  0  0  0  0  0  0
   64.4947   31.4404   51.2246 H   0  0  0  0  0  0  0  0  0  0  0  0
   64.8356   33.1375   51.8277 H   0  0  0  0  0  0  0  0  0  0  0  0
   66.2830   32.3680   50.4640 C   0  0  0  0  0  0  0  0  0  0  0  0
   66.9662   32.3271   51.3252 H   0  0  0  0  0  0  0  0  0  0  0  0
   66.4068   31.4608   49.8543 H   0  0  0  0  0  0  0  0  0  0  0  0
   66.5142   33.2539   49.8543 H   0  0  0  0  0  0  0  0  0  0  0  0
   63.1390   34.1940   50.4960 C   0  0  0  0  0  0  0  0  0  0  0  0
   63.5733   34.5030   51.4582 H   0  0  0  0  0  0  0  0  0  0  0  0
   63.2153   35.0153   49.7683 H   0  0  0  0  0  0  0  0  0  0  0  0
   61.6670   33.8420   50.6970 C   0  0  0  0  0  0  0  0  0  0  0  0
   61.4463   33.7892   51.7733 H   0  0  0  0  0  0  0  0  0  0  0  0
   61.0382   34.6151   50.2312 H   0  0  0  0  0  0  0  0  0  0  0  0
   61.4560   32.8681   50.2312 H   0  0  0  0  0  0  0  0  0  0  0  0
   60.5570   31.2920   46.7240 C   0  0  0  0  0  0  0  0  0  0  0  0
   60.8237   30.2252   46.7513 H   0  0  0  0  0  0  0  0  0  0  0  0
   59.4060   31.6990   46.0090 C   0  0  0  0  0  0  0  0  0  0  0  0
   58.1790   27.2380   44.5560 C   0  0  0  0  0  0  0  0  0  0  0  0
   58.1250   27.4190   43.0550 C   0  0  0  0  0  0  0  0  0  0  0  0
   57.8177   28.4489   42.8207 H   0  0  0  0  0  0  0  0  0  0  0  0
   59.1197   27.2266   42.6265 H   0  0  0  0  0  0  0  0  0  0  0  0
   57.3983   26.7131   42.6265 H   0  0  0  0  0  0  0  0  0  0  0  0
   57.9090   25.9720   45.1450 C   0  0  0  0  0  0  0  0  0  0  0  0
   57.6680   24.8130   44.3790 C   0  0  0  0  0  0  0  0  0  0  0  0
   57.6835   24.8705   43.2806 H   0  0  0  0  0  0  0  0  0  0  0  0
   57.4100   23.5940   45.0060 C   0  0  0  0  0  0  0  0  0  0  0  0
   57.2197   22.6919   44.4060 H   0  0  0  0  0  0  0  0  0  0  0  0
  1  2  1  0
  2  3  2  0
  3  4  1  0
  4  5  2  0
  5  6  1  0
  5  7  1  0
  7  8  1  0
  7  9  2  0
  9 10  1  0
 10 11  2  0
 11 12  1  0
 12 13  1  0
 13 14  3  0
 12 15  2  0
 15 16  1  0
 15 17  1  0
 17 18  1  0
 18 19  2  0
 19 20  1  0
 19 21  1  0
 21 22  1  0
 21 23  2  0
 23 24  1  0
 24 25  1  0
 24 26  1  0
 24 27  1  0
 27 28  1  0
 27 29  1  0
 27 30  1  0
 30 31  1  0
 30 32  1  0
 30 33  1  0
 33 34  1  0
 34 35  1  0
 34 36  1  0
 34 37  1  0
 37 38  1  0
 37 39  1  0
 37 40  1  0
 33 41  1  0
 41 42  1  0
 41 43  1  0
 41 44  1  0
 44 45  1  0
 44 46  1  0
 44 47  1  0
 23 48  1  0
 48 49  1  0
 48 50  2  0
  9 51  1  0
 51 52  1  0
 52 53  1  0
 52 54  1  0
 52 55  1  0
 51 56  2  0
 56 57  1  0
 57 58  1  0
 57 59  2  0
 59 60  1  0
 59  2  1  0
 56  4  1  0
 50 11  1  0
 50 18  1  0
M  CHG  2  17  -1  24   1
M  END
>  <UniqueID>  (32) 
32

>  <SMILES>  (32) 
CCN(CC)CC[NH2+]c1ccc2[n-]cc(C#N)/c(=N/c3ccc4ncccc4c3C)c2c1

>  <Energy>  (32) 
94.77757202264833

>  <Genealogy>  (32) 
CCN(CC)CC[NH2+]c1ccc2[n-]cc(C#N)c(=Nc3ccc4ncccc4c3C)c2c1 (protonated)
CCN(CC)CC[NH2+]c1ccc2[n-]cc(C#N)/c(=N/c3ccc4ncccc4c3C)c2c1 (cis-trans isomerization)
CCN(CC)CC[NH2+]c1ccc2[n-]cc(C#N)/c(=N/c3ccc4ncccc4c3C)c2c1 (3D coordinates assigned)
CCN(CC)CC[NH2+]c1ccc2[n-]cc(C#N)/c(=N/c3ccc4ncccc4c3C)c2c1 (optimized conformer: 94.77757202264833 kcal/mol)

>  <smiles>  (32) 
CCN(CC)CCNc1ccc2[nH]cc(C#N)c(=Nc3ccc4ncccc4c3C)c2c1

>  <score_type>  (32) 
oracle

>  <origin>  (32) 
adg

>  <m_score__min__energy>  (32) 
-7.7000000000000002

>  <m_primary>  (32) 
energy

$$$$
32:0
     RDKit          3D

 29 29  0  0  0  0  0  0  0  0999 V2000
   56.6510   30.4750   42.5780 C   0  0  0  0  0  0  0  0  0  0  0  0
   55.7430   29.7790   43.5890 C   0  0  0  0  0  0  0  0  0  0  0  0
   56.4210   29.6450   44.8970 N   0  0  0  0  0  0  0  0  0  0  0  0
   56.7410   28.2440   45.2550 C   0  0  0  0  0  0  0  0  0  0  0  0
   58.0010   27.6940   44.5750 C   0  0  0  0  0  0  0  0  0  0  0  0
   57.5450   30.5840   45.1050 C   0  0  0  0  0  0  0  0  0  0  0  0
   57.0930   31.9280   45.2870 O   0  0  0  0  0  0  0  0  0  0  0  0
   57.9000   32.9820   45.7350 C   0  0  0  0  0  0  0  0  0  0  0  0
   58.4330   33.8770   44.8010 C   0  0  0  0  0  0  0  0  0  0  0  0
   59.2320   34.9340   45.2430 C   0  0  0  0  0  0  0  0  0  0  0  0
   59.4930   35.0850   46.6060 C   0  0  0  0  0  0  0  0  0  0  0  0
   58.9470   34.1710   47.5110 C   0  0  0  0  0  0  0  0  0  0  0  0
   58.1710   33.1490   47.0610 N   0  0  0  0  0  0  0  0  0  0  0  0
   57.4141   31.0599   43.1123 H   0  0  0  0  0  0  0  0  0  0  0  0
   57.1429   29.7204   41.9466 H   0  0  0  0  0  0  0  0  0  0  0  0
   56.0502   31.1461   41.9466 H   0  0  0  0  0  0  0  0  0  0  0  0
   54.8250   30.3714   43.7173 H   0  0  0  0  0  0  0  0  0  0  0  0
   55.5001   28.7744   43.2126 H   0  0  0  0  0  0  0  0  0  0  0  0
   56.8854   28.1905   46.3442 H   0  0  0  0  0  0  0  0  0  0  0  0
   55.8989   27.6281   44.9063 H   0  0  0  0  0  0  0  0  0  0  0  0
   58.7236   27.3786   45.3420 H   0  0  0  0  0  0  0  0  0  0  0  0
   57.7322   26.8313   43.9476 H   0  0  0  0  0  0  0  0  0  0  0  0
   58.4508   28.4776   43.9476 H   0  0  0  0  0  0  0  0  0  0  0  0
   58.1061   30.2739   45.9988 H   0  0  0  0  0  0  0  0  0  0  0  0
   58.1804   30.5577   44.2075 H   0  0  0  0  0  0  0  0  0  0  0  0
   58.2247   33.7494   43.7285 H   0  0  0  0  0  0  0  0  0  0  0  0
   59.6546   35.6458   44.5187 H   0  0  0  0  0  0  0  0  0  0  0  0
   60.1213   35.9141   46.9635 H   0  0  0  0  0  0  0  0  0  0  0  0
   59.1449   34.2782   48.5877 H   0  0  0  0  0  0  0  0  0  0  0  0
  1  2  1  0
  2  3  1  0
  3  4  1  0
  4  5  1  0
  3  6  1  0
  6  7  1  0
  7  8  1  0
  8  9  2  0
  9 10  1  0
 10 11  2  0
 11 12  1  0
 12 13  2  0
 13  8  1  0
  1 14  1  0
  1 15  1  0
  1 16  1  0
  2 17  1  0
  2 18  1  0
  4 19  1  0
  4 20  1  0
  5 21  1  0
  5 22  1  0
  5 23  1  0
  6 24  1  0
  6 25  1  0
  9 26  1  0
 10 27  1  0
 11 28  1  0
 12 29  1  0
M  END
>  <UniqueID>  (33) 
33

>  <SMILES>  (33) 
CCN(CC)COc1ccccn1

>  <Energy>  (33) 
29.89125821073262

>  <Genealogy>  (33) 
CCN(CC)COc1ccccn1 (3D coordinates assigned)
CCN(CC)COc1ccccn1 (optimized conformer: 29.89125821073262 kcal/mol)

>  <smiles>  (33) 
CCN(CC)COc1ccccn1

>  <score_type>  (33) 
oracle

>  <origin>  (33) 
adg

>  <m_score__min__energy>  (33) 
-4.9000000000000004

>  <m_primary>  (33) 
energy

$$$$
33:0
     RDKit          3D

 45 47  0  0  0  0  0  0  0  0999 V2000
   57.3170   23.5570   44.7060 C   0  0  0  0  0  0  0  0  0  0  0  0
   56.0770   24.4390   44.5910 C   0  0  0  0  0  0  0  0  0  0  0  0
   55.5480   24.7970   45.9260 N   0  0  0  0  0  0  0  0  0  0  0  0
   54.6720   23.7410   46.4800 C   0  0  0  0  0  0  0  0  0  0  0  0
   53.4190   23.5950   45.6220 C   0  0  0  0  0  0  0  0  0  0  0  0
   56.5880   25.2390   46.8900 C   0  0  0  0  0  0  0  0  0  0  0  0
   57.3270   26.5390   46.4910 C   0  0  0  0  0  0  0  0  0  0  0  0
   56.6440   27.2480   45.4050 N   0  0  0  0  0  0  0  0  0  0  0  0
   56.9710   28.5960   45.0140 C   0  0  0  0  0  0  0  0  0  0  0  0
   56.6860   29.0800   43.7250 C   0  0  0  0  0  0  0  0  0  0  0  0
   57.0120   30.3880   43.3780 C   0  0  0  0  0  0  0  0  0  0  0  0
   57.6260   31.2300   44.3090 C   0  0  0  0  0  0  0  0  0  0  0  0
   58.0180   32.8100   43.8820 S   0  0  0  0  0  0  0  0  0  0  0  0
   58.7470   33.6480   45.1440 C   0  0  0  0  0  0  0  0  0  0  0  0
   59.1410   34.9780   44.9660 C   0  0  0  0  0  0  0  0  0  0  0  0
   59.7450   35.6730   46.0130 C   0  0  0  0  0  0  0  0  0  0  0  0
   59.9570   35.0390   47.2370 C   0  0  0  0  0  0  0  0  0  0  0  0
   59.5660   33.7090   47.4190 C   0  0  0  0  0  0  0  0  0  0  0  0
   58.9510   32.9790   46.3750 C   0  0  0  0  0  0  0  0  0  0  0  0
   58.5600   31.6190   46.5920 C   0  0  0  0  0  0  0  0  0  0  0  0
   58.7890   31.1190   47.7300 O   0  0  0  0  0  0  0  0  0  0  0  0
   57.9320   30.7830   45.6140 C   0  0  0  0  0  0  0  0  0  0  0  0
   57.5900   29.4490   45.9420 C   0  0  0  0  0  0  0  0  0  0  0  0
   57.5513   23.3904   45.7678 H   0  0  0  0  0  0  0  0  0  0  0  0
   57.1262   22.5905   44.2166 H   0  0  0  0  0  0  0  0  0  0  0  0
   58.1674   24.0543   44.2166 H   0  0  0  0  0  0  0  0  0  0  0  0
   56.3410   25.3603   44.0510 H   0  0  0  0  0  0  0  0  0  0  0  0
   55.3012   23.8794   44.0480 H   0  0  0  0  0  0  0  0  0  0  0  0
   55.2173   22.7858   46.4929 H   0  0  0  0  0  0  0  0  0  0  0  0
   54.3773   24.0179   47.5030 H   0  0  0  0  0  0  0  0  0  0  0  0
   52.5385   23.4924   46.2733 H   0  0  0  0  0  0  0  0  0  0  0  0
   53.3036   24.4858   44.9870 H   0  0  0  0  0  0  0  0  0  0  0  0
   53.5115   22.7016   44.9870 H   0  0  0  0  0  0  0  0  0  0  0  0
   56.1045   25.4046   47.8641 H   0  0  0  0  0  0  0  0  0  0  0  0
   57.3478   24.4440   46.9144 H   0  0  0  0  0  0  0  0  0  0  0  0
   57.3807   27.2004   47.3683 H   0  0  0  0  0  0  0  0  0  0  0  0
   58.3318   26.2638   46.1378 H   0  0  0  0  0  0  0  0  0  0  0  0
   55.8870   26.7580   44.8760 H   0  0  0  0  0  0  0  0  0  0  0  0
   56.2032   28.4220   42.9874 H   0  0  0  0  0  0  0  0  0  0  0  0
   56.7856   30.7600   42.3679 H   0  0  0  0  0  0  0  0  0  0  0  0
   58.9743   35.4761   43.9995 H   0  0  0  0  0  0  0  0  0  0  0  0
   60.0538   36.7196   45.8739 H   0  0  0  0  0  0  0  0  0  0  0  0
   60.4338   35.5876   48.0626 H   0  0  0  0  0  0  0  0  0  0  0  0
   59.7395   33.2222   48.3901 H   0  0  0  0  0  0  0  0  0  0  0  0
   57.8150   29.0708   46.9501 H   0  0  0  0  0  0  0  0  0  0  0  0
  1  2  1  0
  2  3  1  0
  3  4  1  0
  4  5  1  0
  3  6  1  0
  6  7  1  0
  7  8  1  0
  8  9  1  0
  9 10  2  0
 10 11  1  0
 11 12  2  0
 12 13  1  0
 13 14  1  0
 14 15  2  0
 15 16  1  0
 16 17  2  0
 17 18  1  0
 18 19  2  0
 19 20  1  0
 20 21  2  0
 20 22  1  0
 22 23  2  0
 23  9  1  0
 22 12  1  0
 19 14  1  0
  1 24  1  0
  1 25  1  0
  1 26  1  0
  2 27  1  0
  2 28  1  0
  4 29  1  0
  4 30  1  0
  5 31  1  0
  5 32  1  0
  5 33  1  0
  6 34  1  0
  6 35  1  0
  7 36  1  0
  7 37  1  0
  8 38  1  0
 10 39  1  0
 11 40  1  0
 15 41  1  0
 16 42  1  0
 17 43  1  0
 18 44  1  0
 23 45  1  0
M  END
>  <UniqueID>  (34) 
34

>  <SMILES>  (34) 
CCN(CC)CCNc1ccc2sc3ccccc3c(=O)c2c1

>  <Energy>  (34) 
60.15475340378308

>  <Genealogy>  (34) 
CCN(CC)CCNc1ccc2sc3ccccc3c(=O)c2c1 (3D coordinates assigned)
CCN(CC)CCNc1ccc2sc3ccccc3c(=O)c2c1 (optimized conformer: 60.15475340378308 kcal/mol)

>  <smiles>  (34) 
CCN(CC)CCNc1ccc2sc3ccccc3c(=O)c2c1

>  <score_type>  (34) 
oracle

>  <origin>  (34) 
adg

>  <m_score__min__energy>  (34) 
-7.4500000000000002

>  <m_primary>  (34) 
energy

$$$$
34:0
     RDKit          3D

 48 50  0  0  0  0  0  0  0  0999 V2000
   56.2770   29.7910   43.0060 C   0  0  0  0  0  0  0  0  0  0  0  0
   56.0820   29.9060   44.5150 C   0  0  0  0  0  0  0  0  0  0  0  0
   57.2270   30.6000   45.1190 N   0  0  0  0  0  0  0  0  0  0  0  0
   57.3890   31.9390   44.5330 C   0  0  0  0  0  0  0  0  0  0  0  0
   57.7140   32.9700   45.6210 C   0  0  0  0  0  0  0  0  0  0  0  0
   58.9860   32.6530   46.2940 N   0  0  0  0  0  0  0  0  0  0  0  0
   59.0300   31.5990   47.1200 N   0  0  0  0  0  0  0  0  0  0  0  0
   60.1660   31.2390   47.7930 C   0  0  0  0  0  0  0  0  0  0  0  0
   60.1790   30.0310   48.7230 C   0  0  0  0  0  0  0  0  0  0  0  0
   59.3990   28.8350   48.2220 C   0  0  0  0  0  0  0  0  0  0  0  0
   59.6090   27.7010   48.7360 O   0  0  0  0  0  0  0  0  0  0  0  0
   58.3700   28.9700   47.2290 N   0  0  0  0  0  0  0  0  0  0  0  0
   58.0620   27.9550   46.2640 C   0  0  0  0  0  0  0  0  0  0  0  0
   57.0420   27.0280   46.5310 C   0  0  0  0  0  0  0  0  0  0  0  0
   56.7260   26.0360   45.5950 C   0  0  0  0  0  0  0  0  0  0  0  0
   57.4360   25.9570   44.3930 C   0  0  0  0  0  0  0  0  0  0  0  0
   58.4650   26.8670   44.1270 C   0  0  0  0  0  0  0  0  0  0  0  0
   58.7860   27.8630   45.0610 C   0  0  0  0  0  0  0  0  0  0  0  0
   60.1260   28.9570   44.7230 Cl  0  0  0  0  0  0  0  0  0  0  0  0
   61.3350   32.0180   47.6190 C   0  0  0  0  0  0  0  0  0  0  0  0
   62.5520   31.7100   48.2700 C   0  0  0  0  0  0  0  0  0  0  0  0
   63.6880   32.5020   48.0700 C   0  0  0  0  0  0  0  0  0  0  0  0
   63.6300   33.6160   47.2340 C   0  0  0  0  0  0  0  0  0  0  0  0
   62.4350   33.9450   46.5900 C   0  0  0  0  0  0  0  0  0  0  0  0
   61.2840   33.1480   46.7680 C   0  0  0  0  0  0  0  0  0  0  0  0
   60.0830   33.4560   46.1140 C   0  0  0  0  0  0  0  0  0  0  0  0
   60.0160   34.4720   45.3630 O   0  0  0  0  0  0  0  0  0  0  0  0
   57.2073   29.2424   42.7973 H   0  0  0  0  0  0  0  0  0  0  0  0
   55.4259   29.2502   42.5665 H   0  0  0  0  0  0  0  0  0  0  0  0
   56.3384   30.7975   42.5665 H   0  0  0  0  0  0  0  0  0  0  0  0
   55.1624   30.4733   44.7211 H   0  0  0  0  0  0  0  0  0  0  0  0
   56.0032   28.8972   44.9464 H   0  0  0  0  0  0  0  0  0  0  0  0
   57.0140   30.7240   46.1330 H   0  0  0  0  0  0  0  0  0  0  0  0
   58.2093   31.9160   43.8005 H   0  0  0  0  0  0  0  0  0  0  0  0
   56.4477   32.2270   44.0421 H   0  0  0  0  0  0  0  0  0  0  0  0
   57.7906   33.9658   45.1600 H   0  0  0  0  0  0  0  0  0  0  0  0
   56.9093   32.9500   46.3707 H   0  0  0  0  0  0  0  0  0  0  0  0
   58.1520   31.0490   47.2570 H   0  0  0  0  0  0  0  0  0  0  0  0
   61.2247   29.7215   48.8670 H   0  0  0  0  0  0  0  0  0  0  0  0
   59.6888   30.3521   49.6539 H   0  0  0  0  0  0  0  0  0  0  0  0
   56.4885   27.0814   47.4801 H   0  0  0  0  0  0  0  0  0  0  0  0
   55.9191   25.3186   45.8052 H   0  0  0  0  0  0  0  0  0  0  0  0
   57.1855   25.1793   43.6564 H   0  0  0  0  0  0  0  0  0  0  0  0
   59.0242   26.8011   43.1820 H   0  0  0  0  0  0  0  0  0  0  0  0
   62.6061   30.8394   48.9401 H   0  0  0  0  0  0  0  0  0  0  0  0
   64.6309   32.2445   48.5746 H   0  0  0  0  0  0  0  0  0  0  0  0
   64.5256   34.2362   47.0814 H   0  0  0  0  0  0  0  0  0  0  0  0
   62.3908   34.8312   45.9398 H   0  0  0  0  0  0  0  0  0  0  0  0
  1  2  1  0
  2  3  1  0
  3  4  1  0
  4  5  1  0
  5  6  1  0
  6  7  1  0
  7  8  2  0
  8  9  1  0
  9 10  1  0
 10 11  2  0
 10 12  1  0
 12 13  1  0
 13 14  2  0
 14 15  1  0
 15 16  2  0
 16 17  1  0
 17 18  2  0
 18 19  1  0
  8 20  1  0
 20 21  2  0
 21 22  1  0
 22 23  2  0
 23 24  1  0
 24 25  2  0
 25 26  1  0
 26 27  2  0
 26  6  1  0
 18 13  1  0
 25 20  1  0
  1 28  1  0
  1 29  1  0
  1 30  1  0
  2 31  1  0
  2 32  1  0
  3 33  1  0
  4 34  1  0
  4 35  1  0
  5 36  1  0
  5 37  1  0
  7 38  1  0
  9 39  1  0
  9 40  1  0
 14 41  1  0
 15 42  1  0
 16 43  1  0
 17 44  1  0
 21 45  1  0
 22 46  1  0
 23 47  1  0
 24 48  1  0
M  CHG  2   7   1  12  -1
M  END
>  <UniqueID>  (35) 
35

>  <SMILES>  (35) 
CCNCCn1[nH+]c(CC(=O)[N-]c2ccccc2Cl)c2ccccc2c1=O

>  <Energy>  (35) 
60.54767674008591

>  <Genealogy>  (35) 
CCNCCn1[nH+]c(CC(=O)[N-]c2ccccc2Cl)c2ccccc2c1=O (protonated)
CCNCCn1[nH+]c(CC(=O)[N-]c2ccccc2Cl)c2ccccc2c1=O (3D coordinates assigned)
CCNCCn1[nH+]c(CC(=O)[N-]c2ccccc2Cl)c2ccccc2c1=O (optimized conformer: 60.54767674008591 kcal/mol)

>  <smiles>  (35) 
CCNCCn1nc(CC(=O)Nc2ccccc2Cl)c2ccccc2c1=O

>  <score_type>  (35) 
oracle

>  <origin>  (35) 
adg

>  <m_score__min__energy>  (35) 
-7.4199999999999999

>  <m_primary>  (35) 
energy

$$$$
