0:0
     RDKit          3D

 66 69  0  0  0  0  0  0  0  0999 V2000
   57.3560   34.1770   45.0450 C   0  0  0  0  0  0  0  0  0  0  0  0
   57.9290   32.9450   45.6310 N   0  0  0  0  0  0  0  0  0  0  0  0
   57.7830   31.7340   44.9790 C   0  0  0  0  0  0  0  0  0  0  0  0
   57.3620   31.6640   43.6250 C   0  0  0  0  0  0  0  0  0  0  0  0
   57.1490   30.4360   43.0020 C   0  0  0  0  0  0  0  0  0  0  0  0
   57.3580   29.2530   43.6970 C   0  0  0  0  0  0  0  0  0  0  0  0
   57.8110   29.2870   45.0130 C   0  0  0  0  0  0  0  0  0  0  0  0
   58.0530   30.5190   45.6620 C   0  0  0  0  0  0  0  0  0  0  0  0
   58.5340   30.5630   46.9840 C   0  0  0  0  0  0  0  0  0  0  0  0
   58.6560   29.3550   47.7580 N   0  0  0  0  0  0  0  0  0  0  0  0
   59.6810   28.3530   47.4560 C   0  0  0  0  0  0  0  0  0  0  0  0
   59.9730   27.4590   48.6860 C   0  0  0  0  0  0  0  0  0  0  0  0
   60.4330   28.1870   49.8960 N   0  0  0  0  0  0  0  0  0  0  0  0
   61.3140   29.3260   49.5780 C   0  0  0  0  0  0  0  0  0  0  0  0
   61.0530   27.2960   50.8940 C   0  0  0  0  0  0  0  0  0  0  0  0
   58.8930   31.8050   47.5440 C   0  0  0  0  0  0  0  0  0  0  0  0
   59.5690   31.8690   48.7820 C   0  0  0  0  0  0  0  0  0  0  0  0
   59.9070   33.1030   49.3550 C   0  0  0  0  0  0  0  0  0  0  0  0
   60.5240   33.2180   50.6130 O   0  0  0  0  0  0  0  0  0  0  0  0
   60.0300   32.6830   51.8390 C   0  0  0  0  0  0  0  0  0  0  0  0
   59.8490   31.1450   51.8090 C   0  0  0  0  0  0  0  0  0  0  0  0
   58.4510   30.6070   51.8820 N   0  0  0  0  0  0  0  0  0  0  0  0
   58.2670   29.8280   50.7660 O   0  0  0  0  0  0  0  0  0  0  0  0
   57.4280   31.6840   51.8820 C   0  0  0  0  0  0  0  0  0  0  0  0
   55.9940   31.0980   51.8710 C   0  0  0  0  0  0  0  0  0  0  0  0
   55.9760   29.6940   52.0730 O   0  0  0  0  0  0  0  0  0  0  0  0
   56.7280   29.3580   53.2200 C   0  0  0  0  0  0  0  0  0  0  0  0
   58.2240   29.7250   53.0550 C   0  0  0  0  0  0  0  0  0  0  0  0
   59.6280   34.2740   48.6560 C   0  0  0  0  0  0  0  0  0  0  0  0
   58.9990   34.2300   47.4140 C   0  0  0  0  0  0  0  0  0  0  0  0
   58.5910   32.9990   46.8430 C   0  0  0  0  0  0  0  0  0  0  0  0
   57.0408   34.8547   45.8521 H   0  0  0  0  0  0  0  0  0  0  0  0
   58.1150   34.6748   44.4236 H   0  0  0  0  0  0  0  0  0  0  0  0
   56.4862   33.9173   44.4236 H   0  0  0  0  0  0  0  0  0  0  0  0
   57.2015   32.5935   43.0590 H   0  0  0  0  0  0  0  0  0  0  0  0
   56.8137   30.4040   41.9548 H   0  0  0  0  0  0  0  0  0  0  0  0
   57.1654   28.2870   43.2073 H   0  0  0  0  0  0  0  0  0  0  0  0
   57.9825   28.3445   45.5537 H   0  0  0  0  0  0  0  0  0  0  0  0
   58.1520   29.2800   48.6700 H   0  0  0  0  0  0  0  0  0  0  0  0
   59.3301   27.7197   46.6279 H   0  0  0  0  0  0  0  0  0  0  0  0
   60.6079   28.8768   47.1794 H   0  0  0  0  0  0  0  0  0  0  0  0
   59.0493   26.9196   48.9428 H   0  0  0  0  0  0  0  0  0  0  0  0
   60.7998   26.7948   48.3940 H   0  0  0  0  0  0  0  0  0  0  0  0
   59.5750   28.5870   50.3430 H   0  0  0  0  0  0  0  0  0  0  0  0
   61.6699   29.7861   50.5116 H   0  0  0  0  0  0  0  0  0  0  0  0
   62.1751   28.9713   48.9926 H   0  0  0  0  0  0  0  0  0  0  0  0
   60.7542   30.0703   48.9926 H   0  0  0  0  0  0  0  0  0  0  0  0
   60.8063   27.6506   51.9056 H   0  0  0  0  0  0  0  0  0  0  0  0
   60.6704   26.2734   50.7604 H   0  0  0  0  0  0  0  0  0  0  0  0
   62.1449   27.2994   50.7604 H   0  0  0  0  0  0  0  0  0  0  0  0
   59.8341   30.9378   49.3041 H   0  0  0  0  0  0  0  0  0  0  0  0
   60.7396   32.9352   52.6408 H   0  0  0  0  0  0  0  0  0  0  0  0
   59.0369   33.1241   52.0096 H   0  0  0  0  0  0  0  0  0  0  0  0
   60.2931   30.7800   50.8712 H   0  0  0  0  0  0  0  0  0  0  0  0
   60.3326   30.7897   52.7309 H   0  0  0  0  0  0  0  0  0  0  0  0
   57.3920   29.3570   50.8500 H   0  0  0  0  0  0  0  0  0  0  0  0
   57.5564   32.3002   52.7841 H   0  0  0  0  0  0  0  0  0  0  0  0
   57.5623   32.2905   50.9742 H   0  0  0  0  0  0  0  0  0  0  0  0
   55.4119   31.5765   52.6723 H   0  0  0  0  0  0  0  0  0  0  0  0
   55.5607   31.2972   50.8797 H   0  0  0  0  0  0  0  0  0  0  0  0
   56.3210   29.9027   54.0847 H   0  0  0  0  0  0  0  0  0  0  0  0
   56.6572   28.2704   53.3688 H   0  0  0  0  0  0  0  0  0  0  0  0
   58.5649   30.2450   53.9624 H   0  0  0  0  0  0  0  0  0  0  0  0
   58.7882   28.7941   52.8962 H   0  0  0  0  0  0  0  0  0  0  0  0
   59.9075   35.2455   49.0896 H   0  0  0  0  0  0  0  0  0  0  0  0
   58.8159   35.1667   46.8672 H   0  0  0  0  0  0  0  0  0  0  0  0
  1  2  1  0
  2  3  2  0
  3  4  1  0
  4  5  2  0
  5  6  1  0
  6  7  2  0
  7  8  1  0
  8  9  2  0
  9 10  1  0
 10 11  1  0
 11 12  1  0
 12 13  1  0
 13 14  1  0
 13 15  1  0
  9 16  1  0
 16 17  2  0
 17 18  1  0
 18 19  1  0
 19 20  1  0
 20 21  1  0
 21 22  1  0
 22 23  1  0
 22 24  1  0
 24 25  1  0
 25 26  1  0
 26 27  1  0
 27 28  1  0
 18 29  2  0
 29 30  1  0
 30 31  2  0
 31  2  1  0
  8  3  1  0
 31 16  1  0
 28 22  1  0
  1 32  1  0
  1 33  1  0
  1 34  1  0
  4 35  1  0
  5 36  1  0
  6 37  1  0
  7 38  1  0
 10 39  1  0
 11 40  1  0
 11 41  1  0
 12 42  1  0
 12 43  1  0
 13 44  1  0
 14 45  1  0
 14 46  1  0
 14 47  1  0
 15 48  1  0
 15 49  1  0
 15 50  1  0
 17 51  1  0
 20 52  1  0
 20 53  1  0
 21 54  1  0
 21 55  1  0
 23 56  1  0
 24 57  1  0
 24 58  1  0
 25 59  1  0
 25 60  1  0
 27 61  1  0
 27 62  1  0
 28 63  1  0
 28 64  1  0
 29 65  1  0
 30 66  1  0
M  CHG  3   2   1  13   1  22   1
M  END
>  <UniqueID>  (1) 
1

>  <SMILES>  (1) 
C[n+]1c2ccccc2c(NCC[NH+](C)C)c2cc(OCC[N+]3(O)CCOCC3)ccc21

>  <Energy>  (1) 
117.43650283107625

>  <Genealogy>  (1) 
C[n+]1c2ccccc2c(NCC[NH+](C)C)c2cc(OCC[N+]3(O)CCOCC3)ccc21 (protonated)
C[n+]1c2ccccc2c(NCC[NH+](C)C)c2cc(OCC[N+]3(O)CCOCC3)ccc21 (3D coordinates assigned)
C[n+]1c2ccccc2c(NCC[NH+](C)C)c2cc(OCC[N+]3(O)CCOCC3)ccc21 (nonaromatic ring conformer: 117.43650283107625 kcal/mol)

>  <smiles>  (1) 
CN(C)CCNc1c2ccccc2[n+](C)c2ccc(OCC[N+]3([O-])CCOCC3)cc12

>  <score_type>  (1) 
oracle

>  <origin>  (1) 
adg

>  <m_score__min__energy>  (1) 
-4.4100000000000001

>  <m_primary>  (1) 
energy

$$$$
1:0
     RDKit          3D

 52 54  0  0  0  0  0  0  0  0999 V2000
   58.9710   32.8360   50.1680 C   0  0  0  0  0  0  0  0  0  0  0  0
   58.6130   32.3030   48.7660 C   0  0  2  0  0  0  0  0  0  0  0  0
   59.2950   30.9620   48.5970 C   0  0  0  0  0  0  0  0  0  0  0  0
   60.2690   30.7010   47.6940 N   0  0  0  0  0  0  0  0  0  0  0  0
   60.7090   29.4160   47.7540 C   0  0  0  0  0  0  0  0  0  0  0  0
   60.0860   28.6310   48.7160 C   0  0  0  0  0  0  0  0  0  0  0  0
   58.9530   29.5900   49.5110 S   0  0  0  0  0  0  0  0  0  0  0  0
   58.9980   33.2730   47.6960 N   0  0  0  0  0  0  0  0  0  0  0  0
   57.8500   33.8510   46.9490 C   0  0  0  0  0  0  0  0  0  0  0  0
   58.1770   34.0310   45.4570 C   0  0  0  0  0  0  0  0  0  0  0  0
   57.3430   33.1170   44.5430 C   0  0  0  0  0  0  0  0  0  0  0  0
   58.1510   31.9780   44.0450 N   0  0  0  0  0  0  0  0  0  0  0  0
   57.4820   31.2620   42.9420 C   0  0  0  0  0  0  0  0  0  0  0  0
   56.2660   30.4450   43.4410 C   0  0  0  0  0  0  0  0  0  0  0  0
   56.2530   30.2710   44.8470 O   0  0  0  0  0  0  0  0  0  0  0  0
   57.5330   29.8860   45.2980 C   0  0  0  0  0  0  0  0  0  0  0  0
   58.5410   31.0390   45.1240 C   0  0  0  0  0  0  0  0  0  0  0  0
   59.9430   34.3310   48.1510 C   0  0  0  0  0  0  0  0  0  0  0  0
   61.4120   33.9490   48.0510 C   0  0  0  0  0  0  0  0  0  0  0  0
   62.0350   33.8010   46.7980 C   0  0  0  0  0  0  0  0  0  0  0  0
   63.3880   33.4600   46.7140 C   0  0  0  0  0  0  0  0  0  0  0  0
   64.1410   33.2830   47.8760 C   0  0  0  0  0  0  0  0  0  0  0  0
   63.5440   33.4600   49.1250 C   0  0  0  0  0  0  0  0  0  0  0  0
   64.2810   33.3090   50.2540 F   0  0  0  0  0  0  0  0  0  0  0  0
   62.1910   33.8020   49.2140 C   0  0  0  0  0  0  0  0  0  0  0  0
   58.5304   32.1800   50.9332 H   0  0  0  0  0  0  0  0  0  0  0  0
   60.0646   32.8533   50.2855 H   0  0  0  0  0  0  0  0  0  0  0  0
   58.5734   33.8549   50.2855 H   0  0  0  0  0  0  0  0  0  0  0  0
   57.5243   32.1770   48.6714 H   0  0  0  0  0  0  0  0  0  0  0  0
   60.6470   31.4010   47.0200 H   0  0  0  0  0  0  0  0  0  0  0  0
   61.4972   29.0280   47.0921 H   0  0  0  0  0  0  0  0  0  0  0  0
   60.2956   27.5710   48.9219 H   0  0  0  0  0  0  0  0  0  0  0  0
   56.9857   33.1775   47.0461 H   0  0  0  0  0  0  0  0  0  0  0  0
   57.6270   34.8409   47.3738 H   0  0  0  0  0  0  0  0  0  0  0  0
   57.9810   35.0771   45.1792 H   0  0  0  0  0  0  0  0  0  0  0  0
   59.2337   33.7593   45.3172 H   0  0  0  0  0  0  0  0  0  0  0  0
   56.4851   32.7276   45.1108 H   0  0  0  0  0  0  0  0  0  0  0  0
   57.0004   33.7059   43.6794 H   0  0  0  0  0  0  0  0  0  0  0  0
   57.1371   31.9958   42.1986 H   0  0  0  0  0  0  0  0  0  0  0  0
   58.2061   30.5618   42.5000 H   0  0  0  0  0  0  0  0  0  0  0  0
   55.3460   30.9701   43.1446 H   0  0  0  0  0  0  0  0  0  0  0  0
   56.3338   29.4453   42.9872 H   0  0  0  0  0  0  0  0  0  0  0  0
   57.4745   29.6150   46.3625 H   0  0  0  0  0  0  0  0  0  0  0  0
   57.8736   29.0255   44.7035 H   0  0  0  0  0  0  0  0  0  0  0  0
   58.6057   31.5965   46.0701 H   0  0  0  0  0  0  0  0  0  0  0  0
   59.5094   30.5966   44.8474 H   0  0  0  0  0  0  0  0  0  0  0  0
   59.7782   35.2272   47.5348 H   0  0  0  0  0  0  0  0  0  0  0  0
   59.7350   34.4989   49.2180 H   0  0  0  0  0  0  0  0  0  0  0  0
   61.4528   33.9548   45.8775 H   0  0  0  0  0  0  0  0  0  0  0  0
   63.8608   33.3307   45.7292 H   0  0  0  0  0  0  0  0  0  0  0  0
   65.2030   33.0045   47.8074 H   0  0  0  0  0  0  0  0  0  0  0  0
   61.7316   33.9575   50.2013 H   0  0  0  0  0  0  0  0  0  0  0  0
  1  2  1  0
  2  3  1  0
  3  4  2  0
  4  5  1  0
  5  6  2  0
  6  7  1  0
  2  8  1  0
  8  9  1  0
  9 10  1  0
 10 11  1  0
 11 12  1  0
 12 13  1  0
 13 14  1  0
 14 15  1  0
 15 16  1  0
 16 17  1  0
  8 18  1  0
 18 19  1  0
 19 20  2  0
 20 21  1  0
 21 22  2  0
 22 23  1  0
 23 24  1  0
 23 25  2  0
  7  3  1  0
 17 12  1  0
 25 19  1  0
  1 26  1  0
  1 27  1  0
  1 28  1  0
  2 29  1  1
  4 30  1  0
  5 31  1  0
  6 32  1  0
  9 33  1  0
  9 34  1  0
 10 35  1  0
 10 36  1  0
 11 37  1  0
 11 38  1  0
 13 39  1  0
 13 40  1  0
 14 41  1  0
 14 42  1  0
 16 43  1  0
 16 44  1  0
 17 45  1  0
 17 46  1  0
 18 47  1  0
 18 48  1  0
 20 49  1  0
 21 50  1  0
 22 51  1  0
 25 52  1  0
M  CHG  1   4   1
M  END
>  <UniqueID>  (2) 
2

>  <SMILES>  (2) 
C[C@H](c1[nH+]ccs1)N(CCCN1CCOCC1)Cc1cccc(F)c1

>  <Energy>  (2) 
97.99908282550167

>  <Genealogy>  (2) 
CC(c1[nH+]ccs1)N(CCCN1CCOCC1)Cc1cccc(F)c1 (protonated)
C[C@H](c1[nH+]ccs1)N(CCCN1CCOCC1)Cc1cccc(F)c1 (chirality)
C[C@H](c1[nH+]ccs1)N(CCCN1CCOCC1)Cc1cccc(F)c1 (3D coordinates assigned)
C[C@H](c1[nH+]ccs1)N(CCCN1CCOCC1)Cc1cccc(F)c1 (nonaromatic ring conformer: 97.99908282550167 kcal/mol)

>  <smiles>  (2) 
CC(c1nccs1)N(CCCN1CCOCC1)Cc1cccc(F)c1

>  <score_type>  (2) 
oracle

>  <origin>  (2) 
adg

>  <m_score__min__energy>  (2) 
-6.29

>  <m_primary>  (2) 
energy

$$$$
2:0
     RDKit          3D

 56 58  0  0  0  0  0  0  0  0999 V2000
   59.7840   27.5340   48.2750 C   0  0  0  0  0  0  0  0  0  0  0  0
   58.5180   27.8050   47.4630 C   0  0  0  0  0  0  0  0  0  0  0  0
   58.8010   27.8910   45.9540 C   0  0  0  0  0  0  0  0  0  0  0  0
   58.1740   29.1250   45.3230 C   0  0  0  0  0  0  0  0  0  0  0  0
   57.0580   28.8990   44.5000 C   0  0  0  0  0  0  0  0  0  0  0  0
   56.2540   29.9620   44.1100 C   0  0  0  0  0  0  0  0  0  0  0  0
   55.2520   29.7580   43.3770 O   0  0  0  0  0  0  0  0  0  0  0  0
   56.5160   31.1870   44.5350 O   0  0  0  0  0  0  0  0  0  0  0  0
   57.5620   31.4820   45.2990 C   0  0  0  0  0  0  0  0  0  0  0  0
   57.7130   32.7640   45.7200 N   0  0  0  0  0  0  0  0  0  0  0  0
   58.7370   33.1430   46.5280 C   0  0  0  0  0  0  0  0  0  0  0  0
   58.8290   34.5640   47.0140 C   0  0  0  0  0  0  0  0  0  0  0  0
   59.7320   32.2200   46.8700 C   0  0  0  0  0  0  0  0  0  0  0  0
   60.7920   32.6340   47.6830 O   0  0  0  0  0  0  0  0  0  0  0  0
   60.9260   32.1760   49.0250 C   0  0  0  0  0  0  0  0  0  0  0  0
   59.9650   32.9480   49.9320 C   0  0  0  0  0  0  0  0  0  0  0  0
   58.6470   32.2790   50.0200 N   0  0  0  0  0  0  0  0  0  0  0  0
   58.0140   32.4990   51.3450 C   0  0  0  0  0  0  0  0  0  0  0  0
   56.8960   31.4770   51.6080 C   0  0  0  0  0  0  0  0  0  0  0  0
   57.3920   30.0770   51.5910 N   0  0  0  0  0  0  0  0  0  0  0  0
   57.5020   29.5300   52.9510 C   0  0  0  0  0  0  0  0  0  0  0  0
   58.6700   29.9120   50.8630 C   0  0  0  0  0  0  0  0  0  0  0  0
   58.7320   30.8430   49.6450 C   0  0  0  0  0  0  0  0  0  0  0  0
   59.6730   30.9030   46.3650 C   0  0  0  0  0  0  0  0  0  0  0  0
   60.9370   30.0780   46.4140 C   0  0  0  0  0  0  0  0  0  0  0  0
   58.4980   30.4780   45.6720 C   0  0  0  0  0  0  0  0  0  0  0  0
   59.5489   27.5843   49.3484 H   0  0  0  0  0  0  0  0  0  0  0  0
   60.1692   26.5331   48.0305 H   0  0  0  0  0  0  0  0  0  0  0  0
   60.5452   28.2896   48.0305 H   0  0  0  0  0  0  0  0  0  0  0  0
   57.8011   26.9903   47.6428 H   0  0  0  0  0  0  0  0  0  0  0  0
   58.1121   28.7752   47.7855 H   0  0  0  0  0  0  0  0  0  0  0  0
   59.8894   27.9276   45.7989 H   0  0  0  0  0  0  0  0  0  0  0  0
   58.3589   27.0046   45.4757 H   0  0  0  0  0  0  0  0  0  0  0  0
   56.8208   27.8787   44.1641 H   0  0  0  0  0  0  0  0  0  0  0  0
   56.9970   33.4690   45.4320 H   0  0  0  0  0  0  0  0  0  0  0  0
   58.8298   34.5760   48.1139 H   0  0  0  0  0  0  0  0  0  0  0  0
   59.7585   35.0194   46.6417 H   0  0  0  0  0  0  0  0  0  0  0  0
   57.9660   35.1355   46.6417 H   0  0  0  0  0  0  0  0  0  0  0  0
   60.6890   31.1028   49.0705 H   0  0  0  0  0  0  0  0  0  0  0  0
   61.9592   32.3409   49.3647 H   0  0  0  0  0  0  0  0  0  0  0  0
   60.4003   33.0143   50.9400 H   0  0  0  0  0  0  0  0  0  0  0  0
   59.8157   33.9500   49.5035 H   0  0  0  0  0  0  0  0  0  0  0  0
   58.7800   32.4014   52.1284 H   0  0  0  0  0  0  0  0  0  0  0  0
   57.5722   33.5063   51.3552 H   0  0  0  0  0  0  0  0  0  0  0  0
   56.4540   31.6831   52.5940 H   0  0  0  0  0  0  0  0  0  0  0  0
   56.1529   31.5789   50.8034 H   0  0  0  0  0  0  0  0  0  0  0  0
   57.3403   30.3342   53.6839 H   0  0  0  0  0  0  0  0  0  0  0  0
   56.7435   28.7462   53.0934 H   0  0  0  0  0  0  0  0  0  0  0  0
   58.5045   29.1003   53.0934 H   0  0  0  0  0  0  0  0  0  0  0  0
   59.5034   30.1497   51.5405 H   0  0  0  0  0  0  0  0  0  0  0  0
   58.7429   28.8716   50.5134 H   0  0  0  0  0  0  0  0  0  0  0  0
   59.6824   30.6718   49.1184 H   0  0  0  0  0  0  0  0  0  0  0  0
   57.8673   30.6134   49.0050 H   0  0  0  0  0  0  0  0  0  0  0  0
   61.2157   29.8961   47.4624 H   0  0  0  0  0  0  0  0  0  0  0  0
   60.7671   29.1164   45.9076 H   0  0  0  0  0  0  0  0  0  0  0  0
   61.7489   30.6206   45.9076 H   0  0  0  0  0  0  0  0  0  0  0  0
  1  2  1  0
  2  3  1  0
  3  4  1  0
  4  5  2  0
  5  6  1  0
  6  7  2  0
  6  8  1  0
  8  9  1  0
  9 10  2  0
 10 11  1  0
 11 12  1  0
 11 13  2  0
 13 14  1  0
 14 15  1  0
 15 16  1  0
 16 17  1  0
 17 18  1  0
 18 19  1  0
 19 20  1  0
 20 21  1  0
 20 22  1  0
 22 23  1  0
 13 24  1  0
 24 25  1  0
 24 26  2  0
 26  4  1  0
 26  9  1  0
 23 17  1  0
  1 27  1  0
  1 28  1  0
  1 29  1  0
  2 30  1  0
  2 31  1  0
  3 32  1  0
  3 33  1  0
  5 34  1  0
 10 35  1  0
 12 36  1  0
 12 37  1  0
 12 38  1  0
 15 39  1  0
 15 40  1  0
 16 41  1  0
 16 42  1  0
 18 43  1  0
 18 44  1  0
 19 45  1  0
 19 46  1  0
 21 47  1  0
 21 48  1  0
 21 49  1  0
 22 50  1  0
 22 51  1  0
 23 52  1  0
 23 53  1  0
 25 54  1  0
 25 55  1  0
 25 56  1  0
M  CHG  1  10   1
M  END
>  <UniqueID>  (3) 
3

>  <SMILES>  (3) 
CCCc1cc(=O)oc2[nH+]c(C)c(OCCN3CCN(C)CC3)c(C)c12

>  <Energy>  (3) 
87.16607537868704

>  <Genealogy>  (3) 
CCCc1cc(=O)oc2[nH+]c(C)c(OCCN3CCN(C)CC3)c(C)c12 (protonated)
CCCc1cc(=O)oc2[nH+]c(C)c(OCCN3CCN(C)CC3)c(C)c12 (3D coordinates assigned)
CCCc1cc(=O)oc2[nH+]c(C)c(OCCN3CCN(C)CC3)c(C)c12 (nonaromatic ring conformer: 87.16607537868704 kcal/mol)

>  <smiles>  (3) 
CCCc1cc(=O)oc2nc(C)c(OCCN3CCN(C)CC3)c(C)c12

>  <score_type>  (3) 
oracle

>  <origin>  (3) 
adg

>  <m_score__min__energy>  (3) 
-6.04

>  <m_primary>  (3) 
energy

$$$$
3:0
     RDKit          3D

 49 51  0  0  0  0  0  0  0  0999 V2000
   56.9120   20.0410   46.2690 C   0  0  0  0  0  0  0  0  0  0  0  0
   55.7830   20.0690   45.2440 C   0  0  0  0  0  0  0  0  0  0  0  0
   55.2000   21.3710   45.1680 O   0  0  0  0  0  0  0  0  0  0  0  0
   55.8900   22.5610   44.8810 C   0  0  0  0  0  0  0  0  0  0  0  0
   57.0070   22.6070   44.0250 C   0  0  0  0  0  0  0  0  0  0  0  0
   57.6550   23.8210   43.7760 C   0  0  0  0  0  0  0  0  0  0  0  0
   57.1960   25.0060   44.3690 C   0  0  0  0  0  0  0  0  0  0  0  0
   57.8740   26.2520   44.1260 N   0  0  0  0  0  0  0  0  0  0  0  0
   58.5220   26.9570   45.2380 C   0  0  0  0  0  0  0  0  0  0  0  0
   59.1760   28.2640   44.7600 C   0  0  0  0  0  0  0  0  0  0  0  0
   58.2710   29.1060   43.9360 N   0  0  0  0  0  0  0  0  0  0  0  0
   57.3180   30.1790   44.9390 S   0  0  0  0  0  0  0  0  0  0  0  0
   55.8780   30.1140   44.5130 O   0  0  0  0  0  0  0  0  0  0  0  0
   57.4000   29.7500   46.3780 O   0  0  0  0  0  0  0  0  0  0  0  0
   57.8730   31.8460   44.7780 C   0  0  0  0  0  0  0  0  0  0  0  0
   58.0450   32.5880   43.6250 C   0  0  0  0  0  0  0  0  0  0  0  0
   57.8290   32.1340   42.2180 C   0  0  0  0  0  0  0  0  0  0  0  0
   58.4880   33.8180   43.9520 N   0  0  0  0  0  0  0  0  0  0  0  0
   58.5820   33.8580   45.2520 O   0  0  0  0  0  0  0  0  0  0  0  0
   58.2260   32.7150   45.7900 C   0  0  0  0  0  0  0  0  0  0  0  0
   58.2350   32.4390   47.2570 C   0  0  0  0  0  0  0  0  0  0  0  0
   57.3860   28.3530   43.0020 C   0  0  0  0  0  0  0  0  0  0  0  0
   57.8200   26.8970   42.8120 C   0  0  0  0  0  0  0  0  0  0  0  0
   56.0820   24.9590   45.2210 C   0  0  0  0  0  0  0  0  0  0  0  0
   55.4340   23.7460   45.4700 C   0  0  0  0  0  0  0  0  0  0  0  0
   56.4866   20.0515   47.2834 H   0  0  0  0  0  0  0  0  0  0  0  0
   57.5096   19.1278   46.1315 H   0  0  0  0  0  0  0  0  0  0  0  0
   57.5541   20.9235   46.1315 H   0  0  0  0  0  0  0  0  0  0  0  0
   56.1847   19.7954   44.2572 H   0  0  0  0  0  0  0  0  0  0  0  0
   55.0077   19.3526   45.5533 H   0  0  0  0  0  0  0  0  0  0  0  0
   57.3715   21.6841   43.5501 H   0  0  0  0  0  0  0  0  0  0  0  0
   58.5305   23.8466   43.1106 H   0  0  0  0  0  0  0  0  0  0  0  0
   57.7671   27.1920   46.0028 H   0  0  0  0  0  0  0  0  0  0  0  0
   59.3054   26.3067   45.6543 H   0  0  0  0  0  0  0  0  0  0  0  0
   59.4846   28.8433   45.6427 H   0  0  0  0  0  0  0  0  0  0  0  0
   60.0315   27.9878   44.1261 H   0  0  0  0  0  0  0  0  0  0  0  0
   58.8840   29.7280   43.3580 H   0  0  0  0  0  0  0  0  0  0  0  0
   57.3564   31.1407   42.2217 H   0  0  0  0  0  0  0  0  0  0  0  0
   57.1747   32.8494   41.6982 H   0  0  0  0  0  0  0  0  0  0  0  0
   58.7968   32.0777   41.6982 H   0  0  0  0  0  0  0  0  0  0  0  0
   58.2040   33.3899   47.8092 H   0  0  0  0  0  0  0  0  0  0  0  0
   57.3561   31.8326   47.5214 H   0  0  0  0  0  0  0  0  0  0  0  0
   59.1515   31.8911   47.5214 H   0  0  0  0  0  0  0  0  0  0  0  0
   56.3619   28.3643   43.4033 H   0  0  0  0  0  0  0  0  0  0  0  0
   57.4470   28.8460   42.0205 H   0  0  0  0  0  0  0  0  0  0  0  0
   57.0942   26.3742   42.1717 H   0  0  0  0  0  0  0  0  0  0  0  0
   58.8093   26.8585   42.3327 H   0  0  0  0  0  0  0  0  0  0  0  0
   55.7168   25.8818   45.6954 H   0  0  0  0  0  0  0  0  0  0  0  0
   54.5579   23.7224   46.1347 H   0  0  0  0  0  0  0  0  0  0  0  0
  1  2  1  0
  2  3  1  0
  3  4  1  0
  4  5  2  0
  5  6  1  0
  6  7  2  0
  7  8  1  0
  8  9  1  0
  9 10  1  0
 10 11  1  0
 11 12  1  0
 12 13  2  0
 12 14  2  0
 12 15  1  0
 15 16  1  0
 16 17  1  0
 16 18  2  0
 18 19  1  0
 19 20  1  0
 20 21  1  0
 11 22  1  0
 22 23  1  0
  7 24  1  0
 24 25  2  0
 25  4  1  0
 23  8  1  0
 20 15  2  0
  1 26  1  0
  1 27  1  0
  1 28  1  0
  2 29  1  0
  2 30  1  0
  5 31  1  0
  6 32  1  0
  9 33  1  0
  9 34  1  0
 10 35  1  0
 10 36  1  0
 11 37  1  0
 17 38  1  0
 17 39  1  0
 17 40  1  0
 21 41  1  0
 21 42  1  0
 21 43  1  0
 22 44  1  0
 22 45  1  0
 23 46  1  0
 23 47  1  0
 24 48  1  0
 25 49  1  0
M  CHG  1  11   1
M  END
>  <UniqueID>  (4) 
4

>  <SMILES>  (4) 
CCOc1ccc(N2CC[NH+](S(=O)(=O)c3c(C)noc3C)CC2)cc1

>  <Energy>  (4) 
86.95960449863145

>  <Genealogy>  (4) 
CCOc1ccc(N2CC[NH+](S(=O)(=O)c3c(C)noc3C)CC2)cc1 (protonated)
CCOc1ccc(N2CC[NH+](S(=O)(=O)c3c(C)noc3C)CC2)cc1 (3D coordinates assigned)
CCOc1ccc(N2CC[NH+](S(=O)(=O)c3c(C)noc3C)CC2)cc1 (nonaromatic ring conformer: 86.95960449863145 kcal/mol)

>  <smiles>  (4) 
CCOc1ccc(N2CCN(S(=O)(=O)c3c(C)noc3C)CC2)cc1

>  <score_type>  (4) 
oracle

>  <origin>  (4) 
adg

>  <m_score__min__energy>  (4) 
-6.04

>  <m_primary>  (4) 
energy

$$$$
4:0
     RDKit          3D

 61 63  0  0  0  0  0  0  0  0999 V2000
   58.5109   29.7413   52.7982 H   0  0  0  0  0  0  0  0  0  0  0  0
   58.9690   30.2270   51.9240 C   0  0  0  0  0  0  0  0  0  0  0  0
   58.5920   31.4260   51.6260 N   0  0  0  0  0  0  0  0  0  0  0  0
   57.3340   32.0190   52.0230 C   0  0  0  0  0  0  0  0  0  0  0  0
   57.2726   32.0480   53.1209 H   0  0  0  0  0  0  0  0  0  0  0  0
   57.2693   33.0424   51.6250 H   0  0  0  0  0  0  0  0  0  0  0  0
   56.5034   31.4176   51.6250 H   0  0  0  0  0  0  0  0  0  0  0  0
   60.0060   29.4520   51.1380 C   0  0  0  0  0  0  0  0  0  0  0  0
   59.5511   28.5201   50.7711 H   0  0  0  0  0  0  0  0  0  0  0  0
   60.8542   29.2424   51.8062 H   0  0  0  0  0  0  0  0  0  0  0  0
   60.5110   30.2230   49.9850 N   0  0  0  0  0  0  0  0  0  0  0  0
   60.1990   31.2140   50.0190 H   0  0  0  0  0  0  0  0  0  0  0  0
   61.5540   30.3090   50.0430 H   0  0  0  0  0  0  0  0  0  0  0  0
   60.1630   29.5800   48.7340 C   0  0  0  0  0  0  0  0  0  0  0  0
   60.5830   28.2470   48.5820 C   0  0  0  0  0  0  0  0  0  0  0  0
   61.0845   27.7423   49.4209 H   0  0  0  0  0  0  0  0  0  0  0  0
   60.3800   27.5570   47.4030 C   0  0  0  0  0  0  0  0  0  0  0  0
   60.7302   26.5186   47.3076 H   0  0  0  0  0  0  0  0  0  0  0  0
   59.7380   28.1680   46.3430 C   0  0  0  0  0  0  0  0  0  0  0  0
   59.6120   27.6152   45.4003 H   0  0  0  0  0  0  0  0  0  0  0  0
   59.2390   29.4880   46.4420 C   0  0  0  0  0  0  0  0  0  0  0  0
   59.4480   30.2230   47.6570 C   0  0  0  0  0  0  0  0  0  0  0  0
   58.9500   31.5600   47.7030 C   0  0  0  0  0  0  0  0  0  0  0  0
   58.8110   32.2930   48.9310 N   0  0  0  0  0  0  0  0  0  0  0  0
   58.3640   31.7810   49.7260 H   0  0  0  0  0  0  0  0  0  0  0  0
   59.7110   33.4140   49.2320 C   0  0  0  0  0  0  0  0  0  0  0  0
   59.9089   33.4295   50.3139 H   0  0  0  0  0  0  0  0  0  0  0  0
   59.2191   34.3413   48.9032 H   0  0  0  0  0  0  0  0  0  0  0  0
   61.0490   33.2970   48.4850 C   0  0  0  0  0  0  0  0  0  0  0  0
   61.5989   34.2441   48.5880 H   0  0  0  0  0  0  0  0  0  0  0  0
   60.8342   33.0791   47.4284 H   0  0  0  0  0  0  0  0  0  0  0  0
   61.8830   32.1960   49.0240 N   0  0  0  0  0  0  0  0  0  0  0  0
   62.5620   32.6090   50.2730 C   0  0  0  0  0  0  0  0  0  0  0  0
   61.9879   32.2387   51.1351 H   0  0  0  0  0  0  0  0  0  0  0  0
   62.6212   33.7072   50.2960 H   0  0  0  0  0  0  0  0  0  0  0  0
   63.9800   32.0400   50.3330 C   0  0  0  0  0  0  0  0  0  0  0  0
   64.2823   31.9187   51.3837 H   0  0  0  0  0  0  0  0  0  0  0  0
   64.0044   31.0624   49.8292 H   0  0  0  0  0  0  0  0  0  0  0  0
   64.6734   32.7295   49.8292 H   0  0  0  0  0  0  0  0  0  0  0  0
   62.8600   31.7360   48.0090 C   0  0  0  0  0  0  0  0  0  0  0  0
   63.7301   31.2937   48.5162 H   0  0  0  0  0  0  0  0  0  0  0  0
   62.3807   30.9855   47.3632 H   0  0  0  0  0  0  0  0  0  0  0  0
   63.3200   32.9110   47.1510 C   0  0  0  0  0  0  0  0  0  0  0  0
   63.6431   33.7364   47.8024 H   0  0  0  0  0  0  0  0  0  0  0  0
   64.1606   32.5944   46.5160 H   0  0  0  0  0  0  0  0  0  0  0  0
   62.4879   33.2493   46.5160 H   0  0  0  0  0  0  0  0  0  0  0  0
   58.5470   32.1910   46.5090 C   0  0  0  0  0  0  0  0  0  0  0  0
   58.2950   33.5810   46.4700 C   0  0  0  0  0  0  0  0  0  0  0  0
   58.3982   34.1768   47.3889 H   0  0  0  0  0  0  0  0  0  0  0  0
   57.9180   34.2070   45.2850 C   0  0  0  0  0  0  0  0  0  0  0  0
   57.7151   35.2881   45.2747 H   0  0  0  0  0  0  0  0  0  0  0  0
   57.7980   33.4670   44.1160 C   0  0  0  0  0  0  0  0  0  0  0  0
   57.5147   33.9656   43.1773 H   0  0  0  0  0  0  0  0  0  0  0  0
   58.0360   32.0930   44.1300 C   0  0  0  0  0  0  0  0  0  0  0  0
   57.9480   31.5184   43.1962 H   0  0  0  0  0  0  0  0  0  0  0  0
   58.3900   31.4250   45.3310 C   0  0  0  0  0  0  0  0  0  0  0  0
   58.5780   30.0630   45.3720 N   0  0  0  0  0  0  0  0  0  0  0  0
   58.0640   29.2180   44.2700 C   0  0  0  0  0  0  0  0  0  0  0  0
   57.5356   28.3494   44.6898 H   0  0  0  0  0  0  0  0  0  0  0  0
   57.3699   29.8052   43.6508 H   0  0  0  0  0  0  0  0  0  0  0  0
   58.9046   28.8717   43.6508 H   0  0  0  0  0  0  0  0  0  0  0  0
  1  2  1  0
  2  3  2  0
  3  4  1  0
  4  5  1  0
  4  6  1  0
  4  7  1  0
  2  8  1  0
  8  9  1  0
  8 10  1  0
  8 11  1  0
 11 12  1  0
 11 13  1  0
 11 14  1  0
 14 15  2  0
 15 16  1  0
 15 17  1  0
 17 18  1  0
 17 19  2  0
 19 20  1  0
 19 21  1  0
 21 22  2  0
 22 23  1  0
 23 24  1  0
 24 25  1  0
 24 26  1  0
 26 27  1  0
 26 28  1  0
 26 29  1  0
 29 30  1  0
 29 31  1  0
 29 32  1  0
 32 33  1  0
 33 34  1  0
 33 35  1  0
 33 36  1  0
 36 37  1  0
 36 38  1  0
 36 39  1  0
 32 40  1  0
 40 41  1  0
 40 42  1  0
 40 43  1  0
 43 44  1  0
 43 45  1  0
 43 46  1  0
 23 47  2  0
 47 48  1  0
 48 49  1  0
 48 50  2  0
 50 51  1  0
 50 52  1  0
 52 53  1  0
 52 54  2  0
 54 55  1  0
 54 56  1  0
 56 57  2  0
 57 58  1  0
 58 59  1  0
 58 60  1  0
 58 61  1  0
 22 14  1  0
 56 47  1  0
 57 21  1  0
M  CHG  2  11   1  57   1
M  END
>  <UniqueID>  (5) 
5

>  <SMILES>  (5) 
CCN(CC)CCNc1c2ccccc2[n+](C)c2cccc([NH2+]C/C=N\C)c12

>  <Energy>  (5) 
98.83005907407244

>  <Genealogy>  (5) 
CCN(CC)CCNc1c2ccccc2[n+](C)c2cccc([NH2+]CC=NC)c12 (protonated)
CCN(CC)CCNc1c2ccccc2[n+](C)c2cccc([NH2+]C/C=N\C)c12 (cis-trans isomerization)
CCN(CC)CCNc1c2ccccc2[n+](C)c2cccc([NH2+]C/C=N\C)c12 (3D coordinates assigned)
CCN(CC)CCNc1c2ccccc2[n+](C)c2cccc([NH2+]C/C=N\C)c12 (optimized conformer: 98.83005907407244 kcal/mol)

>  <smiles>  (5) 
CCN(CC)CCNc1c2ccccc2[n+](C)c2cccc(NCC=NC)c12

>  <score_type>  (5) 
oracle

>  <origin>  (5) 
adg

>  <m_score__min__energy>  (5) 
-3.5699999999999998

>  <m_primary>  (5) 
energy

$$$$
5:0
     RDKit          3D

 43 46  0  0  0  0  0  0  0  0999 V2000
   56.6090   23.6290   43.2990 C   0  0  0  0  0  0  0  0  0  0  0  0
   55.6570   23.9350   44.4540 C   0  0  0  0  0  0  0  0  0  0  0  0
   56.1230   23.3020   45.7700 C   0  0  0  0  0  0  0  0  0  0  0  0
   56.5460   24.3310   46.7190 N   0  0  0  0  0  0  0  0  0  0  0  0
   56.9770   25.6420   46.3270 C   0  0  0  0  0  0  0  0  0  0  0  0
   58.5870   26.0640   46.0850 S   0  0  0  0  0  0  0  0  0  0  0  0
   58.2780   27.6530   45.6200 C   0  0  0  0  0  0  0  0  0  0  0  0
   59.3140   28.6310   45.1630 C   0  0  0  0  0  0  0  0  0  0  0  0
   59.0990   29.9280   45.8130 N   0  0  0  0  0  0  0  0  0  0  0  0
   58.6100   31.0610   45.2480 C   0  0  0  0  0  0  0  0  0  0  0  0
   58.2630   31.2780   43.9100 C   0  0  0  0  0  0  0  0  0  0  0  0
   57.7600   32.5430   43.5520 C   0  0  0  0  0  0  0  0  0  0  0  0
   57.6120   33.5580   44.5200 C   0  0  0  0  0  0  0  0  0  0  0  0
   57.9610   33.3220   45.8610 C   0  0  0  0  0  0  0  0  0  0  0  0
   58.4580   32.0610   46.1890 C   0  0  0  0  0  0  0  0  0  0  0  0
   58.8570   31.5260   47.3920 C   0  0  0  0  0  0  0  0  0  0  0  0
   58.8970   32.0680   48.6760 C   0  0  0  0  0  0  0  0  0  0  0  0
   59.3430   31.2430   49.7210 C   0  0  0  0  0  0  0  0  0  0  0  0
   59.7310   29.9100   49.4660 C   0  0  0  0  0  0  0  0  0  0  0  0
   59.6790   29.3860   48.1610 C   0  0  0  0  0  0  0  0  0  0  0  0
   59.2370   30.2230   47.1310 C   0  0  0  0  0  0  0  0  0  0  0  0
   56.9020   27.8630   45.6100 C   0  0  0  0  0  0  0  0  0  0  0  0
   56.1760   26.7330   46.0000 C   0  0  0  0  0  0  0  0  0  0  0  0
   54.7870   26.7100   46.0020 O   0  0  0  0  0  0  0  0  0  0  0  0
   57.5839   23.3156   43.7006 H   0  0  0  0  0  0  0  0  0  0  0  0
   56.1894   22.8205   42.6824 H   0  0  0  0  0  0  0  0  0  0  0  0
   56.7391   24.5306   42.6824 H   0  0  0  0  0  0  0  0  0  0  0  0
   55.5990   25.0255   44.5862 H   0  0  0  0  0  0  0  0  0  0  0  0
   54.6738   23.5099   44.2037 H   0  0  0  0  0  0  0  0  0  0  0  0
   55.2935   22.7269   46.2073 H   0  0  0  0  0  0  0  0  0  0  0  0
   56.9777   22.6418   45.5610 H   0  0  0  0  0  0  0  0  0  0  0  0
   56.2830   24.1920   47.7210 H   0  0  0  0  0  0  0  0  0  0  0  0
   60.3131   28.2529   45.4254 H   0  0  0  0  0  0  0  0  0  0  0  0
   59.2375   28.7558   44.0728 H   0  0  0  0  0  0  0  0  0  0  0  0
   58.3800   30.4826   43.1592 H   0  0  0  0  0  0  0  0  0  0  0  0
   57.4796   32.7418   42.5071 H   0  0  0  0  0  0  0  0  0  0  0  0
   57.2203   34.5421   44.2232 H   0  0  0  0  0  0  0  0  0  0  0  0
   57.8461   34.1048   46.6252 H   0  0  0  0  0  0  0  0  0  0  0  0
   58.5894   33.1072   48.8641 H   0  0  0  0  0  0  0  0  0  0  0  0
   59.3904   31.6385   50.7463 H   0  0  0  0  0  0  0  0  0  0  0  0
   60.0771   29.2751   50.2949 H   0  0  0  0  0  0  0  0  0  0  0  0
   59.9776   28.3472   47.9566 H   0  0  0  0  0  0  0  0  0  0  0  0
   56.4348   28.8173   45.3253 H   0  0  0  0  0  0  0  0  0  0  0  0
  1  2  1  0
  2  3  1  0
  3  4  1  0
  4  5  1  0
  5  6  1  0
  6  7  1  0
  7  8  1  0
  8  9  1  0
  9 10  1  0
 10 11  2  0
 11 12  1  0
 12 13  2  0
 13 14  1  0
 14 15  2  0
 15 16  1  0
 16 17  2  0
 17 18  1  0
 18 19  2  0
 19 20  1  0
 20 21  2  0
  7 22  2  0
 22 23  1  0
 23 24  1  0
 23  5  2  0
 21  9  1  0
 15 10  1  0
 21 16  1  0
  1 25  1  0
  1 26  1  0
  1 27  1  0
  2 28  1  0
  2 29  1  0
  3 30  1  0
  3 31  1  0
  4 32  1  0
  8 33  1  0
  8 34  1  0
 11 35  1  0
 12 36  1  0
 13 37  1  0
 14 38  1  0
 17 39  1  0
 18 40  1  0
 19 41  1  0
 20 42  1  0
 22 43  1  0
M  CHG  1  24  -1
M  END
>  <UniqueID>  (6) 
6

>  <SMILES>  (6) 
CCCNc1sc(Cn2c3ccccc3c3ccccc32)cc1[O-]

>  <Energy>  (6) 
110.81060263130924

>  <Genealogy>  (6) 
CCCNc1sc(Cn2c3ccccc3c3ccccc32)cc1[O-] (protonated)
CCCNc1sc(Cn2c3ccccc3c3ccccc32)cc1[O-] (3D coordinates assigned)
CCCNc1sc(Cn2c3ccccc3c3ccccc32)cc1[O-] (optimized conformer: 110.81060263130924 kcal/mol)

>  <smiles>  (6) 
CCCNc1sc(Cn2c3ccccc3c3ccccc32)cc1O

>  <score_type>  (6) 
oracle

>  <origin>  (6) 
adg

>  <m_score__min__energy>  (6) 
-11.369999999999999

>  <m_primary>  (6) 
energy

$$$$
6:0
     RDKit          3D

 40 42  0  0  0  0  0  0  0  0999 V2000
   56.3830   30.1590   42.6560 C   0  0  0  0  0  0  0  0  0  0  0  0
   56.5760   30.3780   44.1260 C   0  0  0  0  0  0  0  0  0  0  0  0
   56.0310   29.5750   44.9320 O   0  0  0  0  0  0  0  0  0  0  0  0
   57.3470   31.4890   44.6320 N   0  0  0  0  0  0  0  0  0  0  0  0
   57.7680   31.4940   46.0390 C   0  0  0  0  0  0  0  0  0  0  0  0
   58.9800   32.4090   46.2310 C   0  0  0  0  0  0  0  0  0  0  0  0
   58.6960   33.7880   45.7740 N   0  0  0  0  0  0  0  0  0  0  0  0
   59.9030   34.6420   45.7470 C   0  0  0  0  0  0  0  0  0  0  0  0
   60.9580   34.2080   46.7390 C   0  0  0  0  0  0  0  0  0  0  0  0
   62.2030   33.8260   46.3480 N   0  0  0  0  0  0  0  0  0  0  0  0
   62.8150   33.5390   47.5100 C   0  0  0  0  0  0  0  0  0  0  0  0
   64.1270   33.1110   47.6920 C   0  0  0  0  0  0  0  0  0  0  0  0
   64.5700   32.8990   49.0110 C   0  0  0  0  0  0  0  0  0  0  0  0
   63.7010   33.1220   50.1020 C   0  0  0  0  0  0  0  0  0  0  0  0
   62.3790   33.5550   49.8830 C   0  0  0  0  0  0  0  0  0  0  0  0
   61.9690   33.7470   48.5610 C   0  0  0  0  0  0  0  0  0  0  0  0
   60.7790   34.1560   48.0890 N   0  0  0  0  0  0  0  0  0  0  0  0
   59.6190   34.5940   48.8660 C   0  0  0  0  0  0  0  0  0  0  0  0
   57.8560   33.8980   44.5540 C   0  0  0  0  0  0  0  0  0  0  0  0
   57.7680   32.5910   43.7540 C   0  0  0  0  0  0  0  0  0  0  0  0
   55.6632   29.3423   42.4984 H   0  0  0  0  0  0  0  0  0  0  0  0
   55.9982   31.0808   42.1954 H   0  0  0  0  0  0  0  0  0  0  0  0
   57.3459   29.8932   42.1954 H   0  0  0  0  0  0  0  0  0  0  0  0
   56.9383   31.8557   46.6641 H   0  0  0  0  0  0  0  0  0  0  0  0
   58.0442   30.4704   46.3320 H   0  0  0  0  0  0  0  0  0  0  0  0
   59.2440   32.4334   47.2986 H   0  0  0  0  0  0  0  0  0  0  0  0
   59.8117   32.0109   45.6312 H   0  0  0  0  0  0  0  0  0  0  0  0
   60.3359   34.6046   44.7365 H   0  0  0  0  0  0  0  0  0  0  0  0
   59.5912   35.6600   46.0237 H   0  0  0  0  0  0  0  0  0  0  0  0
   64.7949   32.9441   46.8341 H   0  0  0  0  0  0  0  0  0  0  0  0
   65.5996   32.5574   49.1934 H   0  0  0  0  0  0  0  0  0  0  0  0
   64.0590   32.9565   51.1288 H   0  0  0  0  0  0  0  0  0  0  0  0
   61.6928   33.7358   50.7235 H   0  0  0  0  0  0  0  0  0  0  0  0
   59.8435   34.5092   49.9395 H   0  0  0  0  0  0  0  0  0  0  0  0
   59.3880   35.6413   48.6213 H   0  0  0  0  0  0  0  0  0  0  0  0
   58.7535   33.9608   48.6213 H   0  0  0  0  0  0  0  0  0  0  0  0
   56.8396   34.1911   44.8558 H   0  0  0  0  0  0  0  0  0  0  0  0
   58.3283   34.6469   43.9012 H   0  0  0  0  0  0  0  0  0  0  0  0
   57.0352   32.7098   42.9423 H   0  0  0  0  0  0  0  0  0  0  0  0
   58.7576   32.3587   43.3336 H   0  0  0  0  0  0  0  0  0  0  0  0
  1  2  1  0
  2  3  2  0
  2  4  1  0
  4  5  1  0
  5  6  1  0
  6  7  1  0
  7  8  1  0
  8  9  1  0
  9 10  2  0
 10 11  1  0
 11 12  2  0
 12 13  1  0
 13 14  2  0
 14 15  1  0
 15 16  2  0
 16 17  1  0
 17 18  1  0
  7 19  1  0
 19 20  1  0
 20  4  1  0
 17  9  1  0
 16 11  1  0
  1 21  1  0
  1 22  1  0
  1 23  1  0
  5 24  1  0
  5 25  1  0
  6 26  1  0
  6 27  1  0
  8 28  1  0
  8 29  1  0
 12 30  1  0
 13 31  1  0
 14 32  1  0
 15 33  1  0
 18 34  1  0
 18 35  1  0
 18 36  1  0
 19 37  1  0
 19 38  1  0
 20 39  1  0
 20 40  1  0
M  END
>  <UniqueID>  (7) 
7

>  <SMILES>  (7) 
CC(=O)N1CCN(Cc2nc3ccccc3n2C)CC1

>  <Energy>  (7) 
85.48686061442879

>  <Genealogy>  (7) 
CC(=O)N1CCN(Cc2nc3ccccc3n2C)CC1 (3D coordinates assigned)
CC(=O)N1CCN(Cc2nc3ccccc3n2C)CC1 (nonaromatic ring conformer: 85.48686061442879 kcal/mol)

>  <smiles>  (7) 
CC(=O)N1CCN(Cc2nc3ccccc3n2C)CC1

>  <score_type>  (7) 
oracle

>  <origin>  (7) 
adg

>  <m_score__min__energy>  (7) 
-7.5199999999999996

>  <m_primary>  (7) 
energy

$$$$
7:0
     RDKit          3D

 80 83  0  0  0  0  0  0  0  0999 V2000
   59.7950   29.3680   49.6680 C   0  0  0  0  0  0  0  0  0  0  0  0
   59.1860   29.4600   51.0630 C   0  0  0  0  0  0  0  0  0  0  0  0
   57.8550   30.0820   51.0050 N   0  0  0  0  0  0  0  0  0  0  0  0
   57.2440   30.1570   52.3400 C   0  0  0  0  0  0  0  0  0  0  0  0
   57.0380   31.6160   52.7440 C   0  0  0  0  0  0  0  0  0  0  0  0
   57.5190   32.4700   51.7220 O   0  0  0  0  0  0  0  0  0  0  0  0
   58.1750   33.5910   52.2790 C   0  0  0  0  0  0  0  0  0  0  0  0
   59.5830   33.7070   51.6950 C   0  0  0  0  0  0  0  0  0  0  0  0
   60.0540   32.4100   51.1760 N   0  0  0  0  0  0  0  0  0  0  0  0
   60.7470   32.5810   49.9090 C   0  0  0  0  0  0  0  0  0  0  0  0
   62.1620   32.4850   49.8430 C   0  0  0  0  0  0  0  0  0  0  0  0
   62.9340   32.0620   50.9540 C   0  0  0  0  0  0  0  0  0  0  0  0
   64.3180   31.9390   50.8620 C   0  0  0  0  0  0  0  0  0  0  0  0
   64.9640   32.2150   49.6660 C   0  0  0  0  0  0  0  0  0  0  0  0
   64.2340   32.6340   48.5570 C   0  0  0  0  0  0  0  0  0  0  0  0
   62.8270   32.8030   48.6260 C   0  0  0  0  0  0  0  0  0  0  0  0
   62.1060   33.2440   47.5370 N   0  0  0  0  0  0  0  0  0  0  0  0
   62.8030   33.8950   46.4050 C   0  0  0  0  0  0  0  0  0  0  0  0
   60.7360   33.0850   47.5080 C   0  0  0  0  0  0  0  0  0  0  0  0
   60.0120   33.1860   46.2920 C   0  0  0  0  0  0  0  0  0  0  0  0
   58.6180   33.0370   46.2580 C   0  0  0  0  0  0  0  0  0  0  0  0
   57.8780   33.0930   45.0670 O   0  0  0  0  0  0  0  0  0  0  0  0
   57.7120   32.0090   44.1590 C   0  0  0  0  0  0  0  0  0  0  0  0
   58.7440   30.8810   44.4120 C   0  0  0  0  0  0  0  0  0  0  0  0
   58.2110   29.5350   44.8540 N   0  0  0  0  0  0  0  0  0  0  0  0
   56.7410   29.4780   44.6320 C   0  0  0  0  0  0  0  0  0  0  0  0
   58.5160   29.4390   46.3210 C   0  0  0  0  0  0  0  0  0  0  0  0
   58.2740   28.0800   47.0100 C   0  0  0  0  0  0  0  0  0  0  0  0
   59.3060   26.9980   46.6660 C   0  0  0  0  0  0  0  0  0  0  0  0
   58.8880   26.1870   45.4370 C   0  0  0  0  0  0  0  0  0  0  0  0
   58.4240   27.0160   44.2270 C   0  0  0  0  0  0  0  0  0  0  0  0
   58.9560   28.4650   44.1050 C   0  0  0  0  0  0  0  0  0  0  0  0
   57.9310   32.8020   47.4430 C   0  0  0  0  0  0  0  0  0  0  0  0
   58.6170   32.6630   48.6460 C   0  0  0  0  0  0  0  0  0  0  0  0
   60.0260   32.7810   48.7020 C   0  0  0  0  0  0  0  0  0  0  0  0
   60.8795   29.2042   49.7515 H   0  0  0  0  0  0  0  0  0  0  0  0
   59.3382   28.5287   49.1231 H   0  0  0  0  0  0  0  0  0  0  0  0
   59.6065   30.3048   49.1231 H   0  0  0  0  0  0  0  0  0  0  0  0
   59.0945   28.4484   51.4853 H   0  0  0  0  0  0  0  0  0  0  0  0
   59.8397   30.0781   51.6960 H   0  0  0  0  0  0  0  0  0  0  0  0
   57.9830   31.0630   50.6650 H   0  0  0  0  0  0  0  0  0  0  0  0
   56.2714   29.6435   52.3239 H   0  0  0  0  0  0  0  0  0  0  0  0
   57.9116   29.6734   53.0683 H   0  0  0  0  0  0  0  0  0  0  0  0
   55.9655   31.8032   52.9015 H   0  0  0  0  0  0  0  0  0  0  0  0
   57.5901   31.8164   53.6741 H   0  0  0  0  0  0  0  0  0  0  0  0
   57.6054   34.5022   52.0437 H   0  0  0  0  0  0  0  0  0  0  0  0
   58.2422   33.4687   53.3701 H   0  0  0  0  0  0  0  0  0  0  0  0
   59.5716   34.4391   50.8741 H   0  0  0  0  0  0  0  0  0  0  0  0
   60.2658   34.0307   52.4944 H   0  0  0  0  0  0  0  0  0  0  0  0
   60.6670   31.9390   51.8780 H   0  0  0  0  0  0  0  0  0  0  0  0
   59.2600   31.7410   51.0620 H   0  0  0  0  0  0  0  0  0  0  0  0
   62.4318   31.8271   51.9041 H   0  0  0  0  0  0  0  0  0  0  0  0
   64.9003   31.6222   51.7398 H   0  0  0  0  0  0  0  0  0  0  0  0
   66.0558   32.1026   49.5935 H   0  0  0  0  0  0  0  0  0  0  0  0
   64.7571   32.8375   47.6110 H   0  0  0  0  0  0  0  0  0  0  0  0
   63.5553   34.5976   46.7928 H   0  0  0  0  0  0  0  0  0  0  0  0
   63.2989   33.1292   45.7905 H   0  0  0  0  0  0  0  0  0  0  0  0
   62.0728   34.4420   45.7905 H   0  0  0  0  0  0  0  0  0  0  0  0
   60.5554   33.3853   45.3566 H   0  0  0  0  0  0  0  0  0  0  0  0
   56.6988   31.5974   44.2778 H   0  0  0  0  0  0  0  0  0  0  0  0
   57.8674   32.3912   43.1393 H   0  0  0  0  0  0  0  0  0  0  0  0
   59.2983   30.7247   43.4748 H   0  0  0  0  0  0  0  0  0  0  0  0
   59.3471   31.2369   45.2603 H   0  0  0  0  0  0  0  0  0  0  0  0
   56.2241   29.4580   45.6028 H   0  0  0  0  0  0  0  0  0  0  0  0
   56.4212   30.3644   44.0645 H   0  0  0  0  0  0  0  0  0  0  0  0
   56.4908   28.5695   44.0645 H   0  0  0  0  0  0  0  0  0  0  0  0
   59.5783   29.6917   46.4542 H   0  0  0  0  0  0  0  0  0  0  0  0
   57.8055   30.1278   46.8012 H   0  0  0  0  0  0  0  0  0  0  0  0
   58.2928   28.2387   48.0983 H   0  0  0  0  0  0  0  0  0  0  0  0
   57.3034   27.7132   46.6447 H   0  0  0  0  0  0  0  0  0  0  0  0
   60.2736   27.4801   46.4627 H   0  0  0  0  0  0  0  0  0  0  0  0
   59.3800   26.3105   47.5215 H   0  0  0  0  0  0  0  0  0  0  0  0
   59.7492   25.5794   45.1221 H   0  0  0  0  0  0  0  0  0  0  0  0
   58.0174   25.5911   45.7484 H   0  0  0  0  0  0  0  0  0  0  0  0
   58.7314   26.4750   43.3199 H   0  0  0  0  0  0  0  0  0  0  0  0
   57.3383   27.1274   44.3642 H   0  0  0  0  0  0  0  0  0  0  0  0
   59.9942   28.4682   44.4684 H   0  0  0  0  0  0  0  0  0  0  0  0
   58.8333   28.7240   43.0430 H   0  0  0  0  0  0  0  0  0  0  0  0
   56.8338   32.7251   47.4300 H   0  0  0  0  0  0  0  0  0  0  0  0
   58.0544   32.4580   49.5687 H   0  0  0  0  0  0  0  0  0  0  0  0
  1  2  1  0
  2  3  1  0
  3  4  1  0
  4  5  1  0
  5  6  1  0
  6  7  1  0
  7  8  1  0
  8  9  1  0
  9 10  1  0
 10 11  2  0
 11 12  1  0
 12 13  2  0
 13 14  1  0
 14 15  2  0
 15 16  1  0
 16 17  2  0
 17 18  1  0
 17 19  1  0
 19 20  2  0
 20 21  1  0
 21 22  1  0
 22 23  1  0
 23 24  1  0
 24 25  1  0
 25 26  1  0
 25 27  1  0
 27 28  1  0
 28 29  1  0
 29 30  1  0
 30 31  1  0
 31 32  1  0
 21 33  2  0
 33 34  1  0
 34 35  2  0
 35 10  1  0
 16 11  1  0
 35 19  1  0
 32 25  1  0
  1 36  1  0
  1 37  1  0
  1 38  1  0
  2 39  1  0
  2 40  1  0
  3 41  1  0
  4 42  1  0
  4 43  1  0
  5 44  1  0
  5 45  1  0
  7 46  1  0
  7 47  1  0
  8 48  1  0
  8 49  1  0
  9 50  1  0
  9 51  1  0
 12 52  1  0
 13 53  1  0
 14 54  1  0
 15 55  1  0
 18 56  1  0
 18 57  1  0
 18 58  1  0
 20 59  1  0
 23 60  1  0
 23 61  1  0
 24 62  1  0
 24 63  1  0
 26 64  1  0
 26 65  1  0
 26 66  1  0
 27 67  1  0
 27 68  1  0
 28 69  1  0
 28 70  1  0
 29 71  1  0
 29 72  1  0
 30 73  1  0
 30 74  1  0
 31 75  1  0
 31 76  1  0
 32 77  1  0
 32 78  1  0
 33 79  1  0
 34 80  1  0
M  CHG  3   9   1  17   1  25   1
M  END
>  <UniqueID>  (8) 
8

>  <SMILES>  (8) 
CCNCCOCC[NH2+]c1c2ccccc2[n+](C)c2cc(OCC[N+]3(C)CCCCCC3)ccc12

>  <Energy>  (8) 
128.80426167791734

>  <Genealogy>  (8) 
CCNCCOCC[NH2+]c1c2ccccc2[n+](C)c2cc(OCC[N+]3(C)CCCCCC3)ccc12 (protonated)
CCNCCOCC[NH2+]c1c2ccccc2[n+](C)c2cc(OCC[N+]3(C)CCCCCC3)ccc12 (3D coordinates assigned)
CCNCCOCC[NH2+]c1c2ccccc2[n+](C)c2cc(OCC[N+]3(C)CCCCCC3)ccc12 (nonaromatic ring conformer: 128.80426167791734 kcal/mol)

>  <smiles>  (8) 
CCNCCOCCNc1c2ccccc2[n+](C)c2cc(OCC[N+]3(C)CCCCCC3)ccc12

>  <score_type>  (8) 
oracle

>  <origin>  (8) 
adg

>  <m_score__min__energy>  (8) 
-1.4399999999999999

>  <m_primary>  (8) 
energy

$$$$
8:0
     RDKit          3D

 86 90  0  0  0  0  0  0  0  0999 V2000
   58.1120   30.8470   50.5530 C   0  0  0  0  0  0  0  0  0  0  0  0
   58.4590   32.3090   50.2890 C   0  0  0  0  0  0  0  0  0  0  0  0
   59.2870   32.8350   51.4050 N   0  0  0  0  0  0  0  0  0  0  0  0
   58.5190   33.7520   52.2770 C   0  0  0  0  0  0  0  0  0  0  0  0
   59.3040   34.1240   53.5360 C   0  0  0  0  0  0  0  0  0  0  0  0
   60.5070   33.5120   50.9040 C   0  0  0  0  0  0  0  0  0  0  0  0
   60.2900   34.1140   49.5040 C   0  0  0  0  0  0  0  0  0  0  0  0
   61.6150   34.5620   48.8620 C   0  0  0  0  0  0  0  0  0  0  0  0
   61.8920   33.9180   47.5530 N   0  0  0  0  0  0  0  0  0  0  0  0
   61.1160   32.6970   47.3590 C   0  0  0  0  0  0  0  0  0  0  0  0
   59.9910   32.7130   46.4720 C   0  0  0  0  0  0  0  0  0  0  0  0
   59.4960   33.9000   45.8720 C   0  0  0  0  0  0  0  0  0  0  0  0
   58.4410   33.8750   44.9630 C   0  0  0  0  0  0  0  0  0  0  0  0
   57.8370   32.6730   44.6320 C   0  0  0  0  0  0  0  0  0  0  0  0
   58.2630   31.4970   45.2360 C   0  0  0  0  0  0  0  0  0  0  0  0
   59.3280   31.4940   46.1710 C   0  0  0  0  0  0  0  0  0  0  0  0
   59.6880   30.3430   46.8220 N   0  0  0  0  0  0  0  0  0  0  0  0
   59.2740   29.0280   46.2810 C   0  0  0  0  0  0  0  0  0  0  0  0
   60.4660   30.4140   47.9540 C   0  0  0  0  0  0  0  0  0  0  0  0
   60.3320   29.4570   48.9880 C   0  0  0  0  0  0  0  0  0  0  0  0
   59.3540   28.6570   48.9610 O   0  0  0  0  0  0  0  0  0  0  0  0
   61.1900   29.4300   50.0570 N   0  0  0  0  0  0  0  0  0  0  0  0
   61.0170   28.3480   51.0590 C   0  0  0  0  0  0  0  0  0  0  0  0
   60.5260   28.9150   52.3980 C   0  0  0  0  0  0  0  0  0  0  0  0
   59.3250   28.1170   52.9220 C   0  0  0  0  0  0  0  0  0  0  0  0
   58.1560   28.9900   53.1850 N   0  0  0  0  0  0  0  0  0  0  0  0
   57.1390   28.2880   54.0110 C   0  0  0  0  0  0  0  0  0  0  0  0
   55.6890   28.4440   53.5040 C   0  0  0  0  0  0  0  0  0  0  0  0
   55.1650   29.8890   53.5330 C   0  0  0  0  0  0  0  0  0  0  0  0
   56.2120   30.8910   53.0200 C   0  0  0  0  0  0  0  0  0  0  0  0
   57.3440   31.1580   54.0200 C   0  0  0  0  0  0  0  0  0  0  0  0
   58.5760   30.2760   53.7910 C   0  0  0  0  0  0  0  0  0  0  0  0
   62.2040   30.3580   50.1550 C   0  0  0  0  0  0  0  0  0  0  0  0
   63.0950   30.3640   51.2600 C   0  0  0  0  0  0  0  0  0  0  0  0
   64.2350   31.1640   51.2580 C   0  0  0  0  0  0  0  0  0  0  0  0
   64.5330   31.9360   50.1470 C   0  0  0  0  0  0  0  0  0  0  0  0
   66.0330   32.8460   50.0830 Cl  0  0  0  0  0  0  0  0  0  0  0  0
   63.6390   31.9900   49.0800 C   0  0  0  0  0  0  0  0  0  0  0  0
   62.3930   31.3230   49.1190 C   0  0  0  0  0  0  0  0  0  0  0  0
   61.3720   31.4910   48.1210 C   0  0  0  0  0  0  0  0  0  0  0  0
   58.0700   30.6702   51.6379 H   0  0  0  0  0  0  0  0  0  0  0  0
   57.1340   30.6157   50.1057 H   0  0  0  0  0  0  0  0  0  0  0  0
   58.8817   30.2009   50.1057 H   0  0  0  0  0  0  0  0  0  0  0  0
   59.0220   32.3872   49.3472 H   0  0  0  0  0  0  0  0  0  0  0  0
   57.5319   32.8963   50.2141 H   0  0  0  0  0  0  0  0  0  0  0  0
   58.2898   34.6697   51.7155 H   0  0  0  0  0  0  0  0  0  0  0  0
   57.5965   33.2391   52.5867 H   0  0  0  0  0  0  0  0  0  0  0  0
   58.7208   33.8476   54.4268 H   0  0  0  0  0  0  0  0  0  0  0  0
   60.2625   33.5843   53.5433 H   0  0  0  0  0  0  0  0  0  0  0  0
   59.4933   35.2076   53.5433 H   0  0  0  0  0  0  0  0  0  0  0  0
   60.7786   34.3187   51.6007 H   0  0  0  0  0  0  0  0  0  0  0  0
   61.3104   32.7638   50.8347 H   0  0  0  0  0  0  0  0  0  0  0  0
   59.8206   33.3561   48.8596 H   0  0  0  0  0  0  0  0  0  0  0  0
   59.6449   34.9988   49.6089 H   0  0  0  0  0  0  0  0  0  0  0  0
   61.5775   35.6511   48.7122 H   0  0  0  0  0  0  0  0  0  0  0  0
   62.4218   34.2599   49.5459 H   0  0  0  0  0  0  0  0  0  0  0  0
   62.9130   33.7580   47.4270 H   0  0  0  0  0  0  0  0  0  0  0  0
   61.7130   34.5880   46.7770 H   0  0  0  0  0  0  0  0  0  0  0  0
   59.9573   34.8643   46.1314 H   0  0  0  0  0  0  0  0  0  0  0  0
   58.0868   34.8113   44.5071 H   0  0  0  0  0  0  0  0  0  0  0  0
   57.0225   32.6500   43.8931 H   0  0  0  0  0  0  0  0  0  0  0  0
   57.7641   30.5497   44.9837 H   0  0  0  0  0  0  0  0  0  0  0  0
   59.0577   28.3411   47.1125 H   0  0  0  0  0  0  0  0  0  0  0  0
   58.3717   29.1528   45.6643 H   0  0  0  0  0  0  0  0  0  0  0  0
   60.0851   28.6134   45.6643 H   0  0  0  0  0  0  0  0  0  0  0  0
   60.2800   27.6233   50.6828 H   0  0  0  0  0  0  0  0  0  0  0  0
   61.9892   27.8591   51.2197 H   0  0  0  0  0  0  0  0  0  0  0  0
   61.3426   28.8615   53.1331 H   0  0  0  0  0  0  0  0  0  0  0  0
   60.2151   29.9590   52.2452 H   0  0  0  0  0  0  0  0  0  0  0  0
   59.0444   27.3626   52.1723 H   0  0  0  0  0  0  0  0  0  0  0  0
   59.6174   27.6425   53.8703 H   0  0  0  0  0  0  0  0  0  0  0  0
   57.3859   27.2161   54.0235 H   0  0  0  0  0  0  0  0  0  0  0  0
   57.1739   28.7471   55.0100 H   0  0  0  0  0  0  0  0  0  0  0  0
   55.6452   28.0816   52.4663 H   0  0  0  0  0  0  0  0  0  0  0  0
   55.0509   27.8619   54.1851 H   0  0  0  0  0  0  0  0  0  0  0  0
   54.2692   29.9549   52.8980 H   0  0  0  0  0  0  0  0  0  0  0  0
   54.9320   30.1453   54.5770 H   0  0  0  0  0  0  0  0  0  0  0  0
   56.6520   30.4916   52.0943 H   0  0  0  0  0  0  0  0  0  0  0  0
   55.6926   31.8467   52.8562 H   0  0  0  0  0  0  0  0  0  0  0  0
   57.6474   32.2115   53.9307 H   0  0  0  0  0  0  0  0  0  0  0  0
   56.9560   30.9218   55.0218 H   0  0  0  0  0  0  0  0  0  0  0  0
   59.2743   30.7898   53.1140 H   0  0  0  0  0  0  0  0  0  0  0  0
   59.0735   30.0834   54.7530 H   0  0  0  0  0  0  0  0  0  0  0  0
   62.8818   29.7271   52.1311 H   0  0  0  0  0  0  0  0  0  0  0  0
   64.8970   31.1828   52.1363 H   0  0  0  0  0  0  0  0  0  0  0  0
   63.9097   32.5669   48.1834 H   0  0  0  0  0  0  0  0  0  0  0  0
  1  2  1  0
  2  3  1  0
  3  4  1  0
  4  5  1  0
  3  6  1  0
  6  7  1  0
  7  8  1  0
  8  9  1  0
  9 10  1  0
 10 11  2  0
 11 12  1  0
 12 13  2  0
 13 14  1  0
 14 15  2  0
 15 16  1  0
 16 17  2  0
 17 18  1  0
 17 19  1  0
 19 20  1  0
 20 21  2  0
 20 22  1  0
 22 23  1  0
 23 24  1  0
 24 25  1  0
 25 26  1  0
 26 27  1  0
 27 28  1  0
 28 29  1  0
 29 30  1  0
 30 31  1  0
 31 32  1  0
 22 33  1  0
 33 34  2  0
 34 35  1  0
 35 36  2  0
 36 37  1  0
 36 38  1  0
 38 39  2  0
 39 40  1  0
 40 10  1  0
 16 11  1  0
 40 19  2  0
 32 26  1  0
 39 33  1  0
  1 41  1  0
  1 42  1  0
  1 43  1  0
  2 44  1  0
  2 45  1  0
  4 46  1  0
  4 47  1  0
  5 48  1  0
  5 49  1  0
  5 50  1  0
  6 51  1  0
  6 52  1  0
  7 53  1  0
  7 54  1  0
  8 55  1  0
  8 56  1  0
  9 57  1  0
  9 58  1  0
 12 59  1  0
 13 60  1  0
 14 61  1  0
 15 62  1  0
 18 63  1  0
 18 64  1  0
 18 65  1  0
 23 66  1  0
 23 67  1  0
 24 68  1  0
 24 69  1  0
 25 70  1  0
 25 71  1  0
 27 72  1  0
 27 73  1  0
 28 74  1  0
 28 75  1  0
 29 76  1  0
 29 77  1  0
 30 78  1  0
 30 79  1  0
 31 80  1  0
 31 81  1  0
 32 82  1  0
 32 83  1  0
 34 84  1  0
 35 85  1  0
 38 86  1  0
M  CHG  2   9   1  17   1
M  END
>  <UniqueID>  (9) 
9

>  <SMILES>  (9) 
CCN(CC)CCC[NH2+]c1c2ccccc2[n+](C)c2c(=O)n(CCCN3CCCCCC3)c3ccc(Cl)cc3c12

>  <Energy>  (9) 
157.96510294149385

>  <Genealogy>  (9) 
CCN(CC)CCC[NH2+]c1c2ccccc2[n+](C)c2c(=O)n(CCCN3CCCCCC3)c3ccc(Cl)cc3c12 (protonated)
CCN(CC)CCC[NH2+]c1c2ccccc2[n+](C)c2c(=O)n(CCCN3CCCCCC3)c3ccc(Cl)cc3c12 (3D coordinates assigned)
CCN(CC)CCC[NH2+]c1c2ccccc2[n+](C)c2c(=O)n(CCCN3CCCCCC3)c3ccc(Cl)cc3c12 (nonaromatic ring conformer: 157.96510294149385 kcal/mol)

>  <smiles>  (9) 
CCN(CC)CCCNc1c2ccccc2[n+](C)c2c(=O)n(CCCN3CCCCCC3)c3ccc(Cl)cc3c12

>  <score_type>  (9) 
oracle

>  <origin>  (9) 
adg

>  <m_score__min__energy>  (9) 
-4.29

>  <m_primary>  (9) 
energy

$$$$
9:0
     RDKit          3D

 48 49  0  0  0  0  0  0  0  0999 V2000
   63.1330   33.0700   50.5860 C   0  0  0  0  0  0  0  0  0  0  0  0
   63.2920   34.1920   49.5720 C   0  0  0  0  0  0  0  0  0  0  0  0
   62.5540   33.8720   48.4120 O   0  0  0  0  0  0  0  0  0  0  0  0
   63.4340   33.5480   47.3530 C   0  0  0  0  0  0  0  0  0  0  0  0
   63.6200   32.0260   47.2760 C   0  0  0  0  0  0  0  0  0  0  0  0
   62.2940   31.2490   47.1770 C   0  0  0  0  0  0  0  0  0  0  0  0
   61.2750   31.7690   48.1070 N   0  0  0  0  0  0  0  0  0  0  0  0
   60.1530   30.8290   48.2730 C   0  0  0  0  0  0  0  0  0  0  0  0
   59.3380   31.1370   49.5130 C   0  0  0  0  0  0  0  0  0  0  0  0
   58.5190   30.1390   50.0680 C   0  0  0  0  0  0  0  0  0  0  0  0
   57.8150   30.3750   51.2480 C   0  0  0  0  0  0  0  0  0  0  0  0
   57.9340   31.6020   51.9000 C   0  0  0  0  0  0  0  0  0  0  0  0
   58.7400   32.6100   51.3650 C   0  0  0  0  0  0  0  0  0  0  0  0
   58.9740   34.2180   52.3780 Br  0  0  0  0  0  0  0  0  0  0  0  0
   59.4230   32.3950   50.1500 C   0  0  0  0  0  0  0  0  0  0  0  0
   60.2060   33.4100   49.5840 O   0  0  0  0  0  0  0  0  0  0  0  0
   59.6420   34.5820   48.9940 C   0  0  0  0  0  0  0  0  0  0  0  0
   59.2030   34.2970   47.5850 C   0  0  0  0  0  0  0  0  0  0  0  0
   59.9420   34.7930   46.4980 C   0  0  0  0  0  0  0  0  0  0  0  0
   59.5650   34.4780   45.1890 C   0  0  0  0  0  0  0  0  0  0  0  0
   58.4570   33.6590   44.9570 C   0  0  0  0  0  0  0  0  0  0  0  0
   58.0950   33.3510   43.6870 F   0  0  0  0  0  0  0  0  0  0  0  0
   57.7230   33.1530   46.0350 C   0  0  0  0  0  0  0  0  0  0  0  0
   58.0970   33.4670   47.3450 C   0  0  0  0  0  0  0  0  0  0  0  0
   63.1917   33.4842   51.6034 H   0  0  0  0  0  0  0  0  0  0  0  0
   62.1569   32.5831   50.4441 H   0  0  0  0  0  0  0  0  0  0  0  0
   63.9354   32.3311   50.4441 H   0  0  0  0  0  0  0  0  0  0  0  0
   62.9155   35.1325   50.0007 H   0  0  0  0  0  0  0  0  0  0  0  0
   64.3547   34.3121   49.3146 H   0  0  0  0  0  0  0  0  0  0  0  0
   63.0131   33.9126   46.4044 H   0  0  0  0  0  0  0  0  0  0  0  0
   64.4093   34.0236   47.5339 H   0  0  0  0  0  0  0  0  0  0  0  0
   64.2266   31.7939   46.3882 H   0  0  0  0  0  0  0  0  0  0  0  0
   64.1097   31.7124   48.2097 H   0  0  0  0  0  0  0  0  0  0  0  0
   61.9108   31.3311   46.1492 H   0  0  0  0  0  0  0  0  0  0  0  0
   62.4947   30.2015   47.4460 H   0  0  0  0  0  0  0  0  0  0  0  0
   60.8990   32.6670   47.7210 H   0  0  0  0  0  0  0  0  0  0  0  0
   61.6910   31.9710   49.0420 H   0  0  0  0  0  0  0  0  0  0  0  0
   59.4987   30.8966   47.3913 H   0  0  0  0  0  0  0  0  0  0  0  0
   60.5690   29.8164   48.3807 H   0  0  0  0  0  0  0  0  0  0  0  0
   58.4326   29.1634   49.5672 H   0  0  0  0  0  0  0  0  0  0  0  0
   57.1647   29.5922   51.6654 H   0  0  0  0  0  0  0  0  0  0  0  0
   57.3905   31.7771   52.8402 H   0  0  0  0  0  0  0  0  0  0  0  0
   58.7732   34.9044   49.5866 H   0  0  0  0  0  0  0  0  0  0  0  0
   60.4029   35.3762   48.9780 H   0  0  0  0  0  0  0  0  0  0  0  0
   60.8199   35.4311   46.6773 H   0  0  0  0  0  0  0  0  0  0  0  0
   60.1415   34.8755   44.3407 H   0  0  0  0  0  0  0  0  0  0  0  0
   56.8512   32.5078   45.8519 H   0  0  0  0  0  0  0  0  0  0  0  0
   57.5222   33.0620   48.1909 H   0  0  0  0  0  0  0  0  0  0  0  0
  1  2  1  0
  2  3  1  0
  3  4  1  0
  4  5  1  0
  5  6  1  0
  6  7  1  0
  7  8  1  0
  8  9  1  0
  9 10  2  0
 10 11  1  0
 11 12  2  0
 12 13  1  0
 13 14  1  0
 13 15  2  0
 15 16  1  0
 16 17  1  0
 17 18  1  0
 18 19  2  0
 19 20  1  0
 20 21  2  0
 21 22  1  0
 21 23  1  0
 23 24  2  0
 15  9  1  0
 24 18  1  0
  1 25  1  0
  1 26  1  0
  1 27  1  0
  2 28  1  0
  2 29  1  0
  4 30  1  0
  4 31  1  0
  5 32  1  0
  5 33  1  0
  6 34  1  0
  6 35  1  0
  7 36  1  0
  7 37  1  0
  8 38  1  0
  8 39  1  0
 10 40  1  0
 11 41  1  0
 12 42  1  0
 17 43  1  0
 17 44  1  0
 19 45  1  0
 20 46  1  0
 23 47  1  0
 24 48  1  0
M  CHG  1   7   1
M  END
>  <UniqueID>  (10) 
10

>  <SMILES>  (10) 
CCOCCC[NH2+]Cc1cccc(Br)c1OCc1ccc(F)cc1

>  <Energy>  (10) 
46.23096084365378

>  <Genealogy>  (10) 
CCOCCC[NH2+]Cc1cccc(Br)c1OCc1ccc(F)cc1 (protonated)
CCOCCC[NH2+]Cc1cccc(Br)c1OCc1ccc(F)cc1 (3D coordinates assigned)
CCOCCC[NH2+]Cc1cccc(Br)c1OCc1ccc(F)cc1 (optimized conformer: 46.23096084365378 kcal/mol)

>  <smiles>  (10) 
CCOCCCNCc1cccc(Br)c1OCc1ccc(F)cc1

>  <score_type>  (10) 
oracle

>  <origin>  (10) 
adg

>  <m_score__min__energy>  (10) 
-4.1900000000000004

>  <m_primary>  (10) 
energy

$$$$
10:0
     RDKit          3D

 55 56  0  0  0  0  0  0  0  0999 V2000
   57.0170   24.3310   43.7390 C   0  0  0  0  0  0  0  0  0  0  0  0
   57.7230   25.0240   44.8920 C   0  0  0  0  0  0  0  0  0  0  0  0
   57.4190   26.4140   44.8700 O   0  0  0  0  0  0  0  0  0  0  0  0
   58.2170   27.3550   44.2080 C   0  0  0  0  0  0  0  0  0  0  0  0
   58.5280   27.1750   42.9980 O   0  0  0  0  0  0  0  0  0  0  0  0
   58.6720   28.5980   44.9580 C   0  0  0  0  0  0  0  0  0  0  0  0
   58.2540   29.8520   44.1200 C   0  0  0  0  0  0  0  0  0  0  0  0
   57.2790   30.8170   44.8210 C   0  0  0  0  0  0  0  0  0  0  0  0
   55.9440   30.3990   44.6050 O   0  0  0  0  0  0  0  0  0  0  0  0
   55.8330   29.7110   43.3780 C   0  0  0  0  0  0  0  0  0  0  0  0
   60.2110   28.5570   45.1910 C   0  0  0  0  0  0  0  0  0  0  0  0
   60.6820   29.7110   46.0920 C   0  0  0  0  0  0  0  0  0  0  0  0
   59.9100   29.8440   47.3540 N   0  0  0  0  0  0  0  0  0  0  0  0
   59.3960   31.2130   47.5710 C   0  0  0  0  0  0  0  0  0  0  0  0
   60.4430   32.2320   47.2180 C   0  0  0  0  0  0  0  0  0  0  0  0
   60.2970   33.3310   46.3890 C   0  0  0  0  0  0  0  0  0  0  0  0
   59.0620   33.7220   45.6430 C   0  0  0  0  0  0  0  0  0  0  0  0
   61.4650   34.0000   46.3070 N   0  0  0  0  0  0  0  0  0  0  0  0
   62.3440   33.3630   47.0660 N   0  0  0  0  0  0  0  0  0  0  0  0
   63.7270   33.7990   47.2250 C   0  0  0  0  0  0  0  0  0  0  0  0
   61.7650   32.2770   47.6250 C   0  0  0  0  0  0  0  0  0  0  0  0
   62.4350   31.3190   48.5670 C   0  0  0  0  0  0  0  0  0  0  0  0
   58.8760   28.8010   47.5540 C   0  0  0  0  0  0  0  0  0  0  0  0
   57.9360   28.6440   46.3440 C   0  0  0  0  0  0  0  0  0  0  0  0
   56.2849   23.6124   44.1361 H   0  0  0  0  0  0  0  0  0  0  0  0
   56.4983   25.0804   43.1231 H   0  0  0  0  0  0  0  0  0  0  0  0
   57.7566   23.7985   43.1231 H   0  0  0  0  0  0  0  0  0  0  0  0
   57.3832   24.5897   45.8438 H   0  0  0  0  0  0  0  0  0  0  0  0
   58.8097   24.8855   44.7920 H   0  0  0  0  0  0  0  0  0  0  0  0
   59.1664   30.4131   43.8698 H   0  0  0  0  0  0  0  0  0  0  0  0
   57.7192   29.4653   43.2400 H   0  0  0  0  0  0  0  0  0  0  0  0
   57.4879   30.8249   45.9010 H   0  0  0  0  0  0  0  0  0  0  0  0
   57.4120   31.8276   44.4076 H   0  0  0  0  0  0  0  0  0  0  0  0
   55.6605   28.6420   43.5714 H   0  0  0  0  0  0  0  0  0  0  0  0
   54.9893   30.1204   42.8031 H   0  0  0  0  0  0  0  0  0  0  0  0
   56.7627   29.8343   42.8031 H   0  0  0  0  0  0  0  0  0  0  0  0
   60.4736   27.6018   45.6690 H   0  0  0  0  0  0  0  0  0  0  0  0
   60.7079   28.6598   44.2150 H   0  0  0  0  0  0  0  0  0  0  0  0
   61.7381   29.5411   46.3485 H   0  0  0  0  0  0  0  0  0  0  0  0
   60.5290   30.6411   45.5250 H   0  0  0  0  0  0  0  0  0  0  0  0
   58.5097   31.3711   46.9389 H   0  0  0  0  0  0  0  0  0  0  0  0
   59.1312   31.3289   48.6323 H   0  0  0  0  0  0  0  0  0  0  0  0
   58.2657   33.9741   46.3587 H   0  0  0  0  0  0  0  0  0  0  0  0
   59.2769   34.5961   45.0107 H   0  0  0  0  0  0  0  0  0  0  0  0
   58.7347   32.8835   45.0107 H   0  0  0  0  0  0  0  0  0  0  0  0
   63.9668   33.8746   48.2959 H   0  0  0  0  0  0  0  0  0  0  0  0
   64.3986   33.0690   46.7495 H   0  0  0  0  0  0  0  0  0  0  0  0
   63.8585   34.7822   46.7495 H   0  0  0  0  0  0  0  0  0  0  0  0
   62.2257   31.6183   49.6046 H   0  0  0  0  0  0  0  0  0  0  0  0
   62.0491   30.3037   48.3933 H   0  0  0  0  0  0  0  0  0  0  0  0
   63.5211   31.3332   48.3933 H   0  0  0  0  0  0  0  0  0  0  0  0
   59.3787   27.8393   47.7342 H   0  0  0  0  0  0  0  0  0  0  0  0
   58.2595   29.1097   48.4111 H   0  0  0  0  0  0  0  0  0  0  0  0
   57.3709   27.7081   46.4655 H   0  0  0  0  0  0  0  0  0  0  0  0
   57.2895   29.5339   46.3288 H   0  0  0  0  0  0  0  0  0  0  0  0
  1  2  1  0
  2  3  1  0
  3  4  1  0
  4  5  2  0
  4  6  1  0
  6  7  1  0
  7  8  1  0
  8  9  1  0
  9 10  1  0
  6 11  1  0
 11 12  1  0
 12 13  1  0
 13 14  1  0
 14 15  1  0
 15 16  1  0
 16 17  1  0
 16 18  2  0
 18 19  1  0
 19 20  1  0
 19 21  1  0
 21 22  1  0
 13 23  1  0
 23 24  1  0
 24  6  1  0
 21 15  2  0
  1 25  1  0
  1 26  1  0
  1 27  1  0
  2 28  1  0
  2 29  1  0
  7 30  1  0
  7 31  1  0
  8 32  1  0
  8 33  1  0
 10 34  1  0
 10 35  1  0
 10 36  1  0
 11 37  1  0
 11 38  1  0
 12 39  1  0
 12 40  1  0
 14 41  1  0
 14 42  1  0
 17 43  1  0
 17 44  1  0
 17 45  1  0
 20 46  1  0
 20 47  1  0
 20 48  1  0
 22 49  1  0
 22 50  1  0
 22 51  1  0
 23 52  1  0
 23 53  1  0
 24 54  1  0
 24 55  1  0
M  END
>  <UniqueID>  (11) 
11

>  <SMILES>  (11) 
CCOC(=O)C1(CCOC)CCN(Cc2c(C)nn(C)c2C)CC1

>  <Energy>  (11) 
90.19416150765136

>  <Genealogy>  (11) 
CCOC(=O)C1(CCOC)CCN(Cc2c(C)nn(C)c2C)CC1 (3D coordinates assigned)
CCOC(=O)C1(CCOC)CCN(Cc2c(C)nn(C)c2C)CC1 (nonaromatic ring conformer: 90.19416150765136 kcal/mol)

>  <smiles>  (11) 
CCOC(=O)C1(CCOC)CCN(Cc2c(C)nn(C)c2C)CC1

>  <score_type>  (11) 
oracle

>  <origin>  (11) 
adg

>  <m_score__min__energy>  (11) 
-6.9299999999999997

>  <m_primary>  (11) 
energy

$$$$
11:0
     RDKit          3D

 66 68  0  0  0  0  0  0  0  0999 V2000
   59.4260   29.3470   49.3370 C   0  0  0  0  0  0  0  0  0  0  0  0
   60.6890   29.4020   50.1950 C   0  0  0  0  0  0  0  0  0  0  0  0
   60.3810   29.7890   51.5920 N   0  0  0  0  0  0  0  0  0  0  0  0
   61.6050   29.7100   52.4210 C   0  0  0  0  0  0  0  0  0  0  0  0
   62.7640   29.0940   51.6380 C   0  0  0  0  0  0  0  0  0  0  0  0
   59.2800   28.9670   52.1600 C   0  0  0  0  0  0  0  0  0  0  0  0
   58.1330   29.8680   52.6230 C   0  0  0  0  0  0  0  0  0  0  0  0
   57.1390   29.9470   51.6180 O   0  0  0  0  0  0  0  0  0  0  0  0
   56.1340   30.8720   51.9770 C   0  0  0  0  0  0  0  0  0  0  0  0
   56.7830   32.0930   52.6160 C   0  0  0  0  0  0  0  0  0  0  0  0
   57.7630   32.6000   51.7370 O   0  0  0  0  0  0  0  0  0  0  0  0
   58.4200   33.6970   52.3360 C   0  0  0  0  0  0  0  0  0  0  0  0
   59.9190   33.6410   52.0020 C   0  0  0  0  0  0  0  0  0  0  0  0
   60.3240   32.3910   51.3280 N   0  0  0  0  0  0  0  0  0  0  0  0
   60.9610   32.6240   50.0350 C   0  0  0  0  0  0  0  0  0  0  0  0
   62.3810   32.6800   49.9380 C   0  0  0  0  0  0  0  0  0  0  0  0
   63.2190   32.4460   51.0600 C   0  0  0  0  0  0  0  0  0  0  0  0
   64.6050   32.4650   50.9420 C   0  0  0  0  0  0  0  0  0  0  0  0
   65.1970   32.7010   49.7110 C   0  0  0  0  0  0  0  0  0  0  0  0
   64.4050   32.9460   48.5940 C   0  0  0  0  0  0  0  0  0  0  0  0
   62.9890   32.9760   48.6860 C   0  0  0  0  0  0  0  0  0  0  0  0
   62.2130   33.2700   47.5870 N   0  0  0  0  0  0  0  0  0  0  0  0
   62.8290   33.8930   46.3940 C   0  0  0  0  0  0  0  0  0  0  0  0
   60.8570   33.0200   47.6080 C   0  0  0  0  0  0  0  0  0  0  0  0
   60.1030   32.9940   46.4050 C   0  0  0  0  0  0  0  0  0  0  0  0
   58.7130   32.8300   46.4110 C   0  0  0  0  0  0  0  0  0  0  0  0
   57.9650   32.8110   45.1800 N   0  0  0  0  0  0  0  0  0  0  0  0
   58.1660   33.6700   44.2960 O   0  0  0  0  0  0  0  0  0  0  0  0
   57.0070   31.8480   44.9590 O   0  0  0  0  0  0  0  0  0  0  0  0
   58.0590   32.7010   47.6340 C   0  0  0  0  0  0  0  0  0  0  0  0
   58.7770   32.6670   48.8250 C   0  0  0  0  0  0  0  0  0  0  0  0
   60.1920   32.7680   48.8400 C   0  0  0  0  0  0  0  0  0  0  0  0
   58.5411   29.3085   49.9892 H   0  0  0  0  0  0  0  0  0  0  0  0
   59.3747   30.2438   48.7020 H   0  0  0  0  0  0  0  0  0  0  0  0
   59.4529   28.4492   48.7020 H   0  0  0  0  0  0  0  0  0  0  0  0
   61.1641   28.4099   50.1955 H   0  0  0  0  0  0  0  0  0  0  0  0
   61.3632   30.1592   49.7681 H   0  0  0  0  0  0  0  0  0  0  0  0
   61.8872   30.7237   52.7416 H   0  0  0  0  0  0  0  0  0  0  0  0
   61.3951   29.0720   53.2921 H   0  0  0  0  0  0  0  0  0  0  0  0
   63.5112   28.6969   52.3408 H   0  0  0  0  0  0  0  0  0  0  0  0
   62.3860   28.2778   51.0048 H   0  0  0  0  0  0  0  0  0  0  0  0
   63.2290   29.8640   51.0048 H   0  0  0  0  0  0  0  0  0  0  0  0
   58.9097   28.2739   51.3903 H   0  0  0  0  0  0  0  0  0  0  0  0
   59.6625   28.4010   53.0222 H   0  0  0  0  0  0  0  0  0  0  0  0
   57.6907   29.4514   53.5399 H   0  0  0  0  0  0  0  0  0  0  0  0
   58.5253   30.8765   52.8208 H   0  0  0  0  0  0  0  0  0  0  0  0
   55.5781   31.1785   51.0787 H   0  0  0  0  0  0  0  0  0  0  0  0
   55.4402   30.4054   52.6918 H   0  0  0  0  0  0  0  0  0  0  0  0
   56.0194   32.8627   52.8018 H   0  0  0  0  0  0  0  0  0  0  0  0
   57.2486   31.8112   53.5719 H   0  0  0  0  0  0  0  0  0  0  0  0
   57.9933   34.6348   51.9508 H   0  0  0  0  0  0  0  0  0  0  0  0
   58.2855   33.6538   53.4269 H   0  0  0  0  0  0  0  0  0  0  0  0
   60.1609   34.4871   51.3419 H   0  0  0  0  0  0  0  0  0  0  0  0
   60.4658   33.6874   52.9553 H   0  0  0  0  0  0  0  0  0  0  0  0
   60.9750   31.8630   51.9500 H   0  0  0  0  0  0  0  0  0  0  0  0
   59.5110   31.7460   51.2860 H   0  0  0  0  0  0  0  0  0  0  0  0
   62.7637   32.2459   52.0411 H   0  0  0  0  0  0  0  0  0  0  0  0
   65.2331   32.2922   51.8283 H   0  0  0  0  0  0  0  0  0  0  0  0
   66.2930   32.6945   49.6175 H   0  0  0  0  0  0  0  0  0  0  0  0
   64.8857   33.1199   47.6200 H   0  0  0  0  0  0  0  0  0  0  0  0
   63.5693   34.6417   46.7123 H   0  0  0  0  0  0  0  0  0  0  0  0
   63.3264   33.1186   45.7915 H   0  0  0  0  0  0  0  0  0  0  0  0
   62.0491   34.3816   45.7915 H   0  0  0  0  0  0  0  0  0  0  0  0
   60.6250   33.1057   45.4432 H   0  0  0  0  0  0  0  0  0  0  0  0
   56.9619   32.6251   47.6584 H   0  0  0  0  0  0  0  0  0  0  0  0
   58.2355   32.5594   49.7764 H   0  0  0  0  0  0  0  0  0  0  0  0
  1  2  1  0
  2  3  1  0
  3  4  1  0
  4  5  1  0
  3  6  1  0
  6  7  1  0
  7  8  1  0
  8  9  1  0
  9 10  1  0
 10 11  1  0
 11 12  1  0
 12 13  1  0
 13 14  1  0
 14 15  1  0
 15 16  2  0
 16 17  1  0
 17 18  2  0
 18 19  1  0
 19 20  2  0
 20 21  1  0
 21 22  2  0
 22 23  1  0
 22 24  1  0
 24 25  2  0
 25 26  1  0
 26 27  1  0
 27 28  2  0
 27 29  1  0
 26 30  2  0
 30 31  1  0
 31 32  2  0
 32 15  1  0
 21 16  1  0
 32 24  1  0
  1 33  1  0
  1 34  1  0
  1 35  1  0
  2 36  1  0
  2 37  1  0
  4 38  1  0
  4 39  1  0
  5 40  1  0
  5 41  1  0
  5 42  1  0
  6 43  1  0
  6 44  1  0
  7 45  1  0
  7 46  1  0
  9 47  1  0
  9 48  1  0
 10 49  1  0
 10 50  1  0
 12 51  1  0
 12 52  1  0
 13 53  1  0
 13 54  1  0
 14 55  1  0
 14 56  1  0
 17 57  1  0
 18 58  1  0
 19 59  1  0
 20 60  1  0
 23 61  1  0
 23 62  1  0
 23 63  1  0
 25 64  1  0
 30 65  1  0
 31 66  1  0
M  CHG  4  14   1  22   1  27   1  29  -1
M  END
>  <UniqueID>  (12) 
12

>  <SMILES>  (12) 
CCN(CC)CCOCCOCC[NH2+]c1c2ccccc2[n+](C)c2cc([N+](=O)[O-])ccc12

>  <Energy>  (12) 
89.71717201840835

>  <Genealogy>  (12) 
CCN(CC)CCOCCOCC[NH2+]c1c2ccccc2[n+](C)c2cc([N+](=O)[O-])ccc12 (protonated)
CCN(CC)CCOCCOCC[NH2+]c1c2ccccc2[n+](C)c2cc([N+](=O)[O-])ccc12 (3D coordinates assigned)
CCN(CC)CCOCCOCC[NH2+]c1c2ccccc2[n+](C)c2cc([N+](=O)[O-])ccc12 (optimized conformer: 89.71717201840835 kcal/mol)

>  <smiles>  (12) 
CCN(CC)CCOCCOCCNc1c2ccccc2[n+](C)c2cc([N+](=O)[O-])ccc12

>  <score_type>  (12) 
oracle

>  <origin>  (12) 
adg

>  <m_score__min__energy>  (12) 
-4.2800000000000002

>  <m_primary>  (12) 
energy

$$$$
12:0
     RDKit          3D

 57 59  0  0  0  0  0  0  0  0999 V2000
   63.3790   33.8050   46.3950 C   0  0  0  0  0  0  0  0  0  0  0  0
   63.4180   33.9920   47.9190 C   0  0  0  0  0  0  0  0  0  0  0  0
   62.8280   32.8690   48.6940 N   0  0  0  0  0  0  0  0  0  0  0  0
   63.8640   31.9690   49.2520 C   0  0  0  0  0  0  0  0  0  0  0  0
   65.0440   32.7900   49.7610 C   0  0  0  0  0  0  0  0  0  0  0  0
   61.8240   33.2660   49.7100 C   0  0  0  0  0  0  0  0  0  0  0  0
   61.0850   32.0650   50.3340 C   0  0  0  0  0  0  0  0  0  0  0  0
   60.1160   31.3620   49.3640 C   0  0  0  0  0  0  0  0  0  0  0  0
   60.7100   31.1550   48.0310 N   0  0  0  0  0  0  0  0  0  0  0  0
   59.6980   31.2650   46.9920 C   0  0  0  0  0  0  0  0  0  0  0  0
   59.4530   32.5040   46.3460 C   0  0  0  0  0  0  0  0  0  0  0  0
   60.0350   33.7110   46.8050 C   0  0  0  0  0  0  0  0  0  0  0  0
   59.7610   34.9240   46.1780 C   0  0  0  0  0  0  0  0  0  0  0  0
   58.8950   34.9700   45.0950 C   0  0  0  0  0  0  0  0  0  0  0  0
   58.3060   33.8000   44.6230 C   0  0  0  0  0  0  0  0  0  0  0  0
   58.5890   32.5430   45.2160 C   0  0  0  0  0  0  0  0  0  0  0  0
   58.0340   31.3790   44.7270 N   0  0  0  0  0  0  0  0  0  0  0  0
   57.4250   31.3600   43.3770 C   0  0  0  0  0  0  0  0  0  0  0  0
   58.0570   30.2290   45.4910 C   0  0  0  0  0  0  0  0  0  0  0  0
   57.2270   29.1210   45.1770 C   0  0  0  0  0  0  0  0  0  0  0  0
   57.2780   27.9350   45.9270 C   0  0  0  0  0  0  0  0  0  0  0  0
   56.4780   26.8190   45.6320 O   0  0  0  0  0  0  0  0  0  0  0  0
   56.9790   25.5440   45.2450 C   0  0  0  0  0  0  0  0  0  0  0  0
   58.1460   27.8530   47.0080 C   0  0  0  0  0  0  0  0  0  0  0  0
   58.9420   28.9370   47.3640 C   0  0  0  0  0  0  0  0  0  0  0  0
   58.9110   30.1420   46.6230 C   0  0  0  0  0  0  0  0  0  0  0  0
   63.1596   32.7530   46.1602 H   0  0  0  0  0  0  0  0  0  0  0  0
   62.5955   34.4474   45.9667 H   0  0  0  0  0  0  0  0  0  0  0  0
   64.3540   34.0807   45.9667 H   0  0  0  0  0  0  0  0  0  0  0  0
   64.4687   34.1053   48.2243 H   0  0  0  0  0  0  0  0  0  0  0  0
   62.8071   34.8795   48.1406 H   0  0  0  0  0  0  0  0  0  0  0  0
   63.4355   31.3911   50.0842 H   0  0  0  0  0  0  0  0  0  0  0  0
   64.2117   31.2842   48.4645 H   0  0  0  0  0  0  0  0  0  0  0  0
   65.0436   32.7897   50.8610 H   0  0  0  0  0  0  0  0  0  0  0  0
   65.9828   32.3490   49.3946 H   0  0  0  0  0  0  0  0  0  0  0  0
   64.9568   33.8235   49.3946 H   0  0  0  0  0  0  0  0  0  0  0  0
   62.3371   33.8163   50.5124 H   0  0  0  0  0  0  0  0  0  0  0  0
   61.0707   33.8854   49.2012 H   0  0  0  0  0  0  0  0  0  0  0  0
   61.8339   31.3321   50.6686 H   0  0  0  0  0  0  0  0  0  0  0  0
   60.4801   32.4563   51.1653 H   0  0  0  0  0  0  0  0  0  0  0  0
   59.8423   30.3833   49.7850 H   0  0  0  0  0  0  0  0  0  0  0  0
   59.2342   32.0083   49.2425 H   0  0  0  0  0  0  0  0  0  0  0  0
   61.4850   31.8340   47.8630 H   0  0  0  0  0  0  0  0  0  0  0  0
   61.1800   30.2270   47.9720 H   0  0  0  0  0  0  0  0  0  0  0  0
   60.7140   33.6900   47.6702 H   0  0  0  0  0  0  0  0  0  0  0  0
   60.2326   35.8485   46.5425 H   0  0  0  0  0  0  0  0  0  0  0  0
   58.6736   35.9316   44.6089 H   0  0  0  0  0  0  0  0  0  0  0  0
   57.6081   33.8515   43.7743 H   0  0  0  0  0  0  0  0  0  0  0  0
   56.3294   31.3258   43.4694 H   0  0  0  0  0  0  0  0  0  0  0  0
   57.7186   32.2677   42.8295 H   0  0  0  0  0  0  0  0  0  0  0  0
   57.7746   30.4723   42.8295 H   0  0  0  0  0  0  0  0  0  0  0  0
   56.5299   29.1930   44.3291 H   0  0  0  0  0  0  0  0  0  0  0  0
   57.2112   24.9532   46.1433 H   0  0  0  0  0  0  0  0  0  0  0  0
   56.2206   25.0183   44.6463 H   0  0  0  0  0  0  0  0  0  0  0  0
   57.8924   25.6753   44.6463 H   0  0  0  0  0  0  0  0  0  0  0  0
   58.2048   26.9208   47.5890 H   0  0  0  0  0  0  0  0  0  0  0  0
   59.6069   28.8559   48.2365 H   0  0  0  0  0  0  0  0  0  0  0  0
  1  2  1  0
  2  3  1  0
  3  4  1  0
  4  5  1  0
  3  6  1  0
  6  7  1  0
  7  8  1  0
  8  9  1  0
  9 10  1  0
 10 11  2  0
 11 12  1  0
 12 13  2  0
 13 14  1  0
 14 15  2  0
 15 16  1  0
 16 17  2  0
 17 18  1  0
 17 19  1  0
 19 20  2  0
 20 21  1  0
 21 22  1  0
 22 23  1  0
 21 24  2  0
 24 25  1  0
 25 26  2  0
 26 10  1  0
 16 11  1  0
 26 19  1  0
  1 27  1  0
  1 28  1  0
  1 29  1  0
  2 30  1  0
  2 31  1  0
  4 32  1  0
  4 33  1  0
  5 34  1  0
  5 35  1  0
  5 36  1  0
  6 37  1  0
  6 38  1  0
  7 39  1  0
  7 40  1  0
  8 41  1  0
  8 42  1  0
  9 43  1  0
  9 44  1  0
 12 45  1  0
 13 46  1  0
 14 47  1  0
 15 48  1  0
 18 49  1  0
 18 50  1  0
 18 51  1  0
 20 52  1  0
 23 53  1  0
 23 54  1  0
 23 55  1  0
 24 56  1  0
 25 57  1  0
M  CHG  2   9   1  17   1
M  END
>  <UniqueID>  (13) 
13

>  <SMILES>  (13) 
CCN(CC)CCC[NH2+]c1c2ccccc2[n+](C)c2cc(OC)ccc12

>  <Energy>  (13) 
85.1281316124672

>  <Genealogy>  (13) 
CCN(CC)CCC[NH2+]c1c2ccccc2[n+](C)c2cc(OC)ccc12 (protonated)
CCN(CC)CCC[NH2+]c1c2ccccc2[n+](C)c2cc(OC)ccc12 (3D coordinates assigned)
CCN(CC)CCC[NH2+]c1c2ccccc2[n+](C)c2cc(OC)ccc12 (optimized conformer: 85.1281316124672 kcal/mol)

>  <smiles>  (13) 
CCN(CC)CCCNc1c2ccccc2[n+](C)c2cc(OC)ccc12

>  <score_type>  (13) 
oracle

>  <origin>  (13) 
adg

>  <m_score__min__energy>  (13) 
-4.0300000000000002

>  <m_primary>  (13) 
energy

$$$$
13:0
     RDKit          3D

 47 47  0  0  0  0  0  0  0  0999 V2000
   57.3840   31.5450   42.7160 C   0  0  0  0  0  0  0  0  0  0  0  0
   56.6490   30.2080   42.7870 C   0  0  0  0  0  0  0  0  0  0  0  0
   55.7320   30.1340   44.0130 C   0  0  0  0  0  0  0  0  0  0  0  0
   56.5310   30.0520   45.2430 N   0  0  0  0  0  0  0  0  0  0  0  0
   57.6280   29.0910   45.0840 C   0  0  0  0  0  0  0  0  0  0  0  0
   58.9790   29.8120   45.2140 C   0  0  0  0  0  0  0  0  0  0  0  0
   59.4780   29.8900   46.6680 C   0  0  0  0  0  0  0  0  0  0  0  0
   60.8730   30.5370   46.7850 C   0  0  0  0  0  0  0  0  0  0  0  0
   61.2290   30.8400   48.1870 N   0  0  0  0  0  0  0  0  0  0  0  0
   62.2940   31.8560   48.2980 C   0  0  0  0  0  0  0  0  0  0  0  0
   62.0100   33.0930   47.4210 C   0  0  0  0  0  0  0  0  0  0  0  0
   60.8520   33.9450   47.9610 C   0  0  0  0  0  0  0  0  0  0  0  0
   59.6650   33.9370   47.0280 C   0  0  0  0  0  0  0  0  0  0  0  0
   59.7210   34.6080   45.7940 C   0  0  0  0  0  0  0  0  0  0  0  0
   58.6150   34.6090   44.9400 C   0  0  0  0  0  0  0  0  0  0  0  0
   57.4460   33.9420   45.3110 C   0  0  0  0  0  0  0  0  0  0  0  0
   57.3790   33.2770   46.5360 C   0  0  0  0  0  0  0  0  0  0  0  0
   58.4840   33.2700   47.3920 C   0  0  0  0  0  0  0  0  0  0  0  0
   57.5837   31.9082   43.7349 H   0  0  0  0  0  0  0  0  0  0  0  0
   58.3359   31.4122   42.1810 H   0  0  0  0  0  0  0  0  0  0  0  0
   56.7618   32.2775   42.1810 H   0  0  0  0  0  0  0  0  0  0  0  0
   56.0411   30.0859   41.8784 H   0  0  0  0  0  0  0  0  0  0  0  0
   57.3983   29.4068   42.8683 H   0  0  0  0  0  0  0  0  0  0  0  0
   55.1013   31.0345   44.0493 H   0  0  0  0  0  0  0  0  0  0  0  0
   55.1020   29.2357   43.9350 H   0  0  0  0  0  0  0  0  0  0  0  0
   55.9050   29.7170   46.0090 H   0  0  0  0  0  0  0  0  0  0  0  0
   57.5510   28.3177   45.8625 H   0  0  0  0  0  0  0  0  0  0  0  0
   57.5603   28.6259   44.0895 H   0  0  0  0  0  0  0  0  0  0  0  0
   59.7255   29.2696   44.6152 H   0  0  0  0  0  0  0  0  0  0  0  0
   58.8390   30.8430   44.8570 H   0  0  0  0  0  0  0  0  0  0  0  0
   58.7632   30.4866   47.2538 H   0  0  0  0  0  0  0  0  0  0  0  0
   59.5564   28.8606   47.0478 H   0  0  0  0  0  0  0  0  0  0  0  0
   61.6209   29.8449   46.3707 H   0  0  0  0  0  0  0  0  0  0  0  0
   60.8547   31.4851   46.2275 H   0  0  0  0  0  0  0  0  0  0  0  0
   60.3800   31.1810   48.7000 H   0  0  0  0  0  0  0  0  0  0  0  0
   61.5370   29.9590   48.6630 H   0  0  0  0  0  0  0  0  0  0  0  0
   62.3712   32.1756   49.3477 H   0  0  0  0  0  0  0  0  0  0  0  0
   63.2330   31.4018   47.9489 H   0  0  0  0  0  0  0  0  0  0  0  0
   62.9170   33.7142   47.3834 H   0  0  0  0  0  0  0  0  0  0  0  0
   61.7227   32.7346   46.4215 H   0  0  0  0  0  0  0  0  0  0  0  0
   60.5402   33.5440   48.9367 H   0  0  0  0  0  0  0  0  0  0  0  0
   61.2061   34.9823   48.0536 H   0  0  0  0  0  0  0  0  0  0  0  0
   60.6404   35.1351   45.4991 H   0  0  0  0  0  0  0  0  0  0  0  0
   58.6654   35.1353   43.9754 H   0  0  0  0  0  0  0  0  0  0  0  0
   56.5767   33.9407   44.6369 H   0  0  0  0  0  0  0  0  0  0  0  0
   56.4547   32.7573   46.8286 H   0  0  0  0  0  0  0  0  0  0  0  0
   58.4283   32.7401   48.3543 H   0  0  0  0  0  0  0  0  0  0  0  0
  1  2  1  0
  2  3  1  0
  3  4  1  0
  4  5  1  0
  5  6  1  0
  6  7  1  0
  7  8  1  0
  8  9  1  0
  9 10  1  0
 10 11  1  0
 11 12  1  0
 12 13  1  0
 13 14  2  0
 14 15  1  0
 15 16  2  0
 16 17  1  0
 17 18  2  0
 18 13  1  0
  1 19  1  0
  1 20  1  0
  1 21  1  0
  2 22  1  0
  2 23  1  0
  3 24  1  0
  3 25  1  0
  4 26  1  0
  5 27  1  0
  5 28  1  0
  6 29  1  0
  6 30  1  0
  7 31  1  0
  7 32  1  0
  8 33  1  0
  8 34  1  0
  9 35  1  0
  9 36  1  0
 10 37  1  0
 10 38  1  0
 11 39  1  0
 11 40  1  0
 12 41  1  0
 12 42  1  0
 14 43  1  0
 15 44  1  0
 16 45  1  0
 17 46  1  0
 18 47  1  0
M  CHG  1   9   1
M  END
>  <UniqueID>  (14) 
14

>  <SMILES>  (14) 
CCCNCCCC[NH2+]CCCc1ccccc1

>  <Energy>  (14) 
29.595812213357192

>  <Genealogy>  (14) 
CCCNCCCC[NH2+]CCCc1ccccc1 (protonated)
CCCNCCCC[NH2+]CCCc1ccccc1 (3D coordinates assigned)
CCCNCCCC[NH2+]CCCc1ccccc1 (optimized conformer: 29.595812213357192 kcal/mol)

>  <smiles>  (14) 
CCCNCCCCNCCCc1ccccc1

>  <score_type>  (14) 
oracle

>  <origin>  (14) 
adg

>  <m_score__min__energy>  (14) 
-5.29

>  <m_primary>  (14) 
energy

$$$$
14:0
     RDKit          3D

 97102  0  0  0  0  0  0  0  0999 V2000
   56.4457   31.8780   42.5074 H   0  0  0  0  0  0  0  0  0  0  0  0
   56.8520   31.0830   43.1500 C   0  0  0  0  0  0  0  0  0  0  0  0
   56.6450   29.7490   42.8180 C   0  0  0  0  0  0  0  0  0  0  0  0
   56.0431   29.4898   41.9345 H   0  0  0  0  0  0  0  0  0  0  0  0
   57.1990   28.7400   43.6030 C   0  0  0  0  0  0  0  0  0  0  0  0
   57.0165   27.6880   43.3384 H   0  0  0  0  0  0  0  0  0  0  0  0
   57.9940   29.0450   44.7370 C   0  0  0  0  0  0  0  0  0  0  0  0
   58.1110   30.4090   45.1230 C   0  0  0  0  0  0  0  0  0  0  0  0
   57.5730   31.4150   44.2950 C   0  0  0  0  0  0  0  0  0  0  0  0
   57.7240   32.4730   44.5556 H   0  0  0  0  0  0  0  0  0  0  0  0
   58.7840   30.7310   46.3120 C   0  0  0  0  0  0  0  0  0  0  0  0
   58.8700   32.0910   46.7770 N   0  0  0  0  0  0  0  0  0  0  0  0
   59.6560   32.3380   47.4170 H   0  0  0  0  0  0  0  0  0  0  0  0
   57.6860   32.9510   46.8210 C   0  0  0  0  0  0  0  0  0  0  0  0
   56.8153   32.3812   46.4645 H   0  0  0  0  0  0  0  0  0  0  0  0
   57.5345   33.2821   47.8590 H   0  0  0  0  0  0  0  0  0  0  0  0
   57.8680   34.1920   45.9370 C   0  0  0  0  0  0  0  0  0  0  0  0
   57.9085   33.8766   44.8840 H   0  0  0  0  0  0  0  0  0  0  0  0
   57.0175   34.8667   46.1143 H   0  0  0  0  0  0  0  0  0  0  0  0
   59.1120   34.9220   46.2670 N   0  0  0  0  0  0  0  0  0  0  0  0
   60.2610   34.2800   45.6080 C   0  0  0  0  0  0  0  0  0  0  0  0
   60.9525   33.8936   46.3712 H   0  0  0  0  0  0  0  0  0  0  0  0
   59.9065   33.4493   44.9802 H   0  0  0  0  0  0  0  0  0  0  0  0
   60.7826   35.0174   44.9802 H   0  0  0  0  0  0  0  0  0  0  0  0
   59.3420   34.9490   47.7190 C   0  0  0  0  0  0  0  0  0  0  0  0
   58.3822   34.8363   48.2444 H   0  0  0  0  0  0  0  0  0  0  0  0
   60.0127   34.1234   47.9994 H   0  0  0  0  0  0  0  0  0  0  0  0
   59.8032   35.9075   47.9994 H   0  0  0  0  0  0  0  0  0  0  0  0
   59.3220   29.7070   47.0950 C   0  0  0  0  0  0  0  0  0  0  0  0
   59.9330   30.0180   48.2650 N   0  0  0  0  0  0  0  0  0  0  0  0
   60.4060   29.0660   49.0990 C   0  0  0  0  0  0  0  0  0  0  0  0
   60.9207   29.3587   50.0260 H   0  0  0  0  0  0  0  0  0  0  0  0
   60.2500   27.7470   48.8000 N   0  0  0  0  0  0  0  0  0  0  0  0
   60.6580   26.7380   49.7960 C   0  0  0  0  0  0  0  0  0  0  0  0
   61.2155   25.9347   49.2922 H   0  0  0  0  0  0  0  0  0  0  0  0
   59.7595   26.3258   50.2784 H   0  0  0  0  0  0  0  0  0  0  0  0
   61.5510   27.3810   50.8660 C   0  0  0  0  0  0  0  0  0  0  0  0
   62.0941   28.2246   50.4150 H   0  0  0  0  0  0  0  0  0  0  0  0
   62.2455   26.6121   51.2354 H   0  0  0  0  0  0  0  0  0  0  0  0
   60.7350   27.8990   52.0640 C   0  0  0  0  0  0  0  0  0  0  0  0
   61.0639   27.3722   52.9719 H   0  0  0  0  0  0  0  0  0  0  0  0
   59.6713   27.7102   51.8570 H   0  0  0  0  0  0  0  0  0  0  0  0
   60.9160   29.4120   52.2750 C   0  0  0  0  0  0  0  0  0  0  0  0
   60.8941   29.6245   53.3541 H   0  0  0  0  0  0  0  0  0  0  0  0
   60.0983   29.9270   51.7495 H   0  0  0  0  0  0  0  0  0  0  0  0
   62.1910   29.9020   51.7200 N   0  0  0  0  0  0  0  0  0  0  0  0
   62.8050   29.0670   51.5750 H   0  0  0  0  0  0  0  0  0  0  0  0
   62.9010   30.8400   52.6100 C   0  0  0  0  0  0  0  0  0  0  0  0
   62.7890   31.8616   52.2177 H   0  0  0  0  0  0  0  0  0  0  0  0
   63.9622   30.5525   52.6445 H   0  0  0  0  0  0  0  0  0  0  0  0
   62.3340   30.7860   54.0400 C   0  0  0  0  0  0  0  0  0  0  0  0
   63.1790   30.7609   54.7438 H   0  0  0  0  0  0  0  0  0  0  0  0
   61.7033   29.8863   54.0924 H   0  0  0  0  0  0  0  0  0  0  0  0
   61.4310   31.9760   54.4150 C   0  0  0  0  0  0  0  0  0  0  0  0
   61.1748   31.8956   55.4817 H   0  0  0  0  0  0  0  0  0  0  0  0
   60.5437   31.9247   53.7668 H   0  0  0  0  0  0  0  0  0  0  0  0
   62.0880   33.3480   54.1740 C   0  0  0  0  0  0  0  0  0  0  0  0
   63.1790   33.2462   54.2705 H   0  0  0  0  0  0  0  0  0  0  0  0
   61.6995   34.0580   54.9190 H   0  0  0  0  0  0  0  0  0  0  0  0
   61.7720   33.8530   52.8420 N   0  0  0  0  0  0  0  0  0  0  0  0
   61.0660   33.4280   51.8210 C   0  0  0  0  0  0  0  0  0  0  0  0
   59.6900   33.0070   51.8670 C   0  0  0  0  0  0  0  0  0  0  0  0
   59.1200   32.4610   50.6950 C   0  0  0  0  0  0  0  0  0  0  0  0
   59.8230   32.3940   49.5400 N   0  0  0  0  0  0  0  0  0  0  0  0
   61.0990   32.8270   49.4450 C   0  0  0  0  0  0  0  0  0  0  0  0
   61.7600   32.7460   48.2130 C   0  0  0  0  0  0  0  0  0  0  0  0
   61.2407   32.3202   47.3418 H   0  0  0  0  0  0  0  0  0  0  0  0
   63.0770   33.2030   48.0820 C   0  0  0  0  0  0  0  0  0  0  0  0
   63.7930   33.0910   46.7690 C   0  0  0  0  0  0  0  0  0  0  0  0
   64.8651   32.9233   46.9491 H   0  0  0  0  0  0  0  0  0  0  0  0
   63.3807   32.2464   46.1974 H   0  0  0  0  0  0  0  0  0  0  0  0
   63.6583   34.0211   46.1974 H   0  0  0  0  0  0  0  0  0  0  0  0
   63.7440   33.7080   49.2050 C   0  0  0  0  0  0  0  0  0  0  0  0
   64.7875   34.0441   49.1150 H   0  0  0  0  0  0  0  0  0  0  0  0
   63.0940   33.7880   50.4380 C   0  0  0  0  0  0  0  0  0  0  0  0
   63.6291   34.1928   51.3096 H   0  0  0  0  0  0  0  0  0  0  0  0
   61.7540   33.3540   50.5790 C   0  0  0  0  0  0  0  0  0  0  0  0
   57.6920   31.9890   50.6990 C   0  0  0  0  0  0  0  0  0  0  0  0
   57.0199   32.8580   50.6434 H   0  0  0  0  0  0  0  0  0  0  0  0
   57.5233   31.3342   49.8314 H   0  0  0  0  0  0  0  0  0  0  0  0
   57.4080   31.2080   51.9850 C   0  0  0  0  0  0  0  0  0  0  0  0
   56.3282   31.0059   52.0415 H   0  0  0  0  0  0  0  0  0  0  0  0
   57.9971   30.2800   51.9439 H   0  0  0  0  0  0  0  0  0  0  0  0
   57.8340   31.9710   53.2600 C   0  0  0  0  0  0  0  0  0  0  0  0
   56.9246   32.2799   53.7963 H   0  0  0  0  0  0  0  0  0  0  0  0
   58.4622   31.2819   53.8435 H   0  0  0  0  0  0  0  0  0  0  0  0
   58.6880   33.2280   52.9940 C   0  0  0  0  0  0  0  0  0  0  0  0
   58.0216   34.0590   52.7194 H   0  0  0  0  0  0  0  0  0  0  0  0
   59.2513   33.4573   53.9106 H   0  0  0  0  0  0  0  0  0  0  0  0
   59.6380   27.3740   47.6290 C   0  0  0  0  0  0  0  0  0  0  0  0
   59.4250   26.1500   47.4180 O   0  0  0  0  0  0  0  0  0  0  0  0
   59.1990   28.3590   46.6950 C   0  0  0  0  0  0  0  0  0  0  0  0
   58.6440   28.0590   45.4600 N   0  0  0  0  0  0  0  0  0  0  0  0
   58.8240   26.7190   44.8560 C   0  0  0  0  0  0  0  0  0  0  0  0
   58.9249   25.9680   45.6533 H   0  0  0  0  0  0  0  0  0  0  0  0
   57.9503   26.4772   44.2330 H   0  0  0  0  0  0  0  0  0  0  0  0
   59.7306   26.7164   44.2330 H   0  0  0  0  0  0  0  0  0  0  0  0
  1  2  1  0
  2  3  2  0
  3  4  1  0
  3  5  1  0
  5  6  1  0
  5  7  2  0
  7  8  1  0
  8  9  2  0
  9 10  1  0
  8 11  1  0
 11 12  1  0
 12 13  1  0
 12 14  1  0
 14 15  1  0
 14 16  1  0
 14 17  1  0
 17 18  1  0
 17 19  1  0
 17 20  1  0
 20 21  1  0
 21 22  1  0
 21 23  1  0
 21 24  1  0
 20 25  1  0
 25 26  1  0
 25 27  1  0
 25 28  1  0
 11 29  2  0
 29 30  1  0
 30 31  2  0
 31 32  1  0
 31 33  1  0
 33 34  1  0
 34 35  1  0
 34 36  1  0
 34 37  1  0
 37 38  1  0
 37 39  1  0
 37 40  1  0
 40 41  1  0
 40 42  1  0
 40 43  1  0
 43 44  1  0
 43 45  1  0
 43 46  1  0
 46 47  1  0
 46 48  1  0
 48 49  1  0
 48 50  1  0
 48 51  1  0
 51 52  1  0
 51 53  1  0
 51 54  1  0
 54 55  1  0
 54 56  1  0
 54 57  1  0
 57 58  1  0
 57 59  1  0
 57 60  1  0
 60 61  2  0
 61 62  1  0
 62 63  2  0
 63 64  1  0
 64 65  1  0
 65 66  2  0
 66 67  1  0
 66 68  1  0
 68 69  1  0
 69 70  1  0
 69 71  1  0
 69 72  1  0
 68 73  2  0
 73 74  1  0
 73 75  1  0
 75 76  1  0
 75 77  2  0
 63 78  1  0
 78 79  1  0
 78 80  1  0
 78 81  1  0
 81 82  1  0
 81 83  1  0
 81 84  1  0
 84 85  1  0
 84 86  1  0
 84 87  1  0
 87 88  1  0
 87 89  1  0
 33 90  1  0
 90 91  2  0
 90 92  1  0
 92 93  2  0
 93 94  1  0
 94 95  1  0
 94 96  1  0
 94 97  1  0
  9  2  1  0
 92 29  1  0
 93  7  1  0
 77 61  1  0
 87 62  1  0
 77 65  1  0
M  CHG  2  64  -1  93   1
M  END
>  <UniqueID>  (15) 
15

>  <SMILES>  (15) 
Cc1ccc2/c(=N/CCCCNCCCCn3cnc4c(NCCN(C)C)c5ccccc5[n+](C)c4c3=O)c3c([n-]c2c1)CCCC3

>  <Energy>  (15) 
146.13999752306648

>  <Genealogy>  (15) 
Cc1ccc2c(=NCCCCNCCCCn3cnc4c(NCCN(C)C)c5ccccc5[n+](C)c4c3=O)c3c([n-]c2c1)CCCC3 (protonated)
Cc1ccc2/c(=N/CCCCNCCCCn3cnc4c(NCCN(C)C)c5ccccc5[n+](C)c4c3=O)c3c([n-]c2c1)CCCC3 (cis-trans isomerization)
Cc1ccc2/c(=N/CCCCNCCCCn3cnc4c(NCCN(C)C)c5ccccc5[n+](C)c4c3=O)c3c([n-]c2c1)CCCC3 (3D coordinates assigned)
Cc1ccc2/c(=N/CCCCNCCCCn3cnc4c(NCCN(C)C)c5ccccc5[n+](C)c4c3=O)c3c([n-]c2c1)CCCC3 (nonaromatic ring conformer: 146.13999752306648 kcal/mol)

>  <smiles>  (15) 
Cc1ccc2c(=NCCCCNCCCCn3cnc4c(NCCN(C)C)c5ccccc5[n+](C)c4c3=O)c3c([nH]c2c1)CCCC3

>  <score_type>  (15) 
oracle

>  <origin>  (15) 
adg

>  <m_score__min__energy>  (15) 
-9.1199999999999992

>  <m_primary>  (15) 
energy

$$$$
15:0
     RDKit          3D

 44 45  0  0  0  0  0  0  0  0999 V2000
   58.3690   29.6100   46.6000 C   0  0  0  0  0  0  0  0  0  0  0  0
   58.4030   30.2780   45.2230 C   0  0  0  0  0  0  0  0  0  0  0  0
   57.1900   31.0670   44.8940 N   0  0  0  0  0  0  0  0  0  0  0  0
   56.0650   30.2660   44.3530 C   0  0  0  0  0  0  0  0  0  0  0  0
   56.2750   29.7530   42.9190 C   0  0  0  0  0  0  0  0  0  0  0  0
   57.4240   32.3600   44.2120 C   0  0  0  0  0  0  0  0  0  0  0  0
   57.3110   33.5700   45.1650 C   0  0  0  0  0  0  0  0  0  0  0  0
   57.2220   33.1890   46.5870 N   0  0  0  0  0  0  0  0  0  0  0  0
   58.5250   33.1210   47.2080 C   0  0  0  0  0  0  0  0  0  0  0  0
   58.6560   32.7050   48.5410 C   0  0  0  0  0  0  0  0  0  0  0  0
   59.9100   32.6620   49.1550 C   0  0  0  0  0  0  0  0  0  0  0  0
   61.0740   33.0320   48.4470 C   0  0  0  0  0  0  0  0  0  0  0  0
   60.9360   33.4500   47.0970 C   0  0  0  0  0  0  0  0  0  0  0  0
   62.0710   33.8350   46.3780 C   0  0  0  0  0  0  0  0  0  0  0  0
   63.3180   33.8100   46.9890 C   0  0  0  0  0  0  0  0  0  0  0  0
   63.4290   33.3960   48.3150 C   0  0  0  0  0  0  0  0  0  0  0  0
   62.3260   33.0070   49.0300 N   0  0  0  0  0  0  0  0  0  0  0  0
   62.5190   32.5750   50.4240 C   0  0  0  0  0  0  0  0  0  0  0  0
   59.6730   33.4850   46.4890 C   0  0  0  0  0  0  0  0  0  0  0  0
   58.4083   30.3817   47.3829 H   0  0  0  0  0  0  0  0  0  0  0  0
   57.4402   29.0298   46.7033 H   0  0  0  0  0  0  0  0  0  0  0  0
   59.2341   28.9385   46.7033 H   0  0  0  0  0  0  0  0  0  0  0  0
   59.2715   30.9522   45.1891 H   0  0  0  0  0  0  0  0  0  0  0  0
   58.4603   29.4670   44.4821 H   0  0  0  0  0  0  0  0  0  0  0  0
   55.9161   29.3964   45.0100 H   0  0  0  0  0  0  0  0  0  0  0  0
   55.1934   30.9362   44.3194 H   0  0  0  0  0  0  0  0  0  0  0  0
   56.6916   28.7354   42.9509 H   0  0  0  0  0  0  0  0  0  0  0  0
   55.3107   29.7380   42.3900 H   0  0  0  0  0  0  0  0  0  0  0  0
   56.9730   30.4185   42.3900 H   0  0  0  0  0  0  0  0  0  0  0  0
   58.4339   32.3494   43.7761 H   0  0  0  0  0  0  0  0  0  0  0  0
   56.6472   32.4726   43.4413 H   0  0  0  0  0  0  0  0  0  0  0  0
   58.1988   34.2051   45.0290 H   0  0  0  0  0  0  0  0  0  0  0  0
   56.3797   34.0976   44.9112 H   0  0  0  0  0  0  0  0  0  0  0  0
   56.5960   33.8530   47.0990 H   0  0  0  0  0  0  0  0  0  0  0  0
   56.7720   32.2460   46.6490 H   0  0  0  0  0  0  0  0  0  0  0  0
   57.7616   32.4094   49.1091 H   0  0  0  0  0  0  0  0  0  0  0  0
   59.9915   32.3360   50.2024 H   0  0  0  0  0  0  0  0  0  0  0  0
   61.9768   34.1571   45.3304 H   0  0  0  0  0  0  0  0  0  0  0  0
   64.2140   34.1156   46.4288 H   0  0  0  0  0  0  0  0  0  0  0  0
   64.4182   33.3811   48.7959 H   0  0  0  0  0  0  0  0  0  0  0  0
   62.1665   33.3640   51.1045 H   0  0  0  0  0  0  0  0  0  0  0  0
   61.9473   31.6527   50.6045 H   0  0  0  0  0  0  0  0  0  0  0  0
   63.5874   32.3854   50.6045 H   0  0  0  0  0  0  0  0  0  0  0  0
   59.5817   33.8006   45.4392 H   0  0  0  0  0  0  0  0  0  0  0  0
  1  2  1  0
  2  3  1  0
  3  4  1  0
  4  5  1  0
  3  6  1  0
  6  7  1  0
  7  8  1  0
  8  9  1  0
  9 10  2  0
 10 11  1  0
 11 12  2  0
 12 13  1  0
 13 14  1  0
 14 15  2  0
 15 16  1  0
 16 17  2  0
 17 18  1  0
 13 19  2  0
 19  9  1  0
 17 12  1  0
  1 20  1  0
  1 21  1  0
  1 22  1  0
  2 23  1  0
  2 24  1  0
  4 25  1  0
  4 26  1  0
  5 27  1  0
  5 28  1  0
  5 29  1  0
  6 30  1  0
  6 31  1  0
  7 32  1  0
  7 33  1  0
  8 34  1  0
  8 35  1  0
 10 36  1  0
 11 37  1  0
 14 38  1  0
 15 39  1  0
 16 40  1  0
 18 41  1  0
 18 42  1  0
 18 43  1  0
 19 44  1  0
M  CHG  2   8   1  17   1
M  END
>  <UniqueID>  (16) 
16

>  <SMILES>  (16) 
CCN(CC)CC[NH2+]c1ccc2c(ccc[n+]2C)c1

>  <Energy>  (16) 
56.58585024589629

>  <Genealogy>  (16) 
CCN(CC)CC[NH2+]c1ccc2c(ccc[n+]2C)c1 (protonated)
CCN(CC)CC[NH2+]c1ccc2c(ccc[n+]2C)c1 (3D coordinates assigned)
CCN(CC)CC[NH2+]c1ccc2c(ccc[n+]2C)c1 (optimized conformer: 56.58585024589629 kcal/mol)

>  <smiles>  (16) 
CCN(CC)CCNc1ccc2c(ccc[n+]2C)c1

>  <score_type>  (16) 
oracle

>  <origin>  (16) 
adg

>  <m_score__min__energy>  (16) 
-3.6400000000000001

>  <m_primary>  (16) 
energy

$$$$
16:0
     RDKit          3D

 61 63  0  0  0  0  0  0  0  0999 V2000
   63.3790   33.1480   46.9350 C   0  0  0  0  0  0  0  0  0  0  0  0
   62.6080   31.9380   47.4550 C   0  0  0  0  0  0  0  0  0  0  0  0
   62.2130   32.1440   48.8680 N   0  0  0  0  0  0  0  0  0  0  0  0
   62.2430   33.5820   49.2210 C   0  0  0  0  0  0  0  0  0  0  0  0
   61.3920   33.8310   50.4610 C   0  0  0  0  0  0  0  0  0  0  0  0
   63.0490   31.3330   49.7860 C   0  0  0  0  0  0  0  0  0  0  0  0
   62.1720   30.3850   50.6120 C   0  0  0  0  0  0  0  0  0  0  0  0
   61.0830   29.9420   49.8290 O   0  0  0  0  0  0  0  0  0  0  0  0
   60.3770   28.9250   50.5090 C   0  0  0  0  0  0  0  0  0  0  0  0
   59.2800   29.5590   51.3530 C   0  0  0  0  0  0  0  0  0  0  0  0
   58.2610   30.0470   50.5040 O   0  0  0  0  0  0  0  0  0  0  0  0
   58.0710   31.4260   50.7320 C   0  0  0  0  0  0  0  0  0  0  0  0
   58.5190   32.2200   49.5040 C   0  0  0  0  0  0  0  0  0  0  0  0
   59.4180   31.4270   48.6500 N   0  0  0  0  0  0  0  0  0  0  0  0
   59.0510   31.5740   47.2530 C   0  0  0  0  0  0  0  0  0  0  0  0
   59.1200   32.8300   46.5800 C   0  0  0  0  0  0  0  0  0  0  0  0
   59.6230   33.9850   47.2230 C   0  0  0  0  0  0  0  0  0  0  0  0
   59.6890   35.2060   46.5550 C   0  0  0  0  0  0  0  0  0  0  0  0
   59.2680   35.3060   45.2350 C   0  0  0  0  0  0  0  0  0  0  0  0
   58.7800   34.1860   44.5660 C   0  0  0  0  0  0  0  0  0  0  0  0
   58.6910   32.9290   45.2130 C   0  0  0  0  0  0  0  0  0  0  0  0
   58.2120   31.8150   44.5460 N   0  0  0  0  0  0  0  0  0  0  0  0
   57.7260   31.9060   43.1560 C   0  0  0  0  0  0  0  0  0  0  0  0
   58.2290   30.6090   45.1920 C   0  0  0  0  0  0  0  0  0  0  0  0
   57.8100   29.0970   44.5670 S   0  0  0  0  0  0  0  0  0  0  0  0
   58.1550   28.2300   45.9660 C   0  0  0  0  0  0  0  0  0  0  0  0
   58.6040   29.1150   46.9400 C   0  0  0  0  0  0  0  0  0  0  0  0
   58.6410   30.4570   46.5050 C   0  0  0  0  0  0  0  0  0  0  0  0
   63.7541   33.7367   47.7851 H   0  0  0  0  0  0  0  0  0  0  0  0
   64.2267   32.8071   46.3225 H   0  0  0  0  0  0  0  0  0  0  0  0
   62.7119   33.7723   46.3225 H   0  0  0  0  0  0  0  0  0  0  0  0
   61.7049   31.7939   46.8438 H   0  0  0  0  0  0  0  0  0  0  0  0
   63.2538   31.0498   47.3915 H   0  0  0  0  0  0  0  0  0  0  0  0
   63.2805   33.8860   49.4239 H   0  0  0  0  0  0  0  0  0  0  0  0
   61.8403   34.1687   48.3822 H   0  0  0  0  0  0  0  0  0  0  0  0
   61.9970   33.6540   51.3625 H   0  0  0  0  0  0  0  0  0  0  0  0
   61.0347   34.8713   50.4576 H   0  0  0  0  0  0  0  0  0  0  0  0
   60.5303   33.1473   50.4576 H   0  0  0  0  0  0  0  0  0  0  0  0
   63.7657   30.7423   49.1967 H   0  0  0  0  0  0  0  0  0  0  0  0
   63.5859   32.0078   50.4690 H   0  0  0  0  0  0  0  0  0  0  0  0
   62.7697   29.5184   50.9310 H   0  0  0  0  0  0  0  0  0  0  0  0
   61.7925   30.9171   51.4968 H   0  0  0  0  0  0  0  0  0  0  0  0
   59.9279   28.2365   49.7781 H   0  0  0  0  0  0  0  0  0  0  0  0
   61.0668   28.3652   51.1577 H   0  0  0  0  0  0  0  0  0  0  0  0
   58.8600   28.8058   52.0358 H   0  0  0  0  0  0  0  0  0  0  0  0
   59.6998   30.3892   51.9399 H   0  0  0  0  0  0  0  0  0  0  0  0
   57.0057   31.6211   50.9244 H   0  0  0  0  0  0  0  0  0  0  0  0
   58.6674   31.7360   51.6027 H   0  0  0  0  0  0  0  0  0  0  0  0
   57.6319   32.5071   48.9203 H   0  0  0  0  0  0  0  0  0  0  0  0
   59.0651   33.1107   49.8481 H   0  0  0  0  0  0  0  0  0  0  0  0
   59.4060   30.4200   48.9280 H   0  0  0  0  0  0  0  0  0  0  0  0
   60.4060   31.7300   48.8010 H   0  0  0  0  0  0  0  0  0  0  0  0
   59.9671   33.9184   48.2657 H   0  0  0  0  0  0  0  0  0  0  0  0
   60.0761   36.0946   47.0751 H   0  0  0  0  0  0  0  0  0  0  0  0
   59.3203   36.2742   44.7156 H   0  0  0  0  0  0  0  0  0  0  0  0
   58.4585   34.2791   43.5182 H   0  0  0  0  0  0  0  0  0  0  0  0
   56.6448   32.1084   43.1581 H   0  0  0  0  0  0  0  0  0  0  0  0
   58.2507   32.7215   42.6367 H   0  0  0  0  0  0  0  0  0  0  0  0
   57.9201   30.9559   42.6367 H   0  0  0  0  0  0  0  0  0  0  0  0
   58.0439   27.1427   46.0901 H   0  0  0  0  0  0  0  0  0  0  0  0
   58.9014   28.7998   47.9510 H   0  0  0  0  0  0  0  0  0  0  0  0
  1  2  1  0
  2  3  1  0
  3  4  1  0
  4  5  1  0
  3  6  1  0
  6  7  1  0
  7  8  1  0
  8  9  1  0
  9 10  1  0
 10 11  1  0
 11 12  1  0
 12 13  1  0
 13 14  1  0
 14 15  1  0
 15 16  2  0
 16 17  1  0
 17 18  2  0
 18 19  1  0
 19 20  2  0
 20 21  1  0
 21 22  2  0
 22 23  1  0
 22 24  1  0
 24 25  1  0
 25 26  1  0
 26 27  2  0
 27 28  1  0
 28 15  1  0
 21 16  1  0
 28 24  2  0
  1 29  1  0
  1 30  1  0
  1 31  1  0
  2 32  1  0
  2 33  1  0
  4 34  1  0
  4 35  1  0
  5 36  1  0
  5 37  1  0
  5 38  1  0
  6 39  1  0
  6 40  1  0
  7 41  1  0
  7 42  1  0
  9 43  1  0
  9 44  1  0
 10 45  1  0
 10 46  1  0
 12 47  1  0
 12 48  1  0
 13 49  1  0
 13 50  1  0
 14 51  1  0
 14 52  1  0
 17 53  1  0
 18 54  1  0
 19 55  1  0
 20 56  1  0
 23 57  1  0
 23 58  1  0
 23 59  1  0
 26 60  1  0
 27 61  1  0
M  CHG  2  14   1  22   1
M  END
>  <UniqueID>  (17) 
17

>  <SMILES>  (17) 
CCN(CC)CCOCCOCC[NH2+]c1c2ccccc2[n+](C)c2sccc12

>  <Energy>  (17) 
101.45236451741788

>  <Genealogy>  (17) 
CCN(CC)CCOCCOCC[NH2+]c1c2ccccc2[n+](C)c2sccc12 (protonated)
CCN(CC)CCOCCOCC[NH2+]c1c2ccccc2[n+](C)c2sccc12 (3D coordinates assigned)
CCN(CC)CCOCCOCC[NH2+]c1c2ccccc2[n+](C)c2sccc12 (optimized conformer: 101.45236451741788 kcal/mol)

>  <smiles>  (17) 
CCN(CC)CCOCCOCCNc1c2ccccc2[n+](C)c2sccc12

>  <score_type>  (17) 
oracle

>  <origin>  (17) 
adg

>  <m_score__min__energy>  (17) 
-3.79

>  <m_primary>  (17) 
energy

$$$$
17:0
     RDKit          3D

 60 63  0  0  0  0  0  0  0  0999 V2000
   54.0180   24.8720   45.6300 C   0  0  0  0  0  0  0  0  0  0  0  0
   55.1490   25.7040   45.8640 O   0  0  0  0  0  0  0  0  0  0  0  0
   56.4850   25.2690   45.8300 C   0  0  0  0  0  0  0  0  0  0  0  0
   56.8110   23.9040   45.7320 C   0  0  0  0  0  0  0  0  0  0  0  0
   58.1430   23.4940   45.7150 C   0  0  0  0  0  0  0  0  0  0  0  0
   59.1680   24.4350   45.7970 C   0  0  0  0  0  0  0  0  0  0  0  0
   58.8710   25.8060   45.8940 C   0  0  0  0  0  0  0  0  0  0  0  0
   59.8840   26.7760   45.9860 O   0  0  0  0  0  0  0  0  0  0  0  0
   60.3470   27.3500   47.2040 C   0  0  0  0  0  0  0  0  0  0  0  0
   57.5230   26.2260   45.9020 C   0  0  0  0  0  0  0  0  0  0  0  0
   57.2040   27.7010   46.0220 C   0  0  0  0  0  0  0  0  0  0  0  0
   56.7960   28.2680   44.7170 N   0  0  0  0  0  0  0  0  0  0  0  0
   57.9480   28.6370   43.8620 C   0  0  0  0  0  0  0  0  0  0  0  0
   58.5970   29.9680   44.2800 C   0  0  0  0  0  0  0  0  0  0  0  0
   57.5560   31.1190   44.5050 C   0  0  0  0  0  0  0  0  0  0  0  0
   56.1270   30.6490   44.1430 C   0  0  0  0  0  0  0  0  0  0  0  0
   55.7760   29.3400   44.8700 C   0  0  0  0  0  0  0  0  0  0  0  0
   57.9400   32.3650   43.6800 C   0  0  0  0  0  0  0  0  0  0  0  0
   58.9010   33.1480   44.5660 C   0  0  0  0  0  0  0  0  0  0  0  0
   58.5990   32.7270   45.9250 N   0  0  0  0  0  0  0  0  0  0  0  0
   59.0180   33.4190   47.1180 C   0  0  0  0  0  0  0  0  0  0  0  0
   59.0500   32.8400   48.3350 N   0  0  0  0  0  0  0  0  0  0  0  0
   59.5090   33.8240   49.1330 C   0  0  0  0  0  0  0  0  0  0  0  0
   59.6700   33.6910   50.6100 C   0  0  0  0  0  0  0  0  0  0  0  0
   59.7480   34.9620   48.4500 N   0  0  0  0  0  0  0  0  0  0  0  0
   59.4450   34.7010   47.1870 N   0  0  0  0  0  0  0  0  0  0  0  0
   59.6410   35.6630   46.1090 C   0  0  0  0  0  0  0  0  0  0  0  0
   57.6280   31.6450   45.9550 C   0  0  0  0  0  0  0  0  0  0  0  0
   53.5893   24.5567   46.5927 H   0  0  0  0  0  0  0  0  0  0  0  0
   53.2631   25.4317   45.0582 H   0  0  0  0  0  0  0  0  0  0  0  0
   54.3275   23.9847   45.0582 H   0  0  0  0  0  0  0  0  0  0  0  0
   56.0084   23.1545   45.6683 H   0  0  0  0  0  0  0  0  0  0  0  0
   58.3862   22.4241   45.6366 H   0  0  0  0  0  0  0  0  0  0  0  0
   60.2166   24.1028   45.7858 H   0  0  0  0  0  0  0  0  0  0  0  0
   59.9092   26.8073   48.0548 H   0  0  0  0  0  0  0  0  0  0  0  0
   61.4438   27.2792   47.2491 H   0  0  0  0  0  0  0  0  0  0  0  0
   60.0457   28.4070   47.2491 H   0  0  0  0  0  0  0  0  0  0  0  0
   56.3838   27.8333   46.7429 H   0  0  0  0  0  0  0  0  0  0  0  0
   58.1083   28.2265   46.3628 H   0  0  0  0  0  0  0  0  0  0  0  0
   58.7043   27.8409   43.9281 H   0  0  0  0  0  0  0  0  0  0  0  0
   57.5733   28.7588   42.8350 H   0  0  0  0  0  0  0  0  0  0  0  0
   59.1497   29.8082   45.2176 H   0  0  0  0  0  0  0  0  0  0  0  0
   59.2584   30.2813   43.4588 H   0  0  0  0  0  0  0  0  0  0  0  0
   55.4073   31.4274   44.4364 H   0  0  0  0  0  0  0  0  0  0  0  0
   56.0813   30.4704   43.0586 H   0  0  0  0  0  0  0  0  0  0  0  0
   55.6638   29.5596   45.9420 H   0  0  0  0  0  0  0  0  0  0  0  0
   54.8486   28.9629   44.4142 H   0  0  0  0  0  0  0  0  0  0  0  0
   58.4331   32.0700   42.7420 H   0  0  0  0  0  0  0  0  0  0  0  0
   57.0590   32.9613   43.4004 H   0  0  0  0  0  0  0  0  0  0  0  0
   59.9435   32.9073   44.3107 H   0  0  0  0  0  0  0  0  0  0  0  0
   58.7847   34.2343   44.4376 H   0  0  0  0  0  0  0  0  0  0  0  0
   58.7760   31.8700   48.6050 H   0  0  0  0  0  0  0  0  0  0  0  0
   58.9179   34.3123   51.1182 H   0  0  0  0  0  0  0  0  0  0  0  0
   59.5334   32.6389   50.9005 H   0  0  0  0  0  0  0  0  0  0  0  0
   60.6774   34.0237   50.9005 H   0  0  0  0  0  0  0  0  0  0  0  0
   59.8434   36.6562   46.5362 H   0  0  0  0  0  0  0  0  0  0  0  0
   60.4938   35.3499   45.4888 H   0  0  0  0  0  0  0  0  0  0  0  0
   58.7337   35.7086   45.4888 H   0  0  0  0  0  0  0  0  0  0  0  0
   57.9600   30.8486   46.6373 H   0  0  0  0  0  0  0  0  0  0  0  0
   56.6464   31.9859   46.3159 H   0  0  0  0  0  0  0  0  0  0  0  0
  1  2  1  0
  2  3  1  0
  3  4  2  0
  4  5  1  0
  5  6  2  0
  6  7  1  0
  7  8  1  0
  8  9  1  0
  7 10  2  0
 10 11  1  0
 11 12  1  0
 12 13  1  0
 13 14  1  0
 14 15  1  0
 15 16  1  0
 16 17  1  0
 15 18  1  0
 18 19  1  0
 19 20  1  0
 20 21  1  0
 21 22  2  0
 22 23  1  0
 23 24  1  0
 23 25  2  0
 25 26  1  0
 26 27  1  0
 20 28  1  0
 10  3  1  0
 17 12  1  0
 26 21  1  0
 28 15  1  0
  1 29  1  0
  1 30  1  0
  1 31  1  0
  4 32  1  0
  5 33  1  0
  6 34  1  0
  9 35  1  0
  9 36  1  0
  9 37  1  0
 11 38  1  0
 11 39  1  0
 13 40  1  0
 13 41  1  0
 14 42  1  0
 14 43  1  0
 16 44  1  0
 16 45  1  0
 17 46  1  0
 17 47  1  0
 18 48  1  0
 18 49  1  0
 19 50  1  0
 19 51  1  0
 22 52  1  0
 24 53  1  0
 24 54  1  0
 24 55  1  0
 27 56  1  0
 27 57  1  0
 27 58  1  0
 28 59  1  0
 28 60  1  0
M  CHG  1  22   1
M  END
>  <UniqueID>  (18) 
18

>  <SMILES>  (18) 
COc1cccc(OC)c1CN1CCC2(CC1)CCN(c1[nH+]c(C)nn1C)C2

>  <Energy>  (18) 
110.96621997768092

>  <Genealogy>  (18) 
COc1cccc(OC)c1CN1CCC2(CC1)CCN(c1[nH+]c(C)nn1C)C2 (protonated)
COc1cccc(OC)c1CN1CCC2(CC1)CCN(c1[nH+]c(C)nn1C)C2 (3D coordinates assigned)
COc1cccc(OC)c1CN1CCC2(CC1)CCN(c1[nH+]c(C)nn1C)C2 (nonaromatic ring conformer: 110.96621997768092 kcal/mol)

>  <smiles>  (18) 
COc1cccc(OC)c1CN1CCC2(CC1)CCN(c1nc(C)nn1C)C2

>  <score_type>  (18) 
oracle

>  <origin>  (18) 
adg

>  <m_score__min__energy>  (18) 
-6.21

>  <m_primary>  (18) 
energy

$$$$
18:0
     RDKit          3D

 51 53  0  0  0  0  0  0  0  0999 V2000
   57.3716   31.4373   41.2620 H   0  0  0  0  0  0  0  0  0  0  0  0
   57.4120   31.5080   42.3590 C   0  0  0  0  0  0  0  0  0  0  0  0
   57.1020   30.4170   43.1230 N   0  0  0  0  0  0  0  0  0  0  0  0
   57.1750   30.4210   44.4870 C   0  0  0  0  0  0  0  0  0  0  0  0
   56.5150   29.4900   45.1220 N   0  0  0  0  0  0  0  0  0  0  0  0
   56.9950   28.1990   45.6260 C   0  0  0  0  0  0  0  0  0  0  0  0
   57.6045   28.3626   46.5269 H   0  0  0  0  0  0  0  0  0  0  0  0
   56.1325   27.5622   45.8722 H   0  0  0  0  0  0  0  0  0  0  0  0
   57.8450   27.5070   44.5560 C   0  0  0  0  0  0  0  0  0  0  0  0
   58.8969   27.8012   44.6863 H   0  0  0  0  0  0  0  0  0  0  0  0
   57.7326   26.4186   44.6688 H   0  0  0  0  0  0  0  0  0  0  0  0
   57.4060   27.8840   43.2140 N   0  0  0  0  0  0  0  0  0  0  0  0
   57.3290   27.0330   42.6090 H   0  0  0  0  0  0  0  0  0  0  0  0
   56.4820   28.3710   43.2610 H   0  0  0  0  0  0  0  0  0  0  0  0
   58.1110   28.5330   42.7940 H   0  0  0  0  0  0  0  0  0  0  0  0
   57.7410   31.5640   45.1020 C   0  0  0  0  0  0  0  0  0  0  0  0
   57.9380   32.7060   44.3490 C   0  0  0  0  0  0  0  0  0  0  0  0
   57.7810   32.7160   42.9670 C   0  0  0  0  0  0  0  0  0  0  0  0
   57.9393   33.6311   42.3774 H   0  0  0  0  0  0  0  0  0  0  0  0
   58.5150   33.6340   45.1780 C   0  0  0  0  0  0  0  0  0  0  0  0
   58.9700   34.9290   44.9320 C   0  0  0  0  0  0  0  0  0  0  0  0
   58.8059   35.4133   43.9581 H   0  0  0  0  0  0  0  0  0  0  0  0
   59.6450   35.5950   45.9690 C   0  0  0  0  0  0  0  0  0  0  0  0
   59.9963   36.6265   45.8185 H   0  0  0  0  0  0  0  0  0  0  0  0
   59.8750   34.9490   47.2020 C   0  0  0  0  0  0  0  0  0  0  0  0
   60.4033   35.4812   48.0068 H   0  0  0  0  0  0  0  0  0  0  0  0
   59.4340   33.6300   47.4100 C   0  0  0  0  0  0  0  0  0  0  0  0
   59.6317   33.1126   48.3604 H   0  0  0  0  0  0  0  0  0  0  0  0
   58.7370   32.9920   46.3770 C   0  0  0  0  0  0  0  0  0  0  0  0
   58.3340   31.6930   46.3270 N   0  0  0  0  0  0  0  0  0  0  0  0
   59.0010   30.6140   47.0810 C   0  0  0  0  0  0  0  0  0  0  0  0
   58.5217   29.6544   46.8371 H   0  0  0  0  0  0  0  0  0  0  0  0
   58.9083   30.8268   48.1562 H   0  0  0  0  0  0  0  0  0  0  0  0
   60.4930   30.5370   46.7220 C   0  0  0  0  0  0  0  0  0  0  0  0
   60.6481   30.9769   45.7258 H   0  0  0  0  0  0  0  0  0  0  0  0
   60.8041   29.4819   46.7253 H   0  0  0  0  0  0  0  0  0  0  0  0
   61.3060   31.2760   47.7110 N   0  0  0  0  0  0  0  0  0  0  0  0
   61.1630   30.8250   49.1170 C   0  0  0  0  0  0  0  0  0  0  0  0
   62.1437   30.4694   49.4659 H   0  0  0  0  0  0  0  0  0  0  0  0
   60.3964   30.0361   49.1177 H   0  0  0  0  0  0  0  0  0  0  0  0
   60.6760   31.9090   50.0810 C   0  0  0  0  0  0  0  0  0  0  0  0
   60.8271   31.5728   51.1174 H   0  0  0  0  0  0  0  0  0  0  0  0
   61.2447   32.8348   49.9093 H   0  0  0  0  0  0  0  0  0  0  0  0
   59.6062   32.0987   49.9093 H   0  0  0  0  0  0  0  0  0  0  0  0
   62.6900   31.6100   47.2960 C   0  0  0  0  0  0  0  0  0  0  0  0
   63.3815   31.2038   48.0489 H   0  0  0  0  0  0  0  0  0  0  0  0
   62.8314   31.1691   46.2982 H   0  0  0  0  0  0  0  0  0  0  0  0
   62.9690   33.1160   47.1510 C   0  0  0  0  0  0  0  0  0  0  0  0
   63.0533   33.5710   48.1489 H   0  0  0  0  0  0  0  0  0  0  0  0
   63.9097   33.2633   46.6002 H   0  0  0  0  0  0  0  0  0  0  0  0
   62.1435   33.5905   46.6002 H   0  0  0  0  0  0  0  0  0  0  0  0
  1  2  1  0
  2  3  1  0
  3  4  1  0
  4  5  2  0
  5  6  1  0
  6  7  1  0
  6  8  1  0
  6  9  1  0
  9 10  1  0
  9 11  1  0
  9 12  1  0
 12 13  1  0
 12 14  1  0
 12 15  1  0
  4 16  1  0
 16 17  2  0
 17 18  1  0
 18 19  1  0
 17 20  1  0
 20 21  2  0
 21 22  1  0
 21 23  1  0
 23 24  1  0
 23 25  2  0
 25 26  1  0
 25 27  1  0
 27 28  1  0
 27 29  2  0
 29 30  1  0
 30 31  1  0
 31 32  1  0
 31 33  1  0
 31 34  1  0
 34 35  1  0
 34 36  1  0
 34 37  1  0
 37 38  1  0
 38 39  1  0
 38 40  1  0
 38 41  1  0
 41 42  1  0
 41 43  1  0
 41 44  1  0
 37 45  1  0
 45 46  1  0
 45 47  1  0
 45 48  1  0
 48 49  1  0
 48 50  1  0
 48 51  1  0
 18  2  2  0
 29 20  1  0
 30 16  1  0
M  CHG  2   3  -1  12   1
M  END
>  <UniqueID>  (19) 
19

>  <SMILES>  (19) 
CCN(CC)CCn1c2ccccc2c2cc[n-]/c(=N/CC[NH3+])c21

>  <Energy>  (19) 
123.6295024301827

>  <Genealogy>  (19) 
CCN(CC)CCn1c2ccccc2c2cc[n-]c(=NCC[NH3+])c21 (protonated)
CCN(CC)CCn1c2ccccc2c2cc[n-]/c(=N/CC[NH3+])c21 (cis-trans isomerization)
CCN(CC)CCn1c2ccccc2c2cc[n-]/c(=N/CC[NH3+])c21 (3D coordinates assigned)
CCN(CC)CCn1c2ccccc2c2cc[n-]/c(=N/CC[NH3+])c21 (optimized conformer: 123.6295024301827 kcal/mol)

>  <smiles>  (19) 
CCN(CC)CCn1c2ccccc2c2cc[nH]c(=NCCN)c21

>  <score_type>  (19) 
oracle

>  <origin>  (19) 
adg

>  <m_score__min__energy>  (19) 
-7.4900000000000002

>  <m_primary>  (19) 
energy

$$$$
19:0
     RDKit          3D

 58 60  0  0  0  0  0  0  0  0999 V2000
   59.2600   34.9760   45.2640 C   0  0  0  0  0  0  0  0  0  0  0  0
   60.3100   34.1060   45.9620 C   0  0  0  0  0  0  0  0  0  0  0  0
   60.5060   34.3900   47.4110 N   0  0  0  0  0  0  0  0  0  0  0  0
   59.4760   33.7390   48.2740 C   0  0  0  0  0  0  0  0  0  0  0  0
   59.8740   33.5410   49.7480 C   0  0  0  0  0  0  0  0  0  0  0  0
   61.8950   34.1950   47.9040 C   0  0  0  0  0  0  0  0  0  0  0  0
   62.8650   33.7040   46.8170 C   0  0  0  0  0  0  0  0  0  0  0  0
   63.2230   32.3080   47.0610 N   0  0  0  0  0  0  0  0  0  0  0  0
   62.5200   31.5280   48.0420 C   0  0  0  0  0  0  0  0  0  0  0  0
   63.0020   31.3970   49.3660 C   0  0  0  0  0  0  0  0  0  0  0  0
   64.1930   32.0360   49.7690 C   0  0  0  0  0  0  0  0  0  0  0  0
   64.6590   31.9140   51.0750 C   0  0  0  0  0  0  0  0  0  0  0  0
   63.9510   31.1570   52.0030 C   0  0  0  0  0  0  0  0  0  0  0  0
   62.7680   30.5180   51.6360 C   0  0  0  0  0  0  0  0  0  0  0  0
   62.2600   30.6230   50.3170 C   0  0  0  0  0  0  0  0  0  0  0  0
   61.0800   30.0010   49.9450 N   0  0  0  0  0  0  0  0  0  0  0  0
   60.3010   29.2050   50.9100 C   0  0  0  0  0  0  0  0  0  0  0  0
   60.6500   30.1350   48.6510 C   0  0  0  0  0  0  0  0  0  0  0  0
   59.2810   29.4560   47.9340 S   0  0  0  0  0  0  0  0  0  0  0  0
   59.5680   30.0940   46.3990 C   0  0  0  0  0  0  0  0  0  0  0  0
   58.6980   29.8700   45.1900 C   0  0  0  0  0  0  0  0  0  0  0  0
   57.4070   30.5930   45.2420 N   0  0  0  0  0  0  0  0  0  0  0  0
   56.4270   30.0670   44.2800 C   0  0  0  0  0  0  0  0  0  0  0  0
   57.5670   32.0480   45.0870 C   0  0  0  0  0  0  0  0  0  0  0  0
   60.7380   30.8490   46.4310 C   0  0  0  0  0  0  0  0  0  0  0  0
   61.3370   30.8730   47.7010 C   0  0  0  0  0  0  0  0  0  0  0  0
   58.6448   35.4857   46.0201 H   0  0  0  0  0  0  0  0  0  0  0  0
   59.7636   35.7251   44.6353 H   0  0  0  0  0  0  0  0  0  0  0  0
   58.6176   34.3419   44.6353 H   0  0  0  0  0  0  0  0  0  0  0  0
   60.0036   33.0545   45.8595 H   0  0  0  0  0  0  0  0  0  0  0  0
   61.2690   34.3333   45.4735 H   0  0  0  0  0  0  0  0  0  0  0  0
   60.3170   35.4180   47.5020 H   0  0  0  0  0  0  0  0  0  0  0  0
   58.5699   34.3621   48.2486 H   0  0  0  0  0  0  0  0  0  0  0  0
   59.3321   32.7292   47.8622 H   0  0  0  0  0  0  0  0  0  0  0  0
   59.0798   33.9361   50.3985 H   0  0  0  0  0  0  0  0  0  0  0  0
   60.0132   32.4686   49.9493 H   0  0  0  0  0  0  0  0  0  0  0  0
   60.8133   34.0768   49.9493 H   0  0  0  0  0  0  0  0  0  0  0  0
   62.2648   35.1549   48.2936 H   0  0  0  0  0  0  0  0  0  0  0  0
   61.8577   33.4176   48.6814 H   0  0  0  0  0  0  0  0  0  0  0  0
   62.3824   33.7897   45.8322 H   0  0  0  0  0  0  0  0  0  0  0  0
   63.7760   34.3201   46.8405 H   0  0  0  0  0  0  0  0  0  0  0  0
   64.1640   31.9820   46.7430 H   0  0  0  0  0  0  0  0  0  0  0  0
   64.7600   32.6375   49.0432 H   0  0  0  0  0  0  0  0  0  0  0  0
   65.5900   32.4177   51.3742 H   0  0  0  0  0  0  0  0  0  0  0  0
   64.3271   31.0622   53.0324 H   0  0  0  0  0  0  0  0  0  0  0  0
   62.2201   29.9230   52.3815 H   0  0  0  0  0  0  0  0  0  0  0  0
   60.5822   29.4923   51.9339 H   0  0  0  0  0  0  0  0  0  0  0  0
   59.2278   29.3925   50.7582 H   0  0  0  0  0  0  0  0  0  0  0  0
   60.5116   28.1361   50.7582 H   0  0  0  0  0  0  0  0  0  0  0  0
   59.2486   30.2065   44.2991 H   0  0  0  0  0  0  0  0  0  0  0  0
   58.4632   28.7958   45.1582 H   0  0  0  0  0  0  0  0  0  0  0  0
   55.5849   29.6150   44.8245 H   0  0  0  0  0  0  0  0  0  0  0  0
   56.0568   30.8876   43.6479 H   0  0  0  0  0  0  0  0  0  0  0  0
   56.9063   29.3049   43.6479 H   0  0  0  0  0  0  0  0  0  0  0  0
   57.6188   32.5190   46.0797 H   0  0  0  0  0  0  0  0  0  0  0  0
   58.4937   32.2580   44.5327 H   0  0  0  0  0  0  0  0  0  0  0  0
   56.7081   32.4543   44.5327 H   0  0  0  0  0  0  0  0  0  0  0  0
   61.1492   31.3711   45.5545 H   0  0  0  0  0  0  0  0  0  0  0  0
  1  2  1  0
  2  3  1  0
  3  4  1  0
  4  5  1  0
  3  6  1  0
  6  7  1  0
  7  8  1  0
  8  9  1  0
  9 10  2  0
 10 11  1  0
 11 12  2  0
 12 13  1  0
 13 14  2  0
 14 15  1  0
 15 16  2  0
 16 17  1  0
 16 18  1  0
 18 19  1  0
 19 20  1  0
 20 21  1  0
 21 22  1  0
 22 23  1  0
 22 24  1  0
 20 25  2  0
 25 26  1  0
 26  9  1  0
 15 10  1  0
 26 18  2  0
  1 27  1  0
  1 28  1  0
  1 29  1  0
  2 30  1  0
  2 31  1  0
  3 32  1  0
  4 33  1  0
  4 34  1  0
  5 35  1  0
  5 36  1  0
  5 37  1  0
  6 38  1  0
  6 39  1  0
  7 40  1  0
  7 41  1  0
  8 42  1  0
 11 43  1  0
 12 44  1  0
 13 45  1  0
 14 46  1  0
 17 47  1  0
 17 48  1  0
 17 49  1  0
 21 50  1  0
 21 51  1  0
 23 52  1  0
 23 53  1  0
 23 54  1  0
 24 55  1  0
 24 56  1  0
 24 57  1  0
 25 58  1  0
M  CHG  2   3   1  16   1
M  END
>  <UniqueID>  (20) 
20

>  <SMILES>  (20) 
CC[NH+](CC)CCNc1c2ccccc2[n+](C)c2sc(CN(C)C)cc12

>  <Energy>  (20) 
111.62586131381687

>  <Genealogy>  (20) 
CC[NH+](CC)CCNc1c2ccccc2[n+](C)c2sc(CN(C)C)cc12 (protonated)
CC[NH+](CC)CCNc1c2ccccc2[n+](C)c2sc(CN(C)C)cc12 (3D coordinates assigned)
CC[NH+](CC)CCNc1c2ccccc2[n+](C)c2sc(CN(C)C)cc12 (optimized conformer: 111.62586131381687 kcal/mol)

>  <smiles>  (20) 
CCN(CC)CCNc1c2ccccc2[n+](C)c2sc(CN(C)C)cc12

>  <score_type>  (20) 
oracle

>  <origin>  (20) 
adg

>  <m_score__min__energy>  (20) 
-4.7400000000000002

>  <m_primary>  (20) 
energy

$$$$
20:0
     RDKit          3D

 44 46  0  0  0  0  0  0  0  0999 V2000
   63.3090   33.8330   46.6160 C   0  0  0  0  0  0  0  0  0  0  0  0
   62.6470   33.2560   47.7970 N   0  0  0  0  0  0  0  0  0  0  0  0
   62.7760   34.1410   48.9660 C   0  0  0  0  0  0  0  0  0  0  0  0
   63.0670   31.8640   48.0740 C   0  0  0  0  0  0  0  0  0  0  0  0
   61.9060   30.8500   48.1490 C   0  0  0  0  0  0  0  0  0  0  0  0
   60.6290   31.5420   48.3860 N   0  0  0  0  0  0  0  0  0  0  0  0
   59.7750   31.4580   47.2110 C   0  0  0  0  0  0  0  0  0  0  0  0
   59.4220   32.6280   46.4870 C   0  0  0  0  0  0  0  0  0  0  0  0
   59.7710   33.9220   46.9480 C   0  0  0  0  0  0  0  0  0  0  0  0
   59.5090   35.0540   46.1810 C   0  0  0  0  0  0  0  0  0  0  0  0
   58.9020   34.9290   44.9420 C   0  0  0  0  0  0  0  0  0  0  0  0
   58.5030   33.6770   44.4830 C   0  0  0  0  0  0  0  0  0  0  0  0
   58.7000   32.5090   45.2660 C   0  0  0  0  0  0  0  0  0  0  0  0
   58.2140   31.2830   44.8590 N   0  0  0  0  0  0  0  0  0  0  0  0
   57.2180   31.2110   43.7630 C   0  0  0  0  0  0  0  0  0  0  0  0
   58.6070   30.1280   45.5050 C   0  0  0  0  0  0  0  0  0  0  0  0
   58.3170   28.8460   44.9670 C   0  0  0  0  0  0  0  0  0  0  0  0
   58.6210   27.6820   45.6680 C   0  0  0  0  0  0  0  0  0  0  0  0
   59.2240   27.7590   46.9140 C   0  0  0  0  0  0  0  0  0  0  0  0
   59.4870   26.6240   47.6100 F   0  0  0  0  0  0  0  0  0  0  0  0
   59.5790   28.9970   47.4420 C   0  0  0  0  0  0  0  0  0  0  0  0
   59.3280   30.1980   46.7310 C   0  0  0  0  0  0  0  0  0  0  0  0
   64.1013   34.5236   46.9406 H   0  0  0  0  0  0  0  0  0  0  0  0
   63.7504   33.0263   46.0123 H   0  0  0  0  0  0  0  0  0  0  0  0
   62.5701   34.3804   46.0123 H   0  0  0  0  0  0  0  0  0  0  0  0
   62.6893   33.5464   49.8874 H   0  0  0  0  0  0  0  0  0  0  0  0
   63.7563   34.6395   48.9421 H   0  0  0  0  0  0  0  0  0  0  0  0
   61.9788   34.8985   48.9421 H   0  0  0  0  0  0  0  0  0  0  0  0
   63.7508   31.5453   47.2734 H   0  0  0  0  0  0  0  0  0  0  0  0
   63.5417   31.8712   49.0663 H   0  0  0  0  0  0  0  0  0  0  0  0
   61.8469   30.2971   47.1999 H   0  0  0  0  0  0  0  0  0  0  0  0
   62.0938   30.1566   48.9820 H   0  0  0  0  0  0  0  0  0  0  0  0
   60.7960   32.5350   48.6600 H   0  0  0  0  0  0  0  0  0  0  0  0
   60.1520   31.1500   49.2280 H   0  0  0  0  0  0  0  0  0  0  0  0
   60.2571   34.0338   47.9284 H   0  0  0  0  0  0  0  0  0  0  0  0
   59.7845   36.0494   46.5595 H   0  0  0  0  0  0  0  0  0  0  0  0
   58.7351   35.8207   44.3199 H   0  0  0  0  0  0  0  0  0  0  0  0
   58.0263   33.5908   43.4954 H   0  0  0  0  0  0  0  0  0  0  0  0
   56.2071   31.1379   44.1904 H   0  0  0  0  0  0  0  0  0  0  0  0
   57.2892   32.1166   43.1427 H   0  0  0  0  0  0  0  0  0  0  0  0
   57.4188   30.3250   43.1427 H   0  0  0  0  0  0  0  0  0  0  0  0
   57.8430   28.7712   43.9772 H   0  0  0  0  0  0  0  0  0  0  0  0
   58.3825   26.7003   45.2327 H   0  0  0  0  0  0  0  0  0  0  0  0
   60.0630   29.0446   48.4286 H   0  0  0  0  0  0  0  0  0  0  0  0
  1  2  1  0
  2  3  1  0
  2  4  1  0
  4  5  1  0
  5  6  1  0
  6  7  1  0
  7  8  2  0
  8  9  1  0
  9 10  2  0
 10 11  1  0
 11 12  2  0
 12 13  1  0
 13 14  2  0
 14 15  1  0
 14 16  1  0
 16 17  2  0
 17 18  1  0
 18 19  2  0
 19 20  1  0
 19 21  1  0
 21 22  2  0
 22  7  1  0
 13  8  1  0
 22 16  1  0
  1 23  1  0
  1 24  1  0
  1 25  1  0
  3 26  1  0
  3 27  1  0
  3 28  1  0
  4 29  1  0
  4 30  1  0
  5 31  1  0
  5 32  1  0
  6 33  1  0
  6 34  1  0
  9 35  1  0
 10 36  1  0
 11 37  1  0
 12 38  1  0
 15 39  1  0
 15 40  1  0
 15 41  1  0
 17 42  1  0
 18 43  1  0
 21 44  1  0
M  CHG  2   6   1  14   1
M  END
>  <UniqueID>  (21) 
21

>  <SMILES>  (21) 
CN(C)CC[NH2+]c1c2ccccc2[n+](C)c2ccc(F)cc12

>  <Energy>  (21) 
75.6905295521102

>  <Genealogy>  (21) 
CN(C)CC[NH2+]c1c2ccccc2[n+](C)c2ccc(F)cc12 (protonated)
CN(C)CC[NH2+]c1c2ccccc2[n+](C)c2ccc(F)cc12 (3D coordinates assigned)
CN(C)CC[NH2+]c1c2ccccc2[n+](C)c2ccc(F)cc12 (optimized conformer: 75.6905295521102 kcal/mol)

>  <smiles>  (21) 
CN(C)CCNc1c2ccccc2[n+](C)c2ccc(F)cc12

>  <score_type>  (21) 
oracle

>  <origin>  (21) 
adg

>  <m_score__min__energy>  (21) 
-3.5699999999999998

>  <m_primary>  (21) 
energy

$$$$
21:0
     RDKit          3D

 40 41  0  0  0  0  0  0  0  0999 V2000
   60.0400   34.2150   48.9950 Br  0  0  0  0  0  0  0  0  0  0  0  0
   59.3510   33.7340   47.2790 C   0  0  0  0  0  0  0  0  0  0  0  0
   58.3740   32.7390   47.1710 C   0  0  0  0  0  0  0  0  0  0  0  0
   57.8700   32.3850   45.9160 C   0  0  0  0  0  0  0  0  0  0  0  0
   58.3320   33.0340   44.7600 C   0  0  0  0  0  0  0  0  0  0  0  0
   57.8060   32.6280   43.4140 C   0  0  0  0  0  0  0  0  0  0  0  0
   57.6830   31.2180   43.3780 O   0  0  0  0  0  0  0  0  0  0  0  0
   56.3690   30.8240   43.7190 C   0  0  0  0  0  0  0  0  0  0  0  0
   56.3370   29.3150   44.0180 C   0  0  0  0  0  0  0  0  0  0  0  0
   57.4080   28.5810   43.3170 N   0  0  0  0  0  0  0  0  0  0  0  0
   58.3910   27.9670   44.2400 C   0  0  0  0  0  0  0  0  0  0  0  0
   59.6200   28.8620   44.4940 C   0  0  0  0  0  0  0  0  0  0  0  0
   59.7080   29.3200   45.9260 C   0  0  0  0  0  0  0  0  0  0  0  0
   58.7700   28.8840   46.8740 C   0  0  0  0  0  0  0  0  0  0  0  0
   58.9000   29.2860   48.2060 C   0  0  0  0  0  0  0  0  0  0  0  0
   59.9310   30.0900   48.5790 N   0  0  0  0  0  0  0  0  0  0  0  0
   60.8560   30.5250   47.6820 C   0  0  0  0  0  0  0  0  0  0  0  0
   60.7630   30.1470   46.3410 C   0  0  0  0  0  0  0  0  0  0  0  0
   59.3240   34.0210   44.8730 C   0  0  0  0  0  0  0  0  0  0  0  0
   59.8270   34.3730   46.1300 C   0  0  0  0  0  0  0  0  0  0  0  0
   58.0017   32.2343   48.0747 H   0  0  0  0  0  0  0  0  0  0  0  0
   57.1088   31.5952   45.8340 H   0  0  0  0  0  0  0  0  0  0  0  0
   56.8214   33.0893   43.2475 H   0  0  0  0  0  0  0  0  0  0  0  0
   58.4970   32.9629   42.6264 H   0  0  0  0  0  0  0  0  0  0  0  0
   56.0410   31.3796   44.6099 H   0  0  0  0  0  0  0  0  0  0  0  0
   55.6952   31.0413   42.8771 H   0  0  0  0  0  0  0  0  0  0  0  0
   56.4574   29.1667   45.1013 H   0  0  0  0  0  0  0  0  0  0  0  0
   55.3727   28.9226   43.6628 H   0  0  0  0  0  0  0  0  0  0  0  0
   56.9760   27.8300   42.7280 H   0  0  0  0  0  0  0  0  0  0  0  0
   57.8890   29.2370   42.6580 H   0  0  0  0  0  0  0  0  0  0  0  0
   57.8944   27.7724   45.2020 H   0  0  0  0  0  0  0  0  0  0  0  0
   58.7507   27.0405   43.7685 H   0  0  0  0  0  0  0  0  0  0  0  0
   60.5287   28.2930   44.2482 H   0  0  0  0  0  0  0  0  0  0  0  0
   59.5218   29.7559   43.8605 H   0  0  0  0  0  0  0  0  0  0  0  0
   57.9385   28.2307   46.5710 H   0  0  0  0  0  0  0  0  0  0  0  0
   58.1666   28.9512   48.9544 H   0  0  0  0  0  0  0  0  0  0  0  0
   61.6787   31.1756   48.0134 H   0  0  0  0  0  0  0  0  0  0  0  0
   61.5120   30.4953   45.6145 H   0  0  0  0  0  0  0  0  0  0  0  0
   59.7070   34.5192   43.9702 H   0  0  0  0  0  0  0  0  0  0  0  0
   60.5977   35.1533   46.2146 H   0  0  0  0  0  0  0  0  0  0  0  0
  1  2  1  0
  2  3  2  0
  3  4  1  0
  4  5  2  0
  5  6  1  0
  6  7  1  0
  7  8  1  0
  8  9  1  0
  9 10  1  0
 10 11  1  0
 11 12  1  0
 12 13  1  0
 13 14  2  0
 14 15  1  0
 15 16  2  0
 16 17  1  0
 17 18  2  0
  5 19  1  0
 19 20  2  0
 20  2  1  0
 18 13  1  0
  3 21  1  0
  4 22  1  0
  6 23  1  0
  6 24  1  0
  8 25  1  0
  8 26  1  0
  9 27  1  0
  9 28  1  0
 10 29  1  0
 10 30  1  0
 11 31  1  0
 11 32  1  0
 12 33  1  0
 12 34  1  0
 14 35  1  0
 15 36  1  0
 17 37  1  0
 18 38  1  0
 19 39  1  0
 20 40  1  0
M  CHG  1  10   1
M  END
>  <UniqueID>  (22) 
22

>  <SMILES>  (22) 
Brc1ccc(COCC[NH2+]CCc2ccncc2)cc1

>  <Energy>  (22) 
39.948039548092055

>  <Genealogy>  (22) 
Brc1ccc(COCC[NH2+]CCc2ccncc2)cc1 (protonated)
Brc1ccc(COCC[NH2+]CCc2ccncc2)cc1 (3D coordinates assigned)
Brc1ccc(COCC[NH2+]CCc2ccncc2)cc1 (optimized conformer: 39.948039548092055 kcal/mol)

>  <smiles>  (22) 
Brc1ccc(COCCNCCc2ccncc2)cc1

>  <score_type>  (22) 
oracle

>  <origin>  (22) 
adg

>  <m_score__min__energy>  (22) 
-5.21

>  <m_primary>  (22) 
energy

$$$$
22:0
     RDKit          3D

 52 55  0  0  0  0  0  0  0  0999 V2000
   60.7600   28.6850   44.9160 C   0  0  0  0  0  0  0  0  0  0  0  0
   59.5740   27.7270   44.8780 C   0  0  0  0  0  0  0  0  0  0  0  0
   58.9830   27.5310   46.2260 N   0  0  0  0  0  0  0  0  0  0  0  0
   58.1490   26.3000   46.1900 C   0  0  0  0  0  0  0  0  0  0  0  0
   56.6550   26.5860   46.0440 C   0  0  0  0  0  0  0  0  0  0  0  0
   60.0530   27.4360   47.2590 C   0  0  0  0  0  0  0  0  0  0  0  0
   59.6020   28.0230   48.6120 C   0  0  0  0  0  0  0  0  0  0  0  0
   58.7030   29.1680   48.4430 N   0  0  0  0  0  0  0  0  0  0  0  0
   59.0290   30.3770   47.7290 C   0  0  0  0  0  0  0  0  0  0  0  0
   59.8900   31.3570   48.2880 C   0  0  0  0  0  0  0  0  0  0  0  0
   60.5500   31.1260   49.5140 C   0  0  0  0  0  0  0  0  0  0  0  0
   61.4440   32.0600   50.0300 C   0  0  0  0  0  0  0  0  0  0  0  0
   61.7210   33.2290   49.3290 C   0  0  0  0  0  0  0  0  0  0  0  0
   62.9910   34.4750   50.0260 Br  0  0  0  0  0  0  0  0  0  0  0  0
   61.0920   33.4840   48.1110 C   0  0  0  0  0  0  0  0  0  0  0  0
   60.1460   32.5780   47.5710 C   0  0  0  0  0  0  0  0  0  0  0  0
   59.5020   32.8320   46.3690 N   0  0  0  0  0  0  0  0  0  0  0  0
   59.5220   34.1650   45.7440 C   0  0  0  0  0  0  0  0  0  0  0  0
   58.7810   31.8160   45.8010 C   0  0  0  0  0  0  0  0  0  0  0  0
   58.5070   30.6400   46.4650 C   0  0  0  0  0  0  0  0  0  0  0  0
   57.7240   29.8650   45.7460 O   0  0  0  0  0  0  0  0  0  0  0  0
   57.5030   30.4840   44.6070 C   0  0  0  0  0  0  0  0  0  0  0  0
   56.7520   30.0120   43.5330 C   0  0  0  0  0  0  0  0  0  0  0  0
   56.6890   30.8030   42.3750 C   0  0  0  0  0  0  0  0  0  0  0  0
   57.3830   32.0290   42.3080 C   0  0  0  0  0  0  0  0  0  0  0  0
   58.1320   32.4880   43.4060 C   0  0  0  0  0  0  0  0  0  0  0  0
   58.1470   31.7050   44.5670 C   0  0  0  0  0  0  0  0  0  0  0  0
   61.0250   28.8991   45.9619 H   0  0  0  0  0  0  0  0  0  0  0  0
   61.6196   28.2248   44.4068 H   0  0  0  0  0  0  0  0  0  0  0  0
   60.4908   29.6221   44.4068 H   0  0  0  0  0  0  0  0  0  0  0  0
   58.8048   28.1384   44.2079 H   0  0  0  0  0  0  0  0  0  0  0  0
   59.9321   26.7521   44.5155 H   0  0  0  0  0  0  0  0  0  0  0  0
   58.4716   25.6846   45.3373 H   0  0  0  0  0  0  0  0  0  0  0  0
   58.2894   25.7832   47.1508 H   0  0  0  0  0  0  0  0  0  0  0  0
   56.1992   26.6733   47.0413 H   0  0  0  0  0  0  0  0  0  0  0  0
   56.5140   27.5274   45.4928 H   0  0  0  0  0  0  0  0  0  0  0  0
   56.1763   25.7632   45.4928 H   0  0  0  0  0  0  0  0  0  0  0  0
   60.3168   26.3776   47.4011 H   0  0  0  0  0  0  0  0  0  0  0  0
   60.9181   28.0173   46.9073 H   0  0  0  0  0  0  0  0  0  0  0  0
   59.0777   27.2411   49.1810 H   0  0  0  0  0  0  0  0  0  0  0  0
   60.4983   28.3715   49.1461 H   0  0  0  0  0  0  0  0  0  0  0  0
   57.7470   29.0790   48.8550 H   0  0  0  0  0  0  0  0  0  0  0  0
   60.3555   30.1962   50.0687 H   0  0  0  0  0  0  0  0  0  0  0  0
   61.9338   31.8726   50.9969 H   0  0  0  0  0  0  0  0  0  0  0  0
   61.3344   34.4045   47.5598 H   0  0  0  0  0  0  0  0  0  0  0  0
   59.5336   34.9371   46.5274 H   0  0  0  0  0  0  0  0  0  0  0  0
   60.4217   34.2634   45.1188 H   0  0  0  0  0  0  0  0  0  0  0  0
   58.6256   34.2903   45.1188 H   0  0  0  0  0  0  0  0  0  0  0  0
   56.2243   29.0486   43.5905 H   0  0  0  0  0  0  0  0  0  0  0  0
   56.0942   30.4643   41.5139 H   0  0  0  0  0  0  0  0  0  0  0  0
   57.3379   32.6314   41.3887 H   0  0  0  0  0  0  0  0  0  0  0  0
   58.6899   33.4346   43.3545 H   0  0  0  0  0  0  0  0  0  0  0  0
  1  2  1  0
  2  3  1  0
  3  4  1  0
  4  5  1  0
  3  6  1  0
  6  7  1  0
  7  8  1  0
  8  9  1  0
  9 10  2  0
 10 11  1  0
 11 12  2  0
 12 13  1  0
 13 14  1  0
 13 15  2  0
 15 16  1  0
 16 17  2  0
 17 18  1  0
 17 19  1  0
 19 20  2  0
 20 21  1  0
 21 22  1  0
 22 23  2  0
 23 24  1  0
 24 25  2  0
 25 26  1  0
 26 27  2  0
 20  9  1  0
 27 22  1  0
 16 10  1  0
 27 19  1  0
  1 28  1  0
  1 29  1  0
  1 30  1  0
  2 31  1  0
  2 32  1  0
  4 33  1  0
  4 34  1  0
  5 35  1  0
  5 36  1  0
  5 37  1  0
  6 38  1  0
  6 39  1  0
  7 40  1  0
  7 41  1  0
  8 42  1  0
 11 43  1  0
 12 44  1  0
 15 45  1  0
 18 46  1  0
 18 47  1  0
 18 48  1  0
 23 49  1  0
 24 50  1  0
 25 51  1  0
 26 52  1  0
M  CHG  1  17   1
M  END
>  <UniqueID>  (23) 
23

>  <SMILES>  (23) 
CCN(CC)CCNc1c2ccc(Br)cc2[n+](C)c2c1oc1ccccc12

>  <Energy>  (23) 
112.90934600899985

>  <Genealogy>  (23) 
CCN(CC)CCNc1c2ccc(Br)cc2[n+](C)c2c1oc1ccccc12 (3D coordinates assigned)
CCN(CC)CCNc1c2ccc(Br)cc2[n+](C)c2c1oc1ccccc12 (optimized conformer: 112.90934600899985 kcal/mol)

>  <smiles>  (23) 
CCN(CC)CCNc1c2ccc(Br)cc2[n+](C)c2c1oc1ccccc12

>  <score_type>  (23) 
oracle

>  <origin>  (23) 
adg

>  <m_score__min__energy>  (23) 
-6.1299999999999999

>  <m_primary>  (23) 
energy

$$$$
23:0
     RDKit          3D

 43 44  0  0  0  0  0  0  0  0999 V2000
   61.3082   35.2600   47.0955 H   0  0  0  0  0  0  0  0  0  0  0  0
   60.4040   34.6350   47.1380 C   0  0  0  0  0  0  0  0  0  0  0  0
   59.5080   34.6330   46.0640 C   0  0  0  0  0  0  0  0  0  0  0  0
   59.7136   35.2568   45.1816 H   0  0  0  0  0  0  0  0  0  0  0  0
   58.3470   33.8410   46.1020 C   0  0  0  0  0  0  0  0  0  0  0  0
   57.3990   33.8340   44.9630 C   0  0  0  0  0  0  0  0  0  0  0  0
   56.5420   34.7530   44.8560 O   0  0  0  0  0  0  0  0  0  0  0  0
   57.5220   32.8360   43.9360 N   0  0  0  0  0  0  0  0  0  0  0  0
   57.5980   31.5390   44.0660 C   0  0  0  0  0  0  0  0  0  0  0  0
   56.6590   30.7510   43.3900 C   0  0  0  0  0  0  0  0  0  0  0  0
   55.8874   31.2261   42.7663 H   0  0  0  0  0  0  0  0  0  0  0  0
   56.7040   29.3630   43.5090 C   0  0  0  0  0  0  0  0  0  0  0  0
   55.9584   28.7410   42.9921 H   0  0  0  0  0  0  0  0  0  0  0  0
   57.6940   28.7660   44.2830 C   0  0  0  0  0  0  0  0  0  0  0  0
   57.7256   27.6723   44.3958 H   0  0  0  0  0  0  0  0  0  0  0  0
   58.6510   29.5700   44.9180 C   0  0  0  0  0  0  0  0  0  0  0  0
   59.7170   28.9360   45.7630 C   0  0  0  0  0  0  0  0  0  0  0  0
   59.4756   29.0796   46.8265 H   0  0  0  0  0  0  0  0  0  0  0  0
   59.7693   27.8599   45.5409 H   0  0  0  0  0  0  0  0  0  0  0  0
   60.6875   29.4038   45.5409 H   0  0  0  0  0  0  0  0  0  0  0  0
   58.5800   30.9290   44.8060 N   0  0  0  0  0  0  0  0  0  0  0  0
   59.3260   31.4900   45.2700 H   0  0  0  0  0  0  0  0  0  0  0  0
   58.1050   33.0470   47.2390 C   0  0  0  0  0  0  0  0  0  0  0  0
   57.2037   32.4179   47.2838 H   0  0  0  0  0  0  0  0  0  0  0  0
   59.0010   33.0520   48.3110 C   0  0  0  0  0  0  0  0  0  0  0  0
   58.7969   32.4286   49.1940 H   0  0  0  0  0  0  0  0  0  0  0  0
   60.1540   33.8410   48.2730 C   0  0  0  0  0  0  0  0  0  0  0  0
   61.0200   33.8080   49.3740 O   0  0  0  0  0  0  0  0  0  0  0  0
   62.3880   34.2070   49.3390 C   0  0  0  0  0  0  0  0  0  0  0  0
   62.5441   34.8934   48.4938 H   0  0  0  0  0  0  0  0  0  0  0  0
   62.6379   34.7101   50.2848 H   0  0  0  0  0  0  0  0  0  0  0  0
   63.3000   32.9780   49.1700 C   0  0  0  0  0  0  0  0  0  0  0  0
   64.3151   33.2599   49.4864 H   0  0  0  0  0  0  0  0  0  0  0  0
   62.8578   32.1796   49.7840 H   0  0  0  0  0  0  0  0  0  0  0  0
   63.3800   32.4440   47.7900 N   0  0  0  0  0  0  0  0  0  0  0  0
   62.3360   31.4530   47.4910 C   0  0  0  0  0  0  0  0  0  0  0  0
   61.9226   31.0606   48.4318 H   0  0  0  0  0  0  0  0  0  0  0  0
   61.5338   31.9298   46.9087 H   0  0  0  0  0  0  0  0  0  0  0  0
   62.7704   30.6270   46.9087 H   0  0  0  0  0  0  0  0  0  0  0  0
   63.4330   33.4920   46.7600 C   0  0  0  0  0  0  0  0  0  0  0  0
   63.4829   34.4789   47.2433 H   0  0  0  0  0  0  0  0  0  0  0  0
   64.3249   33.3452   46.1331 H   0  0  0  0  0  0  0  0  0  0  0  0
   62.5309   33.4359   46.1331 H   0  0  0  0  0  0  0  0  0  0  0  0
  1  2  1  0
  2  3  2  0
  3  4  1  0
  3  5  1  0
  5  6  1  0
  6  7  2  0
  6  8  1  0
  8  9  2  0
  9 10  1  0
 10 11  1  0
 10 12  2  0
 12 13  1  0
 12 14  1  0
 14 15  1  0
 14 16  2  0
 16 17  1  0
 17 18  1  0
 17 19  1  0
 17 20  1  0
 16 21  1  0
 21 22  1  0
  5 23  2  0
 23 24  1  0
 23 25  1  0
 25 26  1  0
 25 27  2  0
 27 28  1  0
 28 29  1  0
 29 30  1  0
 29 31  1  0
 29 32  1  0
 32 33  1  0
 32 34  1  0
 32 35  1  0
 35 36  1  0
 36 37  1  0
 36 38  1  0
 36 39  1  0
 35 40  1  0
 40 41  1  0
 40 42  1  0
 40 43  1  0
 27  2  1  0
 21  9  1  0
M  END
>  <UniqueID>  (24) 
24

>  <SMILES>  (24) 
Cc1ccc/c(=N/C(=O)c2ccc(OCCN(C)C)cc2)[nH]1

>  <Energy>  (24) 
52.208999216072876

>  <Genealogy>  (24) 
Cc1ccc/c(=N/C(=O)c2ccc(OCCN(C)C)cc2)[nH]1 (cis-trans isomerization)
Cc1ccc/c(=N/C(=O)c2ccc(OCCN(C)C)cc2)[nH]1 (3D coordinates assigned)
Cc1ccc/c(=N/C(=O)c2ccc(OCCN(C)C)cc2)[nH]1 (optimized conformer: 52.208999216072876 kcal/mol)

>  <smiles>  (24) 
Cc1cccc(=NC(=O)c2ccc(OCCN(C)C)cc2)[nH]1

>  <score_type>  (24) 
oracle

>  <origin>  (24) 
adg

>  <m_score__min__energy>  (24) 
-7.2599999999999998

>  <m_primary>  (24) 
energy

$$$$
24:0
     RDKit          3D

 61 64  0  0  0  0  0  0  0  0999 V2000
   59.8110   28.6870   48.4190 C   0  0  0  0  0  0  0  0  0  0  0  0
   59.2090   29.7130   47.5030 C   0  0  0  0  0  0  0  0  0  0  0  0
   58.5210   29.3090   46.3540 C   0  0  0  0  0  0  0  0  0  0  0  0
   57.9120   30.2450   45.4840 C   0  0  0  0  0  0  0  0  0  0  0  0
   57.1620   29.7870   44.2010 C   0  0  0  0  0  0  0  0  0  0  0  0
   57.3590   30.7550   43.0040 C   0  0  0  0  0  0  0  0  0  0  0  0
   55.6410   29.7150   44.4720 C   0  0  0  0  0  0  0  0  0  0  0  0
   57.6810   28.4030   43.7470 C   0  0  0  0  0  0  0  0  0  0  0  0
   58.0070   31.6240   45.8280 C   0  0  0  0  0  0  0  0  0  0  0  0
   57.4540   32.5440   45.0420 O   0  0  0  0  0  0  0  0  0  0  0  0
   57.4930   33.8450   45.2940 C   0  0  0  0  0  0  0  0  0  0  0  0
   56.9450   34.6490   44.4960 O   0  0  0  0  0  0  0  0  0  0  0  0
   58.1330   34.3240   46.4330 C   0  0  0  0  0  0  0  0  0  0  0  0
   58.7380   33.4190   47.3130 C   0  0  0  0  0  0  0  0  0  0  0  0
   59.4090   33.9580   48.5610 C   0  0  0  0  0  0  0  0  0  0  0  0
   60.8630   34.1080   48.3510 N   0  0  0  0  0  0  0  0  0  0  0  0
   61.3510   33.6270   47.0320 C   0  0  0  0  0  0  0  0  0  0  0  0
   62.3820   32.4960   47.1240 C   0  0  0  0  0  0  0  0  0  0  0  0
   63.5520   32.8250   48.0670 C   0  0  0  0  0  0  0  0  0  0  0  0
   63.1990   33.8680   49.1390 C   0  0  0  0  0  0  0  0  0  0  0  0
   61.7110   33.8160   49.5380 C   0  0  2  0  0  0  0  0  0  0  0  0
   61.3340   32.4970   50.2730 C   0  0  0  0  0  0  0  0  0  0  0  0
   60.1240   32.6670   51.0780 N   0  0  0  0  0  0  0  0  0  0  0  0
   59.0700   31.8320   51.1390 C   0  0  0  0  0  0  0  0  0  0  0  0
   58.1410   32.3770   52.0000 C   0  0  0  0  0  0  0  0  0  0  0  0
   58.6210   33.5460   52.4650 N   0  0  0  0  0  0  0  0  0  0  0  0
   59.8280   33.7010   51.8910 C   0  0  0  0  0  0  0  0  0  0  0  0
   58.6850   32.0350   47.0080 C   0  0  0  0  0  0  0  0  0  0  0  0
   59.2770   31.0660   47.8330 C   0  0  0  0  0  0  0  0  0  0  0  0
   59.6378   28.9822   49.4644 H   0  0  0  0  0  0  0  0  0  0  0  0
   59.3435   27.7090   48.2319 H   0  0  0  0  0  0  0  0  0  0  0  0
   60.8928   28.6181   48.2319 H   0  0  0  0  0  0  0  0  0  0  0  0
   58.4514   28.2363   46.1205 H   0  0  0  0  0  0  0  0  0  0  0  0
   57.5651   31.7675   43.3813 H   0  0  0  0  0  0  0  0  0  0  0  0
   58.2059   30.4127   42.3911 H   0  0  0  0  0  0  0  0  0  0  0  0
   56.4457   30.7709   42.3911 H   0  0  0  0  0  0  0  0  0  0  0  0
   55.4619   29.7065   45.5573 H   0  0  0  0  0  0  0  0  0  0  0  0
   55.1472   30.5908   44.0257 H   0  0  0  0  0  0  0  0  0  0  0  0
   55.2321   28.7965   44.0257 H   0  0  0  0  0  0  0  0  0  0  0  0
   57.9110   27.7897   44.6307 H   0  0  0  0  0  0  0  0  0  0  0  0
   56.9097   27.9020   43.1437 H   0  0  0  0  0  0  0  0  0  0  0  0
   58.5916   28.5327   43.1437 H   0  0  0  0  0  0  0  0  0  0  0  0
   58.1632   35.4039   46.6400 H   0  0  0  0  0  0  0  0  0  0  0  0
   58.9771   34.9391   48.8077 H   0  0  0  0  0  0  0  0  0  0  0  0
   59.2430   33.2486   49.3852 H   0  0  0  0  0  0  0  0  0  0  0  0
   60.4879   33.2624   46.4557 H   0  0  0  0  0  0  0  0  0  0  0  0
   61.8537   34.4778   46.5487 H   0  0  0  0  0  0  0  0  0  0  0  0
   61.8776   31.5910   47.4936 H   0  0  0  0  0  0  0  0  0  0  0  0
   62.8013   32.3501   46.1176 H   0  0  0  0  0  0  0  0  0  0  0  0
   63.8639   31.8986   48.5715 H   0  0  0  0  0  0  0  0  0  0  0  0
   64.3551   33.2538   47.4497 H   0  0  0  0  0  0  0  0  0  0  0  0
   63.8117   33.6782   50.0326 H   0  0  0  0  0  0  0  0  0  0  0  0
   63.4001   34.8643   48.7184 H   0  0  0  0  0  0  0  0  0  0  0  0
   61.5161   34.6023   50.2822 H   0  0  0  0  0  0  0  0  0  0  0  0
   61.1606   31.7075   49.5269 H   0  0  0  0  0  0  0  0  0  0  0  0
   62.1623   32.2226   50.9428 H   0  0  0  0  0  0  0  0  0  0  0  0
   58.9676   30.8806   50.5965 H   0  0  0  0  0  0  0  0  0  0  0  0
   57.1703   31.9314   52.2630 H   0  0  0  0  0  0  0  0  0  0  0  0
   58.1530   34.1990   53.1330 H   0  0  0  0  0  0  0  0  0  0  0  0
   60.4898   34.5626   52.0633 H   0  0  0  0  0  0  0  0  0  0  0  0
   59.8000   31.3772   48.7493 H   0  0  0  0  0  0  0  0  0  0  0  0
  1  2  1  0
  2  3  2  0
  3  4  1  0
  4  5  1  0
  5  6  1  0
  5  7  1  0
  5  8  1  0
  4  9  2  0
  9 10  1  0
 10 11  1  0
 11 12  2  0
 11 13  1  0
 13 14  2  0
 14 15  1  0
 15 16  1  0
 16 17  1  0
 17 18  1  0
 18 19  1  0
 19 20  1  0
 20 21  1  0
 21 22  1  0
 22 23  1  0
 23 24  1  0
 24 25  2  0
 25 26  1  0
 26 27  2  0
 14 28  1  0
 28 29  2  0
 29  2  1  0
 28  9  1  0
 21 16  1  0
 27 23  1  0
  1 30  1  0
  1 31  1  0
  1 32  1  0
  3 33  1  0
  6 34  1  0
  6 35  1  0
  6 36  1  0
  7 37  1  0
  7 38  1  0
  7 39  1  0
  8 40  1  0
  8 41  1  0
  8 42  1  0
 13 43  1  0
 15 44  1  0
 15 45  1  0
 17 46  1  0
 17 47  1  0
 18 48  1  0
 18 49  1  0
 19 50  1  0
 19 51  1  0
 20 52  1  0
 20 53  1  0
 21 54  1  1
 22 55  1  0
 22 56  1  0
 24 57  1  0
 25 58  1  0
 26 59  1  0
 27 60  1  0
 29 61  1  0
M  CHG  1  26   1
M  END
>  <UniqueID>  (25) 
25

>  <SMILES>  (25) 
Cc1cc(C(C)(C)C)c2oc(=O)cc(CN3CCCC[C@@H]3Cn3cc[nH+]c3)c2c1

>  <Energy>  (25) 
114.74701425767958

>  <Genealogy>  (25) 
Cc1cc(C(C)(C)C)c2oc(=O)cc(CN3CCCCC3Cn3cc[nH+]c3)c2c1 (protonated)
Cc1cc(C(C)(C)C)c2oc(=O)cc(CN3CCCC[C@@H]3Cn3cc[nH+]c3)c2c1 (chirality)
Cc1cc(C(C)(C)C)c2oc(=O)cc(CN3CCCC[C@@H]3Cn3cc[nH+]c3)c2c1 (3D coordinates assigned)
Cc1cc(C(C)(C)C)c2oc(=O)cc(CN3CCCC[C@@H]3Cn3cc[nH+]c3)c2c1 (nonaromatic ring conformer: 114.74701425767958 kcal/mol)

>  <smiles>  (25) 
Cc1cc(C(C)(C)C)c2oc(=O)cc(CN3CCCCC3Cn3ccnc3)c2c1

>  <score_type>  (25) 
oracle

>  <origin>  (25) 
adg

>  <m_score__min__energy>  (25) 
-7.8300000000000001

>  <m_primary>  (25) 
energy

$$$$
25:0
     RDKit          3D

 52 55  0  0  0  0  0  0  0  0999 V2000
   63.1300   33.8520   46.3960 C   0  0  0  0  0  0  0  0  0  0  0  0
   63.4290   32.5320   47.1030 C   0  0  0  0  0  0  0  0  0  0  0  0
   62.4120   32.2620   48.1460 N   0  0  0  0  0  0  0  0  0  0  0  0
   63.0110   32.3300   49.5000 C   0  0  0  0  0  0  0  0  0  0  0  0
   64.4830   32.7200   49.4070 C   0  0  0  0  0  0  0  0  0  0  0  0
   61.7570   30.9530   47.9240 C   0  0  0  0  0  0  0  0  0  0  0  0
   60.6910   30.7040   48.9950 C   0  0  0  0  0  0  0  0  0  0  0  0
   59.3530   31.0020   48.4820 N   0  0  0  0  0  0  0  0  0  0  0  0
   59.1440   31.2720   47.0900 C   0  0  0  0  0  0  0  0  0  0  0  0
   59.1900   32.6030   46.6290 C   0  0  0  0  0  0  0  0  0  0  0  0
   59.6520   33.6460   47.4580 C   0  0  0  0  0  0  0  0  0  0  0  0
   59.7000   34.9570   46.9900 C   0  0  0  0  0  0  0  0  0  0  0  0
   59.2940   35.2500   45.6920 C   0  0  0  0  0  0  0  0  0  0  0  0
   58.8330   34.2330   44.8530 C   0  0  0  0  0  0  0  0  0  0  0  0
   58.7630   32.8920   45.3040 C   0  0  0  0  0  0  0  0  0  0  0  0
   58.2870   31.8790   44.4990 N   0  0  0  0  0  0  0  0  0  0  0  0
   57.7680   32.1710   43.1480 C   0  0  0  0  0  0  0  0  0  0  0  0
   58.3330   30.5890   44.9660 C   0  0  0  0  0  0  0  0  0  0  0  0
   57.8560   29.2070   44.1050 S   0  0  0  0  0  0  0  0  0  0  0  0
   58.2730   28.1780   45.3530 C   0  0  0  0  0  0  0  0  0  0  0  0
   58.1890   26.7890   45.3580 C   0  0  0  0  0  0  0  0  0  0  0  0
   58.6590   26.1000   46.4820 C   0  0  0  0  0  0  0  0  0  0  0  0
   59.2230   26.8060   47.5560 C   0  0  0  0  0  0  0  0  0  0  0  0
   59.3060   28.2080   47.5280 C   0  0  0  0  0  0  0  0  0  0  0  0
   58.7880   28.9120   46.4200 C   0  0  0  0  0  0  0  0  0  0  0  0
   58.7890   30.2780   46.2160 N   0  0  0  0  0  0  0  0  0  0  0  0
   62.9521   34.6373   47.1455 H   0  0  0  0  0  0  0  0  0  0  0  0
   63.9872   34.1332   45.7666 H   0  0  0  0  0  0  0  0  0  0  0  0
   62.2353   33.7364   45.7666 H   0  0  0  0  0  0  0  0  0  0  0  0
   63.4177   31.7155   46.3659 H   0  0  0  0  0  0  0  0  0  0  0  0
   64.4186   32.5986   47.5787 H   0  0  0  0  0  0  0  0  0  0  0  0
   62.4734   33.0809   50.0977 H   0  0  0  0  0  0  0  0  0  0  0  0
   62.9313   31.3422   49.9773 H   0  0  0  0  0  0  0  0  0  0  0  0
   64.8979   32.8299   50.4198 H   0  0  0  0  0  0  0  0  0  0  0  0
   65.0362   31.9374   48.8671 H   0  0  0  0  0  0  0  0  0  0  0  0
   64.5762   33.6738   48.8671 H   0  0  0  0  0  0  0  0  0  0  0  0
   61.2825   30.9483   46.9316 H   0  0  0  0  0  0  0  0  0  0  0  0
   62.5156   30.1586   47.9826 H   0  0  0  0  0  0  0  0  0  0  0  0
   60.7311   29.6491   49.3041 H   0  0  0  0  0  0  0  0  0  0  0  0
   60.8933   31.3642   49.8512 H   0  0  0  0  0  0  0  0  0  0  0  0
   58.5240   30.7570   49.0680 H   0  0  0  0  0  0  0  0  0  0  0  0
   59.9777   33.4220   48.4845 H   0  0  0  0  0  0  0  0  0  0  0  0
   60.0595   35.7620   47.6478 H   0  0  0  0  0  0  0  0  0  0  0  0
   59.3362   36.2862   45.3252 H   0  0  0  0  0  0  0  0  0  0  0  0
   58.5197   34.4769   43.8271 H   0  0  0  0  0  0  0  0  0  0  0  0
   56.8120   32.7089   43.2308 H   0  0  0  0  0  0  0  0  0  0  0  0
   58.4930   32.7936   42.6033 H   0  0  0  0  0  0  0  0  0  0  0  0
   57.6122   31.2281   42.6033 H   0  0  0  0  0  0  0  0  0  0  0  0
   57.7641   26.2464   44.5006 H   0  0  0  0  0  0  0  0  0  0  0  0
   58.5862   25.0032   46.5237 H   0  0  0  0  0  0  0  0  0  0  0  0
   59.6040   26.2556   48.4289 H   0  0  0  0  0  0  0  0  0  0  0  0
   59.7710   28.7527   48.3629 H   0  0  0  0  0  0  0  0  0  0  0  0
  1  2  1  0
  2  3  1  0
  3  4  1  0
  4  5  1  0
  3  6  1  0
  6  7  1  0
  7  8  1  0
  8  9  1  0
  9 10  2  0
 10 11  1  0
 11 12  2  0
 12 13  1  0
 13 14  2  0
 14 15  1  0
 15 16  2  0
 16 17  1  0
 16 18  1  0
 18 19  1  0
 19 20  1  0
 20 21  2  0
 21 22  1  0
 22 23  2  0
 23 24  1  0
 24 25  2  0
 25 26  1  0
 26  9  1  0
 15 10  1  0
 26 18  2  0
 25 20  1  0
  1 27  1  0
  1 28  1  0
  1 29  1  0
  2 30  1  0
  2 31  1  0
  4 32  1  0
  4 33  1  0
  5 34  1  0
  5 35  1  0
  5 36  1  0
  6 37  1  0
  6 38  1  0
  7 39  1  0
  7 40  1  0
  8 41  1  0
 11 42  1  0
 12 43  1  0
 13 44  1  0
 14 45  1  0
 17 46  1  0
 17 47  1  0
 17 48  1  0
 21 49  1  0
 22 50  1  0
 23 51  1  0
 24 52  1  0
M  CHG  2  16   1  26   1
M  END
>  <UniqueID>  (26) 
26

>  <SMILES>  (26) 
CCN(CC)CCNc1c2ccccc2[n+](C)c2sc3ccccc3[n+]12

>  <Energy>  (26) 
112.7122791217521

>  <Genealogy>  (26) 
CCN(CC)CCNc1c2ccccc2[n+](C)c2sc3ccccc3[n+]12 (3D coordinates assigned)
CCN(CC)CCNc1c2ccccc2[n+](C)c2sc3ccccc3[n+]12 (optimized conformer: 112.7122791217521 kcal/mol)

>  <smiles>  (26) 
CCN(CC)CCNc1c2ccccc2[n+](C)c2sc3ccccc3[n+]12

>  <score_type>  (26) 
oracle

>  <origin>  (26) 
adg

>  <m_score__min__energy>  (26) 
-4.9699999999999998

>  <m_primary>  (26) 
energy

$$$$
26:0
     RDKit          3D

 45 47  0  0  0  0  0  0  0  0999 V2000
   64.7540   33.0890   49.3640 C   0  0  0  0  0  0  0  0  0  0  0  0
   63.4370   33.8420   49.5060 C   0  0  0  0  0  0  0  0  0  0  0  0
   62.7190   33.8690   48.2110 N   0  0  0  0  0  0  0  0  0  0  0  0
   63.0340   32.7200   47.3410 C   0  0  0  0  0  0  0  0  0  0  0  0
   62.3670   31.4030   47.7950 C   0  0  0  0  0  0  0  0  0  0  0  0
   60.9340   31.5320   48.1640 N   0  0  0  0  0  0  0  0  0  0  0  0
   59.9710   31.2250   47.0720 C   0  0  0  0  0  0  0  0  0  0  0  0
   59.2930   29.8750   47.1560 C   0  0  0  0  0  0  0  0  0  0  0  0
   59.4080   29.2010   48.2140 O   0  0  0  0  0  0  0  0  0  0  0  0
   58.4170   29.3650   46.0760 C   0  0  0  0  0  0  0  0  0  0  0  0
   57.7710   28.1210   46.0220 C   0  0  0  0  0  0  0  0  0  0  0  0
   57.8680   27.0060   47.0180 C   0  0  0  0  0  0  0  0  0  0  0  0
   57.0510   28.0060   44.8830 N   0  0  0  0  0  0  0  0  0  0  0  0
   57.1880   29.1740   44.2350 C   0  0  0  0  0  0  0  0  0  0  0  0
   56.5640   29.5460   43.0450 C   0  0  0  0  0  0  0  0  0  0  0  0
   56.7690   30.8530   42.5740 C   0  0  0  0  0  0  0  0  0  0  0  0
   57.5620   31.7590   43.3090 C   0  0  0  0  0  0  0  0  0  0  0  0
   58.1740   31.3600   44.5110 C   0  0  0  0  0  0  0  0  0  0  0  0
   57.9960   30.0370   44.9350 C   0  0  0  0  0  0  0  0  0  0  0  0
   60.6120   32.7580   48.9340 C   0  0  0  0  0  0  0  0  0  0  0  0
   61.2630   34.0200   48.3600 C   0  0  0  0  0  0  0  0  0  0  0  0
   65.1548   32.8598   50.3624 H   0  0  0  0  0  0  0  0  0  0  0  0
   64.5832   32.1521   48.8135 H   0  0  0  0  0  0  0  0  0  0  0  0
   65.4748   33.7115   48.8135 H   0  0  0  0  0  0  0  0  0  0  0  0
   62.8108   33.3395   50.2579 H   0  0  0  0  0  0  0  0  0  0  0  0
   63.6471   34.8749   49.8206 H   0  0  0  0  0  0  0  0  0  0  0  0
   62.6911   32.9507   46.3216 H   0  0  0  0  0  0  0  0  0  0  0  0
   64.1220   32.5655   47.3899 H   0  0  0  0  0  0  0  0  0  0  0  0
   62.4457   30.6770   46.9724 H   0  0  0  0  0  0  0  0  0  0  0  0
   62.8960   31.0825   48.7046 H   0  0  0  0  0  0  0  0  0  0  0  0
   60.7690   30.7530   48.8480 H   0  0  0  0  0  0  0  0  0  0  0  0
   59.1883   31.9978   47.0844 H   0  0  0  0  0  0  0  0  0  0  0  0
   60.5639   31.2058   46.1457 H   0  0  0  0  0  0  0  0  0  0  0  0
   57.8320   27.4200   48.0365 H   0  0  0  0  0  0  0  0  0  0  0  0
   57.0269   26.3119   46.8744 H   0  0  0  0  0  0  0  0  0  0  0  0
   58.8164   26.4675   46.8744 H   0  0  0  0  0  0  0  0  0  0  0  0
   56.4740   27.1870   44.5830 H   0  0  0  0  0  0  0  0  0  0  0  0
   55.9303   28.8372   42.4918 H   0  0  0  0  0  0  0  0  0  0  0  0
   56.3089   31.1719   41.6271 H   0  0  0  0  0  0  0  0  0  0  0  0
   57.7029   32.7854   42.9393 H   0  0  0  0  0  0  0  0  0  0  0  0
   58.7754   32.0670   45.1013 H   0  0  0  0  0  0  0  0  0  0  0  0
   59.5207   32.8957   48.9316 H   0  0  0  0  0  0  0  0  0  0  0  0
   61.0090   32.6191   49.9504 H   0  0  0  0  0  0  0  0  0  0  0  0
   60.8245   34.2285   47.3729 H   0  0  0  0  0  0  0  0  0  0  0  0
   61.0767   34.8475   49.0604 H   0  0  0  0  0  0  0  0  0  0  0  0
  1  2  1  0
  2  3  1  0
  3  4  1  0
  4  5  1  0
  5  6  1  0
  6  7  1  0
  7  8  1  0
  8  9  2  0
  8 10  1  0
 10 11  2  0
 11 12  1  0
 11 13  1  0
 13 14  1  0
 14 15  2  0
 15 16  1  0
 16 17  2  0
 17 18  1  0
 18 19  2  0
  6 20  1  0
 20 21  1  0
 21  3  1  0
 19 10  1  0
 19 14  1  0
  1 22  1  0
  1 23  1  0
  1 24  1  0
  2 25  1  0
  2 26  1  0
  4 27  1  0
  4 28  1  0
  5 29  1  0
  5 30  1  0
  6 31  1  0
  7 32  1  0
  7 33  1  0
 12 34  1  0
 12 35  1  0
 12 36  1  0
 13 37  1  0
 15 38  1  0
 16 39  1  0
 17 40  1  0
 18 41  1  0
 20 42  1  0
 20 43  1  0
 21 44  1  0
 21 45  1  0
M  CHG  1   6   1
M  END
>  <UniqueID>  (27) 
27

>  <SMILES>  (27) 
CCN1CC[NH+](CC(=O)c2c(C)[nH]c3ccccc23)CC1

>  <Energy>  (27) 
96.1119987711463

>  <Genealogy>  (27) 
CCN1CC[NH+](CC(=O)c2c(C)[nH]c3ccccc23)CC1 (protonated)
CCN1CC[NH+](CC(=O)c2c(C)[nH]c3ccccc23)CC1 (3D coordinates assigned)
CCN1CC[NH+](CC(=O)c2c(C)[nH]c3ccccc23)CC1 (nonaromatic ring conformer: 96.1119987711463 kcal/mol)

>  <smiles>  (27) 
CCN1CCN(CC(=O)c2c(C)[nH]c3ccccc23)CC1

>  <score_type>  (27) 
oracle

>  <origin>  (27) 
adg

>  <m_score__min__energy>  (27) 
-6.2599999999999998

>  <m_primary>  (27) 
energy

$$$$
27:0
     RDKit          3D

 46 48  0  0  0  0  0  0  0  0999 V2000
   62.5150   31.7460   49.0060 C   0  0  0  0  0  0  0  0  0  0  0  0
   61.4430   30.8770   48.4200 C   0  0  0  0  0  0  0  0  0  0  0  0
   60.6460   30.0660   49.2640 C   0  0  0  0  0  0  0  0  0  0  0  0
   59.6780   29.2020   48.7220 C   0  0  0  0  0  0  0  0  0  0  0  0
   59.5310   29.1650   47.3330 C   0  0  0  0  0  0  0  0  0  0  0  0
   60.3170   29.9370   46.5150 C   0  0  0  0  0  0  0  0  0  0  0  0
   61.2860   30.8010   47.0200 C   0  0  0  0  0  0  0  0  0  0  0  0
   60.0140   29.6110   45.2130 C   0  0  0  0  0  0  0  0  0  0  0  0
   59.0350   28.6230   45.3000 C   0  0  0  0  0  0  0  0  0  0  0  0
   58.5390   27.8310   44.1160 C   0  0  0  0  0  0  0  0  0  0  0  0
   57.4300   28.5050   43.4130 N   0  0  0  0  0  0  0  0  0  0  0  0
   56.6380   29.4000   44.2870 C   0  0  0  0  0  0  0  0  0  0  0  0
   56.5360   30.8230   43.7080 C   0  0  0  0  0  0  0  0  0  0  0  0
   57.9130   31.4830   43.5890 C   0  0  0  0  0  0  0  0  0  0  0  0
   58.1160   32.4720   44.7050 C   0  0  0  0  0  0  0  0  0  0  0  0
   58.7160   33.7150   44.4570 C   0  0  0  0  0  0  0  0  0  0  0  0
   58.9430   34.5940   45.5190 C   0  0  0  0  0  0  0  0  0  0  0  0
   58.5950   34.2380   46.7840 N   0  0  0  0  0  0  0  0  0  0  0  0
   58.0240   33.0350   47.0560 C   0  0  0  0  0  0  0  0  0  0  0  0
   57.7770   32.1290   46.0230 C   0  0  0  0  0  0  0  0  0  0  0  0
   58.7240   28.3680   46.6010 N   0  0  0  0  0  0  0  0  0  0  0  0
   57.8430   27.3200   47.1180 C   0  0  0  0  0  0  0  0  0  0  0  0
   62.4623   31.7033   50.1039 H   0  0  0  0  0  0  0  0  0  0  0  0
   63.5002   31.3885   48.6720 H   0  0  0  0  0  0  0  0  0  0  0  0
   62.3690   32.7839   48.6720 H   0  0  0  0  0  0  0  0  0  0  0  0
   60.7855   30.1124   50.3541 H   0  0  0  0  0  0  0  0  0  0  0  0
   59.0538   28.5727   49.3734 H   0  0  0  0  0  0  0  0  0  0  0  0
   61.9106   31.4064   46.3468 H   0  0  0  0  0  0  0  0  0  0  0  0
   60.4511   30.0388   44.2987 H   0  0  0  0  0  0  0  0  0  0  0  0
   59.3714   27.6914   43.4106 H   0  0  0  0  0  0  0  0  0  0  0  0
   58.1624   26.8678   44.4908 H   0  0  0  0  0  0  0  0  0  0  0  0
   57.7940   29.0160   42.5760 H   0  0  0  0  0  0  0  0  0  0  0  0
   56.7940   27.7550   43.0540 H   0  0  0  0  0  0  0  0  0  0  0  0
   55.6245   28.9863   44.3950 H   0  0  0  0  0  0  0  0  0  0  0  0
   57.1458   29.4632   45.2607 H   0  0  0  0  0  0  0  0  0  0  0  0
   56.0779   30.7701   42.7093 H   0  0  0  0  0  0  0  0  0  0  0  0
   55.9217   31.4290   44.3902 H   0  0  0  0  0  0  0  0  0  0  0  0
   58.6925   30.7088   43.6439 H   0  0  0  0  0  0  0  0  0  0  0  0
   57.9745   32.0119   42.6264 H   0  0  0  0  0  0  0  0  0  0  0  0
   59.0058   33.9959   43.4337 H   0  0  0  0  0  0  0  0  0  0  0  0
   59.4038   35.5751   45.3314 H   0  0  0  0  0  0  0  0  0  0  0  0
   57.7563   32.7751   48.0908 H   0  0  0  0  0  0  0  0  0  0  0  0
   57.3196   31.1526   46.2407 H   0  0  0  0  0  0  0  0  0  0  0  0
   57.8580   27.3379   48.2178 H   0  0  0  0  0  0  0  0  0  0  0  0
   56.8169   27.4951   46.7624 H   0  0  0  0  0  0  0  0  0  0  0  0
   58.1919   26.3393   46.7624 H   0  0  0  0  0  0  0  0  0  0  0  0
  1  2  1  0
  2  3  2  0
  3  4  1  0
  4  5  2  0
  5  6  1  0
  6  7  2  0
  6  8  1  0
  8  9  2  0
  9 10  1  0
 10 11  1  0
 11 12  1  0
 12 13  1  0
 13 14  1  0
 14 15  1  0
 15 16  2  0
 16 17  1  0
 17 18  2  0
 18 19  1  0
 19 20  2  0
  9 21  1  0
 21 22  1  0
  7  2  1  0
 20 15  1  0
 21  5  1  0
  1 23  1  0
  1 24  1  0
  1 25  1  0
  3 26  1  0
  4 27  1  0
  7 28  1  0
  8 29  1  0
 10 30  1  0
 10 31  1  0
 11 32  1  0
 11 33  1  0
 12 34  1  0
 12 35  1  0
 13 36  1  0
 13 37  1  0
 14 38  1  0
 14 39  1  0
 16 40  1  0
 17 41  1  0
 19 42  1  0
 20 43  1  0
 22 44  1  0
 22 45  1  0
 22 46  1  0
M  CHG  1  11   1
M  END
>  <UniqueID>  (28) 
28

>  <SMILES>  (28) 
Cc1ccc2c(c1)cc(C[NH2+]CCCc1ccncc1)n2C

>  <Energy>  (28) 
75.35415086704953

>  <Genealogy>  (28) 
Cc1ccc2c(c1)cc(C[NH2+]CCCc1ccncc1)n2C (protonated)
Cc1ccc2c(c1)cc(C[NH2+]CCCc1ccncc1)n2C (3D coordinates assigned)
Cc1ccc2c(c1)cc(C[NH2+]CCCc1ccncc1)n2C (optimized conformer: 75.35415086704953 kcal/mol)

>  <smiles>  (28) 
Cc1ccc2c(c1)cc(CNCCCc1ccncc1)n2C

>  <score_type>  (28) 
oracle

>  <origin>  (28) 
adg

>  <m_score__min__energy>  (28) 
-6.7000000000000002

>  <m_primary>  (28) 
energy

$$$$
28:0
     RDKit          3D

 34 35  0  0  0  0  0  0  0  0999 V2000
   55.1650   29.5560   43.1090 O   0  0  0  0  0  0  0  0  0  0  0  0
   55.9530   29.8260   44.0540 C   0  0  0  0  0  0  0  0  0  0  0  0
   56.8730   31.0080   43.9390 C   0  0  0  0  0  0  0  0  0  0  0  0
   57.4400   31.3890   45.2400 N   0  0  0  0  0  0  0  0  0  0  0  0
   57.2020   32.8050   45.5440 C   0  0  0  0  0  0  0  0  0  0  0  0
   58.3040   33.3250   46.4100 C   0  0  0  0  0  0  0  0  0  0  0  0
   58.5820   32.9130   47.7070 C   0  0  0  0  0  0  0  0  0  0  0  0
   59.6270   33.6320   48.3000 C   0  0  0  0  0  0  0  0  0  0  0  0
   60.1600   34.6190   47.4790 C   0  0  0  0  0  0  0  0  0  0  0  0
   59.3300   34.5980   46.0170 S   0  0  0  0  0  0  0  0  0  0  0  0
   55.9750   29.0290   45.2450 N   0  0  0  0  0  0  0  0  0  0  0  0
   56.7720   27.8570   45.4660 C   0  0  0  0  0  0  0  0  0  0  0  0
   58.1090   27.8640   45.0490 C   0  0  0  0  0  0  0  0  0  0  0  0
   58.9140   26.7350   45.2230 C   0  0  0  0  0  0  0  0  0  0  0  0
   58.3830   25.5680   45.8050 C   0  0  0  0  0  0  0  0  0  0  0  0
   59.1470   24.4080   46.0050 O   0  0  0  0  0  0  0  0  0  0  0  0
   59.0050   23.2040   45.2550 C   0  0  0  0  0  0  0  0  0  0  0  0
   58.1100   22.3580   45.8860 F   0  0  0  0  0  0  0  0  0  0  0  0
   60.2330   22.5760   45.1730 F   0  0  0  0  0  0  0  0  0  0  0  0
   57.0400   25.5550   46.1990 C   0  0  0  0  0  0  0  0  0  0  0  0
   56.2360   26.6850   46.0270 C   0  0  0  0  0  0  0  0  0  0  0  0
   57.6949   30.7537   43.2535 H   0  0  0  0  0  0  0  0  0  0  0  0
   56.2890   31.8592   43.5590 H   0  0  0  0  0  0  0  0  0  0  0  0
   57.0020   30.8010   45.9890 H   0  0  0  0  0  0  0  0  0  0  0  0
   57.1706   33.3802   44.6069 H   0  0  0  0  0  0  0  0  0  0  0  0
   56.2428   32.9086   46.0724 H   0  0  0  0  0  0  0  0  0  0  0  0
   58.0370   32.1045   48.2162 H   0  0  0  0  0  0  0  0  0  0  0  0
   59.9916   33.4345   49.3189 H   0  0  0  0  0  0  0  0  0  0  0  0
   60.9845   35.2982   47.7412 H   0  0  0  0  0  0  0  0  0  0  0  0
   58.5292   28.7661   44.5804 H   0  0  0  0  0  0  0  0  0  0  0  0
   59.9665   26.7581   44.9041 H   0  0  0  0  0  0  0  0  0  0  0  0
   58.6324   23.4454   44.2486 H   0  0  0  0  0  0  0  0  0  0  0  0
   56.6132   24.6463   46.6485 H   0  0  0  0  0  0  0  0  0  0  0  0
   55.1795   26.6571   46.3319 H   0  0  0  0  0  0  0  0  0  0  0  0
  1  2  2  0
  2  3  1  0
  3  4  1  0
  4  5  1  0
  5  6  1  0
  6  7  2  0
  7  8  1  0
  8  9  2  0
  9 10  1  0
  2 11  1  0
 11 12  1  0
 12 13  2  0
 13 14  1  0
 14 15  2  0
 15 16  1  0
 16 17  1  0
 17 18  1  0
 17 19  1  0
 15 20  1  0
 20 21  2  0
 10  6  1  0
 21 12  1  0
  3 22  1  0
  3 23  1  0
  4 24  1  0
  5 25  1  0
  5 26  1  0
  7 27  1  0
  8 28  1  0
  9 29  1  0
 13 30  1  0
 14 31  1  0
 17 32  1  0
 20 33  1  0
 21 34  1  0
M  CHG  1  11  -1
M  END
>  <UniqueID>  (29) 
29

>  <SMILES>  (29) 
O=C(CNCc1cccs1)[N-]c1ccc(OC(F)F)cc1

>  <Energy>  (29) 
60.55633467278987

>  <Genealogy>  (29) 
O=C(CNCc1cccs1)[N-]c1ccc(OC(F)F)cc1 (protonated)
O=C(CNCc1cccs1)[N-]c1ccc(OC(F)F)cc1 (3D coordinates assigned)
O=C(CNCc1cccs1)[N-]c1ccc(OC(F)F)cc1 (optimized conformer: 60.55633467278987 kcal/mol)

>  <smiles>  (29) 
O=C(CNCc1cccs1)Nc1ccc(OC(F)F)cc1

>  <score_type>  (29) 
oracle

>  <origin>  (29) 
adg

>  <m_score__min__energy>  (29) 
-7.7199999999999998

>  <m_primary>  (29) 
energy

$$$$
29:0
     RDKit          3D

 40 41  0  0  0  0  0  0  0  0999 V2000
   63.3920   34.0530   46.3080 C   0  0  0  0  0  0  0  0  0  0  0  0
   63.7370   33.3320   47.5650 C   0  0  0  0  0  0  0  0  0  0  0  0
   63.0470   32.1060   47.8010 N   0  0  0  0  0  0  0  0  0  0  0  0
   63.0860   31.5820   49.1120 C   0  0  0  0  0  0  0  0  0  0  0  0
   64.1750   32.1140   49.9940 C   0  0  0  0  0  0  0  0  0  0  0  0
   61.8110   32.1490   47.1240 C   0  0  0  0  0  0  0  0  0  0  0  0
   60.7960   33.1530   47.6350 C   0  0  0  0  0  0  0  0  0  0  0  0
   59.4880   32.5690   47.4750 N   0  0  0  0  0  0  0  0  0  0  0  0
   58.8780   32.2100   46.2570 C   0  0  0  0  0  0  0  0  0  0  0  0
   58.6080   33.0660   45.2180 C   0  0  0  0  0  0  0  0  0  0  0  0
   59.0780   34.9000   45.3500 Br  0  0  0  0  0  0  0  0  0  0  0  0
   57.9940   32.6590   44.0430 C   0  0  0  0  0  0  0  0  0  0  0  0
   57.6320   31.3330   43.9020 C   0  0  0  0  0  0  0  0  0  0  0  0
   57.0170   30.8510   42.7660 C   0  0  0  0  0  0  0  0  0  0  0  0
   56.7810   31.6640   41.8250 O   0  0  0  0  0  0  0  0  0  0  0  0
   56.6900   29.5470   42.6960 N   0  0  0  0  0  0  0  0  0  0  0  0
   56.9330   28.6950   43.6730 N   0  0  0  0  0  0  0  0  0  0  0  0
   57.5340   29.0980   44.8150 C   0  0  0  0  0  0  0  0  0  0  0  0
   57.7610   28.2690   45.7450 O   0  0  0  0  0  0  0  0  0  0  0  0
   57.8830   30.4350   44.9190 C   0  0  0  0  0  0  0  0  0  0  0  0
   58.4950   30.8750   46.0720 C   0  0  0  0  0  0  0  0  0  0  0  0
   58.8170   29.5920   47.4470 Br  0  0  0  0  0  0  0  0  0  0  0  0
   62.9293   35.0199   46.5551 H   0  0  0  0  0  0  0  0  0  0  0  0
   64.3061   34.2234   45.7203 H   0  0  0  0  0  0  0  0  0  0  0  0
   62.6858   33.4481   45.7203 H   0  0  0  0  0  0  0  0  0  0  0  0
   64.8142   33.1106   47.5393 H   0  0  0  0  0  0  0  0  0  0  0  0
   63.4301   34.0027   48.3811 H   0  0  0  0  0  0  0  0  0  0  0  0
   62.1224   31.8048   49.5935 H   0  0  0  0  0  0  0  0  0  0  0  0
   63.2910   30.5072   48.9987 H   0  0  0  0  0  0  0  0  0  0  0  0
   63.8931   31.9763   51.0483 H   0  0  0  0  0  0  0  0  0  0  0  0
   65.1098   31.5711   49.7905 H   0  0  0  0  0  0  0  0  0  0  0  0
   64.3213   33.1851   49.7905 H   0  0  0  0  0  0  0  0  0  0  0  0
   62.0152   32.3869   46.0696 H   0  0  0  0  0  0  0  0  0  0  0  0
   61.3537   31.1622   47.2885 H   0  0  0  0  0  0  0  0  0  0  0  0
   60.9834   33.3685   48.6973 H   0  0  0  0  0  0  0  0  0  0  0  0
   60.8694   34.0966   47.0744 H   0  0  0  0  0  0  0  0  0  0  0  0
   58.9360   32.3920   48.3520 H   0  0  0  0  0  0  0  0  0  0  0  0
   57.7983   33.3804   43.2360 H   0  0  0  0  0  0  0  0  0  0  0  0
   56.2220   29.1880   41.8250 H   0  0  0  0  0  0  0  0  0  0  0  0
   56.6440   27.6770   43.5440 H   0  0  0  0  0  0  0  0  0  0  0  0
  1  2  1  0
  2  3  1  0
  3  4  1  0
  4  5  1  0
  3  6  1  0
  6  7  1  0
  7  8  1  0
  8  9  1  0
  9 10  2  0
 10 11  1  0
 10 12  1  0
 12 13  2  0
 13 14  1  0
 14 15  2  0
 14 16  1  0
 16 17  1  0
 17 18  1  0
 18 19  2  0
 18 20  1  0
 20 21  2  0
 21 22  1  0
 21  9  1  0
 20 13  1  0
  1 23  1  0
  1 24  1  0
  1 25  1  0
  2 26  1  0
  2 27  1  0
  4 28  1  0
  4 29  1  0
  5 30  1  0
  5 31  1  0
  5 32  1  0
  6 33  1  0
  6 34  1  0
  7 35  1  0
  7 36  1  0
  8 37  1  0
 12 38  1  0
 16 39  1  0
 17 40  1  0
M  END
>  <smiles>  (30) 
CCN(CC)CCNc1c(Br)cc2c(=O)[nH][nH]c(=O)c2c1Br

>  <score_type>  (30) 
oracle

>  <origin>  (30) 
adg

>  <m_score__min__energy>  (30) 
-7.2599999999999998

>  <m_primary>  (30) 
energy

$$$$
30:0
     RDKit          3D

 49 52  0  0  0  0  0  0  0  0999 V2000
   63.7390   33.4360   46.7390 C   0  0  0  0  0  0  0  0  0  0  0  0
   63.7000   32.0530   47.3700 C   0  0  0  0  0  0  0  0  0  0  0  0
   62.4680   31.8810   48.0660 O   0  0  0  0  0  0  0  0  0  0  0  0
   61.1980   32.0680   47.4970 C   0  0  0  0  0  0  0  0  0  0  0  0
   60.5200   31.0350   46.8290 C   0  0  0  0  0  0  0  0  0  0  0  0
   59.2210   31.2280   46.3250 C   0  0  0  0  0  0  0  0  0  0  0  0
   58.6710   32.5280   46.3300 C   0  0  0  0  0  0  0  0  0  0  0  0
   59.3410   33.5560   47.0240 C   0  0  0  0  0  0  0  0  0  0  0  0
   60.6020   33.3290   47.6080 C   0  0  0  0  0  0  0  0  0  0  0  0
   61.3000   34.3370   48.2930 O   0  0  0  0  0  0  0  0  0  0  0  0
   61.8100   34.2130   49.6180 C   0  0  0  0  0  0  0  0  0  0  0  0
   57.3560   32.7550   45.5900 C   0  0  1  0  0  0  0  0  0  0  0  0
   57.0500   34.2300   45.2770 C   0  0  0  0  0  0  0  0  0  0  0  0
   57.3690   31.9430   44.2760 C   0  0  0  0  0  0  0  0  0  0  0  0
   57.6560   30.4770   44.5400 C   0  0  0  0  0  0  0  0  0  0  0  0
   57.1610   29.4620   43.6890 C   0  0  0  0  0  0  0  0  0  0  0  0
   56.3730   29.7950   42.4470 C   0  0  0  0  0  0  0  0  0  0  0  0
   57.3760   28.1530   44.0030 N   0  0  0  0  0  0  0  0  0  0  0  0
   58.0220   27.7790   45.1420 C   0  0  0  0  0  0  0  0  0  0  0  0
   58.1300   26.4170   45.4680 C   0  0  0  0  0  0  0  0  0  0  0  0
   58.7190   26.0220   46.6690 C   0  0  0  0  0  0  0  0  0  0  0  0
   59.1810   26.9820   47.5660 C   0  0  0  0  0  0  0  0  0  0  0  0
   59.0880   28.3400   47.2540 C   0  0  0  0  0  0  0  0  0  0  0  0
   58.5610   28.7590   46.0120 C   0  0  0  0  0  0  0  0  0  0  0  0
   58.4820   30.1250   45.6300 C   0  0  0  0  0  0  0  0  0  0  0  0
   63.7605   34.1996   47.5304 H   0  0  0  0  0  0  0  0  0  0  0  0
   64.6401   33.5291   46.1151 H   0  0  0  0  0  0  0  0  0  0  0  0
   62.8445   33.5797   46.1151 H   0  0  0  0  0  0  0  0  0  0  0  0
   63.7862   31.2889   46.5834 H   0  0  0  0  0  0  0  0  0  0  0  0
   64.5369   31.9494   48.0763 H   0  0  0  0  0  0  0  0  0  0  0  0
   61.0124   30.0601   46.6980 H   0  0  0  0  0  0  0  0  0  0  0  0
   58.8729   34.5477   47.1104 H   0  0  0  0  0  0  0  0  0  0  0  0
   61.0043   34.4089   50.3408 H   0  0  0  0  0  0  0  0  0  0  0  0
   62.1975   33.1945   49.7679 H   0  0  0  0  0  0  0  0  0  0  0  0
   62.6219   34.9399   49.7679 H   0  0  0  0  0  0  0  0  0  0  0  0
   56.5575   32.4169   46.2669 H   0  0  0  0  0  0  0  0  0  0  0  0
   56.9342   34.7881   46.2178 H   0  0  0  0  0  0  0  0  0  0  0  0
   57.8779   34.6607   44.6947 H   0  0  0  0  0  0  0  0  0  0  0  0
   56.1191   34.2958   44.6947 H   0  0  0  0  0  0  0  0  0  0  0  0
   56.3874   32.0343   43.7881 H   0  0  0  0  0  0  0  0  0  0  0  0
   58.1629   32.3422   43.6277 H   0  0  0  0  0  0  0  0  0  0  0  0
   55.3947   30.2084   42.7333 H   0  0  0  0  0  0  0  0  0  0  0  0
   56.9244   30.5370   41.8509 H   0  0  0  0  0  0  0  0  0  0  0  0
   56.2252   28.8824   41.8509 H   0  0  0  0  0  0  0  0  0  0  0  0
   56.9920   27.4110   43.3730 H   0  0  0  0  0  0  0  0  0  0  0  0
   57.7474   25.6566   44.7713 H   0  0  0  0  0  0  0  0  0  0  0  0
   58.8186   24.9528   46.9076 H   0  0  0  0  0  0  0  0  0  0  0  0
   59.6211   26.6692   48.5244 H   0  0  0  0  0  0  0  0  0  0  0  0
   59.4284   29.0907   47.9824 H   0  0  0  0  0  0  0  0  0  0  0  0
  1  2  1  0
  2  3  1  0
  3  4  1  0
  4  5  2  0
  5  6  1  0
  6  7  2  0
  7  8  1  0
  8  9  2  0
  9 10  1  0
 10 11  1  0
  7 12  1  0
 12 13  1  0
 12 14  1  0
 14 15  1  0
 15 16  2  0
 16 17  1  0
 16 18  1  0
 18 19  2  0
 19 20  1  0
 20 21  2  0
 21 22  1  0
 22 23  2  0
 23 24  1  0
 24 25  2  0
  9  4  1  0
 25 15  1  0
 25  6  1  0
 24 19  1  0
  1 26  1  0
  1 27  1  0
  1 28  1  0
  2 29  1  0
  2 30  1  0
  5 31  1  0
  8 32  1  0
 11 33  1  0
 11 34  1  0
 11 35  1  0
 12 36  1  1
 13 37  1  0
 13 38  1  0
 13 39  1  0
 14 40  1  0
 14 41  1  0
 17 42  1  0
 17 43  1  0
 17 44  1  0
 18 45  1  0
 20 46  1  0
 21 47  1  0
 22 48  1  0
 23 49  1  0
M  CHG  1  18   1
M  END
>  <UniqueID>  (31) 
30

>  <SMILES>  (31) 
CCOc1cc2c(cc1OC)[C@@H](C)Cc1c(C)[nH+]c3ccccc3c1-2

>  <Energy>  (31) 
68.73010778896352

>  <Genealogy>  (31) 
CCOc1cc2c(cc1OC)C(C)Cc1c(C)[nH+]c3ccccc3c1-2 (protonated)
CCOc1cc2c(cc1OC)[C@@H](C)Cc1c(C)[nH+]c3ccccc3c1-2 (chirality)
CCOc1cc2c(cc1OC)[C@@H](C)Cc1c(C)[nH+]c3ccccc3c1-2 (3D coordinates assigned)
CCOc1cc2c(cc1OC)[C@@H](C)Cc1c(C)[nH+]c3ccccc3c1-2 (nonaromatic ring conformer: 68.73010778896352 kcal/mol)

>  <smiles>  (31) 
CCOc1cc2c(cc1OC)C(C)Cc1c(C)nc3ccccc3c1-2

>  <score_type>  (31) 
oracle

>  <origin>  (31) 
adg

>  <m_score__min__energy>  (31) 
-7.2800000000000002

>  <m_primary>  (31) 
energy

$$$$
31:0
     RDKit          3D

 86 89  0  0  0  0  0  0  0  0999 V2000
   56.3130   24.0880   44.0570 C   0  0  0  0  0  0  0  0  0  0  0  0
   55.0020   24.2260   44.8240 C   0  0  0  0  0  0  0  0  0  0  0  0
   55.2420   24.8760   46.1360 N   0  0  0  0  0  0  0  0  0  0  0  0
   55.7200   23.8920   47.1360 C   0  0  0  0  0  0  0  0  0  0  0  0
   54.6280   22.8710   47.4530 C   0  0  0  0  0  0  0  0  0  0  0  0
   56.1860   26.0100   46.0030 C   0  0  0  0  0  0  0  0  0  0  0  0
   57.3270   25.8560   47.0200 C   0  0  0  0  0  0  0  0  0  0  0  0
   58.3360   26.8420   46.8680 O   0  0  0  0  0  0  0  0  0  0  0  0
   59.6160   26.3890   47.2840 C   0  0  0  0  0  0  0  0  0  0  0  0
   60.7690   26.8690   46.3830 C   0  0  0  0  0  0  0  0  0  0  0  0
   60.6000   28.3310   45.9260 C   0  0  0  0  0  0  0  0  0  0  0  0
   59.6760   29.0860   46.7970 N   0  0  0  0  0  0  0  0  0  0  0  0
   59.2590   30.3510   46.1990 C   0  0  0  0  0  0  0  0  0  0  0  0
   58.3140   30.3580   45.1340 C   0  0  0  0  0  0  0  0  0  0  0  0
   57.7660   29.1590   44.6080 C   0  0  0  0  0  0  0  0  0  0  0  0
   56.9020   29.1770   43.5160 C   0  0  0  0  0  0  0  0  0  0  0  0
   56.5700   30.3780   42.9110 C   0  0  0  0  0  0  0  0  0  0  0  0
   57.0630   31.5740   43.4230 C   0  0  0  0  0  0  0  0  0  0  0  0
   57.8970   31.5970   44.5710 C   0  0  0  0  0  0  0  0  0  0  0  0
   58.2990   32.7870   45.1350 N   0  0  0  0  0  0  0  0  0  0  0  0
   57.5910   34.0420   44.7850 C   0  0  0  0  0  0  0  0  0  0  0  0
   59.3220   32.8080   46.0600 C   0  0  0  0  0  0  0  0  0  0  0  0
   59.9260   34.0310   46.4500 C   0  0  0  0  0  0  0  0  0  0  0  0
   60.8880   34.0760   47.4510 C   0  0  0  0  0  0  0  0  0  0  0  0
   61.3030   32.9150   48.0850 C   0  0  0  0  0  0  0  0  0  0  0  0
   62.2450   33.0350   49.1240 O   0  0  0  0  0  0  0  0  0  0  0  0
   62.9030   34.2380   49.5260 C   0  0  0  0  0  0  0  0  0  0  0  0
   63.3360   34.2140   51.0150 C   0  0  0  0  0  0  0  0  0  0  0  0
   64.6460   33.5400   51.3200 N   0  0  0  0  0  0  0  0  0  0  0  0
   64.4020   32.3810   52.2270 C   0  0  0  0  0  0  0  0  0  0  0  0
   65.6010   34.5210   51.9470 C   0  0  0  0  0  0  0  0  0  0  0  0
   67.0660   34.4250   51.4670 C   0  0  0  0  0  0  0  0  0  0  0  0
   67.4770   32.9880   51.1770 C   0  0  0  0  0  0  0  0  0  0  0  0
   66.5680   32.3560   50.1180 C   0  0  0  0  0  0  0  0  0  0  0  0
   65.1790   33.0310   50.0180 C   0  0  0  0  0  0  0  0  0  0  0  0
   60.7780   31.6840   47.6670 C   0  0  0  0  0  0  0  0  0  0  0  0
   59.7940   31.5980   46.6440 C   0  0  0  0  0  0  0  0  0  0  0  0
   57.1469   24.0002   44.7690 H   0  0  0  0  0  0  0  0  0  0  0  0
   56.2748   23.1889   43.4244 H   0  0  0  0  0  0  0  0  0  0  0  0
   56.4629   24.9753   43.4244 H   0  0  0  0  0  0  0  0  0  0  0  0
   54.3009   24.8384   44.2380 H   0  0  0  0  0  0  0  0  0  0  0  0
   54.5771   23.2253   44.9916 H   0  0  0  0  0  0  0  0  0  0  0  0
   56.5995   23.3673   46.7346 H   0  0  0  0  0  0  0  0  0  0  0  0
   55.9838   24.4266   48.0605 H   0  0  0  0  0  0  0  0  0  0  0  0
   54.5231   22.7730   48.5436 H   0  0  0  0  0  0  0  0  0  0  0  0
   53.6740   23.2086   47.0218 H   0  0  0  0  0  0  0  0  0  0  0  0
   54.9008   21.8965   47.0218 H   0  0  0  0  0  0  0  0  0  0  0  0
   56.6026   26.0214   44.9850 H   0  0  0  0  0  0  0  0  0  0  0  0
   55.6523   26.9526   46.1944 H   0  0  0  0  0  0  0  0  0  0  0  0
   56.9074   25.9359   48.0337 H   0  0  0  0  0  0  0  0  0  0  0  0
   57.7940   24.8750   46.8477 H   0  0  0  0  0  0  0  0  0  0  0  0
   59.7984   26.7552   48.3051 H   0  0  0  0  0  0  0  0  0  0  0  0
   59.6010   25.2906   47.2267 H   0  0  0  0  0  0  0  0  0  0  0  0
   61.7120   26.7824   46.9427 H   0  0  0  0  0  0  0  0  0  0  0  0
   60.7702   26.2381   45.4819 H   0  0  0  0  0  0  0  0  0  0  0  0
   61.5837   28.8230   45.9426 H   0  0  0  0  0  0  0  0  0  0  0  0
   60.1741   28.3201   44.9118 H   0  0  0  0  0  0  0  0  0  0  0  0
   58.8840   28.4770   47.0850 H   0  0  0  0  0  0  0  0  0  0  0  0
   60.1370   29.2610   47.7170 H   0  0  0  0  0  0  0  0  0  0  0  0
   58.0289   28.1969   45.0719 H   0  0  0  0  0  0  0  0  0  0  0  0
   56.4822   28.2352   43.1330 H   0  0  0  0  0  0  0  0  0  0  0  0
   55.9168   30.3861   42.0260 H   0  0  0  0  0  0  0  0  0  0  0  0
   56.8011   32.5208   42.9280 H   0  0  0  0  0  0  0  0  0  0  0  0
   57.2957   34.5655   45.7062 H   0  0  0  0  0  0  0  0  0  0  0  0
   58.2583   34.6870   44.1946 H   0  0  0  0  0  0  0  0  0  0  0  0
   56.6938   33.8044   44.1946 H   0  0  0  0  0  0  0  0  0  0  0  0
   59.6262   34.9633   45.9491 H   0  0  0  0  0  0  0  0  0  0  0  0
   61.3248   35.0422   47.7435 H   0  0  0  0  0  0  0  0  0  0  0  0
   63.7980   34.3753   48.9013 H   0  0  0  0  0  0  0  0  0  0  0  0
   62.1889   35.0653   49.4007 H   0  0  0  0  0  0  0  0  0  0  0  0
   63.4077   35.2562   51.3595 H   0  0  0  0  0  0  0  0  0  0  0  0
   62.5719   33.6148   51.5318 H   0  0  0  0  0  0  0  0  0  0  0  0
   64.4719   32.7132   53.2733 H   0  0  0  0  0  0  0  0  0  0  0  0
   63.3982   31.9727   52.0382 H   0  0  0  0  0  0  0  0  0  0  0  0
   65.1560   31.6026   52.0382 H   0  0  0  0  0  0  0  0  0  0  0  0
   65.2380   35.5355   51.7257 H   0  0  0  0  0  0  0  0  0  0  0  0
   65.6192   34.2798   53.0201 H   0  0  0  0  0  0  0  0  0  0  0  0
   67.1785   35.0191   50.5481 H   0  0  0  0  0  0  0  0  0  0  0  0
   67.7129   34.8085   52.2698 H   0  0  0  0  0  0  0  0  0  0  0  0
   68.5145   32.9781   50.8117 H   0  0  0  0  0  0  0  0  0  0  0  0
   67.3878   32.4055   52.1058 H   0  0  0  0  0  0  0  0  0  0  0  0
   67.0651   32.4348   49.1399 H   0  0  0  0  0  0  0  0  0  0  0  0
   66.4002   31.3106   50.4163 H   0  0  0  0  0  0  0  0  0  0  0  0
   65.2578   33.8798   49.3227 H   0  0  0  0  0  0  0  0  0  0  0  0
   64.4775   32.2578   49.6715 H   0  0  0  0  0  0  0  0  0  0  0  0
   61.1370   30.7597   48.1433 H   0  0  0  0  0  0  0  0  0  0  0  0
  1  2  1  0
  2  3  1  0
  3  4  1  0
  4  5  1  0
  3  6  1  0
  6  7  1  0
  7  8  1  0
  8  9  1  0
  9 10  1  0
 10 11  1  0
 11 12  1  0
 12 13  1  0
 13 14  2  0
 14 15  1  0
 15 16  2  0
 16 17  1  0
 17 18  2  0
 18 19  1  0
 19 20  2  0
 20 21  1  0
 20 22  1  0
 22 23  2  0
 23 24  1  0
 24 25  2  0
 25 26  1  0
 26 27  1  0
 27 28  1  0
 28 29  1  0
 29 30  1  0
 29 31  1  0
 31 32  1  0
 32 33  1  0
 33 34  1  0
 34 35  1  0
 25 36  1  0
 36 37  2  0
 37 13  1  0
 19 14  1  0
 37 22  1  0
 35 29  1  0
  1 38  1  0
  1 39  1  0
  1 40  1  0
  2 41  1  0
  2 42  1  0
  4 43  1  0
  4 44  1  0
  5 45  1  0
  5 46  1  0
  5 47  1  0
  6 48  1  0
  6 49  1  0
  7 50  1  0
  7 51  1  0
  9 52  1  0
  9 53  1  0
 10 54  1  0
 10 55  1  0
 11 56  1  0
 11 57  1  0
 12 58  1  0
 12 59  1  0
 15 60  1  0
 16 61  1  0
 17 62  1  0
 18 63  1  0
 21 64  1  0
 21 65  1  0
 21 66  1  0
 23 67  1  0
 24 68  1  0
 27 69  1  0
 27 70  1  0
 28 71  1  0
 28 72  1  0
 30 73  1  0
 30 74  1  0
 30 75  1  0
 31 76  1  0
 31 77  1  0
 32 78  1  0
 32 79  1  0
 33 80  1  0
 33 81  1  0
 34 82  1  0
 34 83  1  0
 35 84  1  0
 35 85  1  0
 36 86  1  0
M  CHG  3  12   1  20   1  29   1
M  END
>  <UniqueID>  (32) 
31

>  <SMILES>  (32) 
CCN(CC)CCOCCC[NH2+]c1c2ccccc2[n+](C)c2ccc(OCC[N+]3(C)CCCCC3)cc12

>  <Energy>  (32) 
135.60360231239616

>  <Genealogy>  (32) 
CCN(CC)CCOCCC[NH2+]c1c2ccccc2[n+](C)c2ccc(OCC[N+]3(C)CCCCC3)cc12 (protonated)
CCN(CC)CCOCCC[NH2+]c1c2ccccc2[n+](C)c2ccc(OCC[N+]3(C)CCCCC3)cc12 (3D coordinates assigned)
CCN(CC)CCOCCC[NH2+]c1c2ccccc2[n+](C)c2ccc(OCC[N+]3(C)CCCCC3)cc12 (nonaromatic ring conformer: 135.60360231239616 kcal/mol)

>  <smiles>  (32) 
CCN(CC)CCOCCCNc1c2ccccc2[n+](C)c2ccc(OCC[N+]3(C)CCCCC3)cc12

>  <score_type>  (32) 
oracle

>  <origin>  (32) 
adg

>  <m_score__min__energy>  (32) 
-3.6299999999999999

>  <m_primary>  (32) 
energy

$$$$
32:0
     RDKit          3D

 51 52  0  0  0  0  0  0  0  0999 V2000
   57.4160   25.4320   45.2590 C   0  0  0  0  0  0  0  0  0  0  0  0
   58.0200   26.3250   46.3410 C   0  0  0  0  0  0  0  0  0  0  0  0
   58.6120   27.5370   45.7330 N   0  0  0  0  0  0  0  0  0  0  0  0
   60.0210   27.7160   46.1550 C   0  0  0  0  0  0  0  0  0  0  0  0
   60.4010   26.6540   47.1830 C   0  0  0  0  0  0  0  0  0  0  0  0
   58.4920   27.5130   44.2560 C   0  0  0  0  0  0  0  0  0  0  0  0
   57.4330   28.5110   43.7920 C   0  0  0  0  0  0  0  0  0  0  0  0
   56.4180   28.6020   44.7710 O   0  0  0  0  0  0  0  0  0  0  0  0
   55.5590   29.6930   44.4960 C   0  0  0  0  0  0  0  0  0  0  0  0
   56.3520   30.8440   43.8730 C   0  0  0  0  0  0  0  0  0  0  0  0
   56.6220   31.8550   44.8440 O   0  0  0  0  0  0  0  0  0  0  0  0
   57.8420   32.0360   45.5150 C   0  0  0  0  0  0  0  0  0  0  0  0
   58.4710   30.9080   46.0540 C   0  0  0  0  0  0  0  0  0  0  0  0
   59.6870   31.0270   46.7320 C   0  0  0  0  0  0  0  0  0  0  0  0
   60.2980   32.2820   46.8880 C   0  0  0  0  0  0  0  0  0  0  0  0
   61.5900   32.4100   47.6100 C   0  0  0  0  0  0  0  0  0  0  0  0
   62.5430   33.3640   47.2100 C   0  0  0  0  0  0  0  0  0  0  0  0
   63.7570   33.4840   47.8930 C   0  0  0  0  0  0  0  0  0  0  0  0
   64.0370   32.6510   48.9820 C   0  0  0  0  0  0  0  0  0  0  0  0
   65.2870   32.7750   49.6830 C   0  0  0  0  0  0  0  0  0  0  0  0
   66.2920   32.8750   50.2480 N   0  0  0  0  0  0  0  0  0  0  0  0
   63.0960   31.6970   49.3870 C   0  0  0  0  0  0  0  0  0  0  0  0
   61.8810   31.5770   48.7070 C   0  0  0  0  0  0  0  0  0  0  0  0
   59.6640   33.4170   46.3500 C   0  0  0  0  0  0  0  0  0  0  0  0
   58.4490   33.2970   45.6710 C   0  0  0  0  0  0  0  0  0  0  0  0
   56.8594   24.6091   45.7313 H   0  0  0  0  0  0  0  0  0  0  0  0
   56.7329   26.0251   44.6333 H   0  0  0  0  0  0  0  0  0  0  0  0
   58.2208   25.0187   44.6333 H   0  0  0  0  0  0  0  0  0  0  0  0
   57.2319   26.6217   47.0487 H   0  0  0  0  0  0  0  0  0  0  0  0
   58.8079   25.7668   46.8679 H   0  0  0  0  0  0  0  0  0  0  0  0
   60.6778   27.6240   45.2774 H   0  0  0  0  0  0  0  0  0  0  0  0
   60.1370   28.7119   46.6074 H   0  0  0  0  0  0  0  0  0  0  0  0
   60.2569   27.0566   48.1965 H   0  0  0  0  0  0  0  0  0  0  0  0
   59.7643   25.7674   47.0467 H   0  0  0  0  0  0  0  0  0  0  0  0
   61.4556   26.3725   47.0467 H   0  0  0  0  0  0  0  0  0  0  0  0
   59.4613   27.7790   43.8092 H   0  0  0  0  0  0  0  0  0  0  0  0
   58.1941   26.5029   43.9384 H   0  0  0  0  0  0  0  0  0  0  0  0
   57.8959   29.4986   43.6494 H   0  0  0  0  0  0  0  0  0  0  0  0
   56.9983   28.1719   42.8401 H   0  0  0  0  0  0  0  0  0  0  0  0
   54.7747   29.3707   43.7953 H   0  0  0  0  0  0  0  0  0  0  0  0
   55.1033   30.0377   45.4360 H   0  0  0  0  0  0  0  0  0  0  0  0
   57.3040   30.4561   43.4814 H   0  0  0  0  0  0  0  0  0  0  0  0
   55.7559   31.2847   43.0603 H   0  0  0  0  0  0  0  0  0  0  0  0
   58.0037   29.9184   45.9429 H   0  0  0  0  0  0  0  0  0  0  0  0
   60.1699   30.1301   47.1471 H   0  0  0  0  0  0  0  0  0  0  0  0
   62.3315   34.0207   46.3532 H   0  0  0  0  0  0  0  0  0  0  0  0
   64.4941   34.2353   47.5734 H   0  0  0  0  0  0  0  0  0  0  0  0
   63.3134   31.0404   50.2423 H   0  0  0  0  0  0  0  0  0  0  0  0
   61.1461   30.8256   49.0315 H   0  0  0  0  0  0  0  0  0  0  0  0
   60.1290   34.4072   46.4650 H   0  0  0  0  0  0  0  0  0  0  0  0
   57.9637   34.1926   45.2559 H   0  0  0  0  0  0  0  0  0  0  0  0
  1  2  1  0
  2  3  1  0
  3  4  1  0
  4  5  1  0
  3  6  1  0
  6  7  1  0
  7  8  1  0
  8  9  1  0
  9 10  1  0
 10 11  1  0
 11 12  1  0
 12 13  2  0
 13 14  1  0
 14 15  2  0
 15 16  1  0
 16 17  2  0
 17 18  1  0
 18 19  2  0
 19 20  1  0
 20 21  3  0
 19 22  1  0
 22 23  2  0
 15 24  1  0
 24 25  2  0
 25 12  1  0
 23 16  1  0
  1 26  1  0
  1 27  1  0
  1 28  1  0
  2 29  1  0
  2 30  1  0
  4 31  1  0
  4 32  1  0
  5 33  1  0
  5 34  1  0
  5 35  1  0
  6 36  1  0
  6 37  1  0
  7 38  1  0
  7 39  1  0
  9 40  1  0
  9 41  1  0
 10 42  1  0
 10 43  1  0
 13 44  1  0
 14 45  1  0
 17 46  1  0
 18 47  1  0
 22 48  1  0
 23 49  1  0
 24 50  1  0
 25 51  1  0
M  END
>  <UniqueID>  (33) 
32

>  <SMILES>  (33) 
CCN(CC)CCOCCOc1ccc(-c2ccc(C#N)cc2)cc1

>  <Energy>  (33) 
52.645533390492005

>  <Genealogy>  (33) 
CCN(CC)CCOCCOc1ccc(-c2ccc(C#N)cc2)cc1 (3D coordinates assigned)
CCN(CC)CCOCCOc1ccc(-c2ccc(C#N)cc2)cc1 (optimized conformer: 52.645533390492005 kcal/mol)

>  <smiles>  (33) 
CCN(CC)CCOCCOc1ccc(-c2ccc(C#N)cc2)cc1

>  <score_type>  (33) 
oracle

>  <origin>  (33) 
adg

>  <m_score__min__energy>  (33) 
-6.9100000000000001

>  <m_primary>  (33) 
energy

$$$$
33:0
     RDKit          3D

 51 53  0  0  0  0  0  0  0  0999 V2000
   57.0970   31.2190   43.5420 C   0  0  0  0  0  0  0  0  0  0  0  0
   57.9740   31.2520   44.7350 N   0  0  0  0  0  0  0  0  0  0  0  0
   58.4870   32.4570   45.1780 C   0  0  0  0  0  0  0  0  0  0  0  0
   58.4360   33.6320   44.3840 C   0  0  0  0  0  0  0  0  0  0  0  0
   58.9120   34.8490   44.8690 C   0  0  0  0  0  0  0  0  0  0  0  0
   59.4620   34.9310   46.1430 C   0  0  0  0  0  0  0  0  0  0  0  0
   59.5640   33.7880   46.9310 C   0  0  0  0  0  0  0  0  0  0  0  0
   59.1030   32.5410   46.4570 C   0  0  0  0  0  0  0  0  0  0  0  0
   59.2580   31.3790   47.2280 C   0  0  0  0  0  0  0  0  0  0  0  0
   59.8790   31.4540   48.5190 N   0  0  0  0  0  0  0  0  0  0  0  0
   59.0750   31.6940   49.7170 C   0  0  0  0  0  0  0  0  0  0  0  0
   59.9460   32.2030   50.8640 C   0  0  0  0  0  0  0  0  0  0  0  0
   61.2500   32.4500   50.3830 O   0  0  0  0  0  0  0  0  0  0  0  0
   61.3830   33.8160   50.0460 C   0  0  0  0  0  0  0  0  0  0  0  0
   62.5290   33.9720   49.0350 C   0  0  0  0  0  0  0  0  0  0  0  0
   63.2670   32.7080   48.8050 N   0  0  0  0  0  0  0  0  0  0  0  0
   64.6190   32.8100   49.3810 C   0  0  0  0  0  0  0  0  0  0  0  0
   63.3650   32.3840   47.3690 C   0  0  0  0  0  0  0  0  0  0  0  0
   58.8560   30.1400   46.7050 C   0  0  0  0  0  0  0  0  0  0  0  0
   59.0480   28.9520   47.4410 C   0  0  0  0  0  0  0  0  0  0  0  0
   58.7090   27.7150   46.8960 C   0  0  0  0  0  0  0  0  0  0  0  0
   58.1870   27.6400   45.6100 C   0  0  0  0  0  0  0  0  0  0  0  0
   57.8100   26.0750   44.9110 Cl  0  0  0  0  0  0  0  0  0  0  0  0
   57.9640   28.8070   44.8750 C   0  0  0  0  0  0  0  0  0  0  0  0
   58.2520   30.0840   45.4220 C   0  0  0  0  0  0  0  0  0  0  0  0
   56.0451   31.1794   43.8612 H   0  0  0  0  0  0  0  0  0  0  0  0
   57.2635   32.1240   42.9394 H   0  0  0  0  0  0  0  0  0  0  0  0
   57.3311   30.3290   42.9394 H   0  0  0  0  0  0  0  0  0  0  0  0
   58.0140   33.5816   43.3694 H   0  0  0  0  0  0  0  0  0  0  0  0
   58.8521   35.7495   44.2401 H   0  0  0  0  0  0  0  0  0  0  0  0
   59.8164   35.8985   46.5282 H   0  0  0  0  0  0  0  0  0  0  0  0
   60.0090   33.8574   47.9346 H   0  0  0  0  0  0  0  0  0  0  0  0
   60.8940   31.2150   48.5930 H   0  0  0  0  0  0  0  0  0  0  0  0
   58.3043   32.4450   49.4892 H   0  0  0  0  0  0  0  0  0  0  0  0
   58.6085   30.7461   50.0234 H   0  0  0  0  0  0  0  0  0  0  0  0
   59.5192   33.1343   51.2647 H   0  0  0  0  0  0  0  0  0  0  0  0
   59.9838   31.4473   51.6625 H   0  0  0  0  0  0  0  0  0  0  0  0
   60.4454   34.1788   49.5996 H   0  0  0  0  0  0  0  0  0  0  0  0
   61.6026   34.4024   50.9504 H   0  0  0  0  0  0  0  0  0  0  0  0
   62.1089   34.3131   48.0773 H   0  0  0  0  0  0  0  0  0  0  0  0
   63.2408   34.7005   49.4506 H   0  0  0  0  0  0  0  0  0  0  0  0
   62.7720   31.9240   49.2930 H   0  0  0  0  0  0  0  0  0  0  0  0
   64.5512   32.8049   50.4789 H   0  0  0  0  0  0  0  0  0  0  0  0
   65.2253   31.9550   49.0471 H   0  0  0  0  0  0  0  0  0  0  0  0
   65.0901   33.7462   49.0471 H   0  0  0  0  0  0  0  0  0  0  0  0
   63.6816   31.3373   47.2501 H   0  0  0  0  0  0  0  0  0  0  0  0
   62.3836   32.5265   46.8931 H   0  0  0  0  0  0  0  0  0  0  0  0
   64.1029   33.0466   46.8931 H   0  0  0  0  0  0  0  0  0  0  0  0
   59.4697   29.0025   48.4557 H   0  0  0  0  0  0  0  0  0  0  0  0
   58.8547   26.7970   47.4842 H   0  0  0  0  0  0  0  0  0  0  0  0
   57.5583   28.7345   43.8551 H   0  0  0  0  0  0  0  0  0  0  0  0
  1  2  1  0
  2  3  2  0
  3  4  1  0
  4  5  2  0
  5  6  1  0
  6  7  2  0
  7  8  1  0
  8  9  2  0
  9 10  1  0
 10 11  1  0
 11 12  1  0
 12 13  1  0
 13 14  1  0
 14 15  1  0
 15 16  1  0
 16 17  1  0
 16 18  1  0
  9 19  1  0
 19 20  2  0
 20 21  1  0
 21 22  2  0
 22 23  1  0
 22 24  1  0
 24 25  2  0
 25  2  1  0
  8  3  1  0
 25 19  1  0
  1 26  1  0
  1 27  1  0
  1 28  1  0
  4 29  1  0
  5 30  1  0
  6 31  1  0
  7 32  1  0
 10 33  1  0
 11 34  1  0
 11 35  1  0
 12 36  1  0
 12 37  1  0
 14 38  1  0
 14 39  1  0
 15 40  1  0
 15 41  1  0
 16 42  1  0
 17 43  1  0
 17 44  1  0
 17 45  1  0
 18 46  1  0
 18 47  1  0
 18 48  1  0
 20 49  1  0
 21 50  1  0
 24 51  1  0
M  CHG  2   2   1  16   1
M  END
>  <UniqueID>  (34) 
33

>  <SMILES>  (34) 
C[n+]1c2ccccc2c(NCCOCC[NH+](C)C)c2ccc(Cl)cc21

>  <Energy>  (34) 
76.7738074431788

>  <Genealogy>  (34) 
C[n+]1c2ccccc2c(NCCOCC[NH+](C)C)c2ccc(Cl)cc21 (protonated)
C[n+]1c2ccccc2c(NCCOCC[NH+](C)C)c2ccc(Cl)cc21 (3D coordinates assigned)
C[n+]1c2ccccc2c(NCCOCC[NH+](C)C)c2ccc(Cl)cc21 (optimized conformer: 76.7738074431788 kcal/mol)

>  <smiles>  (34) 
CN(C)CCOCCNc1c2ccccc2[n+](C)c2cc(Cl)ccc12

>  <score_type>  (34) 
oracle

>  <origin>  (34) 
adg

>  <m_score__min__energy>  (34) 
-4.21

>  <m_primary>  (34) 
energy

$$$$
34:0
     RDKit          3D

 47 48  0  0  0  0  0  0  0  0999 V2000
   56.6210   29.7120   42.8700 C   0  0  0  0  0  0  0  0  0  0  0  0
   55.9590   30.3330   44.0900 C   0  0  0  0  0  0  0  0  0  0  0  0
   56.9340   30.5290   45.1100 O   0  0  0  0  0  0  0  0  0  0  0  0
   57.5610   31.7550   45.3910 C   0  0  0  0  0  0  0  0  0  0  0  0
   57.3690   32.8910   44.5790 C   0  0  0  0  0  0  0  0  0  0  0  0
   58.0070   34.0940   44.8840 C   0  0  0  0  0  0  0  0  0  0  0  0
   58.8440   34.1820   45.9970 C   0  0  0  0  0  0  0  0  0  0  0  0
   59.6440   35.6970   46.3760 Cl  0  0  0  0  0  0  0  0  0  0  0  0
   59.0440   33.0640   46.8110 C   0  0  0  0  0  0  0  0  0  0  0  0
   58.4050   31.8470   46.5180 C   0  0  0  0  0  0  0  0  0  0  0  0
   58.6220   30.6500   47.4220 C   0  0  0  0  0  0  0  0  0  0  0  0
   58.9660   29.4330   46.6620 N   0  0  0  0  0  0  0  0  0  0  0  0
   60.4120   29.3070   46.3820 C   0  0  0  0  0  0  0  0  0  0  0  0
   60.7080   28.9100   44.9210 C   0  0  0  0  0  0  0  0  0  0  0  0
   59.6250   27.9680   44.3450 C   0  0  0  0  0  0  0  0  0  0  0  0
   58.7490   27.3490   45.3650 N   0  0  0  0  0  0  0  0  0  0  0  0
   59.3500   26.1990   46.0600 C   0  0  0  0  0  0  0  0  0  0  0  0
   58.4490   25.7810   47.2430 C   0  0  0  0  0  0  0  0  0  0  0  0
   57.1570   26.3660   47.1830 O   0  0  0  0  0  0  0  0  0  0  0  0
   56.6100   26.2030   45.8900 C   0  0  0  0  0  0  0  0  0  0  0  0
   57.3970   27.0360   44.8600 C   0  0  0  0  0  0  0  0  0  0  0  0
   57.3875   28.9930   43.1949 H   0  0  0  0  0  0  0  0  0  0  0  0
   55.8627   29.1918   42.2663 H   0  0  0  0  0  0  0  0  0  0  0  0
   57.0917   30.5019   42.2663 H   0  0  0  0  0  0  0  0  0  0  0  0
   55.5168   31.3017   43.8142 H   0  0  0  0  0  0  0  0  0  0  0  0
   55.1697   29.6624   44.4606 H   0  0  0  0  0  0  0  0  0  0  0  0
   56.7119   32.8288   43.6990 H   0  0  0  0  0  0  0  0  0  0  0  0
   57.8496   34.9755   44.2451 H   0  0  0  0  0  0  0  0  0  0  0  0
   59.7058   33.1369   47.6867 H   0  0  0  0  0  0  0  0  0  0  0  0
   59.4425   30.8764   48.1188 H   0  0  0  0  0  0  0  0  0  0  0  0
   57.6818   30.4580   47.9598 H   0  0  0  0  0  0  0  0  0  0  0  0
   58.4250   29.4370   45.7670 H   0  0  0  0  0  0  0  0  0  0  0  0
   58.6540   28.5880   47.1970 H   0  0  0  0  0  0  0  0  0  0  0  0
   60.8949   30.2737   46.5878 H   0  0  0  0  0  0  0  0  0  0  0  0
   60.8049   28.5076   47.0274 H   0  0  0  0  0  0  0  0  0  0  0  0
   60.7488   29.8216   44.3067 H   0  0  0  0  0  0  0  0  0  0  0  0
   61.6685   28.3742   44.9028 H   0  0  0  0  0  0  0  0  0  0  0  0
   58.9941   28.5492   43.6564 H   0  0  0  0  0  0  0  0  0  0  0  0
   60.1574   27.1446   43.8464 H   0  0  0  0  0  0  0  0  0  0  0  0
   59.4475   25.3573   45.3586 H   0  0  0  0  0  0  0  0  0  0  0  0
   60.3440   26.4792   46.4386 H   0  0  0  0  0  0  0  0  0  0  0  0
   58.3402   24.6864   47.2325 H   0  0  0  0  0  0  0  0  0  0  0  0
   58.9302   26.1340   48.1671 H   0  0  0  0  0  0  0  0  0  0  0  0
   56.6578   25.1407   45.6084 H   0  0  0  0  0  0  0  0  0  0  0  0
   55.5652   26.5468   45.9007 H   0  0  0  0  0  0  0  0  0  0  0  0
   57.4845   26.4643   43.9243 H   0  0  0  0  0  0  0  0  0  0  0  0
   56.8589   27.9788   44.6824 H   0  0  0  0  0  0  0  0  0  0  0  0
  1  2  1  0
  2  3  1  0
  3  4  1  0
  4  5  2  0
  5  6  1  0
  6  7  2  0
  7  8  1  0
  7  9  1  0
  9 10  2  0
 10 11  1  0
 11 12  1  0
 12 13  1  0
 13 14  1  0
 14 15  1  0
 15 16  1  0
 16 17  1  0
 17 18  1  0
 18 19  1  0
 19 20  1  0
 20 21  1  0
 10  4  1  0
 21 16  1  0
  1 22  1  0
  1 23  1  0
  1 24  1  0
  2 25  1  0
  2 26  1  0
  5 27  1  0
  6 28  1  0
  9 29  1  0
 11 30  1  0
 11 31  1  0
 12 32  1  0
 12 33  1  0
 13 34  1  0
 13 35  1  0
 14 36  1  0
 14 37  1  0
 15 38  1  0
 15 39  1  0
 17 40  1  0
 17 41  1  0
 18 42  1  0
 18 43  1  0
 20 44  1  0
 20 45  1  0
 21 46  1  0
 21 47  1  0
M  CHG  1  12   1
M  END
>  <UniqueID>  (35) 
34

>  <SMILES>  (35) 
CCOc1ccc(Cl)cc1C[NH2+]CCCN1CCOCC1

>  <Energy>  (35) 
54.51929424101725

>  <Genealogy>  (35) 
CCOc1ccc(Cl)cc1C[NH2+]CCCN1CCOCC1 (protonated)
CCOc1ccc(Cl)cc1C[NH2+]CCCN1CCOCC1 (3D coordinates assigned)
CCOc1ccc(Cl)cc1C[NH2+]CCCN1CCOCC1 (nonaromatic ring conformer: 54.51929424101725 kcal/mol)

>  <smiles>  (35) 
CCOc1ccc(Cl)cc1CNCCCN1CCOCC1

>  <score_type>  (35) 
oracle

>  <origin>  (35) 
adg

>  <m_score__min__energy>  (35) 
-4.6799999999999997

>  <m_primary>  (35) 
energy

$$$$
35:0
     RDKit          3D

 43 45  0  0  0  0  0  0  0  0999 V2000
   59.0010   31.3800   48.9060 C   0  0  0  0  0  0  0  0  0  0  0  0
   58.5900   32.7180   48.6490 O   0  0  0  0  0  0  0  0  0  0  0  0
   58.5730   33.3180   47.3800 C   0  0  0  0  0  0  0  0  0  0  0  0
   57.3850   33.4270   46.6290 C   0  0  0  0  0  0  0  0  0  0  0  0
   57.3880   34.0570   45.3840 C   0  0  0  0  0  0  0  0  0  0  0  0
   58.5720   34.5880   44.8720 C   0  0  0  0  0  0  0  0  0  0  0  0
   59.7580   34.4830   45.6010 C   0  0  0  0  0  0  0  0  0  0  0  0
   59.7740   33.8440   46.8520 C   0  0  0  0  0  0  0  0  0  0  0  0
   61.0130   33.7350   47.5830 N   0  0  0  0  0  0  0  0  0  0  0  0
   61.1230   34.2490   48.9530 C   0  0  0  0  0  0  0  0  0  0  0  0
   62.0810   33.3620   49.7560 C   0  0  0  0  0  0  0  0  0  0  0  0
   63.4440   33.2950   49.1540 N   0  0  0  0  0  0  0  0  0  0  0  0
   64.1310   32.0360   49.5320 C   0  0  0  0  0  0  0  0  0  0  0  0
   65.4890   32.2940   50.1240 C   0  0  0  0  0  0  0  0  0  0  0  0
   66.0180   33.4670   50.1650 N   0  0  0  0  0  0  0  0  0  0  0  0
   67.3060   33.3990   50.8480 C   0  0  0  0  0  0  0  0  0  0  0  0
   67.4630   31.9280   51.2620 C   0  0  0  0  0  0  0  0  0  0  0  0
   66.2640   31.2950   50.7530 N   0  0  0  0  0  0  0  0  0  0  0  0
   63.4560   33.4710   47.6710 C   0  0  0  0  0  0  0  0  0  0  0  0
   62.1530   33.0160   47.0020 C   0  0  0  0  0  0  0  0  0  0  0  0
   59.0519   31.2143   49.9923 H   0  0  0  0  0  0  0  0  0  0  0  0
   58.2758   30.6820   48.4622 H   0  0  0  0  0  0  0  0  0  0  0  0
   59.9929   31.2095   48.4622 H   0  0  0  0  0  0  0  0  0  0  0  0
   56.4477   33.0119   47.0279 H   0  0  0  0  0  0  0  0  0  0  0  0
   56.4556   34.1350   44.8056 H   0  0  0  0  0  0  0  0  0  0  0  0
   58.5712   35.0898   43.8931 H   0  0  0  0  0  0  0  0  0  0  0  0
   60.6882   34.9044   45.1922 H   0  0  0  0  0  0  0  0  0  0  0  0
   61.5100   35.2784   48.9285 H   0  0  0  0  0  0  0  0  0  0  0  0
   60.1310   34.2415   49.4282 H   0  0  0  0  0  0  0  0  0  0  0  0
   62.1658   33.7678   50.7749 H   0  0  0  0  0  0  0  0  0  0  0  0
   61.6678   32.3426   49.7574 H   0  0  0  0  0  0  0  0  0  0  0  0
   64.0040   34.0860   49.5530 H   0  0  0  0  0  0  0  0  0  0  0  0
   63.5157   31.5036   50.2722 H   0  0  0  0  0  0  0  0  0  0  0  0
   64.2650   31.4341   48.6211 H   0  0  0  0  0  0  0  0  0  0  0  0
   68.1188   33.6981   50.1699 H   0  0  0  0  0  0  0  0  0  0  0  0
   67.3499   34.0772   51.7129 H   0  0  0  0  0  0  0  0  0  0  0  0
   68.3621   31.4869   50.8071 H   0  0  0  0  0  0  0  0  0  0  0  0
   67.5814   31.8026   52.3484 H   0  0  0  0  0  0  0  0  0  0  0  0
   66.0070   30.2880   50.8560 H   0  0  0  0  0  0  0  0  0  0  0  0
   63.6120   34.5364   47.4459 H   0  0  0  0  0  0  0  0  0  0  0  0
   64.2667   32.8436   47.2722 H   0  0  0  0  0  0  0  0  0  0  0  0
   62.2047   33.2258   45.9234 H   0  0  0  0  0  0  0  0  0  0  0  0
   62.0207   31.9364   47.1660 H   0  0  0  0  0  0  0  0  0  0  0  0
  1  2  1  0
  2  3  1  0
  3  4  2  0
  4  5  1  0
  5  6  2  0
  6  7  1  0
  7  8  2  0
  8  9  1  0
  9 10  1  0
 10 11  1  0
 11 12  1  0
 12 13  1  0
 13 14  1  0
 14 15  2  0
 15 16  1  0
 16 17  1  0
 17 18  1  0
 12 19  1  0
 19 20  1  0
  8  3  1  0
 20  9  1  0
 18 14  1  0
  1 21  1  0
  1 22  1  0
  1 23  1  0
  4 24  1  0
  5 25  1  0
  6 26  1  0
  7 27  1  0
 10 28  1  0
 10 29  1  0
 11 30  1  0
 11 31  1  0
 12 32  1  0
 13 33  1  0
 13 34  1  0
 16 35  1  0
 16 36  1  0
 17 37  1  0
 17 38  1  0
 18 39  1  0
 19 40  1  0
 19 41  1  0
 20 42  1  0
 20 43  1  0
M  CHG  1  12   1
M  END
>  <UniqueID>  (36) 
35

>  <SMILES>  (36) 
COc1ccccc1N1CC[NH+](CC2=NCCN2)CC1

>  <Energy>  (36) 
66.16571450689165

>  <Genealogy>  (36) 
COc1ccccc1N1CC[NH+](CC2=NCCN2)CC1 (protonated)
COc1ccccc1N1CC[NH+](CC2=NCCN2)CC1 (3D coordinates assigned)
COc1ccccc1N1CC[NH+](CC2=NCCN2)CC1 (nonaromatic ring conformer: 66.16571450689165 kcal/mol)

>  <smiles>  (36) 
COc1ccccc1N1CCN(CC2=NCCN2)CC1

>  <score_type>  (36) 
oracle

>  <origin>  (36) 
adg

>  <m_score__min__energy>  (36) 
-5.1200000000000001

>  <m_primary>  (36) 
energy

$$$$
