0:0
     RDKit          3D

 32 33  0  0  0  0  0  0  0  0999 V2000
   57.3830   33.9020   45.1710 C   0  0  0  0  0  0  0  0  0  0  0  0
   58.3550   33.4330   46.2520 C   0  0  0  0  0  0  0  0  0  0  0  0
   58.1880   31.9460   46.5850 C   0  0  0  0  0  0  0  0  0  0  0  0
   59.2520   30.8620   45.5610 S   0  0  0  0  0  0  0  0  0  0  0  0
   58.2220   29.4020   45.7330 C   0  0  0  0  0  0  0  0  0  0  0  0
   58.7090   28.3120   46.3860 N   0  0  0  0  0  0  0  0  0  0  0  0
   57.9600   27.1890   46.5310 C   0  0  0  0  0  0  0  0  0  0  0  0
   58.4540   26.0740   47.2050 C   0  0  0  0  0  0  0  0  0  0  0  0
   57.6690   24.9710   47.3300 N   0  0  0  0  0  0  0  0  0  0  0  0
   56.4350   24.9300   46.8220 N   0  0  0  0  0  0  0  0  0  0  0  0
   55.8990   25.9900   46.1520 C   0  0  0  0  0  0  0  0  0  0  0  0
   54.6040   25.9270   45.6260 O   0  0  0  0  0  0  0  0  0  0  0  0
   53.9370   24.6980   45.3680 C   0  0  0  0  0  0  0  0  0  0  0  0
   56.6640   27.1480   45.9960 C   0  0  0  0  0  0  0  0  0  0  0  0
   56.1790   28.2310   45.3350 N   0  0  0  0  0  0  0  0  0  0  0  0
   56.9290   29.3590   45.1860 C   0  0  0  0  0  0  0  0  0  0  0  0
   56.4240   30.4660   44.4940 O   0  0  0  0  0  0  0  0  0  0  0  0
   56.6900   30.7010   43.1180 C   0  0  0  0  0  0  0  0  0  0  0  0
   56.4887   34.3335   45.6443 H   0  0  0  0  0  0  0  0  0  0  0  0
   57.8705   34.6640   44.5451 H   0  0  0  0  0  0  0  0  0  0  0  0
   57.0899   33.0462   44.5451 H   0  0  0  0  0  0  0  0  0  0  0  0
   59.3832   33.6025   45.8998 H   0  0  0  0  0  0  0  0  0  0  0  0
   58.1414   34.0067   47.1659 H   0  0  0  0  0  0  0  0  0  0  0  0
   58.4457   31.7923   47.6433 H   0  0  0  0  0  0  0  0  0  0  0  0
   57.1426   31.6761   46.3747 H   0  0  0  0  0  0  0  0  0  0  0  0
   59.4680   26.0860   47.6313 H   0  0  0  0  0  0  0  0  0  0  0  0
   53.6752   24.2157   46.3213 H   0  0  0  0  0  0  0  0  0  0  0  0
   53.0205   24.8922   44.7915 H   0  0  0  0  0  0  0  0  0  0  0  0
   54.5993   24.0354   44.7915 H   0  0  0  0  0  0  0  0  0  0  0  0
   57.5112   31.4265   43.0220 H   0  0  0  0  0  0  0  0  0  0  0  0
   56.9770   29.7561   42.6334 H   0  0  0  0  0  0  0  0  0  0  0  0
   55.7877   31.1023   42.6334 H   0  0  0  0  0  0  0  0  0  0  0  0
  1  2  1  0
  2  3  1  0
  3  4  1  0
  4  5  1  0
  5  6  2  0
  6  7  1  0
  7  8  2  0
  8  9  1  0
  9 10  2  0
 10 11  1  0
 11 12  1  0
 12 13  1  0
 11 14  2  0
 14 15  1  0
 15 16  2  0
 16 17  1  0
 17 18  1  0
 16  5  1  0
 14  7  1  0
  1 19  1  0
  1 20  1  0
  1 21  1  0
  2 22  1  0
  2 23  1  0
  3 24  1  0
  3 25  1  0
  8 26  1  0
 13 27  1  0
 13 28  1  0
 13 29  1  0
 18 30  1  0
 18 31  1  0
 18 32  1  0
M  END
>  <UniqueID>  (1) 
1

>  <SMILES>  (1) 
CCCSc1nc2cnnc(OC)c2nc1OC

>  <Energy>  (1) 
25.325167952605362

>  <Genealogy>  (1) 
CCCSc1nc2cnnc(OC)c2nc1OC (3D coordinates assigned)
CCCSc1nc2cnnc(OC)c2nc1OC (optimized conformer: 25.325167952605362 kcal/mol)

>  <smiles>  (1) 
CCCSc1nc2cnnc(OC)c2nc1OC

>  <score_type>  (1) 
oracle

>  <origin>  (1) 
adg

>  <m_score__min__energy>  (1) 
-6.25

>  <m_primary>  (1) 
energy

$$$$
1:0
     RDKit          3D

 47 49  0  0  0  0  0  0  0  0999 V2000
   56.7876   28.8549   43.4409 H   0  0  0  0  0  0  0  0  0  0  0  0
   57.3550   29.6990   43.8600 C   0  0  0  0  0  0  0  0  0  0  0  0
   57.0830   30.9240   43.3840 C   0  0  0  0  0  0  0  0  0  0  0  0
   56.0512   31.1235   43.0590 H   0  0  0  0  0  0  0  0  0  0  0  0
   58.0830   32.0520   43.2590 C   0  0  0  0  0  0  0  0  0  0  0  0
   57.6446   32.8495   42.6411 H   0  0  0  0  0  0  0  0  0  0  0  0
   58.9960   31.6495   42.7959 H   0  0  0  0  0  0  0  0  0  0  0  0
   58.4470   32.6150   44.5820 N   0  0  0  0  0  0  0  0  0  0  0  0
   59.1140   31.9550   45.0440 H   0  0  0  0  0  0  0  0  0  0  0  0
   57.2390   32.7370   45.4390 C   0  0  0  0  0  0  0  0  0  0  0  0
   57.0693   31.7730   45.9410 H   0  0  0  0  0  0  0  0  0  0  0  0
   56.4028   33.0177   44.7818 H   0  0  0  0  0  0  0  0  0  0  0  0
   57.3580   33.8360   46.5180 C   0  0  0  0  0  0  0  0  0  0  0  0
   56.7651   33.5344   47.3941 H   0  0  0  0  0  0  0  0  0  0  0  0
   56.9874   34.7738   46.0786 H   0  0  0  0  0  0  0  0  0  0  0  0
   58.7530   34.0660   46.9480 N   0  0  0  0  0  0  0  0  0  0  0  0
   59.2840   32.9770   47.7980 C   0  0  0  0  0  0  0  0  0  0  0  0
   59.0077   32.0077   47.3574 H   0  0  0  0  0  0  0  0  0  0  0  0
   58.8550   33.0744   48.8062 H   0  0  0  0  0  0  0  0  0  0  0  0
   60.7850   33.0640   47.9000 C   0  0  0  0  0  0  0  0  0  0  0  0
   61.3800   34.0800   48.6640 C   0  0  0  0  0  0  0  0  0  0  0  0
   60.7486   34.8198   49.1778 H   0  0  0  0  0  0  0  0  0  0  0  0
   62.7720   34.1560   48.7750 C   0  0  0  0  0  0  0  0  0  0  0  0
   63.2331   34.9570   49.3715 H   0  0  0  0  0  0  0  0  0  0  0  0
   63.5780   33.2140   48.1280 C   0  0  0  0  0  0  0  0  0  0  0  0
   64.6728   33.2739   48.2160 H   0  0  0  0  0  0  0  0  0  0  0  0
   62.9930   32.1970   47.3700 C   0  0  0  0  0  0  0  0  0  0  0  0
   63.7750   31.2810   46.7460 F   0  0  0  0  0  0  0  0  0  0  0  0
   61.6010   32.1190   47.2550 C   0  0  0  0  0  0  0  0  0  0  0  0
   61.1440   31.3159   46.6582 H   0  0  0  0  0  0  0  0  0  0  0  0
   59.6460   34.4100   45.8120 C   0  0  0  0  0  0  0  0  0  0  0  0
   60.6300   33.9528   45.9926 H   0  0  0  0  0  0  0  0  0  0  0  0
   59.6969   35.5077   45.7631 H   0  0  0  0  0  0  0  0  0  0  0  0
   59.1240   33.9200   44.4440 C   0  0  0  0  0  0  0  0  0  0  0  0
   59.9712   33.8159   43.7502 H   0  0  0  0  0  0  0  0  0  0  0  0
   58.4023   34.6542   44.0567 H   0  0  0  0  0  0  0  0  0  0  0  0
   58.3570   29.3950   44.9030 C   0  0  0  0  0  0  0  0  0  0  0  0
   59.5920   28.8470   44.5220 C   0  0  0  0  0  0  0  0  0  0  0  0
   59.7909   28.6297   43.4622 H   0  0  0  0  0  0  0  0  0  0  0  0
   60.5710   28.5760   45.4840 C   0  0  0  0  0  0  0  0  0  0  0  0
   61.5314   28.1335   45.1810 H   0  0  0  0  0  0  0  0  0  0  0  0
   60.3300   28.8670   46.8300 C   0  0  0  0  0  0  0  0  0  0  0  0
   61.0968   28.6445   47.5866 H   0  0  0  0  0  0  0  0  0  0  0  0
   59.1160   29.4400   47.2140 C   0  0  0  0  0  0  0  0  0  0  0  0
   58.9305   29.6770   48.2720 H   0  0  0  0  0  0  0  0  0  0  0  0
   58.1350   29.7130   46.2540 C   0  0  0  0  0  0  0  0  0  0  0  0
   57.1859   30.1785   46.5581 H   0  0  0  0  0  0  0  0  0  0  0  0
  1  2  1  0
  2  3  2  0
  3  4  1  0
  3  5  1  0
  5  6  1  0
  5  7  1  0
  5  8  1  0
  8  9  1  0
  8 10  1  0
 10 11  1  0
 10 12  1  0
 10 13  1  0
 13 14  1  0
 13 15  1  0
 13 16  1  0
 16 17  1  0
 17 18  1  0
 17 19  1  0
 17 20  1  0
 20 21  2  0
 21 22  1  0
 21 23  1  0
 23 24  1  0
 23 25  2  0
 25 26  1  0
 25 27  1  0
 27 28  1  0
 27 29  2  0
 29 30  1  0
 16 31  1  0
 31 32  1  0
 31 33  1  0
 31 34  1  0
 34 35  1  0
 34 36  1  0
  2 37  1  0
 37 38  2  0
 38 39  1  0
 38 40  1  0
 40 41  1  0
 40 42  2  0
 42 43  1  0
 42 44  1  0
 44 45  1  0
 44 46  2  0
 46 47  1  0
 34  8  1  0
 46 37  1  0
 29 20  1  0
M  CHG  1   8   1
M  END
>  <UniqueID>  (2) 
2

>  <SMILES>  (2) 
Fc1cccc(CN2CC[NH+](C/C=C\c3ccccc3)CC2)c1

>  <Energy>  (2) 
68.49464935932917

>  <Genealogy>  (2) 
Fc1cccc(CN2CC[NH+](CC=Cc3ccccc3)CC2)c1 (protonated)
Fc1cccc(CN2CC[NH+](C/C=C\c3ccccc3)CC2)c1 (cis-trans isomerization)
Fc1cccc(CN2CC[NH+](C/C=C\c3ccccc3)CC2)c1 (3D coordinates assigned)
Fc1cccc(CN2CC[NH+](C/C=C\c3ccccc3)CC2)c1 (nonaromatic ring conformer: 68.49464935932917 kcal/mol)

>  <smiles>  (2) 
Fc1cccc(CN2CCN(CC=Cc3ccccc3)CC2)c1

>  <score_type>  (2) 
oracle

>  <origin>  (2) 
adg

>  <m_score__min__energy>  (2) 
-5.7300000000000004

>  <m_primary>  (2) 
energy

$$$$
2:0
     RDKit          3D

 48 50  0  0  0  0  0  0  0  0999 V2000
   62.1630   33.8380   46.3720 C   0  0  0  0  0  0  0  0  0  0  0  0
   63.6150   33.5120   46.7370 C   0  0  0  0  0  0  0  0  0  0  0  0
   63.7250   32.2720   47.5590 N   0  0  1  0  0  0  0  0  0  0  0  0
   63.9850   32.6260   48.9680 C   0  0  0  0  0  0  0  0  0  0  0  0
   62.5000   31.4300   47.4870 C   0  0  0  0  0  0  0  0  0  0  0  0
   61.4870   31.7180   48.6160 C   0  0  0  0  0  0  0  0  0  0  0  0
   60.2410   30.9760   48.4190 N   0  0  0  0  0  0  0  0  0  0  0  0
   59.5480   30.9810   47.1620 C   0  0  0  0  0  0  0  0  0  0  0  0
   59.4340   29.8060   46.4180 C   0  0  0  0  0  0  0  0  0  0  0  0
   58.8050   29.8000   45.2000 C   0  0  0  0  0  0  0  0  0  0  0  0
   58.2420   30.9310   44.6650 N   0  0  0  0  0  0  0  0  0  0  0  0
   57.5400   30.8670   43.3680 C   0  0  0  0  0  0  0  0  0  0  0  0
   58.3590   32.1300   45.3500 C   0  0  0  0  0  0  0  0  0  0  0  0
   57.8450   33.3400   44.8240 C   0  0  0  0  0  0  0  0  0  0  0  0
   57.9700   34.5380   45.5270 C   0  0  0  0  0  0  0  0  0  0  0  0
   58.6100   34.5660   46.7620 C   0  0  0  0  0  0  0  0  0  0  0  0
   59.1330   33.3950   47.3050 C   0  0  0  0  0  0  0  0  0  0  0  0
   59.0230   32.1710   46.6160 C   0  0  0  0  0  0  0  0  0  0  0  0
   58.8590   28.4490   44.5720 C   0  0  0  0  0  0  0  0  0  0  0  0
   59.7480   27.6220   45.5120 C   0  0  0  0  0  0  0  0  0  0  0  0
   59.9960   28.4750   46.7650 C   0  0  0  0  0  0  0  0  0  0  0  0
   61.5745   33.9701   47.2919 H   0  0  0  0  0  0  0  0  0  0  0  0
   62.1328   34.7653   45.7810 H   0  0  0  0  0  0  0  0  0  0  0  0
   61.7393   33.0126   45.7810 H   0  0  0  0  0  0  0  0  0  0  0  0
   64.1910   33.3746   45.8100 H   0  0  0  0  0  0  0  0  0  0  0  0
   64.0091   34.3482   47.3332 H   0  0  0  0  0  0  0  0  0  0  0  0
   64.5450   31.6970   47.2500 H   0  0  0  0  0  0  0  0  0  0  0  0
   63.4635   31.9160   49.6267 H   0  0  0  0  0  0  0  0  0  0  0  0
   65.0665   32.5813   49.1637 H   0  0  0  0  0  0  0  0  0  0  0  0
   63.6188   33.6446   49.1637 H   0  0  0  0  0  0  0  0  0  0  0  0
   62.0068   31.6149   46.5213 H   0  0  0  0  0  0  0  0  0  0  0  0
   62.8199   30.3835   47.5988 H   0  0  0  0  0  0  0  0  0  0  0  0
   61.9306   31.4231   49.5784 H   0  0  0  0  0  0  0  0  0  0  0  0
   61.2544   32.7931   48.6059 H   0  0  0  0  0  0  0  0  0  0  0  0
   59.8980   30.3360   49.1680 H   0  0  0  0  0  0  0  0  0  0  0  0
   56.4582   30.7684   43.5411 H   0  0  0  0  0  0  0  0  0  0  0  0
   57.7378   31.7869   42.7982 H   0  0  0  0  0  0  0  0  0  0  0  0
   57.9009   29.9980   42.7982 H   0  0  0  0  0  0  0  0  0  0  0  0
   57.3399   33.3350   43.8469 H   0  0  0  0  0  0  0  0  0  0  0  0
   57.5601   35.4663   45.1025 H   0  0  0  0  0  0  0  0  0  0  0  0
   58.7031   35.5149   47.3106 H   0  0  0  0  0  0  0  0  0  0  0  0
   59.6373   33.4261   48.2821 H   0  0  0  0  0  0  0  0  0  0  0  0
   57.8521   28.0113   44.5044 H   0  0  0  0  0  0  0  0  0  0  0  0
   59.2526   28.4809   43.5453 H   0  0  0  0  0  0  0  0  0  0  0  0
   59.2388   26.6865   45.7870 H   0  0  0  0  0  0  0  0  0  0  0  0
   60.6975   27.3594   45.0227 H   0  0  0  0  0  0  0  0  0  0  0  0
   59.4778   28.0480   47.6363 H   0  0  0  0  0  0  0  0  0  0  0  0
   61.0609   28.5253   47.0360 H   0  0  0  0  0  0  0  0  0  0  0  0
  1  2  1  0
  2  3  1  0
  3  4  1  0
  3  5  1  0
  5  6  1  0
  6  7  1  0
  7  8  1  0
  8  9  2  0
  9 10  1  0
 10 11  2  0
 11 12  1  0
 11 13  1  0
 13 14  2  0
 14 15  1  0
 15 16  2  0
 16 17  1  0
 17 18  2  0
 10 19  1  0
 19 20  1  0
 20 21  1  0
 18  8  1  0
 21  9  1  0
 18 13  1  0
  1 22  1  0
  1 23  1  0
  1 24  1  0
  2 25  1  0
  2 26  1  0
  3 27  1  6
  4 28  1  0
  4 29  1  0
  4 30  1  0
  5 31  1  0
  5 32  1  0
  6 33  1  0
  6 34  1  0
  7 35  1  0
 12 36  1  0
 12 37  1  0
 12 38  1  0
 14 39  1  0
 15 40  1  0
 16 41  1  0
 17 42  1  0
 19 43  1  0
 19 44  1  0
 20 45  1  0
 20 46  1  0
 21 47  1  0
 21 48  1  0
M  CHG  2   3   1  11   1
M  END
>  <UniqueID>  (3) 
3

>  <SMILES>  (3) 
CC[N@@H+](C)CCNc1c2c([n+](C)c3ccccc13)CCC2

>  <Energy>  (3) 
74.58138001198186

>  <Genealogy>  (3) 
CC[NH+](C)CCNc1c2c([n+](C)c3ccccc13)CCC2 (protonated)
CC[N@@H+](C)CCNc1c2c([n+](C)c3ccccc13)CCC2 (chirality)
CC[N@@H+](C)CCNc1c2c([n+](C)c3ccccc13)CCC2 (3D coordinates assigned)
CC[N@@H+](C)CCNc1c2c([n+](C)c3ccccc13)CCC2 (nonaromatic ring conformer: 74.58138001198186 kcal/mol)

>  <smiles>  (3) 
CCN(C)CCNc1c2c([n+](C)c3ccccc13)CCC2

>  <score_type>  (3) 
oracle

>  <origin>  (3) 
adg

>  <m_score__min__energy>  (3) 
-4.3300000000000001

>  <m_primary>  (3) 
energy

$$$$
3:0
     RDKit          3D

 61 63  0  0  0  0  0  0  0  0999 V2000
   58.7910   31.0530   49.8230 C   0  0  0  0  0  0  0  0  0  0  0  0
   59.3490   30.5130   48.5070 C   0  0  0  0  0  0  0  0  0  0  0  0
   60.7730   29.9390   48.6380 C   0  0  0  0  0  0  0  0  0  0  0  0
   61.7290   30.7910   49.3790 N   0  0  0  0  0  0  0  0  0  0  0  0
   62.7240   31.4960   48.5450 C   0  0  0  0  0  0  0  0  0  0  0  0
   62.1840   31.9190   47.1570 C   0  0  0  0  0  0  0  0  0  0  0  0
   62.2150   33.4420   46.9190 C   0  0  0  0  0  0  0  0  0  0  0  0
   60.9410   34.1750   47.3740 C   0  0  0  0  0  0  0  0  0  0  0  0
   59.7540   33.7860   46.5820 N   0  0  0  0  0  0  0  0  0  0  0  0
   59.5070   34.7300   45.4690 C   0  0  0  0  0  0  0  0  0  0  0  0
   58.0890   34.5820   44.8750 C   0  0  0  0  0  0  0  0  0  0  0  0
   57.4640   33.2810   45.2040 N   0  0  0  0  0  0  0  0  0  0  0  0
   58.1100   32.1400   44.5140 C   0  0  0  0  0  0  0  0  0  0  0  0
   57.2910   30.8800   44.6320 C   0  0  0  0  0  0  0  0  0  0  0  0
   56.0360   30.9430   44.5270 O   0  0  0  0  0  0  0  0  0  0  0  0
   57.9120   29.6230   44.9470 N   0  0  0  0  0  0  0  0  0  0  0  0
   59.3280   29.4610   45.2890 C   0  0  0  0  0  0  0  0  0  0  0  0
   59.4240   28.0270   45.6480 C   0  0  0  0  0  0  0  0  0  0  0  0
   60.5560   27.3260   46.0690 C   0  0  0  0  0  0  0  0  0  0  0  0
   60.4240   25.9590   46.3680 C   0  0  0  0  0  0  0  0  0  0  0  0
   59.1750   25.3240   46.2420 C   0  0  0  0  0  0  0  0  0  0  0  0
   58.0500   26.0500   45.8130 C   0  0  0  0  0  0  0  0  0  0  0  0
   58.2030   27.4070   45.5230 C   0  0  0  0  0  0  0  0  0  0  0  0
   57.1680   28.3680   45.0710 C   0  0  0  0  0  0  0  0  0  0  0  0
   57.3810   33.0820   46.6720 C   0  0  0  0  0  0  0  0  0  0  0  0
   58.5660   33.6960   47.4460 C   0  0  0  0  0  0  0  0  0  0  0  0
   59.2990   30.5614   50.6658 H   0  0  0  0  0  0  0  0  0  0  0  0
   58.9608   32.1386   49.8753 H   0  0  0  0  0  0  0  0  0  0  0  0
   57.7116   30.8477   49.8753 H   0  0  0  0  0  0  0  0  0  0  0  0
   58.6829   29.7152   48.1466 H   0  0  0  0  0  0  0  0  0  0  0  0
   59.4019   31.3580   47.8047 H   0  0  0  0  0  0  0  0  0  0  0  0
   60.7039   28.9725   49.1586 H   0  0  0  0  0  0  0  0  0  0  0  0
   61.1656   29.8587   47.6136 H   0  0  0  0  0  0  0  0  0  0  0  0
   61.1780   31.4920   49.9250 H   0  0  0  0  0  0  0  0  0  0  0  0
   62.2360   30.2030   50.0820 H   0  0  0  0  0  0  0  0  0  0  0  0
   63.0491   32.3996   49.0814 H   0  0  0  0  0  0  0  0  0  0  0  0
   63.5513   30.7930   48.3678 H   0  0  0  0  0  0  0  0  0  0  0  0
   62.7969   31.4338   46.3831 H   0  0  0  0  0  0  0  0  0  0  0  0
   61.1299   31.6077   47.1131 H   0  0  0  0  0  0  0  0  0  0  0  0
   63.0699   33.8605   47.4704 H   0  0  0  0  0  0  0  0  0  0  0  0
   62.2960   33.5916   45.8322 H   0  0  0  0  0  0  0  0  0  0  0  0
   60.7542   33.9358   48.4313 H   0  0  0  0  0  0  0  0  0  0  0  0
   61.1036   35.2530   47.2276 H   0  0  0  0  0  0  0  0  0  0  0  0
   59.6276   35.7572   45.8437 H   0  0  0  0  0  0  0  0  0  0  0  0
   60.2300   34.5044   44.6712 H   0  0  0  0  0  0  0  0  0  0  0  0
   57.4548   35.3877   45.2734 H   0  0  0  0  0  0  0  0  0  0  0  0
   58.1801   34.6391   43.7803 H   0  0  0  0  0  0  0  0  0  0  0  0
   58.2296   32.3889   43.4492 H   0  0  0  0  0  0  0  0  0  0  0  0
   59.0856   31.9602   44.9892 H   0  0  0  0  0  0  0  0  0  0  0  0
   59.9717   29.6968   44.4287 H   0  0  0  0  0  0  0  0  0  0  0  0
   59.6579   30.1321   46.0957 H   0  0  0  0  0  0  0  0  0  0  0  0
   61.5282   27.8318   46.1644 H   0  0  0  0  0  0  0  0  0  0  0  0
   61.3002   25.3837   46.7016 H   0  0  0  0  0  0  0  0  0  0  0  0
   59.0781   24.2545   46.4802 H   0  0  0  0  0  0  0  0  0  0  0  0
   57.0709   25.5596   45.7082 H   0  0  0  0  0  0  0  0  0  0  0  0
   56.7424   28.0639   44.1033 H   0  0  0  0  0  0  0  0  0  0  0  0
   56.3130   28.4383   45.7595 H   0  0  0  0  0  0  0  0  0  0  0  0
   56.4515   33.5457   47.0339 H   0  0  0  0  0  0  0  0  0  0  0  0
   57.4049   31.9972   46.8526 H   0  0  0  0  0  0  0  0  0  0  0  0
   58.2908   34.7041   47.7894 H   0  0  0  0  0  0  0  0  0  0  0  0
   58.8001   33.0531   48.3073 H   0  0  0  0  0  0  0  0  0  0  0  0
  1  2  1  0
  2  3  1  0
  3  4  1  0
  4  5  1  0
  5  6  1  0
  6  7  1  0
  7  8  1  0
  8  9  1  0
  9 10  1  0
 10 11  1  0
 11 12  1  0
 12 13  1  0
 13 14  1  0
 14 15  2  0
 14 16  1  0
 16 17  1  0
 17 18  1  0
 18 19  2  0
 19 20  1  0
 20 21  2  0
 21 22  1  0
 22 23  2  0
 23 24  1  0
 12 25  1  0
 25 26  1  0
 26  9  1  0
 24 16  1  0
 23 18  1  0
  1 27  1  0
  1 28  1  0
  1 29  1  0
  2 30  1  0
  2 31  1  0
  3 32  1  0
  3 33  1  0
  4 34  1  0
  4 35  1  0
  5 36  1  0
  5 37  1  0
  6 38  1  0
  6 39  1  0
  7 40  1  0
  7 41  1  0
  8 42  1  0
  8 43  1  0
 10 44  1  0
 10 45  1  0
 11 46  1  0
 11 47  1  0
 13 48  1  0
 13 49  1  0
 17 50  1  0
 17 51  1  0
 19 52  1  0
 20 53  1  0
 21 54  1  0
 22 55  1  0
 24 56  1  0
 24 57  1  0
 25 58  1  0
 25 59  1  0
 26 60  1  0
 26 61  1  0
M  CHG  1   4   1
M  END
>  <UniqueID>  (4) 
4

>  <SMILES>  (4) 
CCC[NH2+]CCCCN1CCN(CC(=O)N2Cc3ccccc3C2)CC1

>  <Energy>  (4) 
76.94709880347622

>  <Genealogy>  (4) 
CCC[NH2+]CCCCN1CCN(CC(=O)N2Cc3ccccc3C2)CC1 (protonated)
CCC[NH2+]CCCCN1CCN(CC(=O)N2Cc3ccccc3C2)CC1 (3D coordinates assigned)
CCC[NH2+]CCCCN1CCN(CC(=O)N2Cc3ccccc3C2)CC1 (nonaromatic ring conformer: 76.94709880347622 kcal/mol)

>  <smiles>  (4) 
CCCNCCCCN1CCN(CC(=O)N2Cc3ccccc3C2)CC1

>  <score_type>  (4) 
oracle

>  <origin>  (4) 
adg

>  <m_score__min__energy>  (4) 
-7.0800000000000001

>  <m_primary>  (4) 
energy

$$$$
4:0
     RDKit          3D

 43 46  0  0  0  0  0  0  0  0999 V2000
   60.7330   27.0360   48.1320 C   0  0  0  0  0  0  0  0  0  0  0  0
   60.3840   27.0950   46.7540 O   0  0  0  0  0  0  0  0  0  0  0  0
   59.2460   27.7460   46.2530 C   0  0  0  0  0  0  0  0  0  0  0  0
   58.1450   26.9520   45.8500 C   0  0  0  0  0  0  0  0  0  0  0  0
   56.9790   27.5430   45.3320 C   0  0  0  0  0  0  0  0  0  0  0  0
   56.9480   28.9290   45.2300 C   0  0  0  0  0  0  0  0  0  0  0  0
   55.9870   29.6870   44.7680 O   0  0  0  0  0  0  0  0  0  0  0  0
   56.3350   30.9450   44.8260 N   0  0  0  0  0  0  0  0  0  0  0  0
   57.5840   31.0060   45.3530 C   0  0  0  0  0  0  0  0  0  0  0  0
   58.3230   32.2670   45.5720 C   0  0  0  0  0  0  0  0  0  0  0  0
   59.4700   32.2900   46.3770 C   0  0  0  0  0  0  0  0  0  0  0  0
   60.1470   33.5080   46.5620 C   0  0  0  0  0  0  0  0  0  0  0  0
   61.3250   33.5940   47.3900 N   0  0  0  0  0  0  0  0  0  0  0  0
   62.6190   33.0640   46.9370 C   0  0  0  0  0  0  0  0  0  0  0  0
   63.7700   33.8480   47.5830 C   0  0  0  0  0  0  0  0  0  0  0  0
   63.6960   33.8890   49.0660 N   0  0  0  0  0  0  0  0  0  0  0  0
   64.6400   32.9390   49.6760 C   0  0  0  0  0  0  0  0  0  0  0  0
   62.3380   33.6970   49.6270 C   0  0  0  0  0  0  0  0  0  0  0  0
   61.2460   34.2450   48.7020 C   0  0  0  0  0  0  0  0  0  0  0  0
   59.6640   34.6290   45.9610 N   0  0  0  0  0  0  0  0  0  0  0  0
   58.5540   34.5910   45.1830 C   0  0  0  0  0  0  0  0  0  0  0  0
   57.8950   33.4190   44.9940 N   0  0  0  0  0  0  0  0  0  0  0  0
   57.9980   29.7100   45.6220 C   0  0  0  0  0  0  0  0  0  0  0  0
   59.1720   29.1570   46.1380 C   0  0  0  0  0  0  0  0  0  0  0  0
   59.8325   27.1882   48.7451 H   0  0  0  0  0  0  0  0  0  0  0  0
   61.1685   26.0515   48.3581 H   0  0  0  0  0  0  0  0  0  0  0  0
   61.4679   27.8227   48.3581 H   0  0  0  0  0  0  0  0  0  0  0  0
   58.2027   25.8575   45.9435 H   0  0  0  0  0  0  0  0  0  0  0  0
   56.1212   26.9299   45.0184 H   0  0  0  0  0  0  0  0  0  0  0  0
   59.8347   31.3696   46.8564 H   0  0  0  0  0  0  0  0  0  0  0  0
   62.6969   32.0042   47.2213 H   0  0  0  0  0  0  0  0  0  0  0  0
   62.6851   33.1660   45.8437 H   0  0  0  0  0  0  0  0  0  0  0  0
   64.7199   33.3744   47.2942 H   0  0  0  0  0  0  0  0  0  0  0  0
   63.6974   34.8857   47.2252 H   0  0  0  0  0  0  0  0  0  0  0  0
   64.5722   33.0072   50.7718 H   0  0  0  0  0  0  0  0  0  0  0  0
   64.3896   31.9168   49.3561 H   0  0  0  0  0  0  0  0  0  0  0  0
   65.6638   33.1829   49.3561 H   0  0  0  0  0  0  0  0  0  0  0  0
   62.1664   32.6211   49.7788 H   0  0  0  0  0  0  0  0  0  0  0  0
   62.2841   34.2493   50.5768 H   0  0  0  0  0  0  0  0  0  0  0  0
   60.2595   34.0485   49.1471 H   0  0  0  0  0  0  0  0  0  0  0  0
   61.3901   35.3282   48.5763 H   0  0  0  0  0  0  0  0  0  0  0  0
   58.1870   35.5109   44.7044 H   0  0  0  0  0  0  0  0  0  0  0  0
   60.0128   29.7961   46.4455 H   0  0  0  0  0  0  0  0  0  0  0  0
  1  2  1  0
  2  3  1  0
  3  4  2  0
  4  5  1  0
  5  6  2  0
  6  7  1  0
  7  8  1  0
  8  9  2  0
  9 10  1  0
 10 11  2  0
 11 12  1  0
 12 13  1  0
 13 14  1  0
 14 15  1  0
 15 16  1  0
 16 17  1  0
 16 18  1  0
 18 19  1  0
 12 20  2  0
 20 21  1  0
 21 22  2  0
  9 23  1  0
 23 24  2  0
 24  3  1  0
 23  6  1  0
 22 10  1  0
 19 13  1  0
  1 25  1  0
  1 26  1  0
  1 27  1  0
  4 28  1  0
  5 29  1  0
 11 30  1  0
 14 31  1  0
 14 32  1  0
 15 33  1  0
 15 34  1  0
 17 35  1  0
 17 36  1  0
 17 37  1  0
 18 38  1  0
 18 39  1  0
 19 40  1  0
 19 41  1  0
 21 42  1  0
 24 43  1  0
M  END
>  <UniqueID>  (5) 
5

>  <SMILES>  (5) 
COc1ccc2onc(-c3cc(N4CCN(C)CC4)ncn3)c2c1

>  <Energy>  (5) 
95.64867764237387

>  <Genealogy>  (5) 
COc1ccc2onc(-c3cc(N4CCN(C)CC4)ncn3)c2c1 (3D coordinates assigned)
COc1ccc2onc(-c3cc(N4CCN(C)CC4)ncn3)c2c1 (nonaromatic ring conformer: 95.64867764237387 kcal/mol)

>  <smiles>  (5) 
COc1ccc2onc(-c3cc(N4CCN(C)CC4)ncn3)c2c1

>  <score_type>  (5) 
oracle

>  <origin>  (5) 
adg

>  <m_score__min__energy>  (5) 
-7.9400000000000004

>  <m_primary>  (5) 
energy

$$$$
5:0
     RDKit          3D

 52 54  0  0  0  0  0  0  0  0999 V2000
   58.1880   27.0920   42.6170 C   0  0  0  0  0  0  0  0  0  0  0  0
   57.7640   25.6360   42.8620 C   0  0  0  0  0  0  0  0  0  0  0  0
   57.1060   25.3920   44.1730 N   0  0  1  0  0  0  0  0  0  0  0  0
   56.2020   24.2260   44.1150 C   0  0  0  0  0  0  0  0  0  0  0  0
   58.0440   25.2480   45.3130 C   0  0  0  0  0  0  0  0  0  0  0  0
   57.7520   26.2370   46.4570 C   0  0  0  0  0  0  0  0  0  0  0  0
   56.8280   27.2380   46.0280 O   0  0  0  0  0  0  0  0  0  0  0  0
   57.1570   28.5440   45.6210 C   0  0  0  0  0  0  0  0  0  0  0  0
   56.5770   29.1390   44.4840 C   0  0  0  0  0  0  0  0  0  0  0  0
   56.9140   30.4390   44.1110 C   0  0  0  0  0  0  0  0  0  0  0  0
   57.8270   31.1810   44.8740 C   0  0  0  0  0  0  0  0  0  0  0  0
   58.1860   32.4950   44.5360 C   0  0  0  0  0  0  0  0  0  0  0  0
   57.7070   33.0570   43.5120 O   0  0  0  0  0  0  0  0  0  0  0  0
   59.0910   33.1870   45.3390 C   0  0  0  0  0  0  0  0  0  0  0  0
   59.6270   32.5570   46.4760 C   0  0  0  0  0  0  0  0  0  0  0  0
   60.5710   33.2290   47.3410 N   0  0  0  0  0  0  0  0  0  0  0  0
   61.9340   33.4640   46.8480 C   0  0  0  0  0  0  0  0  0  0  0  0
   62.9130   33.6310   48.0140 C   0  0  0  0  0  0  0  0  0  0  0  0
   62.4300   34.5780   48.9440 O   0  0  0  0  0  0  0  0  0  0  0  0
   61.2590   34.0790   49.5550 C   0  0  0  0  0  0  0  0  0  0  0  0
   60.1220   33.9580   48.5360 C   0  0  0  0  0  0  0  0  0  0  0  0
   59.2690   31.3060   46.7580 O   0  0  0  0  0  0  0  0  0  0  0  0
   58.4110   30.6000   46.0210 C   0  0  0  0  0  0  0  0  0  0  0  0
   58.0890   29.2750   46.3870 C   0  0  0  0  0  0  0  0  0  0  0  0
   58.6900   28.6590   47.6260 C   0  0  0  0  0  0  0  0  0  0  0  0
   58.3355   27.5983   43.5823 H   0  0  0  0  0  0  0  0  0  0  0  0
   59.1284   27.1090   42.0466 H   0  0  0  0  0  0  0  0  0  0  0  0
   57.4038   27.6113   42.0466 H   0  0  0  0  0  0  0  0  0  0  0  0
   57.0616   25.3454   42.0669 H   0  0  0  0  0  0  0  0  0  0  0  0
   58.6882   25.0395   42.8628 H   0  0  0  0  0  0  0  0  0  0  0  0
   56.4990   26.2250   44.3670 H   0  0  0  0  0  0  0  0  0  0  0  0
   55.9526   23.9043   45.1369 H   0  0  0  0  0  0  0  0  0  0  0  0
   55.2802   24.5029   43.5825 H   0  0  0  0  0  0  0  0  0  0  0  0
   56.6998   23.4022   43.5825 H   0  0  0  0  0  0  0  0  0  0  0  0
   57.9647   24.2235   45.7057 H   0  0  0  0  0  0  0  0  0  0  0  0
   59.0552   25.4653   44.9384 H   0  0  0  0  0  0  0  0  0  0  0  0
   57.3227   25.6890   47.3087 H   0  0  0  0  0  0  0  0  0  0  0  0
   58.6920   26.7243   46.7552 H   0  0  0  0  0  0  0  0  0  0  0  0
   55.8503   28.5718   43.8839 H   0  0  0  0  0  0  0  0  0  0  0  0
   56.4613   30.8853   43.2133 H   0  0  0  0  0  0  0  0  0  0  0  0
   59.3833   34.2167   45.0855 H   0  0  0  0  0  0  0  0  0  0  0  0
   62.2479   32.6074   46.2334 H   0  0  0  0  0  0  0  0  0  0  0  0
   61.9381   34.3868   46.2493 H   0  0  0  0  0  0  0  0  0  0  0  0
   63.0404   32.6622   48.5192 H   0  0  0  0  0  0  0  0  0  0  0  0
   63.8756   33.9862   47.6175 H   0  0  0  0  0  0  0  0  0  0  0  0
   61.4691   33.0865   49.9802 H   0  0  0  0  0  0  0  0  0  0  0  0
   60.9497   34.7774   50.3465 H   0  0  0  0  0  0  0  0  0  0  0  0
   59.2818   33.4164   48.9950 H   0  0  0  0  0  0  0  0  0  0  0  0
   59.8065   34.9683   48.2363 H   0  0  0  0  0  0  0  0  0  0  0  0
   58.2412   29.1190   48.5188 H   0  0  0  0  0  0  0  0  0  0  0  0
   58.4906   27.5772   47.6313 H   0  0  0  0  0  0  0  0  0  0  0  0
   59.7764   28.8316   47.6313 H   0  0  0  0  0  0  0  0  0  0  0  0
  1  2  1  0
  2  3  1  0
  3  4  1  0
  3  5  1  0
  5  6  1  0
  6  7  1  0
  7  8  1  0
  8  9  2  0
  9 10  1  0
 10 11  2  0
 11 12  1  0
 12 13  2  0
 12 14  1  0
 14 15  2  0
 15 16  1  0
 16 17  1  0
 17 18  1  0
 18 19  1  0
 19 20  1  0
 20 21  1  0
 15 22  1  0
 22 23  1  0
 23 24  2  0
 24 25  1  0
 24  8  1  0
 23 11  1  0
 21 16  1  0
  1 26  1  0
  1 27  1  0
  1 28  1  0
  2 29  1  0
  2 30  1  0
  3 31  1  1
  4 32  1  0
  4 33  1  0
  4 34  1  0
  5 35  1  0
  5 36  1  0
  6 37  1  0
  6 38  1  0
  9 39  1  0
 10 40  1  0
 14 41  1  0
 17 42  1  0
 17 43  1  0
 18 44  1  0
 18 45  1  0
 20 46  1  0
 20 47  1  0
 21 48  1  0
 21 49  1  0
 25 50  1  0
 25 51  1  0
 25 52  1  0
M  CHG  1   3   1
M  END
>  <UniqueID>  (6) 
6

>  <SMILES>  (6) 
CC[N@@H+](C)CCOc1ccc2c(=O)cc(N3CCOCC3)oc2c1C

>  <Energy>  (6) 
63.647508815232264

>  <Genealogy>  (6) 
CC[NH+](C)CCOc1ccc2c(=O)cc(N3CCOCC3)oc2c1C (protonated)
CC[N@@H+](C)CCOc1ccc2c(=O)cc(N3CCOCC3)oc2c1C (chirality)
CC[N@@H+](C)CCOc1ccc2c(=O)cc(N3CCOCC3)oc2c1C (3D coordinates assigned)
CC[N@@H+](C)CCOc1ccc2c(=O)cc(N3CCOCC3)oc2c1C (nonaromatic ring conformer: 63.647508815232264 kcal/mol)

>  <smiles>  (6) 
CCN(C)CCOc1ccc2c(=O)cc(N3CCOCC3)oc2c1C

>  <score_type>  (6) 
oracle

>  <origin>  (6) 
adg

>  <m_score__min__energy>  (6) 
-5.6500000000000004

>  <m_primary>  (6) 
energy

$$$$
6:0
     RDKit          3D

 51 55  0  0  0  0  0  0  0  0999 V2000
   66.2200   32.3370   50.1550 C   0  0  0  0  0  0  0  0  0  0  0  0
   65.2090   33.4320   49.8370 C   0  0  0  0  0  0  0  0  0  0  0  0
   63.9030   32.8370   49.4160 C   0  0  0  0  0  0  0  0  0  0  0  0
   62.7140   33.1520   49.9920 N   0  0  0  0  0  0  0  0  0  0  0  0
   61.8490   32.4290   49.2470 C   0  0  0  0  0  0  0  0  0  0  0  0
   60.4590   32.3730   49.3880 C   0  0  0  0  0  0  0  0  0  0  0  0
   59.7350   33.1200   50.4840 C   0  0  2  0  0  0  0  0  0  0  0  0
   60.4850   32.9300   51.8230 C   0  0  0  0  0  0  0  0  0  0  0  0
   59.8230   33.6540   52.9220 N   0  0  0  0  0  0  0  0  0  0  0  0
   58.3700   33.7970   52.7290 C   0  0  0  0  0  0  0  0  0  0  0  0
   57.8090   32.6910   51.8210 C   0  0  0  0  0  0  0  0  0  0  0  0
   58.3740   32.7000   50.5180 O   0  0  0  0  0  0  0  0  0  0  0  0
   59.7610   31.5290   48.4960 C   0  0  0  0  0  0  0  0  0  0  0  0
   60.4470   30.7980   47.4980 C   0  0  0  0  0  0  0  0  0  0  0  0
   59.6970   29.9380   46.5580 C   0  0  0  0  0  0  0  0  0  0  0  0
   59.7260   28.5450   46.5240 C   0  0  0  0  0  0  0  0  0  0  0  0
   58.9130   28.0830   45.5450 N   0  0  0  0  0  0  0  0  0  0  0  0
   58.7020   26.6840   45.1880 C   0  0  0  0  0  0  0  0  0  0  0  0
   58.3820   29.1670   44.9450 C   0  0  0  0  0  0  0  0  0  0  0  0
   57.5130   29.1990   43.8520 C   0  0  0  0  0  0  0  0  0  0  0  0
   57.1160   30.4540   43.3600 C   0  0  0  0  0  0  0  0  0  0  0  0
   56.2750   30.5280   42.2990 F   0  0  0  0  0  0  0  0  0  0  0  0
   57.6020   31.6390   43.9530 C   0  0  0  0  0  0  0  0  0  0  0  0
   58.4810   31.5800   45.0490 C   0  0  0  0  0  0  0  0  0  0  0  0
   58.8400   30.3200   45.5360 C   0  0  0  0  0  0  0  0  0  0  0  0
   61.8450   30.9310   47.4000 C   0  0  0  0  0  0  0  0  0  0  0  0
   62.4750   31.7360   48.2890 N   0  0  0  0  0  0  0  0  0  0  0  0
   63.7650   31.9870   48.3750 N   0  0  0  0  0  0  0  0  0  0  0  0
   66.3164   32.2325   51.2458 H   0  0  0  0  0  0  0  0  0  0  0  0
   65.8768   31.3848   49.7244 H   0  0  0  0  0  0  0  0  0  0  0  0
   67.1966   32.6033   49.7244 H   0  0  0  0  0  0  0  0  0  0  0  0
   65.0523   34.0505   50.7330 H   0  0  0  0  0  0  0  0  0  0  0  0
   65.6002   34.0473   49.0133 H   0  0  0  0  0  0  0  0  0  0  0  0
   59.7245   34.2025   50.2889 H   0  0  0  0  0  0  0  0  0  0  0  0
   60.5132   31.8579   52.0675 H   0  0  0  0  0  0  0  0  0  0  0  0
   61.5020   33.3332   51.7083 H   0  0  0  0  0  0  0  0  0  0  0  0
   60.2380   34.6130   52.9870 H   0  0  0  0  0  0  0  0  0  0  0  0
   57.8725   33.7415   53.7085 H   0  0  0  0  0  0  0  0  0  0  0  0
   58.1805   34.7674   52.2470 H   0  0  0  0  0  0  0  0  0  0  0  0
   58.0178   31.7164   52.2864 H   0  0  0  0  0  0  0  0  0  0  0  0
   56.7296   32.8724   51.7117 H   0  0  0  0  0  0  0  0  0  0  0  0
   58.6678   31.4388   48.5786 H   0  0  0  0  0  0  0  0  0  0  0  0
   60.3237   27.9118   47.1962 H   0  0  0  0  0  0  0  0  0  0  0  0
   58.6111   26.0816   46.1039 H   0  0  0  0  0  0  0  0  0  0  0  0
   57.7798   26.5918   44.5955 H   0  0  0  0  0  0  0  0  0  0  0  0
   59.5560   26.3240   44.5955 H   0  0  0  0  0  0  0  0  0  0  0  0
   57.1500   28.2691   43.3899 H   0  0  0  0  0  0  0  0  0  0  0  0
   57.2908   32.6160   43.5548 H   0  0  0  0  0  0  0  0  0  0  0  0
   58.8744   32.4983   45.5095 H   0  0  0  0  0  0  0  0  0  0  0  0
   62.4104   30.3959   46.6228 H   0  0  0  0  0  0  0  0  0  0  0  0
   64.5100   31.6010   47.7520 H   0  0  0  0  0  0  0  0  0  0  0  0
  1  2  1  0
  2  3  1  0
  3  4  1  0
  4  5  2  0
  5  6  1  0
  6  7  1  0
  7  8  1  0
  8  9  1  0
  9 10  1  0
 10 11  1  0
 11 12  1  0
  6 13  2  0
 13 14  1  0
 14 15  1  0
 15 16  2  0
 16 17  1  0
 17 18  1  0
 17 19  1  0
 19 20  2  0
 20 21  1  0
 21 22  1  0
 21 23  2  0
 23 24  1  0
 24 25  2  0
 14 26  2  0
 26 27  1  0
 27 28  1  0
 28  3  2  0
 27  5  1  0
 12  7  1  0
 25 15  1  0
 25 19  1  0
  1 29  1  0
  1 30  1  0
  1 31  1  0
  2 32  1  0
  2 33  1  0
  7 34  1  6
  8 35  1  0
  8 36  1  0
  9 37  1  0
 10 38  1  0
 10 39  1  0
 11 40  1  0
 11 41  1  0
 13 42  1  0
 16 43  1  0
 18 44  1  0
 18 45  1  0
 18 46  1  0
 20 47  1  0
 23 48  1  0
 24 49  1  0
 26 50  1  0
 28 51  1  0
M  CHG  1  28   1
M  END
>  <UniqueID>  (7) 
7

>  <SMILES>  (7) 
CCc1nc2c([C@@H]3CNCCO3)cc(-c3cn(C)c4cc(F)ccc34)cn2[nH+]1

>  <Energy>  (7) 
140.41057272415605

>  <Genealogy>  (7) 
CCc1nc2c(C3CNCCO3)cc(-c3cn(C)c4cc(F)ccc34)cn2[nH+]1 (protonated)
CCc1nc2c([C@@H]3CNCCO3)cc(-c3cn(C)c4cc(F)ccc34)cn2[nH+]1 (chirality)
CCc1nc2c([C@@H]3CNCCO3)cc(-c3cn(C)c4cc(F)ccc34)cn2[nH+]1 (3D coordinates assigned)
CCc1nc2c([C@@H]3CNCCO3)cc(-c3cn(C)c4cc(F)ccc34)cn2[nH+]1 (nonaromatic ring conformer: 140.41057272415605 kcal/mol)

>  <smiles>  (7) 
CCc1nc2c(C3CNCCO3)cc(-c3cn(C)c4cc(F)ccc34)cn2n1

>  <score_type>  (7) 
oracle

>  <origin>  (7) 
adg

>  <m_score__min__energy>  (7) 
-6.79

>  <m_primary>  (7) 
energy

$$$$
7:0
     RDKit          3D

 59 61  0  0  0  0  0  0  0  0999 V2000
   58.4560   31.2540   50.6490 C   0  0  0  0  0  0  0  0  0  0  0  0
   59.0430   29.8390   50.6130 C   0  0  0  0  0  0  0  0  0  0  0  0
   60.0210   29.6620   49.5240 N   0  0  0  0  0  0  0  0  0  0  0  0
   59.9950   28.2990   48.9700 C   0  0  0  0  0  0  0  0  0  0  0  0
   59.6910   28.3290   47.4670 C   0  0  0  0  0  0  0  0  0  0  0  0
   60.3440   29.4760   46.8370 N   0  0  0  0  0  0  0  0  0  0  0  0
   59.5720   30.5580   46.2930 C   0  0  0  0  0  0  0  0  0  0  0  0
   58.5870   30.2780   45.3260 C   0  0  0  0  0  0  0  0  0  0  0  0
   58.3800   28.9590   44.8640 C   0  0  0  0  0  0  0  0  0  0  0  0
   57.4260   28.6850   43.8870 C   0  0  0  0  0  0  0  0  0  0  0  0
   56.6780   29.7190   43.3370 C   0  0  0  0  0  0  0  0  0  0  0  0
   56.8730   31.0310   43.7680 C   0  0  0  0  0  0  0  0  0  0  0  0
   57.8140   31.3360   44.7860 C   0  0  0  0  0  0  0  0  0  0  0  0
   58.0080   32.6290   45.2260 N   0  0  0  0  0  0  0  0  0  0  0  0
   57.0240   33.6810   44.8850 C   0  0  0  0  0  0  0  0  0  0  0  0
   59.1120   32.9380   45.9980 C   0  0  0  0  0  0  0  0  0  0  0  0
   59.5190   34.2790   46.1820 C   0  0  0  0  0  0  0  0  0  0  0  0
   60.6080   34.5980   46.9800 C   0  0  0  0  0  0  0  0  0  0  0  0
   61.3060   33.6050   47.6630 C   0  0  0  0  0  0  0  0  0  0  0  0
   62.4870   33.9680   48.3950 N   0  0  0  0  0  0  0  0  0  0  0  0
   62.3700   34.5120   49.7480 C   0  0  0  0  0  0  0  0  0  0  0  0
   63.7570   34.0800   47.6760 C   0  0  0  0  0  0  0  0  0  0  0  0
   60.9030   32.2560   47.5400 C   0  0  0  0  0  0  0  0  0  0  0  0
   61.4890   31.2610   48.3410 O   0  0  0  0  0  0  0  0  0  0  0  0
   62.8670   31.2130   48.7270 C   0  0  0  0  0  0  0  0  0  0  0  0
   63.0250   31.1810   50.2440 C   0  0  0  0  0  0  0  0  0  0  0  0
   59.8750   31.9060   46.6150 C   0  0  0  0  0  0  0  0  0  0  0  0
   58.3249   31.5701   51.6944 H   0  0  0  0  0  0  0  0  0  0  0  0
   59.1405   31.9480   50.1392 H   0  0  0  0  0  0  0  0  0  0  0  0
   57.4813   31.2597   50.1392 H   0  0  0  0  0  0  0  0  0  0  0  0
   59.5431   29.6398   51.5723 H   0  0  0  0  0  0  0  0  0  0  0  0
   58.2145   29.1374   50.4360 H   0  0  0  0  0  0  0  0  0  0  0  0
   60.9730   29.8480   49.9170 H   0  0  0  0  0  0  0  0  0  0  0  0
   59.8390   30.3600   48.7640 H   0  0  0  0  0  0  0  0  0  0  0  0
   60.9748   27.8255   49.1306 H   0  0  0  0  0  0  0  0  0  0  0  0
   59.2056   27.7262   49.4786 H   0  0  0  0  0  0  0  0  0  0  0  0
   60.0607   27.4022   47.0040 H   0  0  0  0  0  0  0  0  0  0  0  0
   58.6037   28.4153   47.3248 H   0  0  0  0  0  0  0  0  0  0  0  0
   61.3730   29.6170   46.9670 H   0  0  0  0  0  0  0  0  0  0  0  0
   58.9804   28.1373   45.2816 H   0  0  0  0  0  0  0  0  0  0  0  0
   57.2646   27.6502   43.5507 H   0  0  0  0  0  0  0  0  0  0  0  0
   55.9303   29.5022   42.5598 H   0  0  0  0  0  0  0  0  0  0  0  0
   56.2879   31.8429   43.3115 H   0  0  0  0  0  0  0  0  0  0  0  0
   56.6171   34.1161   45.8097 H   0  0  0  0  0  0  0  0  0  0  0  0
   57.5178   34.4679   44.2959 H   0  0  0  0  0  0  0  0  0  0  0  0
   56.2059   33.2408   44.2959 H   0  0  0  0  0  0  0  0  0  0  0  0
   58.9615   35.0852   45.6828 H   0  0  0  0  0  0  0  0  0  0  0  0
   60.9239   35.6474   47.0744 H   0  0  0  0  0  0  0  0  0  0  0  0
   62.5423   33.7106   50.4816 H   0  0  0  0  0  0  0  0  0  0  0  0
   63.1179   35.3060   49.8899 H   0  0  0  0  0  0  0  0  0  0  0  0
   61.3618   34.9283   49.8899 H   0  0  0  0  0  0  0  0  0  0  0  0
   64.5826   34.1528   48.3992 H   0  0  0  0  0  0  0  0  0  0  0  0
   63.9003   33.1910   47.0442 H   0  0  0  0  0  0  0  0  0  0  0  0
   63.7425   34.9804   47.0442 H   0  0  0  0  0  0  0  0  0  0  0  0
   63.3256   30.3083   48.3013 H   0  0  0  0  0  0  0  0  0  0  0  0
   63.3618   32.1197   48.3488 H   0  0  0  0  0  0  0  0  0  0  0  0
   62.0522   31.3780   50.7182 H   0  0  0  0  0  0  0  0  0  0  0  0
   63.3901   30.1907   50.5538 H   0  0  0  0  0  0  0  0  0  0  0  0
   63.7466   31.9512   50.5538 H   0  0  0  0  0  0  0  0  0  0  0  0
  1  2  1  0
  2  3  1  0
  3  4  1  0
  4  5  1  0
  5  6  1  0
  6  7  1  0
  7  8  2  0
  8  9  1  0
  9 10  2  0
 10 11  1  0
 11 12  2  0
 12 13  1  0
 13 14  2  0
 14 15  1  0
 14 16  1  0
 16 17  2  0
 17 18  1  0
 18 19  2  0
 19 20  1  0
 20 21  1  0
 20 22  1  0
 19 23  1  0
 23 24  1  0
 24 25  1  0
 25 26  1  0
 23 27  2  0
 27  7  1  0
 13  8  1  0
 27 16  1  0
  1 28  1  0
  1 29  1  0
  1 30  1  0
  2 31  1  0
  2 32  1  0
  3 33  1  0
  3 34  1  0
  4 35  1  0
  4 36  1  0
  5 37  1  0
  5 38  1  0
  6 39  1  0
  9 40  1  0
 10 41  1  0
 11 42  1  0
 12 43  1  0
 15 44  1  0
 15 45  1  0
 15 46  1  0
 17 47  1  0
 18 48  1  0
 21 49  1  0
 21 50  1  0
 21 51  1  0
 22 52  1  0
 22 53  1  0
 22 54  1  0
 25 55  1  0
 25 56  1  0
 26 57  1  0
 26 58  1  0
 26 59  1  0
M  CHG  2   3   1  14   1
M  END
>  <UniqueID>  (8) 
8

>  <SMILES>  (8) 
CC[NH2+]CCNc1c2ccccc2[n+](C)c2ccc(N(C)C)c(OCC)c12

>  <Energy>  (8) 
91.12729745682243

>  <Genealogy>  (8) 
CC[NH2+]CCNc1c2ccccc2[n+](C)c2ccc(N(C)C)c(OCC)c12 (protonated)
CC[NH2+]CCNc1c2ccccc2[n+](C)c2ccc(N(C)C)c(OCC)c12 (3D coordinates assigned)
CC[NH2+]CCNc1c2ccccc2[n+](C)c2ccc(N(C)C)c(OCC)c12 (optimized conformer: 91.12729745682243 kcal/mol)

>  <smiles>  (8) 
CCNCCNc1c2ccccc2[n+](C)c2ccc(N(C)C)c(OCC)c12

>  <score_type>  (8) 
oracle

>  <origin>  (8) 
adg

>  <m_score__min__energy>  (8) 
-3.4100000000000001

>  <m_primary>  (8) 
energy

$$$$
8:0
     RDKit          3D

 61 63  0  0  0  0  0  0  0  0999 V2000
   60.0550   34.9860   46.0210 C   0  0  0  0  0  0  0  0  0  0  0  0
   59.0150   34.6770   47.1080 C   0  0  0  0  0  0  0  0  0  0  0  0
   57.8470   33.8920   46.6420 N   0  0  0  0  0  0  0  0  0  0  0  0
   57.4120   34.1480   45.2590 C   0  0  0  0  0  0  0  0  0  0  0  0
   57.8420   32.4620   47.0290 C   0  0  0  0  0  0  0  0  0  0  0  0
   58.3890   31.5180   45.9520 C   0  0  0  0  0  0  0  0  0  0  0  0
   57.3950   30.5620   45.6370 O   0  0  0  0  0  0  0  0  0  0  0  0
   57.8050   29.7520   44.5520 C   0  0  0  0  0  0  0  0  0  0  0  0
   59.3280   29.6630   44.5010 C   0  0  0  0  0  0  0  0  0  0  0  0
   59.7740   28.8500   45.5650 O   0  0  0  0  0  0  0  0  0  0  0  0
   59.2630   27.5440   45.4120 C   0  0  0  0  0  0  0  0  0  0  0  0
   58.5630   27.1250   46.7020 C   0  0  0  0  0  0  0  0  0  0  0  0
   58.3180   28.3070   47.5400 N   0  0  0  0  0  0  0  0  0  0  0  0
   59.2860   28.3990   48.6430 C   0  0  0  0  0  0  0  0  0  0  0  0
   59.1560   29.7170   49.3700 C   0  0  0  0  0  0  0  0  0  0  0  0
   58.1440   29.8500   50.2690 N   0  0  0  0  0  0  0  0  0  0  0  0
   57.9250   30.9800   50.9480 N   0  0  0  0  0  0  0  0  0  0  0  0
   56.8130   31.0180   51.9010 C   0  0  0  0  0  0  0  0  0  0  0  0
   58.7250   32.0740   50.7610 C   0  0  0  0  0  0  0  0  0  0  0  0
   58.5130   33.1390   51.4060 O   0  0  0  0  0  0  0  0  0  0  0  0
   59.7830   32.0090   49.8500 C   0  0  0  0  0  0  0  0  0  0  0  0
   60.5820   33.0930   49.6510 N   0  0  0  0  0  0  0  0  0  0  0  0
   61.6200   33.0710   48.7770 C   0  0  0  0  0  0  0  0  0  0  0  0
   62.4150   34.2080   48.6070 C   0  0  0  0  0  0  0  0  0  0  0  0
   63.4860   34.1830   47.7110 C   0  0  0  0  0  0  0  0  0  0  0  0
   63.7660   33.0250   46.9790 C   0  0  0  0  0  0  0  0  0  0  0  0
   62.9750   31.8860   47.1400 C   0  0  0  0  0  0  0  0  0  0  0  0
   61.9000   31.9000   48.0420 C   0  0  0  0  0  0  0  0  0  0  0  0
   61.0960   30.7700   48.2320 C   0  0  0  0  0  0  0  0  0  0  0  0
   60.0170   30.8130   49.1390 C   0  0  0  0  0  0  0  0  0  0  0  0
   61.0069   35.2688   46.4941 H   0  0  0  0  0  0  0  0  0  0  0  0
   60.2073   34.0943   45.3952 H   0  0  0  0  0  0  0  0  0  0  0  0
   59.6957   35.8162   45.3952 H   0  0  0  0  0  0  0  0  0  0  0  0
   59.5131   34.1086   47.9072 H   0  0  0  0  0  0  0  0  0  0  0  0
   58.6223   35.6469   47.4472 H   0  0  0  0  0  0  0  0  0  0  0  0
   56.4640   34.7059   45.2701 H   0  0  0  0  0  0  0  0  0  0  0  0
   58.1790   34.7387   44.7368 H   0  0  0  0  0  0  0  0  0  0  0  0
   57.2679   33.1906   44.7368 H   0  0  0  0  0  0  0  0  0  0  0  0
   58.4575   32.3472   47.9334 H   0  0  0  0  0  0  0  0  0  0  0  0
   56.7907   32.1818   47.1908 H   0  0  0  0  0  0  0  0  0  0  0  0
   58.6465   32.0944   45.0512 H   0  0  0  0  0  0  0  0  0  0  0  0
   59.2918   31.0106   46.3229 H   0  0  0  0  0  0  0  0  0  0  0  0
   57.3867   28.7421   44.6751 H   0  0  0  0  0  0  0  0  0  0  0  0
   57.4419   30.1995   43.6151 H   0  0  0  0  0  0  0  0  0  0  0  0
   59.6403   29.2217   43.5430 H   0  0  0  0  0  0  0  0  0  0  0  0
   59.7635   30.6690   44.5925 H   0  0  0  0  0  0  0  0  0  0  0  0
   58.5435   27.5255   44.5802 H   0  0  0  0  0  0  0  0  0  0  0  0
   60.0866   26.8478   45.1954 H   0  0  0  0  0  0  0  0  0  0  0  0
   57.6039   26.6448   46.4580 H   0  0  0  0  0  0  0  0  0  0  0  0
   59.2024   26.4169   47.2495 H   0  0  0  0  0  0  0  0  0  0  0  0
   58.4390   29.1580   46.9390 H   0  0  0  0  0  0  0  0  0  0  0  0
   59.1028   27.5779   49.3516 H   0  0  0  0  0  0  0  0  0  0  0  0
   60.3010   28.3284   48.2249 H   0  0  0  0  0  0  0  0  0  0  0  0
   57.2089   31.0045   52.9272 H   0  0  0  0  0  0  0  0  0  0  0  0
   56.2282   31.9367   51.7457 H   0  0  0  0  0  0  0  0  0  0  0  0
   56.1669   30.1414   51.7457 H   0  0  0  0  0  0  0  0  0  0  0  0
   62.1972   35.1222   49.1787 H   0  0  0  0  0  0  0  0  0  0  0  0
   64.1119   35.0781   47.5806 H   0  0  0  0  0  0  0  0  0  0  0  0
   64.6111   33.0115   46.2750 H   0  0  0  0  0  0  0  0  0  0  0  0
   63.1944   30.9775   46.5598 H   0  0  0  0  0  0  0  0  0  0  0  0
   61.3063   29.8465   47.6726 H   0  0  0  0  0  0  0  0  0  0  0  0
  1  2  1  0
  2  3  1  0
  3  4  1  0
  3  5  1  0
  5  6  1  0
  6  7  1  0
  7  8  1  0
  8  9  1  0
  9 10  1  0
 10 11  1  0
 11 12  1  0
 12 13  1  0
 13 14  1  0
 14 15  1  0
 15 16  2  0
 16 17  1  0
 17 18  1  0
 17 19  1  0
 19 20  2  0
 19 21  1  0
 21 22  2  0
 22 23  1  0
 23 24  2  0
 24 25  1  0
 25 26  2  0
 26 27  1  0
 27 28  2  0
 28 29  1  0
 29 30  2  0
 30 15  1  0
 30 21  1  0
 28 23  1  0
  1 31  1  0
  1 32  1  0
  1 33  1  0
  2 34  1  0
  2 35  1  0
  4 36  1  0
  4 37  1  0
  4 38  1  0
  5 39  1  0
  5 40  1  0
  6 41  1  0
  6 42  1  0
  8 43  1  0
  8 44  1  0
  9 45  1  0
  9 46  1  0
 11 47  1  0
 11 48  1  0
 12 49  1  0
 12 50  1  0
 13 51  1  0
 14 52  1  0
 14 53  1  0
 18 54  1  0
 18 55  1  0
 18 56  1  0
 24 57  1  0
 25 58  1  0
 26 59  1  0
 27 60  1  0
 29 61  1  0
M  END
>  <UniqueID>  (9) 
9

>  <SMILES>  (9) 
CCN(C)CCOCCOCCNCc1nn(C)c(=O)c2nc3ccccc3cc12

>  <Energy>  (9) 
72.73347667025358

>  <Genealogy>  (9) 
CCN(C)CCOCCOCCNCc1nn(C)c(=O)c2nc3ccccc3cc12 (3D coordinates assigned)
CCN(C)CCOCCOCCNCc1nn(C)c(=O)c2nc3ccccc3cc12 (optimized conformer: 72.73347667025358 kcal/mol)

>  <smiles>  (9) 
CCN(C)CCOCCOCCNCc1nn(C)c(=O)c2nc3ccccc3cc12

>  <score_type>  (9) 
oracle

>  <origin>  (9) 
adg

>  <m_score__min__energy>  (9) 
-7.0700000000000003

>  <m_primary>  (9) 
energy

$$$$
9:0
     RDKit          3D

 80 82  0  0  0  0  0  0  0  0999 V2000
   54.7680   30.8370   51.6830 C   0  0  0  0  0  0  0  0  0  0  0  0
   56.1270   30.3270   52.1840 C   0  0  0  0  0  0  0  0  0  0  0  0
   57.2590   30.5240   51.2400 N   0  0  0  0  0  0  0  0  0  0  0  0
   58.5040   29.8190   51.6350 C   0  0  0  0  0  0  0  0  0  0  0  0
   58.4060   29.2160   53.0370 C   0  0  0  0  0  0  0  0  0  0  0  0
   57.5230   31.9510   50.9460 C   0  0  0  0  0  0  0  0  0  0  0  0
   57.9570   32.7550   52.1900 C   0  0  0  0  0  0  0  0  0  0  0  0
   58.9260   33.9180   51.8850 C   0  0  0  0  0  0  0  0  0  0  0  0
   59.9930   33.5800   50.8190 C   0  0  0  0  0  0  0  0  0  0  0  0
   59.6750   34.1610   49.4360 C   0  0  0  0  0  0  0  0  0  0  0  0
   59.7750   33.1500   48.3810 N   0  0  0  0  0  0  0  0  0  0  0  0
   58.8340   33.0660   47.2900 C   0  0  0  0  0  0  0  0  0  0  0  0
   58.3120   34.2510   46.7460 C   0  0  0  0  0  0  0  0  0  0  0  0
   57.6180   34.2370   45.5470 C   0  0  0  0  0  0  0  0  0  0  0  0
   57.4290   33.0450   44.8600 C   0  0  0  0  0  0  0  0  0  0  0  0
   57.8640   31.8110   45.4000 C   0  0  0  0  0  0  0  0  0  0  0  0
   58.5500   31.8220   46.6510 C   0  0  0  0  0  0  0  0  0  0  0  0
   58.8890   30.5800   47.2330 C   0  0  0  0  0  0  0  0  0  0  0  0
   59.0890   30.4640   48.6520 N   0  0  0  0  0  0  0  0  0  0  0  0
   60.4410   30.2890   49.1880 C   0  0  0  0  0  0  0  0  0  0  0  0
   61.5100   30.5920   48.1110 C   0  0  0  0  0  0  0  0  0  0  0  0
   62.2820   31.8370   48.3480 N   0  0  0  0  0  0  0  0  0  0  0  0
   63.0660   32.3000   47.1810 C   0  0  0  0  0  0  0  0  0  0  0  0
   62.6610   33.7090   46.7410 C   0  0  0  0  0  0  0  0  0  0  0  0
   63.1050   31.7600   49.5780 C   0  0  0  0  0  0  0  0  0  0  0  0
   64.3630   32.6100   49.4200 C   0  0  0  0  0  0  0  0  0  0  0  0
   58.8570   29.4190   46.4460 C   0  0  0  0  0  0  0  0  0  0  0  0
   59.4060   28.2100   46.9240 C   0  0  0  0  0  0  0  0  0  0  0  0
   59.4200   27.0720   46.1200 C   0  0  0  0  0  0  0  0  0  0  0  0
   58.9030   27.1260   44.8300 C   0  0  0  0  0  0  0  0  0  0  0  0
   58.3380   28.3060   44.3480 C   0  0  0  0  0  0  0  0  0  0  0  0
   58.2710   29.4670   45.1590 C   0  0  0  0  0  0  0  0  0  0  0  0
   57.6390   30.6180   44.7360 N   0  0  0  0  0  0  0  0  0  0  0  0
   56.7070   30.5690   43.5890 C   0  0  0  0  0  0  0  0  0  0  0  0
   54.1267   31.0777   52.5437 H   0  0  0  0  0  0  0  0  0  0  0  0
   54.9175   31.7402   51.0732 H   0  0  0  0  0  0  0  0  0  0  0  0
   54.2863   30.0585   51.0732 H   0  0  0  0  0  0  0  0  0  0  0  0
   56.3663   30.8553   53.1187 H   0  0  0  0  0  0  0  0  0  0  0  0
   56.0192   29.2398   52.3121 H   0  0  0  0  0  0  0  0  0  0  0  0
   58.6973   29.0107   50.9144 H   0  0  0  0  0  0  0  0  0  0  0  0
   59.3218   30.5547   51.6400 H   0  0  0  0  0  0  0  0  0  0  0  0
   58.5350   30.0099   53.7874 H   0  0  0  0  0  0  0  0  0  0  0  0
   57.4197   28.7463   53.1660 H   0  0  0  0  0  0  0  0  0  0  0  0
   59.1928   28.4581   53.1660 H   0  0  0  0  0  0  0  0  0  0  0  0
   58.3231   32.0113   50.1935 H   0  0  0  0  0  0  0  0  0  0  0  0
   56.5823   32.3907   50.5829 H   0  0  0  0  0  0  0  0  0  0  0  0
   57.0557   33.1719   52.6632 H   0  0  0  0  0  0  0  0  0  0  0  0
   58.4977   32.0563   52.8454 H   0  0  0  0  0  0  0  0  0  0  0  0
   58.3369   34.7748   51.5260 H   0  0  0  0  0  0  0  0  0  0  0  0
   59.4651   34.1380   52.8183 H   0  0  0  0  0  0  0  0  0  0  0  0
   60.9602   33.9836   51.1531 H   0  0  0  0  0  0  0  0  0  0  0  0
   60.0139   32.4851   50.7151 H   0  0  0  0  0  0  0  0  0  0  0  0
   58.6513   34.5635   49.4465 H   0  0  0  0  0  0  0  0  0  0  0  0
   60.4103   34.9505   49.2214 H   0  0  0  0  0  0  0  0  0  0  0  0
   60.6720   32.6220   48.2940 H   0  0  0  0  0  0  0  0  0  0  0  0
   58.4561   35.2025   47.2788 H   0  0  0  0  0  0  0  0  0  0  0  0
   57.2147   35.1747   45.1372 H   0  0  0  0  0  0  0  0  0  0  0  0
   56.9324   33.0601   43.8786 H   0  0  0  0  0  0  0  0  0  0  0  0
   58.3470   30.8140   49.2980 H   0  0  0  0  0  0  0  0  0  0  0  0
   60.5823   30.9737   50.0373 H   0  0  0  0  0  0  0  0  0  0  0  0
   60.5565   29.2439   49.5111 H   0  0  0  0  0  0  0  0  0  0  0  0
   62.2165   29.7494   48.0806 H   0  0  0  0  0  0  0  0  0  0  0  0
   60.9701   30.7326   47.1630 H   0  0  0  0  0  0  0  0  0  0  0  0
   64.1328   32.3045   47.4490 H   0  0  0  0  0  0  0  0  0  0  0  0
   62.8688   31.6130   46.3449 H   0  0  0  0  0  0  0  0  0  0  0  0
   62.4816   34.3330   47.6289 H   0  0  0  0  0  0  0  0  0  0  0  0
   63.4684   34.1514   46.1389 H   0  0  0  0  0  0  0  0  0  0  0  0
   61.7420   33.6552   46.1389 H   0  0  0  0  0  0  0  0  0  0  0  0
   62.5194   32.1317   50.4317 H   0  0  0  0  0  0  0  0  0  0  0  0
   63.3964   30.7136   49.7519 H   0  0  0  0  0  0  0  0  0  0  0  0
   64.7541   32.8743   50.4136 H   0  0  0  0  0  0  0  0  0  0  0  0
   65.1235   32.0399   48.8663 H   0  0  0  0  0  0  0  0  0  0  0  0
   64.1179   33.5283   48.8663 H   0  0  0  0  0  0  0  0  0  0  0  0
   59.8263   28.1656   47.9396 H   0  0  0  0  0  0  0  0  0  0  0  0
   59.8398   26.1312   46.5055 H   0  0  0  0  0  0  0  0  0  0  0  0
   58.9400   26.2340   44.1873 H   0  0  0  0  0  0  0  0  0  0  0  0
   57.9384   28.3366   43.3236 H   0  0  0  0  0  0  0  0  0  0  0  0
   55.6726   30.5146   43.9591 H   0  0  0  0  0  0  0  0  0  0  0  0
   56.8304   31.4749   42.9773 H   0  0  0  0  0  0  0  0  0  0  0  0
   56.9247   29.6811   42.9773 H   0  0  0  0  0  0  0  0  0  0  0  0
  1  2  1  0
  2  3  1  0
  3  4  1  0
  4  5  1  0
  3  6  1  0
  6  7  1  0
  7  8  1  0
  8  9  1  0
  9 10  1  0
 10 11  1  0
 11 12  1  0
 12 13  2  0
 13 14  1  0
 14 15  2  0
 15 16  1  0
 16 17  2  0
 17 18  1  0
 18 19  1  0
 19 20  1  0
 20 21  1  0
 21 22  1  0
 22 23  1  0
 23 24  1  0
 22 25  1  0
 25 26  1  0
 18 27  2  0
 27 28  1  0
 28 29  2  0
 29 30  1  0
 30 31  2  0
 31 32  1  0
 32 33  2  0
 33 34  1  0
 17 12  1  0
 32 27  1  0
 33 16  1  0
  1 35  1  0
  1 36  1  0
  1 37  1  0
  2 38  1  0
  2 39  1  0
  4 40  1  0
  4 41  1  0
  5 42  1  0
  5 43  1  0
  5 44  1  0
  6 45  1  0
  6 46  1  0
  7 47  1  0
  7 48  1  0
  8 49  1  0
  8 50  1  0
  9 51  1  0
  9 52  1  0
 10 53  1  0
 10 54  1  0
 11 55  1  0
 13 56  1  0
 14 57  1  0
 15 58  1  0
 19 59  1  0
 20 60  1  0
 20 61  1  0
 21 62  1  0
 21 63  1  0
 23 64  1  0
 23 65  1  0
 24 66  1  0
 24 67  1  0
 24 68  1  0
 25 69  1  0
 25 70  1  0
 26 71  1  0
 26 72  1  0
 26 73  1  0
 28 74  1  0
 29 75  1  0
 30 76  1  0
 31 77  1  0
 34 78  1  0
 34 79  1  0
 34 80  1  0
M  CHG  1  33   1
M  END
>  <UniqueID>  (10) 
10

>  <SMILES>  (10) 
CCN(CC)CCCCCNc1cccc2c1c(NCCN(CC)CC)c1ccccc1[n+]2C

>  <Energy>  (10) 
113.4247829957616

>  <Genealogy>  (10) 
CCN(CC)CCCCCNc1cccc2c1c(NCCN(CC)CC)c1ccccc1[n+]2C (3D coordinates assigned)
CCN(CC)CCCCCNc1cccc2c1c(NCCN(CC)CC)c1ccccc1[n+]2C (optimized conformer: 113.4247829957616 kcal/mol)

>  <smiles>  (10) 
CCN(CC)CCCCCNc1cccc2c1c(NCCN(CC)CC)c1ccccc1[n+]2C

>  <score_type>  (10) 
oracle

>  <origin>  (10) 
adg

>  <m_score__min__energy>  (10) 
-6.0800000000000001

>  <m_primary>  (10) 
energy

$$$$
10:0
     RDKit          3D

 36 38  0  0  0  0  0  0  0  0999 V2000
   63.1890   33.8140   49.8960 C   0  0  0  0  0  0  0  0  0  0  0  0
   64.1710   32.8450   49.2440 C   0  0  0  0  0  0  0  0  0  0  0  0
   63.8120   32.6070   47.8450 N   0  0  0  0  0  0  0  0  0  0  0  0
   62.4690   32.6480   47.3220 C   0  0  0  0  0  0  0  0  0  0  0  0
   61.8800   33.8420   46.8710 C   0  0  0  0  0  0  0  0  0  0  0  0
   60.5730   33.8450   46.3760 C   0  0  0  0  0  0  0  0  0  0  0  0
   59.8260   32.6550   46.3180 C   0  0  0  0  0  0  0  0  0  0  0  0
   60.4260   31.4480   46.7310 C   0  0  0  0  0  0  0  0  0  0  0  0
   61.7320   31.4560   47.2460 C   0  0  0  0  0  0  0  0  0  0  0  0
   59.6420   30.1600   46.7070 C   0  0  0  0  0  0  0  0  0  0  0  0
   58.5490   30.1740   45.6700 C   0  0  0  0  0  0  0  0  0  0  0  0
   58.0540   28.9610   45.1640 C   0  0  0  0  0  0  0  0  0  0  0  0
   57.0120   28.9590   44.2330 C   0  0  0  0  0  0  0  0  0  0  0  0
   56.4530   30.1630   43.8060 C   0  0  0  0  0  0  0  0  0  0  0  0
   56.9240   31.3750   44.3150 C   0  0  0  0  0  0  0  0  0  0  0  0
   57.9650   31.3940   45.2660 C   0  0  0  0  0  0  0  0  0  0  0  0
   58.4760   32.6350   45.8000 N   0  0  0  0  0  0  0  0  0  0  0  0
   57.6470   33.8470   45.8140 C   0  0  0  0  0  0  0  0  0  0  0  0
   63.2685   33.7356   50.9903 H   0  0  0  0  0  0  0  0  0  0  0  0
   63.4262   34.8418   49.5838 H   0  0  0  0  0  0  0  0  0  0  0  0
   62.1645   33.5632   49.5838 H   0  0  0  0  0  0  0  0  0  0  0  0
   65.1836   33.2723   49.2892 H   0  0  0  0  0  0  0  0  0  0  0  0
   64.1357   31.8882   49.7856 H   0  0  0  0  0  0  0  0  0  0  0  0
   64.5960   32.4010   47.1850 H   0  0  0  0  0  0  0  0  0  0  0  0
   62.4520   34.7809   46.9079 H   0  0  0  0  0  0  0  0  0  0  0  0
   60.1243   34.7873   46.0284 H   0  0  0  0  0  0  0  0  0  0  0  0
   62.1837   30.5155   47.5946 H   0  0  0  0  0  0  0  0  0  0  0  0
   60.3302   29.3313   46.4842 H   0  0  0  0  0  0  0  0  0  0  0  0
   59.1689   30.0361   47.6923 H   0  0  0  0  0  0  0  0  0  0  0  0
   58.4884   28.0086   45.5020 H   0  0  0  0  0  0  0  0  0  0  0  0
   56.6320   28.0060   43.8363 H   0  0  0  0  0  0  0  0  0  0  0  0
   55.6389   30.1580   43.0663 H   0  0  0  0  0  0  0  0  0  0  0  0
   56.4801   32.3211   43.9719 H   0  0  0  0  0  0  0  0  0  0  0  0
   57.4456   34.1415   46.8545 H   0  0  0  0  0  0  0  0  0  0  0  0
   58.1785   34.6608   45.2990 H   0  0  0  0  0  0  0  0  0  0  0  0
   56.6959   33.6467   45.2990 H   0  0  0  0  0  0  0  0  0  0  0  0
  1  2  1  0
  2  3  1  0
  3  4  1  0
  4  5  2  0
  5  6  1  0
  6  7  2  0
  7  8  1  0
  8  9  2  0
  8 10  1  0
 10 11  1  0
 11 12  2  0
 12 13  1  0
 13 14  2  0
 14 15  1  0
 15 16  2  0
 16 17  1  0
 17 18  1  0
  9  4  1  0
 16 11  1  0
 17  7  1  0
  1 19  1  0
  1 20  1  0
  1 21  1  0
  2 22  1  0
  2 23  1  0
  3 24  1  0
  5 25  1  0
  6 26  1  0
  9 27  1  0
 10 28  1  0
 10 29  1  0
 12 30  1  0
 13 31  1  0
 14 32  1  0
 15 33  1  0
 18 34  1  0
 18 35  1  0
 18 36  1  0
M  END
>  <UniqueID>  (11) 
11

>  <SMILES>  (11) 
CCNc1ccc2c(c1)Cc1ccccc1N2C

>  <Energy>  (11) 
43.04025600851756

>  <Genealogy>  (11) 
CCNc1ccc2c(c1)Cc1ccccc1N2C (3D coordinates assigned)
CCNc1ccc2c(c1)Cc1ccccc1N2C (nonaromatic ring conformer: 43.04025600851756 kcal/mol)

>  <smiles>  (11) 
CCNc1ccc2c(c1)Cc1ccccc1N2C

>  <score_type>  (11) 
oracle

>  <origin>  (11) 
adg

>  <m_score__min__energy>  (11) 
-6.8700000000000001

>  <m_primary>  (11) 
energy

$$$$
11:0
     RDKit          3D

 55 58  0  0  0  0  0  0  0  0999 V2000
   56.2680   29.7320   42.8190 C   0  0  0  0  0  0  0  0  0  0  0  0
   56.1070   29.6800   44.3340 C   0  0  0  0  0  0  0  0  0  0  0  0
   56.8240   28.5220   44.8770 N   0  0  0  0  0  0  0  0  0  0  0  0
   57.9790   28.1960   44.0310 C   0  0  0  0  0  0  0  0  0  0  0  0
   59.2200   28.9450   44.5320 C   0  0  0  0  0  0  0  0  0  0  0  0
   59.6230   28.5370   45.9580 C   0  0  0  0  0  0  0  0  0  0  0  0
   58.6710   29.0400   46.9650 N   0  0  0  0  0  0  0  0  0  0  0  0
   59.3210   29.9820   47.8520 C   0  0  0  0  0  0  0  0  0  0  0  0
   60.0410   29.5570   49.0080 C   0  0  0  0  0  0  0  0  0  0  0  0
   60.2860   28.1860   49.2630 C   0  0  0  0  0  0  0  0  0  0  0  0
   61.0110   27.7820   50.3810 C   0  0  0  0  0  0  0  0  0  0  0  0
   61.5230   28.7240   51.2620 C   0  0  0  0  0  0  0  0  0  0  0  0
   61.3070   30.0810   51.0420 C   0  0  0  0  0  0  0  0  0  0  0  0
   60.5520   30.5340   49.9310 C   0  0  0  0  0  0  0  0  0  0  0  0
   60.3230   31.8830   49.7210 N   0  0  0  0  0  0  0  0  0  0  0  0
   60.7040   32.8960   50.7250 C   0  0  0  0  0  0  0  0  0  0  0  0
   59.7540   32.2720   48.5390 C   0  0  0  0  0  0  0  0  0  0  0  0
   59.6100   33.5490   48.1100 N   0  0  0  0  0  0  0  0  0  0  0  0
   59.0300   33.4550   46.9020 C   0  0  0  0  0  0  0  0  0  0  0  0
   58.7140   34.5150   46.0570 C   0  0  0  0  0  0  0  0  0  0  0  0
   58.1520   34.2240   44.8050 C   0  0  0  0  0  0  0  0  0  0  0  0
   57.9330   32.8790   44.4080 C   0  0  0  0  0  0  0  0  0  0  0  0
   57.3930   32.5480   43.1570 O   0  0  0  0  0  0  0  0  0  0  0  0
   58.1650   32.3320   41.9800 C   0  0  0  0  0  0  0  0  0  0  0  0
   58.2700   31.8290   45.2840 C   0  0  0  0  0  0  0  0  0  0  0  0
   58.8030   32.1410   46.5430 C   0  0  0  0  0  0  0  0  0  0  0  0
   59.2680   31.3670   47.6100 C   0  0  0  0  0  0  0  0  0  0  0  0
   57.2875   30.0613   42.5697 H   0  0  0  0  0  0  0  0  0  0  0  0
   56.0924   28.7314   42.3970 H   0  0  0  0  0  0  0  0  0  0  0  0
   55.5403   30.4408   42.3970 H   0  0  0  0  0  0  0  0  0  0  0  0
   56.5160   30.6009   44.7752 H   0  0  0  0  0  0  0  0  0  0  0  0
   55.0386   29.5899   44.5798 H   0  0  0  0  0  0  0  0  0  0  0  0
   56.1720   27.7030   44.8570 H   0  0  0  0  0  0  0  0  0  0  0  0
   58.1660   27.1127   44.0704 H   0  0  0  0  0  0  0  0  0  0  0  0
   57.7665   28.4988   42.9951 H   0  0  0  0  0  0  0  0  0  0  0  0
   60.0589   28.7295   43.8539 H   0  0  0  0  0  0  0  0  0  0  0  0
   58.9765   30.0176   44.5494 H   0  0  0  0  0  0  0  0  0  0  0  0
   59.6562   27.4391   46.0175 H   0  0  0  0  0  0  0  0  0  0  0  0
   60.6085   28.9764   46.1720 H   0  0  0  0  0  0  0  0  0  0  0  0
   58.2640   28.2520   47.5130 H   0  0  0  0  0  0  0  0  0  0  0  0
   57.8450   29.4900   46.5160 H   0  0  0  0  0  0  0  0  0  0  0  0
   59.8975   27.4281   48.5669 H   0  0  0  0  0  0  0  0  0  0  0  0
   61.1787   26.7109   50.5668 H   0  0  0  0  0  0  0  0  0  0  0  0
   62.1021   28.3966   52.1381 H   0  0  0  0  0  0  0  0  0  0  0  0
   61.7299   30.8156   51.7431 H   0  0  0  0  0  0  0  0  0  0  0  0
   60.5503   32.4874   51.7347 H   0  0  0  0  0  0  0  0  0  0  0  0
   61.7634   33.1615   50.5942 H   0  0  0  0  0  0  0  0  0  0  0  0
   60.0821   33.7939   50.5942 H   0  0  0  0  0  0  0  0  0  0  0  0
   59.9200   34.4350   48.5660 H   0  0  0  0  0  0  0  0  0  0  0  0
   58.9003   35.5549   46.3633 H   0  0  0  0  0  0  0  0  0  0  0  0
   57.8789   35.0448   44.1255 H   0  0  0  0  0  0  0  0  0  0  0  0
   59.1892   32.0454   42.2608 H   0  0  0  0  0  0  0  0  0  0  0  0
   57.7090   31.5269   41.3850 H   0  0  0  0  0  0  0  0  0  0  0  0
   58.1930   33.2568   41.3850 H   0  0  0  0  0  0  0  0  0  0  0  0
   58.1176   30.7813   44.9855 H   0  0  0  0  0  0  0  0  0  0  0  0
  1  2  1  0
  2  3  1  0
  3  4  1  0
  4  5  1  0
  5  6  1  0
  6  7  1  0
  7  8  1  0
  8  9  2  0
  9 10  1  0
 10 11  2  0
 11 12  1  0
 12 13  2  0
 13 14  1  0
 14 15  2  0
 15 16  1  0
 15 17  1  0
 17 18  1  0
 18 19  1  0
 19 20  2  0
 20 21  1  0
 21 22  2  0
 22 23  1  0
 23 24  1  0
 22 25  1  0
 25 26  2  0
 26 27  1  0
 27  8  1  0
 14  9  1  0
 27 17  2  0
 26 19  1  0
  1 28  1  0
  1 29  1  0
  1 30  1  0
  2 31  1  0
  2 32  1  0
  3 33  1  0
  4 34  1  0
  4 35  1  0
  5 36  1  0
  5 37  1  0
  6 38  1  0
  6 39  1  0
  7 40  1  0
  7 41  1  0
 10 42  1  0
 11 43  1  0
 12 44  1  0
 13 45  1  0
 16 46  1  0
 16 47  1  0
 16 48  1  0
 18 49  1  0
 20 50  1  0
 21 51  1  0
 24 52  1  0
 24 53  1  0
 24 54  1  0
 25 55  1  0
M  CHG  2   7   1  15   1
M  END
>  <UniqueID>  (12) 
12

>  <SMILES>  (12) 
CCNCCC[NH2+]c1c2ccccc2[n+](C)c2[nH]c3ccc(OC)cc3c12

>  <Energy>  (12) 
107.85252749869451

>  <Genealogy>  (12) 
CCNCCC[NH2+]c1c2ccccc2[n+](C)c2[nH]c3ccc(OC)cc3c12 (protonated)
CCNCCC[NH2+]c1c2ccccc2[n+](C)c2[nH]c3ccc(OC)cc3c12 (3D coordinates assigned)
CCNCCC[NH2+]c1c2ccccc2[n+](C)c2[nH]c3ccc(OC)cc3c12 (optimized conformer: 107.85252749869451 kcal/mol)

>  <smiles>  (12) 
CCNCCCNc1c2ccccc2[n+](C)c2[nH]c3ccc(OC)cc3c12

>  <score_type>  (12) 
oracle

>  <origin>  (12) 
adg

>  <m_score__min__energy>  (12) 
-4.9400000000000004

>  <m_primary>  (12) 
energy

$$$$
12:0
     RDKit          3D

 45 45  0  0  0  0  0  0  0  0999 V2000
   62.9150   31.9810   47.8100 C   0  0  0  0  0  0  0  0  0  0  0  0
   62.1270   33.1060   47.1400 C   0  0  0  0  0  0  0  0  0  0  0  0
   60.7450   33.1470   47.6400 N   0  0  0  0  0  0  0  0  0  0  0  0
   60.5760   34.2500   48.5990 C   0  0  0  0  0  0  0  0  0  0  0  0
   59.7390   33.8140   49.8100 C   0  0  0  0  0  0  0  0  0  0  0  0
   58.9160   32.7080   49.4830 O   0  0  0  0  0  0  0  0  0  0  0  0
   58.5990   31.9660   50.6420 C   0  0  0  0  0  0  0  0  0  0  0  0
   59.1840   30.5630   50.5120 C   0  0  0  0  0  0  0  0  0  0  0  0
   60.0350   30.4840   49.3170 N   0  0  0  0  0  0  0  0  0  0  0  0
   59.7730   29.2600   48.5440 C   0  0  0  0  0  0  0  0  0  0  0  0
   58.6460   29.4590   47.5210 C   0  0  0  0  0  0  0  0  0  0  0  0
   58.8870   30.9200   46.5140 S   0  0  0  0  0  0  0  0  0  0  0  0
   60.3570   31.1250   46.2700 O   0  0  0  0  0  0  0  0  0  0  0  0
   58.3490   32.1160   47.2450 O   0  0  0  0  0  0  0  0  0  0  0  0
   58.0300   30.7560   44.9820 C   0  0  0  0  0  0  0  0  0  0  0  0
   58.1860   31.7120   43.9670 C   0  0  0  0  0  0  0  0  0  0  0  0
   57.5090   31.5630   42.7530 C   0  0  0  0  0  0  0  0  0  0  0  0
   56.6780   30.4580   42.5440 C   0  0  0  0  0  0  0  0  0  0  0  0
   56.5240   29.5010   43.5510 C   0  0  0  0  0  0  0  0  0  0  0  0
   57.1980   29.6490   44.7670 C   0  0  0  0  0  0  0  0  0  0  0  0
   62.8432   32.0835   48.9029 H   0  0  0  0  0  0  0  0  0  0  0  0
   62.4989   31.0096   47.5047 H   0  0  0  0  0  0  0  0  0  0  0  0
   63.9701   32.0401   47.5047 H   0  0  0  0  0  0  0  0  0  0  0  0
   62.6169   34.0670   47.3556 H   0  0  0  0  0  0  0  0  0  0  0  0
   62.1037   32.9220   46.0558 H   0  0  0  0  0  0  0  0  0  0  0  0
   60.0910   33.2880   46.8340 H   0  0  0  0  0  0  0  0  0  0  0  0
   60.5260   32.2390   48.1130 H   0  0  0  0  0  0  0  0  0  0  0  0
   61.5669   34.5767   48.9474 H   0  0  0  0  0  0  0  0  0  0  0  0
   60.0505   35.0728   48.0922 H   0  0  0  0  0  0  0  0  0  0  0  0
   60.4138   33.5306   50.6312 H   0  0  0  0  0  0  0  0  0  0  0  0
   59.0961   34.6533   50.1138 H   0  0  0  0  0  0  0  0  0  0  0  0
   59.0261   32.4627   51.5257 H   0  0  0  0  0  0  0  0  0  0  0  0
   57.5066   31.9031   50.7545 H   0  0  0  0  0  0  0  0  0  0  0  0
   59.7859   30.3349   51.4040 H   0  0  0  0  0  0  0  0  0  0  0  0
   58.3636   29.8359   50.4207 H   0  0  0  0  0  0  0  0  0  0  0  0
   59.7950   31.2980   48.7040 H   0  0  0  0  0  0  0  0  0  0  0  0
   60.6911   28.9731   48.0103 H   0  0  0  0  0  0  0  0  0  0  0  0
   59.4604   28.4735   49.2467 H   0  0  0  0  0  0  0  0  0  0  0  0
   58.6073   28.5787   46.8625 H   0  0  0  0  0  0  0  0  0  0  0  0
   57.7064   29.5875   48.0784 H   0  0  0  0  0  0  0  0  0  0  0  0
   58.8422   32.5803   44.1267 H   0  0  0  0  0  0  0  0  0  0  0  0
   57.6302   32.3164   41.9607 H   0  0  0  0  0  0  0  0  0  0  0  0
   56.1461   30.3420   41.5882 H   0  0  0  0  0  0  0  0  0  0  0  0
   55.8719   28.6305   43.3867 H   0  0  0  0  0  0  0  0  0  0  0  0
   57.0748   28.8941   45.5575 H   0  0  0  0  0  0  0  0  0  0  0  0
  1  2  1  0
  2  3  1  0
  3  4  1  0
  4  5  1  0
  5  6  1  0
  6  7  1  0
  7  8  1  0
  8  9  1  0
  9 10  1  0
 10 11  1  0
 11 12  1  0
 12 13  2  0
 12 14  2  0
 12 15  1  0
 15 16  2  0
 16 17  1  0
 17 18  2  0
 18 19  1  0
 19 20  2  0
 20 15  1  0
  1 21  1  0
  1 22  1  0
  1 23  1  0
  2 24  1  0
  2 25  1  0
  3 26  1  0
  3 27  1  0
  4 28  1  0
  4 29  1  0
  5 30  1  0
  5 31  1  0
  7 32  1  0
  7 33  1  0
  8 34  1  0
  8 35  1  0
  9 36  1  0
 10 37  1  0
 10 38  1  0
 11 39  1  0
 11 40  1  0
 16 41  1  0
 17 42  1  0
 18 43  1  0
 19 44  1  0
 20 45  1  0
M  CHG  1   3   1
M  END
>  <UniqueID>  (13) 
13

>  <SMILES>  (13) 
CC[NH2+]CCOCCNCCS(=O)(=O)c1ccccc1

>  <Energy>  (13) 
29.511900604433016

>  <Genealogy>  (13) 
CC[NH2+]CCOCCNCCS(=O)(=O)c1ccccc1 (protonated)
CC[NH2+]CCOCCNCCS(=O)(=O)c1ccccc1 (3D coordinates assigned)
CC[NH2+]CCOCCNCCS(=O)(=O)c1ccccc1 (optimized conformer: 29.511900604433016 kcal/mol)

>  <smiles>  (13) 
CCNCCOCCNCCS(=O)(=O)c1ccccc1

>  <score_type>  (13) 
oracle

>  <origin>  (13) 
adg

>  <m_score__min__energy>  (13) 
-2.8500000000000001

>  <m_primary>  (13) 
energy

$$$$
13:0
     RDKit          3D

 50 52  0  0  0  0  0  0  0  0999 V2000
   63.7690   33.1190   46.8040 C   0  0  0  0  0  0  0  0  0  0  0  0
   63.4500   32.4510   48.1390 C   0  0  0  0  0  0  0  0  0  0  0  0
   62.1140   32.8330   48.6540 N   0  0  0  0  0  0  0  0  0  0  0  0
   62.2330   34.1140   49.3740 C   0  0  0  0  0  0  0  0  0  0  0  0
   61.5200   31.7970   49.5390 C   0  0  0  0  0  0  0  0  0  0  0  0
   60.6450   30.8040   48.7460 C   0  0  0  0  0  0  0  0  0  0  0  0
   60.9250   30.7980   47.2930 N   0  0  0  0  0  0  0  0  0  0  0  0
   59.7470   31.1240   46.4960 C   0  0  0  0  0  0  0  0  0  0  0  0
   59.4640   32.4590   46.1070 C   0  0  0  0  0  0  0  0  0  0  0  0
   59.9770   33.5800   46.8000 C   0  0  0  0  0  0  0  0  0  0  0  0
   59.7460   34.8750   46.3360 C   0  0  0  0  0  0  0  0  0  0  0  0
   58.9880   35.0810   45.1910 C   0  0  0  0  0  0  0  0  0  0  0  0
   58.4330   33.9980   44.5160 C   0  0  0  0  0  0  0  0  0  0  0  0
   58.6440   32.6740   44.9690 C   0  0  0  0  0  0  0  0  0  0  0  0
   58.0760   31.6030   44.3190 N   0  0  0  0  0  0  0  0  0  0  0  0
   57.7680   31.7200   42.8800 C   0  0  0  0  0  0  0  0  0  0  0  0
   57.9700   30.3910   44.9690 C   0  0  0  0  0  0  0  0  0  0  0  0
   56.9870   29.4100   44.6210 C   0  0  0  0  0  0  0  0  0  0  0  0
   55.7650   29.7180   43.7900 C   0  0  0  0  0  0  0  0  0  0  0  0
   57.0670   28.1240   45.1750 C   0  0  0  0  0  0  0  0  0  0  0  0
   58.0200   27.8240   46.1380 C   0  0  0  0  0  0  0  0  0  0  0  0
   58.8900   28.8070   46.5910 C   0  0  0  0  0  0  0  0  0  0  0  0
   58.8770   30.1020   46.0280 C   0  0  0  0  0  0  0  0  0  0  0  0
   64.2365   34.0979   46.9863 H   0  0  0  0  0  0  0  0  0  0  0  0
   64.4607   32.4832   46.2319 H   0  0  0  0  0  0  0  0  0  0  0  0
   62.8397   33.2573   46.2319 H   0  0  0  0  0  0  0  0  0  0  0  0
   63.4784   31.3597   48.0042 H   0  0  0  0  0  0  0  0  0  0  0  0
   64.2007   32.7851   48.8703 H   0  0  0  0  0  0  0  0  0  0  0  0
   62.2157   33.9283   50.4581 H   0  0  0  0  0  0  0  0  0  0  0  0
   63.1803   34.6017   49.1006 H   0  0  0  0  0  0  0  0  0  0  0  0
   61.3917   34.7678   49.1006 H   0  0  0  0  0  0  0  0  0  0  0  0
   62.3312   31.2420   50.0328 H   0  0  0  0  0  0  0  0  0  0  0  0
   60.8816   32.3023   50.2787 H   0  0  0  0  0  0  0  0  0  0  0  0
   60.8238   29.7922   49.1389 H   0  0  0  0  0  0  0  0  0  0  0  0
   59.5998   31.1228   48.8720 H   0  0  0  0  0  0  0  0  0  0  0  0
   61.6840   31.4830   47.0800 H   0  0  0  0  0  0  0  0  0  0  0  0
   61.3300   29.8680   47.0690 H   0  0  0  0  0  0  0  0  0  0  0  0
   60.5658   33.4287   47.7168 H   0  0  0  0  0  0  0  0  0  0  0  0
   60.1653   35.7351   46.8785 H   0  0  0  0  0  0  0  0  0  0  0  0
   58.8258   36.1026   44.8167 H   0  0  0  0  0  0  0  0  0  0  0  0
   57.8221   34.1734   43.6182 H   0  0  0  0  0  0  0  0  0  0  0  0
   56.7465   32.1081   42.7540 H   0  0  0  0  0  0  0  0  0  0  0  0
   58.4830   32.4092   42.4069 H   0  0  0  0  0  0  0  0  0  0  0  0
   57.8451   30.7300   42.4069 H   0  0  0  0  0  0  0  0  0  0  0  0
   54.9146   29.9323   44.4540 H   0  0  0  0  0  0  0  0  0  0  0  0
   55.9645   30.5940   43.1552 H   0  0  0  0  0  0  0  0  0  0  0  0
   55.5255   28.8521   43.1552 H   0  0  0  0  0  0  0  0  0  0  0  0
   56.3662   27.3442   44.8423 H   0  0  0  0  0  0  0  0  0  0  0  0
   58.0865   26.8038   46.5440 H   0  0  0  0  0  0  0  0  0  0  0  0
   59.5988   28.5738   47.3992 H   0  0  0  0  0  0  0  0  0  0  0  0
  1  2  1  0
  2  3  1  0
  3  4  1  0
  3  5  1  0
  5  6  1  0
  6  7  1  0
  7  8  1  0
  8  9  2  0
  9 10  1  0
 10 11  2  0
 11 12  1  0
 12 13  2  0
 13 14  1  0
 14 15  2  0
 15 16  1  0
 15 17  1  0
 17 18  2  0
 18 19  1  0
 18 20  1  0
 20 21  2  0
 21 22  1  0
 22 23  2  0
 23  8  1  0
 14  9  1  0
 23 17  1  0
  1 24  1  0
  1 25  1  0
  1 26  1  0
  2 27  1  0
  2 28  1  0
  4 29  1  0
  4 30  1  0
  4 31  1  0
  5 32  1  0
  5 33  1  0
  6 34  1  0
  6 35  1  0
  7 36  1  0
  7 37  1  0
 10 38  1  0
 11 39  1  0
 12 40  1  0
 13 41  1  0
 16 42  1  0
 16 43  1  0
 16 44  1  0
 19 45  1  0
 19 46  1  0
 19 47  1  0
 20 48  1  0
 21 49  1  0
 22 50  1  0
M  CHG  2   7   1  15   1
M  END
>  <UniqueID>  (14) 
14

>  <SMILES>  (14) 
CCN(C)CC[NH2+]c1c2ccccc2[n+](C)c2c(C)cccc12

>  <Energy>  (14) 
89.98287951585016

>  <Genealogy>  (14) 
CCN(C)CC[NH2+]c1c2ccccc2[n+](C)c2c(C)cccc12 (protonated)
CCN(C)CC[NH2+]c1c2ccccc2[n+](C)c2c(C)cccc12 (3D coordinates assigned)
CCN(C)CC[NH2+]c1c2ccccc2[n+](C)c2c(C)cccc12 (optimized conformer: 89.98287951585016 kcal/mol)

>  <smiles>  (14) 
CCN(C)CCNc1c2ccccc2[n+](C)c2c(C)cccc12

>  <score_type>  (14) 
oracle

>  <origin>  (14) 
adg

>  <m_score__min__energy>  (14) 
-4.5599999999999996

>  <m_primary>  (14) 
energy

$$$$
14:0
     RDKit          3D

 53 55  0  0  0  0  0  0  0  0999 V2000
   55.1160   23.7090   44.3510 C   0  0  0  0  0  0  0  0  0  0  0  0
   54.3120   24.4930   45.3850 C   0  0  0  0  0  0  0  0  0  0  0  0
   55.1250   25.5860   45.9500 N   0  0  0  0  0  0  0  0  0  0  0  0
   56.4870   25.1300   46.2750 C   0  0  0  0  0  0  0  0  0  0  0  0
   57.5190   26.1150   45.7050 C   0  0  0  0  0  0  0  0  0  0  0  0
   57.2350   27.5530   46.1560 C   0  0  0  0  0  0  0  0  0  0  0  0
   56.3400   28.1750   45.2480 O   0  0  0  0  0  0  0  0  0  0  0  0
   57.0250   28.6230   44.0950 C   0  0  0  0  0  0  0  0  0  0  0  0
   57.6800   29.9800   44.3680 C   0  0  0  0  0  0  0  0  0  0  0  0
   57.5790   30.3670   45.7800 N   0  0  0  0  0  0  0  0  0  0  0  0
   58.6040   31.1250   46.4500 C   0  0  0  0  0  0  0  0  0  0  0  0
   59.3580   30.5530   47.4900 C   0  0  0  0  0  0  0  0  0  0  0  0
   58.9970   29.3070   48.0480 C   0  0  0  0  0  0  0  0  0  0  0  0
   59.7350   28.7520   49.0900 C   0  0  0  0  0  0  0  0  0  0  0  0
   60.8260   29.4360   49.6120 C   0  0  0  0  0  0  0  0  0  0  0  0
   61.1840   30.6830   49.1000 C   0  0  0  0  0  0  0  0  0  0  0  0
   60.4670   31.2650   48.0220 C   0  0  0  0  0  0  0  0  0  0  0  0
   60.8050   32.5010   47.5080 N   0  0  0  0  0  0  0  0  0  0  0  0
   62.1080   33.1150   47.8510 C   0  0  0  0  0  0  0  0  0  0  0  0
   59.9270   33.1640   46.6710 C   0  0  0  0  0  0  0  0  0  0  0  0
   60.0790   34.5410   46.3670 C   0  0  0  0  0  0  0  0  0  0  0  0
   59.2140   35.1820   45.4830 C   0  0  0  0  0  0  0  0  0  0  0  0
   58.1770   34.4770   44.8830 C   0  0  0  0  0  0  0  0  0  0  0  0
   57.9800   33.1330   45.1890 C   0  0  0  0  0  0  0  0  0  0  0  0
   58.8270   32.4680   46.1010 C   0  0  0  0  0  0  0  0  0  0  0  0
   55.8121   23.0302   44.8656 H   0  0  0  0  0  0  0  0  0  0  0  0
   54.4306   23.1229   43.7212 H   0  0  0  0  0  0  0  0  0  0  0  0
   55.6847   24.4089   43.7212 H   0  0  0  0  0  0  0  0  0  0  0  0
   53.4190   24.9177   44.9032 H   0  0  0  0  0  0  0  0  0  0  0  0
   54.0168   23.8124   46.1972 H   0  0  0  0  0  0  0  0  0  0  0  0
   55.2030   26.3340   45.2210 H   0  0  0  0  0  0  0  0  0  0  0  0
   56.6016   25.0735   47.3676 H   0  0  0  0  0  0  0  0  0  0  0  0
   56.6515   24.1368   45.8317 H   0  0  0  0  0  0  0  0  0  0  0  0
   58.5211   25.8231   46.0524 H   0  0  0  0  0  0  0  0  0  0  0  0
   57.4585   26.0801   44.6072 H   0  0  0  0  0  0  0  0  0  0  0  0
   56.7851   27.5385   47.1597 H   0  0  0  0  0  0  0  0  0  0  0  0
   58.1783   28.1184   46.1800 H   0  0  0  0  0  0  0  0  0  0  0  0
   57.8012   27.8917   43.8255 H   0  0  0  0  0  0  0  0  0  0  0  0
   56.3079   28.7286   43.2676 H   0  0  0  0  0  0  0  0  0  0  0  0
   58.7430   29.9230   44.0909 H   0  0  0  0  0  0  0  0  0  0  0  0
   57.1521   30.7376   43.7703 H   0  0  0  0  0  0  0  0  0  0  0  0
   56.6850   30.1730   46.2850 H   0  0  0  0  0  0  0  0  0  0  0  0
   58.1222   28.7684   47.6547 H   0  0  0  0  0  0  0  0  0  0  0  0
   59.4540   27.7709   49.5005 H   0  0  0  0  0  0  0  0  0  0  0  0
   61.4096   28.9924   50.4321 H   0  0  0  0  0  0  0  0  0  0  0  0
   62.0355   31.2240   49.5385 H   0  0  0  0  0  0  0  0  0  0  0  0
   62.2133   33.1646   48.9448 H   0  0  0  0  0  0  0  0  0  0  0  0
   62.9222   32.5058   47.4315 H   0  0  0  0  0  0  0  0  0  0  0  0
   62.1565   34.1307   47.4315 H   0  0  0  0  0  0  0  0  0  0  0  0
   60.8932   35.1121   46.8369 H   0  0  0  0  0  0  0  0  0  0  0  0
   59.3521   36.2500   45.2589 H   0  0  0  0  0  0  0  0  0  0  0  0
   57.5119   34.9810   44.1663 H   0  0  0  0  0  0  0  0  0  0  0  0
   57.1542   32.5830   44.7141 H   0  0  0  0  0  0  0  0  0  0  0  0
  1  2  1  0
  2  3  1  0
  3  4  1  0
  4  5  1  0
  5  6  1  0
  6  7  1  0
  7  8  1  0
  8  9  1  0
  9 10  1  0
 10 11  1  0
 11 12  2  0
 12 13  1  0
 13 14  2  0
 14 15  1  0
 15 16  2  0
 16 17  1  0
 17 18  2  0
 18 19  1  0
 18 20  1  0
 20 21  2  0
 21 22  1  0
 22 23  2  0
 23 24  1  0
 24 25  2  0
 25 11  1  0
 17 12  1  0
 25 20  1  0
  1 26  1  0
  1 27  1  0
  1 28  1  0
  2 29  1  0
  2 30  1  0
  3 31  1  0
  4 32  1  0
  4 33  1  0
  5 34  1  0
  5 35  1  0
  6 36  1  0
  6 37  1  0
  8 38  1  0
  8 39  1  0
  9 40  1  0
  9 41  1  0
 10 42  1  0
 13 43  1  0
 14 44  1  0
 15 45  1  0
 16 46  1  0
 19 47  1  0
 19 48  1  0
 19 49  1  0
 21 50  1  0
 22 51  1  0
 23 52  1  0
 24 53  1  0
M  CHG  1  18   1
M  END
>  <UniqueID>  (15) 
15

>  <SMILES>  (15) 
CCNCCCOCCNc1c2ccccc2[n+](C)c2ccccc12

>  <Energy>  (15) 
69.377264494367

>  <Genealogy>  (15) 
CCNCCCOCCNc1c2ccccc2[n+](C)c2ccccc12 (3D coordinates assigned)
CCNCCCOCCNc1c2ccccc2[n+](C)c2ccccc12 (optimized conformer: 69.377264494367 kcal/mol)

>  <smiles>  (15) 
CCNCCCOCCNc1c2ccccc2[n+](C)c2ccccc12

>  <score_type>  (15) 
oracle

>  <origin>  (15) 
adg

>  <m_score__min__energy>  (15) 
-5.7400000000000002

>  <m_primary>  (15) 
energy

$$$$
15:0
     RDKit          3D

 60 62  0  0  0  0  0  0  0  0999 V2000
   63.2910   33.8010   46.4510 C   0  0  0  0  0  0  0  0  0  0  0  0
   62.7630   32.8110   47.4460 C   0  0  0  0  0  0  0  0  0  0  0  0
   63.4200   32.6210   48.6720 C   0  0  0  0  0  0  0  0  0  0  0  0
   62.9470   31.6740   49.5840 C   0  0  0  0  0  0  0  0  0  0  0  0
   61.8240   30.9020   49.2760 C   0  0  0  0  0  0  0  0  0  0  0  0
   61.1680   31.0680   48.0460 C   0  0  0  0  0  0  0  0  0  0  0  0
   59.9600   30.2370   47.7000 C   0  0  0  0  0  0  0  0  0  0  0  0
   60.3720   29.0080   46.9880 N   0  0  0  0  0  0  0  0  0  0  0  0
   60.7900   29.2650   45.5830 C   0  0  0  0  0  0  0  0  0  0  0  0
   59.8140   28.6960   44.5350 C   0  0  0  0  0  0  0  0  0  0  0  0
   58.4150   28.9050   44.9610 N   0  0  0  0  0  0  0  0  0  0  0  0
   57.4320   28.5650   43.9000 C   0  0  0  0  0  0  0  0  0  0  0  0
   56.3540   29.6440   43.6370 C   0  0  0  0  0  0  0  0  0  0  0  0
   56.5010   30.7350   44.5290 O   0  0  0  0  0  0  0  0  0  0  0  0
   57.4180   31.6940   44.0340 C   0  0  0  0  0  0  0  0  0  0  0  0
   58.3780   32.1600   45.1370 C   0  0  0  0  0  0  0  0  0  0  0  0
   57.7930   33.2620   45.9380 N   0  0  0  0  0  0  0  0  0  0  0  0
   57.8330   34.5670   45.2460 C   0  0  0  0  0  0  0  0  0  0  0  0
   59.2620   35.1540   45.1780 C   0  0  0  0  0  0  0  0  0  0  0  0
   60.1110   34.7640   46.3160 N   0  0  0  0  0  0  0  0  0  0  0  0
   59.3210   34.5150   47.5250 C   0  0  0  0  0  0  0  0  0  0  0  0
   58.3440   33.3400   47.3160 C   0  0  0  0  0  0  0  0  0  0  0  0
   58.1040   28.2370   46.2540 C   0  0  0  0  0  0  0  0  0  0  0  0
   59.3600   27.9390   47.0990 C   0  0  0  0  0  0  0  0  0  0  0  0
   61.6470   32.0210   47.1320 C   0  0  0  0  0  0  0  0  0  0  0  0
   63.7439   34.6502   46.9837 H   0  0  0  0  0  0  0  0  0  0  0  0
   64.0507   33.3168   45.8198 H   0  0  0  0  0  0  0  0  0  0  0  0
   62.4657   34.1621   45.8198 H   0  0  0  0  0  0  0  0  0  0  0  0
   64.3101   33.2197   48.9155 H   0  0  0  0  0  0  0  0  0  0  0  0
   63.4602   31.5359   50.5471 H   0  0  0  0  0  0  0  0  0  0  0  0
   61.4526   30.1616   49.9998 H   0  0  0  0  0  0  0  0  0  0  0  0
   59.4317   29.9614   48.6246 H   0  0  0  0  0  0  0  0  0  0  0  0
   59.2957   30.8236   47.0483 H   0  0  0  0  0  0  0  0  0  0  0  0
   60.8634   30.3526   45.4354 H   0  0  0  0  0  0  0  0  0  0  0  0
   61.7542   28.7567   45.4352 H   0  0  0  0  0  0  0  0  0  0  0  0
   59.9791   29.2043   43.5735 H   0  0  0  0  0  0  0  0  0  0  0  0
   59.9956   27.6162   44.4302 H   0  0  0  0  0  0  0  0  0  0  0  0
   58.3050   29.9360   45.1160 H   0  0  0  0  0  0  0  0  0  0  0  0
   57.9845   28.3992   42.9634 H   0  0  0  0  0  0  0  0  0  0  0  0
   56.8942   27.6729   44.2536 H   0  0  0  0  0  0  0  0  0  0  0  0
   56.4536   30.0079   42.6037 H   0  0  0  0  0  0  0  0  0  0  0  0
   55.3622   29.1945   43.7927 H   0  0  0  0  0  0  0  0  0  0  0  0
   58.0009   31.2453   43.2162 H   0  0  0  0  0  0  0  0  0  0  0  0
   56.8519   32.5650   43.6721 H   0  0  0  0  0  0  0  0  0  0  0  0
   58.5964   31.3117   45.8023 H   0  0  0  0  0  0  0  0  0  0  0  0
   59.2971   32.5309   44.6599 H   0  0  0  0  0  0  0  0  0  0  0  0
   57.4560   34.4352   44.2211 H   0  0  0  0  0  0  0  0  0  0  0  0
   57.2085   35.2693   45.8177 H   0  0  0  0  0  0  0  0  0  0  0  0
   59.7391   34.8029   44.2511 H   0  0  0  0  0  0  0  0  0  0  0  0
   59.1640   36.2492   45.2073 H   0  0  0  0  0  0  0  0  0  0  0  0
   60.6370   33.8910   46.0750 H   0  0  0  0  0  0  0  0  0  0  0  0
   60.0009   34.2739   48.3554 H   0  0  0  0  0  0  0  0  0  0  0  0
   58.7374   35.4189   47.7541 H   0  0  0  0  0  0  0  0  0  0  0  0
   58.8771   32.4021   47.5309 H   0  0  0  0  0  0  0  0  0  0  0  0
   57.4937   33.5030   47.9945 H   0  0  0  0  0  0  0  0  0  0  0  0
   57.4384   28.8921   46.8352 H   0  0  0  0  0  0  0  0  0  0  0  0
   57.6304   27.2724   46.0191 H   0  0  0  0  0  0  0  0  0  0  0  0
   59.0626   27.8405   48.1535 H   0  0  0  0  0  0  0  0  0  0  0  0
   59.8085   27.0082   46.7215 H   0  0  0  0  0  0  0  0  0  0  0  0
   61.1432   32.1489   46.1626 H   0  0  0  0  0  0  0  0  0  0  0  0
  1  2  1  0
  2  3  2  0
  3  4  1  0
  4  5  2  0
  5  6  1  0
  6  7  1  0
  7  8  1  0
  8  9  1  0
  9 10  1  0
 10 11  1  0
 11 12  1  0
 12 13  1  0
 13 14  1  0
 14 15  1  0
 15 16  1  0
 16 17  1  0
 17 18  1  0
 18 19  1  0
 19 20  1  0
 20 21  1  0
 21 22  1  0
 11 23  1  0
 23 24  1  0
  6 25  2  0
 25  2  1  0
 24  8  1  0
 22 17  1  0
  1 26  1  0
  1 27  1  0
  1 28  1  0
  3 29  1  0
  4 30  1  0
  5 31  1  0
  7 32  1  0
  7 33  1  0
  9 34  1  0
  9 35  1  0
 10 36  1  0
 10 37  1  0
 11 38  1  0
 12 39  1  0
 12 40  1  0
 13 41  1  0
 13 42  1  0
 15 43  1  0
 15 44  1  0
 16 45  1  0
 16 46  1  0
 18 47  1  0
 18 48  1  0
 19 49  1  0
 19 50  1  0
 20 51  1  0
 21 52  1  0
 21 53  1  0
 22 54  1  0
 22 55  1  0
 23 56  1  0
 23 57  1  0
 24 58  1  0
 24 59  1  0
 25 60  1  0
M  CHG  1  11   1
M  END
>  <UniqueID>  (16) 
16

>  <SMILES>  (16) 
Cc1cccc(CN2CC[NH+](CCOCCN3CCNCC3)CC2)c1

>  <Energy>  (16) 
88.54504720811025

>  <Genealogy>  (16) 
Cc1cccc(CN2CC[NH+](CCOCCN3CCNCC3)CC2)c1 (protonated)
Cc1cccc(CN2CC[NH+](CCOCCN3CCNCC3)CC2)c1 (3D coordinates assigned)
Cc1cccc(CN2CC[NH+](CCOCCN3CCNCC3)CC2)c1 (nonaromatic ring conformer: 88.54504720811025 kcal/mol)

>  <smiles>  (16) 
Cc1cccc(CN2CCN(CCOCCN3CCNCC3)CC2)c1

>  <score_type>  (16) 
oracle

>  <origin>  (16) 
adg

>  <m_score__min__energy>  (16) 
-5.7199999999999998

>  <m_primary>  (16) 
energy

$$$$
16:0
     RDKit          3D

 41 43  0  0  0  0  0  0  0  0999 V2000
   59.7865   35.1663   46.9366 H   0  0  0  0  0  0  0  0  0  0  0  0
   60.0540   34.1710   47.3210 C   0  0  0  0  0  0  0  0  0  0  0  0
   59.0780   33.2550   47.3920 C   0  0  0  0  0  0  0  0  0  0  0  0
   58.2495   33.4428   48.0908 H   0  0  0  0  0  0  0  0  0  0  0  0
   59.0380   32.0110   46.5970 C   0  0  0  0  0  0  0  0  0  0  0  0
   58.0650   31.7420   45.6860 N   0  0  0  0  0  0  0  0  0  0  0  0
   57.0100   32.6570   45.2490 C   0  0  0  0  0  0  0  0  0  0  0  0
   56.5117   33.0892   46.1293 H   0  0  0  0  0  0  0  0  0  0  0  0
   57.4511   33.4633   44.6446 H   0  0  0  0  0  0  0  0  0  0  0  0
   56.2742   32.1063   44.6446 H   0  0  0  0  0  0  0  0  0  0  0  0
   58.3020   30.4680   45.2900 C   0  0  0  0  0  0  0  0  0  0  0  0
   57.6040   29.6540   44.3740 C   0  0  0  0  0  0  0  0  0  0  0  0
   56.3860   30.0640   43.7440 N   0  0  0  0  0  0  0  0  0  0  0  0
   56.3110   30.0810   42.4990 O   0  0  0  0  0  0  0  0  0  0  0  0
   55.2260   30.1070   44.4820 O   0  0  0  0  0  0  0  0  0  0  0  0
   58.1160   28.3610   44.1310 C   0  0  0  0  0  0  0  0  0  0  0  0
   57.6186   27.7091   43.3977 H   0  0  0  0  0  0  0  0  0  0  0  0
   59.2550   27.8950   44.8150 C   0  0  0  0  0  0  0  0  0  0  0  0
   59.6341   26.8814   44.6176 H   0  0  0  0  0  0  0  0  0  0  0  0
   59.9100   28.7150   45.7470 C   0  0  0  0  0  0  0  0  0  0  0  0
   60.7856   28.3508   46.3044 H   0  0  0  0  0  0  0  0  0  0  0  0
   59.4180   30.0060   45.9460 C   0  0  0  0  0  0  0  0  0  0  0  0
   59.8890   30.9630   46.7720 N   0  0  0  0  0  0  0  0  0  0  0  0
   61.0070   30.8500   47.7170 C   0  0  0  0  0  0  0  0  0  0  0  0
   61.3651   31.8584   47.9718 H   0  0  0  0  0  0  0  0  0  0  0  0
   61.8073   30.2634   47.2422 H   0  0  0  0  0  0  0  0  0  0  0  0
   60.5770   30.1360   48.9960 C   0  0  0  0  0  0  0  0  0  0  0  0
   60.9220   30.7088   49.8694 H   0  0  0  0  0  0  0  0  0  0  0  0
   59.4802   30.0557   49.0201 H   0  0  0  0  0  0  0  0  0  0  0  0
   61.0190   29.1290   49.0201 H   0  0  0  0  0  0  0  0  0  0  0  0
   61.4620   33.9510   47.7180 C   0  0  0  0  0  0  0  0  0  0  0  0
   62.3990   33.6130   46.7280 C   0  0  0  0  0  0  0  0  0  0  0  0
   62.0800   33.5326   45.6784 H   0  0  0  0  0  0  0  0  0  0  0  0
   63.7350   33.3780   47.0680 C   0  0  0  0  0  0  0  0  0  0  0  0
   64.4658   33.1284   46.2847 H   0  0  0  0  0  0  0  0  0  0  0  0
   64.1420   33.4600   48.4020 C   0  0  0  0  0  0  0  0  0  0  0  0
   65.1954   33.2868   48.6673 H   0  0  0  0  0  0  0  0  0  0  0  0
   63.2110   33.7620   49.3990 C   0  0  0  0  0  0  0  0  0  0  0  0
   63.5302   33.8149   50.4503 H   0  0  0  0  0  0  0  0  0  0  0  0
   61.8750   33.9970   49.0630 C   0  0  0  0  0  0  0  0  0  0  0  0
   61.1427   34.2190   49.8532 H   0  0  0  0  0  0  0  0  0  0  0  0
  1  2  1  0
  2  3  2  0
  3  4  1  0
  3  5  1  0
  5  6  1  0
  6  7  1  0
  7  8  1  0
  7  9  1  0
  7 10  1  0
  6 11  1  0
 11 12  2  0
 12 13  1  0
 13 14  2  0
 13 15  1  0
 12 16  1  0
 16 17  1  0
 16 18  2  0
 18 19  1  0
 18 20  1  0
 20 21  1  0
 20 22  2  0
 22 23  1  0
 23 24  1  0
 24 25  1  0
 24 26  1  0
 24 27  1  0
 27 28  1  0
 27 29  1  0
 27 30  1  0
  2 31  1  0
 31 32  2  0
 32 33  1  0
 32 34  1  0
 34 35  1  0
 34 36  2  0
 36 37  1  0
 36 38  1  0
 38 39  1  0
 38 40  2  0
 40 41  1  0
 23  5  2  0
 40 31  1  0
 22 11  1  0
M  CHG  3  13   1  15  -1  23   1
M  END
>  <UniqueID>  (17) 
17

>  <SMILES>  (17) 
CC[n+]1c(/C=C\c2ccccc2)n(C)c2c([N+](=O)[O-])cccc21

>  <Energy>  (17) 
98.319684539174

>  <Genealogy>  (17) 
CC[n+]1c(/C=C\c2ccccc2)n(C)c2c([N+](=O)[O-])cccc21 (cis-trans isomerization)
CC[n+]1c(/C=C\c2ccccc2)n(C)c2c([N+](=O)[O-])cccc21 (3D coordinates assigned)
CC[n+]1c(/C=C\c2ccccc2)n(C)c2c([N+](=O)[O-])cccc21 (optimized conformer: 98.319684539174 kcal/mol)

>  <smiles>  (17) 
CC[n+]1c(C=Cc2ccccc2)n(C)c2c([N+](=O)[O-])cccc21

>  <score_type>  (17) 
oracle

>  <origin>  (17) 
adg

>  <m_score__min__energy>  (17) 
-6.5300000000000002

>  <m_primary>  (17) 
energy

$$$$
17:0
     RDKit          3D

 50 53  0  0  0  0  0  0  0  0999 V2000
   67.7140   29.3490   51.6380 C   0  0  0  0  0  0  0  0  0  0  0  0
   66.5560   30.1700   51.3140 N   0  0  0  0  0  0  0  0  0  0  0  0
   66.5600   31.2590   50.5230 C   0  0  0  0  0  0  0  0  0  0  0  0
   65.2880   31.7900   50.5320 C   0  0  0  0  0  0  0  0  0  0  0  0
   64.8210   33.0440   49.8550 C   0  0  0  0  0  0  0  0  0  0  0  0
   64.2010   32.7320   48.5520 N   0  0  0  0  0  0  0  0  0  0  0  0
   62.9820   31.9150   48.6480 C   0  0  0  0  0  0  0  0  0  0  0  0
   62.0930   33.0390   48.0960 C   0  0  0  0  0  0  0  0  0  0  0  0
   61.4980   32.7380   46.7030 C   0  0  0  0  0  0  0  0  0  0  0  0
   60.1440   32.0180   46.8250 C   0  0  0  0  0  0  0  0  0  0  0  0
   59.1930   32.6530   47.7820 N   0  0  0  0  0  0  0  0  0  0  0  0
   57.8770   32.8970   47.1550 C   0  0  0  0  0  0  0  0  0  0  0  0
   57.9030   32.5520   45.6850 C   0  0  0  0  0  0  0  0  0  0  0  0
   57.3940   31.3140   45.2520 C   0  0  0  0  0  0  0  0  0  0  0  0
   57.4240   30.9710   43.8980 C   0  0  0  0  0  0  0  0  0  0  0  0
   57.9630   31.8550   42.9630 C   0  0  0  0  0  0  0  0  0  0  0  0
   58.4740   33.0870   43.3780 C   0  0  0  0  0  0  0  0  0  0  0  0
   58.4510   33.4420   44.7330 C   0  0  0  0  0  0  0  0  0  0  0  0
   59.1170   35.0010   45.2030 Cl  0  0  0  0  0  0  0  0  0  0  0  0
   59.7130   33.8730   48.4390 C   0  0  0  0  0  0  0  0  0  0  0  0
   61.0540   33.5810   49.1160 C   0  0  0  0  0  0  0  0  0  0  0  0
   63.3980   33.8430   48.0200 C   0  0  0  0  0  0  0  0  0  0  0  0
   64.5590   30.9800   51.3820 C   0  0  0  0  0  0  0  0  0  0  0  0
   65.3570   29.9990   51.8500 N   0  0  0  0  0  0  0  0  0  0  0  0
   67.8173   29.2757   52.7307 H   0  0  0  0  0  0  0  0  0  0  0  0
   67.5803   28.3428   51.2140 H   0  0  0  0  0  0  0  0  0  0  0  0
   68.6192   29.8082   51.2140 H   0  0  0  0  0  0  0  0  0  0  0  0
   67.4238   31.6545   49.9686 H   0  0  0  0  0  0  0  0  0  0  0  0
   64.0817   33.5468   50.4958 H   0  0  0  0  0  0  0  0  0  0  0  0
   65.6880   33.6998   49.6868 H   0  0  0  0  0  0  0  0  0  0  0  0
   64.8800   32.3650   47.8420 H   0  0  0  0  0  0  0  0  0  0  0  0
   63.0034   31.0200   48.0089 H   0  0  0  0  0  0  0  0  0  0  0  0
   62.7228   31.4594   49.6151 H   0  0  0  0  0  0  0  0  0  0  0  0
   61.3545   33.6844   46.1611 H   0  0  0  0  0  0  0  0  0  0  0  0
   62.1947   32.0837   46.1586 H   0  0  0  0  0  0  0  0  0  0  0  0
   59.6724   32.0013   45.8314 H   0  0  0  0  0  0  0  0  0  0  0  0
   60.3573   31.0119   47.2152 H   0  0  0  0  0  0  0  0  0  0  0  0
   57.1196   32.2765   47.6563 H   0  0  0  0  0  0  0  0  0  0  0  0
   57.6328   33.9645   47.2591 H   0  0  0  0  0  0  0  0  0  0  0  0
   56.9696   30.6115   45.9843 H   0  0  0  0  0  0  0  0  0  0  0  0
   57.0217   30.0017   43.5684 H   0  0  0  0  0  0  0  0  0  0  0  0
   57.9856   31.5815   41.8978 H   0  0  0  0  0  0  0  0  0  0  0  0
   58.8965   33.7818   42.6373 H   0  0  0  0  0  0  0  0  0  0  0  0
   59.8516   34.6608   47.6839 H   0  0  0  0  0  0  0  0  0  0  0  0
   58.9920   34.2041   49.2010 H   0  0  0  0  0  0  0  0  0  0  0  0
   61.4401   34.5093   49.5623 H   0  0  0  0  0  0  0  0  0  0  0  0
   60.8939   32.8156   49.8896 H   0  0  0  0  0  0  0  0  0  0  0  0
   63.6750   34.1317   46.9954 H   0  0  0  0  0  0  0  0  0  0  0  0
   63.4484   34.8213   48.5204 H   0  0  0  0  0  0  0  0  0  0  0  0
   63.4972   31.1142   51.6362 H   0  0  0  0  0  0  0  0  0  0  0  0
  1  2  1  0
  2  3  1  0
  3  4  2  0
  4  5  1  0
  5  6  1  0
  6  7  1  0
  7  8  1  0
  8  9  1  0
  9 10  1  0
 10 11  1  0
 11 12  1  0
 12 13  1  0
 13 14  2  0
 14 15  1  0
 15 16  2  0
 16 17  1  0
 17 18  2  0
 18 19  1  0
 11 20  1  0
 20 21  1  0
  8 22  1  0
  4 23  1  0
 23 24  2  0
 24  2  1  0
 22  6  1  0
 21  8  1  0
 18 13  1  0
  1 25  1  0
  1 26  1  0
  1 27  1  0
  3 28  1  0
  5 29  1  0
  5 30  1  0
  6 31  1  0
  7 32  1  0
  7 33  1  0
  9 34  1  0
  9 35  1  0
 10 36  1  0
 10 37  1  0
 12 38  1  0
 12 39  1  0
 14 40  1  0
 15 41  1  0
 16 42  1  0
 17 43  1  0
 20 44  1  0
 20 45  1  0
 21 46  1  0
 21 47  1  0
 22 48  1  0
 22 49  1  0
 23 50  1  0
M  CHG  1   6   1
M  END
>  <UniqueID>  (18) 
18

>  <SMILES>  (18) 
Cn1cc(C[NH+]2CC3(CCN(Cc4ccccc4Cl)CC3)C2)cn1

>  <Energy>  (18) 
164.2704387056976

>  <Genealogy>  (18) 
Cn1cc(C[NH+]2CC3(CCN(Cc4ccccc4Cl)CC3)C2)cn1 (protonated)
Cn1cc(C[NH+]2CC3(CCN(Cc4ccccc4Cl)CC3)C2)cn1 (3D coordinates assigned)
Cn1cc(C[NH+]2CC3(CCN(Cc4ccccc4Cl)CC3)C2)cn1 (nonaromatic ring conformer: 164.2704387056976 kcal/mol)

>  <smiles>  (18) 
Cn1cc(CN2CC3(CCN(Cc4ccccc4Cl)CC3)C2)cn1

>  <score_type>  (18) 
oracle

>  <origin>  (18) 
adg

>  <m_score__min__energy>  (18) 
-6.6500000000000004

>  <m_primary>  (18) 
energy

$$$$
18:0
     RDKit          3D

 65 67  0  0  0  0  0  0  0  0999 V2000
   63.6645   34.4407   49.4239 H   0  0  0  0  0  0  0  0  0  0  0  0
   62.8000   33.8470   49.0920 C   0  0  0  0  0  0  0  0  0  0  0  0
   62.9840   32.7210   48.4970 N   0  0  0  0  0  0  0  0  0  0  0  0
   63.6640   32.6240   47.2270 C   0  0  0  0  0  0  0  0  0  0  0  0
   63.3306   31.7171   46.7013 H   0  0  0  0  0  0  0  0  0  0  0  0
   64.7497   32.5726   47.3963 H   0  0  0  0  0  0  0  0  0  0  0  0
   63.3410   33.8470   46.3820 C   0  0  0  0  0  0  0  0  0  0  0  0
   63.1160   34.6988   47.0407 H   0  0  0  0  0  0  0  0  0  0  0  0
   64.2051   34.0926   45.7471 H   0  0  0  0  0  0  0  0  0  0  0  0
   62.4683   33.6340   45.7471 H   0  0  0  0  0  0  0  0  0  0  0  0
   61.4050   34.3520   49.3340 C   0  0  0  0  0  0  0  0  0  0  0  0
   61.2724   34.5476   50.4083 H   0  0  0  0  0  0  0  0  0  0  0  0
   61.2575   35.2776   48.7583 H   0  0  0  0  0  0  0  0  0  0  0  0
   60.4100   33.3550   48.8960 N   0  0  0  0  0  0  0  0  0  0  0  0
   59.6140   33.4240   49.5660 H   0  0  0  0  0  0  0  0  0  0  0  0
   60.8750   32.4190   48.9490 H   0  0  0  0  0  0  0  0  0  0  0  0
   59.8650   33.5120   47.5530 C   0  0  0  0  0  0  0  0  0  0  0  0
   59.8130   34.7910   46.9470 C   0  0  0  0  0  0  0  0  0  0  0  0
   60.1807   35.6649   47.5047 H   0  0  0  0  0  0  0  0  0  0  0  0
   59.3110   34.9670   45.6710 C   0  0  0  0  0  0  0  0  0  0  0  0
   59.3010   35.9709   45.2215 H   0  0  0  0  0  0  0  0  0  0  0  0
   58.8220   33.8910   44.9570 C   0  0  0  0  0  0  0  0  0  0  0  0
   58.4178   34.0538   43.9470 H   0  0  0  0  0  0  0  0  0  0  0  0
   58.8300   32.5870   45.4960 C   0  0  0  0  0  0  0  0  0  0  0  0
   59.4010   32.3710   46.7920 C   0  0  0  0  0  0  0  0  0  0  0  0
   59.4930   31.0200   47.2470 C   0  0  0  0  0  0  0  0  0  0  0  0
   59.8540   30.6940   48.5990 N   0  0  0  0  0  0  0  0  0  0  0  0
   59.3510   31.1960   49.3640 H   0  0  0  0  0  0  0  0  0  0  0  0
   61.1370   30.0700   48.9370 C   0  0  0  0  0  0  0  0  0  0  0  0
   61.1286   29.0280   48.5846 H   0  0  0  0  0  0  0  0  0  0  0  0
   61.9347   30.6495   48.4493 H   0  0  0  0  0  0  0  0  0  0  0  0
   61.3970   30.0790   50.4190 C   0  0  0  0  0  0  0  0  0  0  0  0
   61.7296   29.1531   50.9111 H   0  0  0  0  0  0  0  0  0  0  0  0
   61.2330   31.1890   51.1550 C   0  0  0  0  0  0  0  0  0  0  0  0
   62.0661   31.9010   51.2496 H   0  0  0  0  0  0  0  0  0  0  0  0
   59.9330   31.4790   51.8530 C   0  0  0  0  0  0  0  0  0  0  0  0
   59.3535   30.5476   51.9352 H   0  0  0  0  0  0  0  0  0  0  0  0
   60.1546   31.8851   52.8510 H   0  0  0  0  0  0  0  0  0  0  0  0
   59.1390   32.4780   51.1040 N   0  0  0  0  0  0  0  0  0  0  0  0
   59.0980   33.7400   51.8660 C   0  0  0  0  0  0  0  0  0  0  0  0
   59.1052   33.5182   52.9434 H   0  0  0  0  0  0  0  0  0  0  0  0
   59.9768   34.3507   51.6115 H   0  0  0  0  0  0  0  0  0  0  0  0
   58.1814   34.2924   51.6115 H   0  0  0  0  0  0  0  0  0  0  0  0
   57.7710   31.9690   50.8580 C   0  0  0  0  0  0  0  0  0  0  0  0
   57.0752   32.8198   50.8125 H   0  0  0  0  0  0  0  0  0  0  0  0
   57.7728   31.4156   49.9073 H   0  0  0  0  0  0  0  0  0  0  0  0
   57.3230   31.0190   51.9670 C   0  0  0  0  0  0  0  0  0  0  0  0
   57.5366   31.4720   52.9464 H   0  0  0  0  0  0  0  0  0  0  0  0
   56.2425   30.8335   51.8766 H   0  0  0  0  0  0  0  0  0  0  0  0
   57.8672   30.0673   51.8766 H   0  0  0  0  0  0  0  0  0  0  0  0
   59.2460   29.9650   46.3480 C   0  0  0  0  0  0  0  0  0  0  0  0
   59.5910   28.6340   46.6750 C   0  0  0  0  0  0  0  0  0  0  0  0
   60.0605   28.4186   47.6462 H   0  0  0  0  0  0  0  0  0  0  0  0
   59.3450   27.5910   45.7850 C   0  0  0  0  0  0  0  0  0  0  0  0
   59.6059   26.5588   46.0614 H   0  0  0  0  0  0  0  0  0  0  0  0
   58.7700   27.8550   44.5480 C   0  0  0  0  0  0  0  0  0  0  0  0
   58.5803   27.0316   43.8437 H   0  0  0  0  0  0  0  0  0  0  0  0
   58.4330   29.1620   44.1980 C   0  0  0  0  0  0  0  0  0  0  0  0
   57.9920   29.3613   43.2102 H   0  0  0  0  0  0  0  0  0  0  0  0
   58.6500   30.2390   45.0960 C   0  0  0  0  0  0  0  0  0  0  0  0
   58.3120   31.5320   44.7690 N   0  0  0  0  0  0  0  0  0  0  0  0
   57.3950   31.7880   43.6360 C   0  0  0  0  0  0  0  0  0  0  0  0
   56.4031   32.0649   44.0225 H   0  0  0  0  0  0  0  0  0  0  0  0
   57.7917   32.6097   43.0217 H   0  0  0  0  0  0  0  0  0  0  0  0
   57.3087   30.8796   43.0217 H   0  0  0  0  0  0  0  0  0  0  0  0
  1  2  1  0
  2  3  2  0
  3  4  1  0
  4  5  1  0
  4  6  1  0
  4  7  1  0
  7  8  1  0
  7  9  1  0
  7 10  1  0
  2 11  1  0
 11 12  1  0
 11 13  1  0
 11 14  1  0
 14 15  1  0
 14 16  1  0
 14 17  1  0
 17 18  2  0
 18 19  1  0
 18 20  1  0
 20 21  1  0
 20 22  2  0
 22 23  1  0
 22 24  1  0
 24 25  2  0
 25 26  1  0
 26 27  1  0
 27 28  1  0
 27 29  1  0
 29 30  1  0
 29 31  1  0
 29 32  1  0
 32 33  1  0
 32 34  2  0
 34 35  1  0
 34 36  1  0
 36 37  1  0
 36 38  1  0
 36 39  1  0
 39 40  1  0
 40 41  1  0
 40 42  1  0
 40 43  1  0
 39 44  1  0
 44 45  1  0
 44 46  1  0
 44 47  1  0
 47 48  1  0
 47 49  1  0
 47 50  1  0
 26 51  2  0
 51 52  1  0
 52 53  1  0
 52 54  2  0
 54 55  1  0
 54 56  1  0
 56 57  1  0
 56 58  2  0
 58 59  1  0
 58 60  1  0
 60 61  2  0
 61 62  1  0
 62 63  1  0
 62 64  1  0
 62 65  1  0
 25 17  1  0
 60 51  1  0
 61 24  1  0
M  CHG  2  14   1  61   1
M  END
>  <UniqueID>  (19) 
19

>  <SMILES>  (19) 
CC/N=C/C[NH2+]c1cccc2c1c(NC/C=C/CN(C)CC)c1ccccc1[n+]2C

>  <Energy>  (19) 
92.39665629566896

>  <Genealogy>  (19) 
CCN=CC[NH2+]c1cccc2c1c(NCC=CCN(C)CC)c1ccccc1[n+]2C (protonated)
CC/N=C/C[NH2+]c1cccc2c1c(NC/C=C/CN(C)CC)c1ccccc1[n+]2C (cis-trans isomerization)
CC/N=C/C[NH2+]c1cccc2c1c(NC/C=C/CN(C)CC)c1ccccc1[n+]2C (3D coordinates assigned)
CC/N=C/C[NH2+]c1cccc2c1c(NC/C=C/CN(C)CC)c1ccccc1[n+]2C (optimized conformer: 92.39665629566896 kcal/mol)

>  <smiles>  (19) 
CCN=CCNc1cccc2c1c(NCC=CCN(C)CC)c1ccccc1[n+]2C

>  <score_type>  (19) 
oracle

>  <origin>  (19) 
adg

>  <m_score__min__energy>  (19) 
-3.3900000000000001

>  <m_primary>  (19) 
energy

$$$$
19:0
     RDKit          3D

 55 57  0  0  0  0  0  0  0  0999 V2000
   63.4110   33.4370   46.7390 C   0  0  0  0  0  0  0  0  0  0  0  0
   61.9320   33.6300   47.0850 C   0  0  0  0  0  0  0  0  0  0  0  0
   61.4850   32.8970   48.2940 N   0  0  0  0  0  0  0  0  0  0  0  0
   61.3610   33.7260   49.5190 C   0  0  0  0  0  0  0  0  0  0  0  0
   60.1490   33.3850   50.4030 C   0  0  0  0  0  0  0  0  0  0  0  0
   62.0820   31.5570   48.4780 C   0  0  0  0  0  0  0  0  0  0  0  0
   61.1650   30.4700   47.8900 C   0  0  0  0  0  0  0  0  0  0  0  0
   59.7340   30.7970   48.0510 N   0  0  0  0  0  0  0  0  0  0  0  0
   59.0230   30.7800   46.7810 C   0  0  0  0  0  0  0  0  0  0  0  0
   58.8450   29.5550   46.0830 C   0  0  0  0  0  0  0  0  0  0  0  0
   58.1750   29.5490   44.8340 C   0  0  0  0  0  0  0  0  0  0  0  0
   57.7620   30.7300   44.2580 N   0  0  0  0  0  0  0  0  0  0  0  0
   56.9490   30.6990   43.0230 C   0  0  0  0  0  0  0  0  0  0  0  0
   58.1180   31.9340   44.8220 C   0  0  0  0  0  0  0  0  0  0  0  0
   58.6070   31.9830   46.1470 C   0  0  0  0  0  0  0  0  0  0  0  0
   58.6650   33.3280   46.8000 C   0  0  0  0  0  0  0  0  0  0  0  0
   58.3900   33.4680   48.0210 O   0  0  0  0  0  0  0  0  0  0  0  0
   58.8900   34.5700   45.9860 C   0  0  0  0  0  0  0  0  0  0  0  0
   59.0320   34.2590   44.4970 C   0  0  0  0  0  0  0  0  0  0  0  0
   57.9760   33.2420   44.0530 C   0  0  0  0  0  0  0  0  0  0  0  0
   57.9700   28.2340   44.1460 C   0  0  0  0  0  0  0  0  0  0  0  0
   58.6050   27.1330   44.5490 C   0  0  0  0  0  0  0  0  0  0  0  0
   59.6320   27.1970   45.6330 C   0  0  0  0  0  0  0  0  0  0  0  0
   59.2290   28.2140   46.7020 C   0  0  0  0  0  0  0  0  0  0  0  0
   63.9976   33.3605   47.6664 H   0  0  0  0  0  0  0  0  0  0  0  0
   63.5328   32.5154   46.1510 H   0  0  0  0  0  0  0  0  0  0  0  0
   63.7652   34.2965   46.1510 H   0  0  0  0  0  0  0  0  0  0  0  0
   61.7540   34.7032   47.2479 H   0  0  0  0  0  0  0  0  0  0  0  0
   61.3564   33.2232   46.2405 H   0  0  0  0  0  0  0  0  0  0  0  0
   62.2727   33.5897   50.1193 H   0  0  0  0  0  0  0  0  0  0  0  0
   61.2182   34.7629   49.1806 H   0  0  0  0  0  0  0  0  0  0  0  0
   60.4338   33.4651   51.4625 H   0  0  0  0  0  0  0  0  0  0  0  0
   59.3300   34.0876   50.1893 H   0  0  0  0  0  0  0  0  0  0  0  0
   59.8165   32.3584   50.1893 H   0  0  0  0  0  0  0  0  0  0  0  0
   63.0564   31.5223   47.9687 H   0  0  0  0  0  0  0  0  0  0  0  0
   62.2085   31.3699   49.5546 H   0  0  0  0  0  0  0  0  0  0  0  0
   61.3851   30.3636   46.8175 H   0  0  0  0  0  0  0  0  0  0  0  0
   61.3599   29.5344   48.4347 H   0  0  0  0  0  0  0  0  0  0  0  0
   59.2950   30.1160   48.7100 H   0  0  0  0  0  0  0  0  0  0  0  0
   59.6440   31.6970   48.5600 H   0  0  0  0  0  0  0  0  0  0  0  0
   55.8820   30.6583   43.2873 H   0  0  0  0  0  0  0  0  0  0  0  0
   57.1459   31.6053   42.4315 H   0  0  0  0  0  0  0  0  0  0  0  0
   57.2144   29.8103   42.4315 H   0  0  0  0  0  0  0  0  0  0  0  0
   58.0350   35.2474   46.1276 H   0  0  0  0  0  0  0  0  0  0  0  0
   59.8264   35.0355   46.3272 H   0  0  0  0  0  0  0  0  0  0  0  0
   58.9043   35.1871   43.9205 H   0  0  0  0  0  0  0  0  0  0  0  0
   60.0303   33.8330   44.3184 H   0  0  0  0  0  0  0  0  0  0  0  0
   56.9751   33.6599   44.2363 H   0  0  0  0  0  0  0  0  0  0  0  0
   58.1179   33.0353   42.9820 H   0  0  0  0  0  0  0  0  0  0  0  0
   57.2811   28.1756   43.2904 H   0  0  0  0  0  0  0  0  0  0  0  0
   58.3704   26.1668   44.0784 H   0  0  0  0  0  0  0  0  0  0  0  0
   59.7288   26.2045   46.0974 H   0  0  0  0  0  0  0  0  0  0  0  0
   60.5909   27.5084   45.1930 H   0  0  0  0  0  0  0  0  0  0  0  0
   58.3689   27.8203   47.2635 H   0  0  0  0  0  0  0  0  0  0  0  0
   60.0905   28.3752   47.3667 H   0  0  0  0  0  0  0  0  0  0  0  0
  1  2  1  0
  2  3  1  0
  3  4  1  0
  4  5  1  0
  3  6  1  0
  6  7  1  0
  7  8  1  0
  8  9  1  0
  9 10  2  0
 10 11  1  0
 11 12  2  0
 12 13  1  0
 12 14  1  0
 14 15  2  0
 15 16  1  0
 16 17  2  0
 16 18  1  0
 18 19  1  0
 19 20  1  0
 11 21  1  0
 21 22  2  0
 22 23  1  0
 23 24  1  0
 15  9  1  0
 24 10  1  0
 20 14  1  0
  1 25  1  0
  1 26  1  0
  1 27  1  0
  2 28  1  0
  2 29  1  0
  4 30  1  0
  4 31  1  0
  5 32  1  0
  5 33  1  0
  5 34  1  0
  6 35  1  0
  6 36  1  0
  7 37  1  0
  7 38  1  0
  8 39  1  0
  8 40  1  0
 13 41  1  0
 13 42  1  0
 13 43  1  0
 18 44  1  0
 18 45  1  0
 19 46  1  0
 19 47  1  0
 20 48  1  0
 20 49  1  0
 21 50  1  0
 22 51  1  0
 23 52  1  0
 23 53  1  0
 24 54  1  0
 24 55  1  0
M  CHG  2   8   1  12   1
M  END
>  <UniqueID>  (20) 
20

>  <SMILES>  (20) 
CCN(CC)CC[NH2+]c1c2c([n+](C)c3c1C(=O)CCC3)C=CCC2

>  <Energy>  (20) 
84.71835454761082

>  <Genealogy>  (20) 
CCN(CC)CC[NH2+]c1c2c([n+](C)c3c1C(=O)CCC3)C=CCC2 (protonated)
CCN(CC)CC[NH2+]c1c2c([n+](C)c3c1C(=O)CCC3)C=CCC2 (3D coordinates assigned)
CCN(CC)CC[NH2+]c1c2c([n+](C)c3c1C(=O)CCC3)C=CCC2 (nonaromatic ring conformer: 84.71835454761082 kcal/mol)

>  <smiles>  (20) 
CCN(CC)CCNc1c2c([n+](C)c3c1C(=O)CCC3)C=CCC2

>  <score_type>  (20) 
oracle

>  <origin>  (20) 
adg

>  <m_score__min__energy>  (20) 
-4.3499999999999996

>  <m_primary>  (20) 
energy

$$$$
20:0
     RDKit          3D

 49 51  0  0  0  0  0  0  0  0999 V2000
   57.7800   25.7940   44.5850 C   0  0  0  0  0  0  0  0  0  0  0  0
   56.8990   26.0710   45.7980 C   0  0  0  0  0  0  0  0  0  0  0  0
   56.1110   27.2440   45.5940 O   0  0  0  0  0  0  0  0  0  0  0  0
   56.6110   28.5240   45.3020 C   0  0  0  0  0  0  0  0  0  0  0  0
   55.8660   29.3440   44.4500 C   0  0  0  0  0  0  0  0  0  0  0  0
   56.3080   30.6290   44.1260 C   0  0  0  0  0  0  0  0  0  0  0  0
   57.5140   31.1300   44.6560 C   0  0  0  0  0  0  0  0  0  0  0  0
   58.0090   32.5050   44.3460 C   0  0  0  0  0  0  0  0  0  0  0  0
   58.8280   32.6490   43.3970 O   0  0  0  0  0  0  0  0  0  0  0  0
   57.5540   33.7300   45.1240 C   0  0  2  0  0  0  0  0  0  0  0  0
   58.4160   34.9800   44.8540 C   0  0  0  0  0  0  0  0  0  0  0  0
   59.7390   34.9560   45.6200 C   0  0  0  0  0  0  0  0  0  0  0  0
   59.4940   34.7940   47.1170 C   0  0  0  0  0  0  0  0  0  0  0  0
   58.6520   33.6230   47.4110 N   0  0  0  0  0  0  0  0  0  0  0  0
   59.2820   32.4310   48.0080 C   0  0  0  0  0  0  0  0  0  0  0  0
   60.7670   32.5890   48.1990 C   0  0  0  0  0  0  0  0  0  0  0  0
   61.6610   32.1590   47.2030 C   0  0  0  0  0  0  0  0  0  0  0  0
   63.0380   32.3290   47.3710 C   0  0  0  0  0  0  0  0  0  0  0  0
   63.5330   32.9440   48.5240 C   0  0  0  0  0  0  0  0  0  0  0  0
   64.8690   33.1080   48.6850 F   0  0  0  0  0  0  0  0  0  0  0  0
   62.6500   33.3910   49.5110 C   0  0  0  0  0  0  0  0  0  0  0  0
   61.2730   33.2130   49.3520 C   0  0  0  0  0  0  0  0  0  0  0  0
   57.4030   33.4530   46.6420 C   0  0  0  0  0  0  0  0  0  0  0  0
   58.2640   30.2960   45.5100 C   0  0  0  0  0  0  0  0  0  0  0  0
   57.8180   29.0120   45.8340 C   0  0  0  0  0  0  0  0  0  0  0  0
   58.7790   25.4799   44.9215 H   0  0  0  0  0  0  0  0  0  0  0  0
   57.3289   24.9943   43.9791 H   0  0  0  0  0  0  0  0  0  0  0  0
   57.8677   26.7079   43.9791 H   0  0  0  0  0  0  0  0  0  0  0  0
   56.2317   25.2122   45.9629 H   0  0  0  0  0  0  0  0  0  0  0  0
   57.5446   26.2276   46.6748 H   0  0  0  0  0  0  0  0  0  0  0  0
   54.9198   28.9729   44.0293 H   0  0  0  0  0  0  0  0  0  0  0  0
   55.7084   31.2564   43.4501 H   0  0  0  0  0  0  0  0  0  0  0  0
   56.5498   33.9592   44.7380 H   0  0  0  0  0  0  0  0  0  0  0  0
   58.6330   35.0328   43.7769 H   0  0  0  0  0  0  0  0  0  0  0  0
   57.8479   35.8577   45.1959 H   0  0  0  0  0  0  0  0  0  0  0  0
   60.3487   34.1138   45.2609 H   0  0  0  0  0  0  0  0  0  0  0  0
   60.2633   35.9078   45.4490 H   0  0  0  0  0  0  0  0  0  0  0  0
   60.4622   34.6726   47.6249 H   0  0  0  0  0  0  0  0  0  0  0  0
   58.9682   35.6911   47.4758 H   0  0  0  0  0  0  0  0  0  0  0  0
   58.8197   32.2431   48.9883 H   0  0  0  0  0  0  0  0  0  0  0  0
   59.1250   31.5915   47.3147 H   0  0  0  0  0  0  0  0  0  0  0  0
   61.2751   31.6867   46.2875 H   0  0  0  0  0  0  0  0  0  0  0  0
   63.7333   31.9781   46.5942 H   0  0  0  0  0  0  0  0  0  0  0  0
   63.0395   33.8836   50.4142 H   0  0  0  0  0  0  0  0  0  0  0  0
   60.5820   33.5630   50.1330 H   0  0  0  0  0  0  0  0  0  0  0  0
   57.0553   32.4175   46.7717 H   0  0  0  0  0  0  0  0  0  0  0  0
   56.6871   34.1922   47.0306 H   0  0  0  0  0  0  0  0  0  0  0  0
   59.2140   30.6613   45.9273 H   0  0  0  0  0  0  0  0  0  0  0  0
   58.4139   28.3797   46.5086 H   0  0  0  0  0  0  0  0  0  0  0  0
  1  2  1  0
  2  3  1  0
  3  4  1  0
  4  5  2  0
  5  6  1  0
  6  7  2  0
  7  8  1  0
  8  9  2  0
  8 10  1  0
 10 11  1  0
 11 12  1  0
 12 13  1  0
 13 14  1  0
 14 15  1  0
 15 16  1  0
 16 17  2  0
 17 18  1  0
 18 19  2  0
 19 20  1  0
 19 21  1  0
 21 22  2  0
 14 23  1  0
  7 24  1  0
 24 25  2  0
 25  4  1  0
 23 10  1  0
 22 16  1  0
  1 26  1  0
  1 27  1  0
  1 28  1  0
  2 29  1  0
  2 30  1  0
  5 31  1  0
  6 32  1  0
 10 33  1  6
 11 34  1  0
 11 35  1  0
 12 36  1  0
 12 37  1  0
 13 38  1  0
 13 39  1  0
 15 40  1  0
 15 41  1  0
 17 42  1  0
 18 43  1  0
 21 44  1  0
 22 45  1  0
 23 46  1  0
 23 47  1  0
 24 48  1  0
 25 49  1  0
M  END
>  <UniqueID>  (21) 
21

>  <SMILES>  (21) 
CCOc1ccc(C(=O)[C@@H]2CCCN(Cc3ccc(F)cc3)C2)cc1

>  <Energy>  (21) 
59.66935533174506

>  <Genealogy>  (21) 
CCOc1ccc(C(=O)[C@@H]2CCCN(Cc3ccc(F)cc3)C2)cc1 (chirality)
CCOc1ccc(C(=O)[C@@H]2CCCN(Cc3ccc(F)cc3)C2)cc1 (3D coordinates assigned)
CCOc1ccc(C(=O)[C@@H]2CCCN(Cc3ccc(F)cc3)C2)cc1 (nonaromatic ring conformer: 59.66935533174506 kcal/mol)

>  <smiles>  (21) 
CCOc1ccc(C(=O)C2CCCN(Cc3ccc(F)cc3)C2)cc1

>  <score_type>  (21) 
oracle

>  <origin>  (21) 
adg

>  <m_score__min__energy>  (21) 
-8.1099999999999994

>  <m_primary>  (21) 
energy

$$$$
21:0
     RDKit          3D

 46 48  0  0  0  0  0  0  0  0999 V2000
   58.2950   26.9120   44.1220 C   0  0  0  0  0  0  0  0  0  0  0  0
   57.4010   26.8820   45.3630 C   0  0  0  0  0  0  0  0  0  0  0  0
   58.1870   27.0600   46.6060 N   0  0  0  0  0  0  0  0  0  0  0  0
   58.0810   25.8620   47.4650 C   0  0  0  0  0  0  0  0  0  0  0  0
   59.6060   27.3400   46.2890 C   0  0  0  0  0  0  0  0  0  0  0  0
   59.9980   28.7390   46.7820 C   0  0  0  0  0  0  0  0  0  0  0  0
   58.8130   29.5190   47.1450 N   0  0  0  0  0  0  0  0  0  0  0  0
   58.6510   30.8720   46.6920 C   0  0  0  0  0  0  0  0  0  0  0  0
   58.2040   31.1030   45.3790 C   0  0  0  0  0  0  0  0  0  0  0  0
   57.6700   30.0520   44.6020 C   0  0  0  0  0  0  0  0  0  0  0  0
   57.1910   30.2890   43.3160 C   0  0  0  0  0  0  0  0  0  0  0  0
   57.2230   31.5750   42.7890 C   0  0  0  0  0  0  0  0  0  0  0  0
   57.7550   32.6260   43.5350 C   0  0  0  0  0  0  0  0  0  0  0  0
   58.2840   32.4060   44.8330 C   0  0  0  0  0  0  0  0  0  0  0  0
   58.8680   33.4220   45.5620 N   0  0  0  0  0  0  0  0  0  0  0  0
   59.2710   34.6750   44.8860 C   0  0  0  0  0  0  0  0  0  0  0  0
   59.0880   33.2610   46.9180 C   0  0  0  0  0  0  0  0  0  0  0  0
   59.4080   34.3700   47.7390 C   0  0  0  0  0  0  0  0  0  0  0  0
   59.6610   34.2130   49.0960 C   0  0  0  0  0  0  0  0  0  0  0  0
   59.5590   32.9640   49.6840 C   0  0  0  0  0  0  0  0  0  0  0  0
   59.2000   31.8460   48.9290 C   0  0  0  0  0  0  0  0  0  0  0  0
   58.9010   30.2580   49.9780 Br  0  0  0  0  0  0  0  0  0  0  0  0
   58.9790   31.9700   47.5230 C   0  0  0  0  0  0  0  0  0  0  0  0
   59.3501   26.9474   44.4310 H   0  0  0  0  0  0  0  0  0  0  0  0
   58.1190   26.0074   43.5213 H   0  0  0  0  0  0  0  0  0  0  0  0
   58.0587   27.8027   43.5213 H   0  0  0  0  0  0  0  0  0  0  0  0
   56.6610   27.6925   45.2895 H   0  0  0  0  0  0  0  0  0  0  0  0
   56.9059   25.9007   45.4066 H   0  0  0  0  0  0  0  0  0  0  0  0
   58.1078   26.1652   48.5220 H   0  0  0  0  0  0  0  0  0  0  0  0
   57.1335   25.3437   47.2561 H   0  0  0  0  0  0  0  0  0  0  0  0
   58.9228   25.1854   47.2561 H   0  0  0  0  0  0  0  0  0  0  0  0
   60.2423   26.5904   46.7822 H   0  0  0  0  0  0  0  0  0  0  0  0
   59.7438   27.2942   45.1986 H   0  0  0  0  0  0  0  0  0  0  0  0
   60.6478   28.6405   47.6641 H   0  0  0  0  0  0  0  0  0  0  0  0
   60.5260   29.2612   45.9705 H   0  0  0  0  0  0  0  0  0  0  0  0
   57.9700   29.0130   47.4980 H   0  0  0  0  0  0  0  0  0  0  0  0
   57.6319   29.0341   45.0173 H   0  0  0  0  0  0  0  0  0  0  0  0
   56.7875   29.4590   42.7175 H   0  0  0  0  0  0  0  0  0  0  0  0
   56.8273   31.7640   41.7802 H   0  0  0  0  0  0  0  0  0  0  0  0
   57.7647   33.6409   43.1109 H   0  0  0  0  0  0  0  0  0  0  0  0
   59.5159   35.4365   45.6410 H   0  0  0  0  0  0  0  0  0  0  0  0
   60.1533   34.4850   44.2572 H   0  0  0  0  0  0  0  0  0  0  0  0
   58.4433   35.0350   44.2572 H   0  0  0  0  0  0  0  0  0  0  0  0
   59.4571   35.3746   47.2937 H   0  0  0  0  0  0  0  0  0  0  0  0
   59.9433   35.0842   49.7053 H   0  0  0  0  0  0  0  0  0  0  0  0
   59.7632   32.8511   50.7590 H   0  0  0  0  0  0  0  0  0  0  0  0
  1  2  1  0
  2  3  1  0
  3  4  1  0
  3  5  1  0
  5  6  1  0
  6  7  1  0
  7  8  1  0
  8  9  2  0
  9 10  1  0
 10 11  2  0
 11 12  1  0
 12 13  2  0
 13 14  1  0
 14 15  2  0
 15 16  1  0
 15 17  1  0
 17 18  2  0
 18 19  1  0
 19 20  2  0
 20 21  1  0
 21 22  1  0
 21 23  2  0
 23  8  1  0
 14  9  1  0
 23 17  1  0
  1 24  1  0
  1 25  1  0
  1 26  1  0
  2 27  1  0
  2 28  1  0
  4 29  1  0
  4 30  1  0
  4 31  1  0
  5 32  1  0
  5 33  1  0
  6 34  1  0
  6 35  1  0
  7 36  1  0
 10 37  1  0
 11 38  1  0
 12 39  1  0
 13 40  1  0
 16 41  1  0
 16 42  1  0
 16 43  1  0
 18 44  1  0
 19 45  1  0
 20 46  1  0
M  CHG  1  15   1
M  END
>  <UniqueID>  (22) 
22

>  <SMILES>  (22) 
CCN(C)CCNc1c2ccccc2[n+](C)c2cccc(Br)c12

>  <Energy>  (22) 
80.64815680611481

>  <Genealogy>  (22) 
CCN(C)CCNc1c2ccccc2[n+](C)c2cccc(Br)c12 (3D coordinates assigned)
CCN(C)CCNc1c2ccccc2[n+](C)c2cccc(Br)c12 (optimized conformer: 80.64815680611481 kcal/mol)

>  <smiles>  (22) 
CCN(C)CCNc1c2ccccc2[n+](C)c2cccc(Br)c12

>  <score_type>  (22) 
oracle

>  <origin>  (22) 
adg

>  <m_score__min__energy>  (22) 
-5.9400000000000004

>  <m_primary>  (22) 
energy

$$$$
