0:0
     RDKit          3D

 58 60  0  0  0  0  0  0  0  0999 V2000
   58.5600   32.4160   51.4990 C   0  0  0  0  0  0  0  0  0  0  0  0
   57.4350   31.5470   50.9500 C   0  0  0  0  0  0  0  0  0  0  0  0
   57.7410   30.1280   51.1710 N   0  0  0  0  0  0  0  0  0  0  0  0
   58.7980   29.9880   52.1830 C   0  0  0  0  0  0  0  0  0  0  0  0
   59.9870   29.2150   51.6090 C   0  0  0  0  0  0  0  0  0  0  0  0
   59.6220   28.6370   50.3730 O   0  0  0  0  0  0  0  0  0  0  0  0
   60.7500   28.5230   49.5260 C   0  0  0  0  0  0  0  0  0  0  0  0
   60.7110   29.6420   48.4880 C   0  0  0  0  0  0  0  0  0  0  0  0
   59.3670   30.2150   48.4070 N   0  0  0  0  0  0  0  0  0  0  0  0
   58.9510   30.9370   47.2360 C   0  0  0  0  0  0  0  0  0  0  0  0
   59.0920   32.3330   47.1800 C   0  0  0  0  0  0  0  0  0  0  0  0
   59.6270   33.0500   48.2720 C   0  0  0  0  0  0  0  0  0  0  0  0
   59.7140   34.4390   48.2370 C   0  0  0  0  0  0  0  0  0  0  0  0
   59.2660   35.1360   47.1210 C   0  0  0  0  0  0  0  0  0  0  0  0
   58.7620   34.4470   46.0170 C   0  0  0  0  0  0  0  0  0  0  0  0
   58.7020   33.0290   46.0040 C   0  0  0  0  0  0  0  0  0  0  0  0
   58.2750   32.3280   44.8910 N   0  0  0  0  0  0  0  0  0  0  0  0
   58.1520   33.0160   43.5860 C   0  0  0  0  0  0  0  0  0  0  0  0
   57.9980   30.9760   44.9880 C   0  0  0  0  0  0  0  0  0  0  0  0
   57.3300   30.2750   43.9530 C   0  0  0  0  0  0  0  0  0  0  0  0
   57.1060   28.9010   44.0380 C   0  0  0  0  0  0  0  0  0  0  0  0
   57.5120   28.1770   45.1650 C   0  0  0  0  0  0  0  0  0  0  0  0
   57.2790   26.7520   45.2470 N   0  0  0  0  0  0  0  0  0  0  0  0
   56.5280   26.1890   46.3720 C   0  0  0  0  0  0  0  0  0  0  0  0
   57.7620   25.8630   44.1850 C   0  0  0  0  0  0  0  0  0  0  0  0
   58.1310   28.8630   46.2200 C   0  0  0  0  0  0  0  0  0  0  0  0
   58.3680   30.2540   46.1530 C   0  0  0  0  0  0  0  0  0  0  0  0
   58.5350   32.3967   52.5985 H   0  0  0  0  0  0  0  0  0  0  0  0
   59.5276   32.0285   51.1474 H   0  0  0  0  0  0  0  0  0  0  0  0
   58.4295   33.4501   51.1474 H   0  0  0  0  0  0  0  0  0  0  0  0
   56.4956   31.8009   51.4628 H   0  0  0  0  0  0  0  0  0  0  0  0
   57.3326   31.7297   49.8701 H   0  0  0  0  0  0  0  0  0  0  0  0
   58.1030   29.7370   50.2690 H   0  0  0  0  0  0  0  0  0  0  0  0
   59.1332   30.9873   52.4976 H   0  0  0  0  0  0  0  0  0  0  0  0
   58.3958   29.4355   53.0449 H   0  0  0  0  0  0  0  0  0  0  0  0
   60.8320   29.9026   51.4567 H   0  0  0  0  0  0  0  0  0  0  0  0
   60.2813   28.4214   52.3116 H   0  0  0  0  0  0  0  0  0  0  0  0
   61.6695   28.6072   50.1239 H   0  0  0  0  0  0  0  0  0  0  0  0
   60.7354   27.5469   49.0191 H   0  0  0  0  0  0  0  0  0  0  0  0
   61.4238   30.4287   48.7760 H   0  0  0  0  0  0  0  0  0  0  0  0
   60.9824   29.2277   47.5058 H   0  0  0  0  0  0  0  0  0  0  0  0
   58.8740   30.4340   49.3030 H   0  0  0  0  0  0  0  0  0  0  0  0
   59.9790   32.5052   49.1604 H   0  0  0  0  0  0  0  0  0  0  0  0
   60.1374   34.9851   49.0928 H   0  0  0  0  0  0  0  0  0  0  0  0
   59.3089   36.2351   47.1079 H   0  0  0  0  0  0  0  0  0  0  0  0
   58.4056   35.0119   45.1430 H   0  0  0  0  0  0  0  0  0  0  0  0
   57.9606   34.0864   43.7524 H   0  0  0  0  0  0  0  0  0  0  0  0
   59.0861   32.8945   43.0180 H   0  0  0  0  0  0  0  0  0  0  0  0
   57.3179   32.5784   43.0180 H   0  0  0  0  0  0  0  0  0  0  0  0
   56.9818   30.8248   43.0662 H   0  0  0  0  0  0  0  0  0  0  0  0
   56.6042   28.3800   43.2093 H   0  0  0  0  0  0  0  0  0  0  0  0
   56.9772   26.5258   47.3179 H   0  0  0  0  0  0  0  0  0  0  0  0
   55.4827   26.5279   46.3214 H   0  0  0  0  0  0  0  0  0  0  0  0
   56.5602   25.0906   46.3214 H   0  0  0  0  0  0  0  0  0  0  0  0
   58.2412   24.9810   44.6349 H   0  0  0  0  0  0  0  0  0  0  0  0
   56.9143   25.5419   43.5618 H   0  0  0  0  0  0  0  0  0  0  0  0
   58.4927   26.3994   43.5618 H   0  0  0  0  0  0  0  0  0  0  0  0
   58.4382   28.3067   47.1178 H   0  0  0  0  0  0  0  0  0  0  0  0
  1  2  1  0
  2  3  1  0
  3  4  1  0
  4  5  1  0
  5  6  1  0
  6  7  1  0
  7  8  1  0
  8  9  1  0
  9 10  1  0
 10 11  2  0
 11 12  1  0
 12 13  2  0
 13 14  1  0
 14 15  2  0
 15 16  1  0
 16 17  2  0
 17 18  1  0
 17 19  1  0
 19 20  2  0
 20 21  1  0
 21 22  2  0
 22 23  1  0
 23 24  1  0
 23 25  1  0
 22 26  1  0
 26 27  2  0
 27 10  1  0
 16 11  1  0
 27 19  1  0
  1 28  1  0
  1 29  1  0
  1 30  1  0
  2 31  1  0
  2 32  1  0
  3 33  1  0
  4 34  1  0
  4 35  1  0
  5 36  1  0
  5 37  1  0
  7 38  1  0
  7 39  1  0
  8 40  1  0
  8 41  1  0
  9 42  1  0
 12 43  1  0
 13 44  1  0
 14 45  1  0
 15 46  1  0
 18 47  1  0
 18 48  1  0
 18 49  1  0
 20 50  1  0
 21 51  1  0
 24 52  1  0
 24 53  1  0
 24 54  1  0
 25 55  1  0
 25 56  1  0
 25 57  1  0
 26 58  1  0
M  CHG  1  17   1
M  END
>  <UniqueID>  (1) 
1

>  <SMILES>  (1) 
CCNCCOCCNc1c2ccccc2[n+](C)c2ccc(N(C)C)cc12

>  <Energy>  (1) 
80.03468331591118

>  <Genealogy>  (1) 
CCNCCOCCNc1c2ccccc2[n+](C)c2ccc(N(C)C)cc12 (3D coordinates assigned)
CCNCCOCCNc1c2ccccc2[n+](C)c2ccc(N(C)C)cc12 (optimized conformer: 80.03468331591118 kcal/mol)

>  <smiles>  (1) 
CCNCCOCCNc1c2ccccc2[n+](C)c2ccc(N(C)C)cc12

>  <score_type>  (1) 
oracle

>  <origin>  (1) 
adg

>  <m_score__min__energy>  (1) 
-5.54

>  <m_primary>  (1) 
energy

$$$$
1:0
     RDKit          3D

 76 79  0  0  0  0  0  0  0  0999 V2000
   61.4020   29.2680   50.9680 C   0  0  0  0  0  0  0  0  0  0  0  0
   60.6450   30.5930   50.9770 C   0  0  0  0  0  0  0  0  0  0  0  0
   59.6800   30.6890   49.8530 N   0  0  0  0  0  0  0  0  0  0  0  0
   58.6980   31.7780   50.0850 C   0  0  0  0  0  0  0  0  0  0  0  0
   59.3280   33.0910   50.5690 C   0  0  0  0  0  0  0  0  0  0  0  0
   59.0240   29.3960   49.5260 C   0  0  0  0  0  0  0  0  0  0  0  0
   59.3810   28.9130   48.0950 C   0  0  0  0  0  0  0  0  0  0  0  0
   60.3080   29.7620   47.2980 N   0  0  0  0  0  0  0  0  0  0  0  0
   59.7010   30.8010   46.4770 C   0  0  0  0  0  0  0  0  0  0  0  0
   58.7670   30.4390   45.4690 C   0  0  0  0  0  0  0  0  0  0  0  0
   58.5980   29.0940   45.0590 C   0  0  0  0  0  0  0  0  0  0  0  0
   57.7380   28.7610   44.0160 C   0  0  0  0  0  0  0  0  0  0  0  0
   57.0270   29.7530   43.3580 C   0  0  0  0  0  0  0  0  0  0  0  0
   57.1490   31.0790   43.7590 C   0  0  0  0  0  0  0  0  0  0  0  0
   57.9900   31.4460   44.8400 C   0  0  0  0  0  0  0  0  0  0  0  0
   58.0620   32.7470   45.2800 N   0  0  0  0  0  0  0  0  0  0  0  0
   56.9980   33.7080   44.9070 C   0  0  0  0  0  0  0  0  0  0  0  0
   59.1140   33.1530   46.0760 C   0  0  0  0  0  0  0  0  0  0  0  0
   59.3780   34.5300   46.2670 C   0  0  0  0  0  0  0  0  0  0  0  0
   60.4000   34.9620   47.0950 C   0  0  0  0  0  0  0  0  0  0  0  0
   61.2230   34.0440   47.7200 C   0  0  0  0  0  0  0  0  0  0  0  0
   61.0550   32.6640   47.5130 C   0  0  0  0  0  0  0  0  0  0  0  0
   61.9910   31.7700   48.0610 O   0  0  0  0  0  0  0  0  0  0  0  0
   63.3980   31.7960   47.8380 C   0  0  0  0  0  0  0  0  0  0  0  0
   64.0140   32.9590   48.6430 C   0  0  0  0  0  0  0  0  0  0  0  0
   63.9200   32.8310   50.1380 N   0  0  0  0  0  0  0  0  0  0  0  0
   62.6430   33.4270   50.6180 C   0  0  0  0  0  0  0  0  0  0  0  0
   63.9850   31.3830   50.5610 C   0  0  0  0  0  0  0  0  0  0  0  0
   65.3160   30.9580   51.2170 C   0  0  0  0  0  0  0  0  0  0  0  0
   66.5080   31.5570   50.4760 C   0  0  0  0  0  0  0  0  0  0  0  0
   66.4300   33.0910   50.4250 C   0  0  0  0  0  0  0  0  0  0  0  0
   65.0220   33.6320   50.7560 C   0  0  0  0  0  0  0  0  0  0  0  0
   59.9660   32.1900   46.7050 C   0  0  0  0  0  0  0  0  0  0  0  0
   61.5869   28.9443   52.0029 H   0  0  0  0  0  0  0  0  0  0  0  0
   60.8025   28.5067   50.4473 H   0  0  0  0  0  0  0  0  0  0  0  0
   62.3622   29.3978   50.4473 H   0  0  0  0  0  0  0  0  0  0  0  0
   60.0954   30.6817   51.9257 H   0  0  0  0  0  0  0  0  0  0  0  0
   61.3789   31.4047   50.8654 H   0  0  0  0  0  0  0  0  0  0  0  0
   58.1697   31.9749   49.1405 H   0  0  0  0  0  0  0  0  0  0  0  0
   58.0231   31.4346   50.8829 H   0  0  0  0  0  0  0  0  0  0  0  0
   59.3370   33.1098   51.6688 H   0  0  0  0  0  0  0  0  0  0  0  0
   60.3590   33.1636   50.1926 H   0  0  0  0  0  0  0  0  0  0  0  0
   58.7395   33.9407   50.1926 H   0  0  0  0  0  0  0  0  0  0  0  0
   59.3534   28.6366   50.2504 H   0  0  0  0  0  0  0  0  0  0  0  0
   57.9350   29.5437   49.5748 H   0  0  0  0  0  0  0  0  0  0  0  0
   59.8415   27.9183   48.1876 H   0  0  0  0  0  0  0  0  0  0  0  0
   58.4298   28.9395   47.5432 H   0  0  0  0  0  0  0  0  0  0  0  0
   60.9840   30.2130   47.9560 H   0  0  0  0  0  0  0  0  0  0  0  0
   60.9630   29.1770   46.7370 H   0  0  0  0  0  0  0  0  0  0  0  0
   59.1562   28.2982   45.5738 H   0  0  0  0  0  0  0  0  0  0  0  0
   57.6224   27.7097   43.7136 H   0  0  0  0  0  0  0  0  0  0  0  0
   56.3662   29.4910   42.5185 H   0  0  0  0  0  0  0  0  0  0  0  0
   56.5824   31.8578   43.2276 H   0  0  0  0  0  0  0  0  0  0  0  0
   56.5409   34.1209   45.8184 H   0  0  0  0  0  0  0  0  0  0  0  0
   57.4335   34.5249   44.3128 H   0  0  0  0  0  0  0  0  0  0  0  0
   56.2295   33.1918   44.3128 H   0  0  0  0  0  0  0  0  0  0  0  0
   58.7573   35.2738   45.7459 H   0  0  0  0  0  0  0  0  0  0  0  0
   60.5575   36.0387   47.2559 H   0  0  0  0  0  0  0  0  0  0  0  0
   62.0209   34.3986   48.3890 H   0  0  0  0  0  0  0  0  0  0  0  0
   63.8410   30.8445   48.1673 H   0  0  0  0  0  0  0  0  0  0  0  0
   63.6013   31.9378   46.7663 H   0  0  0  0  0  0  0  0  0  0  0  0
   65.0785   33.0305   48.3750 H   0  0  0  0  0  0  0  0  0  0  0  0
   63.4298   33.8528   48.3786 H   0  0  0  0  0  0  0  0  0  0  0  0
   62.6315   33.4324   51.7179 H   0  0  0  0  0  0  0  0  0  0  0  0
   62.5568   34.4584   50.2454 H   0  0  0  0  0  0  0  0  0  0  0  0
   61.7971   32.8306   50.2454 H   0  0  0  0  0  0  0  0  0  0  0  0
   63.1748   31.2008   51.2823 H   0  0  0  0  0  0  0  0  0  0  0  0
   63.8900   30.7877   49.6409 H   0  0  0  0  0  0  0  0  0  0  0  0
   65.3297   31.3058   52.2605 H   0  0  0  0  0  0  0  0  0  0  0  0
   65.3926   29.8615   51.1746 H   0  0  0  0  0  0  0  0  0  0  0  0
   67.4337   31.2637   50.9928 H   0  0  0  0  0  0  0  0  0  0  0  0
   66.4972   31.1775   49.4436 H   0  0  0  0  0  0  0  0  0  0  0  0
   67.1445   33.5032   51.1527 H   0  0  0  0  0  0  0  0  0  0  0  0
   66.6692   33.3999   49.3967 H   0  0  0  0  0  0  0  0  0  0  0  0
   64.8916   33.6209   51.8482 H   0  0  0  0  0  0  0  0  0  0  0  0
   64.9578   34.6488   50.3412 H   0  0  0  0  0  0  0  0  0  0  0  0
  1  2  1  0
  2  3  1  0
  3  4  1  0
  4  5  1  0
  3  6  1  0
  6  7  1  0
  7  8  1  0
  8  9  1  0
  9 10  2  0
 10 11  1  0
 11 12  2  0
 12 13  1  0
 13 14  2  0
 14 15  1  0
 15 16  2  0
 16 17  1  0
 16 18  1  0
 18 19  2  0
 19 20  1  0
 20 21  2  0
 21 22  1  0
 22 23  1  0
 23 24  1  0
 24 25  1  0
 25 26  1  0
 26 27  1  0
 26 28  1  0
 28 29  1  0
 29 30  1  0
 30 31  1  0
 31 32  1  0
 22 33  2  0
 33  9  1  0
 15 10  1  0
 33 18  1  0
 32 26  1  0
  1 34  1  0
  1 35  1  0
  1 36  1  0
  2 37  1  0
  2 38  1  0
  4 39  1  0
  4 40  1  0
  5 41  1  0
  5 42  1  0
  5 43  1  0
  6 44  1  0
  6 45  1  0
  7 46  1  0
  7 47  1  0
  8 48  1  0
  8 49  1  0
 11 50  1  0
 12 51  1  0
 13 52  1  0
 14 53  1  0
 17 54  1  0
 17 55  1  0
 17 56  1  0
 19 57  1  0
 20 58  1  0
 21 59  1  0
 24 60  1  0
 24 61  1  0
 25 62  1  0
 25 63  1  0
 27 64  1  0
 27 65  1  0
 27 66  1  0
 28 67  1  0
 28 68  1  0
 29 69  1  0
 29 70  1  0
 30 71  1  0
 30 72  1  0
 31 73  1  0
 31 74  1  0
 32 75  1  0
 32 76  1  0
M  CHG  3   8   1  16   1  26   1
M  END
>  <UniqueID>  (2) 
2

>  <SMILES>  (2) 
CCN(CC)CC[NH2+]c1c2ccccc2[n+](C)c2cccc(OCC[N+]3(C)CCCCC3)c12

>  <Energy>  (2) 
132.2844313987282

>  <Genealogy>  (2) 
CCN(CC)CC[NH2+]c1c2ccccc2[n+](C)c2cccc(OCC[N+]3(C)CCCCC3)c12 (protonated)
CCN(CC)CC[NH2+]c1c2ccccc2[n+](C)c2cccc(OCC[N+]3(C)CCCCC3)c12 (3D coordinates assigned)
CCN(CC)CC[NH2+]c1c2ccccc2[n+](C)c2cccc(OCC[N+]3(C)CCCCC3)c12 (nonaromatic ring conformer: 132.2844313987282 kcal/mol)

>  <smiles>  (2) 
CCN(CC)CCNc1c2ccccc2[n+](C)c2cccc(OCC[N+]3(C)CCCCC3)c12

>  <score_type>  (2) 
oracle

>  <origin>  (2) 
adg

>  <m_score__min__energy>  (2) 
-3.4399999999999999

>  <m_primary>  (2) 
energy

$$$$
2:0
     RDKit          3D

 61 64  0  0  0  0  0  0  0  0999 V2000
   56.7340   22.1810   43.3590 C   0  0  0  0  0  0  0  0  0  0  0  0
   56.6480   23.6850   43.0700 C   0  0  0  0  0  0  0  0  0  0  0  0
   56.4820   24.5170   44.2950 N   0  0  0  0  0  0  0  0  0  0  0  0
   55.5000   23.9030   45.2270 C   0  0  0  0  0  0  0  0  0  0  0  0
   54.3800   24.8710   45.6290 C   0  0  0  0  0  0  0  0  0  0  0  0
   57.7580   24.8170   45.0000 C   0  0  0  0  0  0  0  0  0  0  0  0
   58.2200   26.2850   44.8860 C   0  0  0  0  0  0  0  0  0  0  0  0
   58.5140   26.8740   46.2730 C   0  0  0  0  0  0  0  0  0  0  0  0
   57.8170   28.1480   46.4830 N   0  0  0  0  0  0  0  0  0  0  0  0
   58.3690   29.4090   46.0620 C   0  0  0  0  0  0  0  0  0  0  0  0
   59.2820   30.1080   46.8760 C   0  0  0  0  0  0  0  0  0  0  0  0
   59.6790   31.4100   46.5150 C   0  0  0  0  0  0  0  0  0  0  0  0
   58.9670   32.0730   45.5330 N   0  0  0  0  0  0  0  0  0  0  0  0
   58.7170   33.5230   45.6320 C   0  0  0  0  0  0  0  0  0  0  0  0
   58.2540   31.3500   44.6040 C   0  0  0  0  0  0  0  0  0  0  0  0
   57.7780   31.9490   43.4140 C   0  0  0  0  0  0  0  0  0  0  0  0
   57.0110   31.2210   42.5060 C   0  0  0  0  0  0  0  0  0  0  0  0
   56.6840   29.8940   42.7710 C   0  0  0  0  0  0  0  0  0  0  0  0
   57.1390   29.2820   43.9380 C   0  0  0  0  0  0  0  0  0  0  0  0
   57.9430   29.9910   44.8540 C   0  0  0  0  0  0  0  0  0  0  0  0
   60.8570   32.0180   47.2350 C   0  0  0  0  0  0  0  0  0  0  0  0
   61.4950   33.1840   46.7580 C   0  0  0  0  0  0  0  0  0  0  0  0
   62.5330   33.7620   47.4810 C   0  0  0  0  0  0  0  0  0  0  0  0
   62.9860   33.1520   48.6410 C   0  0  0  0  0  0  0  0  0  0  0  0
   62.4410   31.9310   49.0230 C   0  0  0  0  0  0  0  0  0  0  0  0
   61.4190   31.3630   48.3100 N   0  0  0  0  0  0  0  0  0  0  0  0
   61.1330   29.9460   48.5650 C   0  0  0  0  0  0  0  0  0  0  0  0
   59.7040   29.5610   48.2130 C   0  0  0  0  0  0  0  0  0  0  0  0
   56.7434   22.0166   44.4466 H   0  0  0  0  0  0  0  0  0  0  0  0
   55.8635   21.6727   42.9188 H   0  0  0  0  0  0  0  0  0  0  0  0
   57.6568   21.7752   42.9188 H   0  0  0  0  0  0  0  0  0  0  0  0
   57.5725   23.9952   42.5611 H   0  0  0  0  0  0  0  0  0  0  0  0
   55.7554   23.8443   42.4472 H   0  0  0  0  0  0  0  0  0  0  0  0
   56.0990   25.4430   43.9910 H   0  0  0  0  0  0  0  0  0  0  0  0
   55.0493   23.0275   44.7367 H   0  0  0  0  0  0  0  0  0  0  0  0
   56.0414   23.6227   46.1426 H   0  0  0  0  0  0  0  0  0  0  0  0
   54.3179   24.9247   46.7259 H   0  0  0  0  0  0  0  0  0  0  0  0
   54.5968   25.8708   45.2247 H   0  0  0  0  0  0  0  0  0  0  0  0
   53.4222   24.5117   45.2247 H   0  0  0  0  0  0  0  0  0  0  0  0
   57.6260   24.5798   46.0660 H   0  0  0  0  0  0  0  0  0  0  0  0
   58.5344   24.2054   44.5172 H   0  0  0  0  0  0  0  0  0  0  0  0
   59.1334   26.3290   44.2746 H   0  0  0  0  0  0  0  0  0  0  0  0
   57.4164   26.8718   44.4172 H   0  0  0  0  0  0  0  0  0  0  0  0
   58.1859   26.1579   47.0408 H   0  0  0  0  0  0  0  0  0  0  0  0
   59.5958   27.0606   46.3429 H   0  0  0  0  0  0  0  0  0  0  0  0
   56.9740   28.1540   47.1020 H   0  0  0  0  0  0  0  0  0  0  0  0
   58.6667   33.8149   46.6914 H   0  0  0  0  0  0  0  0  0  0  0  0
   59.5340   34.0704   45.1392 H   0  0  0  0  0  0  0  0  0  0  0  0
   57.7638   33.7652   45.1392 H   0  0  0  0  0  0  0  0  0  0  0  0
   58.0161   33.0020   43.2028 H   0  0  0  0  0  0  0  0  0  0  0  0
   56.6630   31.6965   41.5771 H   0  0  0  0  0  0  0  0  0  0  0  0
   56.0659   29.3277   42.0588 H   0  0  0  0  0  0  0  0  0  0  0  0
   56.8683   28.2363   44.1461 H   0  0  0  0  0  0  0  0  0  0  0  0
   61.1694   33.6373   45.8101 H   0  0  0  0  0  0  0  0  0  0  0  0
   62.9927   34.6992   47.1341 H   0  0  0  0  0  0  0  0  0  0  0  0
   63.7671   33.6283   49.2517 H   0  0  0  0  0  0  0  0  0  0  0  0
   62.8362   31.4143   49.9100 H   0  0  0  0  0  0  0  0  0  0  0  0
   61.8205   29.3346   47.9621 H   0  0  0  0  0  0  0  0  0  0  0  0
   61.2681   29.7693   49.6423 H   0  0  0  0  0  0  0  0  0  0  0  0
   59.6287   28.4639   48.1869 H   0  0  0  0  0  0  0  0  0  0  0  0
   59.0401   29.9892   48.9784 H   0  0  0  0  0  0  0  0  0  0  0  0
  1  2  1  0
  2  3  1  0
  3  4  1  0
  4  5  1  0
  3  6  1  0
  6  7  1  0
  7  8  1  0
  8  9  1  0
  9 10  1  0
 10 11  2  0
 11 12  1  0
 12 13  2  0
 13 14  1  0
 13 15  1  0
 15 16  2  0
 16 17  1  0
 17 18  2  0
 18 19  1  0
 19 20  2  0
 12 21  1  0
 21 22  2  0
 22 23  1  0
 23 24  2  0
 24 25  1  0
 25 26  2  0
 26 27  1  0
 27 28  1  0
 20 10  1  0
 26 21  1  0
 28 11  1  0
 20 15  1  0
  1 29  1  0
  1 30  1  0
  1 31  1  0
  2 32  1  0
  2 33  1  0
  3 34  1  0
  4 35  1  0
  4 36  1  0
  5 37  1  0
  5 38  1  0
  5 39  1  0
  6 40  1  0
  6 41  1  0
  7 42  1  0
  7 43  1  0
  8 44  1  0
  8 45  1  0
  9 46  1  0
 14 47  1  0
 14 48  1  0
 14 49  1  0
 16 50  1  0
 17 51  1  0
 18 52  1  0
 19 53  1  0
 22 54  1  0
 23 55  1  0
 24 56  1  0
 25 57  1  0
 27 58  1  0
 27 59  1  0
 28 60  1  0
 28 61  1  0
M  CHG  3   3   1  13   1  26   1
M  END
>  <UniqueID>  (3) 
3

>  <SMILES>  (3) 
CC[NH+](CC)CCCNc1c2c([n+](C)c3ccccc13)-c1cccc[n+]1CC2

>  <Energy>  (3) 
104.0148372447092

>  <Genealogy>  (3) 
CC[NH+](CC)CCCNc1c2c([n+](C)c3ccccc13)-c1cccc[n+]1CC2 (protonated)
CC[NH+](CC)CCCNc1c2c([n+](C)c3ccccc13)-c1cccc[n+]1CC2 (3D coordinates assigned)
CC[NH+](CC)CCCNc1c2c([n+](C)c3ccccc13)-c1cccc[n+]1CC2 (nonaromatic ring conformer: 104.0148372447092 kcal/mol)

>  <smiles>  (3) 
CCN(CC)CCCNc1c2c([n+](C)c3ccccc13)-c1cccc[n+]1CC2

>  <score_type>  (3) 
oracle

>  <origin>  (3) 
adg

>  <m_score__min__energy>  (3) 
-3.3500000000000001

>  <m_primary>  (3) 
energy

$$$$
3:0
     RDKit          3D

 75 78  0  0  0  0  0  0  0  0999 V2000
   58.4670   26.6020   47.2210 C   0  0  0  0  0  0  0  0  0  0  0  0
   59.1860   27.8110   47.6220 N   0  0  0  0  0  0  0  0  0  0  0  0
   60.0150   27.8950   48.6810 C   0  0  0  0  0  0  0  0  0  0  0  0
   60.6180   29.1370   48.7110 C   0  0  0  0  0  0  0  0  0  0  0  0
   60.1460   29.8340   47.6190 C   0  0  0  0  0  0  0  0  0  0  0  0
   59.2670   28.9900   46.9630 C   0  0  0  0  0  0  0  0  0  0  0  0
   58.6560   29.2950   45.6230 C   0  0  0  0  0  0  0  0  0  0  0  0
   58.5840   30.7410   45.4430 N   0  0  0  0  0  0  0  0  0  0  0  0
   57.5340   31.3580   44.6880 C   0  0  0  0  0  0  0  0  0  0  0  0
   56.3980   30.8170   44.6220 O   0  0  0  0  0  0  0  0  0  0  0  0
   57.7780   32.6600   43.9850 C   0  0  0  0  0  0  0  0  0  0  0  0
   57.4960   33.8060   44.8780 N   0  0  0  0  0  0  0  0  0  0  0  0
   57.1450   33.3770   46.2560 C   0  0  0  0  0  0  0  0  0  0  0  0
   58.3090   33.5130   47.2580 C   0  0  0  0  0  0  0  0  0  0  0  0
   59.5930   33.2630   46.5800 N   0  0  0  0  0  0  0  0  0  0  0  0
   60.7050   33.1680   47.5540 C   0  0  0  0  0  0  0  0  0  0  0  0
   60.5460   34.2010   48.6780 C   0  0  0  0  0  0  0  0  0  0  0  0
   60.6250   33.5660   49.9550 O   0  0  0  0  0  0  0  0  0  0  0  0
   59.5450   32.9730   50.6240 C   0  0  0  0  0  0  0  0  0  0  0  0
   58.8890   33.6010   51.7010 C   0  0  0  0  0  0  0  0  0  0  0  0
   57.8050   32.9730   52.3230 C   0  0  0  0  0  0  0  0  0  0  0  0
   57.3520   31.7310   51.8610 C   0  0  0  0  0  0  0  0  0  0  0  0
   56.1660   31.1390   52.4190 C   0  0  0  0  0  0  0  0  0  0  0  0
   55.1950   30.6140   52.9010 C   0  0  0  0  0  0  0  0  0  0  0  0
   54.0360   29.9430   53.4950 C   0  0  0  0  0  0  0  0  0  0  0  0
   53.2150   29.2450   52.4030 C   0  0  0  0  0  0  0  0  0  0  0  0
   51.9310   29.9420   52.1600 N   0  0  0  0  0  0  0  0  0  0  0  0
   51.8920   30.5540   50.8070 C   0  0  0  0  0  0  0  0  0  0  0  0
   52.0240   32.0860   50.8520 C   0  0  0  0  0  0  0  0  0  0  0  0
   51.0120   32.7150   51.6260 O   0  0  0  0  0  0  0  0  0  0  0  0
   50.5940   31.9500   52.7500 C   0  0  0  0  0  0  0  0  0  0  0  0
   51.6280   30.9200   53.2300 C   0  0  0  0  0  0  0  0  0  0  0  0
   58.0150   31.0980   50.8050 C   0  0  0  0  0  0  0  0  0  0  0  0
   59.1140   31.7120   50.1980 C   0  0  0  0  0  0  0  0  0  0  0  0
   59.8620   34.3210   45.5810 C   0  0  0  0  0  0  0  0  0  0  0  0
   58.5780   34.8140   44.8710 C   0  0  0  0  0  0  0  0  0  0  0  0
   58.1414   26.0546   48.1178 H   0  0  0  0  0  0  0  0  0  0  0  0
   57.5875   26.8802   46.6218 H   0  0  0  0  0  0  0  0  0  0  0  0
   59.1314   25.9620   46.6218 H   0  0  0  0  0  0  0  0  0  0  0  0
   60.1862   27.0925   49.4136 H   0  0  0  0  0  0  0  0  0  0  0  0
   61.3360   29.5000   49.4611 H   0  0  0  0  0  0  0  0  0  0  0  0
   60.4153   30.8597   47.3266 H   0  0  0  0  0  0  0  0  0  0  0  0
   59.2767   28.8563   44.8279 H   0  0  0  0  0  0  0  0  0  0  0  0
   57.6439   28.8670   45.5739 H   0  0  0  0  0  0  0  0  0  0  0  0
   59.4340   31.3010   45.6810 H   0  0  0  0  0  0  0  0  0  0  0  0
   58.8293   32.7041   43.6643 H   0  0  0  0  0  0  0  0  0  0  0  0
   57.1069   32.7199   43.1155 H   0  0  0  0  0  0  0  0  0  0  0  0
   56.3068   33.9950   46.6101 H   0  0  0  0  0  0  0  0  0  0  0  0
   56.8844   32.3095   46.2059 H   0  0  0  0  0  0  0  0  0  0  0  0
   58.3110   34.5299   47.6774 H   0  0  0  0  0  0  0  0  0  0  0  0
   58.1781   32.7759   48.0639 H   0  0  0  0  0  0  0  0  0  0  0  0
   60.7134   32.1590   47.9921 H   0  0  0  0  0  0  0  0  0  0  0  0
   61.6491   33.3688   47.0265 H   0  0  0  0  0  0  0  0  0  0  0  0
   61.3465   34.9510   48.5964 H   0  0  0  0  0  0  0  0  0  0  0  0
   59.5626   34.6843   48.5809 H   0  0  0  0  0  0  0  0  0  0  0  0
   59.2295   34.5859   52.0530 H   0  0  0  0  0  0  0  0  0  0  0  0
   57.3072   33.4557   53.1769 H   0  0  0  0  0  0  0  0  0  0  0  0
   54.3823   29.1954   54.2238 H   0  0  0  0  0  0  0  0  0  0  0  0
   53.4051   30.6909   53.9976 H   0  0  0  0  0  0  0  0  0  0  0  0
   53.7977   29.2337   51.4701 H   0  0  0  0  0  0  0  0  0  0  0  0
   52.9937   28.2212   52.7390 H   0  0  0  0  0  0  0  0  0  0  0  0
   52.7210   30.1454   50.2105 H   0  0  0  0  0  0  0  0  0  0  0  0
   50.9164   30.3146   50.3587 H   0  0  0  0  0  0  0  0  0  0  0  0
   53.0029   32.3395   51.2850 H   0  0  0  0  0  0  0  0  0  0  0  0
   51.9197   32.4523   49.8201 H   0  0  0  0  0  0  0  0  0  0  0  0
   50.3850   32.6415   53.5796 H   0  0  0  0  0  0  0  0  0  0  0  0
   49.7059   31.3830   52.4341 H   0  0  0  0  0  0  0  0  0  0  0  0
   52.5533   31.4429   53.5134 H   0  0  0  0  0  0  0  0  0  0  0  0
   51.2135   30.3803   54.0943 H   0  0  0  0  0  0  0  0  0  0  0  0
   57.6709   30.1149   50.4514 H   0  0  0  0  0  0  0  0  0  0  0  0
   59.6433   31.2007   49.3804 H   0  0  0  0  0  0  0  0  0  0  0  0
   60.3319   35.1749   46.0909 H   0  0  0  0  0  0  0  0  0  0  0  0
   60.5220   33.8918   44.8127 H   0  0  0  0  0  0  0  0  0  0  0  0
   58.2187   35.7188   45.3830 H   0  0  0  0  0  0  0  0  0  0  0  0
   58.8367   35.0148   43.8209 H   0  0  0  0  0  0  0  0  0  0  0  0
  1  2  1  0
  2  3  1  0
  3  4  2  0
  4  5  1  0
  5  6  2  0
  6  7  1  0
  7  8  1  0
  8  9  1  0
  9 10  2  0
  9 11  1  0
 11 12  1  0
 12 13  1  0
 13 14  1  0
 14 15  1  0
 15 16  1  0
 16 17  1  0
 17 18  1  0
 18 19  1  0
 19 20  2  0
 20 21  1  0
 21 22  2  0
 22 23  1  0
 23 24  3  0
 24 25  1  0
 25 26  1  0
 26 27  1  0
 27 28  1  0
 28 29  1  0
 29 30  1  0
 30 31  1  0
 31 32  1  0
 22 33  1  0
 33 34  2  0
 15 35  1  0
 35 36  1  0
  6  2  1  0
 36 12  1  0
 34 19  1  0
 32 27  1  0
  1 37  1  0
  1 38  1  0
  1 39  1  0
  3 40  1  0
  4 41  1  0
  5 42  1  0
  7 43  1  0
  7 44  1  0
  8 45  1  0
 11 46  1  0
 11 47  1  0
 13 48  1  0
 13 49  1  0
 14 50  1  0
 14 51  1  0
 16 52  1  0
 16 53  1  0
 17 54  1  0
 17 55  1  0
 20 56  1  0
 21 57  1  0
 25 58  1  0
 25 59  1  0
 26 60  1  0
 26 61  1  0
 28 62  1  0
 28 63  1  0
 29 64  1  0
 29 65  1  0
 31 66  1  0
 31 67  1  0
 32 68  1  0
 32 69  1  0
 33 70  1  0
 34 71  1  0
 35 72  1  0
 35 73  1  0
 36 74  1  0
 36 75  1  0
M  END
>  <UniqueID>  (4) 
4

>  <SMILES>  (4) 
Cn1cccc1CNC(=O)CN1CCN(CCOc2ccc(C#CCCN3CCOCC3)cc2)CC1

>  <Energy>  (4) 
113.65219858039136

>  <Genealogy>  (4) 
Cn1cccc1CNC(=O)CN1CCN(CCOc2ccc(C#CCCN3CCOCC3)cc2)CC1 (3D coordinates assigned)
Cn1cccc1CNC(=O)CN1CCN(CCOc2ccc(C#CCCN3CCOCC3)cc2)CC1 (nonaromatic ring conformer: 113.65219858039136 kcal/mol)

>  <smiles>  (4) 
Cn1cccc1CNC(=O)CN1CCN(CCOc2ccc(C#CCCN3CCOCC3)cc2)CC1

>  <score_type>  (4) 
oracle

>  <origin>  (4) 
adg

>  <m_score__min__energy>  (4) 
-8.9299999999999997

>  <m_primary>  (4) 
energy

$$$$
4:0
     RDKit          3D

 52 54  0  0  0  0  0  0  0  0999 V2000
   57.4820   31.6050   42.6570 C   0  0  0  0  0  0  0  0  0  0  0  0
   56.6400   30.4360   43.1560 C   0  0  0  0  0  0  0  0  0  0  0  0
   57.4430   29.5520   44.0700 C   0  0  0  0  0  0  0  0  0  0  0  0
   57.7670   28.2420   43.6830 C   0  0  0  0  0  0  0  0  0  0  0  0
   58.4750   27.4060   44.5500 C   0  0  0  0  0  0  0  0  0  0  0  0
   58.8630   27.8680   45.8110 C   0  0  0  0  0  0  0  0  0  0  0  0
   58.5480   29.1760   46.2120 C   0  0  0  0  0  0  0  0  0  0  0  0
   58.9220   29.6580   47.5890 C   0  0  0  0  0  0  0  0  0  0  0  0
   60.4100   30.0460   47.6390 C   0  0  0  0  0  0  0  0  0  0  0  0
   60.6920   31.4460   47.2120 N   0  0  1  0  0  0  0  0  0  0  0  0
   59.6340   32.3280   47.7810 C   0  0  0  0  0  0  0  0  0  0  0  0
   58.9020   33.1110   46.7190 C   0  0  0  0  0  0  0  0  0  0  0  0
   59.5500   33.8900   45.7480 C   0  0  0  0  0  0  0  0  0  0  0  0
   58.6810   34.5150   44.8660 C   0  0  0  0  0  0  0  0  0  0  0  0
   57.1110   34.0990   45.2980 S   0  0  0  0  0  0  0  0  0  0  0  0
   57.5150   33.1240   46.6050 C   0  0  0  0  0  0  0  0  0  0  0  0
   62.0620   31.9900   47.5290 C   0  0  0  0  0  0  0  0  0  0  0  0
   62.3400   32.1050   49.0450 C   0  0  0  0  0  0  0  0  0  0  0  0
   63.8310   32.4200   49.3170 C   0  0  0  0  0  0  0  0  0  0  0  0
   64.5110   33.0950   48.1950 N   0  0  0  0  0  0  0  0  0  0  0  0
   63.6250   34.0270   47.4870 C   0  0  0  0  0  0  0  0  0  0  0  0
   62.4570   33.2990   46.7890 C   0  0  0  0  0  0  0  0  0  0  0  0
   57.8220   30.0080   45.3430 C   0  0  0  0  0  0  0  0  0  0  0  0
   57.8829   32.1616   43.5170 H   0  0  0  0  0  0  0  0  0  0  0  0
   58.3141   31.2235   42.0470 H   0  0  0  0  0  0  0  0  0  0  0  0
   56.8565   32.2733   42.0470 H   0  0  0  0  0  0  0  0  0  0  0  0
   55.7699   30.8263   43.7043 H   0  0  0  0  0  0  0  0  0  0  0  0
   56.3117   29.8426   42.2899 H   0  0  0  0  0  0  0  0  0  0  0  0
   57.4621   27.8722   42.6929 H   0  0  0  0  0  0  0  0  0  0  0  0
   58.7278   26.3815   44.2395 H   0  0  0  0  0  0  0  0  0  0  0  0
   59.4170   27.2045   46.4913 H   0  0  0  0  0  0  0  0  0  0  0  0
   58.3103   30.5361   47.8436 H   0  0  0  0  0  0  0  0  0  0  0  0
   58.7415   28.8476   48.3106 H   0  0  0  0  0  0  0  0  0  0  0  0
   60.7638   29.9231   48.6733 H   0  0  0  0  0  0  0  0  0  0  0  0
   60.9318   29.3881   46.9285 H   0  0  0  0  0  0  0  0  0  0  0  0
   60.5660   31.4600   46.1720 H   0  0  0  0  0  0  0  0  0  0  0  0
   58.9079   31.7038   48.3225 H   0  0  0  0  0  0  0  0  0  0  0  0
   60.1248   33.0501   48.4501 H   0  0  0  0  0  0  0  0  0  0  0  0
   60.6435   33.9950   45.6918 H   0  0  0  0  0  0  0  0  0  0  0  0
   58.9691   35.1689   44.0297 H   0  0  0  0  0  0  0  0  0  0  0  0
   56.8076   32.5897   47.2563 H   0  0  0  0  0  0  0  0  0  0  0  0
   62.7247   31.2144   47.1176 H   0  0  0  0  0  0  0  0  0  0  0  0
   61.7204   32.9119   49.4635 H   0  0  0  0  0  0  0  0  0  0  0  0
   62.0946   31.1430   49.5187 H   0  0  0  0  0  0  0  0  0  0  0  0
   63.8922   33.0707   50.2017 H   0  0  0  0  0  0  0  0  0  0  0  0
   64.3399   31.4565   49.4672 H   0  0  0  0  0  0  0  0  0  0  0  0
   64.8620   32.3780   47.5150 H   0  0  0  0  0  0  0  0  0  0  0  0
   63.2134   34.7451   48.2115 H   0  0  0  0  0  0  0  0  0  0  0  0
   64.2177   34.5369   46.7133 H   0  0  0  0  0  0  0  0  0  0  0  0
   61.5853   33.9694   46.7631 H   0  0  0  0  0  0  0  0  0  0  0  0
   62.7823   33.0304   45.7731 H   0  0  0  0  0  0  0  0  0  0  0  0
   57.5484   31.0244   45.6624 H   0  0  0  0  0  0  0  0  0  0  0  0
  1  2  1  0
  2  3  1  0
  3  4  2  0
  4  5  1  0
  5  6  2  0
  6  7  1  0
  7  8  1  0
  8  9  1  0
  9 10  1  0
 10 11  1  0
 11 12  1  0
 12 13  1  0
 13 14  2  0
 14 15  1  0
 15 16  1  0
 10 17  1  0
 17 18  1  0
 18 19  1  0
 19 20  1  0
 20 21  1  0
 21 22  1  0
  7 23  2  0
 23  3  1  0
 16 12  2  0
 22 17  1  0
  1 24  1  0
  1 25  1  0
  1 26  1  0
  2 27  1  0
  2 28  1  0
  4 29  1  0
  5 30  1  0
  6 31  1  0
  8 32  1  0
  8 33  1  0
  9 34  1  0
  9 35  1  0
 10 36  1  6
 11 37  1  0
 11 38  1  0
 13 39  1  0
 14 40  1  0
 16 41  1  0
 17 42  1  0
 18 43  1  0
 18 44  1  0
 19 45  1  0
 19 46  1  0
 20 47  1  0
 21 48  1  0
 21 49  1  0
 22 50  1  0
 22 51  1  0
 23 52  1  0
M  CHG  1  10   1
M  END
>  <UniqueID>  (5) 
5

>  <SMILES>  (5) 
CCc1cccc(CC[N@@H+](Cc2ccsc2)C2CCNCC2)c1

>  <Energy>  (5) 
91.6555366179328

>  <Genealogy>  (5) 
CCc1cccc(CC[NH+](Cc2ccsc2)C2CCNCC2)c1 (protonated)
CCc1cccc(CC[N@@H+](Cc2ccsc2)C2CCNCC2)c1 (chirality)
CCc1cccc(CC[N@@H+](Cc2ccsc2)C2CCNCC2)c1 (3D coordinates assigned)
CCc1cccc(CC[N@@H+](Cc2ccsc2)C2CCNCC2)c1 (nonaromatic ring conformer: 91.6555366179328 kcal/mol)

>  <smiles>  (5) 
CCc1cccc(CCN(Cc2ccsc2)C2CCNCC2)c1

>  <score_type>  (5) 
oracle

>  <origin>  (5) 
adg

>  <m_score__min__energy>  (5) 
-6.5999999999999996

>  <m_primary>  (5) 
energy

$$$$
5:0
     RDKit          3D

 71 74  0  0  0  0  0  0  0  0999 V2000
   63.3720   34.1720   46.3570 C   0  0  0  0  0  0  0  0  0  0  0  0
   62.8250   34.2040   47.7860 C   0  0  0  0  0  0  0  0  0  0  0  0
   63.2940   33.0830   48.6290 N   0  0  0  0  0  0  0  0  0  0  0  0
   64.1160   33.4930   49.7990 C   0  0  0  0  0  0  0  0  0  0  0  0
   65.4360   32.7280   49.9680 C   0  0  0  0  0  0  0  0  0  0  0  0
   63.7700   31.9150   47.8520 C   0  0  0  0  0  0  0  0  0  0  0  0
   62.6160   31.2060   47.1300 C   0  0  0  0  0  0  0  0  0  0  0  0
   61.3100   31.5690   47.7040 N   0  0  0  0  0  0  0  0  0  0  0  0
   60.1140   31.3260   46.9460 C   0  0  0  0  0  0  0  0  0  0  0  0
   59.5120   32.4130   46.2850 C   0  0  0  0  0  0  0  0  0  0  0  0
   59.8020   33.7400   46.6790 C   0  0  0  0  0  0  0  0  0  0  0  0
   59.2630   34.8220   45.9890 C   0  0  0  0  0  0  0  0  0  0  0  0
   58.4410   34.6060   44.8900 C   0  0  0  0  0  0  0  0  0  0  0  0
   58.1290   33.3060   44.4940 C   0  0  0  0  0  0  0  0  0  0  0  0
   58.6230   32.1810   45.2070 C   0  0  0  0  0  0  0  0  0  0  0  0
   58.2940   30.8880   44.8480 N   0  0  0  0  0  0  0  0  0  0  0  0
   57.2070   30.6500   43.8680 C   0  0  0  0  0  0  0  0  0  0  0  0
   58.9220   29.8160   45.4550 C   0  0  0  0  0  0  0  0  0  0  0  0
   58.7970   28.5070   44.9360 C   0  0  0  0  0  0  0  0  0  0  0  0
   59.2590   27.4080   45.6450 C   0  0  0  0  0  0  0  0  0  0  0  0
   59.8290   27.5760   46.8940 C   0  0  0  0  0  0  0  0  0  0  0  0
   60.0800   28.8610   47.4130 C   0  0  0  0  0  0  0  0  0  0  0  0
   60.4350   28.9620   48.8180 N   0  0  0  0  0  0  0  0  0  0  0  0
   59.2640   28.9910   49.7190 C   0  0  0  0  0  0  0  0  0  0  0  0
   58.7320   30.4080   50.0320 C   0  0  0  0  0  0  0  0  0  0  0  0
   59.7950   31.4380   50.0450 N   0  0  0  0  0  0  0  0  0  0  0  0
   60.5740   31.3960   51.3000 C   0  0  0  0  0  0  0  0  0  0  0  0
   61.6050   32.5360   51.3120 C   0  0  0  0  0  0  0  0  0  0  0  0
   60.9670   33.7930   51.1830 O   0  0  0  0  0  0  0  0  0  0  0  0
   60.2830   33.8530   49.9460 C   0  0  0  0  0  0  0  0  0  0  0  0
   59.1920   32.7760   49.8790 C   0  0  0  0  0  0  0  0  0  0  0  0
   59.7220   30.0060   46.6210 C   0  0  0  0  0  0  0  0  0  0  0  0
   64.4697   34.1078   46.3859 H   0  0  0  0  0  0  0  0  0  0  0  0
   62.9673   33.2960   45.8290 H   0  0  0  0  0  0  0  0  0  0  0  0
   63.0722   35.0892   45.8290 H   0  0  0  0  0  0  0  0  0  0  0  0
   63.1392   35.1472   48.2568 H   0  0  0  0  0  0  0  0  0  0  0  0
   61.7311   34.1145   47.7128 H   0  0  0  0  0  0  0  0  0  0  0  0
   64.3530   34.5617   49.6911 H   0  0  0  0  0  0  0  0  0  0  0  0
   63.5139   33.2655   50.6910 H   0  0  0  0  0  0  0  0  0  0  0  0
   65.6525   32.6025   51.0392 H   0  0  0  0  0  0  0  0  0  0  0  0
   65.3504   31.7396   49.4930 H   0  0  0  0  0  0  0  0  0  0  0  0
   66.2511   33.2937   49.4930 H   0  0  0  0  0  0  0  0  0  0  0  0
   64.5012   32.2576   47.1050 H   0  0  0  0  0  0  0  0  0  0  0  0
   64.2275   31.2004   48.5520 H   0  0  0  0  0  0  0  0  0  0  0  0
   62.6306   31.4920   46.0679 H   0  0  0  0  0  0  0  0  0  0  0  0
   62.7528   30.1209   47.2478 H   0  0  0  0  0  0  0  0  0  0  0  0
   61.2670   32.2560   48.4880 H   0  0  0  0  0  0  0  0  0  0  0  0
   60.4614   33.9191   47.5410 H   0  0  0  0  0  0  0  0  0  0  0  0
   59.4880   35.8485   46.3140 H   0  0  0  0  0  0  0  0  0  0  0  0
   58.0355   35.4623   44.3311 H   0  0  0  0  0  0  0  0  0  0  0  0
   57.4887   33.1487   43.6135 H   0  0  0  0  0  0  0  0  0  0  0  0
   56.2686   30.4445   44.4040 H   0  0  0  0  0  0  0  0  0  0  0  0
   57.0809   31.5418   43.2365 H   0  0  0  0  0  0  0  0  0  0  0  0
   57.4651   29.7871   43.2365 H   0  0  0  0  0  0  0  0  0  0  0  0
   58.3255   28.3575   43.9535 H   0  0  0  0  0  0  0  0  0  0  0  0
   59.1718   26.4002   45.2128 H   0  0  0  0  0  0  0  0  0  0  0  0
   60.0908   26.6908   47.4922 H   0  0  0  0  0  0  0  0  0  0  0  0
   61.0590   28.1710   49.0930 H   0  0  0  0  0  0  0  0  0  0  0  0
   61.0180   29.8180   48.9710 H   0  0  0  0  0  0  0  0  0  0  0  0
   58.4534   28.4159   49.2477 H   0  0  0  0  0  0  0  0  0  0  0  0
   59.5948   28.5621   50.6764 H   0  0  0  0  0  0  0  0  0  0  0  0
   57.9902   30.6803   49.2668 H   0  0  0  0  0  0  0  0  0  0  0  0
   58.2924   30.3779   51.0399 H   0  0  0  0  0  0  0  0  0  0  0  0
   59.8931   31.5105   52.1563 H   0  0  0  0  0  0  0  0  0  0  0  0
   61.0985   30.4316   51.3695 H   0  0  0  0  0  0  0  0  0  0  0  0
   62.1607   32.5095   52.2609 H   0  0  0  0  0  0  0  0  0  0  0  0
   62.2905   32.4000   50.4625 H   0  0  0  0  0  0  0  0  0  0  0  0
   59.8193   34.8445   49.8371 H   0  0  0  0  0  0  0  0  0  0  0  0
   61.0037   33.6785   49.1335 H   0  0  0  0  0  0  0  0  0  0  0  0
   58.4599   32.9482   50.6817 H   0  0  0  0  0  0  0  0  0  0  0  0
   58.6911   32.8285   48.9011 H   0  0  0  0  0  0  0  0  0  0  0  0
  1  2  1  0
  2  3  1  0
  3  4  1  0
  4  5  1  0
  3  6  1  0
  6  7  1  0
  7  8  1  0
  8  9  1  0
  9 10  2  0
 10 11  1  0
 11 12  2  0
 12 13  1  0
 13 14  2  0
 14 15  1  0
 15 16  2  0
 16 17  1  0
 16 18  1  0
 18 19  2  0
 19 20  1  0
 20 21  2  0
 21 22  1  0
 22 23  1  0
 23 24  1  0
 24 25  1  0
 25 26  1  0
 26 27  1  0
 27 28  1  0
 28 29  1  0
 29 30  1  0
 30 31  1  0
 22 32  2  0
 32  9  1  0
 15 10  1  0
 32 18  1  0
 31 26  1  0
  1 33  1  0
  1 34  1  0
  1 35  1  0
  2 36  1  0
  2 37  1  0
  4 38  1  0
  4 39  1  0
  5 40  1  0
  5 41  1  0
  5 42  1  0
  6 43  1  0
  6 44  1  0
  7 45  1  0
  7 46  1  0
  8 47  1  0
 11 48  1  0
 12 49  1  0
 13 50  1  0
 14 51  1  0
 17 52  1  0
 17 53  1  0
 17 54  1  0
 19 55  1  0
 20 56  1  0
 21 57  1  0
 23 58  1  0
 23 59  1  0
 24 60  1  0
 24 61  1  0
 25 62  1  0
 25 63  1  0
 27 64  1  0
 27 65  1  0
 28 66  1  0
 28 67  1  0
 30 68  1  0
 30 69  1  0
 31 70  1  0
 31 71  1  0
M  CHG  2  16   1  23   1
M  END
>  <UniqueID>  (6) 
6

>  <SMILES>  (6) 
CCN(CC)CCNc1c2ccccc2[n+](C)c2cccc([NH2+]CCN3CCOCC3)c12

>  <Energy>  (6) 
123.09797234991484

>  <Genealogy>  (6) 
CCN(CC)CCNc1c2ccccc2[n+](C)c2cccc([NH2+]CCN3CCOCC3)c12 (protonated)
CCN(CC)CCNc1c2ccccc2[n+](C)c2cccc([NH2+]CCN3CCOCC3)c12 (3D coordinates assigned)
CCN(CC)CCNc1c2ccccc2[n+](C)c2cccc([NH2+]CCN3CCOCC3)c12 (nonaromatic ring conformer: 123.09797234991484 kcal/mol)

>  <smiles>  (6) 
CCN(CC)CCNc1c2ccccc2[n+](C)c2cccc(NCCN3CCOCC3)c12

>  <score_type>  (6) 
oracle

>  <origin>  (6) 
adg

>  <m_score__min__energy>  (6) 
-3.9700000000000002

>  <m_primary>  (6) 
energy

$$$$
6:0
     RDKit          3D

 56 58  0  0  0  0  0  0  0  0999 V2000
   63.0480   33.9080   46.3620 C   0  0  0  0  0  0  0  0  0  0  0  0
   63.5490   33.4560   47.7460 C   0  0  0  0  0  0  0  0  0  0  0  0
   63.4830   31.9880   48.0170 N   0  0  0  0  0  0  0  0  0  0  0  0
   63.7200   31.6440   49.4440 C   0  0  0  0  0  0  0  0  0  0  0  0
   64.9590   32.2950   50.0660 C   0  0  0  0  0  0  0  0  0  0  0  0
   62.2990   31.2870   47.4550 C   0  0  0  0  0  0  0  0  0  0  0  0
   61.4830   30.5640   48.5400 C   0  0  0  0  0  0  0  0  0  0  0  0
   60.0610   30.8830   48.4160 N   0  0  0  0  0  0  0  0  0  0  0  0
   59.4850   31.1530   47.1290 C   0  0  0  0  0  0  0  0  0  0  0  0
   59.3510   32.4800   46.6940 C   0  0  0  0  0  0  0  0  0  0  0  0
   58.8310   32.7380   45.3980 C   0  0  0  0  0  0  0  0  0  0  0  0
   58.3590   31.6940   44.6220 N   0  0  0  0  0  0  0  0  0  0  0  0
   57.6350   31.9750   43.3600 C   0  0  0  0  0  0  0  0  0  0  0  0
   58.5660   30.3820   45.0110 C   0  0  0  0  0  0  0  0  0  0  0  0
   58.2680   29.2900   44.1530 C   0  0  0  0  0  0  0  0  0  0  0  0
   58.4270   27.9590   44.5730 C   0  0  0  0  0  0  0  0  0  0  0  0
   58.1080   26.8700   43.6850 N   0  0  0  0  0  0  0  0  0  0  0  0
   57.7690   25.7570   44.1400 O   0  0  0  0  0  0  0  0  0  0  0  0
   58.1700   27.0350   42.3210 O   0  0  0  0  0  0  0  0  0  0  0  0
   58.8970   27.7080   45.8670 C   0  0  0  0  0  0  0  0  0  0  0  0
   59.2320   28.7600   46.7140 C   0  0  0  0  0  0  0  0  0  0  0  0
   59.0980   30.0970   46.2920 C   0  0  0  0  0  0  0  0  0  0  0  0
   58.7400   34.1790   44.9010 C   0  0  0  0  0  0  0  0  0  0  0  0
   59.6200   35.1610   45.6700 C   0  0  0  0  0  0  0  0  0  0  0  0
   59.4040   34.9840   47.1640 C   0  0  0  0  0  0  0  0  0  0  0  0
   59.8720   33.5950   47.5890 C   0  0  0  0  0  0  0  0  0  0  0  0
   62.2366   34.6401   46.4869 H   0  0  0  0  0  0  0  0  0  0  0  0
   63.8764   34.3703   45.8052 H   0  0  0  0  0  0  0  0  0  0  0  0
   62.6731   33.0366   45.8052 H   0  0  0  0  0  0  0  0  0  0  0  0
   64.5988   33.7697   47.8433 H   0  0  0  0  0  0  0  0  0  0  0  0
   62.8711   33.9239   48.4751 H   0  0  0  0  0  0  0  0  0  0  0  0
   64.3160   31.5810   47.5260 H   0  0  0  0  0  0  0  0  0  0  0  0
   62.8401   31.9612   50.0229 H   0  0  0  0  0  0  0  0  0  0  0  0
   63.8928   30.5581   49.4755 H   0  0  0  0  0  0  0  0  0  0  0  0
   64.8828   32.2549   51.1626 H   0  0  0  0  0  0  0  0  0  0  0  0
   65.8598   31.7537   49.7411 H   0  0  0  0  0  0  0  0  0  0  0  0
   65.0243   33.3439   49.7411 H   0  0  0  0  0  0  0  0  0  0  0  0
   61.6524   32.0257   46.9587 H   0  0  0  0  0  0  0  0  0  0  0  0
   62.6608   30.5299   46.7437 H   0  0  0  0  0  0  0  0  0  0  0  0
   61.6202   29.4780   48.4314 H   0  0  0  0  0  0  0  0  0  0  0  0
   61.8352   30.8964   49.5277 H   0  0  0  0  0  0  0  0  0  0  0  0
   59.4730   31.0450   49.2660 H   0  0  0  0  0  0  0  0  0  0  0  0
   56.6324   32.3641   43.5913 H   0  0  0  0  0  0  0  0  0  0  0  0
   58.1925   32.7220   42.7760 H   0  0  0  0  0  0  0  0  0  0  0  0
   57.5426   31.0475   42.7760 H   0  0  0  0  0  0  0  0  0  0  0  0
   57.9038   29.4915   43.1348 H   0  0  0  0  0  0  0  0  0  0  0  0
   59.0025   26.6707   46.2174 H   0  0  0  0  0  0  0  0  0  0  0  0
   59.6061   28.5447   47.7258 H   0  0  0  0  0  0  0  0  0  0  0  0
   59.0424   34.1993   43.8436 H   0  0  0  0  0  0  0  0  0  0  0  0
   57.6991   34.5011   45.0519 H   0  0  0  0  0  0  0  0  0  0  0  0
   60.6763   34.9713   45.4286 H   0  0  0  0  0  0  0  0  0  0  0  0
   59.3535   36.1891   45.3835 H   0  0  0  0  0  0  0  0  0  0  0  0
   59.9789   35.7467   47.7097 H   0  0  0  0  0  0  0  0  0  0  0  0
   58.3339   35.0946   47.3936 H   0  0  0  0  0  0  0  0  0  0  0  0
   60.9716   33.5755   47.5655 H   0  0  0  0  0  0  0  0  0  0  0  0
   59.4736   33.4135   48.5981 H   0  0  0  0  0  0  0  0  0  0  0  0
  1  2  1  0
  2  3  1  0
  3  4  1  0
  4  5  1  0
  3  6  1  0
  6  7  1  0
  7  8  1  0
  8  9  1  0
  9 10  2  0
 10 11  1  0
 11 12  2  0
 12 13  1  0
 12 14  1  0
 14 15  2  0
 15 16  1  0
 16 17  1  0
 17 18  2  0
 17 19  1  0
 16 20  2  0
 20 21  1  0
 21 22  2  0
 11 23  1  0
 23 24  1  0
 24 25  1  0
 25 26  1  0
 22  9  1  0
 26 10  1  0
 22 14  1  0
  1 27  1  0
  1 28  1  0
  1 29  1  0
  2 30  1  0
  2 31  1  0
  3 32  1  0
  4 33  1  0
  4 34  1  0
  5 35  1  0
  5 36  1  0
  5 37  1  0
  6 38  1  0
  6 39  1  0
  7 40  1  0
  7 41  1  0
  8 42  1  0
 13 43  1  0
 13 44  1  0
 13 45  1  0
 15 46  1  0
 20 47  1  0
 21 48  1  0
 23 49  1  0
 23 50  1  0
 24 51  1  0
 24 52  1  0
 25 53  1  0
 25 54  1  0
 26 55  1  0
 26 56  1  0
M  CHG  4   3   1  12   1  17   1  19  -1
M  END
>  <UniqueID>  (7) 
7

>  <SMILES>  (7) 
CC[NH+](CC)CCNc1c2c([n+](C)c3cc([N+](=O)[O-])ccc13)CCCC2

>  <Energy>  (7) 
83.97390999051031

>  <Genealogy>  (7) 
CC[NH+](CC)CCNc1c2c([n+](C)c3cc([N+](=O)[O-])ccc13)CCCC2 (protonated)
CC[NH+](CC)CCNc1c2c([n+](C)c3cc([N+](=O)[O-])ccc13)CCCC2 (3D coordinates assigned)
CC[NH+](CC)CCNc1c2c([n+](C)c3cc([N+](=O)[O-])ccc13)CCCC2 (nonaromatic ring conformer: 83.97390999051031 kcal/mol)

>  <smiles>  (7) 
CCN(CC)CCNc1c2c([n+](C)c3cc([N+](=O)[O-])ccc13)CCCC2

>  <score_type>  (7) 
oracle

>  <origin>  (7) 
adg

>  <m_score__min__energy>  (7) 
-5.3300000000000001

>  <m_primary>  (7) 
energy

$$$$
7:0
     RDKit          3D

 56 57  0  0  0  0  0  0  0  0999 V2000
   59.3990   34.9040   47.7260 C   0  0  0  0  0  0  0  0  0  0  0  0
   60.3100   34.5430   46.5550 C   0  0  0  0  0  0  0  0  0  0  0  0
   59.6760   33.5530   45.6600 N   0  0  0  0  0  0  0  0  0  0  0  0
   59.0770   34.2030   44.4800 C   0  0  0  0  0  0  0  0  0  0  0  0
   58.7410   32.6120   46.3260 C   0  0  0  0  0  0  0  0  0  0  0  0
   59.4240   31.4690   47.1470 C   0  0  2  0  0  0  0  0  0  0  0  0
   59.0130   30.0420   46.6690 C   0  0  0  0  0  0  0  0  0  0  0  0
   59.8930   29.0090   47.2600 N   0  0  0  0  0  0  0  0  0  0  0  0
   60.3870   27.9790   46.3060 C   0  0  0  0  0  0  0  0  0  0  0  0
   60.7910   28.6340   44.9800 C   0  0  0  0  0  0  0  0  0  0  0  0
   59.3960   26.8210   46.0730 C   0  0  0  0  0  0  0  0  0  0  0  0
   59.3410   28.3980   48.4920 C   0  0  0  0  0  0  0  0  0  0  0  0
   59.2140   29.3720   49.6890 C   0  0  0  0  0  0  0  0  0  0  0  0
   59.9400   30.6630   49.5440 N   0  0  1  0  0  0  0  0  0  0  0  0
   61.3370   30.4680   49.0740 C   0  0  0  0  0  0  0  0  0  0  0  0
   62.0520   31.7780   48.8090 C   0  0  0  0  0  0  0  0  0  0  0  0
   61.9260   32.8480   49.7170 C   0  0  0  0  0  0  0  0  0  0  0  0
   61.1530   32.7260   50.8260 F   0  0  0  0  0  0  0  0  0  0  0  0
   62.5930   34.0540   49.4810 C   0  0  0  0  0  0  0  0  0  0  0  0
   63.3880   34.2070   48.3430 C   0  0  0  0  0  0  0  0  0  0  0  0
   63.5160   33.1540   47.4350 C   0  0  0  0  0  0  0  0  0  0  0  0
   62.8530   31.9440   47.6610 C   0  0  0  0  0  0  0  0  0  0  0  0
   62.9980   30.9350   46.7640 F   0  0  0  0  0  0  0  0  0  0  0  0
   59.2670   31.6740   48.6820 C   0  0  0  0  0  0  0  0  0  0  0  0
   59.9196   34.6977   48.6728 H   0  0  0  0  0  0  0  0  0  0  0  0
   59.1414   35.9722   47.6744 H   0  0  0  0  0  0  0  0  0  0  0  0
   58.4797   34.3022   47.6744 H   0  0  0  0  0  0  0  0  0  0  0  0
   60.5311   35.4544   45.9801 H   0  0  0  0  0  0  0  0  0  0  0  0
   61.2327   34.1012   46.9594 H   0  0  0  0  0  0  0  0  0  0  0  0
   58.3655   34.9750   44.8083 H   0  0  0  0  0  0  0  0  0  0  0  0
   59.8697   34.6681   43.8757 H   0  0  0  0  0  0  0  0  0  0  0  0
   58.5488   33.4508   43.8757 H   0  0  0  0  0  0  0  0  0  0  0  0
   58.1053   33.1913   47.0118 H   0  0  0  0  0  0  0  0  0  0  0  0
   58.1785   32.1171   45.5206 H   0  0  0  0  0  0  0  0  0  0  0  0
   60.5018   31.5394   46.9386 H   0  0  0  0  0  0  0  0  0  0  0  0
   57.9742   29.8463   46.9734 H   0  0  0  0  0  0  0  0  0  0  0  0
   59.1092   29.9987   45.5741 H   0  0  0  0  0  0  0  0  0  0  0  0
   61.2716   27.5209   46.7725 H   0  0  0  0  0  0  0  0  0  0  0  0
   61.3585   29.5541   45.1835 H   0  0  0  0  0  0  0  0  0  0  0  0
   61.4166   27.9374   44.4026 H   0  0  0  0  0  0  0  0  0  0  0  0
   59.8877   28.8804   44.4026 H   0  0  0  0  0  0  0  0  0  0  0  0
   59.0584   26.4266   47.0428 H   0  0  0  0  0  0  0  0  0  0  0  0
   58.5289   27.1891   45.5050 H   0  0  0  0  0  0  0  0  0  0  0  0
   59.8937   26.0212   45.5050 H   0  0  0  0  0  0  0  0  0  0  0  0
   58.3401   28.0040   48.2617 H   0  0  0  0  0  0  0  0  0  0  0  0
   60.0505   27.6154   48.7987 H   0  0  0  0  0  0  0  0  0  0  0  0
   58.1467   29.5974   49.8308 H   0  0  0  0  0  0  0  0  0  0  0  0
   59.6765   28.8599   50.5456 H   0  0  0  0  0  0  0  0  0  0  0  0
   59.9930   31.0790   50.5030 H   0  0  0  0  0  0  0  0  0  0  0  0
   61.8932   29.9127   49.8436 H   0  0  0  0  0  0  0  0  0  0  0  0
   61.2944   29.9141   48.1246 H   0  0  0  0  0  0  0  0  0  0  0  0
   62.4912   34.8852   50.1942 H   0  0  0  0  0  0  0  0  0  0  0  0
   63.9130   35.1565   48.1621 H   0  0  0  0  0  0  0  0  0  0  0  0
   64.1410   33.2769   46.5382 H   0  0  0  0  0  0  0  0  0  0  0  0
   58.1925   31.6556   48.9166 H   0  0  0  0  0  0  0  0  0  0  0  0
   59.7583   32.6322   48.9068 H   0  0  0  0  0  0  0  0  0  0  0  0
  1  2  1  0
  2  3  1  0
  3  4  1  0
  3  5  1  0
  5  6  1  0
  6  7  1  0
  7  8  1  0
  8  9  1  0
  9 10  1  0
  9 11  1  0
  8 12  1  0
 12 13  1  0
 13 14  1  0
 14 15  1  0
 15 16  1  0
 16 17  2  0
 17 18  1  0
 17 19  1  0
 19 20  2  0
 20 21  1  0
 21 22  2  0
 22 23  1  0
 14 24  1  0
 24  6  1  0
 22 16  1  0
  1 25  1  0
  1 26  1  0
  1 27  1  0
  2 28  1  0
  2 29  1  0
  4 30  1  0
  4 31  1  0
  4 32  1  0
  5 33  1  0
  5 34  1  0
  6 35  1  1
  7 36  1  0
  7 37  1  0
  9 38  1  0
 10 39  1  0
 10 40  1  0
 10 41  1  0
 11 42  1  0
 11 43  1  0
 11 44  1  0
 12 45  1  0
 12 46  1  0
 13 47  1  0
 13 48  1  0
 14 49  1  1
 15 50  1  0
 15 51  1  0
 19 52  1  0
 20 53  1  0
 21 54  1  0
 24 55  1  0
 24 56  1  0
M  CHG  1  14   1
M  END
>  <UniqueID>  (8) 
8

>  <SMILES>  (8) 
CCN(C)C[C@@H]1CN(C(C)C)CC[N@@H+](Cc2c(F)cccc2F)C1

>  <Energy>  (8) 
81.08025616007225

>  <Genealogy>  (8) 
CCN(C)CC1CN(C(C)C)CC[NH+](Cc2c(F)cccc2F)C1 (protonated)
CCN(C)C[C@@H]1CN(C(C)C)CC[N@@H+](Cc2c(F)cccc2F)C1 (chirality)
CCN(C)C[C@@H]1CN(C(C)C)CC[N@@H+](Cc2c(F)cccc2F)C1 (3D coordinates assigned)
CCN(C)C[C@@H]1CN(C(C)C)CC[N@@H+](Cc2c(F)cccc2F)C1 (nonaromatic ring conformer: 81.08025616007225 kcal/mol)

>  <smiles>  (8) 
CCN(C)CC1CN(Cc2c(F)cccc2F)CCN(C(C)C)C1

>  <score_type>  (8) 
oracle

>  <origin>  (8) 
adg

>  <m_score__min__energy>  (8) 
-3.1600000000000001

>  <m_primary>  (8) 
energy

$$$$
8:0
     RDKit          3D

 42 43  0  0  0  0  0  0  0  0999 V2000
   65.8460   32.6410   50.1360 C   0  0  0  0  0  0  0  0  0  0  0  0
   64.5280   32.0680   49.6090 C   0  0  0  0  0  0  0  0  0  0  0  0
   63.6080   33.0920   49.0660 N   0  0  0  0  0  0  0  0  0  0  0  0
   63.2460   34.1680   50.0250 C   0  0  0  0  0  0  0  0  0  0  0  0
   62.1490   33.7990   51.0370 C   0  0  0  0  0  0  0  0  0  0  0  0
   63.9230   33.5080   47.6820 C   0  0  0  0  0  0  0  0  0  0  0  0
   62.6500   33.6130   46.8360 C   0  0  0  0  0  0  0  0  0  0  0  0
   61.4710   33.4240   47.6770 N   0  0  0  0  0  0  0  0  0  0  0  0
   60.4460   32.4890   47.3050 C   0  0  0  0  0  0  0  0  0  0  0  0
   60.5000   31.1600   47.7670 C   0  0  0  0  0  0  0  0  0  0  0  0
   61.6050   30.6860   48.5470 N   0  0  0  0  0  0  0  0  0  0  0  0
   59.4700   30.2750   47.4270 C   0  0  0  0  0  0  0  0  0  0  0  0
   58.4300   30.6770   46.6440 N   0  0  0  0  0  0  0  0  0  0  0  0
   57.4300   29.7810   46.3220 O   0  0  0  0  0  0  0  0  0  0  0  0
   58.3610   31.9510   46.1650 C   0  0  0  0  0  0  0  0  0  0  0  0
   57.3100   32.3260   45.3820 N   0  0  0  0  0  0  0  0  0  0  0  0
   57.1910   33.5860   44.8900 C   0  0  0  0  0  0  0  0  0  0  0  0
   58.1600   34.5460   45.1830 C   0  0  0  0  0  0  0  0  0  0  0  0
   59.2510   34.2000   45.9810 C   0  0  0  0  0  0  0  0  0  0  0  0
   59.3710   32.8900   46.4830 C   0  0  0  0  0  0  0  0  0  0  0  0
   65.8343   32.6359   51.2359 H   0  0  0  0  0  0  0  0  0  0  0  0
   66.6835   32.0258   49.7754 H   0  0  0  0  0  0  0  0  0  0  0  0
   65.9673   33.6731   49.7754 H   0  0  0  0  0  0  0  0  0  0  0  0
   64.7575   31.3485   48.8092 H   0  0  0  0  0  0  0  0  0  0  0  0
   64.0178   31.5985   50.4630 H   0  0  0  0  0  0  0  0  0  0  0  0
   64.1507   34.4411   50.5879 H   0  0  0  0  0  0  0  0  0  0  0  0
   62.8399   34.9925   49.4207 H   0  0  0  0  0  0  0  0  0  0  0  0
   62.5344   33.9286   52.0591 H   0  0  0  0  0  0  0  0  0  0  0  0
   61.2775   34.4535   50.8880 H   0  0  0  0  0  0  0  0  0  0  0  0
   61.8502   32.7509   50.8880 H   0  0  0  0  0  0  0  0  0  0  0  0
   64.4208   34.4886   47.7058 H   0  0  0  0  0  0  0  0  0  0  0  0
   64.5819   32.7517   47.2305 H   0  0  0  0  0  0  0  0  0  0  0  0
   62.6063   34.6067   46.3664 H   0  0  0  0  0  0  0  0  0  0  0  0
   62.6678   32.8329   46.0607 H   0  0  0  0  0  0  0  0  0  0  0  0
   61.5330   33.7250   48.6760 H   0  0  0  0  0  0  0  0  0  0  0  0
   61.6710   29.6800   48.8160 H   0  0  0  0  0  0  0  0  0  0  0  0
   62.3940   31.3110   48.8180 H   0  0  0  0  0  0  0  0  0  0  0  0
   59.5008   29.2397   47.7975 H   0  0  0  0  0  0  0  0  0  0  0  0
   56.5200   30.0930   46.0030 H   0  0  0  0  0  0  0  0  0  0  0  0
   56.3293   33.8502   44.2594 H   0  0  0  0  0  0  0  0  0  0  0  0
   58.0646   35.5681   44.7878 H   0  0  0  0  0  0  0  0  0  0  0  0
   60.0183   34.9516   46.2182 H   0  0  0  0  0  0  0  0  0  0  0  0
  1  2  1  0
  2  3  1  0
  3  4  1  0
  4  5  1  0
  3  6  1  0
  6  7  1  0
  7  8  1  0
  8  9  1  0
  9 10  2  0
 10 11  1  0
 10 12  1  0
 12 13  2  0
 13 14  1  0
 13 15  1  0
 15 16  2  0
 16 17  1  0
 17 18  2  0
 18 19  1  0
 19 20  2  0
 20  9  1  0
 20 15  1  0
  1 21  1  0
  1 22  1  0
  1 23  1  0
  2 24  1  0
  2 25  1  0
  4 26  1  0
  4 27  1  0
  5 28  1  0
  5 29  1  0
  5 30  1  0
  6 31  1  0
  6 32  1  0
  7 33  1  0
  7 34  1  0
  8 35  1  0
 11 36  1  0
 11 37  1  0
 12 38  1  0
 14 39  1  0
 17 40  1  0
 18 41  1  0
 19 42  1  0
M  CHG  1  13   1
M  END
>  <UniqueID>  (9) 
9

>  <SMILES>  (9) 
CCN(CC)CCNc1c(N)c[n+](O)c2ncccc12

>  <Energy>  (9) 
54.34847610860439

>  <Genealogy>  (9) 
CCN(CC)CCNc1c(N)c[n+](O)c2ncccc12 (protonated)
CCN(CC)CCNc1c(N)c[n+](O)c2ncccc12 (3D coordinates assigned)
CCN(CC)CCNc1c(N)c[n+](O)c2ncccc12 (optimized conformer: 54.34847610860439 kcal/mol)

>  <smiles>  (9) 
CCN(CC)CCNc1c(N)c[n+]([O-])c2ncccc12

>  <score_type>  (9) 
oracle

>  <origin>  (9) 
adg

>  <m_score__min__energy>  (9) 
-4.3700000000000001

>  <m_primary>  (9) 
energy

$$$$
9:0
     RDKit          3D

 79 82  0  0  0  0  0  0  0  0999 V2000
   60.4400   28.9730   44.8830 C   0  0  0  0  0  0  0  0  0  0  0  0
   59.2280   29.9030   44.8350 C   0  0  0  0  0  0  0  0  0  0  0  0
   58.2100   29.5580   45.8570 N   0  0  0  0  0  0  0  0  0  0  0  0
   56.9040   29.2350   45.2390 C   0  0  0  0  0  0  0  0  0  0  0  0
   56.6060   30.1890   44.0840 C   0  0  0  0  0  0  0  0  0  0  0  0
   58.6390   28.5150   46.8240 C   0  0  0  0  0  0  0  0  0  0  0  0
   59.3970   29.0520   48.0560 C   0  0  0  0  0  0  0  0  0  0  0  0
   58.9640   30.4260   48.4250 N   0  0  0  0  0  0  0  0  0  0  0  0
   59.9590   31.4260   48.0630 C   0  0  0  0  0  0  0  0  0  0  0  0
   59.5910   32.4150   47.0960 C   0  0  0  0  0  0  0  0  0  0  0  0
   58.2830   32.4650   46.5310 C   0  0  0  0  0  0  0  0  0  0  0  0
   57.9170   33.4630   45.6350 C   0  0  0  0  0  0  0  0  0  0  0  0
   58.8280   34.4410   45.2750 C   0  0  0  0  0  0  0  0  0  0  0  0
   60.1220   34.4040   45.7810 C   0  0  0  0  0  0  0  0  0  0  0  0
   60.5420   33.3720   46.6620 C   0  0  0  0  0  0  0  0  0  0  0  0
   61.8420   33.3000   47.1060 N   0  0  0  0  0  0  0  0  0  0  0  0
   62.9050   34.0440   46.3850 C   0  0  0  0  0  0  0  0  0  0  0  0
   62.1670   32.5140   48.1930 C   0  0  0  0  0  0  0  0  0  0  0  0
   63.3880   32.7380   48.8720 C   0  0  0  0  0  0  0  0  0  0  0  0
   63.7910   31.9480   49.9350 C   0  0  0  0  0  0  0  0  0  0  0  0
   65.1100   32.2010   50.6060 C   0  0  0  0  0  0  0  0  0  0  0  0
   63.0120   30.8660   50.3080 C   0  0  0  0  0  0  0  0  0  0  0  0
   61.7700   30.6020   49.6980 C   0  0  0  0  0  0  0  0  0  0  0  0
   61.0630   29.4600   50.1160 O   0  0  0  0  0  0  0  0  0  0  0  0
   60.8020   29.0780   51.4780 C   0  0  0  0  0  0  0  0  0  0  0  0
   59.3080   29.2710   51.8220 C   0  0  0  0  0  0  0  0  0  0  0  0
   58.9080   30.5880   52.4400 N   0  0  0  0  0  0  0  0  0  0  0  0
   58.4010   30.2560   53.8050 C   0  0  0  0  0  0  0  0  0  0  0  0
   60.1080   31.4950   52.5980 C   0  0  0  0  0  0  0  0  0  0  0  0
   60.1580   32.6760   51.6100 C   0  0  0  0  0  0  0  0  0  0  0  0
   58.8880   33.5370   51.6700 C   0  0  0  0  0  0  0  0  0  0  0  0
   57.6270   32.7330   52.0200 C   0  0  0  0  0  0  0  0  0  0  0  0
   57.7910   31.2410   51.6820 C   0  0  0  0  0  0  0  0  0  0  0  0
   61.2780   31.4870   48.6590 C   0  0  0  0  0  0  0  0  0  0  0  0
   60.7049   28.7697   45.9311 H   0  0  0  0  0  0  0  0  0  0  0  0
   60.1969   28.0274   44.3762 H   0  0  0  0  0  0  0  0  0  0  0  0
   61.2904   29.4525   44.3762 H   0  0  0  0  0  0  0  0  0  0  0  0
   59.5674   30.9348   45.0086 H   0  0  0  0  0  0  0  0  0  0  0  0
   58.7603   29.7937   43.8454 H   0  0  0  0  0  0  0  0  0  0  0  0
   56.9293   28.2032   44.8585 H   0  0  0  0  0  0  0  0  0  0  0  0
   56.1159   29.3407   45.9990 H   0  0  0  0  0  0  0  0  0  0  0  0
   56.3006   31.1666   44.4854 H   0  0  0  0  0  0  0  0  0  0  0  0
   57.5087   30.3115   43.4674 H   0  0  0  0  0  0  0  0  0  0  0  0
   55.7941   29.7759   43.4674 H   0  0  0  0  0  0  0  0  0  0  0  0
   57.7420   27.9854   47.1774 H   0  0  0  0  0  0  0  0  0  0  0  0
   59.3424   27.8625   46.2860 H   0  0  0  0  0  0  0  0  0  0  0  0
   59.2105   28.3808   48.9073 H   0  0  0  0  0  0  0  0  0  0  0  0
   60.4672   29.0905   47.8046 H   0  0  0  0  0  0  0  0  0  0  0  0
   58.0660   30.6520   47.9400 H   0  0  0  0  0  0  0  0  0  0  0  0
   58.6440   30.4840   49.3980 H   0  0  0  0  0  0  0  0  0  0  0  0
   57.5469   31.6967   46.8103 H   0  0  0  0  0  0  0  0  0  0  0  0
   56.9019   33.4755   45.2115 H   0  0  0  0  0  0  0  0  0  0  0  0
   58.5281   35.2469   44.5890 H   0  0  0  0  0  0  0  0  0  0  0  0
   60.8356   35.1901   45.4932 H   0  0  0  0  0  0  0  0  0  0  0  0
   63.5803   34.5166   47.1134 H   0  0  0  0  0  0  0  0  0  0  0  0
   63.4762   33.3475   45.7536 H   0  0  0  0  0  0  0  0  0  0  0  0
   62.4462   34.8192   45.7536 H   0  0  0  0  0  0  0  0  0  0  0  0
   64.0363   33.5645   48.5455 H   0  0  0  0  0  0  0  0  0  0  0  0
   64.9769   32.1755   51.6976 H   0  0  0  0  0  0  0  0  0  0  0  0
   65.8289   31.4244   50.3060 H   0  0  0  0  0  0  0  0  0  0  0  0
   65.4906   33.1885   50.3060 H   0  0  0  0  0  0  0  0  0  0  0  0
   63.3724   30.1948   51.1015 H   0  0  0  0  0  0  0  0  0  0  0  0
   61.0702   28.0199   51.6141 H   0  0  0  0  0  0  0  0  0  0  0  0
   61.4036   29.7128   52.1451 H   0  0  0  0  0  0  0  0  0  0  0  0
   58.7360   29.1556   50.8895 H   0  0  0  0  0  0  0  0  0  0  0  0
   59.0953   28.5183   52.5954 H   0  0  0  0  0  0  0  0  0  0  0  0
   59.0695   30.6938   54.5610 H   0  0  0  0  0  0  0  0  0  0  0  0
   57.3880   30.6662   53.9297 H   0  0  0  0  0  0  0  0  0  0  0  0
   58.3721   29.1635   53.9297 H   0  0  0  0  0  0  0  0  0  0  0  0
   60.0966   31.9032   53.6194 H   0  0  0  0  0  0  0  0  0  0  0  0
   60.9936   30.8772   52.3882 H   0  0  0  0  0  0  0  0  0  0  0  0
   61.0253   33.3065   51.8553 H   0  0  0  0  0  0  0  0  0  0  0  0
   60.2380   32.2627   50.5937 H   0  0  0  0  0  0  0  0  0  0  0  0
   59.0294   34.3155   52.4341 H   0  0  0  0  0  0  0  0  0  0  0  0
   58.7353   33.9640   50.6678 H   0  0  0  0  0  0  0  0  0  0  0  0
   57.4270   32.8346   53.0969 H   0  0  0  0  0  0  0  0  0  0  0  0
   56.7914   33.1295   51.4246 H   0  0  0  0  0  0  0  0  0  0  0  0
   56.8522   30.7214   51.9243 H   0  0  0  0  0  0  0  0  0  0  0  0
   58.0346   31.1709   50.6116 H   0  0  0  0  0  0  0  0  0  0  0  0
  1  2  1  0
  2  3  1  0
  3  4  1  0
  4  5  1  0
  3  6  1  0
  6  7  1  0
  7  8  1  0
  8  9  1  0
  9 10  2  0
 10 11  1  0
 11 12  2  0
 12 13  1  0
 13 14  2  0
 14 15  1  0
 15 16  2  0
 16 17  1  0
 16 18  1  0
 18 19  2  0
 19 20  1  0
 20 21  1  0
 20 22  2  0
 22 23  1  0
 23 24  1  0
 24 25  1  0
 25 26  1  0
 26 27  1  0
 27 28  1  0
 27 29  1  0
 29 30  1  0
 30 31  1  0
 31 32  1  0
 32 33  1  0
 23 34  2  0
 34  9  1  0
 15 10  1  0
 34 18  1  0
 33 27  1  0
  1 35  1  0
  1 36  1  0
  1 37  1  0
  2 38  1  0
  2 39  1  0
  4 40  1  0
  4 41  1  0
  5 42  1  0
  5 43  1  0
  5 44  1  0
  6 45  1  0
  6 46  1  0
  7 47  1  0
  7 48  1  0
  8 49  1  0
  8 50  1  0
 11 51  1  0
 12 52  1  0
 13 53  1  0
 14 54  1  0
 17 55  1  0
 17 56  1  0
 17 57  1  0
 19 58  1  0
 21 59  1  0
 21 60  1  0
 21 61  1  0
 22 62  1  0
 25 63  1  0
 25 64  1  0
 26 65  1  0
 26 66  1  0
 28 67  1  0
 28 68  1  0
 28 69  1  0
 29 70  1  0
 29 71  1  0
 30 72  1  0
 30 73  1  0
 31 74  1  0
 31 75  1  0
 32 76  1  0
 32 77  1  0
 33 78  1  0
 33 79  1  0
M  CHG  3   8   1  16   1  27   1
M  END
>  <UniqueID>  (10) 
10

>  <SMILES>  (10) 
CCN(CC)CC[NH2+]c1c2ccccc2[n+](C)c2cc(C)cc(OCC[N+]3(C)CCCCC3)c12

>  <Energy>  (10) 
142.34617804951182

>  <Genealogy>  (10) 
CCN(CC)CC[NH2+]c1c2ccccc2[n+](C)c2cc(C)cc(OCC[N+]3(C)CCCCC3)c12 (protonated)
CCN(CC)CC[NH2+]c1c2ccccc2[n+](C)c2cc(C)cc(OCC[N+]3(C)CCCCC3)c12 (3D coordinates assigned)
CCN(CC)CC[NH2+]c1c2ccccc2[n+](C)c2cc(C)cc(OCC[N+]3(C)CCCCC3)c12 (nonaromatic ring conformer: 142.34617804951182 kcal/mol)

>  <smiles>  (10) 
CCN(CC)CCNc1c2ccccc2[n+](C)c2cc(C)cc(OCC[N+]3(C)CCCCC3)c12

>  <score_type>  (10) 
oracle

>  <origin>  (10) 
adg

>  <m_score__min__energy>  (10) 
-3.98

>  <m_primary>  (10) 
energy

$$$$
10:0
     RDKit          3D

 30 31  0  0  0  0  0  0  0  0999 V2000
   56.2960   29.7110   42.7610 C   0  0  0  0  0  0  0  0  0  0  0  0
   55.4870   30.0460   44.0090 C   0  0  0  0  0  0  0  0  0  0  0  0
   56.3680   30.0780   45.1820 N   0  0  0  0  0  0  0  0  0  0  0  0
   57.5360   29.2020   45.0000 C   0  0  0  0  0  0  0  0  0  0  0  0
   58.8170   30.0250   44.8240 C   0  0  0  0  0  0  0  0  0  0  0  0
   58.5390   31.4550   44.9700 N   0  0  0  0  0  0  0  0  0  0  0  0
   58.0070   32.2560   44.0140 C   0  0  0  0  0  0  0  0  0  0  0  0
   57.9500   33.5730   44.4550 C   0  0  0  0  0  0  0  0  0  0  0  0
   58.4810   33.5550   45.7260 C   0  0  0  0  0  0  0  0  0  0  0  0
   58.6870   34.5940   46.6320 C   0  0  0  0  0  0  0  0  0  0  0  0
   59.2730   34.2800   47.8710 C   0  0  0  0  0  0  0  0  0  0  0  0
   59.6370   32.9490   48.1710 C   0  0  0  0  0  0  0  0  0  0  0  0
   59.4170   31.9200   47.2370 C   0  0  0  0  0  0  0  0  0  0  0  0
   58.8330   32.2600   46.0130 C   0  0  0  0  0  0  0  0  0  0  0  0
   57.2750   29.3056   43.0565 H   0  0  0  0  0  0  0  0  0  0  0  0
   55.7548   28.9630   42.1630 H   0  0  0  0  0  0  0  0  0  0  0  0
   56.4420   30.6226   42.1630 H   0  0  0  0  0  0  0  0  0  0  0  0
   55.0123   31.0302   43.8825 H   0  0  0  0  0  0  0  0  0  0  0  0
   54.7148   29.2768   44.1571 H   0  0  0  0  0  0  0  0  0  0  0  0
   55.8220   29.7140   45.9980 H   0  0  0  0  0  0  0  0  0  0  0  0
   57.6422   28.5556   45.8837 H   0  0  0  0  0  0  0  0  0  0  0  0
   57.3818   28.5954   44.0954 H   0  0  0  0  0  0  0  0  0  0  0  0
   59.5493   29.7201   45.5861 H   0  0  0  0  0  0  0  0  0  0  0  0
   59.2171   29.8442   43.8154 H   0  0  0  0  0  0  0  0  0  0  0  0
   57.6675   31.9113   43.0261 H   0  0  0  0  0  0  0  0  0  0  0  0
   57.5632   34.4442   43.9059 H   0  0  0  0  0  0  0  0  0  0  0  0
   58.4002   35.6270   46.3855 H   0  0  0  0  0  0  0  0  0  0  0  0
   59.4488   35.0752   48.6104 H   0  0  0  0  0  0  0  0  0  0  0  0
   60.0962   32.7148   49.1427 H   0  0  0  0  0  0  0  0  0  0  0  0
   59.6958   30.8802   47.4628 H   0  0  0  0  0  0  0  0  0  0  0  0
  1  2  1  0
  2  3  1  0
  3  4  1  0
  4  5  1  0
  5  6  1  0
  6  7  1  0
  7  8  2  0
  8  9  1  0
  9 10  2  0
 10 11  1  0
 11 12  2  0
 12 13  1  0
 13 14  2  0
 14  6  1  0
 14  9  1  0
  1 15  1  0
  1 16  1  0
  1 17  1  0
  2 18  1  0
  2 19  1  0
  3 20  1  0
  4 21  1  0
  4 22  1  0
  5 23  1  0
  5 24  1  0
  7 25  1  0
  8 26  1  0
 10 27  1  0
 11 28  1  0
 12 29  1  0
 13 30  1  0
M  END
>  <UniqueID>  (11) 
11

>  <SMILES>  (11) 
CCNCCn1ccc2ccccc21

>  <Energy>  (11) 
56.44712942236986

>  <Genealogy>  (11) 
CCNCCn1ccc2ccccc21 (3D coordinates assigned)
CCNCCn1ccc2ccccc21 (optimized conformer: 56.44712942236986 kcal/mol)

>  <smiles>  (11) 
CCNCCn1ccc2ccccc21

>  <score_type>  (11) 
oracle

>  <origin>  (11) 
adg

>  <m_score__min__energy>  (11) 
-5.96

>  <m_primary>  (11) 
energy

$$$$
11:0
     RDKit          3D

 36 37  0  0  0  0  0  0  0  0999 V2000
   59.2180   22.2370   44.8340 C   0  0  0  0  0  0  0  0  0  0  0  0
   57.7720   21.9320   45.2080 C   0  0  0  0  0  0  0  0  0  0  0  0
   57.6460   21.8040   46.6660 N   0  0  0  0  0  0  0  0  0  0  0  0
   56.2400   21.8740   47.0910 C   0  0  0  0  0  0  0  0  0  0  0  0
   56.0230   23.0740   48.0200 C   0  0  0  0  0  0  0  0  0  0  0  0
   55.6330   24.2610   47.2590 N   0  0  0  0  0  0  0  0  0  0  0  0
   56.6170   25.1500   46.7030 C   0  0  0  0  0  0  0  0  0  0  0  0
   57.9350   24.8220   46.7640 N   0  0  0  0  0  0  0  0  0  0  0  0
   58.8810   25.6150   46.2640 N   0  0  0  0  0  0  0  0  0  0  0  0
   60.1950   25.2200   46.3630 O   0  0  0  0  0  0  0  0  0  0  0  0
   58.5500   26.7950   45.6660 C   0  0  0  0  0  0  0  0  0  0  0  0
   59.5320   27.6500   45.1360 C   0  0  0  0  0  0  0  0  0  0  0  0
   59.1640   28.8540   44.5310 C   0  0  0  0  0  0  0  0  0  0  0  0
   57.8140   29.2150   44.4320 C   0  0  0  0  0  0  0  0  0  0  0  0
   57.4280   30.5270   43.8160 C   0  0  0  0  0  0  0  0  0  0  0  0
   56.8310   28.3740   44.9750 C   0  0  0  0  0  0  0  0  0  0  0  0
   57.1880   27.1580   45.5880 C   0  0  0  0  0  0  0  0  0  0  0  0
   56.2430   26.3230   46.1120 N   0  0  0  0  0  0  0  0  0  0  0  0
   54.9080   26.6590   46.0470 O   0  0  0  0  0  0  0  0  0  0  0  0
   59.8148   22.3629   45.7494 H   0  0  0  0  0  0  0  0  0  0  0  0
   59.6267   21.4053   44.2413 H   0  0  0  0  0  0  0  0  0  0  0  0
   59.2560   23.1629   44.2413 H   0  0  0  0  0  0  0  0  0  0  0  0
   57.1249   22.7493   44.8569 H   0  0  0  0  0  0  0  0  0  0  0  0
   57.4687   20.9863   44.7351 H   0  0  0  0  0  0  0  0  0  0  0  0
   58.1500   22.6150   47.0970 H   0  0  0  0  0  0  0  0  0  0  0  0
   55.5980   21.9811   46.2042 H   0  0  0  0  0  0  0  0  0  0  0  0
   55.9841   20.9516   47.6330 H   0  0  0  0  0  0  0  0  0  0  0  0
   55.2286   22.8318   48.7412 H   0  0  0  0  0  0  0  0  0  0  0  0
   56.9664   23.2873   48.5439 H   0  0  0  0  0  0  0  0  0  0  0  0
   54.6180   24.4690   47.1190 H   0  0  0  0  0  0  0  0  0  0  0  0
   60.5939   27.3699   45.1980 H   0  0  0  0  0  0  0  0  0  0  0  0
   59.9393   29.5231   44.1296 H   0  0  0  0  0  0  0  0  0  0  0  0
   57.2134   31.2563   44.6110 H   0  0  0  0  0  0  0  0  0  0  0  0
   58.2554   30.8969   43.1926 H   0  0  0  0  0  0  0  0  0  0  0  0
   56.5321   30.3899   43.1926 H   0  0  0  0  0  0  0  0  0  0  0  0
   55.7722   28.6673   44.9213 H   0  0  0  0  0  0  0  0  0  0  0  0
  1  2  1  0
  2  3  1  0
  3  4  1  0
  4  5  1  0
  5  6  1  0
  6  7  1  0
  7  8  2  0
  8  9  1  0
  9 10  1  0
  9 11  2  0
 11 12  1  0
 12 13  2  0
 13 14  1  0
 14 15  1  0
 14 16  2  0
 16 17  1  0
 17 18  2  0
 18 19  1  0
 18  7  1  0
 17 11  1  0
  1 20  1  0
  1 21  1  0
  1 22  1  0
  2 23  1  0
  2 24  1  0
  3 25  1  0
  4 26  1  0
  4 27  1  0
  5 28  1  0
  5 29  1  0
  6 30  1  0
 12 31  1  0
 13 32  1  0
 15 33  1  0
 15 34  1  0
 15 35  1  0
 16 36  1  0
M  CHG  4   9   1  10  -1  18   1  19  -1
M  END
>  <UniqueID>  (12) 
12

>  <SMILES>  (12) 
CCNCCNc1n[n+]([O-])c2ccc(C)cc2[n+]1[O-]

>  <Energy>  (12) 
34.57119983153691

>  <Genealogy>  (12) 
CCNCCNc1n[n+]([O-])c2ccc(C)cc2[n+]1[O-] (3D coordinates assigned)
CCNCCNc1n[n+]([O-])c2ccc(C)cc2[n+]1[O-] (optimized conformer: 34.57119983153691 kcal/mol)

>  <smiles>  (12) 
CCNCCNc1n[n+]([O-])c2ccc(C)cc2[n+]1[O-]

>  <score_type>  (12) 
oracle

>  <origin>  (12) 
adg

>  <m_score__min__energy>  (12) 
-7.0300000000000002

>  <m_primary>  (12) 
energy

$$$$
12:0
     RDKit          3D

 48 50  0  0  0  0  0  0  0  0999 V2000
   57.6460   26.7340   46.3420 C   0  0  0  0  0  0  0  0  0  0  0  0
   59.0150   26.3650   45.7810 C   0  0  0  0  0  0  0  0  0  0  0  0
   60.0390   27.2650   46.3260 N   0  0  0  0  0  0  0  0  0  0  0  0
   59.9080   27.4070   47.7830 C   0  0  0  0  0  0  0  0  0  0  0  0
   60.3480   28.8060   48.2240 C   0  0  0  0  0  0  0  0  0  0  0  0
   60.7760   29.6060   47.0750 N   0  0  0  0  0  0  0  0  0  0  0  0
   60.4870   31.0120   46.9770 C   0  0  0  0  0  0  0  0  0  0  0  0
   61.2570   31.9490   47.6880 C   0  0  0  0  0  0  0  0  0  0  0  0
   62.3850   31.5440   48.4330 C   0  0  0  0  0  0  0  0  0  0  0  0
   63.0990   32.4610   49.1990 C   0  0  0  0  0  0  0  0  0  0  0  0
   62.7040   33.7920   49.2370 C   0  0  0  0  0  0  0  0  0  0  0  0
   61.6190   34.2250   48.4750 C   0  0  0  0  0  0  0  0  0  0  0  0
   60.9020   33.3250   47.6430 C   0  0  0  0  0  0  0  0  0  0  0  0
   59.8810   33.7540   46.8150 N   0  0  0  0  0  0  0  0  0  0  0  0
   59.6980   35.2000   46.5560 C   0  0  0  0  0  0  0  0  0  0  0  0
   59.0570   32.8320   46.1960 C   0  0  0  0  0  0  0  0  0  0  0  0
   57.8650   33.2220   45.5350 C   0  0  0  0  0  0  0  0  0  0  0  0
   57.0720   32.2890   44.8670 C   0  0  0  0  0  0  0  0  0  0  0  0
   57.4310   30.9430   44.8460 C   0  0  0  0  0  0  0  0  0  0  0  0
   56.4420   29.7710   43.9820 S   0  0  0  0  0  0  0  0  0  0  0  0
   57.4000   28.3840   43.5990 N   0  0  0  0  0  0  0  0  0  0  0  0
   55.9100   30.3820   42.7160 O   0  0  0  0  0  0  0  0  0  0  0  0
   55.2810   29.3570   44.8420 O   0  0  0  0  0  0  0  0  0  0  0  0
   58.5830   30.5280   45.5180 C   0  0  0  0  0  0  0  0  0  0  0  0
   59.3830   31.4500   46.2250 C   0  0  0  0  0  0  0  0  0  0  0  0
   57.6852   26.7234   47.4412 H   0  0  0  0  0  0  0  0  0  0  0  0
   57.3663   27.7396   45.9947 H   0  0  0  0  0  0  0  0  0  0  0  0
   56.8988   26.0052   45.9947 H   0  0  0  0  0  0  0  0  0  0  0  0
   59.2555   25.3283   46.0592 H   0  0  0  0  0  0  0  0  0  0  0  0
   58.9948   26.4616   44.6854 H   0  0  0  0  0  0  0  0  0  0  0  0
   59.8870   28.2090   45.9000 H   0  0  0  0  0  0  0  0  0  0  0  0
   58.8576   27.2501   48.0696 H   0  0  0  0  0  0  0  0  0  0  0  0
   60.5490   26.6598   48.2737 H   0  0  0  0  0  0  0  0  0  0  0  0
   59.5045   29.3094   48.7190 H   0  0  0  0  0  0  0  0  0  0  0  0
   61.1961   28.7052   48.9173 H   0  0  0  0  0  0  0  0  0  0  0  0
   61.2450   29.1310   46.2710 H   0  0  0  0  0  0  0  0  0  0  0  0
   62.7037   30.4915   48.4081 H   0  0  0  0  0  0  0  0  0  0  0  0
   63.9765   32.1314   49.7746 H   0  0  0  0  0  0  0  0  0  0  0  0
   63.2489   34.5074   49.8705 H   0  0  0  0  0  0  0  0  0  0  0  0
   61.3138   35.2809   48.5193 H   0  0  0  0  0  0  0  0  0  0  0  0
   59.6299   35.7382   47.5129 H   0  0  0  0  0  0  0  0  0  0  0  0
   60.5551   35.5809   45.9813 H   0  0  0  0  0  0  0  0  0  0  0  0
   58.7730   35.3554   45.9813 H   0  0  0  0  0  0  0  0  0  0  0  0
   57.5602   34.2788   45.5492 H   0  0  0  0  0  0  0  0  0  0  0  0
   56.1568   32.6182   44.3532 H   0  0  0  0  0  0  0  0  0  0  0  0
   58.1350   28.6980   42.9260 H   0  0  0  0  0  0  0  0  0  0  0  0
   56.7820   27.7190   43.0820 H   0  0  0  0  0  0  0  0  0  0  0  0
   58.8707   29.4665   45.4956 H   0  0  0  0  0  0  0  0  0  0  0  0
  1  2  1  0
  2  3  1  0
  3  4  1  0
  4  5  1  0
  5  6  1  0
  6  7  1  0
  7  8  2  0
  8  9  1  0
  9 10  2  0
 10 11  1  0
 11 12  2  0
 12 13  1  0
 13 14  2  0
 14 15  1  0
 14 16  1  0
 16 17  2  0
 17 18  1  0
 18 19  2  0
 19 20  1  0
 20 21  1  0
 20 22  2  0
 20 23  2  0
 19 24  1  0
 24 25  2  0
 25  7  1  0
 13  8  1  0
 25 16  1  0
  1 26  1  0
  1 27  1  0
  1 28  1  0
  2 29  1  0
  2 30  1  0
  3 31  1  0
  4 32  1  0
  4 33  1  0
  5 34  1  0
  5 35  1  0
  6 36  1  0
  9 37  1  0
 10 38  1  0
 11 39  1  0
 12 40  1  0
 15 41  1  0
 15 42  1  0
 15 43  1  0
 17 44  1  0
 18 45  1  0
 21 46  1  0
 21 47  1  0
 24 48  1  0
M  CHG  1  14   1
M  END
>  <UniqueID>  (13) 
13

>  <SMILES>  (13) 
CCNCCNc1c2ccccc2[n+](C)c2ccc(S(N)(=O)=O)cc12

>  <Energy>  (13) 
69.07906339777588

>  <Genealogy>  (13) 
CCNCCNc1c2ccccc2[n+](C)c2ccc(S(N)(=O)=O)cc12 (3D coordinates assigned)
CCNCCNc1c2ccccc2[n+](C)c2ccc(S(N)(=O)=O)cc12 (optimized conformer: 69.07906339777588 kcal/mol)

>  <smiles>  (13) 
CCNCCNc1c2ccccc2[n+](C)c2ccc(S(N)(=O)=O)cc12

>  <score_type>  (13) 
oracle

>  <origin>  (13) 
adg

>  <m_score__min__energy>  (13) 
-6.7599999999999998

>  <m_primary>  (13) 
energy

$$$$
13:0
     RDKit          3D

 63 65  0  0  0  0  0  0  0  0999 V2000
   63.3800   33.3120   46.7340 C   0  0  0  0  0  0  0  0  0  0  0  0
   63.0400   32.0540   47.5440 C   0  0  0  0  0  0  0  0  0  0  0  0
   62.8690   32.3470   48.9910 N   0  0  1  0  0  0  0  0  0  0  0  0
   63.4030   31.2260   49.7930 C   0  0  0  0  0  0  0  0  0  0  0  0
   63.5460   33.6210   49.3660 C   0  0  0  0  0  0  0  0  0  0  0  0
   62.6350   34.5570   50.1800 C   0  0  0  0  0  0  0  0  0  0  0  0
   61.4210   33.8290   50.5910 N   0  0  0  0  0  0  0  0  0  0  0  0
   60.2530   34.1710   49.7720 C   0  0  0  0  0  0  0  0  0  0  0  0
   59.2880   32.9860   49.7260 C   0  0  0  0  0  0  0  0  0  0  0  0
   60.0080   31.7460   50.0430 N   0  0  0  0  0  0  0  0  0  0  0  0
   59.0810   30.6210   50.2280 C   0  0  0  0  0  0  0  0  0  0  0  0
   59.0630   29.7530   48.9700 C   0  0  0  0  0  0  0  0  0  0  0  0
   59.7390   30.4330   47.8630 N   0  0  0  0  0  0  0  0  0  0  0  0
   59.1260   30.5140   46.5650 C   0  0  0  0  0  0  0  0  0  0  0  0
   58.8640   29.3430   45.8350 C   0  0  0  0  0  0  0  0  0  0  0  0
   59.3350   28.0900   46.2860 C   0  0  0  0  0  0  0  0  0  0  0  0
   59.1260   26.9380   45.5340 C   0  0  0  0  0  0  0  0  0  0  0  0
   58.4580   27.0110   44.3170 C   0  0  0  0  0  0  0  0  0  0  0  0
   57.9730   28.2370   43.8550 C   0  0  0  0  0  0  0  0  0  0  0  0
   58.1450   29.4260   44.6130 C   0  0  0  0  0  0  0  0  0  0  0  0
   57.6510   30.6430   44.1810 N   0  0  0  0  0  0  0  0  0  0  0  0
   56.6650   30.6870   43.0770 C   0  0  0  0  0  0  0  0  0  0  0  0
   58.0710   31.8150   44.7870 C   0  0  0  0  0  0  0  0  0  0  0  0
   57.8030   33.0890   44.2240 C   0  0  0  0  0  0  0  0  0  0  0  0
   58.1990   34.2610   44.8660 C   0  0  0  0  0  0  0  0  0  0  0  0
   58.8880   34.1980   46.0720 C   0  0  0  0  0  0  0  0  0  0  0  0
   59.1970   32.9620   46.6340 C   0  0  0  0  0  0  0  0  0  0  0  0
   58.8060   31.7620   46.0030 C   0  0  0  0  0  0  0  0  0  0  0  0
   63.6041   34.1411   47.4212 H   0  0  0  0  0  0  0  0  0  0  0  0
   64.2569   33.1140   46.1000 H   0  0  0  0  0  0  0  0  0  0  0  0
   62.5228   33.5827   46.1000 H   0  0  0  0  0  0  0  0  0  0  0  0
   62.1041   31.6253   47.1564 H   0  0  0  0  0  0  0  0  0  0  0  0
   63.8773   31.3483   47.4390 H   0  0  0  0  0  0  0  0  0  0  0  0
   61.8430   32.4110   49.2010 H   0  0  0  0  0  0  0  0  0  0  0  0
   63.2935   31.4559   50.8631 H   0  0  0  0  0  0  0  0  0  0  0  0
   62.8456   30.3077   49.5564 H   0  0  0  0  0  0  0  0  0  0  0  0
   64.4673   31.0802   49.5564 H   0  0  0  0  0  0  0  0  0  0  0  0
   64.4354   33.3835   49.9681 H   0  0  0  0  0  0  0  0  0  0  0  0
   63.8140   34.1427   48.4354 H   0  0  0  0  0  0  0  0  0  0  0  0
   63.1731   34.9059   51.0737 H   0  0  0  0  0  0  0  0  0  0  0  0
   62.3515   35.4210   49.5610 H   0  0  0  0  0  0  0  0  0  0  0  0
   61.2040   34.0780   51.5870 H   0  0  0  0  0  0  0  0  0  0  0  0
   59.7421   35.0412   50.2098 H   0  0  0  0  0  0  0  0  0  0  0  0
   60.5832   34.4104   48.7504 H   0  0  0  0  0  0  0  0  0  0  0  0
   58.4848   33.1403   50.4616 H   0  0  0  0  0  0  0  0  0  0  0  0
   58.8564   32.9078   48.7172 H   0  0  0  0  0  0  0  0  0  0  0  0
   60.5320   31.8850   50.9400 H   0  0  0  0  0  0  0  0  0  0  0  0
   59.4089   30.0148   51.0853 H   0  0  0  0  0  0  0  0  0  0  0  0
   58.0695   31.0107   50.4150 H   0  0  0  0  0  0  0  0  0  0  0  0
   59.5776   28.8035   49.1789 H   0  0  0  0  0  0  0  0  0  0  0  0
   58.0174   29.5652   48.6845 H   0  0  0  0  0  0  0  0  0  0  0  0
   60.5500   31.0590   48.0780 H   0  0  0  0  0  0  0  0  0  0  0  0
   59.8734   28.0241   47.2430 H   0  0  0  0  0  0  0  0  0  0  0  0
   59.4900   25.9678   45.9032 H   0  0  0  0  0  0  0  0  0  0  0  0
   58.3110   26.1013   43.7164 H   0  0  0  0  0  0  0  0  0  0  0  0
   57.4495   28.2823   42.8886 H   0  0  0  0  0  0  0  0  0  0  0  0
   55.6485   30.7324   43.4949 H   0  0  0  0  0  0  0  0  0  0  0  0
   56.8471   31.5779   42.4580 H   0  0  0  0  0  0  0  0  0  0  0  0
   56.7670   29.7834   42.4580 H   0  0  0  0  0  0  0  0  0  0  0  0
   57.2726   33.1533   43.2625 H   0  0  0  0  0  0  0  0  0  0  0  0
   57.9659   35.2380   44.4175 H   0  0  0  0  0  0  0  0  0  0  0  0
   59.1891   35.1248   46.5823 H   0  0  0  0  0  0  0  0  0  0  0  0
   59.7531   32.9206   47.5822 H   0  0  0  0  0  0  0  0  0  0  0  0
  1  2  1  0
  2  3  1  0
  3  4  1  0
  3  5  1  0
  5  6  1  0
  6  7  1  0
  7  8  1  0
  8  9  1  0
  9 10  1  0
 10 11  1  0
 11 12  1  0
 12 13  1  0
 13 14  1  0
 14 15  2  0
 15 16  1  0
 16 17  2  0
 17 18  1  0
 18 19  2  0
 19 20  1  0
 20 21  2  0
 21 22  1  0
 21 23  1  0
 23 24  2  0
 24 25  1  0
 25 26  2  0
 26 27  1  0
 27 28  2  0
 28 14  1  0
 20 15  1  0
 28 23  1  0
  1 29  1  0
  1 30  1  0
  1 31  1  0
  2 32  1  0
  2 33  1  0
  3 34  1  6
  4 35  1  0
  4 36  1  0
  4 37  1  0
  5 38  1  0
  5 39  1  0
  6 40  1  0
  6 41  1  0
  7 42  1  0
  8 43  1  0
  8 44  1  0
  9 45  1  0
  9 46  1  0
 10 47  1  0
 11 48  1  0
 11 49  1  0
 12 50  1  0
 12 51  1  0
 13 52  1  0
 16 53  1  0
 17 54  1  0
 18 55  1  0
 19 56  1  0
 22 57  1  0
 22 58  1  0
 22 59  1  0
 24 60  1  0
 25 61  1  0
 26 62  1  0
 27 63  1  0
M  CHG  2   3   1  21   1
M  END
>  <UniqueID>  (14) 
14

>  <SMILES>  (14) 
CC[N@@H+](C)CCNCCNCCNc1c2ccccc2[n+](C)c2ccccc12

>  <Energy>  (14) 
85.51961797514917

>  <Genealogy>  (14) 
CC[NH+](C)CCNCCNCCNc1c2ccccc2[n+](C)c2ccccc12 (protonated)
CC[N@@H+](C)CCNCCNCCNc1c2ccccc2[n+](C)c2ccccc12 (chirality)
CC[N@@H+](C)CCNCCNCCNc1c2ccccc2[n+](C)c2ccccc12 (3D coordinates assigned)
CC[N@@H+](C)CCNCCNCCNc1c2ccccc2[n+](C)c2ccccc12 (optimized conformer: 85.51961797514917 kcal/mol)

>  <smiles>  (14) 
CCN(C)CCNCCNCCNc1c2ccccc2[n+](C)c2ccccc12

>  <score_type>  (14) 
oracle

>  <origin>  (14) 
adg

>  <m_score__min__energy>  (14) 
-3.9700000000000002

>  <m_primary>  (14) 
energy

$$$$
14:0
     RDKit          3D

 36 37  0  0  0  0  0  0  0  0999 V2000
   59.6620   29.1890   44.8280 C   0  0  0  0  0  0  0  0  0  0  0  0
   58.2740   29.5780   44.6040 N   0  0  0  0  0  0  0  0  0  0  0  0
   57.3730   28.9180   43.8570 C   0  0  0  0  0  0  0  0  0  0  0  0
   56.2270   29.6790   43.8000 C   0  0  0  0  0  0  0  0  0  0  0  0
   56.4070   30.8230   44.4910 N   0  0  0  0  0  0  0  0  0  0  0  0
   57.6670   30.7280   44.9690 C   0  0  0  0  0  0  0  0  0  0  0  0
   58.3370   31.8490   45.7170 C   0  0  0  0  0  0  0  0  0  0  0  0
   57.4390   32.9970   45.9360 N   0  0  0  0  0  0  0  0  0  0  0  0
   58.1120   34.3090   45.9650 C   0  0  0  0  0  0  0  0  0  0  0  0
   59.6450   34.2030   45.8620 C   0  0  0  0  0  0  0  0  0  0  0  0
   60.3380   34.4740   47.2090 C   0  0  0  0  0  0  0  0  0  0  0  0
   60.9850   33.2220   47.7760 C   0  0  0  0  0  0  0  0  0  0  0  0
   60.2540   32.3360   48.6070 C   0  0  0  0  0  0  0  0  0  0  0  0
   58.5920   32.6530   49.0990 Cl  0  0  0  0  0  0  0  0  0  0  0  0
   60.8470   31.1540   49.0660 C   0  0  0  0  0  0  0  0  0  0  0  0
   62.1570   30.8380   48.7130 C   0  0  0  0  0  0  0  0  0  0  0  0
   62.8910   31.7030   47.9050 C   0  0  0  0  0  0  0  0  0  0  0  0
   62.3190   32.8900   47.4350 C   0  0  0  0  0  0  0  0  0  0  0  0
   63.3150   33.9320   46.4220 Cl  0  0  0  0  0  0  0  0  0  0  0  0
   59.8575   29.1342   45.9091 H   0  0  0  0  0  0  0  0  0  0  0  0
   59.8452   28.2049   44.3719 H   0  0  0  0  0  0  0  0  0  0  0  0
   60.3299   29.9346   44.3719 H   0  0  0  0  0  0  0  0  0  0  0  0
   57.5245   27.9407   43.3753 H   0  0  0  0  0  0  0  0  0  0  0  0
   55.3047   29.3967   43.2712 H   0  0  0  0  0  0  0  0  0  0  0  0
   58.6710   31.4708   46.6945 H   0  0  0  0  0  0  0  0  0  0  0  0
   59.1837   32.1983   45.1078 H   0  0  0  0  0  0  0  0  0  0  0  0
   56.7210   33.0040   45.1740 H   0  0  0  0  0  0  0  0  0  0  0  0
   57.7449   34.9097   45.1198 H   0  0  0  0  0  0  0  0  0  0  0  0
   57.8794   34.7760   46.9334 H   0  0  0  0  0  0  0  0  0  0  0  0
   59.9082   33.1893   45.5258 H   0  0  0  0  0  0  0  0  0  0  0  0
   59.9889   34.9640   45.1461 H   0  0  0  0  0  0  0  0  0  0  0  0
   61.1139   35.2397   47.0619 H   0  0  0  0  0  0  0  0  0  0  0  0
   59.5737   34.8154   47.9226 H   0  0  0  0  0  0  0  0  0  0  0  0
   60.2746   30.4700   49.7099 H   0  0  0  0  0  0  0  0  0  0  0  0
   62.6125   29.9037   49.0730 H   0  0  0  0  0  0  0  0  0  0  0  0
   63.9271   31.4512   47.6347 H   0  0  0  0  0  0  0  0  0  0  0  0
  1  2  1  0
  2  3  1  0
  3  4  2  0
  4  5  1  0
  5  6  2  0
  6  7  1  0
  7  8  1  0
  8  9  1  0
  9 10  1  0
 10 11  1  0
 11 12  1  0
 12 13  2  0
 13 14  1  0
 13 15  1  0
 15 16  2  0
 16 17  1  0
 17 18  2  0
 18 19  1  0
  6  2  1  0
 18 12  1  0
  1 20  1  0
  1 21  1  0
  1 22  1  0
  3 23  1  0
  4 24  1  0
  7 25  1  0
  7 26  1  0
  8 27  1  0
  9 28  1  0
  9 29  1  0
 10 30  1  0
 10 31  1  0
 11 32  1  0
 11 33  1  0
 15 34  1  0
 16 35  1  0
 17 36  1  0
M  END
>  <UniqueID>  (15) 
15

>  <SMILES>  (15) 
Cn1ccnc1CNCCCc1c(Cl)cccc1Cl

>  <Energy>  (15) 
62.82329630619718

>  <Genealogy>  (15) 
Cn1ccnc1CNCCCc1c(Cl)cccc1Cl (3D coordinates assigned)
Cn1ccnc1CNCCCc1c(Cl)cccc1Cl (optimized conformer: 62.82329630619718 kcal/mol)

>  <smiles>  (15) 
Cn1ccnc1CNCCCc1c(Cl)cccc1Cl

>  <score_type>  (15) 
oracle

>  <origin>  (15) 
adg

>  <m_score__min__energy>  (15) 
-7.0199999999999996

>  <m_primary>  (15) 
energy

$$$$
15:0
     RDKit          3D

 55 57  0  0  0  0  0  0  0  0999 V2000
   56.6390   30.3920   42.6890 C   0  0  0  0  0  0  0  0  0  0  0  0
   57.4380   29.6210   43.7470 C   0  0  0  0  0  0  0  0  0  0  0  0
   57.3330   28.1600   43.5650 N   0  0  0  0  0  0  0  0  0  0  0  0
   58.6370   27.4770   43.6930 C   0  0  0  0  0  0  0  0  0  0  0  0
   58.9470   27.0890   45.1490 C   0  0  0  0  0  0  0  0  0  0  0  0
   57.8490   27.3940   45.9860 O   0  0  0  0  0  0  0  0  0  0  0  0
   58.1840   27.2050   47.3470 C   0  0  0  0  0  0  0  0  0  0  0  0
   58.7770   28.4940   47.9190 C   0  0  0  0  0  0  0  0  0  0  0  0
   58.7080   29.5800   46.9370 N   0  0  0  0  0  0  0  0  0  0  0  0
   59.6740   30.6430   46.9000 C   0  0  0  0  0  0  0  0  0  0  0  0
   60.9630   30.4130   47.3740 C   0  0  0  0  0  0  0  0  0  0  0  0
   61.8970   31.4400   47.3880 C   0  0  0  0  0  0  0  0  0  0  0  0
   61.5790   32.6970   46.9500 N   0  0  0  0  0  0  0  0  0  0  0  0
   62.6210   33.7390   47.0630 C   0  0  0  0  0  0  0  0  0  0  0  0
   63.2710   33.7140   48.4260 C   0  0  0  0  0  0  0  0  0  0  0  0
   64.4970   33.0500   48.6140 C   0  0  0  0  0  0  0  0  0  0  0  0
   65.0760   32.9860   49.8840 C   0  0  0  0  0  0  0  0  0  0  0  0
   64.4340   33.5720   50.9780 C   0  0  0  0  0  0  0  0  0  0  0  0
   63.2120   34.2290   50.8040 C   0  0  0  0  0  0  0  0  0  0  0  0
   62.6290   34.2970   49.5350 C   0  0  0  0  0  0  0  0  0  0  0  0
   60.3130   32.9620   46.4600 C   0  0  0  0  0  0  0  0  0  0  0  0
   59.9430   34.2510   46.0050 C   0  0  0  0  0  0  0  0  0  0  0  0
   58.6550   34.5020   45.5360 C   0  0  0  0  0  0  0  0  0  0  0  0
   57.7060   33.4860   45.5070 C   0  0  0  0  0  0  0  0  0  0  0  0
   58.0390   32.2060   45.9440 C   0  0  0  0  0  0  0  0  0  0  0  0
   59.3370   31.9240   46.4180 C   0  0  0  0  0  0  0  0  0  0  0  0
   55.9332   31.0731   43.1869 H   0  0  0  0  0  0  0  0  0  0  0  0
   57.3290   30.9742   42.0606 H   0  0  0  0  0  0  0  0  0  0  0  0
   56.0817   29.6816   42.0606 H   0  0  0  0  0  0  0  0  0  0  0  0
   58.4962   29.9125   43.6747 H   0  0  0  0  0  0  0  0  0  0  0  0
   57.0224   29.8705   44.7344 H   0  0  0  0  0  0  0  0  0  0  0  0
   56.9300   27.9480   42.6220 H   0  0  0  0  0  0  0  0  0  0  0  0
   56.6600   27.7780   44.2720 H   0  0  0  0  0  0  0  0  0  0  0  0
   58.6213   26.5647   43.0786 H   0  0  0  0  0  0  0  0  0  0  0  0
   59.4185   28.1731   43.3544 H   0  0  0  0  0  0  0  0  0  0  0  0
   59.1527   26.0096   45.2003 H   0  0  0  0  0  0  0  0  0  0  0  0
   59.8242   27.6582   45.4904 H   0  0  0  0  0  0  0  0  0  0  0  0
   57.2789   26.9373   47.9120 H   0  0  0  0  0  0  0  0  0  0  0  0
   58.9253   26.3965   47.4295 H   0  0  0  0  0  0  0  0  0  0  0  0
   58.2115   28.7835   48.8170 H   0  0  0  0  0  0  0  0  0  0  0  0
   59.8323   28.3143   48.1720 H   0  0  0  0  0  0  0  0  0  0  0  0
   57.8980   29.6020   46.2780 H   0  0  0  0  0  0  0  0  0  0  0  0
   61.2423   29.4135   47.7388 H   0  0  0  0  0  0  0  0  0  0  0  0
   62.9131   31.2394   47.7586 H   0  0  0  0  0  0  0  0  0  0  0  0
   63.3892   33.5632   46.2956 H   0  0  0  0  0  0  0  0  0  0  0  0
   62.1484   34.7219   46.9198 H   0  0  0  0  0  0  0  0  0  0  0  0
   65.0019   32.5792   47.7576 H   0  0  0  0  0  0  0  0  0  0  0  0
   66.0392   32.4732   50.0229 H   0  0  0  0  0  0  0  0  0  0  0  0
   64.8904   33.5164   51.9773 H   0  0  0  0  0  0  0  0  0  0  0  0
   62.7093   34.6924   51.6657 H   0  0  0  0  0  0  0  0  0  0  0  0
   61.6642   34.8084   49.4025 H   0  0  0  0  0  0  0  0  0  0  0  0
   60.6824   35.0652   46.0220 H   0  0  0  0  0  0  0  0  0  0  0  0
   58.3873   35.5101   45.1866 H   0  0  0  0  0  0  0  0  0  0  0  0
   56.6906   33.6935   45.1383 H   0  0  0  0  0  0  0  0  0  0  0  0
   57.2826   31.4077   45.9192 H   0  0  0  0  0  0  0  0  0  0  0  0
  1  2  1  0
  2  3  1  0
  3  4  1  0
  4  5  1  0
  5  6  1  0
  6  7  1  0
  7  8  1  0
  8  9  1  0
  9 10  1  0
 10 11  2  0
 11 12  1  0
 12 13  2  0
 13 14  1  0
 14 15  1  0
 15 16  2  0
 16 17  1  0
 17 18  2  0
 18 19  1  0
 19 20  2  0
 13 21  1  0
 21 22  2  0
 22 23  1  0
 23 24  2  0
 24 25  1  0
 25 26  2  0
 26 10  1  0
 20 15  1  0
 26 21  1  0
  1 27  1  0
  1 28  1  0
  1 29  1  0
  2 30  1  0
  2 31  1  0
  3 32  1  0
  3 33  1  0
  4 34  1  0
  4 35  1  0
  5 36  1  0
  5 37  1  0
  7 38  1  0
  7 39  1  0
  8 40  1  0
  8 41  1  0
  9 42  1  0
 11 43  1  0
 12 44  1  0
 14 45  1  0
 14 46  1  0
 16 47  1  0
 17 48  1  0
 18 49  1  0
 19 50  1  0
 20 51  1  0
 22 52  1  0
 23 53  1  0
 24 54  1  0
 25 55  1  0
M  CHG  2   3   1  13   1
M  END
>  <UniqueID>  (16) 
16

>  <SMILES>  (16) 
CC[NH2+]CCOCCNc1cc[n+](Cc2ccccc2)c2ccccc12

>  <Energy>  (16) 
59.83639633678269

>  <Genealogy>  (16) 
CC[NH2+]CCOCCNc1cc[n+](Cc2ccccc2)c2ccccc12 (protonated)
CC[NH2+]CCOCCNc1cc[n+](Cc2ccccc2)c2ccccc12 (3D coordinates assigned)
CC[NH2+]CCOCCNc1cc[n+](Cc2ccccc2)c2ccccc12 (optimized conformer: 59.83639633678269 kcal/mol)

>  <smiles>  (16) 
CCNCCOCCNc1cc[n+](Cc2ccccc2)c2ccccc12

>  <score_type>  (16) 
oracle

>  <origin>  (16) 
adg

>  <m_score__min__energy>  (16) 
-5

>  <m_primary>  (16) 
energy

$$$$
16:0
     RDKit          3D

 74 78  0  0  0  0  0  0  0  0999 V2000
   63.2690   33.9570   46.2570 C   0  0  0  0  0  0  0  0  0  0  0  0
   63.7450   34.1800   47.6870 C   0  0  0  0  0  0  0  0  0  0  0  0
   63.1560   33.1440   48.5750 N   0  0  0  0  0  0  0  0  0  0  0  0
   63.5040   33.3610   49.9980 C   0  0  0  0  0  0  0  0  0  0  0  0
   64.6770   32.4830   50.4370 C   0  0  0  0  0  0  0  0  0  0  0  0
   63.5430   31.7780   48.1500 C   0  0  0  0  0  0  0  0  0  0  0  0
   62.5420   31.2150   47.1310 C   0  0  0  0  0  0  0  0  0  0  0  0
   61.2780   30.8690   47.7810 N   0  0  0  0  0  0  0  0  0  0  0  0
   60.0240   31.0240   47.0990 C   0  0  0  0  0  0  0  0  0  0  0  0
   59.2780   29.8730   46.7980 C   0  0  0  0  0  0  0  0  0  0  0  0
   59.4790   28.6690   47.5070 C   0  0  0  0  0  0  0  0  0  0  0  0
   58.7080   27.5430   47.2270 C   0  0  0  0  0  0  0  0  0  0  0  0
   57.7330   27.5940   46.2380 C   0  0  0  0  0  0  0  0  0  0  0  0
   57.5400   28.7650   45.5050 C   0  0  0  0  0  0  0  0  0  0  0  0
   58.3320   29.9170   45.7480 C   0  0  0  0  0  0  0  0  0  0  0  0
   58.2210   31.0530   44.9750 N   0  0  0  0  0  0  0  0  0  0  0  0
   57.5400   30.9870   43.6630 C   0  0  0  0  0  0  0  0  0  0  0  0
   58.7490   32.2490   45.4280 C   0  0  0  0  0  0  0  0  0  0  0  0
   58.4110   33.4740   44.8050 C   0  0  0  0  0  0  0  0  0  0  0  0
   58.9280   34.6780   45.2570 C   0  0  0  0  0  0  0  0  0  0  0  0
   59.7260   34.7130   46.3870 C   0  0  0  0  0  0  0  0  0  0  0  0
   60.0530   33.5390   47.0880 C   0  0  0  0  0  0  0  0  0  0  0  0
   60.6090   33.7100   48.4220 N   0  0  0  0  0  0  0  0  0  0  0  0
   59.6410   34.3400   49.3380 C   0  0  0  0  0  0  0  0  0  0  0  0
   59.7780   33.8260   50.7800 C   0  0  0  0  0  0  0  0  0  0  0  0
   59.9230   32.3640   50.7890 N   0  0  0  0  0  0  0  0  0  0  0  0
   58.8990   31.5750   50.3430 C   0  0  0  0  0  0  0  0  0  0  0  0
   59.0220   30.1840   50.3340 C   0  0  0  0  0  0  0  0  0  0  0  0
   60.2110   29.5940   50.7720 C   0  0  0  0  0  0  0  0  0  0  0  0
   60.3650   28.2000   50.7750 C   0  0  0  0  0  0  0  0  0  0  0  0
   61.5630   27.6300   51.2150 C   0  0  0  0  0  0  0  0  0  0  0  0
   62.6120   28.4450   51.6510 C   0  0  0  0  0  0  0  0  0  0  0  0
   62.4690   29.8350   51.6530 C   0  0  0  0  0  0  0  0  0  0  0  0
   61.2690   30.4170   51.2150 C   0  0  0  0  0  0  0  0  0  0  0  0
   61.1000   31.8080   51.2110 C   0  0  0  0  0  0  0  0  0  0  0  0
   59.6310   32.2710   46.5530 C   0  0  0  0  0  0  0  0  0  0  0  0
   62.2730   33.4904   46.2707 H   0  0  0  0  0  0  0  0  0  0  0  0
   63.2142   34.9231   45.7339 H   0  0  0  0  0  0  0  0  0  0  0  0
   63.9762   33.2965   45.7339 H   0  0  0  0  0  0  0  0  0  0  0  0
   64.8423   34.1120   47.7225 H   0  0  0  0  0  0  0  0  0  0  0  0
   63.4270   35.1767   48.0270 H   0  0  0  0  0  0  0  0  0  0  0  0
   63.7770   34.4170   50.1406 H   0  0  0  0  0  0  0  0  0  0  0  0
   62.6292   33.0925   50.6084 H   0  0  0  0  0  0  0  0  0  0  0  0
   64.7199   32.4509   51.5357 H   0  0  0  0  0  0  0  0  0  0  0  0
   64.5391   31.4643   50.0455 H   0  0  0  0  0  0  0  0  0  0  0  0
   65.6155   32.9024   50.0455 H   0  0  0  0  0  0  0  0  0  0  0  0
   64.5421   31.8135   47.6911 H   0  0  0  0  0  0  0  0  0  0  0  0
   63.5484   31.1239   49.0344 H   0  0  0  0  0  0  0  0  0  0  0  0
   62.3532   31.9715   46.3551 H   0  0  0  0  0  0  0  0  0  0  0  0
   62.9687   30.3054   46.6832 H   0  0  0  0  0  0  0  0  0  0  0  0
   61.3020   30.4390   48.7340 H   0  0  0  0  0  0  0  0  0  0  0  0
   60.2519   28.6194   48.2881 H   0  0  0  0  0  0  0  0  0  0  0  0
   58.8712   26.6120   47.7897 H   0  0  0  0  0  0  0  0  0  0  0  0
   57.1123   26.7093   46.0328 H   0  0  0  0  0  0  0  0  0  0  0  0
   56.7626   28.7958   44.7274 H   0  0  0  0  0  0  0  0  0  0  0  0
   56.4560   30.8819   43.8174 H   0  0  0  0  0  0  0  0  0  0  0  0
   57.7422   31.9090   43.0981 H   0  0  0  0  0  0  0  0  0  0  0  0
   57.9155   30.1210   43.0981 H   0  0  0  0  0  0  0  0  0  0  0  0
   57.7247   33.4705   43.9454 H   0  0  0  0  0  0  0  0  0  0  0  0
   58.7032   35.6088   44.7156 H   0  0  0  0  0  0  0  0  0  0  0  0
   60.1124   35.6790   46.7441 H   0  0  0  0  0  0  0  0  0  0  0  0
   60.9820   32.8470   48.8530 H   0  0  0  0  0  0  0  0  0  0  0  0
   61.4400   34.3430   48.3570 H   0  0  0  0  0  0  0  0  0  0  0  0
   59.8066   35.4274   49.3335 H   0  0  0  0  0  0  0  0  0  0  0  0
   58.6308   34.0844   48.9856 H   0  0  0  0  0  0  0  0  0  0  0  0
   60.6649   34.2814   51.2448 H   0  0  0  0  0  0  0  0  0  0  0  0
   58.8743   34.0992   51.3445 H   0  0  0  0  0  0  0  0  0  0  0  0
   57.9682   32.0411   49.9874 H   0  0  0  0  0  0  0  0  0  0  0  0
   58.1887   29.5568   49.9845 H   0  0  0  0  0  0  0  0  0  0  0  0
   59.5429   27.5552   50.4310 H   0  0  0  0  0  0  0  0  0  0  0  0
   61.6809   26.5363   51.2182 H   0  0  0  0  0  0  0  0  0  0  0  0
   63.5532   27.9904   51.9937 H   0  0  0  0  0  0  0  0  0  0  0  0
   63.2963   30.4728   51.9976 H   0  0  0  0  0  0  0  0  0  0  0  0
   61.9200   32.4582   51.5498 H   0  0  0  0  0  0  0  0  0  0  0  0
  1  2  1  0
  2  3  1  0
  3  4  1  0
  4  5  1  0
  3  6  1  0
  6  7  1  0
  7  8  1  0
  8  9  1  0
  9 10  2  0
 10 11  1  0
 11 12  2  0
 12 13  1  0
 13 14  2  0
 14 15  1  0
 15 16  2  0
 16 17  1  0
 16 18  1  0
 18 19  2  0
 19 20  1  0
 20 21  2  0
 21 22  1  0
 22 23  1  0
 23 24  1  0
 24 25  1  0
 25 26  1  0
 26 27  2  0
 27 28  1  0
 28 29  2  0
 29 30  1  0
 30 31  2  0
 31 32  1  0
 32 33  2  0
 33 34  1  0
 34 35  2  0
 22 36  2  0
 36  9  1  0
 15 10  1  0
 36 18  1  0
 35 26  1  0
 34 29  1  0
  1 37  1  0
  1 38  1  0
  1 39  1  0
  2 40  1  0
  2 41  1  0
  4 42  1  0
  4 43  1  0
  5 44  1  0
  5 45  1  0
  5 46  1  0
  6 47  1  0
  6 48  1  0
  7 49  1  0
  7 50  1  0
  8 51  1  0
 11 52  1  0
 12 53  1  0
 13 54  1  0
 14 55  1  0
 17 56  1  0
 17 57  1  0
 17 58  1  0
 19 59  1  0
 20 60  1  0
 21 61  1  0
 23 62  1  0
 23 63  1  0
 24 64  1  0
 24 65  1  0
 25 66  1  0
 25 67  1  0
 27 68  1  0
 28 69  1  0
 30 70  1  0
 31 71  1  0
 32 72  1  0
 33 73  1  0
 35 74  1  0
M  CHG  3  16   1  23   1  26   1
M  END
>  <UniqueID>  (17) 
17

>  <SMILES>  (17) 
CCN(CC)CCNc1c2ccccc2[n+](C)c2cccc([NH2+]CC[n+]3ccc4ccccc4c3)c12

>  <Energy>  (17) 
116.29328338759487

>  <Genealogy>  (17) 
CCN(CC)CCNc1c2ccccc2[n+](C)c2cccc([NH2+]CC[n+]3ccc4ccccc4c3)c12 (protonated)
CCN(CC)CCNc1c2ccccc2[n+](C)c2cccc([NH2+]CC[n+]3ccc4ccccc4c3)c12 (3D coordinates assigned)
CCN(CC)CCNc1c2ccccc2[n+](C)c2cccc([NH2+]CC[n+]3ccc4ccccc4c3)c12 (optimized conformer: 116.29328338759487 kcal/mol)

>  <smiles>  (17) 
CCN(CC)CCNc1c2ccccc2[n+](C)c2cccc(NCC[n+]3ccc4ccccc4c3)c12

>  <score_type>  (17) 
oracle

>  <origin>  (17) 
adg

>  <m_score__min__energy>  (17) 
-4.25

>  <m_primary>  (17) 
energy

$$$$
17:0
     RDKit          3D

 69 71  0  0  0  0  0  0  0  0999 V2000
   63.3540   33.8300   49.5340 C   0  0  0  0  0  0  0  0  0  0  0  0
   64.0970   32.6320   48.9310 C   0  0  0  0  0  0  0  0  0  0  0  0
   63.7040   32.3640   47.5220 N   0  0  2  0  0  0  0  0  0  0  0  0
   63.3540   33.6260   46.8330 C   0  0  0  0  0  0  0  0  0  0  0  0
   62.5510   31.4290   47.4440 C   0  0  0  0  0  0  0  0  0  0  0  0
   61.1870   32.1660   47.3000 C   0  0  0  0  0  0  0  0  0  0  0  0
   59.9210   31.3840   47.8080 C   0  0  0  0  0  0  0  0  0  0  0  0
   58.7320   31.6290   46.7970 C   0  0  0  0  0  0  0  0  0  0  0  0
   57.8120   32.8570   47.0070 C   0  0  0  0  0  0  0  0  0  0  0  0
   57.4730   33.6160   45.7160 C   0  0  0  0  0  0  0  0  0  0  0  0
   57.4950   32.6910   44.4940 C   0  0  0  0  0  0  0  0  0  0  0  0
   56.8320   31.4730   44.7910 O   0  0  0  0  0  0  0  0  0  0  0  0
   56.9340   30.5400   43.7310 C   0  0  0  0  0  0  0  0  0  0  0  0
   57.2460   29.1630   44.2520 C   0  0  0  0  0  0  0  0  0  0  0  0
   56.9330   28.8110   45.5770 C   0  0  0  0  0  0  0  0  0  0  0  0
   57.1830   27.5140   46.0390 C   0  0  0  0  0  0  0  0  0  0  0  0
   57.7450   26.5620   45.1840 C   0  0  0  0  0  0  0  0  0  0  0  0
   58.0600   26.9070   43.8650 C   0  0  0  0  0  0  0  0  0  0  0  0
   57.8050   28.2000   43.3960 C   0  0  0  0  0  0  0  0  0  0  0  0
   60.1220   29.8510   47.9260 C   0  0  0  0  0  0  0  0  0  0  0  0
   60.4430   29.2060   49.1430 C   0  0  0  0  0  0  0  0  0  0  0  0
   60.7030   27.8340   49.1780 C   0  0  0  0  0  0  0  0  0  0  0  0
   60.6660   27.0780   48.0070 C   0  0  0  0  0  0  0  0  0  0  0  0
   60.3830   27.6970   46.7910 C   0  0  0  0  0  0  0  0  0  0  0  0
   60.1280   29.0690   46.7470 C   0  0  0  0  0  0  0  0  0  0  0  0
   59.5360   32.0000   49.1820 C   0  0  0  0  0  0  0  0  0  0  0  0
   60.0940   33.2250   49.6330 C   0  0  0  0  0  0  0  0  0  0  0  0
   59.6960   33.7940   50.8460 C   0  0  0  0  0  0  0  0  0  0  0  0
   58.7160   33.1790   51.6210 C   0  0  0  0  0  0  0  0  0  0  0  0
   58.1150   32.0040   51.1780 C   0  0  0  0  0  0  0  0  0  0  0  0
   58.5070   31.4270   49.9660 C   0  0  0  0  0  0  0  0  0  0  0  0
   63.3913   33.7699   50.6317 H   0  0  0  0  0  0  0  0  0  0  0  0
   63.8321   34.7632   49.2014 H   0  0  0  0  0  0  0  0  0  0  0  0
   62.3056   33.8164   49.2014 H   0  0  0  0  0  0  0  0  0  0  0  0
   65.1775   32.8357   48.9625 H   0  0  0  0  0  0  0  0  0  0  0  0
   63.8334   31.7441   49.5245 H   0  0  0  0  0  0  0  0  0  0  0  0
   64.5140   31.9410   47.0070 H   0  0  0  0  0  0  0  0  0  0  0  0
   63.1382   34.4040   47.5801 H   0  0  0  0  0  0  0  0  0  0  0  0
   64.1973   33.9461   46.2034 H   0  0  0  0  0  0  0  0  0  0  0  0
   62.4663   33.4660   46.2034 H   0  0  0  0  0  0  0  0  0  0  0  0
   62.6894   30.7718   46.5728 H   0  0  0  0  0  0  0  0  0  0  0  0
   62.5223   30.8585   48.3841 H   0  0  0  0  0  0  0  0  0  0  0  0
   61.2514   33.1061   47.8675 H   0  0  0  0  0  0  0  0  0  0  0  0
   61.0368   32.3007   46.2187 H   0  0  0  0  0  0  0  0  0  0  0  0
   59.1751   31.7252   45.7948 H   0  0  0  0  0  0  0  0  0  0  0  0
   58.0660   30.7685   46.9578 H   0  0  0  0  0  0  0  0  0  0  0  0
   56.8718   32.5104   47.4607 H   0  0  0  0  0  0  0  0  0  0  0  0
   58.3622   33.5584   47.6515 H   0  0  0  0  0  0  0  0  0  0  0  0
   56.4690   34.0548   45.8133 H   0  0  0  0  0  0  0  0  0  0  0  0
   58.2317   34.3986   45.5682 H   0  0  0  0  0  0  0  0  0  0  0  0
   56.9863   33.1864   43.6539 H   0  0  0  0  0  0  0  0  0  0  0  0
   58.5396   32.4753   44.2253 H   0  0  0  0  0  0  0  0  0  0  0  0
   55.9795   30.5102   43.1850 H   0  0  0  0  0  0  0  0  0  0  0  0
   57.7500   30.8554   43.0642 H   0  0  0  0  0  0  0  0  0  0  0  0
   56.4902   29.5577   46.2525 H   0  0  0  0  0  0  0  0  0  0  0  0
   56.9369   27.2434   47.0764 H   0  0  0  0  0  0  0  0  0  0  0  0
   57.9396   25.5422   45.5476 H   0  0  0  0  0  0  0  0  0  0  0  0
   58.5095   26.1593   43.1950 H   0  0  0  0  0  0  0  0  0  0  0  0
   58.0428   28.4630   42.3547 H   0  0  0  0  0  0  0  0  0  0  0  0
   60.4885   29.7917   50.0730 H   0  0  0  0  0  0  0  0  0  0  0  0
   60.9385   27.3468   50.1357 H   0  0  0  0  0  0  0  0  0  0  0  0
   60.8597   25.9958   48.0430 H   0  0  0  0  0  0  0  0  0  0  0  0
   60.3605   27.1040   45.8648 H   0  0  0  0  0  0  0  0  0  0  0  0
   59.9282   29.5505   45.7784 H   0  0  0  0  0  0  0  0  0  0  0  0
   60.8511   33.7341   49.0185 H   0  0  0  0  0  0  0  0  0  0  0  0
   60.1585   34.7310   51.1897 H   0  0  0  0  0  0  0  0  0  0  0  0
   58.4169   33.6214   52.5827 H   0  0  0  0  0  0  0  0  0  0  0  0
   57.3294   31.5280   51.7832 H   0  0  0  0  0  0  0  0  0  0  0  0
   58.0068   30.5119   49.6162 H   0  0  0  0  0  0  0  0  0  0  0  0
  1  2  1  0
  2  3  1  0
  3  4  1  0
  3  5  1  0
  5  6  1  0
  6  7  1  0
  7  8  1  0
  8  9  1  0
  9 10  1  0
 10 11  1  0
 11 12  1  0
 12 13  1  0
 13 14  1  0
 14 15  2  0
 15 16  1  0
 16 17  2  0
 17 18  1  0
 18 19  2  0
  7 20  1  0
 20 21  2  0
 21 22  1  0
 22 23  2  0
 23 24  1  0
 24 25  2  0
  7 26  1  0
 26 27  2  0
 27 28  1  0
 28 29  2  0
 29 30  1  0
 30 31  2  0
 19 14  1  0
 25 20  1  0
 31 26  1  0
  1 32  1  0
  1 33  1  0
  1 34  1  0
  2 35  1  0
  2 36  1  0
  3 37  1  6
  4 38  1  0
  4 39  1  0
  4 40  1  0
  5 41  1  0
  5 42  1  0
  6 43  1  0
  6 44  1  0
  8 45  1  0
  8 46  1  0
  9 47  1  0
  9 48  1  0
 10 49  1  0
 10 50  1  0
 11 51  1  0
 11 52  1  0
 13 53  1  0
 13 54  1  0
 15 55  1  0
 16 56  1  0
 17 57  1  0
 18 58  1  0
 19 59  1  0
 21 60  1  0
 22 61  1  0
 23 62  1  0
 24 63  1  0
 25 64  1  0
 27 65  1  0
 28 66  1  0
 29 67  1  0
 30 68  1  0
 31 69  1  0
M  CHG  1   3   1
M  END
>  <UniqueID>  (18) 
18

>  <SMILES>  (18) 
CC[N@H+](C)CCC(CCCCOCc1ccccc1)(c1ccccc1)c1ccccc1

>  <Energy>  (18) 
85.21278268093546

>  <Genealogy>  (18) 
CC[NH+](C)CCC(CCCCOCc1ccccc1)(c1ccccc1)c1ccccc1 (protonated)
CC[N@H+](C)CCC(CCCCOCc1ccccc1)(c1ccccc1)c1ccccc1 (chirality)
CC[N@H+](C)CCC(CCCCOCc1ccccc1)(c1ccccc1)c1ccccc1 (3D coordinates assigned)
CC[N@H+](C)CCC(CCCCOCc1ccccc1)(c1ccccc1)c1ccccc1 (optimized conformer: 85.21278268093546 kcal/mol)

>  <smiles>  (18) 
CCN(C)CCC(CCCCOCc1ccccc1)(c1ccccc1)c1ccccc1

>  <score_type>  (18) 
oracle

>  <origin>  (18) 
adg

>  <m_score__min__energy>  (18) 
-7.4100000000000001

>  <m_primary>  (18) 
energy

$$$$
18:0
     RDKit          3D

 58 61  0  0  0  0  0  0  0  0999 V2000
   61.6130   33.0410   51.6430 C   0  0  0  0  0  0  0  0  0  0  0  0
   61.3710   33.8540   50.3670 C   0  0  0  0  0  0  0  0  0  0  0  0
   60.0860   33.5630   49.6900 N   0  0  0  0  0  0  0  0  0  0  0  0
   59.0330   32.9870   50.5520 C   0  0  0  0  0  0  0  0  0  0  0  0
   58.5580   31.6540   49.9840 C   0  0  0  0  0  0  0  0  0  0  0  0
   59.6300   34.5820   48.7160 C   0  0  0  0  0  0  0  0  0  0  0  0
   58.7880   34.0060   47.5490 C   0  0  0  0  0  0  0  0  0  0  0  0
   59.2340   34.5580   46.1850 C   0  0  0  0  0  0  0  0  0  0  0  0
   60.3130   33.7540   45.5770 N   0  0  0  0  0  0  0  0  0  0  0  0
   60.6500   32.5890   46.3890 C   0  0  0  0  0  0  0  0  0  0  0  0
   61.8230   32.5920   47.1960 C   0  0  0  0  0  0  0  0  0  0  0  0
   62.7300   33.6820   47.2030 C   0  0  0  0  0  0  0  0  0  0  0  0
   63.8560   33.6790   48.0210 C   0  0  0  0  0  0  0  0  0  0  0  0
   64.1110   32.5980   48.8560 C   0  0  0  0  0  0  0  0  0  0  0  0
   65.5380   32.5970   49.8760 Cl  0  0  0  0  0  0  0  0  0  0  0  0
   63.2330   31.5170   48.8790 C   0  0  0  0  0  0  0  0  0  0  0  0
   62.0760   31.4930   48.0610 C   0  0  0  0  0  0  0  0  0  0  0  0
   61.2020   30.4330   48.1100 N   0  0  0  0  0  0  0  0  0  0  0  0
   61.1410   29.6250   49.3480 C   0  0  0  0  0  0  0  0  0  0  0  0
   60.2480   30.2760   47.1250 C   0  0  0  0  0  0  0  0  0  0  0  0
   59.8390   31.4140   46.3740 C   0  0  0  0  0  0  0  0  0  0  0  0
   58.6230   31.3420   45.6540 C   0  0  0  0  0  0  0  0  0  0  0  0
   57.8970   30.1600   45.5780 C   0  0  0  0  0  0  0  0  0  0  0  0
   58.4080   28.9880   46.1250 C   0  0  0  0  0  0  0  0  0  0  0  0
   57.7510   27.7660   45.9130 C   0  0  0  0  0  0  0  0  0  0  0  0
   58.3150   26.6070   46.3320 N   0  0  0  0  0  0  0  0  0  0  0  0
   59.5210   26.5890   46.9540 C   0  0  0  0  0  0  0  0  0  0  0  0
   60.2010   27.7810   47.2030 C   0  0  0  0  0  0  0  0  0  0  0  0
   59.6180   29.0190   46.8570 C   0  0  0  0  0  0  0  0  0  0  0  0
   61.4245   33.6742   52.5225 H   0  0  0  0  0  0  0  0  0  0  0  0
   60.9333   32.1763   51.6613 H   0  0  0  0  0  0  0  0  0  0  0  0
   62.6549   32.6888   51.6613 H   0  0  0  0  0  0  0  0  0  0  0  0
   61.3865   34.9217   50.6313 H   0  0  0  0  0  0  0  0  0  0  0  0
   62.1675   33.5751   49.6615 H   0  0  0  0  0  0  0  0  0  0  0  0
   59.4374   32.8279   51.5625 H   0  0  0  0  0  0  0  0  0  0  0  0
   58.1823   33.6831   50.5931 H   0  0  0  0  0  0  0  0  0  0  0  0
   58.3141   30.9696   50.8099 H   0  0  0  0  0  0  0  0  0  0  0  0
   57.6626   31.8169   49.3662 H   0  0  0  0  0  0  0  0  0  0  0  0
   59.3546   31.2139   49.3662 H   0  0  0  0  0  0  0  0  0  0  0  0
   59.0180   35.3228   49.2514 H   0  0  0  0  0  0  0  0  0  0  0  0
   60.5337   35.0224   48.2695 H   0  0  0  0  0  0  0  0  0  0  0  0
   58.8957   32.9113   47.5408 H   0  0  0  0  0  0  0  0  0  0  0  0
   57.7410   34.3035   47.7083 H   0  0  0  0  0  0  0  0  0  0  0  0
   58.3693   34.5602   45.5051 H   0  0  0  0  0  0  0  0  0  0  0  0
   59.6233   35.5741   46.3459 H   0  0  0  0  0  0  0  0  0  0  0  0
   61.1590   34.3520   45.4520 H   0  0  0  0  0  0  0  0  0  0  0  0
   60.0690   33.5180   44.5930 H   0  0  0  0  0  0  0  0  0  0  0  0
   62.5400   34.5463   46.5496 H   0  0  0  0  0  0  0  0  0  0  0  0
   64.5464   34.5352   48.0065 H   0  0  0  0  0  0  0  0  0  0  0  0
   63.4415   30.6662   49.5444 H   0  0  0  0  0  0  0  0  0  0  0  0
   61.1912   30.2901   50.2227 H   0  0  0  0  0  0  0  0  0  0  0  0
   60.1976   29.0597   49.3708 H   0  0  0  0  0  0  0  0  0  0  0  0
   61.9888   28.9245   49.3708 H   0  0  0  0  0  0  0  0  0  0  0  0
   58.2448   32.2403   45.1440 H   0  0  0  0  0  0  0  0  0  0  0  0
   56.9145   30.1511   45.0834 H   0  0  0  0  0  0  0  0  0  0  0  0
   56.7754   27.7489   45.4052 H   0  0  0  0  0  0  0  0  0  0  0  0
   59.9639   25.6307   47.2630 H   0  0  0  0  0  0  0  0  0  0  0  0
   61.1961   27.7562   47.6711 H   0  0  0  0  0  0  0  0  0  0  0  0
  1  2  1  0
  2  3  1  0
  3  4  1  0
  4  5  1  0
  3  6  1  0
  6  7  1  0
  7  8  1  0
  8  9  1  0
  9 10  1  0
 10 11  2  0
 11 12  1  0
 12 13  2  0
 13 14  1  0
 14 15  1  0
 14 16  2  0
 16 17  1  0
 17 18  2  0
 18 19  1  0
 18 20  1  0
 20 21  2  0
 21 22  1  0
 22 23  2  0
 23 24  1  0
 24 25  2  0
 25 26  1  0
 26 27  2  0
 27 28  1  0
 28 29  2  0
 21 10  1  0
 29 24  1  0
 17 11  1  0
 29 20  1  0
  1 30  1  0
  1 31  1  0
  1 32  1  0
  2 33  1  0
  2 34  1  0
  4 35  1  0
  4 36  1  0
  5 37  1  0
  5 38  1  0
  5 39  1  0
  6 40  1  0
  6 41  1  0
  7 42  1  0
  7 43  1  0
  8 44  1  0
  8 45  1  0
  9 46  1  0
  9 47  1  0
 12 48  1  0
 13 49  1  0
 16 50  1  0
 19 51  1  0
 19 52  1  0
 19 53  1  0
 22 54  1  0
 23 55  1  0
 25 56  1  0
 27 57  1  0
 28 58  1  0
M  CHG  2   9   1  18   1
M  END
>  <UniqueID>  (19) 
19

>  <SMILES>  (19) 
CCN(CC)CCC[NH2+]c1c2ccc(Cl)cc2[n+](C)c2c1ccc1cnccc12

>  <Energy>  (19) 
110.7383857254185

>  <Genealogy>  (19) 
CCN(CC)CCC[NH2+]c1c2ccc(Cl)cc2[n+](C)c2c1ccc1cnccc12 (protonated)
CCN(CC)CCC[NH2+]c1c2ccc(Cl)cc2[n+](C)c2c1ccc1cnccc12 (3D coordinates assigned)
CCN(CC)CCC[NH2+]c1c2ccc(Cl)cc2[n+](C)c2c1ccc1cnccc12 (optimized conformer: 110.7383857254185 kcal/mol)

>  <smiles>  (19) 
CCN(CC)CCCNc1c2ccc(Cl)cc2[n+](C)c2c1ccc1cnccc12

>  <score_type>  (19) 
oracle

>  <origin>  (19) 
adg

>  <m_score__min__energy>  (19) 
-5.0800000000000001

>  <m_primary>  (19) 
energy

$$$$
19:0
     RDKit          3D

 45 46  0  0  0  0  0  0  0  0999 V2000
   62.8800   34.2090   49.2800 C   0  0  0  0  0  0  0  0  0  0  0  0
   61.9850   33.3090   48.5550 C   0  0  0  0  0  0  0  0  0  0  0  0
   61.2450   32.5660   47.9580 C   0  0  0  0  0  0  0  0  0  0  0  0
   60.3600   31.6750   47.2440 C   0  0  0  0  0  0  0  0  0  0  0  0
   60.9160   30.7220   46.3820 C   0  0  0  0  0  0  0  0  0  0  0  0
   60.0940   29.8290   45.6620 C   0  0  0  0  0  0  0  0  0  0  0  0
   58.6880   29.9320   45.8000 C   0  0  0  0  0  0  0  0  0  0  0  0
   58.1400   30.8900   46.6730 C   0  0  0  0  0  0  0  0  0  0  0  0
   58.9650   31.7590   47.4000 C   0  0  0  0  0  0  0  0  0  0  0  0
   58.3450   32.7790   48.3200 C   0  0  0  0  0  0  0  0  0  0  0  0
   57.8790   29.0990   45.0830 N   0  0  0  0  0  0  0  0  0  0  0  0
   56.5130   29.1270   45.2660 O   0  0  0  0  0  0  0  0  0  0  0  0
   58.4220   28.1950   44.2210 C   0  0  0  0  0  0  0  0  0  0  0  0
   57.5960   27.3270   43.4350 N   0  0  0  0  0  0  0  0  0  0  0  0
   57.7370   25.8730   43.4970 C   0  0  0  0  0  0  0  0  0  0  0  0
   57.7130   25.4060   44.9570 C   0  0  0  0  0  0  0  0  0  0  0  0
   56.6530   26.1490   45.7840 C   0  0  0  0  0  0  0  0  0  0  0  0
   55.6470   25.2200   46.3450 N   0  0  0  0  0  0  0  0  0  0  0  0
   54.9630   24.4670   45.2780 C   0  0  0  0  0  0  0  0  0  0  0  0
   56.2910   24.2760   47.2720 C   0  0  0  0  0  0  0  0  0  0  0  0
   59.7700   28.0870   44.1250 N   0  0  0  0  0  0  0  0  0  0  0  0
   60.5990   28.8650   44.8210 N   0  0  0  0  0  0  0  0  0  0  0  0
   61.9520   28.6360   44.6530 O   0  0  0  0  0  0  0  0  0  0  0  0
   62.7418   34.0700   50.3624 H   0  0  0  0  0  0  0  0  0  0  0  0
   63.9227   33.9838   49.0116 H   0  0  0  0  0  0  0  0  0  0  0  0
   62.6490   35.2504   49.0116 H   0  0  0  0  0  0  0  0  0  0  0  0
   62.0084   30.6686   46.2644 H   0  0  0  0  0  0  0  0  0  0  0  0
   57.0480   30.9578   46.7865 H   0  0  0  0  0  0  0  0  0  0  0  0
   58.5230   32.4862   49.3653 H   0  0  0  0  0  0  0  0  0  0  0  0
   58.7972   33.7642   48.1331 H   0  0  0  0  0  0  0  0  0  0  0  0
   57.2622   32.8312   48.1331 H   0  0  0  0  0  0  0  0  0  0  0  0
   56.6600   27.6930   43.1470 H   0  0  0  0  0  0  0  0  0  0  0  0
   56.9063   25.4028   42.9504 H   0  0  0  0  0  0  0  0  0  0  0  0
   58.6951   25.5832   43.0408 H   0  0  0  0  0  0  0  0  0  0  0  0
   57.4910   24.3289   44.9813 H   0  0  0  0  0  0  0  0  0  0  0  0
   58.6979   25.6205   45.3975 H   0  0  0  0  0  0  0  0  0  0  0  0
   57.1511   26.6767   46.6107 H   0  0  0  0  0  0  0  0  0  0  0  0
   56.1342   26.8567   45.1206 H   0  0  0  0  0  0  0  0  0  0  0  0
   54.2882   23.7241   45.7283 H   0  0  0  0  0  0  0  0  0  0  0  0
   54.3804   25.1614   44.6548 H   0  0  0  0  0  0  0  0  0  0  0  0
   55.7100   23.9536   44.6548 H   0  0  0  0  0  0  0  0  0  0  0  0
   56.0833   24.5805   48.3084 H   0  0  0  0  0  0  0  0  0  0  0  0
   55.8936   23.2648   47.1003 H   0  0  0  0  0  0  0  0  0  0  0  0
   57.3775   24.2771   47.1003 H   0  0  0  0  0  0  0  0  0  0  0  0
   62.3630   28.2540   43.8140 H   0  0  0  0  0  0  0  0  0  0  0  0
  1  2  1  0
  2  3  3  0
  3  4  1  0
  4  5  2  0
  5  6  1  0
  6  7  2  0
  7  8  1  0
  8  9  2  0
  9 10  1  0
  7 11  1  0
 11 12  1  0
 11 13  2  0
 13 14  1  0
 14 15  1  0
 15 16  1  0
 16 17  1  0
 17 18  1  0
 18 19  1  0
 18 20  1  0
 13 21  1  0
 21 22  2  0
 22 23  1  0
  9  4  1  0
 22  6  1  0
  1 24  1  0
  1 25  1  0
  1 26  1  0
  5 27  1  0
  8 28  1  0
 10 29  1  0
 10 30  1  0
 10 31  1  0
 14 32  1  0
 15 33  1  0
 15 34  1  0
 16 35  1  0
 16 36  1  0
 17 37  1  0
 17 38  1  0
 19 39  1  0
 19 40  1  0
 19 41  1  0
 20 42  1  0
 20 43  1  0
 20 44  1  0
 23 45  1  0
M  CHG  3  11   1  12  -1  22   1
M  END
>  <UniqueID>  (20) 
20

>  <SMILES>  (20) 
CC#Cc1cc2c(cc1C)[n+]([O-])c(NCCCN(C)C)n[n+]2O

>  <Energy>  (20) 
49.78598023897231

>  <Genealogy>  (20) 
CC#Cc1cc2c(cc1C)[n+]([O-])c(NCCCN(C)C)n[n+]2O (protonated)
CC#Cc1cc2c(cc1C)[n+]([O-])c(NCCCN(C)C)n[n+]2O (3D coordinates assigned)
CC#Cc1cc2c(cc1C)[n+]([O-])c(NCCCN(C)C)n[n+]2O (optimized conformer: 49.78598023897231 kcal/mol)

>  <smiles>  (20) 
CC#Cc1cc2c(cc1C)[n+]([O-])c(NCCCN(C)C)n[n+]2[O-]

>  <score_type>  (20) 
oracle

>  <origin>  (20) 
adg

>  <m_score__min__energy>  (20) 
-5.3700000000000001

>  <m_primary>  (20) 
energy

$$$$
20:0
     RDKit          3D

 46 48  0  0  0  0  0  0  0  0999 V2000
   63.5912   34.1313   45.3898 H   0  0  0  0  0  0  0  0  0  0  0  0
   63.3420   33.8200   46.4150 C   0  0  0  0  0  0  0  0  0  0  0  0
   63.0690   33.4790   47.5380 C   0  0  0  0  0  0  0  0  0  0  0  0
   62.7390   33.0640   48.9070 C   0  0  0  0  0  0  0  0  0  0  0  0
   63.2354   33.7374   49.6212 H   0  0  0  0  0  0  0  0  0  0  0  0
   61.6487   33.1110   49.0451 H   0  0  0  0  0  0  0  0  0  0  0  0
   63.1980   31.6780   49.1410 N   0  0  0  0  0  0  0  0  0  0  0  0
   64.5290   31.6750   49.7750 C   0  0  0  0  0  0  0  0  0  0  0  0
   64.4140   31.6753   50.8690 H   0  0  0  0  0  0  0  0  0  0  0  0
   65.0810   30.7756   49.4645 H   0  0  0  0  0  0  0  0  0  0  0  0
   65.0850   32.5719   49.4645 H   0  0  0  0  0  0  0  0  0  0  0  0
   62.2380   30.9380   49.9870 C   0  0  0  0  0  0  0  0  0  0  0  0
   62.7574   30.1010   50.4765 H   0  0  0  0  0  0  0  0  0  0  0  0
   61.8277   31.6241   50.7426 H   0  0  0  0  0  0  0  0  0  0  0  0
   61.1040   30.3980   49.1520 C   0  0  0  0  0  0  0  0  0  0  0  0
   60.6700   29.0740   49.3110 C   0  0  0  0  0  0  0  0  0  0  0  0
   61.1518   28.4266   50.0585 H   0  0  0  0  0  0  0  0  0  0  0  0
   59.6300   28.5730   48.5260 C   0  0  0  0  0  0  0  0  0  0  0  0
   59.3030   27.5300   48.6496 H   0  0  0  0  0  0  0  0  0  0  0  0
   59.0020   29.3940   47.5820 C   0  0  0  0  0  0  0  0  0  0  0  0
   58.0110   28.8880   46.8040 N   0  0  0  0  0  0  0  0  0  0  0  0
   57.3890   29.6510   45.8720 C   0  0  0  0  0  0  0  0  0  0  0  0
   56.4540   29.1250   45.1400 N   0  0  0  0  0  0  0  0  0  0  0  0
   55.7070   29.8320   44.0980 C   0  0  0  0  0  0  0  0  0  0  0  0
   54.8617   29.2074   43.7735 H   0  0  0  0  0  0  0  0  0  0  0  0
   55.3432   30.7848   44.5101 H   0  0  0  0  0  0  0  0  0  0  0  0
   56.6000   30.1280   42.8970 C   0  0  0  0  0  0  0  0  0  0  0  0
   57.5896   30.4560   43.2479 H   0  0  0  0  0  0  0  0  0  0  0  0
   56.7097   29.2182   42.2886 H   0  0  0  0  0  0  0  0  0  0  0  0
   56.1446   30.9232   42.2886 H   0  0  0  0  0  0  0  0  0  0  0  0
   57.7500   30.9540   45.7180 N   0  0  0  0  0  0  0  0  0  0  0  0
   58.7240   31.5270   46.4740 C   0  0  0  0  0  0  0  0  0  0  0  0
   59.0000   32.9650   46.2680 C   0  0  0  0  0  0  0  0  0  0  0  0
   58.9920   33.5210   44.9760 C   0  0  0  0  0  0  0  0  0  0  0  0
   58.7518   32.8884   44.1087 H   0  0  0  0  0  0  0  0  0  0  0  0
   59.2880   34.8740   44.7900 C   0  0  0  0  0  0  0  0  0  0  0  0
   59.2651   35.3073   43.7792 H   0  0  0  0  0  0  0  0  0  0  0  0
   59.6130   35.6770   45.8860 C   0  0  0  0  0  0  0  0  0  0  0  0
   59.8421   36.7427   45.7385 H   0  0  0  0  0  0  0  0  0  0  0  0
   59.6470   35.1260   47.1700 C   0  0  0  0  0  0  0  0  0  0  0  0
   59.9079   35.7578   48.0318 H   0  0  0  0  0  0  0  0  0  0  0  0
   59.3500   33.7730   47.3610 C   0  0  0  0  0  0  0  0  0  0  0  0
   59.3908   33.3403   48.3715 H   0  0  0  0  0  0  0  0  0  0  0  0
   59.4070   30.7380   47.4290 C   0  0  0  0  0  0  0  0  0  0  0  0
   60.4830   31.2210   48.1990 C   0  0  0  0  0  0  0  0  0  0  0  0
   60.8396   32.2512   48.0525 H   0  0  0  0  0  0  0  0  0  0  0  0
  1  2  1  0
  2  3  3  0
  3  4  1  0
  4  5  1  0
  4  6  1  0
  4  7  1  0
  7  8  1  0
  8  9  1  0
  8 10  1  0
  8 11  1  0
  7 12  1  0
 12 13  1  0
 12 14  1  0
 12 15  1  0
 15 16  2  0
 16 17  1  0
 16 18  1  0
 18 19  1  0
 18 20  2  0
 20 21  1  0
 21 22  1  0
 22 23  2  0
 23 24  1  0
 24 25  1  0
 24 26  1  0
 24 27  1  0
 27 28  1  0
 27 29  1  0
 27 30  1  0
 22 31  1  0
 31 32  2  0
 32 33  1  0
 33 34  2  0
 34 35  1  0
 34 36  1  0
 36 37  1  0
 36 38  2  0
 38 39  1  0
 38 40  1  0
 40 41  1  0
 40 42  2  0
 42 43  1  0
 32 44  1  0
 44 45  2  0
 45 46  1  0
 45 15  1  0
 44 20  1  0
 42 33  1  0
M  CHG  1  21  -1
M  END
>  <UniqueID>  (21) 
21

>  <SMILES>  (21) 
C#CCN(C)Cc1ccc2[n-]/c(=N/CC)nc(-c3ccccc3)c2c1

>  <Energy>  (21) 
54.4867506731626

>  <Genealogy>  (21) 
C#CCN(C)Cc1ccc2[n-]c(=NCC)nc(-c3ccccc3)c2c1 (protonated)
C#CCN(C)Cc1ccc2[n-]/c(=N/CC)nc(-c3ccccc3)c2c1 (cis-trans isomerization)
C#CCN(C)Cc1ccc2[n-]/c(=N/CC)nc(-c3ccccc3)c2c1 (3D coordinates assigned)
C#CCN(C)Cc1ccc2[n-]/c(=N/CC)nc(-c3ccccc3)c2c1 (optimized conformer: 54.4867506731626 kcal/mol)

>  <smiles>  (21) 
C#CCN(C)Cc1ccc2[nH]c(=NCC)nc(-c3ccccc3)c2c1

>  <score_type>  (21) 
oracle

>  <origin>  (21) 
adg

>  <m_score__min__energy>  (21) 
-9.1099999999999994

>  <m_primary>  (21) 
energy

$$$$
21:0
     RDKit          3D

 64 66  0  0  0  0  0  0  0  0999 V2000
   57.8320   32.4180   51.6180 C   0  0  0  0  0  0  0  0  0  0  0  0
   58.1810   32.0880   50.1650 C   0  0  0  0  0  0  0  0  0  0  0  0
   59.3340   32.8510   49.6420 N   0  0  0  0  0  0  0  0  0  0  0  0
   59.9690   33.8090   50.5680 C   0  0  0  0  0  0  0  0  0  0  0  0
   61.4900   33.8400   50.4200 C   0  0  0  0  0  0  0  0  0  0  0  0
   59.3350   33.2030   48.2390 C   0  0  0  0  0  0  0  0  0  0  0  0
   59.2940   34.5640   47.9080 C   0  0  0  0  0  0  0  0  0  0  0  0
   59.1020   34.9690   46.5960 C   0  0  0  0  0  0  0  0  0  0  0  0
   58.8560   34.0280   45.6040 C   0  0  0  0  0  0  0  0  0  0  0  0
   58.8280   32.6420   45.8990 C   0  0  0  0  0  0  0  0  0  0  0  0
   59.2030   32.2240   47.2070 C   0  0  0  0  0  0  0  0  0  0  0  0
   59.4470   30.8520   47.4300 C   0  0  0  0  0  0  0  0  0  0  0  0
   60.2090   30.4300   48.5740 N   0  0  0  0  0  0  0  0  0  0  0  0
   61.6090   30.8330   48.7510 C   0  0  0  0  0  0  0  0  0  0  0  0
   62.1990   31.3920   47.4430 C   0  0  0  0  0  0  0  0  0  0  0  0
   63.5380   32.0220   47.6520 N   0  0  0  0  0  0  0  0  0  0  0  0
   63.5760   33.4140   47.1320 C   0  0  0  0  0  0  0  0  0  0  0  0
   62.3010   33.8430   46.3870 C   0  0  0  0  0  0  0  0  0  0  0  0
   63.9830   31.9710   49.0690 C   0  0  0  0  0  0  0  0  0  0  0  0
   64.9020   33.1380   49.4410 C   0  0  0  0  0  0  0  0  0  0  0  0
   59.1350   29.9180   46.4280 C   0  0  0  0  0  0  0  0  0  0  0  0
   59.2620   28.5330   46.6710 C   0  0  0  0  0  0  0  0  0  0  0  0
   59.0280   27.6070   45.6590 C   0  0  0  0  0  0  0  0  0  0  0  0
   58.6690   28.0410   44.3890 C   0  0  0  0  0  0  0  0  0  0  0  0
   58.5000   29.4020   44.1360 C   0  0  0  0  0  0  0  0  0  0  0  0
   58.6830   30.3670   45.1610 C   0  0  0  0  0  0  0  0  0  0  0  0
   58.4630   31.7130   44.9420 N   0  0  0  0  0  0  0  0  0  0  0  0
   57.7730   32.1550   43.7080 C   0  0  0  0  0  0  0  0  0  0  0  0
   58.4639   31.8205   52.2916 H   0  0  0  0  0  0  0  0  0  0  0  0
   58.0077   33.4879   51.8034 H   0  0  0  0  0  0  0  0  0  0  0  0
   56.7736   32.1827   51.8034 H   0  0  0  0  0  0  0  0  0  0  0  0
   58.4160   31.0154   50.0995 H   0  0  0  0  0  0  0  0  0  0  0  0
   57.3090   32.3651   49.5544 H   0  0  0  0  0  0  0  0  0  0  0  0
   59.5733   34.8146   50.3624 H   0  0  0  0  0  0  0  0  0  0  0  0
   59.7379   33.4876   51.5943 H   0  0  0  0  0  0  0  0  0  0  0  0
   61.9553   33.8495   51.4167 H   0  0  0  0  0  0  0  0  0  0  0  0
   61.8230   32.9485   49.8684 H   0  0  0  0  0  0  0  0  0  0  0  0
   61.7864   34.7444   49.8684 H   0  0  0  0  0  0  0  0  0  0  0  0
   59.4155   35.3196   48.6981 H   0  0  0  0  0  0  0  0  0  0  0  0
   59.1446   36.0379   46.3399 H   0  0  0  0  0  0  0  0  0  0  0  0
   58.6799   34.3645   44.5716 H   0  0  0  0  0  0  0  0  0  0  0  0
   59.8070   29.7090   49.2140 H   0  0  0  0  0  0  0  0  0  0  0  0
   61.6631   31.6087   49.5290 H   0  0  0  0  0  0  0  0  0  0  0  0
   62.1913   29.9471   49.0443 H   0  0  0  0  0  0  0  0  0  0  0  0
   62.3036   30.5686   46.7212 H   0  0  0  0  0  0  0  0  0  0  0  0
   61.5153   32.1680   47.0685 H   0  0  0  0  0  0  0  0  0  0  0  0
   64.2560   31.5080   47.0870 H   0  0  0  0  0  0  0  0  0  0  0  0
   63.7249   34.0960   47.9821 H   0  0  0  0  0  0  0  0  0  0  0  0
   64.3982   33.4569   46.4025 H   0  0  0  0  0  0  0  0  0  0  0  0
   61.5208   34.1055   47.1166 H   0  0  0  0  0  0  0  0  0  0  0  0
   62.5215   34.7164   45.7557 H   0  0  0  0  0  0  0  0  0  0  0  0
   61.9487   33.0139   45.7557 H   0  0  0  0  0  0  0  0  0  0  0  0
   63.0954   32.0010   49.7181 H   0  0  0  0  0  0  0  0  0  0  0  0
   64.5545   31.0410   49.2050 H   0  0  0  0  0  0  0  0  0  0  0  0
   64.9662   33.2195   50.5361 H   0  0  0  0  0  0  0  0  0  0  0  0
   65.9056   32.9607   49.0271 H   0  0  0  0  0  0  0  0  0  0  0  0
   64.4944   34.0721   49.0271 H   0  0  0  0  0  0  0  0  0  0  0  0
   59.5495   28.1815   47.6729 H   0  0  0  0  0  0  0  0  0  0  0  0
   59.1273   26.5310   45.8646 H   0  0  0  0  0  0  0  0  0  0  0  0
   58.5177   27.3097   43.5814 H   0  0  0  0  0  0  0  0  0  0  0  0
   58.2202   29.7334   43.1251 H   0  0  0  0  0  0  0  0  0  0  0  0
   56.8747   32.7304   43.9763 H   0  0  0  0  0  0  0  0  0  0  0  0
   58.4504   32.7877   43.1157 H   0  0  0  0  0  0  0  0  0  0  0  0
   57.4815   31.2751   43.1157 H   0  0  0  0  0  0  0  0  0  0  0  0
  1  2  1  0
  2  3  1  0
  3  4  1  0
  4  5  1  0
  3  6  1  0
  6  7  2  0
  7  8  1  0
  8  9  2  0
  9 10  1  0
 10 11  2  0
 11 12  1  0
 12 13  1  0
 13 14  1  0
 14 15  1  0
 15 16  1  0
 16 17  1  0
 17 18  1  0
 16 19  1  0
 19 20  1  0
 12 21  2  0
 21 22  1  0
 22 23  2  0
 23 24  1  0
 24 25  2  0
 25 26  1  0
 26 27  2  0
 27 28  1  0
 11  6  1  0
 26 21  1  0
 27 10  1  0
  1 29  1  0
  1 30  1  0
  1 31  1  0
  2 32  1  0
  2 33  1  0
  4 34  1  0
  4 35  1  0
  5 36  1  0
  5 37  1  0
  5 38  1  0
  7 39  1  0
  8 40  1  0
  9 41  1  0
 13 42  1  0
 14 43  1  0
 14 44  1  0
 15 45  1  0
 15 46  1  0
 16 47  1  0
 17 48  1  0
 17 49  1  0
 18 50  1  0
 18 51  1  0
 18 52  1  0
 19 53  1  0
 19 54  1  0
 20 55  1  0
 20 56  1  0
 20 57  1  0
 22 58  1  0
 23 59  1  0
 24 60  1  0
 25 61  1  0
 28 62  1  0
 28 63  1  0
 28 64  1  0
M  CHG  2  16   1  27   1
M  END
>  <UniqueID>  (22) 
22

>  <SMILES>  (22) 
CCN(CC)c1cccc2c1c(NCC[NH+](CC)CC)c1ccccc1[n+]2C

>  <Energy>  (22) 
102.05482984211676

>  <Genealogy>  (22) 
CCN(CC)c1cccc2c1c(NCC[NH+](CC)CC)c1ccccc1[n+]2C (protonated)
CCN(CC)c1cccc2c1c(NCC[NH+](CC)CC)c1ccccc1[n+]2C (3D coordinates assigned)
CCN(CC)c1cccc2c1c(NCC[NH+](CC)CC)c1ccccc1[n+]2C (optimized conformer: 102.05482984211676 kcal/mol)

>  <smiles>  (22) 
CCN(CC)CCNc1c2ccccc2[n+](C)c2cccc(N(CC)CC)c12

>  <score_type>  (22) 
oracle

>  <origin>  (22) 
adg

>  <m_score__min__energy>  (22) 
-4.96

>  <m_primary>  (22) 
energy

$$$$
22:0
     RDKit          3D

 38 39  0  0  0  0  0  0  0  0999 V2000
   56.6900   30.5110   43.1070 C   0  0  0  0  0  0  0  0  0  0  0  0
   56.0570   30.3890   44.4890 C   0  0  0  0  0  0  0  0  0  0  0  0
   55.6000   29.0240   44.7270 N   0  0  0  0  0  0  0  0  0  0  0  0
   56.2840   28.0130   45.4780 C   0  0  0  0  0  0  0  0  0  0  0  0
   55.6000   27.0810   45.9790 O   0  0  0  0  0  0  0  0  0  0  0  0
   57.7900   27.9920   45.6490 C   0  0  0  0  0  0  0  0  0  0  0  0
   58.3170   29.3930   46.0600 C   0  0  0  0  0  0  0  0  0  0  0  0
   58.6190   29.4870   47.5570 C   0  0  0  0  0  0  0  0  0  0  0  0
   59.5830   28.4490   47.9430 N   0  0  0  0  0  0  0  0  0  0  0  0
   60.4630   28.6670   49.0600 C   0  0  0  0  0  0  0  0  0  0  0  0
   60.4880   27.8270   50.0000 O   0  0  0  0  0  0  0  0  0  0  0  0
   61.3430   29.8590   49.1230 C   0  0  0  0  0  0  0  0  0  0  0  0
   61.5360   30.6620   47.9830 C   0  0  0  0  0  0  0  0  0  0  0  0
   62.3560   31.7940   48.0460 C   0  0  0  0  0  0  0  0  0  0  0  0
   62.9890   32.1370   49.2460 C   0  0  0  0  0  0  0  0  0  0  0  0
   64.0070   33.5640   49.3290 Cl  0  0  0  0  0  0  0  0  0  0  0  0
   62.7950   31.3500   50.3870 C   0  0  0  0  0  0  0  0  0  0  0  0
   61.9720   30.2200   50.3290 C   0  0  0  0  0  0  0  0  0  0  0  0
   59.5470   27.1280   47.2980 C   0  0  0  0  0  0  0  0  0  0  0  0
   58.1840   26.8730   46.6440 C   0  0  0  0  0  0  0  0  0  0  0  0
   57.7651   30.7182   43.2131 H   0  0  0  0  0  0  0  0  0  0  0  0
   56.5507   29.5695   42.5555 H   0  0  0  0  0  0  0  0  0  0  0  0
   56.2108   31.3333   42.5555 H   0  0  0  0  0  0  0  0  0  0  0  0
   56.8014   30.6591   45.2525 H   0  0  0  0  0  0  0  0  0  0  0  0
   55.1922   31.0666   44.5435 H   0  0  0  0  0  0  0  0  0  0  0  0
   58.2728   27.7579   44.6888 H   0  0  0  0  0  0  0  0  0  0  0  0
   59.2404   29.6013   45.4997 H   0  0  0  0  0  0  0  0  0  0  0  0
   57.5312   30.1275   45.8298 H   0  0  0  0  0  0  0  0  0  0  0  0
   59.0414   30.4775   47.7815 H   0  0  0  0  0  0  0  0  0  0  0  0
   57.6868   29.3410   48.1224 H   0  0  0  0  0  0  0  0  0  0  0  0
   61.0395   30.3981   47.0376 H   0  0  0  0  0  0  0  0  0  0  0  0
   62.5034   32.4156   47.1505 H   0  0  0  0  0  0  0  0  0  0  0  0
   63.2905   31.6204   51.3311 H   0  0  0  0  0  0  0  0  0  0  0  0
   61.8157   29.6103   51.2312 H   0  0  0  0  0  0  0  0  0  0  0  0
   60.3301   27.0827   46.5269 H   0  0  0  0  0  0  0  0  0  0  0  0
   59.7170   26.3585   48.0654 H   0  0  0  0  0  0  0  0  0  0  0  0
   58.2252   25.9166   46.1022 H   0  0  0  0  0  0  0  0  0  0  0  0
   57.4272   26.8510   47.4420 H   0  0  0  0  0  0  0  0  0  0  0  0
  1  2  1  0
  2  3  1  0
  3  4  1  0
  4  5  2  0
  4  6  1  0
  6  7  1  0
  7  8  1  0
  8  9  1  0
  9 10  1  0
 10 11  2  0
 10 12  1  0
 12 13  2  0
 13 14  1  0
 14 15  2  0
 15 16  1  0
 15 17  1  0
 17 18  2  0
  9 19  1  0
 19 20  1  0
 20  6  1  0
 18 12  1  0
  1 21  1  0
  1 22  1  0
  1 23  1  0
  2 24  1  0
  2 25  1  0
  6 26  1  0
  7 27  1  0
  7 28  1  0
  8 29  1  0
  8 30  1  0
 13 31  1  0
 14 32  1  0
 17 33  1  0
 18 34  1  0
 19 35  1  0
 19 36  1  0
 20 37  1  0
 20 38  1  0
M  CHG  1   3  -1
M  END
>  <UniqueID>  (23) 
23

>  <SMILES>  (23) 
CC[N-]C(=O)C1CCN(C(=O)c2ccc(Cl)cc2)CC1

>  <Energy>  (23) 
41.69488517996064

>  <Genealogy>  (23) 
CC[N-]C(=O)C1CCN(C(=O)c2ccc(Cl)cc2)CC1 (protonated)
CC[N-]C(=O)C1CCN(C(=O)c2ccc(Cl)cc2)CC1 (3D coordinates assigned)
CC[N-]C(=O)C1CCN(C(=O)c2ccc(Cl)cc2)CC1 (nonaromatic ring conformer: 41.69488517996064 kcal/mol)

>  <smiles>  (23) 
CCNC(=O)C1CCN(C(=O)c2ccc(Cl)cc2)CC1

>  <score_type>  (23) 
oracle

>  <origin>  (23) 
adg

>  <m_score__min__energy>  (23) 
-8.3000000000000007

>  <m_primary>  (23) 
energy

$$$$
