0:0
     RDKit          3D

 35 36  0  0  0  0  0  0  0  0999 V2000
   58.0240   33.4480   46.4280 C   0  0  0  0  0  0  0  0  0  0  0  0
   57.7570   32.8360   45.0940 C   0  0  0  0  0  0  0  0  0  0  0  0
   58.2960   33.2540   43.8920 C   0  0  0  0  0  0  0  0  0  0  0  0
   57.8020   32.3540   42.9710 C   0  0  0  0  0  0  0  0  0  0  0  0
   58.1360   32.3330   41.5120 C   0  0  0  0  0  0  0  0  0  0  0  0
   57.0340   31.4470   43.6170 N   0  0  0  0  0  0  0  0  0  0  0  0
   56.3120   30.3150   43.0350 C   0  0  0  0  0  0  0  0  0  0  0  0
   55.3500   29.6840   44.0470 C   0  0  0  0  0  0  0  0  0  0  0  0
   56.0110   28.7150   44.8620 O   0  0  0  0  0  0  0  0  0  0  0  0
   57.3760   28.7010   45.2060 C   0  0  0  0  0  0  0  0  0  0  0  0
   57.8660   29.3060   46.3820 C   0  0  0  0  0  0  0  0  0  0  0  0
   59.2220   29.2310   46.7040 C   0  0  0  0  0  0  0  0  0  0  0  0
   60.1090   28.5660   45.8580 C   0  0  0  0  0  0  0  0  0  0  0  0
   59.6440   27.9850   44.6780 C   0  0  0  0  0  0  0  0  0  0  0  0
   58.2840   28.0610   44.3350 C   0  0  0  0  0  0  0  0  0  0  0  0
   57.7960   27.4150   43.0680 C   0  0  0  0  0  0  0  0  0  0  0  0
   57.0080   31.7320   44.9090 N   0  0  0  0  0  0  0  0  0  0  0  0
   57.7188   32.7484   47.2201 H   0  0  0  0  0  0  0  0  0  0  0  0
   59.0983   33.6643   46.5238 H   0  0  0  0  0  0  0  0  0  0  0  0
   57.4518   34.3826   46.5238 H   0  0  0  0  0  0  0  0  0  0  0  0
   58.9652   34.1082   43.7114 H   0  0  0  0  0  0  0  0  0  0  0  0
   59.2267   32.2644   41.3865 H   0  0  0  0  0  0  0  0  0  0  0  0
   57.6570   31.4632   41.0387 H   0  0  0  0  0  0  0  0  0  0  0  0
   57.7698   33.2559   41.0387 H   0  0  0  0  0  0  0  0  0  0  0  0
   55.7367   30.6664   42.1658 H   0  0  0  0  0  0  0  0  0  0  0  0
   57.0470   29.5534   42.7354 H   0  0  0  0  0  0  0  0  0  0  0  0
   54.9407   30.4750   44.6926 H   0  0  0  0  0  0  0  0  0  0  0  0
   54.5467   29.1781   43.4913 H   0  0  0  0  0  0  0  0  0  0  0  0
   57.1747   29.8407   47.0500 H   0  0  0  0  0  0  0  0  0  0  0  0
   59.5924   29.6981   47.6284 H   0  0  0  0  0  0  0  0  0  0  0  0
   61.1750   28.4996   46.1210 H   0  0  0  0  0  0  0  0  0  0  0  0
   60.3471   27.4638   44.0117 H   0  0  0  0  0  0  0  0  0  0  0  0
   57.1502   26.5602   43.3175 H   0  0  0  0  0  0  0  0  0  0  0  0
   57.2237   28.1475   42.4798 H   0  0  0  0  0  0  0  0  0  0  0  0
   58.6570   27.0648   42.4798 H   0  0  0  0  0  0  0  0  0  0  0  0
  1  2  1  0
  2  3  1  0
  3  4  2  0
  4  5  1  0
  4  6  1  0
  6  7  1  0
  7  8  1  0
  8  9  1  0
  9 10  1  0
 10 11  2  0
 11 12  1  0
 12 13  2  0
 13 14  1  0
 14 15  2  0
 15 16  1  0
  6 17  1  0
 17  2  2  0
 15 10  1  0
  1 18  1  0
  1 19  1  0
  1 20  1  0
  3 21  1  0
  5 22  1  0
  5 23  1  0
  5 24  1  0
  7 25  1  0
  7 26  1  0
  8 27  1  0
  8 28  1  0
 11 29  1  0
 12 30  1  0
 13 31  1  0
 14 32  1  0
 16 33  1  0
 16 34  1  0
 16 35  1  0
M  END
>  <UniqueID>  (1) 
1

>  <SMILES>  (1) 
Cc1cc(C)n(CCOc2ccccc2C)n1

>  <Energy>  (1) 
58.73367372671614

>  <Genealogy>  (1) 
Cc1cc(C)n(CCOc2ccccc2C)n1 (3D coordinates assigned)
Cc1cc(C)n(CCOc2ccccc2C)n1 (optimized conformer: 58.73367372671614 kcal/mol)

>  <smiles>  (1) 
Cc1cc(C)n(CCOc2ccccc2C)n1

>  <score_type>  (1) 
oracle

>  <origin>  (1) 
adg

>  <m_score__min__energy>  (1) 
-6.5800000000000001

>  <m_primary>  (1) 
energy

$$$$
1:0
     RDKit          3D

 78 82  0  0  0  0  0  0  0  0999 V2000
   57.3760   30.0300   51.6170 O   0  0  0  0  0  0  0  0  0  0  0  0
   57.9940   31.0990   51.8740 C   0  0  0  0  0  0  0  0  0  0  0  0
   58.1650   31.4930   53.2020 C   0  0  0  0  0  0  0  0  0  0  0  0
   58.8510   32.6790   53.4740 C   0  0  0  0  0  0  0  0  0  0  0  0
   59.3340   33.4240   52.4850 O   0  0  0  0  0  0  0  0  0  0  0  0
   59.1940   33.0910   51.2030 C   0  0  0  0  0  0  0  0  0  0  0  0
   59.7190   33.9220   50.2080 C   0  0  0  0  0  0  0  0  0  0  0  0
   59.5700   33.5970   48.8560 C   0  0  0  0  0  0  0  0  0  0  0  0
   60.0960   34.4780   47.8990 O   0  0  0  0  0  0  0  0  0  0  0  0
   59.3150   35.3590   47.0950 C   0  0  0  0  0  0  0  0  0  0  0  0
   59.5880   35.0940   45.6130 C   0  0  0  0  0  0  0  0  0  0  0  0
   59.1820   33.6800   45.1560 C   0  0  0  0  0  0  0  0  0  0  0  0
   57.7070   33.3210   45.4040 C   0  0  0  0  0  0  0  0  0  0  0  0
   57.2110   32.1780   44.5030 C   0  0  0  0  0  0  0  0  0  0  0  0
   57.2220   30.8950   45.2370 N   0  0  0  0  0  0  0  0  0  0  0  0
   56.6150   29.8140   44.4250 C   0  0  0  0  0  0  0  0  0  0  0  0
   57.1030   28.4340   44.8780 C   0  0  0  0  0  0  0  0  0  0  0  0
   58.5580   28.2890   44.6470 N   0  0  0  0  0  0  0  0  0  0  0  0
   59.1080   27.1670   45.4380 C   0  0  0  0  0  0  0  0  0  0  0  0
   58.4720   27.1420   46.8340 C   0  0  0  0  0  0  0  0  0  0  0  0
   59.5110   27.1950   47.9650 C   0  0  0  0  0  0  0  0  0  0  0  0
   59.6600   28.5890   48.6150 C   0  0  0  0  0  0  0  0  0  0  0  0
   60.7290   29.4510   47.9240 C   0  0  0  0  0  0  0  0  0  0  0  0
   61.4160   30.3140   48.9090 N   0  0  0  0  0  0  0  0  0  0  0  0
   61.3340   29.9380   50.2220 C   0  0  0  0  0  0  0  0  0  0  0  0
   61.9530   30.6710   51.2260 C   0  0  0  0  0  0  0  0  0  0  0  0
   62.6650   31.8240   50.9120 C   0  0  0  0  0  0  0  0  0  0  0  0
   63.3850   32.6430   52.1440 S   0  0  0  0  0  0  0  0  0  0  0  0
   62.7400   32.2470   49.5650 C   0  0  0  0  0  0  0  0  0  0  0  0
   63.4370   33.4200   49.1950 C   0  0  0  0  0  0  0  0  0  0  0  0
   63.4870   33.8280   47.8650 C   0  0  0  0  0  0  0  0  0  0  0  0
   62.8450   33.0840   46.8830 C   0  0  0  0  0  0  0  0  0  0  0  0
   62.1530   31.9230   47.2180 C   0  0  0  0  0  0  0  0  0  0  0  0
   62.0900   31.4710   48.5590 C   0  0  0  0  0  0  0  0  0  0  0  0
   59.3150   29.5520   44.8470 C   0  0  0  0  0  0  0  0  0  0  0  0
   58.5750   30.5530   45.7510 C   0  0  0  0  0  0  0  0  0  0  0  0
   58.8990   32.4110   48.5000 C   0  0  0  0  0  0  0  0  0  0  0  0
   58.3750   31.5700   49.4880 C   0  0  0  0  0  0  0  0  0  0  0  0
   58.5130   31.9040   50.8450 C   0  0  0  0  0  0  0  0  0  0  0  0
   57.7655   30.8786   54.0223 H   0  0  0  0  0  0  0  0  0  0  0  0
   58.9928   32.9994   54.5167 H   0  0  0  0  0  0  0  0  0  0  0  0
   60.2543   34.8401   50.4917 H   0  0  0  0  0  0  0  0  0  0  0  0
   58.2478   35.1936   47.3042 H   0  0  0  0  0  0  0  0  0  0  0  0
   59.5844   36.3989   47.3318 H   0  0  0  0  0  0  0  0  0  0  0  0
   59.0235   35.8274   45.0185 H   0  0  0  0  0  0  0  0  0  0  0  0
   60.6742   35.1826   45.4635 H   0  0  0  0  0  0  0  0  0  0  0  0
   59.3768   33.6001   44.0763 H   0  0  0  0  0  0  0  0  0  0  0  0
   59.7773   32.9772   45.7574 H   0  0  0  0  0  0  0  0  0  0  0  0
   57.5917   33.0155   46.4544 H   0  0  0  0  0  0  0  0  0  0  0  0
   57.1059   34.2118   45.1691 H   0  0  0  0  0  0  0  0  0  0  0  0
   56.1847   32.3970   44.1731 H   0  0  0  0  0  0  0  0  0  0  0  0
   57.8804   32.0953   43.6341 H   0  0  0  0  0  0  0  0  0  0  0  0
   55.5209   29.8589   44.5297 H   0  0  0  0  0  0  0  0  0  0  0  0
   56.9128   29.9597   43.3762 H   0  0  0  0  0  0  0  0  0  0  0  0
   56.8943   28.3121   45.9511 H   0  0  0  0  0  0  0  0  0  0  0  0
   56.5751   27.6646   44.2954 H   0  0  0  0  0  0  0  0  0  0  0  0
   58.8921   26.2192   44.9232 H   0  0  0  0  0  0  0  0  0  0  0  0
   60.1952   27.2990   45.5409 H   0  0  0  0  0  0  0  0  0  0  0  0
   57.8032   28.0100   46.9307 H   0  0  0  0  0  0  0  0  0  0  0  0
   57.9260   26.1920   46.9313 H   0  0  0  0  0  0  0  0  0  0  0  0
   59.2105   26.4798   48.7449 H   0  0  0  0  0  0  0  0  0  0  0  0
   60.4840   26.9470   47.5159 H   0  0  0  0  0  0  0  0  0  0  0  0
   58.6936   29.1109   48.5552 H   0  0  0  0  0  0  0  0  0  0  0  0
   59.9755   28.4388   49.6580 H   0  0  0  0  0  0  0  0  0  0  0  0
   61.4675   28.7938   47.4416 H   0  0  0  0  0  0  0  0  0  0  0  0
   60.2402   30.0887   47.1727 H   0  0  0  0  0  0  0  0  0  0  0  0
   60.7651   29.0350   50.4882 H   0  0  0  0  0  0  0  0  0  0  0  0
   61.8801   30.3390   52.2722 H   0  0  0  0  0  0  0  0  0  0  0  0
   63.9454   34.0169   49.9665 H   0  0  0  0  0  0  0  0  0  0  0  0
   64.0358   34.7411   47.5911 H   0  0  0  0  0  0  0  0  0  0  0  0
   62.8836   33.4141   45.8344 H   0  0  0  0  0  0  0  0  0  0  0  0
   61.6472   31.3476   46.4286 H   0  0  0  0  0  0  0  0  0  0  0  0
   60.2843   29.3117   45.3082 H   0  0  0  0  0  0  0  0  0  0  0  0
   59.4385   30.0241   43.8612 H   0  0  0  0  0  0  0  0  0  0  0  0
   58.4701   30.1120   46.7533 H   0  0  0  0  0  0  0  0  0  0  0  0
   59.1664   31.4802   45.7759 H   0  0  0  0  0  0  0  0  0  0  0  0
   58.7862   32.1442   47.4388 H   0  0  0  0  0  0  0  0  0  0  0  0
   57.8536   30.6449   49.2010 H   0  0  0  0  0  0  0  0  0  0  0  0
  1  2  2  0
  2  3  1  0
  3  4  2  0
  4  5  1  0
  5  6  1  0
  6  7  2  0
  7  8  1  0
  8  9  1  0
  9 10  1  0
 10 11  1  0
 11 12  1  0
 12 13  1  0
 13 14  1  0
 14 15  1  0
 15 16  1  0
 16 17  1  0
 17 18  1  0
 18 19  1  0
 19 20  1  0
 20 21  1  0
 21 22  1  0
 22 23  1  0
 23 24  1  0
 24 25  1  0
 25 26  2  0
 26 27  1  0
 27 28  2  0
 27 29  1  0
 29 30  2  0
 30 31  1  0
 31 32  2  0
 32 33  1  0
 33 34  2  0
 18 35  1  0
 35 36  1  0
  8 37  2  0
 37 38  1  0
 38 39  2  0
 39  2  1  0
 39  6  1  0
 36 15  1  0
 34 24  1  0
 34 29  1  0
  3 40  1  0
  4 41  1  0
  7 42  1  0
 10 43  1  0
 10 44  1  0
 11 45  1  0
 11 46  1  0
 12 47  1  0
 12 48  1  0
 13 49  1  0
 13 50  1  0
 14 51  1  0
 14 52  1  0
 16 53  1  0
 16 54  1  0
 17 55  1  0
 17 56  1  0
 19 57  1  0
 19 58  1  0
 20 59  1  0
 20 60  1  0
 21 61  1  0
 21 62  1  0
 22 63  1  0
 22 64  1  0
 23 65  1  0
 23 66  1  0
 25 67  1  0
 26 68  1  0
 30 69  1  0
 31 70  1  0
 32 71  1  0
 33 72  1  0
 35 73  1  0
 35 74  1  0
 36 75  1  0
 36 76  1  0
 37 77  1  0
 38 78  1  0
M  END
>  <UniqueID>  (2) 
2

>  <SMILES>  (2) 
O=c1ccoc2cc(OCCCCCN3CCN(CCCCCn4ccc(=S)c5ccccc54)CC3)ccc12

>  <Energy>  (2) 
103.86755868973626

>  <Genealogy>  (2) 
O=c1ccoc2cc(OCCCCCN3CCN(CCCCCn4ccc(=S)c5ccccc54)CC3)ccc12 (3D coordinates assigned)
O=c1ccoc2cc(OCCCCCN3CCN(CCCCCn4ccc(=S)c5ccccc54)CC3)ccc12 (nonaromatic ring conformer: 103.86755868973626 kcal/mol)

>  <smiles>  (2) 
O=c1ccoc2cc(OCCCCCN3CCN(CCCCCn4ccc(=S)c5ccccc54)CC3)ccc12

>  <score_type>  (2) 
oracle

>  <origin>  (2) 
adg

>  <m_score__min__energy>  (2) 
-9.4600000000000009

>  <m_primary>  (2) 
energy

$$$$
2:0
     RDKit          3D

 46 49  0  0  1  0  0  0  0  0999 V2000
   62.9730   30.0140   51.3000 C   0  0  0  0  0  0  0  0  0  0  0  0
   61.8940   29.8210   50.2910 C   0  0  0  0  0  0  0  0  0  0  0  0
   61.0390   28.7290   50.3220 C   0  0  0  0  0  0  0  0  0  0  0  0
   60.0620   28.6270   49.3450 C   0  0  0  0  0  0  0  0  0  0  0  0
   59.9160   29.5780   48.3430 C   0  0  0  0  0  0  0  0  0  0  0  0
   58.9050   29.4730   47.3370 N   0  0  0  0  0  0  0  0  0  0  0  0
   58.3370   28.1870   47.0650 C   0  0  0  0  0  0  0  0  0  0  0  0
   58.7860   27.8950   45.6240 C   0  0  0  0  0  0  0  0  0  0  0  0
   57.9570   28.9180   44.8870 C   0  0  0  0  0  0  0  0  0  0  0  0
   57.3770   28.4920   43.7600 N   0  0  0  0  0  0  0  0  0  0  0  0
   56.6270   29.3400   43.0720 C   0  0  0  0  0  0  0  0  0  0  0  0
   56.4320   30.5820   43.4580 N   0  0  0  0  0  0  0  0  0  0  0  0
   57.0120   31.0390   44.6030 C   0  0  0  0  0  0  0  0  0  0  0  0
   56.7680   32.2510   44.8960 N   0  0  0  0  0  0  0  0  0  0  0  0
   57.7440   33.2740   44.7230 C   0  0  0  0  0  0  0  0  0  0  0  0
   57.6500   33.9470   46.1390 C   0  0  0  0  0  0  0  0  0  0  0  0
   58.9550   33.9100   46.7880 C   0  0  0  0  0  0  0  0  0  0  0  0
   59.2540   33.9290   48.0830 C   0  0  0  0  0  0  0  0  0  0  0  0
   60.5440   33.8860   48.4700 C   0  0  0  0  0  0  0  0  0  0  0  0
   61.4880   33.8240   47.4740 C   0  0  0  0  0  0  0  0  0  0  0  0
   63.2470   33.7560   47.5880 Cl  0  0  0  0  0  0  0  0  0  0  0  0
   60.5370   33.8260   45.9500 S   0  0  0  0  0  0  0  0  0  0  0  0
   57.8160   30.2130   45.3840 C   0  0  0  0  0  0  0  0  0  0  0  0
   58.4570   30.6950   46.6010 C   0  0  0  0  0  0  0  0  0  0  0  0
   60.7440   30.6030   48.3400 N   0  0  0  0  0  0  0  0  0  0  0  0
   61.7000   30.7250   49.2780 C   0  0  0  0  0  0  0  0  0  0  0  0
   62.5471   29.9378   52.3114 H   0  0  0  0  0  0  0  0  0  0  0  0
   63.7424   29.2392   51.1668 H   0  0  0  0  0  0  0  0  0  0  0  0
   63.4261   31.0074   51.1668 H   0  0  0  0  0  0  0  0  0  0  0  0
   61.1346   27.9617   51.1044 H   0  0  0  0  0  0  0  0  0  0  0  0
   59.3794   27.7646   49.3633 H   0  0  0  0  0  0  0  0  0  0  0  0
   58.7280   27.4293   47.7600 H   0  0  0  0  0  0  0  0  0  0  0  0
   57.2439   28.1667   47.1860 H   0  0  0  0  0  0  0  0  0  0  0  0
   59.8640   28.0668   45.4882 H   0  0  0  0  0  0  0  0  0  0  0  0
   58.6453   26.8553   45.2935 H   0  0  0  0  0  0  0  0  0  0  0  0
   57.5050   27.5140   43.4170 H   0  0  0  0  0  0  0  0  0  0  0  0
   56.1498   28.9926   42.1438 H   0  0  0  0  0  0  0  0  0  0  0  0
   58.7446   32.8605   44.5287 H   0  0  0  0  0  0  0  0  0  0  0  0
   57.5777   33.9462   43.8683 H   0  0  0  0  0  0  0  0  0  0  0  0
   57.3272   34.9925   46.0263 H   0  0  0  0  0  0  0  0  0  0  0  0
   56.9211   33.3998   46.7549 H   0  0  0  0  0  0  0  0  0  0  0  0
   58.4526   33.9796   48.8348 H   0  0  0  0  0  0  0  0  0  0  0  0
   60.8276   33.8999   49.5327 H   0  0  0  0  0  0  0  0  0  0  0  0
   59.3198   31.3309   46.3535 H   0  0  0  0  0  0  0  0  0  0  0  0
   57.7695   31.3033   47.2070 H   0  0  0  0  0  0  0  0  0  0  0  0
   62.3646   31.6002   49.2300 H   0  0  0  0  0  0  0  0  0  0  0  0
  1  2  1  0
  2  3  2  0
  3  4  1  0
  4  5  2  0
  5  6  1  0
  6  7  1  0
  7  8  1  0
  8  9  1  0
  9 10  1  0
 10 11  1  0
 11 12  2  0
 12 13  1  0
 13 14  2  0
 14 15  1  0
 15 16  1  0
 16 17  1  0
 17 18  2  0
 18 19  1  0
 19 20  2  0
 20 21  1  0
 20 22  1  0
 13 23  1  0
 23 24  1  0
  5 25  1  0
 25 26  2  0
 26  2  1  0
 24  6  1  0
 23  9  2  0
 22 17  1  0
  1 27  1  0
  1 28  1  0
  1 29  1  0
  3 30  1  0
  4 31  1  0
  7 32  1  0
  7 33  1  0
  8 34  1  0
  8 35  1  0
 10 36  1  0
 11 37  1  0
 15 38  1  0
 15 39  1  0
 16 40  1  0
 16 41  1  0
 18 42  1  0
 19 43  1  0
 24 44  1  0
 24 45  1  0
 26 46  1  0
M  END
>  <smiles>  (3) 
Cc1ccc(N2CCc3[nH]cnc(=NCCc4ccc(Cl)s4)c3C2)nc1

>  <score_type>  (3) 
oracle

>  <origin>  (3) 
adg

>  <m_score__min__energy>  (3) 
-8.1600000000000001

>  <m_primary>  (3) 
energy

$$$$
3:0
     RDKit          3D

 49 51  0  0  0  0  0  0  0  0999 V2000
   63.3400   33.8650   46.3440 C   0  0  0  0  0  0  0  0  0  0  0  0
   62.8360   33.8360   47.7860 C   0  0  0  0  0  0  0  0  0  0  0  0
   61.3660   33.7560   47.8280 N   0  0  0  0  0  0  0  0  0  0  0  0
   60.6260   34.1570   46.6180 C   0  0  0  0  0  0  0  0  0  0  0  0
   59.1210   34.2610   46.9070 C   0  0  0  0  0  0  0  0  0  0  0  0
   58.3930   33.0980   46.3580 N   0  0  0  0  0  0  0  0  0  0  0  0
   58.6440   31.8670   47.1540 C   0  0  0  0  0  0  0  0  0  0  0  0
   58.5170   30.5570   46.3470 C   0  0  0  0  0  0  0  0  0  0  0  0
   57.6120   30.7190   45.2020 N   0  0  0  0  0  0  0  0  0  0  0  0
   56.6120   29.7300   44.8930 C   0  0  0  0  0  0  0  0  0  0  0  0
   55.4770   30.1020   44.4920 O   0  0  0  0  0  0  0  0  0  0  0  0
   56.8730   28.2840   45.0180 C   0  0  0  0  0  0  0  0  0  0  0  0
   57.9470   27.5860   44.4970 C   0  0  0  0  0  0  0  0  0  0  0  0
   57.7420   26.2690   44.8500 C   0  0  0  0  0  0  0  0  0  0  0  0
   56.5580   26.2410   45.5560 C   0  0  0  0  0  0  0  0  0  0  0  0
   56.0620   27.4560   45.6360 O   0  0  0  0  0  0  0  0  0  0  0  0
   57.7420   31.8950   44.3340 C   0  0  0  0  0  0  0  0  0  0  0  0
   58.7170   32.9090   44.9330 C   0  0  0  0  0  0  0  0  0  0  0  0
   60.6680   33.3160   49.0270 C   0  0  0  0  0  0  0  0  0  0  0  0
   59.9400   34.2290   49.8220 C   0  0  0  0  0  0  0  0  0  0  0  0
   59.2720   33.8020   50.9730 C   0  0  0  0  0  0  0  0  0  0  0  0
   59.3150   32.4620   51.3550 C   0  0  0  0  0  0  0  0  0  0  0  0
   60.0270   31.5430   50.5850 C   0  0  0  0  0  0  0  0  0  0  0  0
   60.6980   31.9620   49.4330 C   0  0  0  0  0  0  0  0  0  0  0  0
   64.4382   33.9282   46.3406 H   0  0  0  0  0  0  0  0  0  0  0  0
   63.0239   32.9472   45.8266 H   0  0  0  0  0  0  0  0  0  0  0  0
   62.9207   34.7405   45.8266 H   0  0  0  0  0  0  0  0  0  0  0  0
   63.2591   32.9590   48.2977 H   0  0  0  0  0  0  0  0  0  0  0  0
   63.1517   34.7629   48.2871 H   0  0  0  0  0  0  0  0  0  0  0  0
   60.9959   35.1352   46.2769 H   0  0  0  0  0  0  0  0  0  0  0  0
   60.7834   33.3951   45.8404 H   0  0  0  0  0  0  0  0  0  0  0  0
   58.9659   34.3010   47.9953 H   0  0  0  0  0  0  0  0  0  0  0  0
   58.7351   35.1730   46.4281 H   0  0  0  0  0  0  0  0  0  0  0  0
   59.6633   31.9227   47.5639 H   0  0  0  0  0  0  0  0  0  0  0  0
   57.8721   31.8330   47.9370 H   0  0  0  0  0  0  0  0  0  0  0  0
   59.5117   30.2656   45.9786 H   0  0  0  0  0  0  0  0  0  0  0  0
   58.1033   29.7815   47.0084 H   0  0  0  0  0  0  0  0  0  0  0  0
   58.7895   27.9961   43.9208 H   0  0  0  0  0  0  0  0  0  0  0  0
   58.3920   25.4131   44.6156 H   0  0  0  0  0  0  0  0  0  0  0  0
   56.0983   25.3393   45.9868 H   0  0  0  0  0  0  0  0  0  0  0  0
   58.1135   31.5764   43.3489 H   0  0  0  0  0  0  0  0  0  0  0  0
   56.7552   32.3711   44.2364 H   0  0  0  0  0  0  0  0  0  0  0  0
   59.7464   32.5339   44.8349 H   0  0  0  0  0  0  0  0  0  0  0  0
   58.6313   33.8679   44.4008 H   0  0  0  0  0  0  0  0  0  0  0  0
   59.8984   35.2891   49.5316 H   0  0  0  0  0  0  0  0  0  0  0  0
   58.7097   34.5266   51.5803 H   0  0  0  0  0  0  0  0  0  0  0  0
   58.7883   32.1303   52.2620 H   0  0  0  0  0  0  0  0  0  0  0  0
   60.0606   30.4853   50.8852 H   0  0  0  0  0  0  0  0  0  0  0  0
   61.2572   31.2283   48.8338 H   0  0  0  0  0  0  0  0  0  0  0  0
  1  2  1  0
  2  3  1  0
  3  4  1  0
  4  5  1  0
  5  6  1  0
  6  7  1  0
  7  8  1  0
  8  9  1  0
  9 10  1  0
 10 11  2  0
 10 12  1  0
 12 13  2  0
 13 14  1  0
 14 15  2  0
 15 16  1  0
  9 17  1  0
 17 18  1  0
  3 19  1  0
 19 20  2  0
 20 21  1  0
 21 22  2  0
 22 23  1  0
 23 24  2  0
 18  6  1  0
 24 19  1  0
 16 12  1  0
  1 25  1  0
  1 26  1  0
  1 27  1  0
  2 28  1  0
  2 29  1  0
  4 30  1  0
  4 31  1  0
  5 32  1  0
  5 33  1  0
  7 34  1  0
  7 35  1  0
  8 36  1  0
  8 37  1  0
 13 38  1  0
 14 39  1  0
 15 40  1  0
 17 41  1  0
 17 42  1  0
 18 43  1  0
 18 44  1  0
 20 45  1  0
 21 46  1  0
 22 47  1  0
 23 48  1  0
 24 49  1  0
M  END
>  <UniqueID>  (4) 
3

>  <SMILES>  (4) 
CCN(CCN1CCN(C(=O)c2ccco2)CC1)c1ccccc1

>  <Energy>  (4) 
84.5989924487206

>  <Genealogy>  (4) 
CCN(CCN1CCN(C(=O)c2ccco2)CC1)c1ccccc1 (3D coordinates assigned)
CCN(CCN1CCN(C(=O)c2ccco2)CC1)c1ccccc1 (nonaromatic ring conformer: 84.5989924487206 kcal/mol)

>  <smiles>  (4) 
CCN(CCN1CCN(C(=O)c2ccco2)CC1)c1ccccc1

>  <score_type>  (4) 
oracle

>  <origin>  (4) 
adg

>  <m_score__min__energy>  (4) 
-7.7300000000000004

>  <m_primary>  (4) 
energy

$$$$
4:0
     RDKit          3D

 36 39  0  0  0  0  0  0  0  0999 V2000
   56.8006   34.1289   46.2576 H   0  0  0  0  0  0  0  0  0  0  0  0
   57.5970   33.4020   46.0400 C   0  0  0  0  0  0  0  0  0  0  0  0
   58.6760   33.4050   46.8460 C   0  0  0  0  0  0  0  0  0  0  0  0
   59.7680   34.3950   46.7030 C   0  0  0  0  0  0  0  0  0  0  0  0
   59.5390   35.4950   46.1300 O   0  0  0  0  0  0  0  0  0  0  0  0
   61.1350   34.0960   47.1660 C   0  0  0  0  0  0  0  0  0  0  0  0
   61.6360   34.1220   48.7720 S   0  0  0  0  0  0  0  0  0  0  0  0
   63.2290   33.6720   48.4800 C   0  0  0  0  0  0  0  0  0  0  0  0
   64.0124   33.5437   49.2414 H   0  0  0  0  0  0  0  0  0  0  0  0
   63.3860   33.4900   47.1120 C   0  0  0  0  0  0  0  0  0  0  0  0
   64.3387   33.1915   46.6501 H   0  0  0  0  0  0  0  0  0  0  0  0
   62.2190   33.7220   46.3770 C   0  0  0  0  0  0  0  0  0  0  0  0
   62.1633   33.6191   45.2832 H   0  0  0  0  0  0  0  0  0  0  0  0
   58.8390   32.3490   47.8100 N   0  0  0  0  0  0  0  0  0  0  0  0
   58.7930   32.4770   49.1610 C   0  0  0  0  0  0  0  0  0  0  0  0
   58.6438   33.4360   49.6787 H   0  0  0  0  0  0  0  0  0  0  0  0
   58.9510   31.2940   49.8010 N   0  0  0  0  0  0  0  0  0  0  0  0
   58.9450   31.1200   50.8300 H   0  0  0  0  0  0  0  0  0  0  0  0
   59.0890   30.3950   48.8110 C   0  0  0  0  0  0  0  0  0  0  0  0
   59.2320   29.0140   48.9200 C   0  0  0  0  0  0  0  0  0  0  0  0
   59.2927   28.5233   49.9026 H   0  0  0  0  0  0  0  0  0  0  0  0
   59.2960   28.2690   47.7280 C   0  0  0  0  0  0  0  0  0  0  0  0
   59.4208   27.1770   47.7726 H   0  0  0  0  0  0  0  0  0  0  0  0
   59.2010   28.9140   46.4730 C   0  0  0  0  0  0  0  0  0  0  0  0
   59.2610   27.8840   44.8680 Br  0  0  0  0  0  0  0  0  0  0  0  0
   59.0500   30.3130   46.4010 C   0  0  0  0  0  0  0  0  0  0  0  0
   58.9603   30.8260   45.4321 H   0  0  0  0  0  0  0  0  0  0  0  0
   59.0180   31.0270   47.6020 C   0  0  0  0  0  0  0  0  0  0  0  0
   57.3980   32.5010   44.8880 C   0  0  0  0  0  0  0  0  0  0  0  0
   56.6630   31.4120   44.8900 O   0  0  0  0  0  0  0  0  0  0  0  0
   56.7410   30.8490   43.7070 C   0  0  0  0  0  0  0  0  0  0  0  0
   56.2266   29.9228   43.4111 H   0  0  0  0  0  0  0  0  0  0  0  0
   57.5660   31.5950   42.8910 C   0  0  0  0  0  0  0  0  0  0  0  0
   57.8283   31.3827   41.8440 H   0  0  0  0  0  0  0  0  0  0  0  0
   57.9950   32.6600   43.6530 C   0  0  0  0  0  0  0  0  0  0  0  0
   58.6724   33.4689   43.3420 H   0  0  0  0  0  0  0  0  0  0  0  0
  1  2  1  0
  2  3  2  0
  3  4  1  0
  4  5  2  0
  4  6  1  0
  6  7  1  0
  7  8  1  0
  8  9  1  0
  8 10  2  0
 10 11  1  0
 10 12  1  0
 12 13  1  0
  3 14  1  0
 14 15  1  0
 15 16  1  0
 15 17  2  0
 17 18  1  0
 17 19  1  0
 19 20  2  0
 20 21  1  0
 20 22  1  0
 22 23  1  0
 22 24  2  0
 24 25  1  0
 24 26  1  0
 26 27  1  0
 26 28  2  0
  2 29  1  0
 29 30  1  0
 30 31  1  0
 31 32  1  0
 31 33  2  0
 33 34  1  0
 33 35  1  0
 35 36  1  0
 12  6  2  0
 28 14  1  0
 35 29  2  0
 28 19  1  0
M  CHG  1  17   1
M  END
>  <UniqueID>  (5) 
4

>  <SMILES>  (5) 
O=C(/C(=C\c1ccco1)n1c[nH+]c2ccc(Br)cc21)c1cccs1

>  <Energy>  (5) 
140.75248899926308

>  <Genealogy>  (5) 
O=C(C(=Cc1ccco1)n1c[nH+]c2ccc(Br)cc21)c1cccs1 (protonated)
O=C(/C(=C\c1ccco1)n1c[nH+]c2ccc(Br)cc21)c1cccs1 (cis-trans isomerization)
O=C(/C(=C\c1ccco1)n1c[nH+]c2ccc(Br)cc21)c1cccs1 (3D coordinates assigned)
O=C(/C(=C\c1ccco1)n1c[nH+]c2ccc(Br)cc21)c1cccs1 (optimized conformer: 140.75248899926308 kcal/mol)

>  <smiles>  (5) 
O=C(C(=Cc1ccco1)n1cnc2ccc(Br)cc21)c1cccs1

>  <score_type>  (5) 
oracle

>  <origin>  (5) 
adg

>  <m_score__min__energy>  (5) 
-6.7800000000000002

>  <m_primary>  (5) 
energy

$$$$
5:0
     RDKit          3D

 33 34  0  0  0  0  0  0  0  0999 V2000
   60.7360   34.2500   48.6560 C   0  0  0  0  0  0  0  0  0  0  0  0
   59.4870   33.6650   48.3040 O   0  0  0  0  0  0  0  0  0  0  0  0
   59.0960   33.3500   46.9930 C   0  0  0  0  0  0  0  0  0  0  0  0
   58.9700   34.3390   45.9930 C   0  0  0  0  0  0  0  0  0  0  0  0
   58.5610   33.9960   44.6940 C   0  0  0  0  0  0  0  0  0  0  0  0
   58.2670   32.6650   44.3570 C   0  0  0  0  0  0  0  0  0  0  0  0
   57.7430   32.3250   42.7150 Cl  0  0  0  0  0  0  0  0  0  0  0  0
   58.4000   31.6840   45.3590 C   0  0  0  0  0  0  0  0  0  0  0  0
   58.1870   30.3060   45.3550 C   0  0  0  0  0  0  0  0  0  0  0  0
   57.7220   29.4430   44.2100 C   0  0  0  0  0  0  0  0  0  0  0  0
   56.2100   29.5560   43.9950 C   0  0  0  0  0  0  0  0  0  0  0  0
   55.5110   29.0900   45.1170 O   0  0  0  0  0  0  0  0  0  0  0  0
   58.4470   29.8790   46.6620 C   0  0  0  0  0  0  0  0  0  0  0  0
   58.3310   28.4650   47.1660 C   0  0  0  0  0  0  0  0  0  0  0  0
   58.8530   30.9230   47.4290 N   0  0  0  0  0  0  0  0  0  0  0  0
   59.2530   30.8750   48.8390 C   0  0  0  0  0  0  0  0  0  0  0  0
   58.8050   32.0210   46.6380 C   0  0  0  0  0  0  0  0  0  0  0  0
   60.8255   34.2919   49.7516 H   0  0  0  0  0  0  0  0  0  0  0  0
   61.5548   33.6417   48.2442 H   0  0  0  0  0  0  0  0  0  0  0  0
   60.7929   35.2684   48.2442 H   0  0  0  0  0  0  0  0  0  0  0  0
   59.1944   35.3886   46.2339 H   0  0  0  0  0  0  0  0  0  0  0  0
   58.4696   34.7815   43.9294 H   0  0  0  0  0  0  0  0  0  0  0  0
   58.2376   29.7605   43.2917 H   0  0  0  0  0  0  0  0  0  0  0  0
   57.9573   28.3959   44.4515 H   0  0  0  0  0  0  0  0  0  0  0  0
   55.9486   30.6100   43.8195 H   0  0  0  0  0  0  0  0  0  0  0  0
   55.9308   28.9421   43.1260 H   0  0  0  0  0  0  0  0  0  0  0  0
   55.1410   28.2000   44.8760 H   0  0  0  0  0  0  0  0  0  0  0  0
   58.3311   28.4667   48.2660 H   0  0  0  0  0  0  0  0  0  0  0  0
   57.3934   28.0211   46.8001 H   0  0  0  0  0  0  0  0  0  0  0  0
   59.1837   27.8742   46.8001 H   0  0  0  0  0  0  0  0  0  0  0  0
   58.3629   30.9818   49.4765 H   0  0  0  0  0  0  0  0  0  0  0  0
   59.7410   29.9118   49.0491 H   0  0  0  0  0  0  0  0  0  0  0  0
   59.9551   31.6953   49.0491 H   0  0  0  0  0  0  0  0  0  0  0  0
  1  2  1  0
  2  3  1  0
  3  4  2  0
  4  5  1  0
  5  6  2  0
  6  7  1  0
  6  8  1  0
  8  9  1  0
  9 10  1  0
 10 11  1  0
 11 12  1  0
  9 13  2  0
 13 14  1  0
 13 15  1  0
 15 16  1  0
 15 17  1  0
 17  3  1  0
 17  8  2  0
  1 18  1  0
  1 19  1  0
  1 20  1  0
  4 21  1  0
  5 22  1  0
 10 23  1  0
 10 24  1  0
 11 25  1  0
 11 26  1  0
 12 27  1  0
 14 28  1  0
 14 29  1  0
 14 30  1  0
 16 31  1  0
 16 32  1  0
 16 33  1  0
M  END
>  <UniqueID>  (6) 
5

>  <SMILES>  (6) 
COc1ccc(Cl)c2c(CCO)c(C)n(C)c12

>  <Energy>  (6) 
66.5780272115763

>  <Genealogy>  (6) 
COc1ccc(Cl)c2c(CCO)c(C)n(C)c12 (3D coordinates assigned)
COc1ccc(Cl)c2c(CCO)c(C)n(C)c12 (optimized conformer: 66.5780272115763 kcal/mol)

>  <smiles>  (6) 
COc1ccc(Cl)c2c(CCO)c(C)n(C)c12

>  <score_type>  (6) 
oracle

>  <origin>  (6) 
adg

>  <m_score__min__energy>  (6) 
-6.7800000000000002

>  <m_primary>  (6) 
energy

$$$$
6:0
     RDKit          3D

 47 50  0  0  0  0  0  0  0  0999 V2000
   56.3170   22.7530   43.0190 Cl  0  0  0  0  0  0  0  0  0  0  0  0
   56.7830   24.0930   44.0490 C   0  0  0  0  0  0  0  0  0  0  0  0
   56.5360   24.0370   45.4240 C   0  0  0  0  0  0  0  0  0  0  0  0
   56.9110   25.1030   46.2460 C   0  0  0  0  0  0  0  0  0  0  0  0
   57.5290   26.2300   45.6960 C   0  0  0  0  0  0  0  0  0  0  0  0
   57.7680   26.3010   44.3130 C   0  0  0  0  0  0  0  0  0  0  0  0
   58.4350   27.5100   43.7120 C   0  0  0  0  0  0  0  0  0  0  0  0
   57.6620   28.6880   43.9500 O   0  0  0  0  0  0  0  0  0  0  0  0
   58.0160   29.7280   44.8240 C   0  0  0  0  0  0  0  0  0  0  0  0
   58.5940   29.3920   46.0510 C   0  0  0  0  0  0  0  0  0  0  0  0
   58.9840   30.3870   46.9490 C   0  0  0  0  0  0  0  0  0  0  0  0
   58.8100   31.7410   46.6280 C   0  0  0  0  0  0  0  0  0  0  0  0
   58.1950   32.0930   45.4100 C   0  0  0  0  0  0  0  0  0  0  0  0
   57.8130   31.0860   44.5100 C   0  0  0  0  0  0  0  0  0  0  0  0
   58.0220   33.5360   45.0100 C   0  0  0  0  0  0  0  0  0  0  0  0
   58.2650   34.5080   46.1750 C   0  0  0  0  0  0  0  0  0  0  0  0
   59.4200   34.1190   47.0150 N   0  0  0  0  0  0  0  0  0  0  0  0
   60.7190   34.1740   46.3070 C   0  0  0  0  0  0  0  0  0  0  0  0
   61.8480   33.8050   47.2260 C   0  0  0  0  0  0  0  0  0  0  0  0
   62.9930   33.1510   46.7470 C   0  0  0  0  0  0  0  0  0  0  0  0
   64.0030   32.8520   47.6070 N   0  0  0  0  0  0  0  0  0  0  0  0
   63.9230   33.1790   48.9240 C   0  0  0  0  0  0  0  0  0  0  0  0
   62.7870   33.8330   49.4030 C   0  0  0  0  0  0  0  0  0  0  0  0
   61.7780   34.1330   48.5450 N   0  0  0  0  0  0  0  0  0  0  0  0
   59.1880   32.7990   47.6370 C   0  0  0  0  0  0  0  0  0  0  0  0
   57.4010   25.2190   43.4950 C   0  0  0  0  0  0  0  0  0  0  0  0
   56.0462   23.1533   45.8590 H   0  0  0  0  0  0  0  0  0  0  0  0
   56.7195   25.0553   47.3282 H   0  0  0  0  0  0  0  0  0  0  0  0
   57.8291   27.0637   46.3478 H   0  0  0  0  0  0  0  0  0  0  0  0
   59.4302   27.6345   44.1638 H   0  0  0  0  0  0  0  0  0  0  0  0
   58.5231   27.3601   42.6258 H   0  0  0  0  0  0  0  0  0  0  0  0
   58.7430   28.3338   46.3116 H   0  0  0  0  0  0  0  0  0  0  0  0
   59.4306   30.1073   47.9145 H   0  0  0  0  0  0  0  0  0  0  0  0
   57.3506   31.3600   43.5502 H   0  0  0  0  0  0  0  0  0  0  0  0
   58.7357   33.7660   44.2052 H   0  0  0  0  0  0  0  0  0  0  0  0
   56.9807   33.6666   44.6802 H   0  0  0  0  0  0  0  0  0  0  0  0
   58.4519   35.5107   45.7630 H   0  0  0  0  0  0  0  0  0  0  0  0
   57.3697   34.4898   46.8139 H   0  0  0  0  0  0  0  0  0  0  0  0
   60.6983   33.4703   45.4618 H   0  0  0  0  0  0  0  0  0  0  0  0
   60.8799   35.2014   45.9486 H   0  0  0  0  0  0  0  0  0  0  0  0
   63.0732   32.8820   45.6834 H   0  0  0  0  0  0  0  0  0  0  0  0
   64.8540   32.3650   47.2490 H   0  0  0  0  0  0  0  0  0  0  0  0
   64.7480   32.9298   49.6075 H   0  0  0  0  0  0  0  0  0  0  0  0
   62.7095   34.1032   50.4665 H   0  0  0  0  0  0  0  0  0  0  0  0
   60.1089   32.4842   48.1496 H   0  0  0  0  0  0  0  0  0  0  0  0
   58.3486   32.9045   48.3401 H   0  0  0  0  0  0  0  0  0  0  0  0
   57.6006   25.2576   42.4140 H   0  0  0  0  0  0  0  0  0  0  0  0
  1  2  1  0
  2  3  2  0
  3  4  1  0
  4  5  2  0
  5  6  1  0
  6  7  1  0
  7  8  1  0
  8  9  1  0
  9 10  2  0
 10 11  1  0
 11 12  2  0
 12 13  1  0
 13 14  2  0
 13 15  1  0
 15 16  1  0
 16 17  1  0
 17 18  1  0
 18 19  1  0
 19 20  2  0
 20 21  1  0
 21 22  2  0
 22 23  1  0
 23 24  2  0
 17 25  1  0
  6 26  2  0
 26  2  1  0
 14  9  1  0
 24 19  1  0
 25 12  1  0
  3 27  1  0
  4 28  1  0
  5 29  1  0
  7 30  1  0
  7 31  1  0
 10 32  1  0
 11 33  1  0
 14 34  1  0
 15 35  1  0
 15 36  1  0
 16 37  1  0
 16 38  1  0
 18 39  1  0
 18 40  1  0
 20 41  1  0
 21 42  1  0
 22 43  1  0
 23 44  1  0
 25 45  1  0
 25 46  1  0
 26 47  1  0
M  CHG  1  21   1
M  END
>  <UniqueID>  (7) 
6

>  <SMILES>  (7) 
Clc1cccc(COc2ccc3c(c2)CCN(Cc2c[nH+]ccn2)C3)c1

>  <Energy>  (7) 
56.94699936393051

>  <Genealogy>  (7) 
Clc1cccc(COc2ccc3c(c2)CCN(Cc2c[nH+]ccn2)C3)c1 (protonated)
Clc1cccc(COc2ccc3c(c2)CCN(Cc2c[nH+]ccn2)C3)c1 (3D coordinates assigned)
Clc1cccc(COc2ccc3c(c2)CCN(Cc2c[nH+]ccn2)C3)c1 (nonaromatic ring conformer: 56.94699936393051 kcal/mol)

>  <smiles>  (7) 
Clc1cccc(COc2ccc3c(c2)CCN(Cc2cnccn2)C3)c1

>  <score_type>  (7) 
oracle

>  <origin>  (7) 
adg

>  <m_score__min__energy>  (7) 
-7.2199999999999998

>  <m_primary>  (7) 
energy

$$$$
7:0
     RDKit          3D

 50 53  0  0  0  0  0  0  0  0999 V2000
   58.2680   31.1350   51.2150 C   0  0  0  0  0  0  0  0  0  0  0  0
   59.4070   30.9280   50.2620 C   0  0  0  0  0  0  0  0  0  0  0  0
   59.1650   30.4460   48.9660 C   0  0  0  0  0  0  0  0  0  0  0  0
   60.2290   30.2100   48.0930 C   0  0  0  0  0  0  0  0  0  0  0  0
   61.5430   30.4450   48.5070 C   0  0  0  0  0  0  0  0  0  0  0  0
   61.8010   30.9240   49.8000 C   0  0  0  0  0  0  0  0  0  0  0  0
   63.2130   31.1330   50.2630 C   0  0  0  0  0  0  0  0  0  0  0  0
   63.5300   32.9170   50.4590 S   0  0  0  0  0  0  0  0  0  0  0  0
   62.9820   33.3120   48.7960 C   0  0  0  0  0  0  0  0  0  0  0  0
   63.8070   33.1180   47.7210 N   0  0  0  0  0  0  0  0  0  0  0  0
   63.3920   33.4130   46.4440 C   0  0  0  0  0  0  0  0  0  0  0  0
   62.1400   33.9120   46.2170 N   0  0  0  0  0  0  0  0  0  0  0  0
   61.3300   34.1100   47.2860 C   0  0  0  0  0  0  0  0  0  0  0  0
   61.7150   33.8230   48.5520 C   0  0  0  0  0  0  0  0  0  0  0  0
   60.6300   34.1310   49.3460 C   0  0  0  0  0  0  0  0  0  0  0  0
   59.6350   34.5880   48.5430 N   0  0  0  0  0  0  0  0  0  0  0  0
   60.0720   34.5800   47.2870 N   0  0  0  0  0  0  0  0  0  0  0  0
   59.2730   34.9900   46.1310 C   0  0  0  0  0  0  0  0  0  0  0  0
   58.4260   33.8340   45.5550 C   0  0  0  0  0  0  0  0  0  0  0  0
   58.4300   32.5800   46.4660 C   0  0  0  0  0  0  0  0  0  0  0  0
   58.0350   31.2850   45.7240 C   0  0  0  0  0  0  0  0  0  0  0  0
   57.1310   31.5630   44.5190 C   0  0  0  0  0  0  0  0  0  0  0  0
   57.8200   32.4780   43.4850 C   0  0  0  0  0  0  0  0  0  0  0  0
   58.8230   33.4680   44.1120 C   0  0  0  0  0  0  0  0  0  0  0  0
   60.7290   31.1460   50.6800 C   0  0  0  0  0  0  0  0  0  0  0  0
   58.6380   31.0678   52.2487 H   0  0  0  0  0  0  0  0  0  0  0  0
   57.8258   32.1282   51.0477 H   0  0  0  0  0  0  0  0  0  0  0  0
   57.5046   30.3609   51.0477 H   0  0  0  0  0  0  0  0  0  0  0  0
   58.1332   30.2535   48.6369 H   0  0  0  0  0  0  0  0  0  0  0  0
   60.0324   29.8381   47.0766 H   0  0  0  0  0  0  0  0  0  0  0  0
   62.3777   30.2537   47.8166 H   0  0  0  0  0  0  0  0  0  0  0  0
   63.3614   30.6260   51.2279 H   0  0  0  0  0  0  0  0  0  0  0  0
   63.9083   30.7165   49.5193 H   0  0  0  0  0  0  0  0  0  0  0  0
   64.7660   32.7340   47.8680 H   0  0  0  0  0  0  0  0  0  0  0  0
   64.0738   33.2459   45.5971 H   0  0  0  0  0  0  0  0  0  0  0  0
   60.5796   34.0248   50.4397 H   0  0  0  0  0  0  0  0  0  0  0  0
   58.5979   35.8019   46.4393 H   0  0  0  0  0  0  0  0  0  0  0  0
   59.9685   35.3178   45.3444 H   0  0  0  0  0  0  0  0  0  0  0  0
   57.3943   34.2144   45.5242 H   0  0  0  0  0  0  0  0  0  0  0  0
   59.4416   32.4514   46.8785 H   0  0  0  0  0  0  0  0  0  0  0  0
   57.6796   32.7465   47.2529 H   0  0  0  0  0  0  0  0  0  0  0  0
   58.9495   30.7845   45.3731 H   0  0  0  0  0  0  0  0  0  0  0  0
   57.4761   30.6495   46.4267 H   0  0  0  0  0  0  0  0  0  0  0  0
   56.8775   30.6077   44.0361 H   0  0  0  0  0  0  0  0  0  0  0  0
   56.2272   32.0753   44.8805 H   0  0  0  0  0  0  0  0  0  0  0  0
   58.3592   31.8453   42.7647 H   0  0  0  0  0  0  0  0  0  0  0  0
   57.0312   33.0763   43.0056 H   0  0  0  0  0  0  0  0  0  0  0  0
   59.8218   33.0072   44.1218 H   0  0  0  0  0  0  0  0  0  0  0  0
   58.8229   34.3883   43.5095 H   0  0  0  0  0  0  0  0  0  0  0  0
   60.9271   31.4934   51.7047 H   0  0  0  0  0  0  0  0  0  0  0  0
  1  2  1  0
  2  3  2  0
  3  4  1  0
  4  5  2  0
  5  6  1  0
  6  7  1  0
  7  8  1  0
  8  9  1  0
  9 10  2  0
 10 11  1  0
 11 12  2  0
 12 13  1  0
 13 14  2  0
 14 15  1  0
 15 16  2  0
 16 17  1  0
 17 18  1  0
 18 19  1  0
 19 20  1  0
 20 21  1  0
 21 22  1  0
 22 23  1  0
 23 24  1  0
  6 25  2  0
 25  2  1  0
 14  9  1  0
 24 19  1  0
 17 13  1  0
  1 26  1  0
  1 27  1  0
  1 28  1  0
  3 29  1  0
  4 30  1  0
  5 31  1  0
  7 32  1  0
  7 33  1  0
 10 34  1  0
 11 35  1  0
 15 36  1  0
 18 37  1  0
 18 38  1  0
 19 39  1  0
 20 40  1  0
 20 41  1  0
 21 42  1  0
 21 43  1  0
 22 44  1  0
 22 45  1  0
 23 46  1  0
 23 47  1  0
 24 48  1  0
 24 49  1  0
 25 50  1  0
M  CHG  1  10   1
M  END
>  <UniqueID>  (8) 
7

>  <SMILES>  (8) 
Cc1cccc(CSc2[nH+]cnc3c2cnn3CC2CCCCC2)c1

>  <Energy>  (8) 
89.25407975455619

>  <Genealogy>  (8) 
Cc1cccc(CSc2[nH+]cnc3c2cnn3CC2CCCCC2)c1 (protonated)
Cc1cccc(CSc2[nH+]cnc3c2cnn3CC2CCCCC2)c1 (3D coordinates assigned)
Cc1cccc(CSc2[nH+]cnc3c2cnn3CC2CCCCC2)c1 (nonaromatic ring conformer: 89.25407975455619 kcal/mol)

>  <smiles>  (8) 
Cc1cccc(CSc2ncnc3c2cnn3CC2CCCCC2)c1

>  <score_type>  (8) 
oracle

>  <origin>  (8) 
adg

>  <m_score__min__energy>  (8) 
-6.5999999999999996

>  <m_primary>  (8) 
energy

$$$$
8:0
     RDKit          3D

 38 41  0  0  0  0  0  0  0  0999 V2000
   57.5480   22.8630   44.1340 C   0  0  0  0  0  0  0  0  0  0  0  0
   57.0110   24.0980   43.6740 O   0  0  0  0  0  0  0  0  0  0  0  0
   57.3860   25.3580   44.1660 C   0  0  0  0  0  0  0  0  0  0  0  0
   57.3620   25.6700   45.5380 C   0  0  0  0  0  0  0  0  0  0  0  0
   57.7460   26.9400   45.9790 C   0  0  0  0  0  0  0  0  0  0  0  0
   58.1550   27.9190   45.0580 C   0  0  0  0  0  0  0  0  0  0  0  0
   58.5580   29.2260   45.5120 N   0  0  0  0  0  0  0  0  0  0  0  0
   59.8050   29.3840   46.0720 C   0  0  0  0  0  0  0  0  0  0  0  0
   60.2210   30.6030   46.5220 N   0  0  0  0  0  0  0  0  0  0  0  0
   59.4000   31.6760   46.4240 C   0  0  0  0  0  0  0  0  0  0  0  0
   59.7070   32.9880   46.8260 C   0  0  0  0  0  0  0  0  0  0  0  0
   60.9770   33.4050   47.4680 C   0  0  0  0  0  0  0  0  0  0  0  0
   61.0020   33.8280   48.8100 C   0  0  0  0  0  0  0  0  0  0  0  0
   62.2040   34.2260   49.4040 C   0  0  0  0  0  0  0  0  0  0  0  0
   63.3900   34.2090   48.6660 C   0  0  0  0  0  0  0  0  0  0  0  0
   63.3760   33.7990   47.3310 C   0  0  0  0  0  0  0  0  0  0  0  0
   62.1770   33.4020   46.7320 C   0  0  0  0  0  0  0  0  0  0  0  0
   58.6650   33.8790   46.5390 C   0  0  0  0  0  0  0  0  0  0  0  0
   57.3900   33.0370   45.8120 S   0  0  0  0  0  0  0  0  0  0  0  0
   58.1540   31.5440   45.8510 C   0  0  0  0  0  0  0  0  0  0  0  0
   57.7210   30.3090   45.3860 C   0  0  0  0  0  0  0  0  0  0  0  0
   56.5870   30.2010   44.8420 O   0  0  0  0  0  0  0  0  0  0  0  0
   58.1830   27.6020   43.6910 C   0  0  0  0  0  0  0  0  0  0  0  0
   57.8000   26.3320   43.2510 C   0  0  0  0  0  0  0  0  0  0  0  0
   57.5527   22.8522   45.2339 H   0  0  0  0  0  0  0  0  0  0  0  0
   56.9295   22.0329   43.7618 H   0  0  0  0  0  0  0  0  0  0  0  0
   58.5768   22.7492   43.7618 H   0  0  0  0  0  0  0  0  0  0  0  0
   57.0398   24.9115   46.2666 H   0  0  0  0  0  0  0  0  0  0  0  0
   57.7278   27.1741   47.0536 H   0  0  0  0  0  0  0  0  0  0  0  0
   60.4753   28.5161   46.1580 H   0  0  0  0  0  0  0  0  0  0  0  0
   60.0707   33.8457   49.3952 H   0  0  0  0  0  0  0  0  0  0  0  0
   62.2155   34.5530   50.4542 H   0  0  0  0  0  0  0  0  0  0  0  0
   64.3349   34.5185   49.1364 H   0  0  0  0  0  0  0  0  0  0  0  0
   64.3100   33.7885   46.7500 H   0  0  0  0  0  0  0  0  0  0  0  0
   62.1711   33.0852   45.6786 H   0  0  0  0  0  0  0  0  0  0  0  0
   58.6741   34.9580   46.7529 H   0  0  0  0  0  0  0  0  0  0  0  0
   58.5085   28.3580   42.9613 H   0  0  0  0  0  0  0  0  0  0  0  0
   57.8242   26.0964   42.1768 H   0  0  0  0  0  0  0  0  0  0  0  0
  1  2  1  0
  2  3  1  0
  3  4  2  0
  4  5  1  0
  5  6  2  0
  6  7  1  0
  7  8  1  0
  8  9  2  0
  9 10  1  0
 10 11  1  0
 11 12  1  0
 12 13  2  0
 13 14  1  0
 14 15  2  0
 15 16  1  0
 16 17  2  0
 11 18  2  0
 18 19  1  0
 19 20  1  0
 20 21  1  0
 21 22  2  0
  6 23  1  0
 23 24  2  0
 24  3  1  0
 21  7  1  0
 20 10  2  0
 17 12  1  0
  1 25  1  0
  1 26  1  0
  1 27  1  0
  4 28  1  0
  5 29  1  0
  8 30  1  0
 13 31  1  0
 14 32  1  0
 15 33  1  0
 16 34  1  0
 17 35  1  0
 18 36  1  0
 23 37  1  0
 24 38  1  0
M  END
>  <UniqueID>  (9) 
8

>  <SMILES>  (9) 
COc1ccc(-n2cnc3c(-c4ccccc4)csc3c2=O)cc1

>  <Energy>  (9) 
88.16541810704439

>  <Genealogy>  (9) 
COc1ccc(-n2cnc3c(-c4ccccc4)csc3c2=O)cc1 (3D coordinates assigned)
COc1ccc(-n2cnc3c(-c4ccccc4)csc3c2=O)cc1 (optimized conformer: 88.16541810704439 kcal/mol)

>  <smiles>  (9) 
COc1ccc(-n2cnc3c(-c4ccccc4)csc3c2=O)cc1

>  <score_type>  (9) 
oracle

>  <origin>  (9) 
adg

>  <m_score__min__energy>  (9) 
-7.75

>  <m_primary>  (9) 
energy

$$$$
9:0
     RDKit          3D

 52 57  0  0  0  0  0  0  0  0999 V2000
   57.0350   32.4340   45.2850 O   0  0  0  0  0  0  0  0  0  0  0  0
   57.9390   31.6570   45.6930 C   0  0  0  0  0  0  0  0  0  0  0  0
   59.1020   32.1990   46.2430 C   0  0  0  0  0  0  0  0  0  0  0  0
   60.1140   31.3400   46.7010 C   0  0  0  0  0  0  0  0  0  0  0  0
   61.3720   31.8570   47.2970 C   0  0  0  0  0  0  0  0  0  0  0  0
   61.9370   31.1950   48.4030 C   0  0  0  0  0  0  0  0  0  0  0  0
   63.1250   31.6570   48.9760 C   0  0  0  0  0  0  0  0  0  0  0  0
   63.7720   32.7810   48.4470 C   0  0  0  0  0  0  0  0  0  0  0  0
   64.9560   33.2500   49.0100 O   0  0  0  0  0  0  0  0  0  0  0  0
   63.2270   33.4370   47.3400 C   0  0  0  0  0  0  0  0  0  0  0  0
   62.0380   32.9790   46.7640 C   0  0  0  0  0  0  0  0  0  0  0  0
   59.9410   30.0220   46.6150 O   0  0  0  0  0  0  0  0  0  0  0  0
   58.8520   29.4590   46.1000 C   0  0  0  0  0  0  0  0  0  0  0  0
   58.7670   28.0640   46.0500 C   0  0  0  0  0  0  0  0  0  0  0  0
   57.6310   27.4200   45.5110 C   0  0  0  0  0  0  0  0  0  0  0  0
   57.4990   25.8840   45.4380 C   0  0  1  0  0  0  0  0  0  0  0  0
   57.4120   25.4340   43.9480 C   0  0  0  0  0  0  0  0  0  0  0  0
   57.2250   23.9040   43.8530 C   0  0  2  0  0  0  0  0  0  0  0  0
   55.9280   23.4960   44.5850 C   0  0  0  0  0  0  0  0  0  0  0  0
   56.0230   23.9020   46.0730 C   0  0  1  0  0  0  0  0  0  0  0  0
   57.2290   23.1930   46.7230 C   0  0  0  0  0  0  0  0  0  0  0  0
   58.5220   23.6040   45.9900 C   0  0  1  0  0  0  0  0  0  0  0  0
   58.4290   23.1950   44.5060 C   0  0  0  0  0  0  0  0  0  0  0  0
   58.7050   25.1330   46.0910 C   0  0  0  0  0  0  0  0  0  0  0  0
   56.2040   25.4320   46.1800 C   0  0  0  0  0  0  0  0  0  0  0  0
   56.5840   28.2330   45.0230 C   0  0  0  0  0  0  0  0  0  0  0  0
   56.6580   29.6280   45.0690 C   0  0  0  0  0  0  0  0  0  0  0  0
   55.5900   30.3680   44.5710 O   0  0  0  0  0  0  0  0  0  0  0  0
   57.7970   30.2580   45.6100 C   0  0  0  0  0  0  0  0  0  0  0  0
   59.2246   33.2896   46.3170 H   0  0  0  0  0  0  0  0  0  0  0  0
   61.4395   30.3068   48.8198 H   0  0  0  0  0  0  0  0  0  0  0  0
   63.5533   31.1363   49.8452 H   0  0  0  0  0  0  0  0  0  0  0  0
   65.8540   33.0870   48.5680 H   0  0  0  0  0  0  0  0  0  0  0  0
   63.7355   34.3174   46.9200 H   0  0  0  0  0  0  0  0  0  0  0  0
   61.6196   33.4979   45.8890 H   0  0  0  0  0  0  0  0  0  0  0  0
   59.5992   27.4576   46.4371 H   0  0  0  0  0  0  0  0  0  0  0  0
   58.3398   25.7178   43.4298 H   0  0  0  0  0  0  0  0  0  0  0  0
   56.5481   25.9270   43.4782 H   0  0  0  0  0  0  0  0  0  0  0  0
   57.1568   23.6097   42.7953 H   0  0  0  0  0  0  0  0  0  0  0  0
   55.7927   22.4069   44.5106 H   0  0  0  0  0  0  0  0  0  0  0  0
   55.0708   24.0060   44.1212 H   0  0  0  0  0  0  0  0  0  0  0  0
   55.1001   23.6063   46.5934 H   0  0  0  0  0  0  0  0  0  0  0  0
   57.0967   22.1034   46.6505 H   0  0  0  0  0  0  0  0  0  0  0  0
   57.2989   23.4838   47.7816 H   0  0  0  0  0  0  0  0  0  0  0  0
   59.3815   23.0983   46.4544 H   0  0  0  0  0  0  0  0  0  0  0  0
   58.2967   22.1054   44.4333 H   0  0  0  0  0  0  0  0  0  0  0  0
   59.3533   23.4871   43.9860 H   0  0  0  0  0  0  0  0  0  0  0  0
   59.6315   25.4198   45.5720 H   0  0  0  0  0  0  0  0  0  0  0  0
   58.7580   25.4110   47.1540 H   0  0  0  0  0  0  0  0  0  0  0  0
   55.3348   25.9315   45.7273 H   0  0  0  0  0  0  0  0  0  0  0  0
   56.2895   25.7059   47.2419 H   0  0  0  0  0  0  0  0  0  0  0  0
   55.6889   27.7568   44.5965 H   0  0  0  0  0  0  0  0  0  0  0  0
  1  2  2  0
  2  3  1  0
  3  4  2  0
  4  5  1  0
  5  6  2  0
  6  7  1  0
  7  8  2  0
  8  9  1  0
  8 10  1  0
 10 11  2  0
  4 12  1  0
 12 13  1  0
 13 14  2  0
 14 15  1  0
 16 15  1  6
 16 17  1  0
 17 18  1  0
 18 19  1  0
 19 20  1  0
 20 21  1  0
 21 22  1  0
 22 23  1  0
 22 24  1  0
 20 25  1  0
 15 26  2  0
 26 27  1  0
 27 28  1  0
 27 29  2  0
 29  2  1  0
 11  5  1  0
 29 13  1  0
 24 16  1  0
 25 16  1  0
 23 18  1  0
  3 30  1  0
  6 31  1  0
  7 32  1  0
  9 33  1  0
 10 34  1  0
 11 35  1  0
 14 36  1  0
 17 37  1  0
 17 38  1  0
 18 39  1  6
 19 40  1  0
 19 41  1  0
 20 42  1  1
 21 43  1  0
 21 44  1  0
 22 45  1  1
 23 46  1  0
 23 47  1  0
 24 48  1  0
 24 49  1  0
 25 50  1  0
 25 51  1  0
 26 52  1  0
M  CHG  1  28  -1
M  END
>  <UniqueID>  (10) 
9

>  <SMILES>  (10) 
O=c1cc(-c2ccc(O)cc2)oc2cc(C34CC5CC(CC(C5)C3)C4)cc([O-])c12

>  <Energy>  (10) 
72.07211308759379

>  <Genealogy>  (10) 
O=c1cc(-c2ccc(O)cc2)oc2cc(C34CC5CC(CC(C5)C3)C4)cc([O-])c12 (protonated)
O=c1cc(-c2ccc(O)cc2)oc2cc(C34CC5CC(CC(C5)C3)C4)cc([O-])c12 (3D coordinates assigned)
O=c1cc(-c2ccc(O)cc2)oc2cc(C34CC5CC(CC(C5)C3)C4)cc([O-])c12 (nonaromatic ring conformer: 72.07211308759379 kcal/mol)

>  <smiles>  (10) 
O=c1cc(-c2ccc(O)cc2)oc2cc(C34CC5CC(CC(C5)C3)C4)cc(O)c12

>  <score_type>  (10) 
oracle

>  <origin>  (10) 
adg

>  <m_score__min__energy>  (10) 
-10.48

>  <m_primary>  (10) 
energy

$$$$
10:0
     RDKit          3D

 41 44  0  0  0  0  0  0  0  0999 V2000
   57.1750   24.5320   45.7990 C   0  0  0  0  0  0  0  0  0  0  0  0
   57.6670   25.9150   45.7930 N   0  0  0  0  0  0  0  0  0  0  0  0
   59.1090   26.1700   45.6950 C   0  0  0  0  0  0  0  0  0  0  0  0
   56.7050   26.9920   45.8900 C   0  0  0  0  0  0  0  0  0  0  0  0
   55.4790   26.7160   45.9950 O   0  0  0  0  0  0  0  0  0  0  0  0
   57.0860   28.4210   45.8720 C   0  0  0  0  0  0  0  0  0  0  0  0
   58.1020   28.9240   46.6010 N   0  0  0  0  0  0  0  0  0  0  0  0
   58.0680   30.2290   46.2560 C   0  0  0  0  0  0  0  0  0  0  0  0
   58.9700   31.2550   46.8330 C   0  0  0  0  0  0  0  0  0  0  0  0
   59.6480   30.9610   47.9590 C   0  0  0  0  0  0  0  0  0  0  0  0
   60.5830   31.9500   48.6200 C   0  0  0  0  0  0  0  0  0  0  0  0
   61.9900   31.6700   48.1190 C   0  0  0  0  0  0  0  0  0  0  0  0
   62.9810   31.2710   48.9190 C   0  0  0  0  0  0  0  0  0  0  0  0
   62.7540   31.1090   50.3570 C   0  0  0  0  0  0  0  0  0  0  0  0
   63.6880   30.7180   51.1070 O   0  0  0  0  0  0  0  0  0  0  0  0
   61.4350   31.4130   50.9180 C   0  0  0  0  0  0  0  0  0  0  0  0
   60.4380   31.8140   50.1240 C   0  0  0  0  0  0  0  0  0  0  0  0
   60.2400   33.2940   48.2710 O   0  0  0  0  0  0  0  0  0  0  0  0
   59.6900   33.6260   47.0310 C   0  0  0  0  0  0  0  0  0  0  0  0
   59.7490   34.9440   46.5720 C   0  0  0  0  0  0  0  0  0  0  0  0
   59.2540   35.2670   45.3070 C   0  0  0  0  0  0  0  0  0  0  0  0
   58.7040   34.2700   44.4980 C   0  0  0  0  0  0  0  0  0  0  0  0
   58.6220   32.9530   44.9620 C   0  0  0  0  0  0  0  0  0  0  0  0
   59.0830   32.6250   46.2520 C   0  0  0  0  0  0  0  0  0  0  0  0
   57.0770   30.4990   45.3850 N   0  0  0  0  0  0  0  0  0  0  0  0
   56.4990   29.3580   45.1680 O   0  0  0  0  0  0  0  0  0  0  0  0
   57.0535   24.1905   46.8376 H   0  0  0  0  0  0  0  0  0  0  0  0
   56.2052   24.4856   45.2820 H   0  0  0  0  0  0  0  0  0  0  0  0
   57.8976   23.8835   45.2820 H   0  0  0  0  0  0  0  0  0  0  0  0
   59.5374   26.2458   46.7053 H   0  0  0  0  0  0  0  0  0  0  0  0
   59.5916   25.3433   45.1531 H   0  0  0  0  0  0  0  0  0  0  0  0
   59.2788   27.1121   45.1531 H   0  0  0  0  0  0  0  0  0  0  0  0
   59.5175   29.9679   48.4136 H   0  0  0  0  0  0  0  0  0  0  0  0
   62.2015   31.8022   47.0477 H   0  0  0  0  0  0  0  0  0  0  0  0
   63.9747   31.0625   48.4957 H   0  0  0  0  0  0  0  0  0  0  0  0
   61.2645   31.3104   51.9999 H   0  0  0  0  0  0  0  0  0  0  0  0
   59.4677   32.0566   50.5818 H   0  0  0  0  0  0  0  0  0  0  0  0
   60.1859   35.7282   47.2078 H   0  0  0  0  0  0  0  0  0  0  0  0
   59.2971   36.3058   44.9478 H   0  0  0  0  0  0  0  0  0  0  0  0
   58.3342   34.5213   43.4930 H   0  0  0  0  0  0  0  0  0  0  0  0
   58.1959   32.1704   44.3170 H   0  0  0  0  0  0  0  0  0  0  0  0
  1  2  1  0
  2  3  1  0
  2  4  1  0
  4  5  2  0
  4  6  1  0
  6  7  2  0
  7  8  1  0
  8  9  1  0
  9 10  2  0
 10 11  1  0
 11 12  1  0
 12 13  2  0
 13 14  1  0
 14 15  2  0
 14 16  1  0
 16 17  2  0
 11 18  1  0
 18 19  1  0
 19 20  2  0
 20 21  1  0
 21 22  2  0
 22 23  1  0
 23 24  2  0
  8 25  2  0
 25 26  1  0
 26  6  1  0
 24  9  1  0
 17 11  1  0
 24 19  1  0
  1 27  1  0
  1 28  1  0
  1 29  1  0
  3 30  1  0
  3 31  1  0
  3 32  1  0
 10 33  1  0
 12 34  1  0
 13 35  1  0
 16 36  1  0
 17 37  1  0
 20 38  1  0
 21 39  1  0
 22 40  1  0
 23 41  1  0
M  END
>  <UniqueID>  (11) 
10

>  <SMILES>  (11) 
CN(C)C(=O)c1nc(C2=CC3(C=CC(=O)C=C3)Oc3ccccc32)no1

>  <Energy>  (11) 
84.228403859772

>  <Genealogy>  (11) 
CN(C)C(=O)c1nc(C2=CC3(C=CC(=O)C=C3)Oc3ccccc32)no1 (3D coordinates assigned)
CN(C)C(=O)c1nc(C2=CC3(C=CC(=O)C=C3)Oc3ccccc32)no1 (nonaromatic ring conformer: 84.228403859772 kcal/mol)

>  <smiles>  (11) 
CN(C)C(=O)c1nc(C2=CC3(C=CC(=O)C=C3)Oc3ccccc32)no1

>  <score_type>  (11) 
oracle

>  <origin>  (11) 
adg

>  <m_score__min__energy>  (11) 
-8.8300000000000001

>  <m_primary>  (11) 
energy

$$$$
11:0
     RDKit          3D

 51 53  0  0  0  0  0  0  0  0999 V2000
   60.7259   34.4508   49.5200 H   0  0  0  0  0  0  0  0  0  0  0  0
   61.4370   33.8530   48.9310 C   0  0  0  0  0  0  0  0  0  0  0  0
   62.6390   33.4370   49.5090 C   0  0  0  0  0  0  0  0  0  0  0  0
   62.8712   33.7142   50.5479 H   0  0  0  0  0  0  0  0  0  0  0  0
   63.5510   32.6680   48.7720 C   0  0  0  0  0  0  0  0  0  0  0  0
   64.8630   32.2510   49.3820 C   0  0  0  0  0  0  0  0  0  0  0  0
   64.8308   31.1746   49.6064 H   0  0  0  0  0  0  0  0  0  0  0  0
   65.6701   32.4681   48.6668 H   0  0  0  0  0  0  0  0  0  0  0  0
   65.1300   33.0260   50.6750 C   0  0  0  0  0  0  0  0  0  0  0  0
   64.2590   33.6562   50.9078 H   0  0  0  0  0  0  0  0  0  0  0  0
   65.3049   32.3116   51.4930 H   0  0  0  0  0  0  0  0  0  0  0  0
   66.2740   33.8460   50.5240 O   0  0  0  0  0  0  0  0  0  0  0  0
   67.4450   33.0590   50.5010 C   0  0  0  0  0  0  0  0  0  0  0  0
   67.7633   32.8451   51.5320 H   0  0  0  0  0  0  0  0  0  0  0  0
   67.2413   32.1138   49.9765 H   0  0  0  0  0  0  0  0  0  0  0  0
   68.2433   33.6046   49.9765 H   0  0  0  0  0  0  0  0  0  0  0  0
   63.2550   32.3390   47.4410 C   0  0  0  0  0  0  0  0  0  0  0  0
   63.9734   31.7519   46.8501 H   0  0  0  0  0  0  0  0  0  0  0  0
   62.0520   32.7530   46.8610 C   0  0  0  0  0  0  0  0  0  0  0  0
   61.8256   32.4826   45.8191 H   0  0  0  0  0  0  0  0  0  0  0  0
   61.1300   33.5130   47.6020 C   0  0  0  0  0  0  0  0  0  0  0  0
   59.8910   33.9390   47.0050 N   0  0  0  0  0  0  0  0  0  0  0  0
   59.8490   35.1510   46.1750 C   0  0  0  0  0  0  0  0  0  0  0  0
   60.8698   35.3995   45.8491 H   0  0  0  0  0  0  0  0  0  0  0  0
   59.4254   35.9712   46.7732 H   0  0  0  0  0  0  0  0  0  0  0  0
   58.9650   34.9400   44.9390 C   0  0  0  0  0  0  0  0  0  0  0  0
   59.5367   34.3617   44.1982 H   0  0  0  0  0  0  0  0  0  0  0  0
   58.6867   35.9381   44.5697 H   0  0  0  0  0  0  0  0  0  0  0  0
   57.6380   34.1800   45.2380 C   0  0  0  0  0  0  0  0  0  0  0  0
   56.8416   34.8596   44.9006 H   0  0  0  0  0  0  0  0  0  0  0  0
   57.4950   32.8910   44.4400 C   0  0  0  0  0  0  0  0  0  0  0  0
   57.9480   32.7980   43.1110 C   0  0  0  0  0  0  0  0  0  0  0  0
   58.3882   33.6756   42.6150 H   0  0  0  0  0  0  0  0  0  0  0  0
   57.8370   31.5920   42.4270 C   0  0  0  0  0  0  0  0  0  0  0  0
   58.1820   31.5177   41.3851 H   0  0  0  0  0  0  0  0  0  0  0  0
   57.2900   30.4790   43.0590 C   0  0  0  0  0  0  0  0  0  0  0  0
   57.1980   29.5248   42.5196 H   0  0  0  0  0  0  0  0  0  0  0  0
   56.8550   30.5840   44.3950 C   0  0  0  0  0  0  0  0  0  0  0  0
   56.3440   29.5690   45.0360 N   0  0  0  0  0  0  0  0  0  0  0  0
   56.9940   28.2870   45.2860 C   0  0  0  0  0  0  0  0  0  0  0  0
   57.0770   28.1233   46.3706 H   0  0  0  0  0  0  0  0  0  0  0  0
   56.3965   27.4794   44.8380 H   0  0  0  0  0  0  0  0  0  0  0  0
   57.9986   28.2917   44.8380 H   0  0  0  0  0  0  0  0  0  0  0  0
   56.9770   31.7790   45.0430 N   0  0  0  0  0  0  0  0  0  0  0  0
   56.6620   31.8390   46.0400 H   0  0  0  0  0  0  0  0  0  0  0  0
   57.4150   33.9260   46.7440 C   0  0  0  0  0  0  0  0  0  0  0  0
   56.5499   33.2579   46.8670 H   0  0  0  0  0  0  0  0  0  0  0  0
   57.2405   34.8974   47.2297 H   0  0  0  0  0  0  0  0  0  0  0  0
   58.6380   33.2790   47.4060 C   0  0  0  0  0  0  0  0  0  0  0  0
   58.6835   32.2201   47.1116 H   0  0  0  0  0  0  0  0  0  0  0  0
   58.5311   33.3826   48.4959 H   0  0  0  0  0  0  0  0  0  0  0  0
  1  2  1  0
  2  3  2  0
  3  4  1  0
  3  5  1  0
  5  6  1  0
  6  7  1  0
  6  8  1  0
  6  9  1  0
  9 10  1  0
  9 11  1  0
  9 12  1  0
 12 13  1  0
 13 14  1  0
 13 15  1  0
 13 16  1  0
  5 17  2  0
 17 18  1  0
 17 19  1  0
 19 20  1  0
 19 21  2  0
 21 22  1  0
 22 23  1  0
 23 24  1  0
 23 25  1  0
 23 26  1  0
 26 27  1  0
 26 28  1  0
 26 29  1  0
 29 30  1  0
 29 31  1  0
 31 32  2  0
 32 33  1  0
 32 34  1  0
 34 35  1  0
 34 36  2  0
 36 37  1  0
 36 38  1  0
 38 39  2  0
 39 40  1  0
 40 41  1  0
 40 42  1  0
 40 43  1  0
 38 44  1  0
 44 45  1  0
 29 46  1  0
 46 47  1  0
 46 48  1  0
 46 49  1  0
 49 50  1  0
 49 51  1  0
 21  2  1  0
 49 22  1  0
 44 31  1  0
M  END
>  <UniqueID>  (12) 
11

>  <SMILES>  (12) 
C/N=c1\cccc(C2CCN(c3ccc(CCOC)cc3)CC2)[nH]1

>  <Energy>  (12) 
60.578499891125766

>  <Genealogy>  (12) 
C/N=c1\cccc(C2CCN(c3ccc(CCOC)cc3)CC2)[nH]1 (cis-trans isomerization)
C/N=c1\cccc(C2CCN(c3ccc(CCOC)cc3)CC2)[nH]1 (3D coordinates assigned)
C/N=c1\cccc(C2CCN(c3ccc(CCOC)cc3)CC2)[nH]1 (nonaromatic ring conformer: 60.578499891125766 kcal/mol)

>  <smiles>  (12) 
CN=c1cccc(C2CCN(c3ccc(CCOC)cc3)CC2)[nH]1

>  <score_type>  (12) 
oracle

>  <origin>  (12) 
adg

>  <m_score__min__energy>  (12) 
-7.9500000000000002

>  <m_primary>  (12) 
energy

$$$$
12:0
     RDKit          3D

 42 45  0  0  0  0  0  0  0  0999 V2000
   56.2430   29.2940   42.4320 N   0  0  0  0  0  0  0  0  0  0  0  0
   56.7610   30.1520   43.0120 C   0  0  0  0  0  0  0  0  0  0  0  0
   57.4060   31.2180   43.7330 C   0  0  0  0  0  0  0  0  0  0  0  0
   57.8750   32.3440   43.0480 C   0  0  0  0  0  0  0  0  0  0  0  0
   58.5020   33.3810   43.7470 C   0  0  0  0  0  0  0  0  0  0  0  0
   58.6570   33.3050   45.1430 C   0  0  0  0  0  0  0  0  0  0  0  0
   59.3360   34.3860   45.8950 C   0  0  0  0  0  0  0  0  0  0  0  0
   59.3560   35.5500   45.4130 O   0  0  0  0  0  0  0  0  0  0  0  0
   59.9980   34.1470   47.1920 C   0  0  0  0  0  0  0  0  0  0  0  0
   61.3370   34.0380   47.3300 N   0  0  0  0  0  0  0  0  0  0  0  0
   61.4790   33.7770   48.6490 C   0  0  0  0  0  0  0  0  0  0  0  0
   62.8010   33.6500   49.2980 C   0  0  0  0  0  0  0  0  0  0  0  0
   63.0470   34.3060   50.5150 C   0  0  0  0  0  0  0  0  0  0  0  0
   64.2870   34.1830   51.1470 C   0  0  0  0  0  0  0  0  0  0  0  0
   65.2890   33.3910   50.5770 C   0  0  0  0  0  0  0  0  0  0  0  0
   66.8460   33.2370   51.3710 Cl  0  0  0  0  0  0  0  0  0  0  0  0
   65.0460   32.7160   49.3770 C   0  0  0  0  0  0  0  0  0  0  0  0
   63.8060   32.8370   48.7430 C   0  0  0  0  0  0  0  0  0  0  0  0
   60.2770   33.7130   49.2720 N   0  0  0  0  0  0  0  0  0  0  0  0
   59.9780   33.3310   50.6260 C   0  0  0  0  0  0  0  0  0  0  0  0
   60.4310   32.0970   51.1200 C   0  0  0  0  0  0  0  0  0  0  0  0
   60.1570   31.7220   52.4400 C   0  0  0  0  0  0  0  0  0  0  0  0
   59.4400   32.5800   53.2780 C   0  0  0  0  0  0  0  0  0  0  0  0
   59.1760   32.2160   54.5560 F   0  0  0  0  0  0  0  0  0  0  0  0
   59.0010   33.8180   52.7990 C   0  0  0  0  0  0  0  0  0  0  0  0
   59.2740   34.1970   51.4800 C   0  0  0  0  0  0  0  0  0  0  0  0
   59.3550   33.9470   48.3580 N   0  0  0  0  0  0  0  0  0  0  0  0
   58.2010   32.1620   45.8200 C   0  0  0  0  0  0  0  0  0  0  0  0
   57.5730   31.1260   45.1200 C   0  0  0  0  0  0  0  0  0  0  0  0
   57.7505   32.4141   41.9573 H   0  0  0  0  0  0  0  0  0  0  0  0
   58.8757   34.2604   43.2021 H   0  0  0  0  0  0  0  0  0  0  0  0
   62.2584   34.9206   50.9737 H   0  0  0  0  0  0  0  0  0  0  0  0
   64.4754   34.7098   52.0941 H   0  0  0  0  0  0  0  0  0  0  0  0
   65.8318   32.0887   48.9310 H   0  0  0  0  0  0  0  0  0  0  0  0
   63.6152   32.2939   47.8056 H   0  0  0  0  0  0  0  0  0  0  0  0
   61.0036   31.4224   50.4666 H   0  0  0  0  0  0  0  0  0  0  0  0
   60.5066   30.7502   52.8186 H   0  0  0  0  0  0  0  0  0  0  0  0
   58.4401   34.4951   53.4601 H   0  0  0  0  0  0  0  0  0  0  0  0
   58.9363   35.1764   51.1102 H   0  0  0  0  0  0  0  0  0  0  0  0
   58.3230   33.9020   48.5160 H   0  0  0  0  0  0  0  0  0  0  0  0
   58.3386   32.0807   46.9083 H   0  0  0  0  0  0  0  0  0  0  0  0
   57.2103   30.2388   45.6597 H   0  0  0  0  0  0  0  0  0  0  0  0
  1  2  3  0
  2  3  1  0
  3  4  2  0
  4  5  1  0
  5  6  2  0
  6  7  1  0
  7  8  2  0
  7  9  1  0
  9 10  1  0
 10 11  2  0
 11 12  1  0
 12 13  2  0
 13 14  1  0
 14 15  2  0
 15 16  1  0
 15 17  1  0
 17 18  2  0
 11 19  1  0
 19 20  1  0
 20 21  2  0
 21 22  1  0
 22 23  2  0
 23 24  1  0
 23 25  1  0
 25 26  2  0
 19 27  1  0
  6 28  1  0
 28 29  2  0
 29  3  1  0
 27  9  2  0
 18 12  1  0
 26 20  1  0
  4 30  1  0
  5 31  1  0
 13 32  1  0
 14 33  1  0
 17 34  1  0
 18 35  1  0
 21 36  1  0
 22 37  1  0
 25 38  1  0
 26 39  1  0
 27 40  1  0
 28 41  1  0
 29 42  1  0
M  CHG  1  27   1
M  END
>  <UniqueID>  (13) 
12

>  <SMILES>  (13) 
N#Cc1ccc(C(=O)c2nc(-c3ccc(Cl)cc3)n(-c3ccc(F)cc3)[nH+]2)cc1

>  <Energy>  (13) 
92.79291545345085

>  <Genealogy>  (13) 
N#Cc1ccc(C(=O)c2nc(-c3ccc(Cl)cc3)n(-c3ccc(F)cc3)[nH+]2)cc1 (protonated)
N#Cc1ccc(C(=O)c2nc(-c3ccc(Cl)cc3)n(-c3ccc(F)cc3)[nH+]2)cc1 (3D coordinates assigned)
N#Cc1ccc(C(=O)c2nc(-c3ccc(Cl)cc3)n(-c3ccc(F)cc3)[nH+]2)cc1 (optimized conformer: 92.79291545345085 kcal/mol)

>  <smiles>  (13) 
N#Cc1ccc(C(=O)c2nc(-c3ccc(Cl)cc3)n(-c3ccc(F)cc3)n2)cc1

>  <score_type>  (13) 
oracle

>  <origin>  (13) 
adg

>  <m_score__min__energy>  (13) 
-6.7800000000000002

>  <m_primary>  (13) 
energy

$$$$
13:0
     RDKit          3D

 42 45  0  0  1  0  0  0  0  0999 V2000
   56.7660   26.3840   46.3100 C   0  0  0  0  0  0  0  0  0  0  0  0
   57.5990   27.6000   46.1970 C   0  0  0  0  0  0  0  0  0  0  0  0
   57.4300   28.5120   45.1810 C   0  0  0  0  0  0  0  0  0  0  0  0
   58.2120   29.6540   45.0750 C   0  0  0  0  0  0  0  0  0  0  0  0
   57.9840   30.4270   44.1160 N   0  0  0  0  0  0  0  0  0  0  0  0
   57.0160   31.4630   44.1490 C   0  0  0  0  0  0  0  0  0  0  0  0
   57.7270   32.5960   44.8890 C   0  0  0  0  0  0  0  0  0  0  0  0
   58.5920   33.4360   44.2180 C   0  0  0  0  0  0  0  0  0  0  0  0
   59.2470   34.4650   44.8650 C   0  0  0  0  0  0  0  0  0  0  0  0
   58.9920   34.6100   46.2120 C   0  0  0  0  0  0  0  0  0  0  0  0
   59.6230   35.6090   46.8580 F   0  0  0  0  0  0  0  0  0  0  0  0
   58.1460   33.8100   46.9280 C   0  0  0  0  0  0  0  0  0  0  0  0
   57.5100   32.7900   46.2400 C   0  0  0  0  0  0  0  0  0  0  0  0
   59.1530   29.8680   45.9840 N   0  0  0  0  0  0  0  0  0  0  0  0
   60.0350   30.8490   46.1370 C   0  0  0  0  0  0  0  0  0  0  0  0
   60.7560   30.5060   47.2880 C   0  0  0  0  0  0  0  0  0  0  0  0
   61.8620   31.2970   47.8730 C   0  0  0  0  0  0  0  0  0  0  0  0
   62.4770   32.2610   47.1200 C   0  0  0  0  0  0  0  0  0  0  0  0
   63.5110   33.0230   47.6190 C   0  0  0  0  0  0  0  0  0  0  0  0
   63.9190   32.7900   48.9110 C   0  0  0  0  0  0  0  0  0  0  0  0
   64.9340   33.5200   49.4400 F   0  0  0  0  0  0  0  0  0  0  0  0
   63.3330   31.8280   49.7210 C   0  0  0  0  0  0  0  0  0  0  0  0
   62.2920   31.0860   49.1670 C   0  0  0  0  0  0  0  0  0  0  0  0
   60.3090   29.3540   47.7970 N   0  0  0  0  0  0  0  0  0  0  0  0
   59.3020   28.9660   46.9660 C   0  0  0  0  0  0  0  0  0  0  0  0
   58.5580   27.8520   47.0920 N   0  0  0  0  0  0  0  0  0  0  0  0
   56.6042   26.1478   47.3721 H   0  0  0  0  0  0  0  0  0  0  0  0
   55.7960   26.5573   45.8210 H   0  0  0  0  0  0  0  0  0  0  0  0
   57.2779   25.5421   45.8210 H   0  0  0  0  0  0  0  0  0  0  0  0
   56.6493   28.3303   44.4277 H   0  0  0  0  0  0  0  0  0  0  0  0
   56.7375   31.7728   43.1309 H   0  0  0  0  0  0  0  0  0  0  0  0
   56.0785   31.1566   44.6360 H   0  0  0  0  0  0  0  0  0  0  0  0
   58.7638   33.2823   43.1424 H   0  0  0  0  0  0  0  0  0  0  0  0
   59.9376   35.1354   44.3324 H   0  0  0  0  0  0  0  0  0  0  0  0
   57.9777   33.9693   48.0033 H   0  0  0  0  0  0  0  0  0  0  0  0
   56.8204   32.1230   46.7781 H   0  0  0  0  0  0  0  0  0  0  0  0
   60.1697   31.7357   45.5001 H   0  0  0  0  0  0  0  0  0  0  0  0
   62.1363   32.4319   46.0882 H   0  0  0  0  0  0  0  0  0  0  0  0
   63.9953   33.7944   47.0022 H   0  0  0  0  0  0  0  0  0  0  0  0
   63.6745   31.6589   50.7529 H   0  0  0  0  0  0  0  0  0  0  0  0
   61.8008   30.3129   49.7762 H   0  0  0  0  0  0  0  0  0  0  0  0
   60.6440   28.8360   48.6520 H   0  0  0  0  0  0  0  0  0  0  0  0
  1  2  1  0
  2  3  2  0
  3  4  1  0
  4  5  2  0
  5  6  1  0
  6  7  1  0
  7  8  2  0
  8  9  1  0
  9 10  2  0
 10 11  1  0
 10 12  1  0
 12 13  2  0
  4 14  1  0
 14 15  1  0
 15 16  2  0
 16 17  1  0
 17 18  2  0
 18 19  1  0
 19 20  2  0
 20 21  1  0
 20 22  1  0
 22 23  2  0
 16 24  1  0
 24 25  1  0
 25 26  2  0
 26  2  1  0
 13  7  1  0
 25 14  1  0
 23 17  1  0
  1 27  1  0
  1 28  1  0
  1 29  1  0
  3 30  1  0
  6 31  1  0
  6 32  1  0
  8 33  1  0
  9 34  1  0
 12 35  1  0
 13 36  1  0
 15 37  1  0
 18 38  1  0
 19 39  1  0
 22 40  1  0
 23 41  1  0
 24 42  1  0
M  END
>  <smiles>  (14) 
Cc1cc(=NCc2ccc(F)cc2)n2cc(-c3ccc(F)cc3)[nH]c2n1

>  <score_type>  (14) 
oracle

>  <origin>  (14) 
adg

>  <m_score__min__energy>  (14) 
-7.7400000000000002

>  <m_primary>  (14) 
energy

$$$$
14:0
     RDKit          3D

 47 49  0  0  0  0  0  0  0  0999 V2000
   57.9820   26.7110   44.4830 C   0  0  0  0  0  0  0  0  0  0  0  0
   59.1980   28.0150   44.1130 S   0  0  0  0  0  0  0  0  0  0  0  0
   59.4100   28.4840   45.8400 C   0  0  0  0  0  0  0  0  0  0  0  0
   60.2330   27.6840   46.6450 C   0  0  0  0  0  0  0  0  0  0  0  0
   60.3970   27.9770   48.0000 C   0  0  0  0  0  0  0  0  0  0  0  0
   59.7320   29.0660   48.5630 C   0  0  0  0  0  0  0  0  0  0  0  0
   58.9000   29.8650   47.7760 C   0  0  0  0  0  0  0  0  0  0  0  0
   58.7260   29.5850   46.4070 C   0  0  0  0  0  0  0  0  0  0  0  0
   57.8150   30.4330   45.5990 C   0  0  0  0  0  0  0  0  0  0  0  0
   56.7170   29.9480   45.2120 O   0  0  0  0  0  0  0  0  0  0  0  0
   58.2080   31.8460   45.1950 C   0  0  1  0  0  0  0  0  0  0  0  0
   56.9830   32.7800   45.0080 C   0  0  0  0  0  0  0  0  0  0  0  0
   57.3270   34.2690   45.2020 C   0  0  0  0  0  0  0  0  0  0  0  0
   58.7990   34.5550   44.8770 C   0  0  0  0  0  0  0  0  0  0  0  0
   59.7430   33.7530   45.7100 N   0  0  1  0  0  0  0  0  0  0  0  0
   60.4070   34.5450   46.7780 C   0  0  0  0  0  0  0  0  0  0  0  0
   61.5510   33.8300   47.4740 C   0  0  0  0  0  0  0  0  0  0  0  0
   61.4340   33.4470   48.8230 C   0  0  0  0  0  0  0  0  0  0  0  0
   62.4840   32.7840   49.4650 C   0  0  0  0  0  0  0  0  0  0  0  0
   63.6530   32.4790   48.7630 C   0  0  0  0  0  0  0  0  0  0  0  0
   64.6690   31.8340   49.3870 F   0  0  0  0  0  0  0  0  0  0  0  0
   63.7680   32.8260   47.4150 C   0  0  0  0  0  0  0  0  0  0  0  0
   62.7200   33.4900   46.7690 C   0  0  0  0  0  0  0  0  0  0  0  0
   59.1760   32.4750   46.2180 C   0  0  0  0  0  0  0  0  0  0  0  0
   57.8809   26.6025   45.5730 H   0  0  0  0  0  0  0  0  0  0  0  0
   57.0084   26.9839   44.0498 H   0  0  0  0  0  0  0  0  0  0  0  0
   58.3222   25.7588   44.0498 H   0  0  0  0  0  0  0  0  0  0  0  0
   60.7530   26.8197   46.2060 H   0  0  0  0  0  0  0  0  0  0  0  0
   61.0505   27.3492   48.6235 H   0  0  0  0  0  0  0  0  0  0  0  0
   59.8633   29.2963   49.6306 H   0  0  0  0  0  0  0  0  0  0  0  0
   58.3765   30.7198   48.2290 H   0  0  0  0  0  0  0  0  0  0  0  0
   58.7134   31.7488   44.2228 H   0  0  0  0  0  0  0  0  0  0  0  0
   56.5881   32.6410   43.9908 H   0  0  0  0  0  0  0  0  0  0  0  0
   56.2430   32.5102   45.7758 H   0  0  0  0  0  0  0  0  0  0  0  0
   56.6909   34.8720   44.5373 H   0  0  0  0  0  0  0  0  0  0  0  0
   57.1504   34.5287   46.2562 H   0  0  0  0  0  0  0  0  0  0  0  0
   58.9772   34.3182   43.8177 H   0  0  0  0  0  0  0  0  0  0  0  0
   58.9855   35.6168   45.0954 H   0  0  0  0  0  0  0  0  0  0  0  0
   60.5210   33.4760   45.0630 H   0  0  0  0  0  0  0  0  0  0  0  0
   60.8022   35.4669   46.3265 H   0  0  0  0  0  0  0  0  0  0  0  0
   59.6434   34.7350   47.5467 H   0  0  0  0  0  0  0  0  0  0  0  0
   60.5099   33.6708   49.3762 H   0  0  0  0  0  0  0  0  0  0  0  0
   62.3898   32.5021   50.5241 H   0  0  0  0  0  0  0  0  0  0  0  0
   64.6846   32.5766   46.8603 H   0  0  0  0  0  0  0  0  0  0  0  0
   62.8104   33.7479   45.7035 H   0  0  0  0  0  0  0  0  0  0  0  0
   59.9981   31.7708   46.4135 H   0  0  0  0  0  0  0  0  0  0  0  0
   58.6166   32.6859   47.1414 H   0  0  0  0  0  0  0  0  0  0  0  0
  1  2  1  0
  2  3  1  0
  3  4  2  0
  4  5  1  0
  5  6  2  0
  6  7  1  0
  7  8  2  0
  8  9  1  0
  9 10  2  0
  9 11  1  0
 11 12  1  0
 12 13  1  0
 13 14  1  0
 14 15  1  0
 15 16  1  0
 16 17  1  0
 17 18  2  0
 18 19  1  0
 19 20  2  0
 20 21  1  0
 20 22  1  0
 22 23  2  0
 15 24  1  0
  8  3  1  0
 24 11  1  0
 23 17  1  0
  1 25  1  0
  1 26  1  0
  1 27  1  0
  4 28  1  0
  5 29  1  0
  6 30  1  0
  7 31  1  0
 11 32  1  6
 12 33  1  0
 12 34  1  0
 13 35  1  0
 13 36  1  0
 14 37  1  0
 14 38  1  0
 15 39  1  6
 16 40  1  0
 16 41  1  0
 18 42  1  0
 19 43  1  0
 22 44  1  0
 23 45  1  0
 24 46  1  0
 24 47  1  0
M  CHG  1  15   1
M  END
>  <UniqueID>  (15) 
13

>  <SMILES>  (15) 
CSc1ccccc1C(=O)[C@H]1CCC[N@@H+](Cc2ccc(F)cc2)C1

>  <Energy>  (15) 
63.077195460308374

>  <Genealogy>  (15) 
CSc1ccccc1C(=O)C1CCC[NH+](Cc2ccc(F)cc2)C1 (protonated)
CSc1ccccc1C(=O)[C@H]1CCC[N@@H+](Cc2ccc(F)cc2)C1 (chirality)
CSc1ccccc1C(=O)[C@H]1CCC[N@@H+](Cc2ccc(F)cc2)C1 (3D coordinates assigned)
CSc1ccccc1C(=O)[C@H]1CCC[N@@H+](Cc2ccc(F)cc2)C1 (nonaromatic ring conformer: 63.077195460308374 kcal/mol)

>  <smiles>  (15) 
CSc1ccccc1C(=O)C1CCCN(Cc2ccc(F)cc2)C1

>  <score_type>  (15) 
oracle

>  <origin>  (15) 
adg

>  <m_score__min__energy>  (15) 
-7

>  <m_primary>  (15) 
energy

$$$$
15:0
     RDKit          3D

 37 38  0  0  0  0  0  0  0  0999 V2000
   64.1110   32.8440   49.0690 Br  0  0  0  0  0  0  0  0  0  0  0  0
   62.4820   33.4230   48.2600 C   0  0  0  0  0  0  0  0  0  0  0  0
   61.4110   33.8360   49.0590 C   0  0  0  0  0  0  0  0  0  0  0  0
   60.2180   34.2630   48.4680 C   0  0  0  0  0  0  0  0  0  0  0  0
   60.0900   34.2850   47.0650 C   0  0  0  0  0  0  0  0  0  0  0  0
   58.9240   34.7210   46.4160 O   0  0  0  0  0  0  0  0  0  0  0  0
   58.5260   34.3660   45.0910 C   0  0  0  0  0  0  0  0  0  0  0  0
   57.3280   33.4030   45.0930 C   0  0  0  0  0  0  0  0  0  0  0  0
   57.6390   32.0620   44.4080 C   0  0  0  0  0  0  0  0  0  0  0  0
   57.2000   30.9190   45.2460 N   0  0  0  0  0  0  0  0  0  0  0  0
   58.1460   30.5970   46.3380 C   0  0  0  0  0  0  0  0  0  0  0  0
   59.4480   29.9440   45.8260 C   0  0  0  0  0  0  0  0  0  0  0  0
   59.2450   29.1450   44.5290 C   0  0  0  0  0  0  0  0  0  0  0  0
   57.8270   28.5900   44.4430 C   0  0  0  0  0  0  0  0  0  0  0  0
   56.7780   29.7220   44.4730 C   0  0  0  0  0  0  0  0  0  0  0  0
   61.1650   33.8590   46.2750 C   0  0  0  0  0  0  0  0  0  0  0  0
   62.3570   33.4330   46.8680 C   0  0  0  0  0  0  0  0  0  0  0  0
   61.5074   33.8249   50.1547 H   0  0  0  0  0  0  0  0  0  0  0  0
   59.3767   34.5828   49.1004 H   0  0  0  0  0  0  0  0  0  0  0  0
   58.2471   35.2800   44.5462 H   0  0  0  0  0  0  0  0  0  0  0  0
   59.3719   33.8581   44.6047 H   0  0  0  0  0  0  0  0  0  0  0  0
   57.0375   33.2059   46.1355 H   0  0  0  0  0  0  0  0  0  0  0  0
   56.5166   33.8834   44.5266 H   0  0  0  0  0  0  0  0  0  0  0  0
   57.1140   32.0218   43.4422 H   0  0  0  0  0  0  0  0  0  0  0  0
   58.7266   31.9893   44.2605 H   0  0  0  0  0  0  0  0  0  0  0  0
   58.4030   31.5269   46.8664 H   0  0  0  0  0  0  0  0  0  0  0  0
   57.6514   29.8740   47.0033 H   0  0  0  0  0  0  0  0  0  0  0  0
   60.1879   30.7360   45.6384 H   0  0  0  0  0  0  0  0  0  0  0  0
   59.7903   29.2394   46.5982 H   0  0  0  0  0  0  0  0  0  0  0  0
   59.4252   29.8055   43.6681 H   0  0  0  0  0  0  0  0  0  0  0  0
   59.9514   28.3018   44.5236 H   0  0  0  0  0  0  0  0  0  0  0  0
   57.7192   28.0266   43.5044 H   0  0  0  0  0  0  0  0  0  0  0  0
   57.6570   27.9365   45.3114 H   0  0  0  0  0  0  0  0  0  0  0  0
   56.5755   30.0331   43.4375 H   0  0  0  0  0  0  0  0  0  0  0  0
   55.8878   29.3167   44.9762 H   0  0  0  0  0  0  0  0  0  0  0  0
   61.0706   33.8596   45.1791 H   0  0  0  0  0  0  0  0  0  0  0  0
   63.1974   33.1053   46.2385 H   0  0  0  0  0  0  0  0  0  0  0  0
  1  2  1  0
  2  3  2  0
  3  4  1  0
  4  5  2  0
  5  6  1  0
  6  7  1  0
  7  8  1  0
  8  9  1  0
  9 10  1  0
 10 11  1  0
 11 12  1  0
 12 13  1  0
 13 14  1  0
 14 15  1  0
  5 16  1  0
 16 17  2  0
 17  2  1  0
 15 10  1  0
  3 18  1  0
  4 19  1  0
  7 20  1  0
  7 21  1  0
  8 22  1  0
  8 23  1  0
  9 24  1  0
  9 25  1  0
 11 26  1  0
 11 27  1  0
 12 28  1  0
 12 29  1  0
 13 30  1  0
 13 31  1  0
 14 32  1  0
 14 33  1  0
 15 34  1  0
 15 35  1  0
 16 36  1  0
 17 37  1  0
M  END
>  <UniqueID>  (16) 
14

>  <SMILES>  (16) 
Brc1ccc(OCCCN2CCCCC2)cc1

>  <Energy>  (16) 
41.22957026107853

>  <Genealogy>  (16) 
Brc1ccc(OCCCN2CCCCC2)cc1 (3D coordinates assigned)
Brc1ccc(OCCCN2CCCCC2)cc1 (nonaromatic ring conformer: 41.22957026107853 kcal/mol)

>  <smiles>  (16) 
Brc1ccc(OCCCN2CCCCC2)cc1

>  <score_type>  (16) 
oracle

>  <origin>  (16) 
adg

>  <m_score__min__energy>  (16) 
-6.5599999999999996

>  <m_primary>  (16) 
energy

$$$$
16:0
     RDKit          3D

 35 37  0  0  0  0  0  0  0  0999 V2000
   57.4750   34.8336   46.7025 H   0  0  0  0  0  0  0  0  0  0  0  0
   57.8120   33.8720   46.2880 C   0  0  0  0  0  0  0  0  0  0  0  0
   58.3520   32.9000   47.1320 C   0  0  0  0  0  0  0  0  0  0  0  0
   58.4308   33.0927   48.2121 H   0  0  0  0  0  0  0  0  0  0  0  0
   58.7920   31.6840   46.6070 C   0  0  0  0  0  0  0  0  0  0  0  0
   59.2054   30.9179   47.2794 H   0  0  0  0  0  0  0  0  0  0  0  0
   58.7120   31.4300   45.2310 C   0  0  0  0  0  0  0  0  0  0  0  0
   59.1840   30.1940   44.7610 O   0  0  0  0  0  0  0  0  0  0  0  0
   58.7130   28.9370   45.1690 C   0  0  0  0  0  0  0  0  0  0  0  0
   59.6570   27.9560   45.4960 C   0  0  0  0  0  0  0  0  0  0  0  0
   60.7301   28.1840   45.4155 H   0  0  0  0  0  0  0  0  0  0  0  0
   59.2490   26.6920   45.9230 C   0  0  0  0  0  0  0  0  0  0  0  0
   60.0008   25.9353   46.1916 H   0  0  0  0  0  0  0  0  0  0  0  0
   57.8860   26.3830   46.0110 C   0  0  0  0  0  0  0  0  0  0  0  0
   57.3830   24.7800   46.5400 S   0  0  0  0  0  0  0  0  0  0  0  0
   55.8990   24.6080   46.3730 O   0  0  0  0  0  0  0  0  0  0  0  0
   57.7350   24.6130   47.9900 O   0  0  0  0  0  0  0  0  0  0  0  0
   58.2000   23.5640   45.6120 N   0  0  0  0  0  0  0  0  0  0  0  0
   57.6320   22.8590   44.6810 C   0  0  0  0  0  0  0  0  0  0  0  0
   56.3590   23.3040   43.7030 S   0  0  0  0  0  0  0  0  0  0  0  0
   56.2680   21.8900   42.8320 N   0  0  0  0  0  0  0  0  0  0  0  0
   57.2530   21.0940   43.3370 C   0  0  0  0  0  0  0  0  0  0  0  0
   57.4302   20.0816   42.9450 H   0  0  0  0  0  0  0  0  0  0  0  0
   58.0110   21.6090   44.3520 N   0  0  0  0  0  0  0  0  0  0  0  0
   58.7910   21.0900   44.8150 H   0  0  0  0  0  0  0  0  0  0  0  0
   56.9330   27.3500   45.6680 C   0  0  0  0  0  0  0  0  0  0  0  0
   55.8616   27.1107   45.7380 H   0  0  0  0  0  0  0  0  0  0  0  0
   57.3360   28.6210   45.2360 C   0  0  0  0  0  0  0  0  0  0  0  0
   56.3250   29.5580   44.8100 C   0  0  0  0  0  0  0  0  0  0  0  0
   55.5130   30.3090   44.4700 N   0  0  0  0  0  0  0  0  0  0  0  0
   58.1370   32.4050   44.3800 C   0  0  0  0  0  0  0  0  0  0  0  0
   57.9350   32.1580   42.9730 C   0  0  0  0  0  0  0  0  0  0  0  0
   57.7730   31.9590   41.8450 N   0  0  0  0  0  0  0  0  0  0  0  0
   57.6990   33.6250   44.9170 C   0  0  0  0  0  0  0  0  0  0  0  0
   57.2650   34.3900   44.2564 H   0  0  0  0  0  0  0  0  0  0  0  0
  1  2  1  0
  2  3  2  0
  3  4  1  0
  3  5  1  0
  5  6  1  0
  5  7  2  0
  7  8  1  0
  8  9  1  0
  9 10  2  0
 10 11  1  0
 10 12  1  0
 12 13  1  0
 12 14  2  0
 14 15  1  0
 15 16  2  0
 15 17  2  0
 15 18  1  0
 18 19  2  0
 19 20  1  0
 20 21  1  0
 21 22  2  0
 22 23  1  0
 22 24  1  0
 24 25  1  0
 14 26  1  0
 26 27  1  0
 26 28  2  0
 28 29  1  0
 29 30  3  0
  7 31  1  0
 31 32  1  0
 32 33  3  0
 31 34  2  0
 34 35  1  0
 34  2  1  0
 28  9  1  0
 24 19  1  0
M  END
>  <UniqueID>  (17) 
15

>  <SMILES>  (17) 
N#Cc1ccccc1Oc1ccc(S(=O)(=O)/N=c2/[nH]cns2)cc1C#N

>  <Energy>  (17) 
88.01650656611844

>  <Genealogy>  (17) 
N#Cc1ccccc1Oc1ccc(S(=O)(=O)/N=c2/[nH]cns2)cc1C#N (cis-trans isomerization)
N#Cc1ccccc1Oc1ccc(S(=O)(=O)/N=c2/[nH]cns2)cc1C#N (3D coordinates assigned)
N#Cc1ccccc1Oc1ccc(S(=O)(=O)/N=c2/[nH]cns2)cc1C#N (optimized conformer: 88.01650656611844 kcal/mol)

>  <smiles>  (17) 
N#Cc1ccccc1Oc1ccc(S(=O)(=O)N=c2[nH]cns2)cc1C#N

>  <score_type>  (17) 
oracle

>  <origin>  (17) 
adg

>  <m_score__min__energy>  (17) 
-8.9700000000000006

>  <m_primary>  (17) 
energy

$$$$
17:0
     RDKit          3D

 22 24  0  0  0  0  0  0  0  0999 V2000
   58.5270   27.0690   42.5560 O   0  0  0  0  0  0  0  0  0  0  0  0
   57.9570   27.0300   43.6710 C   0  0  0  0  0  0  0  0  0  0  0  0
   57.5140   25.9000   44.2500 N   0  0  0  0  0  0  0  0  0  0  0  0
   56.9030   25.9170   45.4610 C   0  0  0  0  0  0  0  0  0  0  0  0
   56.3720   24.5280   46.1460 S   0  0  0  0  0  0  0  0  0  0  0  0
   56.7040   27.0500   46.1560 N   0  0  0  0  0  0  0  0  0  0  0  0
   57.1400   28.2060   45.5980 C   0  0  0  0  0  0  0  0  0  0  0  0
   57.1120   29.5080   45.9960 N   0  0  0  0  0  0  0  0  0  0  0  0
   57.6910   30.2670   45.0520 C   0  0  0  0  0  0  0  0  0  0  0  0
   57.8260   31.7280   45.1710 C   0  0  0  0  0  0  0  0  0  0  0  0
   57.7680   32.5420   46.2440 C   0  0  0  0  0  0  0  0  0  0  0  0
   57.9270   33.8650   46.0710 C   0  0  0  0  0  0  0  0  0  0  0  0
   58.1360   34.3030   44.8250 C   0  0  0  0  0  0  0  0  0  0  0  0
   58.1200   32.7880   43.7630 S   0  0  0  0  0  0  0  0  0  0  0  0
   58.1010   29.5060   44.0390 N   0  0  0  0  0  0  0  0  0  0  0  0
   57.7670   28.2210   44.3600 C   0  0  0  0  0  0  0  0  0  0  0  0
   57.6630   25.0130   43.7210 H   0  0  0  0  0  0  0  0  0  0  0  0
   56.2350   27.0760   47.0890 H   0  0  0  0  0  0  0  0  0  0  0  0
   57.5928   32.1285   47.2482 H   0  0  0  0  0  0  0  0  0  0  0  0
   57.8868   34.5611   46.9218 H   0  0  0  0  0  0  0  0  0  0  0  0
   58.2857   35.3433   44.5003 H   0  0  0  0  0  0  0  0  0  0  0  0
   58.5770   29.8590   43.1920 H   0  0  0  0  0  0  0  0  0  0  0  0
  1  2  2  0
  2  3  1  0
  3  4  1  0
  4  5  2  0
  4  6  1  0
  6  7  1  0
  7  8  1  0
  8  9  2  0
  9 10  1  0
 10 11  2  0
 11 12  1  0
 12 13  2  0
 13 14  1  0
  9 15  1  0
 15 16  1  0
 16  2  1  0
 16  7  2  0
 14 10  1  0
  3 17  1  0
  6 18  1  0
 11 19  1  0
 12 20  1  0
 13 21  1  0
 15 22  1  0
M  END
>  <smiles>  (18) 
O=c1[nH]c(=S)[nH]c2nc(-c3cccs3)[nH]c12

>  <score_type>  (18) 
oracle

>  <origin>  (18) 
adg

>  <m_score__min__energy>  (18) 
-5.9000000000000004

>  <m_primary>  (18) 
energy

$$$$
18:0
     RDKit          3D

 42 44  0  0  0  0  0  0  0  0999 V2000
   60.0480   28.6320   45.2780 C   0  0  0  0  0  0  0  0  0  0  0  0
   60.7200   29.7000   46.1360 C   0  0  0  0  0  0  0  0  0  0  0  0
   59.6870   30.5130   46.9220 C   0  0  0  0  0  0  0  0  0  0  0  0
   59.4080   31.8300   46.2130 C   0  0  0  0  0  0  0  0  0  0  0  0
   60.1890   32.9230   46.4340 C   0  0  0  0  0  0  0  0  0  0  0  0
   61.3160   32.9260   47.3840 C   0  0  0  0  0  0  0  0  0  0  0  0
   62.5370   32.2980   47.0950 C   0  0  0  0  0  0  0  0  0  0  0  0
   63.6330   32.4850   47.9440 C   0  0  0  0  0  0  0  0  0  0  0  0
   63.5250   33.3290   49.0550 C   0  0  0  0  0  0  0  0  0  0  0  0
   62.3180   33.9840   49.3230 C   0  0  0  0  0  0  0  0  0  0  0  0
   61.2140   33.7760   48.4900 C   0  0  0  0  0  0  0  0  0  0  0  0
   59.6420   34.5880   48.8090 S   0  0  0  0  0  0  0  0  0  0  0  0
   59.4820   35.2980   47.1170 C   0  0  0  0  0  0  0  0  0  0  0  0
   59.8080   34.3140   45.9440 C   0  0  2  0  0  0  0  0  0  0  0  0
   58.6990   34.2870   44.8750 C   0  0  0  0  0  0  0  0  0  0  0  0
   57.6050   33.3110   45.2760 C   0  0  0  0  0  0  0  0  0  0  0  0
   58.1910   31.9750   45.4310 N   0  0  0  0  0  0  0  0  0  0  0  0
   57.5560   30.8320   44.7540 C   0  0  0  0  0  0  0  0  0  0  0  0
   57.3590   31.1310   43.2710 C   0  0  0  0  0  0  0  0  0  0  0  0
   59.5760   27.8818   45.9294 H   0  0  0  0  0  0  0  0  0  0  0  0
   59.2816   29.1005   44.6430 H   0  0  0  0  0  0  0  0  0  0  0  0
   60.8020   28.1438   44.6430 H   0  0  0  0  0  0  0  0  0  0  0  0
   61.4058   29.2118   46.8440 H   0  0  0  0  0  0  0  0  0  0  0  0
   61.2686   30.3844   45.4722 H   0  0  0  0  0  0  0  0  0  0  0  0
   58.7532   29.9368   46.9996 H   0  0  0  0  0  0  0  0  0  0  0  0
   60.0827   30.7221   47.9268 H   0  0  0  0  0  0  0  0  0  0  0  0
   62.6321   31.6606   46.2036 H   0  0  0  0  0  0  0  0  0  0  0  0
   64.5816   31.9676   47.7379 H   0  0  0  0  0  0  0  0  0  0  0  0
   64.3899   33.4776   49.7183 H   0  0  0  0  0  0  0  0  0  0  0  0
   62.2376   34.6607   50.1865 H   0  0  0  0  0  0  0  0  0  0  0  0
   58.4459   35.6453   46.9910 H   0  0  0  0  0  0  0  0  0  0  0  0
   60.2282   36.1037   47.0539 H   0  0  0  0  0  0  0  0  0  0  0  0
   60.7038   34.7132   45.4457 H   0  0  0  0  0  0  0  0  0  0  0  0
   58.2679   35.2939   44.7735 H   0  0  0  0  0  0  0  0  0  0  0  0
   59.1328   33.9651   43.9168 H   0  0  0  0  0  0  0  0  0  0  0  0
   57.1569   33.6301   46.2286 H   0  0  0  0  0  0  0  0  0  0  0  0
   56.8251   33.2874   44.5006 H   0  0  0  0  0  0  0  0  0  0  0  0
   58.1977   29.9452   44.8623 H   0  0  0  0  0  0  0  0  0  0  0  0
   56.5735   30.6478   45.2132 H   0  0  0  0  0  0  0  0  0  0  0  0
   56.7570   32.0447   43.1580 H   0  0  0  0  0  0  0  0  0  0  0  0
   58.3390   31.2761   42.7929 H   0  0  0  0  0  0  0  0  0  0  0  0
   56.8390   30.2878   42.7929 H   0  0  0  0  0  0  0  0  0  0  0  0
  1  2  1  0
  2  3  1  0
  3  4  1  0
  4  5  2  0
  5  6  1  0
  6  7  2  0
  7  8  1  0
  8  9  2  0
  9 10  1  0
 10 11  2  0
 11 12  1  0
 12 13  1  0
 13 14  1  0
 14 15  1  0
 15 16  1  0
 16 17  1  0
 17 18  1  0
 18 19  1  0
 17  4  1  0
 14  5  1  0
 11  6  1  0
  1 20  1  0
  1 21  1  0
  1 22  1  0
  2 23  1  0
  2 24  1  0
  3 25  1  0
  3 26  1  0
  7 27  1  0
  8 28  1  0
  9 29  1  0
 10 30  1  0
 13 31  1  0
 13 32  1  0
 14 33  1  6
 15 34  1  0
 15 35  1  0
 16 36  1  0
 16 37  1  0
 18 38  1  0
 18 39  1  0
 19 40  1  0
 19 41  1  0
 19 42  1  0
M  END
>  <UniqueID>  (19) 
16

>  <SMILES>  (19) 
CCCC1=C2c3ccccc3SC[C@@H]2CCN1CC

>  <Energy>  (19) 
54.821517499878475

>  <Genealogy>  (19) 
CCCC1=C2c3ccccc3SC[C@@H]2CCN1CC (chirality)
CCCC1=C2c3ccccc3SC[C@@H]2CCN1CC (3D coordinates assigned)
CCCC1=C2c3ccccc3SC[C@@H]2CCN1CC (nonaromatic ring conformer: 54.821517499878475 kcal/mol)

>  <smiles>  (19) 
CCCC1=C2c3ccccc3SCC2CCN1CC

>  <score_type>  (19) 
oracle

>  <origin>  (19) 
adg

>  <m_score__min__energy>  (19) 
-7.3300000000000001

>  <m_primary>  (19) 
energy

$$$$
19:0
     RDKit          3D

 30 31  0  0  0  0  0  0  0  0999 V2000
   58.5160   32.7120   48.5910 C   0  0  0  0  0  0  0  0  0  0  0  0
   58.6430   33.1310   47.1570 C   0  0  0  0  0  0  0  0  0  0  0  0
   59.1680   34.3850   46.8260 C   0  0  0  0  0  0  0  0  0  0  0  0
   59.2390   34.7770   45.4910 C   0  0  0  0  0  0  0  0  0  0  0  0
   58.7790   33.9140   44.4960 C   0  0  0  0  0  0  0  0  0  0  0  0
   58.2620   32.6900   44.8190 N   0  0  0  0  0  0  0  0  0  0  0  0
   57.7710   31.7920   43.7630 C   0  0  0  0  0  0  0  0  0  0  0  0
   57.1150   30.5710   44.3580 C   0  0  0  0  0  0  0  0  0  0  0  0
   55.8650   30.5880   44.5190 O   0  0  0  0  0  0  0  0  0  0  0  0
   57.8910   29.3800   44.7980 C   0  0  0  0  0  0  0  0  0  0  0  0
   57.2130   28.2310   45.2480 C   0  0  0  0  0  0  0  0  0  0  0  0
   57.9240   27.1050   45.6720 C   0  0  0  0  0  0  0  0  0  0  0  0
   59.3200   27.1090   45.6490 C   0  0  0  0  0  0  0  0  0  0  0  0
   60.0070   28.2370   45.1980 C   0  0  0  0  0  0  0  0  0  0  0  0
   59.3000   29.3650   44.7720 C   0  0  0  0  0  0  0  0  0  0  0  0
   58.1730   32.3000   46.1290 C   0  0  0  0  0  0  0  0  0  0  0  0
   58.7727   33.5588   49.2445 H   0  0  0  0  0  0  0  0  0  0  0  0
   57.4815   32.3954   48.7903 H   0  0  0  0  0  0  0  0  0  0  0  0
   59.2006   31.8744   48.7903 H   0  0  0  0  0  0  0  0  0  0  0  0
   59.5240   35.0600   47.6183 H   0  0  0  0  0  0  0  0  0  0  0  0
   59.6547   35.7597   45.2234 H   0  0  0  0  0  0  0  0  0  0  0  0
   58.8327   34.2213   43.4412 H   0  0  0  0  0  0  0  0  0  0  0  0
   57.0373   32.3301   43.1448 H   0  0  0  0  0  0  0  0  0  0  0  0
   58.6256   31.4690   43.1504 H   0  0  0  0  0  0  0  0  0  0  0  0
   56.1132   28.2195   45.2660 H   0  0  0  0  0  0  0  0  0  0  0  0
   57.3830   26.2144   46.0243 H   0  0  0  0  0  0  0  0  0  0  0  0
   59.8783   26.2232   45.9863 H   0  0  0  0  0  0  0  0  0  0  0  0
   61.1068   28.2384   45.1778 H   0  0  0  0  0  0  0  0  0  0  0  0
   59.8481   30.2487   44.4133 H   0  0  0  0  0  0  0  0  0  0  0  0
   57.7284   31.3251   46.3776 H   0  0  0  0  0  0  0  0  0  0  0  0
  1  2  1  0
  2  3  2  0
  3  4  1  0
  4  5  2  0
  5  6  1  0
  6  7  1  0
  7  8  1  0
  8  9  2  0
  8 10  1  0
 10 11  2  0
 11 12  1  0
 12 13  2  0
 13 14  1  0
 14 15  2  0
  6 16  2  0
 16  2  1  0
 15 10  1  0
  1 17  1  0
  1 18  1  0
  1 19  1  0
  3 20  1  0
  4 21  1  0
  5 22  1  0
  7 23  1  0
  7 24  1  0
 11 25  1  0
 12 26  1  0
 13 27  1  0
 14 28  1  0
 15 29  1  0
 16 30  1  0
M  CHG  1   6   1
M  END
>  <UniqueID>  (20) 
17

>  <SMILES>  (20) 
Cc1ccc[n+](CC(=O)c2ccccc2)c1

>  <Energy>  (20) 
31.727858046731974

>  <Genealogy>  (20) 
Cc1ccc[n+](CC(=O)c2ccccc2)c1 (3D coordinates assigned)
Cc1ccc[n+](CC(=O)c2ccccc2)c1 (optimized conformer: 31.727858046731974 kcal/mol)

>  <smiles>  (20) 
Cc1ccc[n+](CC(=O)c2ccccc2)c1

>  <score_type>  (20) 
oracle

>  <origin>  (20) 
adg

>  <m_score__min__energy>  (20) 
-4.9100000000000001

>  <m_primary>  (20) 
energy

$$$$
20:0
     RDKit          3D

 39 41  0  0  0  0  0  0  0  0999 V2000
   59.2389   35.5336   46.5110 H   0  0  0  0  0  0  0  0  0  0  0  0
   59.1250   34.4560   46.3220 C   0  0  0  0  0  0  0  0  0  0  0  0
   59.9500   33.4930   46.7770 N   0  0  0  0  0  0  0  0  0  0  0  0
   59.4980   32.3260   46.3430 N   0  0  0  0  0  0  0  0  0  0  0  0
   60.1810   31.0670   46.6200 C   0  0  0  0  0  0  0  0  0  0  0  0
   60.2588   30.9237   47.7078 H   0  0  0  0  0  0  0  0  0  0  0  0
   59.6102   30.2357   46.1805 H   0  0  0  0  0  0  0  0  0  0  0  0
   61.1891   31.0923   46.1805 H   0  0  0  0  0  0  0  0  0  0  0  0
   58.3720   32.5170   45.6140 C   0  0  0  0  0  0  0  0  0  0  0  0
   57.5780   31.4680   44.9350 C   0  0  0  0  0  0  0  0  0  0  0  0
   57.1660   30.3540   45.6000 N   0  0  0  0  0  0  0  0  0  0  0  0
   56.4880   29.5080   44.7990 C   0  0  0  0  0  0  0  0  0  0  0  0
   55.9650   28.4030   45.2450 N   0  0  0  0  0  0  0  0  0  0  0  0
   56.6740   27.3010   45.8340 C   0  0  0  0  0  0  0  0  0  0  0  0
   58.0250   27.4220   46.2100 C   0  0  0  0  0  0  0  0  0  0  0  0
   58.5628   28.3629   46.0220 H   0  0  0  0  0  0  0  0  0  0  0  0
   58.6860   26.3550   46.8200 C   0  0  0  0  0  0  0  0  0  0  0  0
   59.7458   26.4515   47.0983 H   0  0  0  0  0  0  0  0  0  0  0  0
   58.0030   25.1660   47.0770 C   0  0  0  0  0  0  0  0  0  0  0  0
   58.5288   24.3218   47.5469 H   0  0  0  0  0  0  0  0  0  0  0  0
   56.6530   25.0450   46.7390 C   0  0  0  0  0  0  0  0  0  0  0  0
   56.1173   24.1083   46.9524 H   0  0  0  0  0  0  0  0  0  0  0  0
   55.9740   26.1170   46.1260 C   0  0  0  0  0  0  0  0  0  0  0  0
   54.6130   26.0460   45.7760 O   0  0  0  0  0  0  0  0  0  0  0  0
   53.8560   24.8460   45.6160 C   0  0  0  0  0  0  0  0  0  0  0  0
   52.8481   25.1006   45.2564 H   0  0  0  0  0  0  0  0  0  0  0  0
   53.7976   24.3336   46.5876 H   0  0  0  0  0  0  0  0  0  0  0  0
   54.5250   23.9140   44.6110 C   0  0  0  0  0  0  0  0  0  0  0  0
   55.0843   23.1348   45.1495 H   0  0  0  0  0  0  0  0  0  0  0  0
   53.7570   23.4438   43.9793 H   0  0  0  0  0  0  0  0  0  0  0  0
   55.2162   24.4913   43.9793 H   0  0  0  0  0  0  0  0  0  0  0  0
   56.3590   30.1110   43.2300 S   0  0  0  0  0  0  0  0  0  0  0  0
   57.2260   31.5080   43.5860 C   0  0  0  0  0  0  0  0  0  0  0  0
   57.4724   32.3130   42.8780 H   0  0  0  0  0  0  0  0  0  0  0  0
   58.1140   33.8770   45.5810 C   0  0  0  0  0  0  0  0  0  0  0  0
   57.0050   34.5910   44.8760 C   0  0  0  0  0  0  0  0  0  0  0  0
   56.3221   35.0307   45.6178 H   0  0  0  0  0  0  0  0  0  0  0  0
   57.4248   35.3889   44.2458 H   0  0  0  0  0  0  0  0  0  0  0  0
   56.4524   33.8786   44.2458 H   0  0  0  0  0  0  0  0  0  0  0  0
  1  2  1  0
  2  3  2  0
  3  4  1  0
  4  5  1  0
  5  6  1  0
  5  7  1  0
  5  8  1  0
  4  9  1  0
  9 10  1  0
 10 11  1  0
 11 12  1  0
 12 13  2  0
 13 14  1  0
 14 15  2  0
 15 16  1  0
 15 17  1  0
 17 18  1  0
 17 19  2  0
 19 20  1  0
 19 21  1  0
 21 22  1  0
 21 23  2  0
 23 24  1  0
 24 25  1  0
 25 26  1  0
 25 27  1  0
 25 28  1  0
 28 29  1  0
 28 30  1  0
 28 31  1  0
 12 32  1  0
 32 33  1  0
 33 34  1  0
  9 35  2  0
 35 36  1  0
 36 37  1  0
 36 38  1  0
 36 39  1  0
 35  2  1  0
 33 10  2  0
 23 14  1  0
M  CHG  1  11  -1
M  END
>  <UniqueID>  (21) 
18

>  <SMILES>  (21) 
CCOc1ccccc1/N=c1/[n-]c(-c2c(C)cnn2C)cs1

>  <Energy>  (21) 
108.82159841678252

>  <Genealogy>  (21) 
CCOc1ccccc1N=c1[n-]c(-c2c(C)cnn2C)cs1 (protonated)
CCOc1ccccc1/N=c1/[n-]c(-c2c(C)cnn2C)cs1 (cis-trans isomerization)
CCOc1ccccc1/N=c1/[n-]c(-c2c(C)cnn2C)cs1 (3D coordinates assigned)
CCOc1ccccc1/N=c1/[n-]c(-c2c(C)cnn2C)cs1 (optimized conformer: 108.82159841678252 kcal/mol)

>  <smiles>  (21) 
CCOc1ccccc1N=c1[nH]c(-c2c(C)cnn2C)cs1

>  <score_type>  (21) 
oracle

>  <origin>  (21) 
adg

>  <m_score__min__energy>  (21) 
-9.9100000000000001

>  <m_primary>  (21) 
energy

$$$$
21:0
     RDKit          3D

 47 50  0  0  0  0  0  0  0  0999 V2000
   56.2600   29.3690   42.5820 Cl  0  0  0  0  0  0  0  0  0  0  0  0
   57.2150   30.1500   43.8360 C   0  0  0  0  0  0  0  0  0  0  0  0
   57.4500   31.5230   43.7310 C   0  0  0  0  0  0  0  0  0  0  0  0
   58.2330   32.1820   44.6800 C   0  0  0  0  0  0  0  0  0  0  0  0
   58.8010   31.4740   45.7510 C   0  0  0  0  0  0  0  0  0  0  0  0
   59.6310   32.1920   46.7510 C   0  0  0  0  0  0  0  0  0  0  0  0
   59.0630   33.0640   47.7010 C   0  0  0  0  0  0  0  0  0  0  0  0
   59.8620   33.6940   48.6020 N   0  0  0  0  0  0  0  0  0  0  0  0
   61.2050   33.5000   48.6110 C   0  0  0  0  0  0  0  0  0  0  0  0
   62.0180   34.1550   49.5420 C   0  0  0  0  0  0  0  0  0  0  0  0
   63.3990   33.9360   49.5370 C   0  0  0  0  0  0  0  0  0  0  0  0
   63.9700   33.0630   48.6030 C   0  0  0  0  0  0  0  0  0  0  0  0
   63.1630   32.4050   47.6690 C   0  0  0  0  0  0  0  0  0  0  0  0
   61.7800   32.6210   47.6700 C   0  0  0  0  0  0  0  0  0  0  0  0
   60.9790   31.9920   46.7720 N   0  0  0  0  0  0  0  0  0  0  0  0
   58.5490   30.0950   45.8650 C   0  0  0  0  0  0  0  0  0  0  0  0
   57.7650   29.4190   44.9090 C   0  0  0  0  0  0  0  0  0  0  0  0
   57.5130   28.0050   45.0280 N   0  0  0  0  0  0  0  0  0  0  0  0
   58.4060   27.0700   45.7170 C   0  0  0  0  0  0  0  0  0  0  0  0
   57.7030   25.7290   45.9950 C   0  0  0  0  0  0  0  0  0  0  0  0
   56.6610   25.4360   44.9870 N   0  0  0  0  0  0  0  0  0  0  0  0
   57.2390   24.8260   43.7630 C   0  0  0  0  0  0  0  0  0  0  0  0
   57.0130   23.3040   43.7200 C   0  0  0  0  0  0  0  0  0  0  0  0
   55.6420   22.9310   43.7520 O   0  0  0  0  0  0  0  0  0  0  0  0
   54.8180   23.8480   44.4590 C   0  0  0  0  0  0  0  0  0  0  0  0
   55.5590   24.6260   45.5580 C   0  0  0  0  0  0  0  0  0  0  0  0
   57.0147   32.0890   42.8942 H   0  0  0  0  0  0  0  0  0  0  0  0
   58.4064   33.2644   44.5881 H   0  0  0  0  0  0  0  0  0  0  0  0
   57.9763   33.2343   47.7133 H   0  0  0  0  0  0  0  0  0  0  0  0
   61.5717   34.8412   50.2768 H   0  0  0  0  0  0  0  0  0  0  0  0
   64.0386   34.4510   50.2689 H   0  0  0  0  0  0  0  0  0  0  0  0
   65.0569   32.8940   48.6037 H   0  0  0  0  0  0  0  0  0  0  0  0
   63.6138   31.7199   46.9359 H   0  0  0  0  0  0  0  0  0  0  0  0
   58.9703   29.5357   46.7133 H   0  0  0  0  0  0  0  0  0  0  0  0
   56.6880   27.5930   44.5370 H   0  0  0  0  0  0  0  0  0  0  0  0
   59.2894   26.8880   45.0874 H   0  0  0  0  0  0  0  0  0  0  0  0
   58.6997   27.5147   46.6793 H   0  0  0  0  0  0  0  0  0  0  0  0
   58.4522   24.9238   45.9771 H   0  0  0  0  0  0  0  0  0  0  0  0
   57.2173   25.7952   46.9797 H   0  0  0  0  0  0  0  0  0  0  0  0
   56.7652   25.2812   42.8808 H   0  0  0  0  0  0  0  0  0  0  0  0
   58.3235   25.0101   43.7692 H   0  0  0  0  0  0  0  0  0  0  0  0
   57.4584   22.9124   42.7936 H   0  0  0  0  0  0  0  0  0  0  0  0
   57.4829   22.8827   44.6209 H   0  0  0  0  0  0  0  0  0  0  0  0
   54.4065   24.5710   43.7393 H   0  0  0  0  0  0  0  0  0  0  0  0
   54.0344   23.2577   44.9565 H   0  0  0  0  0  0  0  0  0  0  0  0
   54.8484   25.2939   46.0668 H   0  0  0  0  0  0  0  0  0  0  0  0
   55.9877   23.9042   46.2689 H   0  0  0  0  0  0  0  0  0  0  0  0
  1  2  1  0
  2  3  2  0
  3  4  1  0
  4  5  2  0
  5  6  1  0
  6  7  2  0
  7  8  1  0
  8  9  2  0
  9 10  1  0
 10 11  2  0
 11 12  1  0
 12 13  2  0
 13 14  1  0
 14 15  2  0
  5 16  1  0
 16 17  2  0
 17 18  1  0
 18 19  1  0
 19 20  1  0
 20 21  1  0
 21 22  1  0
 22 23  1  0
 23 24  1  0
 24 25  1  0
 25 26  1  0
 17  2  1  0
 26 21  1  0
 15  6  1  0
 14  9  1  0
  3 27  1  0
  4 28  1  0
  7 29  1  0
 10 30  1  0
 11 31  1  0
 12 32  1  0
 13 33  1  0
 16 34  1  0
 18 35  1  0
 19 36  1  0
 19 37  1  0
 20 38  1  0
 20 39  1  0
 22 40  1  0
 22 41  1  0
 23 42  1  0
 23 43  1  0
 25 44  1  0
 25 45  1  0
 26 46  1  0
 26 47  1  0
M  END
>  <UniqueID>  (22) 
19

>  <SMILES>  (22) 
Clc1ccc(-c2cnc3ccccc3n2)cc1NCCN1CCOCC1

>  <Energy>  (22) 
72.1225166102459

>  <Genealogy>  (22) 
Clc1ccc(-c2cnc3ccccc3n2)cc1NCCN1CCOCC1 (3D coordinates assigned)
Clc1ccc(-c2cnc3ccccc3n2)cc1NCCN1CCOCC1 (nonaromatic ring conformer: 72.1225166102459 kcal/mol)

>  <smiles>  (22) 
Clc1ccc(-c2cnc3ccccc3n2)cc1NCCN1CCOCC1

>  <score_type>  (22) 
oracle

>  <origin>  (22) 
adg

>  <m_score__min__energy>  (22) 
-7.8499999999999996

>  <m_primary>  (22) 
energy

$$$$
22:0
     RDKit          3D

 61 63  0  0  0  0  0  0  0  0999 V2000
   66.0530   30.8400   51.2220 C   0  0  0  0  0  0  0  0  0  0  0  0
   64.7000   31.5400   51.1610 C   0  0  0  0  0  0  0  0  0  0  0  0
   64.8270   33.0900   50.2770 S   0  0  0  0  0  0  0  0  0  0  0  0
   65.0120   34.2130   51.2610 O   0  0  0  0  0  0  0  0  0  0  0  0
   66.0200   33.0580   49.3610 O   0  0  0  0  0  0  0  0  0  0  0  0
   63.3620   33.3500   49.3260 C   0  0  0  0  0  0  0  0  0  0  0  0
   63.3960   33.2770   47.9270 C   0  0  0  0  0  0  0  0  0  0  0  0
   62.2470   33.5350   47.1770 C   0  0  0  0  0  0  0  0  0  0  0  0
   61.0430   33.8700   47.8170 C   0  0  0  0  0  0  0  0  0  0  0  0
   59.8700   34.1920   47.0460 N   0  0  0  0  0  0  0  0  0  0  0  0
   60.0200   34.6640   45.6590 C   0  0  0  0  0  0  0  0  0  0  0  0
   58.8390   34.2040   44.7840 C   0  0  0  0  0  0  0  0  0  0  0  0
   58.3780   32.8020   45.2230 C   0  0  0  0  0  0  0  0  0  0  0  0
   57.3450   32.2250   44.2350 C   0  0  0  0  0  0  0  0  0  0  0  0
   56.5460   31.2160   44.8510 O   0  0  0  0  0  0  0  0  0  0  0  0
   56.4230   29.9120   44.3510 C   0  0  0  0  0  0  0  0  0  0  0  0
   56.6930   29.6520   43.1440 O   0  0  0  0  0  0  0  0  0  0  0  0
   56.0110   28.8500   45.2170 N   0  0  0  0  0  0  0  0  0  0  0  0
   56.6620   27.5770   45.3160 C   0  0  0  0  0  0  0  0  0  0  0  0
   56.0070   26.5490   46.0060 C   0  0  0  0  0  0  0  0  0  0  0  0
   56.5900   25.2820   46.1100 C   0  0  0  0  0  0  0  0  0  0  0  0
   57.8370   25.0360   45.5320 C   0  0  0  0  0  0  0  0  0  0  0  0
   58.5130   26.0590   44.8680 C   0  0  0  0  0  0  0  0  0  0  0  0
   57.9540   27.3410   44.7810 C   0  0  0  0  0  0  0  0  0  0  0  0
   58.7110   28.3800   44.1410 N   0  0  0  0  0  0  0  0  0  0  0  0
   59.5970   29.1270   44.7460 C   0  0  0  0  0  0  0  0  0  0  0  0
   60.9880   28.9110   44.4940 N   0  0  0  0  0  0  0  0  0  0  0  0
   59.2140   30.1630   45.6650 N   0  0  0  0  0  0  0  0  0  0  0  0
   57.8280   32.8340   46.6720 C   0  0  0  0  0  0  0  0  0  0  0  0
   58.5200   33.8990   47.5500 C   0  0  0  0  0  0  0  0  0  0  0  0
   61.0140   33.9410   49.2200 C   0  0  0  0  0  0  0  0  0  0  0  0
   62.1640   33.6820   49.9690 C   0  0  0  0  0  0  0  0  0  0  0  0
   66.3415   30.6907   52.2729 H   0  0  0  0  0  0  0  0  0  0  0  0
   65.9841   29.8644   50.7185 H   0  0  0  0  0  0  0  0  0  0  0  0
   66.8095   31.4598   50.7185 H   0  0  0  0  0  0  0  0  0  0  0  0
   63.9796   30.8883   50.6449 H   0  0  0  0  0  0  0  0  0  0  0  0
   64.3625   31.7458   52.1875 H   0  0  0  0  0  0  0  0  0  0  0  0
   64.3343   33.0147   47.4163 H   0  0  0  0  0  0  0  0  0  0  0  0
   62.2852   33.4755   46.0793 H   0  0  0  0  0  0  0  0  0  0  0  0
   60.0618   35.7632   45.6565 H   0  0  0  0  0  0  0  0  0  0  0  0
   60.9466   34.2400   45.2448 H   0  0  0  0  0  0  0  0  0  0  0  0
   58.0054   34.9133   44.8938 H   0  0  0  0  0  0  0  0  0  0  0  0
   59.1594   34.1676   43.7323 H   0  0  0  0  0  0  0  0  0  0  0  0
   59.2506   32.1323   45.2126 H   0  0  0  0  0  0  0  0  0  0  0  0
   56.6903   33.0372   43.8861 H   0  0  0  0  0  0  0  0  0  0  0  0
   57.8866   31.7722   43.3914 H   0  0  0  0  0  0  0  0  0  0  0  0
   55.0276   26.7395   46.4691 H   0  0  0  0  0  0  0  0  0  0  0  0
   56.0656   24.4784   46.6477 H   0  0  0  0  0  0  0  0  0  0  0  0
   58.2865   24.0344   45.6005 H   0  0  0  0  0  0  0  0  0  0  0  0
   59.4923   25.8582   44.4091 H   0  0  0  0  0  0  0  0  0  0  0  0
   58.5510   28.5150   43.1170 H   0  0  0  0  0  0  0  0  0  0  0  0
   61.3030   28.2050   43.8000 H   0  0  0  0  0  0  0  0  0  0  0  0
   61.7100   29.5030   44.9630 H   0  0  0  0  0  0  0  0  0  0  0  0
   58.2310   30.2620   46.0050 H   0  0  0  0  0  0  0  0  0  0  0  0
   59.9390   30.8030   46.0650 H   0  0  0  0  0  0  0  0  0  0  0  0
   56.7510   33.0548   46.6346 H   0  0  0  0  0  0  0  0  0  0  0  0
   58.0270   31.8511   47.1241 H   0  0  0  0  0  0  0  0  0  0  0  0
   57.9216   34.8219   47.5369 H   0  0  0  0  0  0  0  0  0  0  0  0
   58.6024   33.5116   48.5762 H   0  0  0  0  0  0  0  0  0  0  0  0
   60.0770   34.2030   49.7331 H   0  0  0  0  0  0  0  0  0  0  0  0
   62.1281   33.7391   51.0669 H   0  0  0  0  0  0  0  0  0  0  0  0
  1  2  1  0
  2  3  1  0
  3  4  2  0
  3  5  2  0
  3  6  1  0
  6  7  2  0
  7  8  1  0
  8  9  2  0
  9 10  1  0
 10 11  1  0
 11 12  1  0
 12 13  1  0
 13 14  1  0
 14 15  1  0
 15 16  1  0
 16 17  2  0
 16 18  1  0
 18 19  1  0
 19 20  2  0
 20 21  1  0
 21 22  2  0
 22 23  1  0
 23 24  2  0
 24 25  1  0
 25 26  2  3
 26 27  1  0
 26 28  1  0
 13 29  1  0
 29 30  1  0
  9 31  1  0
 31 32  2  0
 32  6  1  0
 30 10  1  0
 24 19  1  0
  1 33  1  0
  1 34  1  0
  1 35  1  0
  2 36  1  0
  2 37  1  0
  7 38  1  0
  8 39  1  0
 11 40  1  0
 11 41  1  0
 12 42  1  0
 12 43  1  0
 13 44  1  0
 14 45  1  0
 14 46  1  0
 20 47  1  0
 21 48  1  0
 22 49  1  0
 23 50  1  0
 25 51  1  0
 27 52  1  0
 27 53  1  0
 28 54  1  0
 28 55  1  0
 29 56  1  0
 29 57  1  0
 30 58  1  0
 30 59  1  0
 31 60  1  0
 32 61  1  0
M  CHG  2  18  -1  25   1
M  END
>  <UniqueID>  (23) 
20

>  <SMILES>  (23) 
CCS(=O)(=O)c1ccc(N2CCC(COC(=O)[N-]c3ccccc3[NH+]=C(N)N)CC2)cc1

>  <Energy>  (23) 
70.11246028542105

>  <Genealogy>  (23) 
CCS(=O)(=O)c1ccc(N2CCC(COC(=O)[N-]c3ccccc3[NH+]=C(N)N)CC2)cc1 (protonated)
CCS(=O)(=O)c1ccc(N2CCC(COC(=O)[N-]c3ccccc3[NH+]=C(N)N)CC2)cc1 (3D coordinates assigned)
CCS(=O)(=O)c1ccc(N2CCC(COC(=O)[N-]c3ccccc3[NH+]=C(N)N)CC2)cc1 (nonaromatic ring conformer: 70.11246028542105 kcal/mol)

>  <smiles>  (23) 
CCS(=O)(=O)c1ccc(N2CCC(COC(=O)Nc3ccccc3N=C(N)N)CC2)cc1

>  <score_type>  (23) 
oracle

>  <origin>  (23) 
adg

>  <m_score__min__energy>  (23) 
-9.7100000000000009

>  <m_primary>  (23) 
energy

$$$$
23:0
     RDKit          3D

 39 41  0  0  0  0  0  0  0  0999 V2000
   56.2110   23.6480   46.4490 C   0  0  0  0  0  0  0  0  0  0  0  0
   56.2070   24.9090   47.1080 O   0  0  0  0  0  0  0  0  0  0  0  0
   56.2740   26.1220   46.4170 C   0  0  0  0  0  0  0  0  0  0  0  0
   55.2260   26.6760   45.9910 O   0  0  0  0  0  0  0  0  0  0  0  0
   57.5770   26.7500   46.1630 C   0  0  0  0  0  0  0  0  0  0  0  0
   58.7190   26.0990   46.1490 O   0  0  0  0  0  0  0  0  0  0  0  0
   59.6960   26.9580   45.9430 C   0  0  0  0  0  0  0  0  0  0  0  0
   59.1860   28.2370   45.8170 C   0  0  0  0  0  0  0  0  0  0  0  0
   57.8250   28.0880   45.9460 C   0  0  0  0  0  0  0  0  0  0  0  0
   56.8600   29.1380   45.9290 N   0  0  0  0  0  0  0  0  0  0  0  0
   56.8200   30.2650   44.6210 S   0  0  0  0  0  0  0  0  0  0  0  0
   55.3920   30.6460   44.3430 O   0  0  0  0  0  0  0  0  0  0  0  0
   57.3980   29.6400   43.3820 O   0  0  0  0  0  0  0  0  0  0  0  0
   57.7520   31.6870   45.0760 C   0  0  0  0  0  0  0  0  0  0  0  0
   57.3350   32.9530   44.6490 C   0  0  0  0  0  0  0  0  0  0  0  0
   58.1010   34.0810   44.9480 C   0  0  0  0  0  0  0  0  0  0  0  0
   59.2870   33.9520   45.6730 C   0  0  0  0  0  0  0  0  0  0  0  0
   59.7230   32.6870   46.1090 C   0  0  0  0  0  0  0  0  0  0  0  0
   60.9900   32.5490   46.8750 C   0  0  0  0  0  0  0  0  0  0  0  0
   61.2230   31.4150   47.6760 C   0  0  0  0  0  0  0  0  0  0  0  0
   62.4130   31.2880   48.3980 C   0  0  0  0  0  0  0  0  0  0  0  0
   63.3850   32.2890   48.3290 C   0  0  0  0  0  0  0  0  0  0  0  0
   63.1670   33.4200   47.5370 C   0  0  0  0  0  0  0  0  0  0  0  0
   64.1100   34.3920   47.4730 F   0  0  0  0  0  0  0  0  0  0  0  0
   61.9780   33.5500   46.8120 C   0  0  0  0  0  0  0  0  0  0  0  0
   58.9450   31.5550   45.8010 C   0  0  0  0  0  0  0  0  0  0  0  0
   56.2136   22.8427   47.1983 H   0  0  0  0  0  0  0  0  0  0  0  0
   55.3131   23.5604   45.8196 H   0  0  0  0  0  0  0  0  0  0  0  0
   57.1094   23.5661   45.8196 H   0  0  0  0  0  0  0  0  0  0  0  0
   60.7625   26.6960   45.8803 H   0  0  0  0  0  0  0  0  0  0  0  0
   59.7459   29.1690   45.6502 H   0  0  0  0  0  0  0  0  0  0  0  0
   56.4017   33.0593   44.0766 H   0  0  0  0  0  0  0  0  0  0  0  0
   57.7692   35.0743   44.6114 H   0  0  0  0  0  0  0  0  0  0  0  0
   59.8850   34.8456   45.9051 H   0  0  0  0  0  0  0  0  0  0  0  0
   60.4624   30.6225   47.7341 H   0  0  0  0  0  0  0  0  0  0  0  0
   62.5845   30.3983   49.0217 H   0  0  0  0  0  0  0  0  0  0  0  0
   64.3212   32.1873   48.8975 H   0  0  0  0  0  0  0  0  0  0  0  0
   61.8136   34.4409   46.1880 H   0  0  0  0  0  0  0  0  0  0  0  0
   59.2754   30.5592   46.1316 H   0  0  0  0  0  0  0  0  0  0  0  0
  1  2  1  0
  2  3  1  0
  3  4  2  0
  3  5  1  0
  5  6  1  0
  6  7  1  0
  7  8  2  0
  8  9  1  0
  9 10  1  0
 10 11  1  0
 11 12  2  0
 11 13  2  0
 11 14  1  0
 14 15  2  0
 15 16  1  0
 16 17  2  0
 17 18  1  0
 18 19  1  0
 19 20  2  0
 20 21  1  0
 21 22  2  0
 22 23  1  0
 23 24  1  0
 23 25  2  0
 18 26  2  0
  9  5  2  0
 26 14  1  0
 25 19  1  0
  1 27  1  0
  1 28  1  0
  1 29  1  0
  7 30  1  0
  8 31  1  0
 15 32  1  0
 16 33  1  0
 17 34  1  0
 20 35  1  0
 21 36  1  0
 22 37  1  0
 25 38  1  0
 26 39  1  0
M  CHG  1  10  -1
M  END
>  <UniqueID>  (24) 
21

>  <SMILES>  (24) 
COC(=O)c1occc1[N-]S(=O)(=O)c1cccc(-c2cccc(F)c2)c1

>  <Energy>  (24) 
78.13205261425009

>  <Genealogy>  (24) 
COC(=O)c1occc1[N-]S(=O)(=O)c1cccc(-c2cccc(F)c2)c1 (protonated)
COC(=O)c1occc1[N-]S(=O)(=O)c1cccc(-c2cccc(F)c2)c1 (3D coordinates assigned)
COC(=O)c1occc1[N-]S(=O)(=O)c1cccc(-c2cccc(F)c2)c1 (optimized conformer: 78.13205261425009 kcal/mol)

>  <smiles>  (24) 
COC(=O)c1occc1NS(=O)(=O)c1cccc(-c2cccc(F)c2)c1

>  <score_type>  (24) 
oracle

>  <origin>  (24) 
adg

>  <m_score__min__energy>  (24) 
-10.1

>  <m_primary>  (24) 
energy

$$$$
24:0
     RDKit          3D

 45 49  0  0  0  0  0  0  0  0999 V2000
   56.8450   34.8710   45.0670 O   0  0  0  0  0  0  0  0  0  0  0  0
   57.6210   33.8770   45.0770 C   0  0  0  0  0  0  0  0  0  0  0  0
   57.3390   32.7800   44.1950 N   0  0  0  0  0  0  0  0  0  0  0  0
   57.2200   31.4010   44.5730 C   0  0  0  0  0  0  0  0  0  0  0  0
   58.2300   30.7430   45.2940 C   0  0  0  0  0  0  0  0  0  0  0  0
   58.0870   29.3950   45.6370 C   0  0  0  0  0  0  0  0  0  0  0  0
   56.9410   28.6780   45.2510 C   0  0  0  0  0  0  0  0  0  0  0  0
   56.7880   27.2520   45.6160 C   0  0  0  0  0  0  0  0  0  0  0  0
   55.5740   26.6540   45.7650 N   0  0  0  0  0  0  0  0  0  0  0  0
   55.9050   25.3950   46.0880 C   0  0  0  0  0  0  0  0  0  0  0  0
   55.0470   24.3310   46.3590 C   0  0  0  0  0  0  0  0  0  0  0  0
   55.6300   23.0900   46.6800 C   0  0  0  0  0  0  0  0  0  0  0  0
   57.0350   22.9490   46.7190 C   0  0  0  0  0  0  0  0  0  0  0  0
   57.8690   24.0470   46.4380 C   0  0  0  0  0  0  0  0  0  0  0  0
   57.2570   25.2590   46.1260 C   0  0  0  0  0  0  0  0  0  0  0  0
   57.8480   26.4250   45.8300 N   0  0  0  0  0  0  0  0  0  0  0  0
   55.9470   29.3350   44.5060 C   0  0  0  0  0  0  0  0  0  0  0  0
   56.0900   30.6830   44.1660 C   0  0  0  0  0  0  0  0  0  0  0  0
   58.7560   33.8510   46.0280 C   0  0  0  0  0  0  0  0  0  0  0  0
   60.0490   34.1800   45.5900 C   0  0  0  0  0  0  0  0  0  0  0  0
   61.1260   34.1550   46.4800 C   0  0  0  0  0  0  0  0  0  0  0  0
   60.9330   33.8100   47.8300 C   0  0  0  0  0  0  0  0  0  0  0  0
   62.0460   33.7790   48.7460 N   0  0  0  0  0  0  0  0  0  0  0  0
   63.2900   33.3210   48.4880 C   0  0  0  0  0  0  0  0  0  0  0  0
   64.0840   33.4550   49.6080 C   0  0  0  0  0  0  0  0  0  0  0  0
   63.2910   34.0160   50.5880 C   0  0  0  0  0  0  0  0  0  0  0  0
   62.0450   34.2050   50.0280 C   0  0  0  0  0  0  0  0  0  0  0  0
   59.6350   33.4980   48.2680 C   0  0  0  0  0  0  0  0  0  0  0  0
   58.5570   33.5240   47.3790 C   0  0  0  0  0  0  0  0  0  0  0  0
   59.1371   31.2903   45.5900 H   0  0  0  0  0  0  0  0  0  0  0  0
   58.8773   28.8917   46.2133 H   0  0  0  0  0  0  0  0  0  0  0  0
   53.9547   24.4558   46.3235 H   0  0  0  0  0  0  0  0  0  0  0  0
   54.9874   22.2252   46.9017 H   0  0  0  0  0  0  0  0  0  0  0  0
   57.4799   21.9749   46.9706 H   0  0  0  0  0  0  0  0  0  0  0  0
   58.9646   23.9518   46.4638 H   0  0  0  0  0  0  0  0  0  0  0  0
   55.0495   28.7841   44.1880 H   0  0  0  0  0  0  0  0  0  0  0  0
   55.3089   31.1830   43.5744 H   0  0  0  0  0  0  0  0  0  0  0  0
   60.2152   34.4593   44.5391 H   0  0  0  0  0  0  0  0  0  0  0  0
   62.1347   34.4076   46.1214 H   0  0  0  0  0  0  0  0  0  0  0  0
   63.6214   32.9026   47.5262 H   0  0  0  0  0  0  0  0  0  0  0  0
   65.1424   33.1703   49.7016 H   0  0  0  0  0  0  0  0  0  0  0  0
   63.5938   34.2642   51.6160 H   0  0  0  0  0  0  0  0  0  0  0  0
   61.1783   34.6386   50.5484 H   0  0  0  0  0  0  0  0  0  0  0  0
   59.4655   33.2305   49.3214 H   0  0  0  0  0  0  0  0  0  0  0  0
   57.5455   33.2866   47.7402 H   0  0  0  0  0  0  0  0  0  0  0  0
  1  2  2  0
  2  3  1  0
  3  4  1  0
  4  5  2  0
  5  6  1  0
  6  7  2  0
  7  8  1  0
  8  9  2  0
  9 10  1  0
 10 11  2  0
 11 12  1  0
 12 13  2  0
 13 14  1  0
 14 15  2  0
 15 16  1  0
  7 17  1  0
 17 18  2  0
  2 19  1  0
 19 20  2  0
 20 21  1  0
 21 22  2  0
 22 23  1  0
 23 24  1  0
 24 25  2  0
 25 26  1  0
 26 27  2  0
 22 28  1  0
 28 29  2  0
 18  4  1  0
 29 19  1  0
 16  8  1  0
 27 23  1  0
 15 10  1  0
  5 30  1  0
  6 31  1  0
 11 32  1  0
 12 33  1  0
 13 34  1  0
 14 35  1  0
 17 36  1  0
 18 37  1  0
 20 38  1  0
 21 39  1  0
 24 40  1  0
 25 41  1  0
 26 42  1  0
 27 43  1  0
 28 44  1  0
 29 45  1  0
M  CHG  2   3  -1  16  -1
M  END
>  <UniqueID>  (25) 
22

>  <SMILES>  (25) 
O=C([N-]c1ccc(-c2nc3ccccc3[n-]2)cc1)c1ccc(-n2cccc2)cc1

>  <Energy>  (25) 
123.32597242838264

>  <Genealogy>  (25) 
O=C([N-]c1ccc(-c2nc3ccccc3[n-]2)cc1)c1ccc(-n2cccc2)cc1 (protonated)
O=C([N-]c1ccc(-c2nc3ccccc3[n-]2)cc1)c1ccc(-n2cccc2)cc1 (3D coordinates assigned)
O=C([N-]c1ccc(-c2nc3ccccc3[n-]2)cc1)c1ccc(-n2cccc2)cc1 (optimized conformer: 123.32597242838264 kcal/mol)

>  <smiles>  (25) 
O=C(Nc1ccc(-c2nc3ccccc3[nH]2)cc1)c1ccc(-n2cccc2)cc1

>  <score_type>  (25) 
oracle

>  <origin>  (25) 
adg

>  <m_score__min__energy>  (25) 
-11.109999999999999

>  <m_primary>  (25) 
energy

$$$$
25:0
     RDKit          3D

 45 47  0  0  0  0  0  0  0  0999 V2000
   57.2416   27.3888   46.9646 H   0  0  0  0  0  0  0  0  0  0  0  0
   57.2260   27.9080   45.9950 C   0  0  0  0  0  0  0  0  0  0  0  0
   56.9690   29.2390   45.9390 N   0  0  0  0  0  0  0  0  0  0  0  0
   56.9420   29.9150   44.7610 C   0  0  0  0  0  0  0  0  0  0  0  0
   56.6890   31.1930   44.7780 N   0  0  0  0  0  0  0  0  0  0  0  0
   57.3350   32.2120   43.9540 C   0  0  0  0  0  0  0  0  0  0  0  0
   56.6344   32.5553   43.1785 H   0  0  0  0  0  0  0  0  0  0  0  0
   58.2293   31.7855   43.4761 H   0  0  0  0  0  0  0  0  0  0  0  0
   57.7340   33.3740   44.8190 C   0  0  0  0  0  0  0  0  0  0  0  0
   57.1110   34.4620   44.6860 O   0  0  0  0  0  0  0  0  0  0  0  0
   58.8150   33.2730   45.7730 N   0  0  0  0  0  0  0  0  0  0  0  0
   59.2230   31.9430   46.2760 C   0  0  0  0  0  0  0  0  0  0  0  0
   59.0199   31.1994   45.4913 H   0  0  0  0  0  0  0  0  0  0  0  0
   60.2915   32.0124   46.5280 H   0  0  0  0  0  0  0  0  0  0  0  0
   58.4910   31.5060   47.5580 C   0  0  0  0  0  0  0  0  0  0  0  0
   57.4106   31.6407   47.4013 H   0  0  0  0  0  0  0  0  0  0  0  0
   58.7679   30.4568   47.7382 H   0  0  0  0  0  0  0  0  0  0  0  0
   58.8990   32.2950   48.8190 C   0  0  0  0  0  0  0  0  0  0  0  0
   57.9882   32.7331   49.2532 H   0  0  0  0  0  0  0  0  0  0  0  0
   59.4023   31.5708   49.4765 H   0  0  0  0  0  0  0  0  0  0  0  0
   59.9110   33.4330   48.5950 C   0  0  0  0  0  0  0  0  0  0  0  0
   60.2488   33.7924   49.5782 H   0  0  0  0  0  0  0  0  0  0  0  0
   60.7284   33.0139   47.9899 H   0  0  0  0  0  0  0  0  0  0  0  0
   59.3510   34.6300   47.8110 C   0  0  0  0  0  0  0  0  0  0  0  0
   58.2909   34.7479   48.0799 H   0  0  0  0  0  0  0  0  0  0  0  0
   59.9714   35.4953   48.0876 H   0  0  0  0  0  0  0  0  0  0  0  0
   59.4440   34.5070   46.2780 C   0  0  0  0  0  0  0  0  0  0  0  0
   58.9394   35.3722   45.8231 H   0  0  0  0  0  0  0  0  0  0  0  0
   60.5100   34.4740   46.0087 H   0  0  0  0  0  0  0  0  0  0  0  0
   57.1890   29.2050   43.5710 C   0  0  0  0  0  0  0  0  0  0  0  0
   57.1751   29.7271   42.6029 H   0  0  0  0  0  0  0  0  0  0  0  0
   57.4450   27.8700   43.6240 N   0  0  0  0  0  0  0  0  0  0  0  0
   57.6460   27.3710   42.7280 H   0  0  0  0  0  0  0  0  0  0  0  0
   57.4720   27.1960   44.8100 C   0  0  0  0  0  0  0  0  0  0  0  0
   57.7450   25.7380   44.8440 C   0  0  0  0  0  0  0  0  0  0  0  0
   56.9740   24.8510   44.0700 C   0  0  0  0  0  0  0  0  0  0  0  0
   56.1667   25.2418   43.4331 H   0  0  0  0  0  0  0  0  0  0  0  0
   57.2270   23.4770   44.1050 C   0  0  0  0  0  0  0  0  0  0  0  0
   56.6205   22.7917   43.4947 H   0  0  0  0  0  0  0  0  0  0  0  0
   58.2480   22.9720   44.9130 C   0  0  0  0  0  0  0  0  0  0  0  0
   58.4427   21.8897   44.9416 H   0  0  0  0  0  0  0  0  0  0  0  0
   59.0220   23.8420   45.6850 C   0  0  0  0  0  0  0  0  0  0  0  0
   59.8276   23.4442   46.3197 H   0  0  0  0  0  0  0  0  0  0  0  0
   58.7740   25.2180   45.6520 C   0  0  0  0  0  0  0  0  0  0  0  0
   59.3869   25.8984   46.2614 H   0  0  0  0  0  0  0  0  0  0  0  0
  1  2  1  0
  2  3  1  0
  3  4  1  0
  4  5  2  0
  5  6  1  0
  6  7  1  0
  6  8  1  0
  6  9  1  0
  9 10  2  0
  9 11  1  0
 11 12  1  0
 12 13  1  0
 12 14  1  0
 12 15  1  0
 15 16  1  0
 15 17  1  0
 15 18  1  0
 18 19  1  0
 18 20  1  0
 18 21  1  0
 21 22  1  0
 21 23  1  0
 21 24  1  0
 24 25  1  0
 24 26  1  0
 24 27  1  0
 27 28  1  0
 27 29  1  0
  4 30  1  0
 30 31  1  0
 30 32  2  0
 32 33  1  0
 32 34  1  0
 34 35  1  0
 35 36  2  0
 36 37  1  0
 36 38  1  0
 38 39  1  0
 38 40  2  0
 40 41  1  0
 40 42  1  0
 42 43  1  0
 42 44  2  0
 44 45  1  0
 34  2  2  0
 44 35  1  0
 27 11  1  0
M  CHG  2   3  -1  32   1
M  END
>  <UniqueID>  (26) 
23

>  <SMILES>  (26) 
O=C(C/N=c1\c[nH+]c(-c2ccccc2)c[n-]1)N1CCCCCC1

>  <Energy>  (26) 
57.917059174477714

>  <Genealogy>  (26) 
O=C(CN=c1c[nH+]c(-c2ccccc2)c[n-]1)N1CCCCCC1 (protonated)
O=C(C/N=c1\c[nH+]c(-c2ccccc2)c[n-]1)N1CCCCCC1 (cis-trans isomerization)
O=C(C/N=c1\c[nH+]c(-c2ccccc2)c[n-]1)N1CCCCCC1 (3D coordinates assigned)
O=C(C/N=c1\c[nH+]c(-c2ccccc2)c[n-]1)N1CCCCCC1 (nonaromatic ring conformer: 57.917059174477714 kcal/mol)

>  <smiles>  (26) 
O=C(CN=c1cnc(-c2ccccc2)c[nH]1)N1CCCCCC1

>  <score_type>  (26) 
oracle

>  <origin>  (26) 
adg

>  <m_score__min__energy>  (26) 
-5.3499999999999996

>  <m_primary>  (26) 
energy

$$$$
26:0
     RDKit          3D

 23 23  0  0  0  0  0  0  0  0999 V2000
   59.3010   34.5830   47.6570 C   0  0  0  0  0  0  0  0  0  0  0  0
   58.9070   33.6980   46.5590 N   0  0  0  0  0  0  0  0  0  0  0  0
   59.2250   32.3690   46.6120 C   0  0  0  0  0  0  0  0  0  0  0  0
   58.8270   31.5030   45.5910 C   0  0  0  0  0  0  0  0  0  0  0  0
   58.0800   31.9960   44.5150 C   0  0  0  0  0  0  0  0  0  0  0  0
   57.6670   31.0820   43.3900 C   0  0  0  0  0  0  0  0  0  0  0  0
   56.2830   30.4800   43.6350 C   0  0  0  0  0  0  0  0  0  0  0  0
   56.2710   29.7230   44.8820 N   0  0  0  0  0  0  0  0  0  0  0  0
   57.0240   28.7130   45.0650 C   0  0  0  0  0  0  0  0  0  0  0  0
   57.9790   27.4370   45.2980 S   0  0  0  0  0  0  0  0  0  0  0  0
   57.7540   33.3580   44.4810 C   0  0  0  0  0  0  0  0  0  0  0  0
   58.1700   34.1940   45.5200 C   0  0  0  0  0  0  0  0  0  0  0  0
   59.0834   34.0942   48.6181 H   0  0  0  0  0  0  0  0  0  0  0  0
   60.3783   34.7946   47.5889 H   0  0  0  0  0  0  0  0  0  0  0  0
   58.7373   35.5251   47.5889 H   0  0  0  0  0  0  0  0  0  0  0  0
   59.7988   31.9789   47.4656 H   0  0  0  0  0  0  0  0  0  0  0  0
   59.0995   30.4381   45.6324 H   0  0  0  0  0  0  0  0  0  0  0  0
   57.6457   31.6567   42.4523 H   0  0  0  0  0  0  0  0  0  0  0  0
   58.3948   30.2594   43.3293 H   0  0  0  0  0  0  0  0  0  0  0  0
   55.5411   31.2899   43.6955 H   0  0  0  0  0  0  0  0  0  0  0  0
   56.0364   29.8027   42.8041 H   0  0  0  0  0  0  0  0  0  0  0  0
   57.1736   33.7669   43.6408 H   0  0  0  0  0  0  0  0  0  0  0  0
   57.9022   35.2607   45.5019 H   0  0  0  0  0  0  0  0  0  0  0  0
  1  2  1  0
  2  3  2  0
  3  4  1  0
  4  5  2  0
  5  6  1  0
  6  7  1  0
  7  8  1  0
  8  9  2  0
  9 10  2  0
  5 11  1  0
 11 12  2  0
 12  2  1  0
  1 13  1  0
  1 14  1  0
  1 15  1  0
  3 16  1  0
  4 17  1  0
  6 18  1  0
  6 19  1  0
  7 20  1  0
  7 21  1  0
 11 22  1  0
 12 23  1  0
M  CHG  1   2   1
M  END
>  <UniqueID>  (27) 
24

>  <SMILES>  (27) 
C[n+]1ccc(CCN=C=S)cc1

>  <Energy>  (27) 
17.161958047068115

>  <Genealogy>  (27) 
C[n+]1ccc(CCN=C=S)cc1 (3D coordinates assigned)
C[n+]1ccc(CCN=C=S)cc1 (optimized conformer: 17.161958047068115 kcal/mol)

>  <smiles>  (27) 
C[n+]1ccc(CCN=C=S)cc1

>  <score_type>  (27) 
oracle

>  <origin>  (27) 
adg

>  <m_score__min__energy>  (27) 
-3.4900000000000002

>  <m_primary>  (27) 
energy

$$$$
27:0
     RDKit          3D

 46 47  0  0  0  0  0  0  0  0999 V2000
   55.6830   24.9240   45.4080 C   0  0  0  0  0  0  0  0  0  0  0  0
   55.6290   26.2290   45.9750 O   0  0  0  0  0  0  0  0  0  0  0  0
   56.7160   27.1120   46.0360 C   0  0  0  0  0  0  0  0  0  0  0  0
   56.9030   28.1470   45.1010 C   0  0  0  0  0  0  0  0  0  0  0  0
   58.0000   29.0050   45.2080 C   0  0  0  0  0  0  0  0  0  0  0  0
   58.9150   28.8620   46.2610 C   0  0  0  0  0  0  0  0  0  0  0  0
   60.3000   29.9570   46.3930 S   0  0  0  0  0  0  0  0  0  0  0  0
   61.2300   29.6600   45.2500 O   0  0  0  0  0  0  0  0  0  0  0  0
   61.0470   29.6660   47.6660 O   0  0  0  0  0  0  0  0  0  0  0  0
   59.8710   31.7260   46.3740 C   0  0  1  0  0  0  0  0  0  0  0  0
   58.3500   31.9730   46.6000 C   0  0  0  0  0  0  0  0  0  0  0  0
   57.6390   32.3660   45.3340 C   0  0  0  0  0  0  0  0  0  0  0  0
   56.7980   31.6310   44.8420 O   0  0  0  0  0  0  0  0  0  0  0  0
   60.8140   32.5910   47.1740 N   0  0  0  0  0  0  0  0  0  0  0  0
   61.7020   33.4720   46.3640 C   0  0  0  0  0  0  0  0  0  0  0  0
   63.1730   33.5760   46.8380 C   0  0  0  0  0  0  0  0  0  0  0  0
   63.4210   32.8720   48.1780 C   0  0  0  0  0  0  0  0  0  0  0  0
   62.7240   33.5550   49.3630 C   0  0  0  0  0  0  0  0  0  0  0  0
   61.2930   33.0670   49.6450 C   0  0  0  0  0  0  0  0  0  0  0  0
   60.3440   33.2130   48.4430 C   0  0  0  0  0  0  0  0  0  0  0  0
   58.7470   27.8070   47.1710 C   0  0  0  0  0  0  0  0  0  0  0  0
   57.6510   26.9480   47.0640 C   0  0  0  0  0  0  0  0  0  0  0  0
   55.7140   24.1753   46.2133 H   0  0  0  0  0  0  0  0  0  0  0  0
   54.7910   24.7571   44.7863 H   0  0  0  0  0  0  0  0  0  0  0  0
   56.5857   24.8314   44.7863 H   0  0  0  0  0  0  0  0  0  0  0  0
   56.1815   28.2810   44.2816 H   0  0  0  0  0  0  0  0  0  0  0  0
   58.1473   29.7987   44.4608 H   0  0  0  0  0  0  0  0  0  0  0  0
   60.0446   32.0849   45.3488 H   0  0  0  0  0  0  0  0  0  0  0  0
   57.8959   31.0494   46.9881 H   0  0  0  0  0  0  0  0  0  0  0  0
   58.2473   32.8033   47.3141 H   0  0  0  0  0  0  0  0  0  0  0  0
   57.8789   33.3232   44.8479 H   0  0  0  0  0  0  0  0  0  0  0  0
   61.4920   31.8780   47.5410 H   0  0  0  0  0  0  0  0  0  0  0  0
   61.7072   33.0879   45.3332 H   0  0  0  0  0  0  0  0  0  0  0  0
   61.2860   34.4852   46.4655 H   0  0  0  0  0  0  0  0  0  0  0  0
   63.8203   33.1175   46.0759 H   0  0  0  0  0  0  0  0  0  0  0  0
   63.3988   34.6432   46.9797 H   0  0  0  0  0  0  0  0  0  0  0  0
   63.0500   31.8391   48.1033 H   0  0  0  0  0  0  0  0  0  0  0  0
   64.5033   32.9118   48.3706 H   0  0  0  0  0  0  0  0  0  0  0  0
   63.3292   33.3762   50.2640 H   0  0  0  0  0  0  0  0  0  0  0  0
   62.6391   34.6192   49.0978 H   0  0  0  0  0  0  0  0  0  0  0  0
   61.3371   32.0044   49.9261 H   0  0  0  0  0  0  0  0  0  0  0  0
   60.8906   33.6971   50.4519 H   0  0  0  0  0  0  0  0  0  0  0  0
   59.3833   32.7495   48.7118 H   0  0  0  0  0  0  0  0  0  0  0  0
   60.2757   34.2924   48.2423 H   0  0  0  0  0  0  0  0  0  0  0  0
   59.4835   27.6556   47.9739 H   0  0  0  0  0  0  0  0  0  0  0  0
   57.5217   26.1355   47.7942 H   0  0  0  0  0  0  0  0  0  0  0  0
  1  2  1  0
  2  3  1  0
  3  4  2  0
  4  5  1  0
  5  6  2  0
  6  7  1  0
  7  8  2  0
  7  9  2  0
  7 10  1  0
 10 11  1  0
 11 12  1  0
 12 13  2  0
 10 14  1  0
 14 15  1  0
 15 16  1  0
 16 17  1  0
 17 18  1  0
 18 19  1  0
 19 20  1  0
  6 21  1  0
 21 22  2  0
 22  3  1  0
 20 14  1  0
  1 23  1  0
  1 24  1  0
  1 25  1  0
  4 26  1  0
  5 27  1  0
 10 28  1  6
 11 29  1  0
 11 30  1  0
 12 31  1  0
 14 32  1  0
 15 33  1  0
 15 34  1  0
 16 35  1  0
 16 36  1  0
 17 37  1  0
 17 38  1  0
 18 39  1  0
 18 40  1  0
 19 41  1  0
 19 42  1  0
 20 43  1  0
 20 44  1  0
 21 45  1  0
 22 46  1  0
M  CHG  1  14   1
M  END
>  <UniqueID>  (28) 
25

>  <SMILES>  (28) 
COc1ccc(S(=O)(=O)[C@@H](CC=O)[NH+]2CCCCCC2)cc1

>  <Energy>  (28) 
68.13744704954911

>  <Genealogy>  (28) 
COc1ccc(S(=O)(=O)C(CC=O)[NH+]2CCCCCC2)cc1 (protonated)
COc1ccc(S(=O)(=O)[C@@H](CC=O)[NH+]2CCCCCC2)cc1 (chirality)
COc1ccc(S(=O)(=O)[C@@H](CC=O)[NH+]2CCCCCC2)cc1 (3D coordinates assigned)
COc1ccc(S(=O)(=O)[C@@H](CC=O)[NH+]2CCCCCC2)cc1 (nonaromatic ring conformer: 68.13744704954911 kcal/mol)

>  <smiles>  (28) 
COc1ccc(S(=O)(=O)C(CC=O)N2CCCCCC2)cc1

>  <score_type>  (28) 
oracle

>  <origin>  (28) 
adg

>  <m_score__min__energy>  (28) 
-3.5899999999999999

>  <m_primary>  (28) 
energy

$$$$
28:0
     RDKit          3D

 42 44  0  0  0  0  0  0  0  0999 V2000
   59.9416   26.3268   45.9677 H   0  0  0  0  0  0  0  0  0  0  0  0
   59.0060   26.8670   45.7610 C   0  0  0  0  0  0  0  0  0  0  0  0
   59.0520   28.1400   45.1850 C   0  0  0  0  0  0  0  0  0  0  0  0
   60.6220   28.8660   44.8640 Cl  0  0  0  0  0  0  0  0  0  0  0  0
   57.8530   28.8210   44.9000 C   0  0  0  0  0  0  0  0  0  0  0  0
   57.8590   30.1230   44.2980 N   0  0  0  0  0  0  0  0  0  0  0  0
   58.0890   31.3010   44.8270 C   0  0  0  0  0  0  0  0  0  0  0  0
   57.9870   32.4170   43.9710 C   0  0  0  0  0  0  0  0  0  0  0  0
   57.7850   32.2580   42.5490 C   0  0  0  0  0  0  0  0  0  0  0  0
   57.6220   32.1300   41.4100 N   0  0  0  0  0  0  0  0  0  0  0  0
   57.9980   33.7070   44.5020 C   0  0  0  0  0  0  0  0  0  0  0  0
   57.9044   34.5735   43.8309 H   0  0  0  0  0  0  0  0  0  0  0  0
   58.1230   33.9020   45.8370 N   0  0  0  0  0  0  0  0  0  0  0  0
   58.0980   34.8850   46.1930 H   0  0  0  0  0  0  0  0  0  0  0  0
   58.3250   32.8660   46.6980 C   0  0  0  0  0  0  0  0  0  0  0  0
   58.5150   33.1310   48.0620 C   0  0  0  0  0  0  0  0  0  0  0  0
   58.4263   34.1629   48.4326 H   0  0  0  0  0  0  0  0  0  0  0  0
   58.8170   32.0950   48.9600 C   0  0  0  0  0  0  0  0  0  0  0  0
   58.9930   32.3260   50.3330 O   0  0  0  0  0  0  0  0  0  0  0  0
   59.6470   33.4650   50.8840 C   0  0  0  0  0  0  0  0  0  0  0  0
   59.6156   33.4103   51.9822 H   0  0  0  0  0  0  0  0  0  0  0  0
   60.6941   33.4850   50.5477 H   0  0  0  0  0  0  0  0  0  0  0  0
   59.1364   34.3794   50.5477 H   0  0  0  0  0  0  0  0  0  0  0  0
   58.9720   30.7910   48.4810 C   0  0  0  0  0  0  0  0  0  0  0  0
   59.3160   29.7830   49.3960 O   0  0  0  0  0  0  0  0  0  0  0  0
   60.0160   28.5880   49.0610 C   0  0  0  0  0  0  0  0  0  0  0  0
   60.3194   28.0701   49.9828 H   0  0  0  0  0  0  0  0  0  0  0  0
   59.3595   27.9317   48.4708 H   0  0  0  0  0  0  0  0  0  0  0  0
   60.9095   28.8396   48.4708 H   0  0  0  0  0  0  0  0  0  0  0  0
   58.7870   30.5230   47.1120 C   0  0  0  0  0  0  0  0  0  0  0  0
   58.9677   29.5060   46.7338 H   0  0  0  0  0  0  0  0  0  0  0  0
   58.3740   31.5320   46.2120 C   0  0  0  0  0  0  0  0  0  0  0  0
   56.6280   28.2450   45.2570 C   0  0  0  0  0  0  0  0  0  0  0  0
   55.6942   28.8003   45.0850 H   0  0  0  0  0  0  0  0  0  0  0  0
   56.5800   26.9620   45.8340 C   0  0  0  0  0  0  0  0  0  0  0  0
   55.3670   26.3420   46.1750 O   0  0  0  0  0  0  0  0  0  0  0  0
   54.8850   25.1360   45.5890 C   0  0  0  0  0  0  0  0  0  0  0  0
   54.6027   24.4296   46.3835 H   0  0  0  0  0  0  0  0  0  0  0  0
   54.0061   25.3570   44.9655 H   0  0  0  0  0  0  0  0  0  0  0  0
   55.6741   24.6904   44.9655 H   0  0  0  0  0  0  0  0  0  0  0  0
   57.7790   26.2760   46.0760 C   0  0  0  0  0  0  0  0  0  0  0  0
   57.7590   24.6690   46.7870 Cl  0  0  0  0  0  0  0  0  0  0  0  0
  1  2  1  0
  2  3  2  0
  3  4  1  0
  3  5  1  0
  5  6  1  0
  6  7  2  0
  7  8  1  0
  8  9  1  0
  9 10  3  0
  8 11  2  0
 11 12  1  0
 11 13  1  0
 13 14  1  0
 13 15  1  0
 15 16  2  0
 16 17  1  0
 16 18  1  0
 18 19  1  0
 19 20  1  0
 20 21  1  0
 20 22  1  0
 20 23  1  0
 18 24  2  0
 24 25  1  0
 25 26  1  0
 26 27  1  0
 26 28  1  0
 26 29  1  0
 24 30  1  0
 30 31  1  0
 30 32  2  0
  5 33  2  0
 33 34  1  0
 33 35  1  0
 35 36  1  0
 36 37  1  0
 37 38  1  0
 37 39  1  0
 37 40  1  0
 35 41  2  0
 41 42  1  0
 41  2  1  0
 32  7  1  0
 32 15  1  0
M  END
>  <UniqueID>  (29) 
26

>  <SMILES>  (29) 
COc1cc(/N=c2/c(C#N)c[nH]c3cc(OC)c(OC)cc23)c(Cl)cc1Cl

>  <Energy>  (29) 
67.32789294939244

>  <Genealogy>  (29) 
COc1cc(/N=c2/c(C#N)c[nH]c3cc(OC)c(OC)cc23)c(Cl)cc1Cl (cis-trans isomerization)
COc1cc(/N=c2/c(C#N)c[nH]c3cc(OC)c(OC)cc23)c(Cl)cc1Cl (3D coordinates assigned)
COc1cc(/N=c2/c(C#N)c[nH]c3cc(OC)c(OC)cc23)c(Cl)cc1Cl (optimized conformer: 67.32789294939244 kcal/mol)

>  <smiles>  (29) 
COc1cc(N=c2c(C#N)c[nH]c3cc(OC)c(OC)cc23)c(Cl)cc1Cl

>  <score_type>  (29) 
oracle

>  <origin>  (29) 
adg

>  <m_score__min__energy>  (29) 
-7.3300000000000001

>  <m_primary>  (29) 
energy

$$$$
29:0
     RDKit          3D

 41 44  0  0  0  0  0  0  0  0999 V2000
   61.3750   29.9430   50.4290 C   0  0  0  0  0  0  0  0  0  0  0  0
   61.2280   28.7930   49.6030 O   0  0  0  0  0  0  0  0  0  0  0  0
   60.2580   28.6570   48.5990 C   0  0  0  0  0  0  0  0  0  0  0  0
   59.3400   29.6770   48.2950 C   0  0  0  0  0  0  0  0  0  0  0  0
   58.3860   29.4980   47.2900 C   0  0  0  0  0  0  0  0  0  0  0  0
   58.3190   28.2880   46.5720 C   0  0  0  0  0  0  0  0  0  0  0  0
   57.3580   28.0720   45.5540 C   0  0  0  0  0  0  0  0  0  0  0  0
   56.3430   29.0350   45.2430 N   0  0  0  0  0  0  0  0  0  0  0  0
   56.4380   29.9750   44.1650 C   0  0  0  0  0  0  0  0  0  0  0  0
   55.8730   29.7230   43.0650 O   0  0  0  0  0  0  0  0  0  0  0  0
   57.2110   31.2280   44.3330 C   0  0  0  0  0  0  0  0  0  0  0  0
   57.7460   31.8930   43.2150 C   0  0  0  0  0  0  0  0  0  0  0  0
   58.4780   33.0730   43.3700 C   0  0  0  0  0  0  0  0  0  0  0  0
   58.6900   33.6100   44.6470 C   0  0  0  0  0  0  0  0  0  0  0  0
   59.4250   34.7940   44.8110 C   0  0  0  0  0  0  0  0  0  0  0  0
   59.6300   35.3200   46.0910 C   0  0  0  0  0  0  0  0  0  0  0  0
   59.1050   34.6700   47.2110 C   0  0  0  0  0  0  0  0  0  0  0  0
   58.3720   33.4890   47.0590 C   0  0  0  0  0  0  0  0  0  0  0  0
   58.1590   32.9510   45.7800 C   0  0  0  0  0  0  0  0  0  0  0  0
   57.4240   31.7660   45.6160 C   0  0  0  0  0  0  0  0  0  0  0  0
   57.3980   26.8910   44.8040 C   0  0  0  0  0  0  0  0  0  0  0  0
   58.3360   25.8990   45.0880 C   0  0  0  0  0  0  0  0  0  0  0  0
   59.2600   26.0800   46.1170 C   0  0  0  0  0  0  0  0  0  0  0  0
   59.2650   27.2700   46.8600 C   0  0  0  0  0  0  0  0  0  0  0  0
   60.2150   27.4610   47.8750 C   0  0  0  0  0  0  0  0  0  0  0  0
   61.3366   29.6423   51.4864 H   0  0  0  0  0  0  0  0  0  0  0  0
   62.3419   30.4238   50.2194 H   0  0  0  0  0  0  0  0  0  0  0  0
   60.5601   30.6516   50.2194 H   0  0  0  0  0  0  0  0  0  0  0  0
   59.3729   30.6243   48.8531 H   0  0  0  0  0  0  0  0  0  0  0  0
   57.6808   30.3095   47.0573 H   0  0  0  0  0  0  0  0  0  0  0  0
   57.5865   31.4798   42.2081 H   0  0  0  0  0  0  0  0  0  0  0  0
   58.8895   33.5825   42.4862 H   0  0  0  0  0  0  0  0  0  0  0  0
   59.8404   35.3091   43.9323 H   0  0  0  0  0  0  0  0  0  0  0  0
   60.2065   36.2485   46.2162 H   0  0  0  0  0  0  0  0  0  0  0  0
   59.2688   35.0885   48.2150 H   0  0  0  0  0  0  0  0  0  0  0  0
   57.9613   32.9803   47.9436 H   0  0  0  0  0  0  0  0  0  0  0  0
   57.0112   31.2538   46.4976 H   0  0  0  0  0  0  0  0  0  0  0  0
   56.6821   26.7438   43.9820 H   0  0  0  0  0  0  0  0  0  0  0  0
   58.3472   24.9704   44.4984 H   0  0  0  0  0  0  0  0  0  0  0  0
   59.9871   25.2872   46.3467 H   0  0  0  0  0  0  0  0  0  0  0  0
   60.9342   26.6608   48.1039 H   0  0  0  0  0  0  0  0  0  0  0  0
  1  2  1  0
  2  3  1  0
  3  4  2  0
  4  5  1  0
  5  6  2  0
  6  7  1  0
  7  8  1  0
  8  9  1  0
  9 10  2  0
  9 11  1  0
 11 12  2  0
 12 13  1  0
 13 14  2  0
 14 15  1  0
 15 16  2  0
 16 17  1  0
 17 18  2  0
 18 19  1  0
 19 20  2  0
  7 21  2  0
 21 22  1  0
 22 23  2  0
 23 24  1  0
 24 25  2  0
 25  3  1  0
 24  6  1  0
 20 11  1  0
 19 14  1  0
  1 26  1  0
  1 27  1  0
  1 28  1  0
  4 29  1  0
  5 30  1  0
 12 31  1  0
 13 32  1  0
 15 33  1  0
 16 34  1  0
 17 35  1  0
 18 36  1  0
 20 37  1  0
 21 38  1  0
 22 39  1  0
 23 40  1  0
 25 41  1  0
M  CHG  1   8  -1
M  END
>  <UniqueID>  (30) 
27

>  <SMILES>  (30) 
COc1ccc2c([N-]C(=O)c3ccc4ccccc4c3)cccc2c1

>  <Energy>  (30) 
60.17144668303854

>  <Genealogy>  (30) 
COc1ccc2c([N-]C(=O)c3ccc4ccccc4c3)cccc2c1 (protonated)
COc1ccc2c([N-]C(=O)c3ccc4ccccc4c3)cccc2c1 (3D coordinates assigned)
COc1ccc2c([N-]C(=O)c3ccc4ccccc4c3)cccc2c1 (optimized conformer: 60.17144668303854 kcal/mol)

>  <smiles>  (30) 
COc1ccc2c(NC(=O)c3ccc4ccccc4c3)cccc2c1

>  <score_type>  (30) 
oracle

>  <origin>  (30) 
adg

>  <m_score__min__energy>  (30) 
-10.289999999999999

>  <m_primary>  (30) 
energy

$$$$
30:0
     RDKit          3D

 42 44  0  0  0  0  0  0  0  0999 V2000
   56.2700   32.5650   45.2440 O   0  0  0  0  0  0  0  0  0  0  0  0
   57.4310   32.0680   45.2110 C   0  0  0  0  0  0  0  0  0  0  0  0
   57.6390   30.7140   44.5530 C   0  0  2  0  0  0  0  0  0  0  0  0
   56.9000   30.5670   43.2460 C   0  0  0  0  0  0  0  0  0  0  0  0
   55.5800   29.9400   43.6590 C   0  0  0  0  0  0  0  0  0  0  0  0
   55.7230   29.3290   44.9230 O   0  0  0  0  0  0  0  0  0  0  0  0
   57.0240   29.6000   45.3890 C   0  0  0  0  0  0  0  0  0  0  0  0
   58.5190   32.7820   45.8410 N   0  0  0  0  0  0  0  0  0  0  0  0
   58.2800   34.1560   46.3020 C   0  0  0  0  0  0  0  0  0  0  0  0
   59.5830   34.9660   46.3230 C   0  0  0  0  0  0  0  0  0  0  0  0
   60.6850   34.2640   47.0130 N   0  0  0  0  0  0  0  0  0  0  0  0
   60.5270   34.2080   48.4830 C   0  0  0  0  0  0  0  0  0  0  0  0
   61.7860   33.6890   49.1260 C   0  0  0  0  0  0  0  0  0  0  0  0
   63.0300   33.8410   48.4980 C   0  0  0  0  0  0  0  0  0  0  0  0
   64.1770   33.3120   49.0880 C   0  0  0  0  0  0  0  0  0  0  0  0
   64.0710   32.6270   50.2980 C   0  0  0  0  0  0  0  0  0  0  0  0
   62.8580   32.4850   50.8980 N   0  0  0  0  0  0  0  0  0  0  0  0
   61.7260   32.9940   50.3430 C   0  0  0  0  0  0  0  0  0  0  0  0
   60.9190   32.9350   46.4150 C   0  0  0  0  0  0  0  0  0  0  0  0
   59.6590   32.0590   46.4240 C   0  0  0  0  0  0  0  0  0  0  0  0
   58.7302   30.6485   44.4305 H   0  0  0  0  0  0  0  0  0  0  0  0
   56.7396   31.5465   42.7718 H   0  0  0  0  0  0  0  0  0  0  0  0
   57.4492   29.9657   42.5065 H   0  0  0  0  0  0  0  0  0  0  0  0
   54.8056   30.7193   43.7142 H   0  0  0  0  0  0  0  0  0  0  0  0
   55.2866   29.1825   42.9173 H   0  0  0  0  0  0  0  0  0  0  0  0
   56.9785   29.9140   46.4423 H   0  0  0  0  0  0  0  0  0  0  0  0
   57.6410   28.6933   45.3038 H   0  0  0  0  0  0  0  0  0  0  0  0
   57.5648   34.6435   45.6231 H   0  0  0  0  0  0  0  0  0  0  0  0
   57.8767   34.1163   47.3246 H   0  0  0  0  0  0  0  0  0  0  0  0
   59.8891   35.1655   45.2855 H   0  0  0  0  0  0  0  0  0  0  0  0
   59.3852   35.8954   46.8772 H   0  0  0  0  0  0  0  0  0  0  0  0
   60.3152   35.2181   48.8637 H   0  0  0  0  0  0  0  0  0  0  0  0
   59.6956   33.5304   48.7274 H   0  0  0  0  0  0  0  0  0  0  0  0
   63.1011   34.3773   47.5403 H   0  0  0  0  0  0  0  0  0  0  0  0
   65.1569   33.4339   48.6034 H   0  0  0  0  0  0  0  0  0  0  0  0
   64.9694   32.2007   50.7682 H   0  0  0  0  0  0  0  0  0  0  0  0
   62.7940   31.9660   51.8030 H   0  0  0  0  0  0  0  0  0  0  0  0
   60.7592   32.8603   50.8504 H   0  0  0  0  0  0  0  0  0  0  0  0
   61.2485   33.0691   45.3741 H   0  0  0  0  0  0  0  0  0  0  0  0
   61.6853   32.4262   47.0182 H   0  0  0  0  0  0  0  0  0  0  0  0
   59.8480   31.1486   45.8362 H   0  0  0  0  0  0  0  0  0  0  0  0
   59.4172   31.7980   47.4649 H   0  0  0  0  0  0  0  0  0  0  0  0
  1  2  2  0
  2  3  1  0
  3  4  1  0
  4  5  1  0
  5  6  1  0
  6  7  1  0
  2  8  1  0
  8  9  1  0
  9 10  1  0
 10 11  1  0
 11 12  1  0
 12 13  1  0
 13 14  2  0
 14 15  1  0
 15 16  2  0
 16 17  1  0
 17 18  2  0
 11 19  1  0
 19 20  1  0
  7  3  1  0
 20  8  1  0
 18 13  1  0
  3 21  1  6
  4 22  1  0
  4 23  1  0
  5 24  1  0
  5 25  1  0
  7 26  1  0
  7 27  1  0
  9 28  1  0
  9 29  1  0
 10 30  1  0
 10 31  1  0
 12 32  1  0
 12 33  1  0
 14 34  1  0
 15 35  1  0
 16 36  1  0
 17 37  1  0
 18 38  1  0
 19 39  1  0
 19 40  1  0
 20 41  1  0
 20 42  1  0
M  CHG  1  17   1
M  END
>  <UniqueID>  (31) 
28

>  <SMILES>  (31) 
O=C([C@@H]1CCOC1)N1CCN(Cc2ccc[nH+]c2)CC1

>  <Energy>  (31) 
48.716992644390274

>  <Genealogy>  (31) 
O=C(C1CCOC1)N1CCN(Cc2ccc[nH+]c2)CC1 (protonated)
O=C([C@@H]1CCOC1)N1CCN(Cc2ccc[nH+]c2)CC1 (chirality)
O=C([C@@H]1CCOC1)N1CCN(Cc2ccc[nH+]c2)CC1 (3D coordinates assigned)
O=C([C@@H]1CCOC1)N1CCN(Cc2ccc[nH+]c2)CC1 (nonaromatic ring conformer: 48.716992644390274 kcal/mol)

>  <smiles>  (31) 
O=C(C1CCOC1)N1CCN(Cc2cccnc2)CC1

>  <score_type>  (31) 
oracle

>  <origin>  (31) 
adg

>  <m_score__min__energy>  (31) 
-6.2400000000000002

>  <m_primary>  (31) 
energy

$$$$
31:0
     RDKit          3D

 35 37  0  0  0  0  0  0  0  0999 V2000
   54.7190   24.0756   46.0059 H   0  0  0  0  0  0  0  0  0  0  0  0
   55.4800   24.8510   46.1780 C   0  0  0  0  0  0  0  0  0  0  0  0
   55.3230   26.0870   45.6350 N   0  0  0  0  0  0  0  0  0  0  0  0
   56.2340   27.0820   45.8110 C   0  0  0  0  0  0  0  0  0  0  0  0
   56.0090   28.2380   45.2510 N   0  0  0  0  0  0  0  0  0  0  0  0
   56.9100   28.9690   44.4080 C   0  0  0  0  0  0  0  0  0  0  0  0
   56.4370   29.6040   43.4300 O   0  0  0  0  0  0  0  0  0  0  0  0
   58.3610   29.0270   44.7110 C   0  0  0  0  0  0  0  0  0  0  0  0
   59.2630   27.9960   44.4960 C   0  0  0  0  0  0  0  0  0  0  0  0
   59.0445   26.9818   44.1303 H   0  0  0  0  0  0  0  0  0  0  0  0
   60.4950   28.5170   44.8400 C   0  0  0  0  0  0  0  0  0  0  0  0
   61.4532   27.9788   44.7936 H   0  0  0  0  0  0  0  0  0  0  0  0
   60.3310   29.7900   45.2410 N   0  0  0  0  0  0  0  0  0  0  0  0
   61.0880   30.4340   45.5640 H   0  0  0  0  0  0  0  0  0  0  0  0
   59.0460   30.1000   45.1780 N   0  0  0  0  0  0  0  0  0  0  0  0
   58.5320   31.3850   45.5500 C   0  0  0  0  0  0  0  0  0  0  0  0
   58.0480   32.2580   44.5650 C   0  0  0  0  0  0  0  0  0  0  0  0
   58.0366   31.9431   43.5111 H   0  0  0  0  0  0  0  0  0  0  0  0
   57.5800   33.5270   44.9180 C   0  0  0  0  0  0  0  0  0  0  0  0
   57.1896   34.2041   44.1439 H   0  0  0  0  0  0  0  0  0  0  0  0
   57.6080   33.9360   46.2550 C   0  0  0  0  0  0  0  0  0  0  0  0
   57.2351   34.9328   46.5332 H   0  0  0  0  0  0  0  0  0  0  0  0
   58.1100   33.0780   47.2380 C   0  0  0  0  0  0  0  0  0  0  0  0
   58.1366   33.4026   48.2887 H   0  0  0  0  0  0  0  0  0  0  0  0
   58.5780   31.8090   46.8880 C   0  0  0  0  0  0  0  0  0  0  0  0
   58.9833   31.1407   47.6620 H   0  0  0  0  0  0  0  0  0  0  0  0
   57.3980   26.8170   46.5610 C   0  0  0  0  0  0  0  0  0  0  0  0
   58.1587   27.5998   46.6974 H   0  0  0  0  0  0  0  0  0  0  0  0
   57.5790   25.5560   47.1290 C   0  0  0  0  0  0  0  0  0  0  0  0
   58.4858   25.3421   47.7137 H   0  0  0  0  0  0  0  0  0  0  0  0
   56.6080   24.5620   46.9560 C   0  0  0  0  0  0  0  0  0  0  0  0
   56.8100   23.1900   47.5270 C   0  0  0  0  0  0  0  0  0  0  0  0
   56.8019   23.2452   48.6256 H   0  0  0  0  0  0  0  0  0  0  0  0
   55.9996   22.5284   47.1871 H   0  0  0  0  0  0  0  0  0  0  0  0
   57.7767   22.7901   47.1871 H   0  0  0  0  0  0  0  0  0  0  0  0
  1  2  1  0
  2  3  1  0
  3  4  1  0
  4  5  2  0
  5  6  1  0
  6  7  2  0
  6  8  1  0
  8  9  2  0
  9 10  1  0
  9 11  1  0
 11 12  1  0
 11 13  2  0
 13 14  1  0
 13 15  1  0
 15 16  1  0
 16 17  2  0
 17 18  1  0
 17 19  1  0
 19 20  1  0
 19 21  2  0
 21 22  1  0
 21 23  1  0
 23 24  1  0
 23 25  2  0
 25 26  1  0
  4 27  1  0
 27 28  1  0
 27 29  2  0
 29 30  1  0
 29 31  1  0
 31 32  1  0
 32 33  1  0
 32 34  1  0
 32 35  1  0
 31  2  2  0
 15  8  1  0
 25 16  1  0
M  CHG  2   3  -1  13   1
M  END
>  <UniqueID>  (32) 
29

>  <SMILES>  (32) 
Cc1cc/c(=N\C(=O)c2cc[nH+]n2-c2ccccc2)[n-]c1

>  <Energy>  (32) 
85.0638979014458

>  <Genealogy>  (32) 
Cc1ccc(=NC(=O)c2cc[nH+]n2-c2ccccc2)[n-]c1 (protonated)
Cc1cc/c(=N\C(=O)c2cc[nH+]n2-c2ccccc2)[n-]c1 (cis-trans isomerization)
Cc1cc/c(=N\C(=O)c2cc[nH+]n2-c2ccccc2)[n-]c1 (3D coordinates assigned)
Cc1cc/c(=N\C(=O)c2cc[nH+]n2-c2ccccc2)[n-]c1 (optimized conformer: 85.0638979014458 kcal/mol)

>  <smiles>  (32) 
Cc1ccc(=NC(=O)c2ccnn2-c2ccccc2)[nH]c1

>  <score_type>  (32) 
oracle

>  <origin>  (32) 
adg

>  <m_score__min__energy>  (32) 
-7.8499999999999996

>  <m_primary>  (32) 
energy

$$$$
32:0
     RDKit          3D

 54 56  0  0  0  0  0  0  0  0999 V2000
   59.8950   36.2790   45.4540 F   0  0  0  0  0  0  0  0  0  0  0  0
   59.9680   35.1680   46.2760 C   0  0  0  0  0  0  0  0  0  0  0  0
   61.2470   34.6460   46.2110 F   0  0  0  0  0  0  0  0  0  0  0  0
   59.7000   35.5550   47.5770 F   0  0  0  0  0  0  0  0  0  0  0  0
   58.9760   34.1270   45.8450 C   0  0  0  0  0  0  0  0  0  0  0  0
   58.3160   33.3410   46.7980 C   0  0  0  0  0  0  0  0  0  0  0  0
   57.3970   32.3780   46.3780 C   0  0  0  0  0  0  0  0  0  0  0  0
   57.1370   32.2040   45.0060 C   0  0  0  0  0  0  0  0  0  0  0  0
   56.2270   31.2550   44.5130 O   0  0  0  0  0  0  0  0  0  0  0  0
   56.5750   29.9900   43.9520 C   0  0  0  0  0  0  0  0  0  0  0  0
   56.2320   28.8550   44.9310 C   0  0  0  0  0  0  0  0  0  0  0  0
   57.2530   27.7950   44.9460 N   0  0  0  0  0  0  0  0  0  0  0  0
   58.5960   28.3130   44.6550 C   0  0  0  0  0  0  0  0  0  0  0  0
   59.1210   29.0460   45.8580 C   0  0  0  0  0  0  0  0  0  0  0  0
   60.1210   30.0190   45.7110 C   0  0  0  0  0  0  0  0  0  0  0  0
   60.5870   30.7260   46.8230 C   0  0  0  0  0  0  0  0  0  0  0  0
   60.0530   30.4780   48.0980 C   0  0  0  0  0  0  0  0  0  0  0  0
   60.5350   31.2090   49.2430 N   0  0  0  0  0  0  0  0  0  0  0  0
   61.8150   30.8380   49.8580 C   0  0  0  0  0  0  0  0  0  0  0  0
   62.9560   31.6240   49.2000 C   0  0  0  0  0  0  0  0  0  0  0  0
   62.8100   33.1560   49.2940 C   0  0  0  0  0  0  0  0  0  0  0  0
   61.4410   33.7430   48.9020 C   0  0  0  0  0  0  0  0  0  0  0  0
   60.3460   33.5780   49.9690 C   0  0  0  0  0  0  0  0  0  0  0  0
   59.6740   32.1980   49.9030 C   0  0  0  0  0  0  0  0  0  0  0  0
   59.0360   29.5180   48.2390 C   0  0  0  0  0  0  0  0  0  0  0  0
   58.5720   28.8110   47.1270 C   0  0  0  0  0  0  0  0  0  0  0  0
   57.8230   33.0090   44.0910 C   0  0  0  0  0  0  0  0  0  0  0  0
   58.7140   33.9400   44.5230 N   0  0  0  0  0  0  0  0  0  0  0  0
   58.5204   33.4816   47.8697 H   0  0  0  0  0  0  0  0  0  0  0  0
   56.8758   31.7549   47.1197 H   0  0  0  0  0  0  0  0  0  0  0  0
   56.0157   29.8426   43.0163 H   0  0  0  0  0  0  0  0  0  0  0  0
   57.6568   29.9741   43.7532 H   0  0  0  0  0  0  0  0  0  0  0  0
   56.1463   29.2764   45.9434 H   0  0  0  0  0  0  0  0  0  0  0  0
   55.2857   28.4026   44.5995 H   0  0  0  0  0  0  0  0  0  0  0  0
   57.0060   27.0630   44.2390 H   0  0  0  0  0  0  0  0  0  0  0  0
   59.2676   27.4760   44.4135 H   0  0  0  0  0  0  0  0  0  0  0  0
   58.5462   29.0015   43.7986 H   0  0  0  0  0  0  0  0  0  0  0  0
   60.5404   30.2265   44.7155 H   0  0  0  0  0  0  0  0  0  0  0  0
   61.3769   31.4814   46.6987 H   0  0  0  0  0  0  0  0  0  0  0  0
   61.7844   31.0700   50.9328 H   0  0  0  0  0  0  0  0  0  0  0  0
   61.9872   29.7609   49.7156 H   0  0  0  0  0  0  0  0  0  0  0  0
   63.8984   31.3374   49.6896 H   0  0  0  0  0  0  0  0  0  0  0  0
   62.9352   31.3714   48.1296 H   0  0  0  0  0  0  0  0  0  0  0  0
   63.0124   33.4474   50.3352 H   0  0  0  0  0  0  0  0  0  0  0  0
   63.5208   33.5610   48.5587 H   0  0  0  0  0  0  0  0  0  0  0  0
   61.5713   34.8177   48.7071 H   0  0  0  0  0  0  0  0  0  0  0  0
   61.1025   33.1828   48.0179 H   0  0  0  0  0  0  0  0  0  0  0  0
   60.7987   33.7043   50.9635 H   0  0  0  0  0  0  0  0  0  0  0  0
   59.5740   34.3387   49.7808 H   0  0  0  0  0  0  0  0  0  0  0  0
   59.4578   31.8569   50.9262 H   0  0  0  0  0  0  0  0  0  0  0  0
   58.7480   32.2938   49.3170 H   0  0  0  0  0  0  0  0  0  0  0  0
   58.6028   29.3222   49.2310 H   0  0  0  0  0  0  0  0  0  0  0  0
   57.7717   28.0660   47.2474 H   0  0  0  0  0  0  0  0  0  0  0  0
   57.6400   32.8877   43.0131 H   0  0  0  0  0  0  0  0  0  0  0  0
  1  2  1  0
  2  3  1  0
  2  4  1  0
  2  5  1  0
  5  6  2  0
  6  7  1  0
  7  8  2  0
  8  9  1  0
  9 10  1  0
 10 11  1  0
 11 12  1  0
 12 13  1  0
 13 14  1  0
 14 15  2  0
 15 16  1  0
 16 17  2  0
 17 18  1  0
 18 19  1  0
 19 20  1  0
 20 21  1  0
 21 22  1  0
 22 23  1  0
 23 24  1  0
 17 25  1  0
 25 26  2  0
  8 27  1  0
 27 28  2  0
 28  5  1  0
 26 14  1  0
 24 18  1  0
  6 29  1  0
  7 30  1  0
 10 31  1  0
 10 32  1  0
 11 33  1  0
 11 34  1  0
 12 35  1  0
 13 36  1  0
 13 37  1  0
 15 38  1  0
 16 39  1  0
 19 40  1  0
 19 41  1  0
 20 42  1  0
 20 43  1  0
 21 44  1  0
 21 45  1  0
 22 46  1  0
 22 47  1  0
 23 48  1  0
 23 49  1  0
 24 50  1  0
 24 51  1  0
 25 52  1  0
 26 53  1  0
 27 54  1  0
M  END
>  <UniqueID>  (33) 
30

>  <SMILES>  (33) 
FC(F)(F)c1ccc(OCCNCc2ccc(N3CCCCCC3)cc2)cn1

>  <Energy>  (33) 
59.04543670047619

>  <Genealogy>  (33) 
FC(F)(F)c1ccc(OCCNCc2ccc(N3CCCCCC3)cc2)cn1 (3D coordinates assigned)
FC(F)(F)c1ccc(OCCNCc2ccc(N3CCCCCC3)cc2)cn1 (nonaromatic ring conformer: 59.04543670047619 kcal/mol)

>  <smiles>  (33) 
FC(F)(F)c1ccc(OCCNCc2ccc(N3CCCCCC3)cc2)cn1

>  <score_type>  (33) 
oracle

>  <origin>  (33) 
adg

>  <m_score__min__energy>  (33) 
-4.6699999999999999

>  <m_primary>  (33) 
energy

$$$$
33:0
     RDKit          3D

 50 53  0  0  0  0  0  0  0  0999 V2000
   58.7860   33.8120   52.2310 C   0  0  0  0  0  0  0  0  0  0  0  0
   59.7650   33.1680   51.4470 O   0  0  0  0  0  0  0  0  0  0  0  0
   59.2140   32.0020   50.8710 C   0  0  0  0  0  0  0  0  0  0  0  0
   60.0540   31.5990   49.6510 C   0  0  0  0  0  0  0  0  0  0  0  0
   59.8950   32.5420   48.5080 N   0  0  0  0  0  0  0  0  0  0  0  0
   58.4640   32.7510   48.1380 C   0  0  0  0  0  0  0  0  0  0  0  0
   58.1350   32.4280   46.6930 C   0  0  0  0  0  0  0  0  0  0  0  0
   58.0610   33.4600   45.7260 C   0  0  0  0  0  0  0  0  0  0  0  0
   57.7540   33.1700   44.3880 C   0  0  0  0  0  0  0  0  0  0  0  0
   57.5110   31.8440   44.0420 C   0  0  0  0  0  0  0  0  0  0  0  0
   57.1220   31.2140   42.5380 S   0  0  0  0  0  0  0  0  0  0  0  0
   57.0090   29.6110   43.0660 C   0  0  0  0  0  0  0  0  0  0  0  0
   57.2760   29.5620   44.4330 C   0  0  0  0  0  0  0  0  0  0  0  0
   57.5570   30.8220   44.9740 C   0  0  0  0  0  0  0  0  0  0  0  0
   57.8600   31.0970   46.3080 C   0  0  0  0  0  0  0  0  0  0  0  0
   60.6610   33.8280   48.6500 C   0  0  2  0  0  0  0  0  0  0  0  0
   60.7580   34.5720   47.2990 C   0  0  0  0  0  0  0  0  0  0  0  0
   61.5470   33.7290   46.2950 C   0  0  0  0  0  0  0  0  0  0  0  0
   62.9960   33.5230   46.7600 C   0  0  0  0  0  0  0  0  0  0  0  0
   63.1490   33.3690   48.2570 C   0  0  0  0  0  0  0  0  0  0  0  0
   64.4210   33.1040   48.7800 C   0  0  0  0  0  0  0  0  0  0  0  0
   64.6250   33.0910   50.1580 C   0  0  0  0  0  0  0  0  0  0  0  0
   63.5570   33.3630   51.0100 C   0  0  0  0  0  0  0  0  0  0  0  0
   62.3230   33.6230   50.5020 N   0  0  0  0  0  0  0  0  0  0  0  0
   62.0830   33.6210   49.1560 C   0  0  0  0  0  0  0  0  0  0  0  0
   59.0132   33.6625   53.2969 H   0  0  0  0  0  0  0  0  0  0  0  0
   58.7841   34.8883   52.0039 H   0  0  0  0  0  0  0  0  0  0  0  0
   57.7969   33.3876   52.0039 H   0  0  0  0  0  0  0  0  0  0  0  0
   59.2226   31.1869   51.6096 H   0  0  0  0  0  0  0  0  0  0  0  0
   58.1774   32.1972   50.5590 H   0  0  0  0  0  0  0  0  0  0  0  0
   61.1138   31.5773   49.9448 H   0  0  0  0  0  0  0  0  0  0  0  0
   59.7045   30.6106   49.3181 H   0  0  0  0  0  0  0  0  0  0  0  0
   57.8451   32.1100   48.7830 H   0  0  0  0  0  0  0  0  0  0  0  0
   58.2588   33.8231   48.2737 H   0  0  0  0  0  0  0  0  0  0  0  0
   58.2464   34.5015   46.0275 H   0  0  0  0  0  0  0  0  0  0  0  0
   57.7067   33.9687   43.6332 H   0  0  0  0  0  0  0  0  0  0  0  0
   56.7641   28.7460   42.4321 H   0  0  0  0  0  0  0  0  0  0  0  0
   57.2669   28.6336   45.0229 H   0  0  0  0  0  0  0  0  0  0  0  0
   57.8844   30.2866   47.0514 H   0  0  0  0  0  0  0  0  0  0  0  0
   60.0973   34.4184   49.3873 H   0  0  0  0  0  0  0  0  0  0  0  0
   59.7456   34.7517   46.9082 H   0  0  0  0  0  0  0  0  0  0  0  0
   61.2742   35.5315   47.4505 H   0  0  0  0  0  0  0  0  0  0  0  0
   61.0609   32.7478   46.1901 H   0  0  0  0  0  0  0  0  0  0  0  0
   61.5626   34.2592   45.3314 H   0  0  0  0  0  0  0  0  0  0  0  0
   63.3877   32.6153   46.2777 H   0  0  0  0  0  0  0  0  0  0  0  0
   63.5517   34.4289   46.4762 H   0  0  0  0  0  0  0  0  0  0  0  0
   65.2624   32.9053   48.0998 H   0  0  0  0  0  0  0  0  0  0  0  0
   65.6204   32.8680   50.5696 H   0  0  0  0  0  0  0  0  0  0  0  0
   63.7128   33.3674   52.0989 H   0  0  0  0  0  0  0  0  0  0  0  0
   61.5410   33.8070   51.1710 H   0  0  0  0  0  0  0  0  0  0  0  0
  1  2  1  0
  2  3  1  0
  3  4  1  0
  4  5  1  0
  5  6  1  0
  6  7  1  0
  7  8  2  0
  8  9  1  0
  9 10  2  0
 10 11  1  0
 11 12  1  0
 12 13  2  0
 13 14  1  0
 14 15  2  0
  5 16  1  0
 16 17  1  0
 17 18  1  0
 18 19  1  0
 19 20  1  0
 20 21  2  0
 21 22  1  0
 22 23  2  0
 23 24  1  0
 24 25  2  0
 15  7  1  0
 25 16  1  0
 14 10  1  0
 25 20  1  0
  1 26  1  0
  1 27  1  0
  1 28  1  0
  3 29  1  0
  3 30  1  0
  4 31  1  0
  4 32  1  0
  6 33  1  0
  6 34  1  0
  8 35  1  0
  9 36  1  0
 12 37  1  0
 13 38  1  0
 15 39  1  0
 16 40  1  1
 17 41  1  0
 17 42  1  0
 18 43  1  0
 18 44  1  0
 19 45  1  0
 19 46  1  0
 21 47  1  0
 22 48  1  0
 23 49  1  0
 24 50  1  0
M  CHG  1  24   1
M  END
>  <UniqueID>  (34) 
31

>  <SMILES>  (34) 
COCCN(Cc1ccc2sccc2c1)[C@@H]1CCCc2ccc[nH+]c21

>  <Energy>  (34) 
97.2575365534868

>  <Genealogy>  (34) 
COCCN(Cc1ccc2sccc2c1)C1CCCc2ccc[nH+]c21 (protonated)
COCCN(Cc1ccc2sccc2c1)[C@@H]1CCCc2ccc[nH+]c21 (chirality)
COCCN(Cc1ccc2sccc2c1)[C@@H]1CCCc2ccc[nH+]c21 (3D coordinates assigned)
COCCN(Cc1ccc2sccc2c1)[C@@H]1CCCc2ccc[nH+]c21 (nonaromatic ring conformer: 97.2575365534868 kcal/mol)

>  <smiles>  (34) 
COCCN(Cc1ccc2sccc2c1)C1CCCc2cccnc21

>  <score_type>  (34) 
oracle

>  <origin>  (34) 
adg

>  <m_score__min__energy>  (34) 
-6.5800000000000001

>  <m_primary>  (34) 
energy

$$$$
34:0
     RDKit          3D

 39 40  0  0  0  0  0  0  0  0999 V2000
   53.9420   25.1090   45.5900 C   0  0  0  0  0  0  0  0  0  0  0  0
   54.7560   26.2820   45.8710 N   0  0  0  0  0  0  0  0  0  0  0  0
   56.0680   26.1930   46.4350 C   0  0  0  0  0  0  0  0  0  0  0  0
   56.3990   25.1940   47.1280 O   0  0  0  0  0  0  0  0  0  0  0  0
   57.0630   27.2890   46.1800 C   0  0  0  0  0  0  0  0  0  0  0  0
   56.5420   28.3060   45.2510 N   0  0  0  0  0  0  0  0  0  0  0  0
   57.5910   28.8970   44.4080 C   0  0  0  0  0  0  0  0  0  0  0  0
   58.4580   29.8320   45.2080 C   0  0  0  0  0  0  0  0  0  0  0  0
   59.4240   29.3290   46.0940 C   0  0  0  0  0  0  0  0  0  0  0  0
   60.2110   30.2030   46.8490 C   0  0  0  0  0  0  0  0  0  0  0  0
   60.0340   31.5910   46.7440 C   0  0  0  0  0  0  0  0  0  0  0  0
   60.8640   32.4760   47.5150 N   0  0  0  0  0  0  0  0  0  0  0  0
   62.0620   32.1310   47.9580 N   0  0  0  0  0  0  0  0  0  0  0  0
   62.5600   33.1750   48.6490 C   0  0  0  0  0  0  0  0  0  0  0  0
   63.9280   33.2040   49.2540 C   0  0  0  0  0  0  0  0  0  0  0  0
   64.2080   31.9870   49.8500 F   0  0  0  0  0  0  0  0  0  0  0  0
   64.0000   34.2010   50.2100 F   0  0  0  0  0  0  0  0  0  0  0  0
   64.8630   33.4520   48.2660 F   0  0  0  0  0  0  0  0  0  0  0  0
   61.6600   34.2230   48.6360 C   0  0  0  0  0  0  0  0  0  0  0  0
   60.5830   33.7360   47.9240 C   0  0  0  0  0  0  0  0  0  0  0  0
   59.3110   34.4870   47.6700 C   0  0  0  0  0  0  0  0  0  0  0  0
   59.0790   32.0930   45.8450 C   0  0  0  0  0  0  0  0  0  0  0  0
   58.2910   31.2200   45.0890 C   0  0  0  0  0  0  0  0  0  0  0  0
   53.6227   24.6489   46.5368 H   0  0  0  0  0  0  0  0  0  0  0  0
   53.0561   25.4077   45.0104 H   0  0  0  0  0  0  0  0  0  0  0  0
   54.5319   24.3836   45.0104 H   0  0  0  0  0  0  0  0  0  0  0  0
   57.3084   27.7746   47.1360 H   0  0  0  0  0  0  0  0  0  0  0  0
   57.9546   26.8367   45.7213 H   0  0  0  0  0  0  0  0  0  0  0  0
   55.8240   27.8650   44.6300 H   0  0  0  0  0  0  0  0  0  0  0  0
   58.2159   28.0924   43.9931 H   0  0  0  0  0  0  0  0  0  0  0  0
   57.1122   29.4671   43.5982 H   0  0  0  0  0  0  0  0  0  0  0  0
   59.5620   28.2423   46.1944 H   0  0  0  0  0  0  0  0  0  0  0  0
   60.9746   29.7999   47.5304 H   0  0  0  0  0  0  0  0  0  0  0  0
   61.7755   35.2184   49.0897 H   0  0  0  0  0  0  0  0  0  0  0  0
   58.8485   34.7601   48.6300 H   0  0  0  0  0  0  0  0  0  0  0  0
   59.5321   35.3995   47.0968 H   0  0  0  0  0  0  0  0  0  0  0  0
   58.6189   33.8526   47.0968 H   0  0  0  0  0  0  0  0  0  0  0  0
   58.9502   33.1799   45.7350 H   0  0  0  0  0  0  0  0  0  0  0  0
   57.5365   31.6232   44.3976 H   0  0  0  0  0  0  0  0  0  0  0  0
  1  2  1  0
  2  3  1  0
  3  4  2  0
  3  5  1  0
  5  6  1  0
  6  7  1  0
  7  8  1  0
  8  9  2  0
  9 10  1  0
 10 11  2  0
 11 12  1  0
 12 13  1  0
 13 14  2  0
 14 15  1  0
 15 16  1  0
 15 17  1  0
 15 18  1  0
 14 19  1  0
 19 20  2  0
 20 21  1  0
 11 22  1  0
 22 23  2  0
 23  8  1  0
 20 12  1  0
  1 24  1  0
  1 25  1  0
  1 26  1  0
  5 27  1  0
  5 28  1  0
  6 29  1  0
  7 30  1  0
  7 31  1  0
  9 32  1  0
 10 33  1  0
 19 34  1  0
 21 35  1  0
 21 36  1  0
 21 37  1  0
 22 38  1  0
 23 39  1  0
M  CHG  1   2  -1
M  END
>  <UniqueID>  (35) 
32

>  <SMILES>  (35) 
C[N-]C(=O)CNCc1ccc(-n2nc(C(F)(F)F)cc2C)cc1

>  <Energy>  (35) 
68.40148495654684

>  <Genealogy>  (35) 
C[N-]C(=O)CNCc1ccc(-n2nc(C(F)(F)F)cc2C)cc1 (protonated)
C[N-]C(=O)CNCc1ccc(-n2nc(C(F)(F)F)cc2C)cc1 (3D coordinates assigned)
C[N-]C(=O)CNCc1ccc(-n2nc(C(F)(F)F)cc2C)cc1 (optimized conformer: 68.40148495654684 kcal/mol)

>  <smiles>  (35) 
CNC(=O)CNCc1ccc(-n2nc(C(F)(F)F)cc2C)cc1

>  <score_type>  (35) 
oracle

>  <origin>  (35) 
adg

>  <m_score__min__energy>  (35) 
-9.1099999999999994

>  <m_primary>  (35) 
energy

$$$$
35:0
     RDKit          3D

 52 54  0  0  1  0  0  0  0  0999 V2000
   63.3930   33.5640   46.7770 C   0  0  0  0  0  0  0  0  0  0  0  0
   61.8690   33.4650   46.6540 C   0  0  0  0  0  0  0  0  0  0  0  0
   61.2910   32.9700   47.8720 N   0  0  0  0  0  0  0  0  0  0  0  0
   61.9080   33.2850   49.1530 C   0  0  0  0  0  0  0  0  0  0  0  0
   62.7000   32.1520   49.7310 C   0  0  0  0  0  0  0  0  0  0  0  0
   60.1150   32.1730   47.7680 C   0  0  0  0  0  0  0  0  0  0  0  0
   59.6790   31.9710   46.6020 O   0  0  0  0  0  0  0  0  0  0  0  0
   59.4330   31.6100   48.9290 C   0  0  0  0  0  0  0  0  0  0  0  0
   58.9810   32.4770   49.9180 C   0  0  0  0  0  0  0  0  0  0  0  0
   58.3260   31.9870   51.0420 C   0  0  0  0  0  0  0  0  0  0  0  0
   58.1110   30.6350   51.2000 C   0  0  0  0  0  0  0  0  0  0  0  0
   58.5600   29.7580   50.2150 C   0  0  0  0  0  0  0  0  0  0  0  0
   59.2140   30.2580   49.0940 C   0  0  0  0  0  0  0  0  0  0  0  0
   56.4510   29.7730   44.9910 N   0  0  0  0  0  0  0  0  0  0  0  0
   57.2470   28.9850   45.6400 C   0  0  0  0  0  0  0  0  0  0  0  0
   58.9820   27.4480   47.0870 N   0  0  0  0  0  0  0  0  0  0  0  0
   58.1420   26.9120   46.1700 C   0  0  0  0  0  0  0  0  0  0  0  0
   57.2820   27.6530   45.4480 N   0  0  0  0  0  0  0  0  0  0  0  0
   58.9060   28.7810   47.2380 C   0  0  0  0  0  0  0  0  0  0  0  0
   59.6710   29.3590   48.0900 N   0  0  0  0  0  0  0  0  0  0  0  0
   56.9730   30.7560   44.0720 C   0  0  0  0  0  0  0  0  0  0  0  0
   56.8570   30.6150   42.7130 C   0  0  0  0  0  0  0  0  0  0  0  0
   57.3980   31.6260   41.9180 C   0  0  0  0  0  0  0  0  0  0  0  0
   58.0200   32.7130   42.4960 C   0  0  0  0  0  0  0  0  0  0  0  0
   58.1320   32.8430   43.8830 C   0  0  0  0  0  0  0  0  0  0  0  0
   58.7950   34.0010   44.5160 C   0  0  0  0  0  0  0  0  0  0  0  0
   57.5970   31.8440   44.6730 C   0  0  0  0  0  0  0  0  0  0  0  0
   58.0600   29.5610   46.5380 N   0  0  0  0  0  0  0  0  0  0  0  0
   63.6746   33.5823   47.8402 H   0  0  0  0  0  0  0  0  0  0  0  0
   63.8575   32.6941   46.2896 H   0  0  0  0  0  0  0  0  0  0  0  0
   63.7410   34.4866   46.2896 H   0  0  0  0  0  0  0  0  0  0  0  0
   61.4588   34.4628   46.4394 H   0  0  0  0  0  0  0  0  0  0  0  0
   61.6252   32.7679   45.8388 H   0  0  0  0  0  0  0  0  0  0  0  0
   62.5807   34.1441   49.0133 H   0  0  0  0  0  0  0  0  0  0  0  0
   61.0932   33.5028   49.8591 H   0  0  0  0  0  0  0  0  0  0  0  0
   62.6646   32.2026   50.8293 H   0  0  0  0  0  0  0  0  0  0  0  0
   62.2723   31.1962   49.3940 H   0  0  0  0  0  0  0  0  0  0  0  0
   63.7445   32.2254   49.3940 H   0  0  0  0  0  0  0  0  0  0  0  0
   59.1431   33.5596   49.8099 H   0  0  0  0  0  0  0  0  0  0  0  0
   57.9751   32.6869   51.8146 H   0  0  0  0  0  0  0  0  0  0  0  0
   57.5920   30.2535   52.0916 H   0  0  0  0  0  0  0  0  0  0  0  0
   58.3981   28.6754   50.3234 H   0  0  0  0  0  0  0  0  0  0  0  0
   58.1638   25.8241   46.0085 H   0  0  0  0  0  0  0  0  0  0  0  0
   56.6330   27.2440   44.7410 H   0  0  0  0  0  0  0  0  0  0  0  0
   56.3582   29.7413   42.2681 H   0  0  0  0  0  0  0  0  0  0  0  0
   57.3280   31.5557   40.8225 H   0  0  0  0  0  0  0  0  0  0  0  0
   58.4386   33.4977   41.8487 H   0  0  0  0  0  0  0  0  0  0  0  0
   58.7387   33.9027   45.6102 H   0  0  0  0  0  0  0  0  0  0  0  0
   59.8495   34.0351   44.2047 H   0  0  0  0  0  0  0  0  0  0  0  0
   58.2906   34.9276   44.2047 H   0  0  0  0  0  0  0  0  0  0  0  0
   57.6640   31.9085   45.7691 H   0  0  0  0  0  0  0  0  0  0  0  0
   58.0490   30.6090   46.7040 H   0  0  0  0  0  0  0  0  0  0  0  0
  1  2  1  0
  2  3  1  0
  3  4  1  0
  4  5  1  0
  3  6  1  0
  6  7  2  0
  6  8  1  0
  8  9  2  0
  9 10  1  0
 10 11  2  0
 11 12  1  0
 12 13  2  0
 13 14  1  0
 14 15  2  0
 15 16  1  0
 16 17  2  0
 17 18  1  0
 18 19  1  0
 19 20  2  0
 20 21  1  0
 21 22  2  0
 22 23  1  0
 23 24  2  0
 24 25  1  0
 25 26  1  0
 25 27  2  0
 19 28  1  0
 13  8  1  0
 28 15  1  0
 27 21  1  0
  1 29  1  0
  1 30  1  0
  1 31  1  0
  2 32  1  0
  2 33  1  0
  4 34  1  0
  4 35  1  0
  5 36  1  0
  5 37  1  0
  5 38  1  0
  9 39  1  0
 10 40  1  0
 11 41  1  0
 12 42  1  0
 17 43  1  0
 18 44  1  0
 22 45  1  0
 23 46  1  0
 24 47  1  0
 26 48  1  0
 26 49  1  0
 26 50  1  0
 27 51  1  0
 28 52  1  0
M  END
>  <smiles>  (36) 
CCN(CC)C(=O)c1ccccc1N=c1nc[nH]c(=Nc2cccc(C)c2)[nH]1

>  <score_type>  (36) 
oracle

>  <origin>  (36) 
adg

>  <m_score__min__energy>  (36) 
-8.1500000000000004

>  <m_primary>  (36) 
energy

$$$$
36:0
     RDKit          3D

 62 62  0  0  0  0  0  0  0  0999 V2000
   57.0690   26.6460   45.6660 C   0  0  0  0  0  0  0  0  0  0  0  0
   58.0430   26.7990   44.5020 C   0  0  0  0  0  0  0  0  0  0  0  0
   57.8570   28.1520   43.7990 C   0  0  0  0  0  0  0  0  0  0  0  0
   56.7950   29.0280   44.4830 C   0  0  0  0  0  0  0  0  0  0  0  0
   56.1050   29.9750   43.4890 C   0  0  0  0  0  0  0  0  0  0  0  0
   57.0450   31.0550   42.9310 C   0  0  0  0  0  0  0  0  0  0  0  0
   58.0180   31.6670   43.9560 C   0  0  0  0  0  0  0  0  0  0  0  0
   57.3590   32.5180   45.0560 C   0  0  0  0  0  0  0  0  0  0  0  0
   57.6330   34.0220   44.8960 C   0  0  0  0  0  0  0  0  0  0  0  0
   58.9900   34.4060   45.5010 C   0  0  0  0  0  0  0  0  0  0  0  0
   58.8990   34.6130   47.0220 C   0  0  0  0  0  0  0  0  0  0  0  0
   60.2870   34.5830   47.6840 C   0  0  0  0  0  0  0  0  0  0  0  0
   60.2080   34.2150   49.1750 C   0  0  0  0  0  0  0  0  0  0  0  0
   61.1420   33.0510   49.5430 C   0  0  0  0  0  0  0  0  0  0  0  0
   61.4990   32.2660   48.3550 N   0  0  0  0  0  0  0  0  0  0  0  0
   60.6490   31.2080   47.8890 C   0  0  0  0  0  0  0  0  0  0  0  0
   59.8000   30.5350   48.7830 C   0  0  0  0  0  0  0  0  0  0  0  0
   58.9990   29.4800   48.3360 C   0  0  0  0  0  0  0  0  0  0  0  0
   59.0490   29.0830   46.9980 C   0  0  0  0  0  0  0  0  0  0  0  0
   59.8820   29.7540   46.0990 C   0  0  0  0  0  0  0  0  0  0  0  0
   60.6740   30.8190   46.5410 C   0  0  0  0  0  0  0  0  0  0  0  0
   63.0220   32.5550   47.5600 S   0  0  0  0  0  0  0  0  0  0  0  0
   64.2090   33.2060   48.7190 C   0  0  0  0  0  0  0  0  0  0  0  0
   62.8310   33.5300   46.4320 O   0  0  0  0  0  0  0  0  0  0  0  0
   63.5640   31.2630   47.0150 O   0  0  0  0  0  0  0  0  0  0  0  0
   57.6167   26.7320   46.6161 H   0  0  0  0  0  0  0  0  0  0  0  0
   56.3046   27.4351   45.6106 H   0  0  0  0  0  0  0  0  0  0  0  0
   56.5834   25.6606   45.6106 H   0  0  0  0  0  0  0  0  0  0  0  0
   59.0724   26.7311   44.8837 H   0  0  0  0  0  0  0  0  0  0  0  0
   57.8465   25.9976   43.7746 H   0  0  0  0  0  0  0  0  0  0  0  0
   58.8168   28.6893   43.8077 H   0  0  0  0  0  0  0  0  0  0  0  0
   57.5157   27.9520   42.7726 H   0  0  0  0  0  0  0  0  0  0  0  0
   56.0353   28.3754   44.9380 H   0  0  0  0  0  0  0  0  0  0  0  0
   57.2988   29.6417   45.2443 H   0  0  0  0  0  0  0  0  0  0  0  0
   55.7189   29.3792   42.6488 H   0  0  0  0  0  0  0  0  0  0  0  0
   55.3003   30.4910   44.0333 H   0  0  0  0  0  0  0  0  0  0  0  0
   57.6401   30.6045   42.1230 H   0  0  0  0  0  0  0  0  0  0  0  0
   56.3989   31.8783   42.5923 H   0  0  0  0  0  0  0  0  0  0  0  0
   58.5624   30.8441   44.4423 H   0  0  0  0  0  0  0  0  0  0  0  0
   58.6690   32.3496   43.3900 H   0  0  0  0  0  0  0  0  0  0  0  0
   56.2718   32.3541   45.0221 H   0  0  0  0  0  0  0  0  0  0  0  0
   57.7913   32.2050   46.0179 H   0  0  0  0  0  0  0  0  0  0  0  0
   57.6329   34.2749   43.8255 H   0  0  0  0  0  0  0  0  0  0  0  0
   56.8454   34.5780   45.4258 H   0  0  0  0  0  0  0  0  0  0  0  0
   59.7124   33.6028   45.2935 H   0  0  0  0  0  0  0  0  0  0  0  0
   59.3115   35.3542   45.0455 H   0  0  0  0  0  0  0  0  0  0  0  0
   58.4297   35.5876   47.2217 H   0  0  0  0  0  0  0  0  0  0  0  0
   58.2997   33.7931   47.4445 H   0  0  0  0  0  0  0  0  0  0  0  0
   60.9106   33.8385   47.1673 H   0  0  0  0  0  0  0  0  0  0  0  0
   60.7218   35.5904   47.6059 H   0  0  0  0  0  0  0  0  0  0  0  0
   60.4894   35.0955   49.7713 H   0  0  0  0  0  0  0  0  0  0  0  0
   59.1767   33.8966   49.3870 H   0  0  0  0  0  0  0  0  0  0  0  0
   62.0593   33.4554   49.9957 H   0  0  0  0  0  0  0  0  0  0  0  0
   60.6189   32.3934   50.2529 H   0  0  0  0  0  0  0  0  0  0  0  0
   59.7652   30.8394   49.8395 H   0  0  0  0  0  0  0  0  0  0  0  0
   58.3291   28.9624   49.0384 H   0  0  0  0  0  0  0  0  0  0  0  0
   58.4318   28.2410   46.6514 H   0  0  0  0  0  0  0  0  0  0  0  0
   59.9150   29.4448   45.0439 H   0  0  0  0  0  0  0  0  0  0  0  0
   61.3193   31.3539   45.8286 H   0  0  0  0  0  0  0  0  0  0  0  0
   63.8619   33.0156   49.7453 H   0  0  0  0  0  0  0  0  0  0  0  0
   65.1808   32.7146   48.5636 H   0  0  0  0  0  0  0  0  0  0  0  0
   64.3170   34.2896   48.5636 H   0  0  0  0  0  0  0  0  0  0  0  0
  1  2  1  0
  2  3  1  0
  3  4  1  0
  4  5  1  0
  5  6  1  0
  6  7  1  0
  7  8  1  0
  8  9  1  0
  9 10  1  0
 10 11  1  0
 11 12  1  0
 12 13  1  0
 13 14  1  0
 14 15  1  0
 15 16  1  0
 16 17  2  0
 17 18  1  0
 18 19  2  0
 19 20  1  0
 20 21  2  0
 15 22  1  0
 22 23  1  0
 22 24  2  0
 22 25  2  0
 21 16  1  0
  1 26  1  0
  1 27  1  0
  1 28  1  0
  2 29  1  0
  2 30  1  0
  3 31  1  0
  3 32  1  0
  4 33  1  0
  4 34  1  0
  5 35  1  0
  5 36  1  0
  6 37  1  0
  6 38  1  0
  7 39  1  0
  7 40  1  0
  8 41  1  0
  8 42  1  0
  9 43  1  0
  9 44  1  0
 10 45  1  0
 10 46  1  0
 11 47  1  0
 11 48  1  0
 12 49  1  0
 12 50  1  0
 13 51  1  0
 13 52  1  0
 14 53  1  0
 14 54  1  0
 17 55  1  0
 18 56  1  0
 19 57  1  0
 20 58  1  0
 21 59  1  0
 23 60  1  0
 23 61  1  0
 23 62  1  0
M  END
>  <UniqueID>  (37) 
33

>  <SMILES>  (37) 
CCCCCCCCCCCCCCN(c1ccccc1)S(C)(=O)=O

>  <Energy>  (37) 
36.674187563309694

>  <Genealogy>  (37) 
CCCCCCCCCCCCCCN(c1ccccc1)S(C)(=O)=O (3D coordinates assigned)
CCCCCCCCCCCCCCN(c1ccccc1)S(C)(=O)=O (optimized conformer: 36.674187563309694 kcal/mol)

>  <smiles>  (37) 
CCCCCCCCCCCCCCN(c1ccccc1)S(C)(=O)=O

>  <score_type>  (37) 
oracle

>  <origin>  (37) 
adg

>  <m_score__min__energy>  (37) 
-7.5700000000000003

>  <m_primary>  (37) 
energy

$$$$
37:0
     RDKit          3D

 35 36  0  0  0  0  0  0  0  0999 V2000
   57.3680   32.3320   41.0480 C   0  0  0  0  0  0  0  0  0  0  0  0
   58.0730   32.6240   42.3690 C   0  0  0  0  0  0  0  0  0  0  0  0
   57.7670   31.5570   43.3950 C   0  0  0  0  0  0  0  0  0  0  0  0
   57.0150   30.4350   43.0030 C   0  0  0  0  0  0  0  0  0  0  0  0
   56.6720   29.4490   43.9290 C   0  0  0  0  0  0  0  0  0  0  0  0
   57.0680   29.5730   45.2600 C   0  0  0  0  0  0  0  0  0  0  0  0
   57.8010   30.6860   45.6710 C   0  0  0  0  0  0  0  0  0  0  0  0
   58.1480   31.6940   44.7540 C   0  0  0  0  0  0  0  0  0  0  0  0
   58.9130   32.8280   45.1980 N   0  0  0  0  0  0  0  0  0  0  0  0
   58.3240   33.9520   45.8690 C   0  0  0  0  0  0  0  0  0  0  0  0
   57.0710   34.0750   45.9320 O   0  0  0  0  0  0  0  0  0  0  0  0
   59.1970   34.9800   46.5230 C   0  0  0  0  0  0  0  0  0  0  0  0
   60.0720   34.3370   47.5160 N   0  0  0  0  0  0  0  0  0  0  0  0
   59.6550   34.2720   48.8190 C   0  0  0  0  0  0  0  0  0  0  0  0
   60.4380   33.6440   49.7890 C   0  0  0  0  0  0  0  0  0  0  0  0
   61.6530   33.0710   49.4220 C   0  0  0  0  0  0  0  0  0  0  0  0
   62.0690   33.1260   48.0930 C   0  0  0  0  0  0  0  0  0  0  0  0
   61.2630   33.7620   47.1420 C   0  0  0  0  0  0  0  0  0  0  0  0
   61.6480   33.7960   45.9420 O   0  0  0  0  0  0  0  0  0  0  0  0
   56.3689   31.9182   41.2493 H   0  0  0  0  0  0  0  0  0  0  0  0
   57.2697   33.2634   40.4711 H   0  0  0  0  0  0  0  0  0  0  0  0
   57.9571   31.6039   40.4711 H   0  0  0  0  0  0  0  0  0  0  0  0
   59.1590   32.6568   42.1973 H   0  0  0  0  0  0  0  0  0  0  0  0
   57.7134   33.5907   42.7514 H   0  0  0  0  0  0  0  0  0  0  0  0
   56.6939   30.3337   41.9558 H   0  0  0  0  0  0  0  0  0  0  0  0
   56.0887   28.5732   43.6085 H   0  0  0  0  0  0  0  0  0  0  0  0
   56.8019   28.7917   45.9871 H   0  0  0  0  0  0  0  0  0  0  0  0
   58.1107   30.7762   46.7226 H   0  0  0  0  0  0  0  0  0  0  0  0
   59.9390   32.8520   45.0070 H   0  0  0  0  0  0  0  0  0  0  0  0
   59.8146   35.4735   45.7582 H   0  0  0  0  0  0  0  0  0  0  0  0
   58.5635   35.7245   47.0274 H   0  0  0  0  0  0  0  0  0  0  0  0
   58.6917   34.7200   49.1044 H   0  0  0  0  0  0  0  0  0  0  0  0
   60.0982   33.6021   50.8344 H   0  0  0  0  0  0  0  0  0  0  0  0
   62.2816   32.5772   50.1777 H   0  0  0  0  0  0  0  0  0  0  0  0
   63.0252   32.6722   47.7933 H   0  0  0  0  0  0  0  0  0  0  0  0
  1  2  1  0
  2  3  1  0
  3  4  2  0
  4  5  1  0
  5  6  2  0
  6  7  1  0
  7  8  2  0
  8  9  1  0
  9 10  1  0
 10 11  2  0
 10 12  1  0
 12 13  1  0
 13 14  1  0
 14 15  2  0
 15 16  1  0
 16 17  2  0
 17 18  1  0
 18 19  2  0
  8  3  1  0
 18 13  1  0
  1 20  1  0
  1 21  1  0
  1 22  1  0
  2 23  1  0
  2 24  1  0
  4 25  1  0
  5 26  1  0
  6 27  1  0
  7 28  1  0
  9 29  1  0
 12 30  1  0
 12 31  1  0
 14 32  1  0
 15 33  1  0
 16 34  1  0
 17 35  1  0
M  END
>  <UniqueID>  (38) 
34

>  <SMILES>  (38) 
CCc1ccccc1NC(=O)Cn1ccccc1=O

>  <Energy>  (38) 
38.062785885285855

>  <Genealogy>  (38) 
CCc1ccccc1NC(=O)Cn1ccccc1=O (3D coordinates assigned)
CCc1ccccc1NC(=O)Cn1ccccc1=O (optimized conformer: 38.062785885285855 kcal/mol)

>  <smiles>  (38) 
CCc1ccccc1NC(=O)Cn1ccccc1=O

>  <score_type>  (38) 
oracle

>  <origin>  (38) 
adg

>  <m_score__min__energy>  (38) 
-6.2300000000000004

>  <m_primary>  (38) 
energy

$$$$
38:0
     RDKit          3D

 32 34  0  0  0  0  0  0  0  0999 V2000
   55.1600   29.4510   44.8690 O   0  0  0  0  0  0  0  0  0  0  0  0
   56.3500   29.0410   44.8550 C   0  0  0  0  0  0  0  0  0  0  0  0
   57.3750   29.9170   44.3680 N   0  0  0  0  0  0  0  0  0  0  0  0
   57.9130   31.0640   45.0460 C   0  0  0  0  0  0  0  0  0  0  0  0
   57.3890   32.3220   44.7230 C   0  0  0  0  0  0  0  0  0  0  0  0
   57.9090   33.4790   45.3030 C   0  0  0  0  0  0  0  0  0  0  0  0
   58.9510   33.3920   46.2270 C   0  0  0  0  0  0  0  0  0  0  0  0
   59.6630   34.9780   47.0170 Br  0  0  0  0  0  0  0  0  0  0  0  0
   59.4600   32.1420   46.5890 C   0  0  0  0  0  0  0  0  0  0  0  0
   58.9390   30.9650   46.0230 C   0  0  0  0  0  0  0  0  0  0  0  0
   59.4460   29.6610   46.5080 C   0  0  0  0  0  0  0  0  0  0  0  0
   59.1180   29.2010   47.7960 C   0  0  0  0  0  0  0  0  0  0  0  0
   59.5900   27.9640   48.2450 C   0  0  0  0  0  0  0  0  0  0  0  0
   60.3980   27.1810   47.4170 C   0  0  0  0  0  0  0  0  0  0  0  0
   60.7410   27.6350   46.1410 C   0  0  0  0  0  0  0  0  0  0  0  0
   60.2740   28.8730   45.6890 C   0  0  0  0  0  0  0  0  0  0  0  0
   56.6310   27.6690   45.3180 C   0  0  0  0  0  0  0  0  0  0  0  0
   57.7900   26.9430   45.1120 C   0  0  0  0  0  0  0  0  0  0  0  0
   57.5820   25.7270   45.7250 C   0  0  0  0  0  0  0  0  0  0  0  0
   56.3110   25.7810   46.2600 C   0  0  0  0  0  0  0  0  0  0  0  0
   55.7700   26.9480   45.9980 O   0  0  0  0  0  0  0  0  0  0  0  0
   56.5593   32.3983   44.0049 H   0  0  0  0  0  0  0  0  0  0  0  0
   57.4968   34.4621   45.0315 H   0  0  0  0  0  0  0  0  0  0  0  0
   60.2761   32.0782   47.3238 H   0  0  0  0  0  0  0  0  0  0  0  0
   58.4871   29.8175   48.4532 H   0  0  0  0  0  0  0  0  0  0  0  0
   59.3249   27.6070   49.2511 H   0  0  0  0  0  0  0  0  0  0  0  0
   60.7646   26.2058   47.7701 H   0  0  0  0  0  0  0  0  0  0  0  0
   61.3791   27.0179   45.4913 H   0  0  0  0  0  0  0  0  0  0  0  0
   60.5556   29.2322   44.6881 H   0  0  0  0  0  0  0  0  0  0  0  0
   58.6907   27.2688   44.5711 H   0  0  0  0  0  0  0  0  0  0  0  0
   58.2864   24.8837   45.7774 H   0  0  0  0  0  0  0  0  0  0  0  0
   55.8249   24.9692   46.8210 H   0  0  0  0  0  0  0  0  0  0  0  0
  1  2  2  0
  2  3  1  0
  3  4  1  0
  4  5  2  0
  5  6  1  0
  6  7  2  0
  7  8  1  0
  7  9  1  0
  9 10  2  0
 10 11  1  0
 11 12  2  0
 12 13  1  0
 13 14  2  0
 14 15  1  0
 15 16  2  0
  2 17  1  0
 17 18  2  0
 18 19  1  0
 19 20  2  0
 20 21  1  0
 10  4  1  0
 16 11  1  0
 21 17  1  0
  5 22  1  0
  6 23  1  0
  9 24  1  0
 12 25  1  0
 13 26  1  0
 14 27  1  0
 15 28  1  0
 16 29  1  0
 18 30  1  0
 19 31  1  0
 20 32  1  0
M  CHG  1   3  -1
M  END
>  <UniqueID>  (39) 
35

>  <SMILES>  (39) 
O=C([N-]c1ccc(Br)cc1-c1ccccc1)c1ccco1

>  <Energy>  (39) 
72.21846940885182

>  <Genealogy>  (39) 
O=C([N-]c1ccc(Br)cc1-c1ccccc1)c1ccco1 (protonated)
O=C([N-]c1ccc(Br)cc1-c1ccccc1)c1ccco1 (3D coordinates assigned)
O=C([N-]c1ccc(Br)cc1-c1ccccc1)c1ccco1 (optimized conformer: 72.21846940885182 kcal/mol)

>  <smiles>  (39) 
O=C(Nc1ccc(Br)cc1-c1ccccc1)c1ccco1

>  <score_type>  (39) 
oracle

>  <origin>  (39) 
adg

>  <m_score__min__energy>  (39) 
-9.1999999999999993

>  <m_primary>  (39) 
energy

$$$$
39:0
     RDKit          3D

 43 46  0  0  0  0  0  0  0  0999 V2000
   62.0620   29.5440   50.8740 C   0  0  0  0  0  0  0  0  0  0  0  0
   60.9660   30.3240   50.2130 C   0  0  0  0  0  0  0  0  0  0  0  0
   60.3440   29.8250   49.0620 C   0  0  0  0  0  0  0  0  0  0  0  0
   59.3690   30.5840   48.3970 C   0  0  0  0  0  0  0  0  0  0  0  0
   59.0190   31.8420   48.9230 C   0  0  0  0  0  0  0  0  0  0  0  0
   59.6620   32.3040   50.0830 C   0  0  0  0  0  0  0  0  0  0  0  0
   60.6190   31.5520   50.6880 N   0  0  0  0  0  0  0  0  0  0  0  0
   58.0430   32.7200   48.2150 C   0  0  0  0  0  0  0  0  0  0  0  0
   58.5410   32.9630   46.8690 N   0  0  0  0  0  0  0  0  0  0  0  0
   59.7560   34.1860   46.6160 S   0  0  0  0  0  0  0  0  0  0  0  0
   59.2700   35.4890   47.1880 O   0  0  0  0  0  0  0  0  0  0  0  0
   60.0210   34.3800   45.1480 O   0  0  0  0  0  0  0  0  0  0  0  0
   61.2570   33.6890   47.3880 C   0  0  0  0  0  0  0  0  0  0  0  0
   61.6300   34.2690   48.6080 C   0  0  0  0  0  0  0  0  0  0  0  0
   62.8500   33.9320   49.2030 C   0  0  0  0  0  0  0  0  0  0  0  0
   63.6980   33.0090   48.5840 C   0  0  0  0  0  0  0  0  0  0  0  0
   63.3270   32.4220   47.3720 C   0  0  0  0  0  0  0  0  0  0  0  0
   62.1080   32.7590   46.7730 C   0  0  0  0  0  0  0  0  0  0  0  0
   58.2170   32.0340   45.8270 C   0  0  0  0  0  0  0  0  0  0  0  0
   57.7720   32.5400   44.5930 C   0  0  0  0  0  0  0  0  0  0  0  0
   57.3980   31.6800   43.5610 C   0  0  0  0  0  0  0  0  0  0  0  0
   57.4480   30.3030   43.7520 C   0  0  0  0  0  0  0  0  0  0  0  0
   57.8690   29.7830   44.9760 C   0  0  0  0  0  0  0  0  0  0  0  0
   58.2590   30.6270   46.0340 C   0  0  0  0  0  0  0  0  0  0  0  0
   58.6970   29.9960   47.2640 N   0  0  0  0  0  0  0  0  0  0  0  0
   61.9575   29.6184   51.9665 H   0  0  0  0  0  0  0  0  0  0  0  0
   61.9957   28.4888   50.5703 H   0  0  0  0  0  0  0  0  0  0  0  0
   63.0372   29.9523   50.5703 H   0  0  0  0  0  0  0  0  0  0  0  0
   60.6212   28.8326   48.6770 H   0  0  0  0  0  0  0  0  0  0  0  0
   59.3889   33.2823   50.5053 H   0  0  0  0  0  0  0  0  0  0  0  0
   61.0990   31.9390   51.5320 H   0  0  0  0  0  0  0  0  0  0  0  0
   57.0631   32.2227   48.1651 H   0  0  0  0  0  0  0  0  0  0  0  0
   57.9279   33.6717   48.7545 H   0  0  0  0  0  0  0  0  0  0  0  0
   60.9613   34.9914   49.0990 H   0  0  0  0  0  0  0  0  0  0  0  0
   63.1422   34.3932   50.1579 H   0  0  0  0  0  0  0  0  0  0  0  0
   64.6580   32.7448   49.0516 H   0  0  0  0  0  0  0  0  0  0  0  0
   63.9941   31.6937   46.8876 H   0  0  0  0  0  0  0  0  0  0  0  0
   61.8171   32.2943   45.8194 H   0  0  0  0  0  0  0  0  0  0  0  0
   57.7182   33.6279   44.4397 H   0  0  0  0  0  0  0  0  0  0  0  0
   57.0637   32.0901   42.5966 H   0  0  0  0  0  0  0  0  0  0  0  0
   57.1555   29.6240   42.9375 H   0  0  0  0  0  0  0  0  0  0  0  0
   57.8969   28.6925   45.1177 H   0  0  0  0  0  0  0  0  0  0  0  0
   58.6510   28.9510   47.2810 H   0  0  0  0  0  0  0  0  0  0  0  0
  1  2  1  0
  2  3  2  0
  3  4  1  0
  4  5  2  0
  5  6  1  0
  6  7  2  0
  5  8  1  0
  8  9  1  0
  9 10  1  0
 10 11  2  0
 10 12  2  0
 10 13  1  0
 13 14  2  0
 14 15  1  0
 15 16  2  0
 16 17  1  0
 17 18  2  0
  9 19  1  0
 19 20  2  0
 20 21  1  0
 21 22  2  0
 22 23  1  0
 23 24  2  0
 24 25  1  0
  7  2  1  0
 18 13  1  0
 24 19  1  0
 25  4  1  0
  1 26  1  0
  1 27  1  0
  1 28  1  0
  3 29  1  0
  6 30  1  0
  7 31  1  0
  8 32  1  0
  8 33  1  0
 14 34  1  0
 15 35  1  0
 16 36  1  0
 17 37  1  0
 18 38  1  0
 20 39  1  0
 21 40  1  0
 22 41  1  0
 23 42  1  0
 25 43  1  0
M  CHG  1   7   1
M  END
>  <UniqueID>  (40) 
36

>  <SMILES>  (40) 
Cc1cc2c(c[nH+]1)CN(S(=O)(=O)c1ccccc1)c1ccccc1N2

>  <Energy>  (40) 
59.47631146189713

>  <Genealogy>  (40) 
Cc1cc2c(c[nH+]1)CN(S(=O)(=O)c1ccccc1)c1ccccc1N2 (protonated)
Cc1cc2c(c[nH+]1)CN(S(=O)(=O)c1ccccc1)c1ccccc1N2 (3D coordinates assigned)
Cc1cc2c(c[nH+]1)CN(S(=O)(=O)c1ccccc1)c1ccccc1N2 (nonaromatic ring conformer: 59.47631146189713 kcal/mol)

>  <smiles>  (40) 
Cc1cc2c(cn1)CN(S(=O)(=O)c1ccccc1)c1ccccc1N2

>  <score_type>  (40) 
oracle

>  <origin>  (40) 
adg

>  <m_score__min__energy>  (40) 
-6.4000000000000004

>  <m_primary>  (40) 
energy

$$$$
40:0
     RDKit          3D

 47 49  0  0  0  0  0  0  0  0999 V2000
   56.3960   25.9030   45.9000 C   0  0  0  0  0  0  0  0  0  0  0  0
   56.2710   27.3230   45.9030 O   0  0  0  0  0  0  0  0  0  0  0  0
   57.3630   28.2010   46.0050 C   0  0  0  0  0  0  0  0  0  0  0  0
   58.1710   28.2450   47.1560 C   0  0  0  0  0  0  0  0  0  0  0  0
   59.1980   29.1840   47.2610 C   0  0  0  0  0  0  0  0  0  0  0  0
   59.9940   29.2670   48.4070 C   0  0  0  0  0  0  0  0  0  0  0  0
   60.9570   30.2790   48.5320 C   0  0  0  0  0  0  0  0  0  0  0  0
   61.8260   30.2810   49.7590 C   0  0  0  0  0  0  0  0  0  0  0  0
   61.1120   31.2070   47.4650 C   0  0  0  0  0  0  0  0  0  0  0  0
   62.3010   32.5640   47.5370 S   0  0  0  0  0  0  0  0  0  0  0  0
   61.2730   33.7470   48.4970 C   0  0  0  0  0  0  0  0  0  0  0  0
   59.9610   34.1820   47.8600 C   0  0  0  0  0  0  0  0  0  0  0  0
   59.2790   34.9690   48.5090 O   0  0  0  0  0  0  0  0  0  0  0  0
   59.3790   33.6120   46.6400 N   0  0  0  0  0  0  0  0  0  0  0  0
   59.3150   34.5270   45.4680 C   0  0  0  0  0  0  0  0  0  0  0  0
   57.9200   34.4020   44.8680 C   0  0  0  0  0  0  0  0  0  0  0  0
   57.2490   33.2580   45.5940 C   0  0  0  0  0  0  0  0  0  0  0  0
   58.0210   33.1080   46.8880 C   0  0  0  0  0  0  0  0  0  0  0  0
   60.3820   31.0470   46.3290 N   0  0  0  0  0  0  0  0  0  0  0  0
   59.4470   30.0670   46.1930 C   0  0  0  0  0  0  0  0  0  0  0  0
   58.6810   29.9970   45.0300 C   0  0  0  0  0  0  0  0  0  0  0  0
   57.6380   29.0580   44.9250 C   0  0  0  0  0  0  0  0  0  0  0  0
   56.8120   28.9930   43.7930 O   0  0  0  0  0  0  0  0  0  0  0  0
   56.5900   30.0750   42.8990 C   0  0  0  0  0  0  0  0  0  0  0  0
   56.4283   25.5356   46.9363 H   0  0  0  0  0  0  0  0  0  0  0  0
   55.5334   25.4601   45.3807 H   0  0  0  0  0  0  0  0  0  0  0  0
   57.3227   25.6176   45.3807 H   0  0  0  0  0  0  0  0  0  0  0  0
   57.9923   27.5355   47.9774 H   0  0  0  0  0  0  0  0  0  0  0  0
   59.8642   28.5335   49.2164 H   0  0  0  0  0  0  0  0  0  0  0  0
   61.1916   30.2795   50.6576 H   0  0  0  0  0  0  0  0  0  0  0  0
   62.4632   29.3843   49.7585 H   0  0  0  0  0  0  0  0  0  0  0  0
   62.4590   31.1806   49.7585 H   0  0  0  0  0  0  0  0  0  0  0  0
   61.0354   33.2759   49.4622 H   0  0  0  0  0  0  0  0  0  0  0  0
   61.8774   34.6631   48.5709 H   0  0  0  0  0  0  0  0  0  0  0  0
   59.9660   32.7750   46.3700 H   0  0  0  0  0  0  0  0  0  0  0  0
   59.4943   35.5634   45.7899 H   0  0  0  0  0  0  0  0  0  0  0  0
   60.0822   34.2617   44.7258 H   0  0  0  0  0  0  0  0  0  0  0  0
   57.3549   35.3335   45.0196 H   0  0  0  0  0  0  0  0  0  0  0  0
   57.9649   34.2176   43.7845 H   0  0  0  0  0  0  0  0  0  0  0  0
   56.1945   33.4952   45.7983 H   0  0  0  0  0  0  0  0  0  0  0  0
   57.2543   32.3321   45.0001 H   0  0  0  0  0  0  0  0  0  0  0  0
   57.5402   33.6945   47.6847 H   0  0  0  0  0  0  0  0  0  0  0  0
   58.0457   32.0566   47.2104 H   0  0  0  0  0  0  0  0  0  0  0  0
   58.8925   30.6777   44.1922 H   0  0  0  0  0  0  0  0  0  0  0  0
   56.4016   30.9933   43.4744 H   0  0  0  0  0  0  0  0  0  0  0  0
   57.4781   30.2151   42.2653 H   0  0  0  0  0  0  0  0  0  0  0  0
   55.7185   29.8541   42.2653 H   0  0  0  0  0  0  0  0  0  0  0  0
  1  2  1  0
  2  3  1  0
  3  4  2  0
  4  5  1  0
  5  6  2  0
  6  7  1  0
  7  8  1  0
  7  9  2  0
  9 10  1  0
 10 11  1  0
 11 12  1  0
 12 13  2  0
 12 14  1  0
 14 15  1  0
 15 16  1  0
 16 17  1  0
 17 18  1  0
  9 19  1  0
 19 20  2  0
 20 21  1  0
 21 22  2  0
 22 23  1  0
 23 24  1  0
 22  3  1  0
 20  5  1  0
 18 14  1  0
  1 25  1  0
  1 26  1  0
  1 27  1  0
  4 28  1  0
  6 29  1  0
  8 30  1  0
  8 31  1  0
  8 32  1  0
 11 33  1  0
 11 34  1  0
 14 35  1  0
 15 36  1  0
 15 37  1  0
 16 38  1  0
 16 39  1  0
 17 40  1  0
 17 41  1  0
 18 42  1  0
 18 43  1  0
 21 44  1  0
 24 45  1  0
 24 46  1  0
 24 47  1  0
M  CHG  1  14   1
M  END
>  <UniqueID>  (41) 
37

>  <SMILES>  (41) 
COc1cc2cc(C)c(SCC(=O)[NH+]3CCCC3)nc2cc1OC

>  <Energy>  (41) 
64.80215948645069

>  <Genealogy>  (41) 
COc1cc2cc(C)c(SCC(=O)[NH+]3CCCC3)nc2cc1OC (protonated)
COc1cc2cc(C)c(SCC(=O)[NH+]3CCCC3)nc2cc1OC (3D coordinates assigned)
COc1cc2cc(C)c(SCC(=O)[NH+]3CCCC3)nc2cc1OC (nonaromatic ring conformer: 64.80215948645069 kcal/mol)

>  <smiles>  (41) 
COc1cc2cc(C)c(SCC(=O)N3CCCC3)nc2cc1OC

>  <score_type>  (41) 
oracle

>  <origin>  (41) 
adg

>  <m_score__min__energy>  (41) 
-5.9199999999999999

>  <m_primary>  (41) 
energy

$$$$
41:0
     RDKit          3D

 40 43  0  0  0  0  0  0  0  0999 V2000
   60.7700   27.1220   49.7750 C   0  0  0  0  0  0  0  0  0  0  0  0
   60.1170   27.5080   48.4810 C   0  0  0  0  0  0  0  0  0  0  0  0
   60.6390   27.0470   47.2620 C   0  0  0  0  0  0  0  0  0  0  0  0
   60.0110   27.3780   46.0580 C   0  0  0  0  0  0  0  0  0  0  0  0
   58.8420   28.1540   46.0570 C   0  0  0  0  0  0  0  0  0  0  0  0
   58.1970   28.5460   44.7570 C   0  0  0  0  0  0  0  0  0  0  0  0
   57.6390   29.8900   44.8630 N   0  0  0  0  0  0  0  0  0  0  0  0
   56.4720   30.2790   44.3560 N   0  0  0  0  0  0  0  0  0  0  0  0
   56.2720   31.5840   44.5560 N   0  0  0  0  0  0  0  0  0  0  0  0
   57.3690   32.0170   45.2070 C   0  0  0  0  0  0  0  0  0  0  0  0
   57.7290   33.2830   45.6380 C   0  0  0  0  0  0  0  0  0  0  0  0
   56.9700   34.2740   45.4770 O   0  0  0  0  0  0  0  0  0  0  0  0
   58.9460   33.4210   46.2420 N   0  0  0  0  0  0  0  0  0  0  0  0
   59.7940   32.3490   46.4160 C   0  0  0  0  0  0  0  0  0  0  0  0
   61.1160   32.5410   47.0650 C   0  0  0  0  0  0  0  0  0  0  0  0
   61.6000   31.6030   47.9950 C   0  0  0  0  0  0  0  0  0  0  0  0
   62.8440   31.7870   48.6080 C   0  0  0  0  0  0  0  0  0  0  0  0
   63.6230   32.9100   48.3010 C   0  0  0  0  0  0  0  0  0  0  0  0
   64.8950   33.0970   48.9300 N   0  0  0  0  0  0  0  0  0  0  0  0
   63.1480   33.8470   47.3770 C   0  0  0  0  0  0  0  0  0  0  0  0
   61.9050   33.6670   46.7630 C   0  0  0  0  0  0  0  0  0  0  0  0
   59.4180   31.1050   45.9800 N   0  0  0  0  0  0  0  0  0  0  0  0
   58.2060   30.9800   45.3910 C   0  0  0  0  0  0  0  0  0  0  0  0
   58.3180   28.6090   47.2770 C   0  0  0  0  0  0  0  0  0  0  0  0
   58.9450   28.2790   48.4820 C   0  0  0  0  0  0  0  0  0  0  0  0
   60.1594   27.4829   50.6158 H   0  0  0  0  0  0  0  0  0  0  0  0
   60.8577   26.0268   49.8291 H   0  0  0  0  0  0  0  0  0  0  0  0
   61.7718   27.5732   49.8291 H   0  0  0  0  0  0  0  0  0  0  0  0
   61.5451   26.4233   47.2544 H   0  0  0  0  0  0  0  0  0  0  0  0
   60.4357   27.0281   45.1056 H   0  0  0  0  0  0  0  0  0  0  0  0
   58.9505   28.5264   43.9558 H   0  0  0  0  0  0  0  0  0  0  0  0
   57.3889   27.8363   44.5260 H   0  0  0  0  0  0  0  0  0  0  0  0
   60.9955   30.7178   48.2422 H   0  0  0  0  0  0  0  0  0  0  0  0
   63.2119   31.0469   49.3339 H   0  0  0  0  0  0  0  0  0  0  0  0
   65.7760   33.0770   48.3680 H   0  0  0  0  0  0  0  0  0  0  0  0
   64.9640   33.2540   49.9590 H   0  0  0  0  0  0  0  0  0  0  0  0
   63.7560   34.7304   47.1322 H   0  0  0  0  0  0  0  0  0  0  0  0
   61.5409   34.4106   46.0387 H   0  0  0  0  0  0  0  0  0  0  0  0
   57.4091   29.2286   47.2850 H   0  0  0  0  0  0  0  0  0  0  0  0
   58.5178   28.6252   49.4347 H   0  0  0  0  0  0  0  0  0  0  0  0
  1  2  1  0
  2  3  2  0
  3  4  1  0
  4  5  2  0
  5  6  1  0
  6  7  1  0
  7  8  1  0
  8  9  2  0
  9 10  1  0
 10 11  1  0
 11 12  2  0
 11 13  1  0
 13 14  1  0
 14 15  1  0
 15 16  2  0
 16 17  1  0
 17 18  2  0
 18 19  1  0
 18 20  1  0
 20 21  2  0
 14 22  2  0
 22 23  1  0
  5 24  1  0
 24 25  2  0
 25  2  1  0
 23  7  1  0
 23 10  2  0
 21 15  1  0
  1 26  1  0
  1 27  1  0
  1 28  1  0
  3 29  1  0
  4 30  1  0
  6 31  1  0
  6 32  1  0
 16 33  1  0
 17 34  1  0
 19 35  1  0
 19 36  1  0
 20 37  1  0
 21 38  1  0
 24 39  1  0
 25 40  1  0
M  CHG  1  13  -1
M  END
>  <UniqueID>  (42) 
38

>  <SMILES>  (42) 
Cc1ccc(Cn2nnc3c(=O)[n-]c(-c4ccc(N)cc4)nc32)cc1

>  <Energy>  (42) 
91.0557643281191

>  <Genealogy>  (42) 
Cc1ccc(Cn2nnc3c(=O)[n-]c(-c4ccc(N)cc4)nc32)cc1 (protonated)
Cc1ccc(Cn2nnc3c(=O)[n-]c(-c4ccc(N)cc4)nc32)cc1 (3D coordinates assigned)
Cc1ccc(Cn2nnc3c(=O)[n-]c(-c4ccc(N)cc4)nc32)cc1 (optimized conformer: 91.0557643281191 kcal/mol)

>  <smiles>  (42) 
Cc1ccc(Cn2nnc3c(=O)[nH]c(-c4ccc(N)cc4)nc32)cc1

>  <score_type>  (42) 
oracle

>  <origin>  (42) 
adg

>  <m_score__min__energy>  (42) 
-8.7400000000000002

>  <m_primary>  (42) 
energy

$$$$
42:0
     RDKit          3D

 35 36  0  0  0  0  0  0  0  0999 V2000
   55.4900   23.1640   47.7590 C   0  0  0  0  0  0  0  0  0  0  0  0
   55.5540   24.1540   46.7360 O   0  0  0  0  0  0  0  0  0  0  0  0
   56.5240   25.1660   46.6730 C   0  0  0  0  0  0  0  0  0  0  0  0
   57.8790   24.9290   46.9720 C   0  0  0  0  0  0  0  0  0  0  0  0
   58.8110   25.9670   46.8910 C   0  0  0  0  0  0  0  0  0  0  0  0
   58.4060   27.2570   46.5180 C   0  0  0  0  0  0  0  0  0  0  0  0
   59.4210   28.3670   46.3950 C   0  0  0  0  0  0  0  0  0  0  0  0
   59.3390   29.0530   45.0910 N   0  0  0  0  0  0  0  0  0  0  0  0
   58.7650   30.3820   45.2070 C   0  0  0  0  0  0  0  0  0  0  0  0
   59.4690   31.3560   45.9450 C   0  0  0  0  0  0  0  0  0  0  0  0
   58.9500   32.6360   46.1270 C   0  0  0  0  0  0  0  0  0  0  0  0
   57.7250   32.9770   45.5640 C   0  0  0  0  0  0  0  0  0  0  0  0
   57.2220   34.2240   45.7450 F   0  0  0  0  0  0  0  0  0  0  0  0
   57.0230   32.0470   44.7980 C   0  0  0  0  0  0  0  0  0  0  0  0
   57.5270   30.7440   44.5920 C   0  0  0  0  0  0  0  0  0  0  0  0
   56.7620   29.7940   43.6860 C   0  0  0  0  0  0  0  0  0  0  0  0
   56.4030   30.4350   42.5160 F   0  0  0  0  0  0  0  0  0  0  0  0
   55.6250   29.3470   44.3340 F   0  0  0  0  0  0  0  0  0  0  0  0
   57.5170   28.6850   43.3430 F   0  0  0  0  0  0  0  0  0  0  0  0
   57.0560   27.4940   46.2210 C   0  0  0  0  0  0  0  0  0  0  0  0
   56.1220   26.4550   46.2980 C   0  0  0  0  0  0  0  0  0  0  0  0
   54.7880   26.7090   45.9960 O   0  0  0  0  0  0  0  0  0  0  0  0
   55.5216   23.6522   48.7442 H   0  0  0  0  0  0  0  0  0  0  0  0
   54.5532   22.5957   47.6612 H   0  0  0  0  0  0  0  0  0  0  0  0
   56.3458   22.4799   47.6612 H   0  0  0  0  0  0  0  0  0  0  0  0
   58.2057   23.9220   47.2708 H   0  0  0  0  0  0  0  0  0  0  0  0
   59.8687   25.7712   47.1212 H   0  0  0  0  0  0  0  0  0  0  0  0
   59.2417   29.1015   47.1940 H   0  0  0  0  0  0  0  0  0  0  0  0
   60.4227   27.9206   46.4802 H   0  0  0  0  0  0  0  0  0  0  0  0
   58.8270   28.4440   44.4180 H   0  0  0  0  0  0  0  0  0  0  0  0
   60.3100   29.1530   44.7140 H   0  0  0  0  0  0  0  0  0  0  0  0
   60.4446   31.1007   46.3844 H   0  0  0  0  0  0  0  0  0  0  0  0
   59.5095   33.3773   46.7164 H   0  0  0  0  0  0  0  0  0  0  0  0
   56.0613   32.3329   44.3470 H   0  0  0  0  0  0  0  0  0  0  0  0
   56.7296   28.5022   45.9259 H   0  0  0  0  0  0  0  0  0  0  0  0
  1  2  1  0
  2  3  1  0
  3  4  2  0
  4  5  1  0
  5  6  2  0
  6  7  1  0
  7  8  1  0
  8  9  1  0
  9 10  2  0
 10 11  1  0
 11 12  2  0
 12 13  1  0
 12 14  1  0
 14 15  2  0
 15 16  1  0
 16 17  1  0
 16 18  1  0
 16 19  1  0
  6 20  1  0
 20 21  2  0
 21 22  1  0
 21  3  1  0
 15  9  1  0
  1 23  1  0
  1 24  1  0
  1 25  1  0
  4 26  1  0
  5 27  1  0
  7 28  1  0
  7 29  1  0
  8 30  1  0
  8 31  1  0
 10 32  1  0
 11 33  1  0
 14 34  1  0
 20 35  1  0
M  CHG  2   8   1  22  -1
M  END
>  <UniqueID>  (43) 
39

>  <SMILES>  (43) 
COc1ccc(C[NH2+]c2ccc(F)cc2C(F)(F)F)cc1[O-]

>  <Energy>  (43) 
40.16921990286588

>  <Genealogy>  (43) 
COc1ccc(C[NH2+]c2ccc(F)cc2C(F)(F)F)cc1[O-] (protonated)
COc1ccc(C[NH2+]c2ccc(F)cc2C(F)(F)F)cc1[O-] (3D coordinates assigned)
COc1ccc(C[NH2+]c2ccc(F)cc2C(F)(F)F)cc1[O-] (optimized conformer: 40.16921990286588 kcal/mol)

>  <smiles>  (43) 
COc1ccc(CNc2ccc(F)cc2C(F)(F)F)cc1O

>  <score_type>  (43) 
oracle

>  <origin>  (43) 
adg

>  <m_score__min__energy>  (43) 
-8.7400000000000002

>  <m_primary>  (43) 
energy

$$$$
43:0
     RDKit          3D

 50 53  0  0  0  0  0  0  0  0999 V2000
   60.2080   30.7870   50.4550 C   0  0  0  0  0  0  0  0  0  0  0  0
   60.9280   30.5830   49.1260 C   0  0  0  0  0  0  0  0  0  0  0  0
   59.9540   30.6090   47.9880 C   0  0  0  0  0  0  0  0  0  0  0  0
   59.1940   31.7100   47.7690 N   0  0  0  0  0  0  0  0  0  0  0  0
   58.3350   31.7880   46.7190 C   0  0  0  0  0  0  0  0  0  0  0  0
   57.4580   33.3490   46.5060 S   0  0  0  0  0  0  0  0  0  0  0  0
   58.7130   34.0840   45.4010 C   0  0  0  0  0  0  0  0  0  0  0  0
   59.6520   34.9240   46.2100 C   0  0  0  0  0  0  0  0  0  0  0  0
   59.9530   36.0760   45.7950 O   0  0  0  0  0  0  0  0  0  0  0  0
   60.2600   34.4110   47.4060 N   0  0  0  0  0  0  0  0  0  0  0  0
   59.6740   34.5230   48.7430 C   0  0  0  0  0  0  0  0  0  0  0  0
   60.8100   34.1890   49.7430 C   0  0  0  0  0  0  0  0  0  0  0  0
   61.9410   33.7990   48.8590 C   0  0  0  0  0  0  0  0  0  0  0  0
   63.1990   33.3240   49.2330 C   0  0  0  0  0  0  0  0  0  0  0  0
   64.1120   32.9760   48.2220 C   0  0  0  0  0  0  0  0  0  0  0  0
   63.7490   33.0980   46.8660 C   0  0  0  0  0  0  0  0  0  0  0  0
   62.4770   33.5790   46.5150 C   0  0  0  0  0  0  0  0  0  0  0  0
   61.5950   33.9420   47.5420 C   0  0  0  0  0  0  0  0  0  0  0  0
   58.2060   30.6790   45.8360 C   0  0  0  0  0  0  0  0  0  0  0  0
   57.3120   30.6210   44.7420 C   0  0  0  0  0  0  0  0  0  0  0  0
   56.5380   31.5870   44.4970 O   0  0  0  0  0  0  0  0  0  0  0  0
   57.2780   29.5120   43.9350 N   0  0  0  0  0  0  0  0  0  0  0  0
   56.3440   29.4930   42.7910 C   0  0  0  0  0  0  0  0  0  0  0  0
   58.1280   28.4600   44.1610 C   0  0  0  0  0  0  0  0  0  0  0  0
   58.1510   27.4880   43.3540 O   0  0  0  0  0  0  0  0  0  0  0  0
   58.9670   28.4600   45.2470 N   0  0  0  0  0  0  0  0  0  0  0  0
   59.8740   27.3200   45.4920 C   0  0  0  0  0  0  0  0  0  0  0  0
   59.0210   29.5500   46.0750 C   0  0  0  0  0  0  0  0  0  0  0  0
   59.8760   29.5580   47.1370 N   0  0  0  0  0  0  0  0  0  0  0  0
   60.9044   30.5897   51.2833 H   0  0  0  0  0  0  0  0  0  0  0  0
   59.8450   31.8233   50.5201 H   0  0  0  0  0  0  0  0  0  0  0  0
   59.3553   30.0951   50.5201 H   0  0  0  0  0  0  0  0  0  0  0  0
   61.6664   31.3866   48.9880 H   0  0  0  0  0  0  0  0  0  0  0  0
   61.4289   29.6038   49.1412 H   0  0  0  0  0  0  0  0  0  0  0  0
   59.2756   33.2828   44.8994 H   0  0  0  0  0  0  0  0  0  0  0  0
   58.2172   34.7096   44.6441 H   0  0  0  0  0  0  0  0  0  0  0  0
   59.3048   35.5451   48.9130 H   0  0  0  0  0  0  0  0  0  0  0  0
   58.8199   33.8406   48.8645 H   0  0  0  0  0  0  0  0  0  0  0  0
   61.0703   35.0677   50.3513 H   0  0  0  0  0  0  0  0  0  0  0  0
   60.5339   33.4025   50.4608 H   0  0  0  0  0  0  0  0  0  0  0  0
   63.4699   33.2242   50.2944 H   0  0  0  0  0  0  0  0  0  0  0  0
   65.1130   32.6073   48.4905 H   0  0  0  0  0  0  0  0  0  0  0  0
   64.4644   32.8155   46.0796 H   0  0  0  0  0  0  0  0  0  0  0  0
   62.1802   33.6687   45.4596 H   0  0  0  0  0  0  0  0  0  0  0  0
   55.3090   29.4719   43.1630 H   0  0  0  0  0  0  0  0  0  0  0  0
   56.4954   30.3944   42.1790 H   0  0  0  0  0  0  0  0  0  0  0  0
   56.5320   28.5985   42.1790 H   0  0  0  0  0  0  0  0  0  0  0  0
   59.9920   27.1716   46.5755 H   0  0  0  0  0  0  0  0  0  0  0  0
   59.4498   26.4106   45.0414 H   0  0  0  0  0  0  0  0  0  0  0  0
   60.8555   27.5289   45.0414 H   0  0  0  0  0  0  0  0  0  0  0  0
  1  2  1  0
  2  3  1  0
  3  4  2  0
  4  5  1  0
  5  6  1  0
  6  7  1  0
  7  8  1  0
  8  9  2  0
  8 10  1  0
 10 11  1  0
 11 12  1  0
 12 13  1  0
 13 14  2  0
 14 15  1  0
 15 16  2  0
 16 17  1  0
 17 18  2  0
  5 19  2  0
 19 20  1  0
 20 21  2  0
 20 22  1  0
 22 23  1  0
 22 24  1  0
 24 25  2  0
 24 26  1  0
 26 27  1  0
 26 28  1  0
 28 29  2  0
 29  3  1  0
 18 10  1  0
 28 19  1  0
 18 13  1  0
  1 30  1  0
  1 31  1  0
  1 32  1  0
  2 33  1  0
  2 34  1  0
  7 35  1  0
  7 36  1  0
 11 37  1  0
 11 38  1  0
 12 39  1  0
 12 40  1  0
 14 41  1  0
 15 42  1  0
 16 43  1  0
 17 44  1  0
 23 45  1  0
 23 46  1  0
 23 47  1  0
 27 48  1  0
 27 49  1  0
 27 50  1  0
M  END
>  <UniqueID>  (44) 
40

>  <SMILES>  (44) 
CCc1nc(SCC(=O)N2CCc3ccccc32)c2c(=O)n(C)c(=O)n(C)c2n1

>  <Energy>  (44) 
79.31628052955674

>  <Genealogy>  (44) 
CCc1nc(SCC(=O)N2CCc3ccccc32)c2c(=O)n(C)c(=O)n(C)c2n1 (3D coordinates assigned)
CCc1nc(SCC(=O)N2CCc3ccccc32)c2c(=O)n(C)c(=O)n(C)c2n1 (nonaromatic ring conformer: 79.31628052955674 kcal/mol)

>  <smiles>  (44) 
CCc1nc(SCC(=O)N2CCc3ccccc32)c2c(=O)n(C)c(=O)n(C)c2n1

>  <score_type>  (44) 
oracle

>  <origin>  (44) 
adg

>  <m_score__min__energy>  (44) 
-8.7300000000000004

>  <m_primary>  (44) 
energy

$$$$
44:0
     RDKit          3D

 32 34  0  0  1  0  0  0  0  0999 V2000
   60.2220   28.6350   45.8300 Br  0  0  0  0  0  0  0  0  0  0  0  0
   58.8250   27.4230   46.1720 C   0  0  0  0  0  0  0  0  0  0  0  0
   59.1080   26.3270   46.9880 C   0  0  0  0  0  0  0  0  0  0  0  0
   58.1470   25.3880   47.2920 C   0  0  0  0  0  0  0  0  0  0  0  0
   56.9030   25.5540   46.7770 C   0  0  0  0  0  0  0  0  0  0  0  0
   56.6190   26.6550   45.9560 C   0  0  0  0  0  0  0  0  0  0  0  0
   57.5450   27.6030   45.6340 C   0  0  0  0  0  0  0  0  0  0  0  0
   57.2350   28.7440   44.7780 C   0  0  0  0  0  0  0  0  0  0  0  0
   57.1490   29.9990   45.2660 N   0  0  0  0  0  0  0  0  0  0  0  0
   56.8650   31.0490   44.4760 C   0  0  0  0  0  0  0  0  0  0  0  0
   56.7710   32.2610   44.8820 N   0  0  0  0  0  0  0  0  0  0  0  0
   57.7900   33.2040   44.5260 C   0  0  0  0  0  0  0  0  0  0  0  0
   58.7310   33.4490   45.6870 C   0  0  0  0  0  0  0  0  0  0  0  0
   59.0680   32.5310   46.6970 C   0  0  0  0  0  0  0  0  0  0  0  0
   59.9240   32.9740   47.6230 C   0  0  0  0  0  0  0  0  0  0  0  0
   60.4040   34.2250   47.5510 C   0  0  0  0  0  0  0  0  0  0  0  0
   59.6150   34.9310   46.0400 S   0  0  0  0  0  0  0  0  0  0  0  0
   56.6440   30.8680   43.1010 C   0  0  0  0  0  0  0  0  0  0  0  0
   56.7330   29.5990   42.6220 C   0  0  0  0  0  0  0  0  0  0  0  0
   57.0220   28.5830   43.4600 N   0  0  0  0  0  0  0  0  0  0  0  0
   60.1220   26.2101   47.3980 H   0  0  0  0  0  0  0  0  0  0  0  0
   58.3820   24.5269   47.9349 H   0  0  0  0  0  0  0  0  0  0  0  0
   56.1139   24.8221   47.0043 H   0  0  0  0  0  0  0  0  0  0  0  0
   55.6009   26.7588   45.5526 H   0  0  0  0  0  0  0  0  0  0  0  0
   58.3640   32.8094   43.6746 H   0  0  0  0  0  0  0  0  0  0  0  0
   57.3087   34.1560   44.2576 H   0  0  0  0  0  0  0  0  0  0  0  0
   58.6534   31.5125   46.7235 H   0  0  0  0  0  0  0  0  0  0  0  0
   60.2353   32.3125   48.4449 H   0  0  0  0  0  0  0  0  0  0  0  0
   61.1083   34.7179   48.2373 H   0  0  0  0  0  0  0  0  0  0  0  0
   56.4092   31.7158   42.4407 H   0  0  0  0  0  0  0  0  0  0  0  0
   56.5695   29.4013   41.5523 H   0  0  0  0  0  0  0  0  0  0  0  0
   57.0670   27.6340   42.9860 H   0  0  0  0  0  0  0  0  0  0  0  0
  1  2  1  0
  2  3  2  0
  3  4  1  0
  4  5  2  0
  5  6  1  0
  6  7  2  0
  7  8  1  0
  8  9  2  0
  9 10  1  0
 10 11  2  0
 11 12  1  0
 12 13  1  0
 13 14  2  0
 14 15  1  0
 15 16  2  0
 16 17  1  0
 10 18  1  0
 18 19  2  0
 19 20  1  0
  7  2  1  0
 20  8  1  0
 17 13  1  0
  3 21  1  0
  4 22  1  0
  5 23  1  0
  6 24  1  0
 12 25  1  0
 12 26  1  0
 14 27  1  0
 15 28  1  0
 16 29  1  0
 18 30  1  0
 19 31  1  0
 20 32  1  0
M  END
>  <smiles>  (45) 
Brc1ccccc1-c1nc(=NCc2cccs2)cc[nH]1

>  <score_type>  (45) 
oracle

>  <origin>  (45) 
adg

>  <m_score__min__energy>  (45) 
-7.8200000000000003

>  <m_primary>  (45) 
energy

$$$$
45:0
     RDKit          3D

 39 42  0  0  0  0  0  0  0  0999 V2000
   58.2350   28.3050   47.7360 O   0  0  0  0  0  0  0  0  0  0  0  0
   58.0380   28.8270   46.6030 C   0  0  0  0  0  0  0  0  0  0  0  0
   57.6670   28.0070   45.5170 C   0  0  0  0  0  0  0  0  0  0  0  0
   57.5240   26.5390   45.6710 C   0  0  0  0  0  0  0  0  0  0  0  0
   58.6670   25.7230   45.6290 C   0  0  0  0  0  0  0  0  0  0  0  0
   58.5510   24.3370   45.7790 C   0  0  0  0  0  0  0  0  0  0  0  0
   57.2960   23.7570   45.9790 C   0  0  0  0  0  0  0  0  0  0  0  0
   56.1550   24.5620   46.0360 C   0  0  0  0  0  0  0  0  0  0  0  0
   56.2630   25.9490   45.8870 C   0  0  0  0  0  0  0  0  0  0  0  0
   55.1460   26.7140   45.9870 F   0  0  0  0  0  0  0  0  0  0  0  0
   57.4030   28.5790   44.3090 N   0  0  0  0  0  0  0  0  0  0  0  0
   57.5200   29.9180   44.1290 C   0  0  0  0  0  0  0  0  0  0  0  0
   57.2610   30.4760   42.9150 N   0  0  0  0  0  0  0  0  0  0  0  0
   57.3730   31.8150   42.7190 C   0  0  0  0  0  0  0  0  0  0  0  0
   57.7600   32.6360   43.7800 C   0  0  0  0  0  0  0  0  0  0  0  0
   58.0190   32.0820   44.9940 N   0  0  0  0  0  0  0  0  0  0  0  0
   57.9090   30.7390   45.2030 C   0  0  0  0  0  0  0  0  0  0  0  0
   58.1660   30.1860   46.4320 N   0  0  0  0  0  0  0  0  0  0  0  0
   58.5320   31.0530   47.5720 C   0  0  0  0  0  0  0  0  0  0  0  0
   59.9190   31.6130   47.3880 C   0  0  0  0  0  0  0  0  0  0  0  0
   60.1060   32.9750   47.0920 C   0  0  0  0  0  0  0  0  0  0  0  0
   61.3960   33.4950   46.9490 C   0  0  0  0  0  0  0  0  0  0  0  0
   62.5080   32.6620   47.1020 C   0  0  0  0  0  0  0  0  0  0  0  0
   62.3320   31.3080   47.3970 C   0  0  0  0  0  0  0  0  0  0  0  0
   61.0430   30.7850   47.5400 C   0  0  0  0  0  0  0  0  0  0  0  0
   59.6578   26.1762   45.4775 H   0  0  0  0  0  0  0  0  0  0  0  0
   59.4491   23.7031   45.7394 H   0  0  0  0  0  0  0  0  0  0  0  0
   57.2058   22.6665   46.0916 H   0  0  0  0  0  0  0  0  0  0  0  0
   55.1684   24.1035   46.1986 H   0  0  0  0  0  0  0  0  0  0  0  0
   57.1230   27.9810   43.4990 H   0  0  0  0  0  0  0  0  0  0  0  0
   57.1603   32.2499   41.7312 H   0  0  0  0  0  0  0  0  0  0  0  0
   57.8545   33.7223   43.6347 H   0  0  0  0  0  0  0  0  0  0  0  0
   57.8132   31.8828   47.6406 H   0  0  0  0  0  0  0  0  0  0  0  0
   58.5106   30.4541   48.4944 H   0  0  0  0  0  0  0  0  0  0  0  0
   59.2335   33.6342   46.9724 H   0  0  0  0  0  0  0  0  0  0  0  0
   61.5360   34.5609   46.7158 H   0  0  0  0  0  0  0  0  0  0  0  0
   63.5222   33.0729   46.9900 H   0  0  0  0  0  0  0  0  0  0  0  0
   63.2076   30.6530   47.5168 H   0  0  0  0  0  0  0  0  0  0  0  0
   60.9087   29.7184   47.7730 H   0  0  0  0  0  0  0  0  0  0  0  0
  1  2  2  0
  2  3  1  0
  3  4  1  0
  4  5  2  0
  5  6  1  0
  6  7  2  0
  7  8  1  0
  8  9  2  0
  9 10  1  0
  3 11  2  0
 11 12  1  0
 12 13  2  0
 13 14  1  0
 14 15  2  0
 15 16  1  0
 16 17  2  0
 17 18  1  0
 18 19  1  0
 19 20  1  0
 20 21  2  0
 21 22  1  0
 22 23  2  0
 23 24  1  0
 24 25  2  0
 18  2  1  0
 25 20  1  0
  9  4  1  0
 17 12  1  0
  5 26  1  0
  6 27  1  0
  7 28  1  0
  8 29  1  0
 11 30  1  0
 14 31  1  0
 15 32  1  0
 19 33  1  0
 19 34  1  0
 21 35  1  0
 22 36  1  0
 23 37  1  0
 24 38  1  0
 25 39  1  0
M  CHG  1  11   1
M  END
>  <UniqueID>  (46) 
41

>  <SMILES>  (46) 
O=c1c(-c2ccccc2F)[nH+]c2nccnc2n1Cc1ccccc1

>  <Energy>  (46) 
59.28511020640828

>  <Genealogy>  (46) 
O=c1c(-c2ccccc2F)[nH+]c2nccnc2n1Cc1ccccc1 (protonated)
O=c1c(-c2ccccc2F)[nH+]c2nccnc2n1Cc1ccccc1 (3D coordinates assigned)
O=c1c(-c2ccccc2F)[nH+]c2nccnc2n1Cc1ccccc1 (optimized conformer: 59.28511020640828 kcal/mol)

>  <smiles>  (46) 
O=c1c(-c2ccccc2F)nc2nccnc2n1Cc1ccccc1

>  <score_type>  (46) 
oracle

>  <origin>  (46) 
adg

>  <m_score__min__energy>  (46) 
-5.9500000000000002

>  <m_primary>  (46) 
energy

$$$$
46:0
     RDKit          3D

 48 51  0  0  0  0  0  0  0  0999 V2000
   60.8690   28.4580   51.0820 C   0  0  0  0  0  0  0  0  0  0  0  0
   61.1240   27.7240   49.8880 O   0  0  0  0  0  0  0  0  0  0  0  0
   60.3010   27.7470   48.7530 C   0  0  0  0  0  0  0  0  0  0  0  0
   59.8680   28.9870   48.2750 C   0  0  0  0  0  0  0  0  0  0  0  0
   59.0430   29.0700   47.1500 C   0  0  0  0  0  0  0  0  0  0  0  0
   58.6210   27.9010   46.4830 C   0  0  0  0  0  0  0  0  0  0  0  0
   57.7800   27.9290   45.3440 C   0  0  0  0  0  0  0  0  0  0  0  0
   57.1870   29.1800   44.8200 C   0  0  0  0  0  0  0  0  0  0  0  0
   56.0650   29.5650   45.2470 O   0  0  0  0  0  0  0  0  0  0  0  0
   57.8680   29.9340   43.8070 N   0  0  0  0  0  0  0  0  0  0  0  0
   57.3660   31.2150   43.3170 C   0  0  0  0  0  0  0  0  0  0  0  0
   57.7810   32.3240   44.2440 C   0  0  0  0  0  0  0  0  0  0  0  0
   57.3810   32.3000   45.5910 C   0  0  0  0  0  0  0  0  0  0  0  0
   57.7370   33.3430   46.4510 C   0  0  0  0  0  0  0  0  0  0  0  0
   58.4890   34.4190   45.9730 C   0  0  0  0  0  0  0  0  0  0  0  0
   58.8850   34.4540   44.6330 C   0  0  0  0  0  0  0  0  0  0  0  0
   58.5320   33.4130   43.7700 C   0  0  0  0  0  0  0  0  0  0  0  0
   57.4640   26.7240   44.6990 C   0  0  0  0  0  0  0  0  0  0  0  0
   57.9610   25.5060   45.1880 C   0  0  0  0  0  0  0  0  0  0  0  0
   57.6350   24.2110   44.5350 C   0  0  0  0  0  0  0  0  0  0  0  0
   58.4270   23.0760   44.7960 C   0  0  0  0  0  0  0  0  0  0  0  0
   58.1360   21.8530   44.1830 C   0  0  0  0  0  0  0  0  0  0  0  0
   57.0610   21.7490   43.3000 C   0  0  0  0  0  0  0  0  0  0  0  0
   56.2740   22.8690   43.0230 C   0  0  0  0  0  0  0  0  0  0  0  0
   56.5580   24.0950   43.6330 C   0  0  0  0  0  0  0  0  0  0  0  0
   58.7400   25.5080   46.3020 N   0  0  0  0  0  0  0  0  0  0  0  0
   59.0830   26.6500   46.9530 C   0  0  0  0  0  0  0  0  0  0  0  0
   59.9060   26.5750   48.0830 C   0  0  0  0  0  0  0  0  0  0  0  0
   61.0886   27.8258   51.9550 H   0  0  0  0  0  0  0  0  0  0  0  0
   61.5091   29.3522   51.1065 H   0  0  0  0  0  0  0  0  0  0  0  0
   59.8123   28.7627   51.1065 H   0  0  0  0  0  0  0  0  0  0  0  0
   60.1800   29.9076   48.7899 H   0  0  0  0  0  0  0  0  0  0  0  0
   58.7201   30.0549   46.7817 H   0  0  0  0  0  0  0  0  0  0  0  0
   58.7830   29.5880   43.4400 H   0  0  0  0  0  0  0  0  0  0  0  0
   57.7763   31.4066   42.3145 H   0  0  0  0  0  0  0  0  0  0  0  0
   56.2676   31.1767   43.2721 H   0  0  0  0  0  0  0  0  0  0  0  0
   56.7851   31.4567   45.9703 H   0  0  0  0  0  0  0  0  0  0  0  0
   57.4246   33.3165   47.5054 H   0  0  0  0  0  0  0  0  0  0  0  0
   58.7694   35.2385   46.6511 H   0  0  0  0  0  0  0  0  0  0  0  0
   59.4756   35.3025   44.2570 H   0  0  0  0  0  0  0  0  0  0  0  0
   58.8433   33.4462   42.7155 H   0  0  0  0  0  0  0  0  0  0  0  0
   56.8231   26.7338   43.8050 H   0  0  0  0  0  0  0  0  0  0  0  0
   59.2800   23.1519   45.4864 H   0  0  0  0  0  0  0  0  0  0  0  0
   58.7566   20.9705   44.3978 H   0  0  0  0  0  0  0  0  0  0  0  0
   56.8332   20.7849   42.8219 H   0  0  0  0  0  0  0  0  0  0  0  0
   55.4290   22.7867   42.3236 H   0  0  0  0  0  0  0  0  0  0  0  0
   55.9369   24.9744   43.4075 H   0  0  0  0  0  0  0  0  0  0  0  0
   60.2454   25.5947   48.4487 H   0  0  0  0  0  0  0  0  0  0  0  0
  1  2  1  0
  2  3  1  0
  3  4  2  0
  4  5  1  0
  5  6  2  0
  6  7  1  0
  7  8  1  0
  8  9  2  0
  8 10  1  0
 10 11  1  0
 11 12  1  0
 12 13  2  0
 13 14  1  0
 14 15  2  0
 15 16  1  0
 16 17  2  0
  7 18  2  0
 18 19  1  0
 19 20  1  0
 20 21  2  0
 21 22  1  0
 22 23  2  0
 23 24  1  0
 24 25  2  0
 19 26  2  0
 26 27  1  0
 27 28  2  0
 28  3  1  0
 27  6  1  0
 17 12  1  0
 25 20  1  0
  1 29  1  0
  1 30  1  0
  1 31  1  0
  4 32  1  0
  5 33  1  0
 10 34  1  0
 11 35  1  0
 11 36  1  0
 13 37  1  0
 14 38  1  0
 15 39  1  0
 16 40  1  0
 17 41  1  0
 18 42  1  0
 21 43  1  0
 22 44  1  0
 23 45  1  0
 24 46  1  0
 25 47  1  0
 28 48  1  0
M  END
>  <UniqueID>  (47) 
42

>  <SMILES>  (47) 
COc1ccc2c(C(=O)NCc3ccccc3)cc(-c3ccccc3)nc2c1

>  <Energy>  (47) 
63.227479900452884

>  <Genealogy>  (47) 
COc1ccc2c(C(=O)NCc3ccccc3)cc(-c3ccccc3)nc2c1 (3D coordinates assigned)
COc1ccc2c(C(=O)NCc3ccccc3)cc(-c3ccccc3)nc2c1 (optimized conformer: 63.227479900452884 kcal/mol)

>  <smiles>  (47) 
COc1ccc2c(C(=O)NCc3ccccc3)cc(-c3ccccc3)nc2c1

>  <score_type>  (47) 
oracle

>  <origin>  (47) 
adg

>  <m_score__min__energy>  (47) 
-9.0600000000000005

>  <m_primary>  (47) 
energy

$$$$
