0:0
     RDKit          3D

 51 54  0  0  0  0  0  0  0  0999 V2000
   56.2760   28.4080   45.5240 O   0  0  0  0  0  0  0  0  0  0  0  0
   57.2330   27.7140   45.9640 C   0  0  0  0  0  0  0  0  0  0  0  0
   58.5410   28.3970   46.2520 C   0  0  0  0  0  0  0  0  0  0  0  0
   58.4460   29.8320   45.9850 N   0  0  0  0  0  0  0  0  0  0  0  0
   58.1260   30.5220   44.5000 S   0  0  0  0  0  0  0  0  0  0  0  0
   58.2250   32.1230   44.9580 C   0  0  0  0  0  0  0  0  0  0  0  0
   58.0590   33.2840   44.2090 C   0  0  0  0  0  0  0  0  0  0  0  0
   58.2030   34.5150   44.8680 C   0  0  0  0  0  0  0  0  0  0  0  0
   58.5090   34.5560   46.2440 C   0  0  0  0  0  0  0  0  0  0  0  0
   58.6740   33.3660   46.9770 C   0  0  0  0  0  0  0  0  0  0  0  0
   58.5270   32.1430   46.3130 C   0  0  0  0  0  0  0  0  0  0  0  0
   58.6540   30.8520   46.8650 C   0  0  0  0  0  0  0  0  0  0  0  0
   58.9360   30.6510   48.0780 O   0  0  0  0  0  0  0  0  0  0  0  0
   57.0510   26.3000   46.1880 N   0  0  0  0  0  0  0  0  0  0  0  0
   55.9650   25.5830   45.5060 C   0  0  0  0  0  0  0  0  0  0  0  0
   56.4910   24.2600   44.9470 C   0  0  0  0  0  0  0  0  0  0  0  0
   57.1760   23.3860   46.0320 C   0  0  0  0  0  0  0  0  0  0  0  0
   58.4270   22.6960   45.5050 C   0  0  0  0  0  0  0  0  0  0  0  0
   59.4940   23.2880   45.5940 O   0  0  0  0  0  0  0  0  0  0  0  0
   58.3780   21.3710   44.9020 N   0  0  0  0  0  0  0  0  0  0  0  0
   57.3000   20.5510   45.4960 C   0  0  0  0  0  0  0  0  0  0  0  0
   55.8920   20.9640   44.9980 C   0  0  0  0  0  0  0  0  0  0  0  0
   55.9190   21.7830   43.8430 O   0  0  0  0  0  0  0  0  0  0  0  0
   56.8390   21.2690   42.9080 C   0  0  0  0  0  0  0  0  0  0  0  0
   58.2800   21.4450   43.4210 C   0  0  0  0  0  0  0  0  0  0  0  0
   57.4490   24.1310   47.3610 C   0  0  0  0  0  0  0  0  0  0  0  0
   57.8870   25.5900   47.1700 C   0  0  0  0  0  0  0  0  0  0  0  0
   58.8033   28.2432   47.3091 H   0  0  0  0  0  0  0  0  0  0  0  0
   59.3152   27.9669   45.5996 H   0  0  0  0  0  0  0  0  0  0  0  0
   57.8227   33.2386   43.1356 H   0  0  0  0  0  0  0  0  0  0  0  0
   58.0764   35.4532   44.3078 H   0  0  0  0  0  0  0  0  0  0  0  0
   58.6197   35.5269   46.7490 H   0  0  0  0  0  0  0  0  0  0  0  0
   58.9137   33.3966   48.0501 H   0  0  0  0  0  0  0  0  0  0  0  0
   55.1545   25.3809   46.2217 H   0  0  0  0  0  0  0  0  0  0  0  0
   55.5833   26.2010   44.6800 H   0  0  0  0  0  0  0  0  0  0  0  0
   55.6475   23.6968   44.5212 H   0  0  0  0  0  0  0  0  0  0  0  0
   57.2462   24.4969   44.1831 H   0  0  0  0  0  0  0  0  0  0  0  0
   56.4410   22.6055   46.2780 H   0  0  0  0  0  0  0  0  0  0  0  0
   59.2750   20.8790   45.1190 H   0  0  0  0  0  0  0  0  0  0  0  0
   57.4722   19.4975   45.2307 H   0  0  0  0  0  0  0  0  0  0  0  0
   57.3262   20.7055   46.5848 H   0  0  0  0  0  0  0  0  0  0  0  0
   55.3238   20.0515   44.7646 H   0  0  0  0  0  0  0  0  0  0  0  0
   55.4246   21.5526   45.8011 H   0  0  0  0  0  0  0  0  0  0  0  0
   56.6378   20.1988   42.7521 H   0  0  0  0  0  0  0  0  0  0  0  0
   56.7282   21.8162   41.9602 H   0  0  0  0  0  0  0  0  0  0  0  0
   58.9066   20.6517   42.9874 H   0  0  0  0  0  0  0  0  0  0  0  0
   58.6196   22.4460   43.1166 H   0  0  0  0  0  0  0  0  0  0  0  0
   56.5271   24.1205   47.9611 H   0  0  0  0  0  0  0  0  0  0  0  0
   58.2788   23.6080   47.8589 H   0  0  0  0  0  0  0  0  0  0  0  0
   57.8162   26.1101   48.1367 H   0  0  0  0  0  0  0  0  0  0  0  0
   58.9198   25.5846   46.7916 H   0  0  0  0  0  0  0  0  0  0  0  0
  1  2  2  0
  2  3  1  0
  3  4  1  0
  4  5  1  0
  5  6  1  0
  6  7  2  0
  7  8  1  0
  8  9  2  0
  9 10  1  0
 10 11  2  0
 11 12  1  0
 12 13  2  0
  2 14  1  0
 14 15  1  0
 15 16  1  0
 16 17  1  0
 17 18  1  0
 18 19  2  0
 18 20  1  0
 20 21  1  0
 21 22  1  0
 22 23  1  0
 23 24  1  0
 24 25  1  0
 17 26  1  0
 26 27  1  0
 12  4  1  0
 27 14  1  0
 11  6  1  0
 25 20  1  0
  3 28  1  0
  3 29  1  0
  7 30  1  0
  8 31  1  0
  9 32  1  0
 10 33  1  0
 15 34  1  0
 15 35  1  0
 16 36  1  0
 16 37  1  0
 17 38  1  0
 20 39  1  0
 21 40  1  0
 21 41  1  0
 22 42  1  0
 22 43  1  0
 24 44  1  0
 24 45  1  0
 25 46  1  0
 25 47  1  0
 26 48  1  0
 26 49  1  0
 27 50  1  0
 27 51  1  0
M  CHG  1  20   1
M  END
>  <UniqueID>  (1) 
1

>  <SMILES>  (1) 
O=C(Cn1sc2ccccc2c1=O)N1CCC(C(=O)[NH+]2CCOCC2)CC1

>  <Energy>  (1) 
107.28792335047939

>  <Genealogy>  (1) 
O=C(Cn1sc2ccccc2c1=O)N1CCC(C(=O)[NH+]2CCOCC2)CC1 (protonated)
O=C(Cn1sc2ccccc2c1=O)N1CCC(C(=O)[NH+]2CCOCC2)CC1 (3D coordinates assigned)
O=C(Cn1sc2ccccc2c1=O)N1CCC(C(=O)[NH+]2CCOCC2)CC1 (nonaromatic ring conformer: 107.28792335047939 kcal/mol)

>  <smiles>  (1) 
O=C(Cn1sc2ccccc2c1=O)N1CCC(C(=O)N2CCOCC2)CC1

>  <score_type>  (1) 
oracle

>  <origin>  (1) 
adg

>  <m_score__min__energy>  (1) 
-8.0700000000000003

>  <m_primary>  (1) 
energy

$$$$
1:0
     RDKit          3D

 49 51  0  0  0  0  0  0  0  0999 V2000
   59.9740   27.8380   45.5770 C   0  0  0  0  0  0  0  0  0  0  0  0
   58.6750   27.4640   44.8740 C   0  0  0  0  0  0  0  0  0  0  0  0
   58.0540   28.6510   44.2960 N   0  0  0  0  0  0  0  0  0  0  0  0
   58.4360   29.9260   44.5070 C   0  0  0  0  0  0  0  0  0  0  0  0
   57.6670   30.7400   43.6970 C   0  0  0  0  0  0  0  0  0  0  0  0
   57.8130   32.2170   43.4980 C   0  0  0  0  0  0  0  0  0  0  0  0
   58.3050   32.8510   44.7360 N   0  0  0  0  0  0  0  0  0  0  0  0
   58.7670   34.2280   44.4860 C   0  0  0  0  0  0  0  0  0  0  0  0
   59.5640   34.7540   45.6970 C   0  0  0  0  0  0  0  0  0  0  0  0
   59.0960   34.1410   47.0440 C   0  0  0  0  0  0  0  0  0  0  0  0
   59.9320   32.9610   47.5390 C   0  0  0  0  0  0  0  0  0  0  0  0
   59.3600   31.7670   48.0280 C   0  0  0  0  0  0  0  0  0  0  0  0
   60.1690   30.7480   48.5340 C   0  0  0  0  0  0  0  0  0  0  0  0
   61.5550   30.8990   48.5620 C   0  0  0  0  0  0  0  0  0  0  0  0
   62.1470   32.0720   48.0730 C   0  0  0  0  0  0  0  0  0  0  0  0
   63.6380   32.2550   48.1450 C   0  0  0  0  0  0  0  0  0  0  0  0
   64.1450   32.7080   46.8540 N   0  0  0  0  0  0  0  0  0  0  0  0
   61.3320   33.1020   47.5800 C   0  0  0  0  0  0  0  0  0  0  0  0
   57.6040   33.7680   46.9800 C   0  0  0  0  0  0  0  0  0  0  0  0
   57.2850   32.8090   45.8120 C   0  0  0  0  0  0  0  0  0  0  0  0
   56.8400   29.8870   42.9880 C   0  0  0  0  0  0  0  0  0  0  0  0
   57.1020   28.6250   43.3770 N   0  0  0  0  0  0  0  0  0  0  0  0
   59.8268   27.7956   46.6663 H   0  0  0  0  0  0  0  0  0  0  0  0
   60.7650   27.1311   45.2861 H   0  0  0  0  0  0  0  0  0  0  0  0
   60.2680   28.8573   45.2861 H   0  0  0  0  0  0  0  0  0  0  0  0
   58.8903   26.7406   44.0738 H   0  0  0  0  0  0  0  0  0  0  0  0
   57.9857   27.0197   45.6071 H   0  0  0  0  0  0  0  0  0  0  0  0
   59.2212   30.2599   45.2013 H   0  0  0  0  0  0  0  0  0  0  0  0
   58.5286   32.4051   42.6841 H   0  0  0  0  0  0  0  0  0  0  0  0
   56.8321   32.6436   43.2412 H   0  0  0  0  0  0  0  0  0  0  0  0
   59.4121   34.2381   43.5951 H   0  0  0  0  0  0  0  0  0  0  0  0
   57.8921   34.8751   44.3254 H   0  0  0  0  0  0  0  0  0  0  0  0
   60.6263   34.5089   45.5507 H   0  0  0  0  0  0  0  0  0  0  0  0
   59.3971   35.8398   45.7541 H   0  0  0  0  0  0  0  0  0  0  0  0
   59.2504   34.9324   47.7922 H   0  0  0  0  0  0  0  0  0  0  0  0
   58.2677   31.6383   48.0103 H   0  0  0  0  0  0  0  0  0  0  0  0
   59.7112   29.8221   48.9122 H   0  0  0  0  0  0  0  0  0  0  0  0
   62.1859   30.0951   48.9691 H   0  0  0  0  0  0  0  0  0  0  0  0
   63.8769   33.0043   48.9141 H   0  0  0  0  0  0  0  0  0  0  0  0
   64.1090   31.2949   48.4027 H   0  0  0  0  0  0  0  0  0  0  0  0
   64.5230   31.8730   46.3490 H   0  0  0  0  0  0  0  0  0  0  0  0
   64.9580   33.3430   47.0260 H   0  0  0  0  0  0  0  0  0  0  0  0
   61.7937   34.0334   47.2203 H   0  0  0  0  0  0  0  0  0  0  0  0
   57.3212   33.2802   47.9245 H   0  0  0  0  0  0  0  0  0  0  0  0
   57.0339   34.6946   46.8176 H   0  0  0  0  0  0  0  0  0  0  0  0
   57.2313   31.7830   46.2049 H   0  0  0  0  0  0  0  0  0  0  0  0
   56.3287   33.1298   45.3732 H   0  0  0  0  0  0  0  0  0  0  0  0
   56.0962   30.1882   42.2357 H   0  0  0  0  0  0  0  0  0  0  0  0
   56.6580   27.7590   42.9970 H   0  0  0  0  0  0  0  0  0  0  0  0
  1  2  1  0
  2  3  1  0
  3  4  1  0
  4  5  2  0
  5  6  1  0
  6  7  1  0
  7  8  1  0
  8  9  1  0
  9 10  1  0
 10 11  1  0
 11 12  2  0
 12 13  1  0
 13 14  2  0
 14 15  1  0
 15 16  1  0
 16 17  1  0
 15 18  2  0
 10 19  1  0
 19 20  1  0
  5 21  1  0
 21 22  2  0
 22  3  1  0
 20  7  1  0
 18 11  1  0
  1 23  1  0
  1 24  1  0
  1 25  1  0
  2 26  1  0
  2 27  1  0
  4 28  1  0
  6 29  1  0
  6 30  1  0
  8 31  1  0
  8 32  1  0
  9 33  1  0
  9 34  1  0
 10 35  1  0
 12 36  1  0
 13 37  1  0
 14 38  1  0
 16 39  1  0
 16 40  1  0
 17 41  1  0
 17 42  1  0
 18 43  1  0
 19 44  1  0
 19 45  1  0
 20 46  1  0
 20 47  1  0
 21 48  1  0
 22 49  1  0
M  CHG  1  22   1
M  END
>  <UniqueID>  (2) 
2

>  <SMILES>  (2) 
CCn1cc(CN2CCC(c3cccc(CN)c3)CC2)c[nH+]1

>  <Energy>  (2) 
81.84986251465509

>  <Genealogy>  (2) 
CCn1cc(CN2CCC(c3cccc(CN)c3)CC2)c[nH+]1 (protonated)
CCn1cc(CN2CCC(c3cccc(CN)c3)CC2)c[nH+]1 (3D coordinates assigned)
CCn1cc(CN2CCC(c3cccc(CN)c3)CC2)c[nH+]1 (nonaromatic ring conformer: 81.84986251465509 kcal/mol)

>  <smiles>  (2) 
CCn1cc(CN2CCC(c3cccc(CN)c3)CC2)cn1

>  <score_type>  (2) 
oracle

>  <origin>  (2) 
adg

>  <m_score__min__energy>  (2) 
-7.6200000000000001

>  <m_primary>  (2) 
energy

$$$$
2:0
     RDKit          3D

 46 48  0  0  0  0  0  0  0  0999 V2000
   59.6999   35.4564   48.6900 H   0  0  0  0  0  0  0  0  0  0  0  0
   59.6680   34.4310   48.2930 C   0  0  0  0  0  0  0  0  0  0  0  0
   60.2440   33.4650   49.0250 C   0  0  0  0  0  0  0  0  0  0  0  0
   61.0894   33.7507   49.6682 H   0  0  0  0  0  0  0  0  0  0  0  0
   59.8190   32.0120   49.0330 C   0  0  0  0  0  0  0  0  0  0  0  0
   58.8176   31.9415   49.4828 H   0  0  0  0  0  0  0  0  0  0  0  0
   60.5678   31.4518   49.6123 H   0  0  0  0  0  0  0  0  0  0  0  0
   59.7710   31.4200   47.6790 N   0  0  0  0  0  0  0  0  0  0  0  0
   61.0490   30.7950   47.2820 C   0  0  0  0  0  0  0  0  0  0  0  0
   61.3964   30.1341   48.0898 H   0  0  0  0  0  0  0  0  0  0  0  0
   61.7918   31.5848   47.0965 H   0  0  0  0  0  0  0  0  0  0  0  0
   60.8630   29.9750   46.0030 C   0  0  0  0  0  0  0  0  0  0  0  0
   61.8400   29.5829   45.6841 H   0  0  0  0  0  0  0  0  0  0  0  0
   60.4344   30.6308   45.2308 H   0  0  0  0  0  0  0  0  0  0  0  0
   59.9350   28.8400   46.2180 N   0  0  0  0  0  0  0  0  0  0  0  0
   59.3360   28.4030   44.9420 C   0  0  0  0  0  0  0  0  0  0  0  0
   59.2375   27.3074   44.9440 H   0  0  0  0  0  0  0  0  0  0  0  0
   59.9863   28.7219   44.1141 H   0  0  0  0  0  0  0  0  0  0  0  0
   57.9790   29.0220   44.7630 C   0  0  0  0  0  0  0  0  0  0  0  0
   57.7200   30.2500   44.1910 C   0  0  0  0  0  0  0  0  0  0  0  0
   58.4428   30.9580   43.7594 H   0  0  0  0  0  0  0  0  0  0  0  0
   56.3480   30.3910   44.2820 C   0  0  0  0  0  0  0  0  0  0  0  0
   55.7757   31.2588   43.9222 H   0  0  0  0  0  0  0  0  0  0  0  0
   55.8170   29.3050   44.8780 N   0  0  0  0  0  0  0  0  0  0  0  0
   56.8100   28.4760   45.1580 N   0  0  0  0  0  0  0  0  0  0  0  0
   56.6280   27.2070   45.8550 C   0  0  0  0  0  0  0  0  0  0  0  0
   56.6526   27.3785   46.9413 H   0  0  0  0  0  0  0  0  0  0  0  0
   55.6581   26.7705   45.5746 H   0  0  0  0  0  0  0  0  0  0  0  0
   57.4361   26.5154   45.5746 H   0  0  0  0  0  0  0  0  0  0  0  0
   58.9120   29.0900   47.2670 C   0  0  0  0  0  0  0  0  0  0  0  0
   59.2945   28.7150   48.2278 H   0  0  0  0  0  0  0  0  0  0  0  0
   57.9917   28.5693   46.9638 H   0  0  0  0  0  0  0  0  0  0  0  0
   58.5710   30.5840   47.4220 C   0  0  0  0  0  0  0  0  0  0  0  0
   57.8734   30.7006   48.2645 H   0  0  0  0  0  0  0  0  0  0  0  0
   58.1247   30.9238   46.4757 H   0  0  0  0  0  0  0  0  0  0  0  0
   58.9950   34.2230   46.9960 C   0  0  0  0  0  0  0  0  0  0  0  0
   57.6920   33.7000   46.9290 C   0  0  0  0  0  0  0  0  0  0  0  0
   57.1445   33.4711   47.8552 H   0  0  0  0  0  0  0  0  0  0  0  0
   57.0900   33.4700   45.6880 C   0  0  0  0  0  0  0  0  0  0  0  0
   56.0643   33.0756   45.6393 H   0  0  0  0  0  0  0  0  0  0  0  0
   57.7910   33.7410   44.5090 C   0  0  0  0  0  0  0  0  0  0  0  0
   57.3132   33.5680   43.5334 H   0  0  0  0  0  0  0  0  0  0  0  0
   59.0970   34.2310   44.5690 C   0  0  0  0  0  0  0  0  0  0  0  0
   59.6507   34.4348   43.6406 H   0  0  0  0  0  0  0  0  0  0  0  0
   59.7020   34.4630   45.8090 C   0  0  0  0  0  0  0  0  0  0  0  0
   60.7362   34.8351   45.8530 H   0  0  0  0  0  0  0  0  0  0  0  0
  1  2  1  0
  2  3  2  0
  3  4  1  0
  3  5  1  0
  5  6  1  0
  5  7  1  0
  5  8  1  0
  8  9  1  0
  9 10  1  0
  9 11  1  0
  9 12  1  0
 12 13  1  0
 12 14  1  0
 12 15  1  0
 15 16  1  0
 16 17  1  0
 16 18  1  0
 16 19  1  0
 19 20  2  0
 20 21  1  0
 20 22  1  0
 22 23  1  0
 22 24  2  0
 24 25  1  0
 25 26  1  0
 26 27  1  0
 26 28  1  0
 26 29  1  0
 15 30  1  0
 30 31  1  0
 30 32  1  0
 30 33  1  0
 33 34  1  0
 33 35  1  0
  2 36  1  0
 36 37  2  0
 37 38  1  0
 37 39  1  0
 39 40  1  0
 39 41  2  0
 41 42  1  0
 41 43  1  0
 43 44  1  0
 43 45  2  0
 45 46  1  0
 33  8  1  0
 45 36  1  0
 25 19  1  0
M  END
>  <UniqueID>  (3) 
3

>  <SMILES>  (3) 
Cn1nccc1CN1CCN(C/C=C\c2ccccc2)CC1

>  <Energy>  (3) 
96.24364850822893

>  <Genealogy>  (3) 
Cn1nccc1CN1CCN(C/C=C\c2ccccc2)CC1 (cis-trans isomerization)
Cn1nccc1CN1CCN(C/C=C\c2ccccc2)CC1 (3D coordinates assigned)
Cn1nccc1CN1CCN(C/C=C\c2ccccc2)CC1 (nonaromatic ring conformer: 96.24364850822893 kcal/mol)

>  <smiles>  (3) 
Cn1nccc1CN1CCN(CC=Cc2ccccc2)CC1

>  <score_type>  (3) 
oracle

>  <origin>  (3) 
adg

>  <m_score__min__energy>  (3) 
-7.3200000000000003

>  <m_primary>  (3) 
energy

$$$$
3:0
     RDKit          3D

 34 37  0  0  0  0  0  0  0  0999 V2000
   55.8780   29.7270   43.2390 C   0  0  0  0  0  0  0  0  0  0  0  0
   55.7310   29.3350   44.6000 O   0  0  0  0  0  0  0  0  0  0  0  0
   56.7400   28.7470   45.3800 C   0  0  0  0  0  0  0  0  0  0  0  0
   56.7550   27.3600   45.6250 C   0  0  0  0  0  0  0  0  0  0  0  0
   57.7660   26.7860   46.3920 C   0  0  0  0  0  0  0  0  0  0  0  0
   58.7770   27.5800   46.9260 C   0  0  0  0  0  0  0  0  0  0  0  0
   58.7910   28.9640   46.6940 C   0  0  0  0  0  0  0  0  0  0  0  0
   57.7670   29.5580   45.9250 C   0  0  0  0  0  0  0  0  0  0  0  0
   57.7930   31.0310   45.7240 C   0  0  0  0  0  0  0  0  0  0  0  0
   56.7980   31.6210   45.2210 O   0  0  0  0  0  0  0  0  0  0  0  0
   58.9940   31.8170   46.1050 C   0  0  0  0  0  0  0  0  0  0  0  0
   59.0610   33.1800   45.7800 C   0  0  0  0  0  0  0  0  0  0  0  0
   60.1860   33.9320   46.0960 C   0  0  0  0  0  0  0  0  0  0  0  0
   61.2950   33.3280   46.6940 C   0  0  0  0  0  0  0  0  0  0  0  0
   62.4440   34.0940   46.9500 C   0  0  0  0  0  0  0  0  0  0  0  0
   63.5820   33.4970   47.4890 C   0  0  0  0  0  0  0  0  0  0  0  0
   63.5910   32.1310   47.7580 C   0  0  0  0  0  0  0  0  0  0  0  0
   62.4540   31.3560   47.5160 C   0  0  0  0  0  0  0  0  0  0  0  0
   61.2670   31.9440   47.0190 C   0  0  0  0  0  0  0  0  0  0  0  0
   60.0690   31.1980   46.7870 C   0  0  0  0  0  0  0  0  0  0  0  0
   59.8600   29.8050   47.2780 C   0  0  0  0  0  0  0  0  0  0  0  0
   60.5160   29.3610   48.2590 O   0  0  0  0  0  0  0  0  0  0  0  0
   56.2639   30.7561   43.1935 H   0  0  0  0  0  0  0  0  0  0  0  0
   56.5828   29.0485   42.7361 H   0  0  0  0  0  0  0  0  0  0  0  0
   54.9009   29.6792   42.7361 H   0  0  0  0  0  0  0  0  0  0  0  0
   55.9608   26.7242   45.2066 H   0  0  0  0  0  0  0  0  0  0  0  0
   57.7655   25.7016   46.5764 H   0  0  0  0  0  0  0  0  0  0  0  0
   59.5700   27.1197   47.5337 H   0  0  0  0  0  0  0  0  0  0  0  0
   58.2129   33.6592   45.2689 H   0  0  0  0  0  0  0  0  0  0  0  0
   60.2036   35.0092   45.8740 H   0  0  0  0  0  0  0  0  0  0  0  0
   62.4456   35.1705   46.7239 H   0  0  0  0  0  0  0  0  0  0  0  0
   64.4735   34.1052   47.7020 H   0  0  0  0  0  0  0  0  0  0  0  0
   64.4983   31.6593   48.1633 H   0  0  0  0  0  0  0  0  0  0  0  0
   62.4820   30.2744   47.7145 H   0  0  0  0  0  0  0  0  0  0  0  0
  1  2  1  0
  2  3  1  0
  3  4  2  0
  4  5  1  0
  5  6  2  0
  6  7  1  0
  7  8  2  0
  8  9  1  0
  9 10  2  0
  9 11  1  0
 11 12  2  0
 12 13  1  0
 13 14  2  0
 14 15  1  0
 15 16  2  0
 16 17  1  0
 17 18  2  0
 18 19  1  0
 19 20  2  0
 20 21  1  0
 21 22  2  0
  8  3  1  0
 20 11  1  0
 21  7  1  0
 19 14  1  0
  1 23  1  0
  1 24  1  0
  1 25  1  0
  4 26  1  0
  5 27  1  0
  6 28  1  0
 12 29  1  0
 13 30  1  0
 15 31  1  0
 16 32  1  0
 17 33  1  0
 18 34  1  0
M  END
>  <UniqueID>  (4) 
4

>  <SMILES>  (4) 
COc1cccc2c1C(=O)c1ccc3ccccc3c1C2=O

>  <Energy>  (4) 
56.63609720591457

>  <Genealogy>  (4) 
COc1cccc2c1C(=O)c1ccc3ccccc3c1C2=O (3D coordinates assigned)
COc1cccc2c1C(=O)c1ccc3ccccc3c1C2=O (nonaromatic ring conformer: 56.63609720591457 kcal/mol)

>  <smiles>  (4) 
COc1cccc2c1C(=O)c1ccc3ccccc3c1C2=O

>  <score_type>  (4) 
oracle

>  <origin>  (4) 
adg

>  <m_score__min__energy>  (4) 
-8.3599999999999994

>  <m_primary>  (4) 
energy

$$$$
4:0
     RDKit          3D

 36 38  0  0  0  0  0  0  0  0999 V2000
   60.6160   30.0220   47.2910 C   0  0  0  0  0  0  0  0  0  0  0  0
   59.8920   31.2650   46.8410 C   0  0  0  0  0  0  0  0  0  0  0  0
   60.5190   32.4950   47.1240 C   0  0  0  0  0  0  0  0  0  0  0  0
   59.9890   33.6950   46.6670 C   0  0  0  0  0  0  0  0  0  0  0  0
   58.8370   33.6980   45.8940 C   0  0  0  0  0  0  0  0  0  0  0  0
   58.1750   32.4980   45.6060 C   0  0  0  0  0  0  0  0  0  0  0  0
   57.0300   32.5260   44.8060 C   0  0  0  0  0  0  0  0  0  0  0  0
   56.3680   31.3800   44.5410 N   0  0  0  0  0  0  0  0  0  0  0  0
   56.7580   30.2180   45.0600 N   0  0  0  0  0  0  0  0  0  0  0  0
   57.8490   30.1060   45.8630 C   0  0  0  0  0  0  0  0  0  0  0  0
   58.0820   28.4920   46.6320 S   0  0  0  0  0  0  0  0  0  0  0  0
   57.3380   27.5390   45.2600 C   0  0  0  0  0  0  0  0  0  0  0  0
   56.4430   26.4590   45.7760 C   0  0  0  0  0  0  0  0  0  0  0  0
   55.2290   26.7100   46.0020 O   0  0  0  0  0  0  0  0  0  0  0  0
   56.9880   25.1560   46.0240 N   0  0  0  0  0  0  0  0  0  0  0  0
   57.0500   24.0420   45.1210 C   0  0  0  0  0  0  0  0  0  0  0  0
   57.8510   22.9100   45.3670 C   0  0  0  0  0  0  0  0  0  0  0  0
   57.8250   21.8230   44.4880 C   0  0  0  0  0  0  0  0  0  0  0  0
   56.9940   21.8490   43.3650 C   0  0  0  0  0  0  0  0  0  0  0  0
   56.9640   20.7910   42.5180 F   0  0  0  0  0  0  0  0  0  0  0  0
   56.1840   22.9620   43.1220 C   0  0  0  0  0  0  0  0  0  0  0  0
   56.2090   24.0500   43.9990 C   0  0  0  0  0  0  0  0  0  0  0  0
   58.6540   31.2590   46.1170 C   0  0  0  0  0  0  0  0  0  0  0  0
   60.6363   29.9872   48.3903 H   0  0  0  0  0  0  0  0  0  0  0  0
   60.0940   29.1338   46.9056 H   0  0  0  0  0  0  0  0  0  0  0  0
   61.6461   30.0379   46.9056 H   0  0  0  0  0  0  0  0  0  0  0  0
   61.4450   32.5050   47.7176 H   0  0  0  0  0  0  0  0  0  0  0  0
   60.4837   34.6447   46.9185 H   0  0  0  0  0  0  0  0  0  0  0  0
   58.4415   34.6480   45.5053 H   0  0  0  0  0  0  0  0  0  0  0  0
   56.6689   33.4795   44.3932 H   0  0  0  0  0  0  0  0  0  0  0  0
   56.7504   28.2202   44.6270 H   0  0  0  0  0  0  0  0  0  0  0  0
   58.1480   27.0729   44.6798 H   0  0  0  0  0  0  0  0  0  0  0  0
   58.5000   22.8809   46.2547 H   0  0  0  0  0  0  0  0  0  0  0  0
   58.4599   20.9457   44.6809 H   0  0  0  0  0  0  0  0  0  0  0  0
   55.5267   22.9816   42.2402 H   0  0  0  0  0  0  0  0  0  0  0  0
   55.5635   24.9199   43.8074 H   0  0  0  0  0  0  0  0  0  0  0  0
  1  2  1  0
  2  3  2  0
  3  4  1  0
  4  5  2  0
  5  6  1  0
  6  7  2  0
  7  8  1  0
  8  9  2  0
  9 10  1  0
 10 11  1  0
 11 12  1  0
 12 13  1  0
 13 14  2  0
 13 15  1  0
 15 16  1  0
 16 17  2  0
 17 18  1  0
 18 19  2  0
 19 20  1  0
 19 21  1  0
 21 22  2  0
 10 23  2  0
 23  2  1  0
 23  6  1  0
 22 16  1  0
  1 24  1  0
  1 25  1  0
  1 26  1  0
  3 27  1  0
  4 28  1  0
  5 29  1  0
  7 30  1  0
 12 31  1  0
 12 32  1  0
 17 33  1  0
 18 34  1  0
 21 35  1  0
 22 36  1  0
M  CHG  1  15  -1
M  END
>  <UniqueID>  (5) 
5

>  <SMILES>  (5) 
Cc1cccc2cnnc(SCC(=O)[N-]c3ccc(F)cc3)c12

>  <Energy>  (5) 
47.522997972139834

>  <Genealogy>  (5) 
Cc1cccc2cnnc(SCC(=O)[N-]c3ccc(F)cc3)c12 (protonated)
Cc1cccc2cnnc(SCC(=O)[N-]c3ccc(F)cc3)c12 (3D coordinates assigned)
Cc1cccc2cnnc(SCC(=O)[N-]c3ccc(F)cc3)c12 (optimized conformer: 47.522997972139834 kcal/mol)

>  <smiles>  (5) 
Cc1cccc2cnnc(SCC(=O)Nc3ccc(F)cc3)c12

>  <score_type>  (5) 
oracle

>  <origin>  (5) 
adg

>  <m_score__min__energy>  (5) 
-10.199999999999999

>  <m_primary>  (5) 
energy

$$$$
5:0
     RDKit          3D

 67 72  0  0  0  0  0  0  0  0999 V2000
   62.5500   22.9980   53.3540 C   0  0  0  0  0  0  0  0  0  0  0  0
   62.1300   24.2470   52.6360 C   0  0  0  0  0  0  0  0  0  0  0  0
   63.0730   25.2310   52.2960 C   0  0  0  0  0  0  0  0  0  0  0  0
   62.6710   26.3870   51.6180 C   0  0  0  0  0  0  0  0  0  0  0  0
   61.3260   26.5600   51.2590 C   0  0  0  0  0  0  0  0  0  0  0  0
   60.8830   27.7950   50.5840 C   0  0  0  0  0  0  0  0  0  0  0  0
   60.2160   27.6510   49.4100 N   0  0  0  0  0  0  0  0  0  0  0  0
   59.7710   28.7140   48.6980 C   0  0  0  0  0  0  0  0  0  0  0  0
   59.0770   28.5350   47.4850 C   0  0  0  0  0  0  0  0  0  0  0  0
   58.8320   27.1590   46.9880 C   0  0  0  0  0  0  0  0  0  0  0  0
   59.8840   26.4040   46.4440 C   0  0  0  0  0  0  0  0  0  0  0  0
   59.6610   25.0930   46.0120 C   0  0  0  0  0  0  0  0  0  0  0  0
   58.3890   24.5250   46.1320 C   0  0  0  0  0  0  0  0  0  0  0  0
   57.3380   25.2680   46.6780 C   0  0  0  0  0  0  0  0  0  0  0  0
   57.5580   26.5810   47.1060 C   0  0  0  0  0  0  0  0  0  0  0  0
   58.6520   29.6780   46.7640 C   0  0  0  0  0  0  0  0  0  0  0  0
   57.9120   29.5870   45.5690 C   0  0  0  0  0  0  0  0  0  0  0  0
   57.5300   30.7090   44.9090 N   0  0  0  0  0  0  0  0  0  0  0  0
   57.8330   31.9540   45.3600 C   0  0  0  0  0  0  0  0  0  0  0  0
   57.4220   33.0770   44.6310 C   0  0  0  0  0  0  0  0  0  0  0  0
   57.7280   34.3610   45.0880 C   0  0  0  0  0  0  0  0  0  0  0  0
   58.4470   34.5310   46.2740 C   0  0  0  0  0  0  0  0  0  0  0  0
   58.8590   33.4170   47.0120 C   0  0  0  0  0  0  0  0  0  0  0  0
   58.5590   32.1160   46.5620 C   0  0  0  0  0  0  0  0  0  0  0  0
   58.9560   30.9660   47.2730 C   0  0  0  0  0  0  0  0  0  0  0  0
   59.6250   31.0850   48.4530 N   0  0  0  0  0  0  0  0  0  0  0  0
   60.0260   30.0040   49.1720 C   0  0  0  0  0  0  0  0  0  0  0  0
   60.7110   30.1590   50.3830 C   0  0  0  0  0  0  0  0  0  0  0  0
   60.9400   31.3240   50.8090 O   0  0  0  0  0  0  0  0  0  0  0  0
   61.1370   29.0550   51.0880 N   0  0  0  0  0  0  0  0  0  0  0  0
   61.9030   29.2360   52.3430 C   0  0  0  0  0  0  0  0  0  0  0  0
   61.0060   29.1350   53.5870 C   0  0  0  0  0  0  0  0  0  0  0  0
   59.6980   29.9400   53.4280 C   0  0  0  0  0  0  0  0  0  0  0  0
   58.6330   29.2250   52.6930 N   0  0  0  0  0  0  0  0  0  0  0  0
   57.9330   28.2250   53.5160 C   0  0  0  0  0  0  0  0  0  0  0  0
   57.6820   30.1340   52.0330 C   0  0  0  0  0  0  0  0  0  0  0  0
   60.3810   25.5860   51.6130 C   0  0  0  0  0  0  0  0  0  0  0  0
   60.7840   24.4300   52.2880 C   0  0  0  0  0  0  0  0  0  0  0  0
   62.4945   23.1632   54.4401 H   0  0  0  0  0  0  0  0  0  0  0  0
   61.8804   22.1714   53.0741 H   0  0  0  0  0  0  0  0  0  0  0  0
   63.5830   22.7439   53.0741 H   0  0  0  0  0  0  0  0  0  0  0  0
   64.1309   25.0923   52.5636 H   0  0  0  0  0  0  0  0  0  0  0  0
   63.4107   27.1613   51.3661 H   0  0  0  0  0  0  0  0  0  0  0  0
   60.8876   26.8459   46.3574 H   0  0  0  0  0  0  0  0  0  0  0  0
   60.4858   24.5088   45.5780 H   0  0  0  0  0  0  0  0  0  0  0  0
   58.2149   23.4920   45.7963 H   0  0  0  0  0  0  0  0  0  0  0  0
   56.3378   24.8196   46.7709 H   0  0  0  0  0  0  0  0  0  0  0  0
   56.7299   27.1630   47.5367 H   0  0  0  0  0  0  0  0  0  0  0  0
   57.6419   28.5990   45.1680 H   0  0  0  0  0  0  0  0  0  0  0  0
   56.8568   32.9476   43.6962 H   0  0  0  0  0  0  0  0  0  0  0  0
   57.4022   35.2403   44.5129 H   0  0  0  0  0  0  0  0  0  0  0  0
   58.6896   35.5438   46.6280 H   0  0  0  0  0  0  0  0  0  0  0  0
   59.4197   33.5570   47.9479 H   0  0  0  0  0  0  0  0  0  0  0  0
   62.6785   28.4580   52.4007 H   0  0  0  0  0  0  0  0  0  0  0  0
   62.3477   30.2420   52.3266 H   0  0  0  0  0  0  0  0  0  0  0  0
   60.7533   28.0780   53.7570 H   0  0  0  0  0  0  0  0  0  0  0  0
   61.5605   29.5553   54.4390 H   0  0  0  0  0  0  0  0  0  0  0  0
   59.3198   30.1857   54.4313 H   0  0  0  0  0  0  0  0  0  0  0  0
   59.9461   30.8334   52.8361 H   0  0  0  0  0  0  0  0  0  0  0  0
   58.0911   28.4509   54.5809 H   0  0  0  0  0  0  0  0  0  0  0  0
   56.8566   28.2535   53.2910 H   0  0  0  0  0  0  0  0  0  0  0  0
   58.3282   27.2234   53.2910 H   0  0  0  0  0  0  0  0  0  0  0  0
   57.1089   30.6818   52.7956 H   0  0  0  0  0  0  0  0  0  0  0  0
   58.2338   30.8490   51.4051 H   0  0  0  0  0  0  0  0  0  0  0  0
   56.9926   29.5505   51.4051 H   0  0  0  0  0  0  0  0  0  0  0  0
   59.3207   25.7320   51.3590 H   0  0  0  0  0  0  0  0  0  0  0  0
   60.0419   23.6605   52.5473 H   0  0  0  0  0  0  0  0  0  0  0  0
  1  2  1  0
  2  3  2  0
  3  4  1  0
  4  5  2  0
  5  6  1  0
  6  7  2  0
  7  8  1  0
  8  9  2  0
  9 10  1  0
 10 11  2  0
 11 12  1  0
 12 13  2  0
 13 14  1  0
 14 15  2  0
  9 16  1  0
 16 17  2  0
 17 18  1  0
 18 19  2  0
 19 20  1  0
 20 21  2  0
 21 22  1  0
 22 23  2  0
 23 24  1  0
 24 25  2  0
 25 26  1  0
 26 27  2  0
 27 28  1  0
 28 29  2  0
 28 30  1  0
 30 31  1  0
 31 32  1  0
 32 33  1  0
 33 34  1  0
 34 35  1  0
 34 36  1  0
  5 37  1  0
 37 38  2  0
 38  2  1  0
 30  6  1  0
 27  8  1  0
 15 10  1  0
 25 16  1  0
 24 19  1  0
  1 39  1  0
  1 40  1  0
  1 41  1  0
  3 42  1  0
  4 43  1  0
 11 44  1  0
 12 45  1  0
 13 46  1  0
 14 47  1  0
 15 48  1  0
 17 49  1  0
 20 50  1  0
 21 51  1  0
 22 52  1  0
 23 53  1  0
 31 54  1  0
 31 55  1  0
 32 56  1  0
 32 57  1  0
 33 58  1  0
 33 59  1  0
 35 60  1  0
 35 61  1  0
 35 62  1  0
 36 63  1  0
 36 64  1  0
 36 65  1  0
 37 66  1  0
 38 67  1  0
M  END
>  <UniqueID>  (6) 
6

>  <SMILES>  (6) 
Cc1ccc(-c2nc3c(-c4ccccc4)c4cnc5ccccc5c4nc3c(=O)n2CCCN(C)C)cc1

>  <Energy>  (6) 
105.00326278223476

>  <Genealogy>  (6) 
Cc1ccc(-c2nc3c(-c4ccccc4)c4cnc5ccccc5c4nc3c(=O)n2CCCN(C)C)cc1 (3D coordinates assigned)
Cc1ccc(-c2nc3c(-c4ccccc4)c4cnc5ccccc5c4nc3c(=O)n2CCCN(C)C)cc1 (optimized conformer: 105.00326278223476 kcal/mol)

>  <smiles>  (6) 
Cc1ccc(-c2nc3c(-c4ccccc4)c4cnc5ccccc5c4nc3c(=O)n2CCCN(C)C)cc1

>  <score_type>  (6) 
oracle

>  <origin>  (6) 
adg

>  <m_score__min__energy>  (6) 
-8.1300000000000008

>  <m_primary>  (6) 
energy

$$$$
6:0
     RDKit          3D

 60 63  0  0  0  0  0  0  0  0999 V2000
   64.5090   33.0930   49.0440 C   0  0  0  0  0  0  0  0  0  0  0  0
   63.7660   33.5840   47.9500 O   0  0  0  0  0  0  0  0  0  0  0  0
   62.5830   34.1950   48.4230 C   0  0  0  0  0  0  0  0  0  0  0  0
   61.3760   33.2480   48.2650 C   0  0  2  0  0  0  0  0  0  0  0  0
   60.7970   32.9230   49.6360 C   0  0  0  0  0  0  0  0  0  0  0  0
   61.5730   32.5460   50.5570 O   0  0  0  0  0  0  0  0  0  0  0  0
   59.3900   33.0590   49.9030 N   0  0  0  0  0  0  0  0  0  0  0  0
   58.7390   32.4990   51.0550 C   0  0  0  0  0  0  0  0  0  0  0  0
   58.7760   33.1460   52.3030 C   0  0  0  0  0  0  0  0  0  0  0  0
   58.1540   32.5700   53.4150 C   0  0  0  0  0  0  0  0  0  0  0  0
   57.5020   31.3390   53.2950 C   0  0  0  0  0  0  0  0  0  0  0  0
   56.6540   30.5520   54.8150 Br  0  0  0  0  0  0  0  0  0  0  0  0
   57.4790   30.6800   52.0620 C   0  0  0  0  0  0  0  0  0  0  0  0
   58.1000   31.2540   50.9490 C   0  0  0  0  0  0  0  0  0  0  0  0
   61.7870   31.9630   47.5000 C   0  0  0  0  0  0  0  0  0  0  0  0
   60.5640   31.0880   47.1870 C   0  0  0  0  0  0  0  0  0  0  0  0
   59.4590   31.8930   46.5550 C   0  0  0  0  0  0  0  0  0  0  0  0
   58.4510   31.2530   45.8170 C   0  0  0  0  0  0  0  0  0  0  0  0
   57.4220   31.9970   45.2290 C   0  0  0  0  0  0  0  0  0  0  0  0
   56.3960   31.3160   44.4960 N   0  0  0  0  0  0  0  0  0  0  0  0
   56.2200   29.8960   44.4110 C   0  0  0  0  0  0  0  0  0  0  0  0
   55.4420   29.3360   45.2270 O   0  0  0  0  0  0  0  0  0  0  0  0
   57.0770   29.0440   43.5060 C   0  0  0  0  0  0  0  0  0  0  0  0
   58.4480   28.7120   44.1160 C   0  0  0  0  0  0  0  0  0  0  0  0
   58.3250   27.7970   45.3060 C   0  0  0  0  0  0  0  0  0  0  0  0
   59.1800   27.9550   46.4100 C   0  0  0  0  0  0  0  0  0  0  0  0
   59.1010   27.0760   47.4940 C   0  0  0  0  0  0  0  0  0  0  0  0
   58.1710   26.0320   47.4820 C   0  0  0  0  0  0  0  0  0  0  0  0
   57.3200   25.8660   46.3870 C   0  0  0  0  0  0  0  0  0  0  0  0
   57.3960   26.7430   45.3000 C   0  0  0  0  0  0  0  0  0  0  0  0
   57.3680   33.3840   45.4350 C   0  0  0  0  0  0  0  0  0  0  0  0
   58.3590   34.0260   46.1800 C   0  0  0  0  0  0  0  0  0  0  0  0
   59.4010   33.2860   46.7460 C   0  0  0  0  0  0  0  0  0  0  0  0
   60.3880   33.9440   47.4930 O   0  0  0  0  0  0  0  0  0  0  0  0
   64.0311   33.4088   49.9831 H   0  0  0  0  0  0  0  0  0  0  0  0
   64.5425   31.9943   49.0010 H   0  0  0  0  0  0  0  0  0  0  0  0
   65.5328   33.4930   49.0010 H   0  0  0  0  0  0  0  0  0  0  0  0
   62.7074   34.4462   49.4867 H   0  0  0  0  0  0  0  0  0  0  0  0
   62.3965   35.1049   47.8337 H   0  0  0  0  0  0  0  0  0  0  0  0
   58.8140   33.6600   49.2720 H   0  0  0  0  0  0  0  0  0  0  0  0
   59.2966   34.1096   52.4049 H   0  0  0  0  0  0  0  0  0  0  0  0
   58.1777   33.0863   54.3860 H   0  0  0  0  0  0  0  0  0  0  0  0
   56.9716   29.7086   51.9677 H   0  0  0  0  0  0  0  0  0  0  0  0
   58.0878   30.7265   49.9838 H   0  0  0  0  0  0  0  0  0  0  0  0
   62.2754   32.2478   46.5564 H   0  0  0  0  0  0  0  0  0  0  0  0
   62.4756   31.3853   48.1341 H   0  0  0  0  0  0  0  0  0  0  0  0
   60.8644   30.2876   46.4949 H   0  0  0  0  0  0  0  0  0  0  0  0
   60.1888   30.6672   48.1315 H   0  0  0  0  0  0  0  0  0  0  0  0
   58.4701   30.1594   45.7001 H   0  0  0  0  0  0  0  0  0  0  0  0
   56.5456   28.1022   43.3044 H   0  0  0  0  0  0  0  0  0  0  0  0
   57.2566   29.6189   42.5856 H   0  0  0  0  0  0  0  0  0  0  0  0
   59.0680   28.2205   43.3517 H   0  0  0  0  0  0  0  0  0  0  0  0
   58.9080   29.6522   44.4543 H   0  0  0  0  0  0  0  0  0  0  0  0
   59.9145   28.7738   46.4212 H   0  0  0  0  0  0  0  0  0  0  0  0
   59.7708   27.2057   48.3569 H   0  0  0  0  0  0  0  0  0  0  0  0
   58.1095   25.3409   48.3356 H   0  0  0  0  0  0  0  0  0  0  0  0
   56.5888   25.0442   46.3794 H   0  0  0  0  0  0  0  0  0  0  0  0
   56.7264   26.6071   44.4379 H   0  0  0  0  0  0  0  0  0  0  0  0
   56.5403   33.9687   45.0071 H   0  0  0  0  0  0  0  0  0  0  0  0
   58.3197   35.1161   46.3218 H   0  0  0  0  0  0  0  0  0  0  0  0
  1  2  1  0
  2  3  1  0
  4  3  1  1
  4  5  1  0
  5  6  2  0
  5  7  1  0
  7  8  1  0
  8  9  2  0
  9 10  1  0
 10 11  2  0
 11 12  1  0
 11 13  1  0
 13 14  2  0
  4 15  1  0
 15 16  1  0
 16 17  1  0
 17 18  2  0
 18 19  1  0
 19 20  1  0
 20 21  1  0
 21 22  2  0
 21 23  1  0
 23 24  1  0
 24 25  1  0
 25 26  2  0
 26 27  1  0
 27 28  2  0
 28 29  1  0
 29 30  2  0
 19 31  2  0
 31 32  1  0
 32 33  2  0
 33 34  1  0
 34  4  1  0
 14  8  1  0
 33 17  1  0
 30 25  1  0
  1 35  1  0
  1 36  1  0
  1 37  1  0
  3 38  1  0
  3 39  1  0
  7 40  1  0
  9 41  1  0
 10 42  1  0
 13 43  1  0
 14 44  1  0
 15 45  1  0
 15 46  1  0
 16 47  1  0
 16 48  1  0
 18 49  1  0
 23 50  1  0
 23 51  1  0
 24 52  1  0
 24 53  1  0
 26 54  1  0
 27 55  1  0
 28 56  1  0
 29 57  1  0
 30 58  1  0
 31 59  1  0
 32 60  1  0
M  CHG  1  20  -1
M  END
>  <UniqueID>  (7) 
7

>  <SMILES>  (7) 
COC[C@]1(C(=O)Nc2ccc(Br)cc2)CCc2cc([N-]C(=O)CCc3ccccc3)ccc2O1

>  <Energy>  (7) 
69.68994758832206

>  <Genealogy>  (7) 
COCC1(C(=O)Nc2ccc(Br)cc2)CCc2cc([N-]C(=O)CCc3ccccc3)ccc2O1 (protonated)
COC[C@]1(C(=O)Nc2ccc(Br)cc2)CCc2cc([N-]C(=O)CCc3ccccc3)ccc2O1 (chirality)
COC[C@]1(C(=O)Nc2ccc(Br)cc2)CCc2cc([N-]C(=O)CCc3ccccc3)ccc2O1 (3D coordinates assigned)
COC[C@]1(C(=O)Nc2ccc(Br)cc2)CCc2cc([N-]C(=O)CCc3ccccc3)ccc2O1 (nonaromatic ring conformer: 69.68994758832206 kcal/mol)

>  <smiles>  (7) 
COCC1(C(=O)Nc2ccc(Br)cc2)CCc2cc(NC(=O)CCc3ccccc3)ccc2O1

>  <score_type>  (7) 
oracle

>  <origin>  (7) 
adg

>  <m_score__min__energy>  (7) 
-10.6

>  <m_primary>  (7) 
energy

$$$$
7:0
     RDKit          3D

 58 60  0  0  0  0  0  0  0  0999 V2000
   63.7550   33.8420   47.1230 C   0  0  0  0  0  0  0  0  0  0  0  0
   63.7330   32.7450   48.0300 O   0  0  0  0  0  0  0  0  0  0  0  0
   62.6320   31.8950   48.2190 C   0  0  0  0  0  0  0  0  0  0  0  0
   61.7670   31.6770   47.1400 C   0  0  0  0  0  0  0  0  0  0  0  0
   60.6580   30.8380   47.2770 C   0  0  0  0  0  0  0  0  0  0  0  0
   60.4040   30.1940   48.4980 C   0  0  0  0  0  0  0  0  0  0  0  0
   59.1840   29.3160   48.6620 C   0  0  0  0  0  0  0  0  0  0  0  0
   59.3290   28.0250   47.9280 N   0  0  2  0  0  0  0  0  0  0  0  0
   60.3360   27.1420   48.5410 C   0  0  0  0  0  0  0  0  0  0  0  0
   59.4850   28.2020   46.4550 C   0  0  0  0  0  0  0  0  0  0  0  0
   58.3150   28.8350   45.6280 C   0  0  2  0  0  0  0  0  0  0  0  0
   58.4660   28.6990   44.1040 C   0  0  0  0  0  0  0  0  0  0  0  0
   57.1220   28.9690   43.4040 C   0  0  0  0  0  0  0  0  0  0  0  0
   56.2230   29.9510   44.1880 C   0  0  0  0  0  0  0  0  0  0  0  0
   56.9970   30.9190   44.9960 N   0  0  0  0  0  0  0  0  0  0  0  0
   57.6660   31.9530   44.1660 C   0  0  0  0  0  0  0  0  0  0  0  0
   57.3690   33.3570   44.7070 C   0  0  0  0  0  0  0  0  0  0  0  0
   58.3000   33.7130   45.8320 C   0  0  0  0  0  0  0  0  0  0  0  0
   59.3430   34.6310   45.6380 C   0  0  0  0  0  0  0  0  0  0  0  0
   60.1650   34.9690   46.7150 C   0  0  0  0  0  0  0  0  0  0  0  0
   59.9390   34.3970   47.9680 C   0  0  0  0  0  0  0  0  0  0  0  0
   58.8860   33.4930   48.1280 C   0  0  0  0  0  0  0  0  0  0  0  0
   58.0940   33.1770   47.0690 N   0  0  0  0  0  0  0  0  0  0  0  0
   57.8820   30.2760   46.0080 C   0  0  0  0  0  0  0  0  0  0  0  0
   61.2600   30.4220   49.5870 C   0  0  0  0  0  0  0  0  0  0  0  0
   62.3680   31.2630   49.4510 C   0  0  0  0  0  0  0  0  0  0  0  0
   63.7739   34.7852   47.6887 H   0  0  0  0  0  0  0  0  0  0  0  0
   64.6520   33.7762   46.4897 H   0  0  0  0  0  0  0  0  0  0  0  0
   62.8561   33.8122   46.4897 H   0  0  0  0  0  0  0  0  0  0  0  0
   61.9620   32.1703   46.1763 H   0  0  0  0  0  0  0  0  0  0  0  0
   59.9811   30.6815   46.4242 H   0  0  0  0  0  0  0  0  0  0  0  0
   59.0392   29.1034   49.7315 H   0  0  0  0  0  0  0  0  0  0  0  0
   58.3183   29.8515   48.2452 H   0  0  0  0  0  0  0  0  0  0  0  0
   58.4320   27.4930   48.0390 H   0  0  0  0  0  0  0  0  0  0  0  0
   60.2622   27.2068   49.6366 H   0  0  0  0  0  0  0  0  0  0  0  0
   60.1568   26.1046   48.2221 H   0  0  0  0  0  0  0  0  0  0  0  0
   61.3411   27.4552   48.2221 H   0  0  0  0  0  0  0  0  0  0  0  0
   60.3679   28.8397   46.3007 H   0  0  0  0  0  0  0  0  0  0  0  0
   59.5432   27.1714   46.0748 H   0  0  0  0  0  0  0  0  0  0  0  0
   57.4815   28.1932   45.9495 H   0  0  0  0  0  0  0  0  0  0  0  0
   59.2121   29.4246   43.7478 H   0  0  0  0  0  0  0  0  0  0  0  0
   58.7910   27.6749   43.8682 H   0  0  0  0  0  0  0  0  0  0  0  0
   57.3232   29.3945   42.4098 H   0  0  0  0  0  0  0  0  0  0  0  0
   56.5856   28.0109   43.3380 H   0  0  0  0  0  0  0  0  0  0  0  0
   55.6031   30.5088   43.4706 H   0  0  0  0  0  0  0  0  0  0  0  0
   55.6106   29.3564   44.8818 H   0  0  0  0  0  0  0  0  0  0  0  0
   58.7525   31.7820   44.1823 H   0  0  0  0  0  0  0  0  0  0  0  0
   57.2843   31.8822   43.1368 H   0  0  0  0  0  0  0  0  0  0  0  0
   57.4917   34.0882   43.8944 H   0  0  0  0  0  0  0  0  0  0  0  0
   56.3378   33.3725   45.0895 H   0  0  0  0  0  0  0  0  0  0  0  0
   59.5115   35.0798   44.6479 H   0  0  0  0  0  0  0  0  0  0  0  0
   60.9889   35.6845   46.5762 H   0  0  0  0  0  0  0  0  0  0  0  0
   60.5836   34.6555   48.8210 H   0  0  0  0  0  0  0  0  0  0  0  0
   58.6976   33.0367   49.1110 H   0  0  0  0  0  0  0  0  0  0  0  0
   58.7860   30.8924   46.1213 H   0  0  0  0  0  0  0  0  0  0  0  0
   57.3053   30.2040   46.9419 H   0  0  0  0  0  0  0  0  0  0  0  0
   61.0576   29.9360   50.5528 H   0  0  0  0  0  0  0  0  0  0  0  0
   63.0362   31.4323   50.3082 H   0  0  0  0  0  0  0  0  0  0  0  0
  1  2  1  0
  2  3  1  0
  3  4  2  0
  4  5  1  0
  5  6  2  0
  6  7  1  0
  7  8  1  0
  8  9  1  0
  8 10  1  0
 10 11  1  0
 11 12  1  0
 12 13  1  0
 13 14  1  0
 14 15  1  0
 15 16  1  0
 16 17  1  0
 17 18  1  0
 18 19  2  0
 19 20  1  0
 20 21  2  0
 21 22  1  0
 22 23  2  0
 15 24  1  0
  6 25  1  0
 25 26  2  0
 26  3  1  0
 24 11  1  0
 23 18  1  0
  1 27  1  0
  1 28  1  0
  1 29  1  0
  4 30  1  0
  5 31  1  0
  7 32  1  0
  7 33  1  0
  8 34  1  6
  9 35  1  0
  9 36  1  0
  9 37  1  0
 10 38  1  0
 10 39  1  0
 11 40  1  1
 12 41  1  0
 12 42  1  0
 13 43  1  0
 13 44  1  0
 14 45  1  0
 14 46  1  0
 16 47  1  0
 16 48  1  0
 17 49  1  0
 17 50  1  0
 19 51  1  0
 20 52  1  0
 21 53  1  0
 22 54  1  0
 24 55  1  0
 24 56  1  0
 25 57  1  0
 26 58  1  0
M  CHG  1   8   1
M  END
>  <UniqueID>  (8) 
8

>  <SMILES>  (8) 
COc1ccc(C[N@H+](C)C[C@@H]2CCCN(CCc3ccccn3)C2)cc1

>  <Energy>  (8) 
82.86579302352553

>  <Genealogy>  (8) 
COc1ccc(C[NH+](C)CC2CCCN(CCc3ccccn3)C2)cc1 (protonated)
COc1ccc(C[N@H+](C)C[C@@H]2CCCN(CCc3ccccn3)C2)cc1 (chirality)
COc1ccc(C[N@H+](C)C[C@@H]2CCCN(CCc3ccccn3)C2)cc1 (3D coordinates assigned)
COc1ccc(C[N@H+](C)C[C@@H]2CCCN(CCc3ccccn3)C2)cc1 (nonaromatic ring conformer: 82.86579302352553 kcal/mol)

>  <smiles>  (8) 
COc1ccc(CN(C)CC2CCCN(CCc3ccccn3)C2)cc1

>  <score_type>  (8) 
oracle

>  <origin>  (8) 
adg

>  <m_score__min__energy>  (8) 
-7.2999999999999998

>  <m_primary>  (8) 
energy

$$$$
8:0
     RDKit          3D

 50 50  0  0  0  0  0  0  0  0999 V2000
   58.0811   33.0857   48.4652 H   0  0  0  0  0  0  0  0  0  0  0  0
   58.3400   33.4470   47.4590 C   0  0  0  0  0  0  0  0  0  0  0  0
   57.7350   32.9080   46.3670 N   0  0  0  0  0  0  0  0  0  0  0  0
   58.0220   33.3170   45.1000 C   0  0  0  0  0  0  0  0  0  0  0  0
   57.3950   32.7490   44.1070 N   0  0  0  0  0  0  0  0  0  0  0  0
   57.9440   31.7940   43.1420 C   0  0  0  0  0  0  0  0  0  0  0  0
   58.8324   31.3122   43.5763 H   0  0  0  0  0  0  0  0  0  0  0  0
   58.2141   32.3353   42.2233 H   0  0  0  0  0  0  0  0  0  0  0  0
   56.9080   30.7190   42.7940 C   0  0  0  0  0  0  0  0  0  0  0  0
   57.4226   29.8501   42.3579 H   0  0  0  0  0  0  0  0  0  0  0  0
   56.1909   31.1406   42.0743 H   0  0  0  0  0  0  0  0  0  0  0  0
   56.1400   30.2720   44.0510 C   0  0  0  0  0  0  0  0  0  0  0  0
   55.6505   29.3092   43.8426 H   0  0  0  0  0  0  0  0  0  0  0  0
   55.4041   31.0536   44.2911 H   0  0  0  0  0  0  0  0  0  0  0  0
   57.0240   30.1110   45.2200 N   0  0  0  0  0  0  0  0  0  0  0  0
   57.5330   31.0120   45.3770 H   0  0  0  0  0  0  0  0  0  0  0  0
   57.9660   28.9750   45.0990 C   0  0  1  0  0  0  0  0  0  0  0  0
   57.6649   28.3227   44.2660 H   0  0  0  0  0  0  0  0  0  0  0  0
   59.3820   29.5030   44.8050 C   0  0  0  0  0  0  0  0  0  0  0  0
   59.9048   29.6979   45.7530 H   0  0  0  0  0  0  0  0  0  0  0  0
   59.9403   28.7526   44.2260 H   0  0  0  0  0  0  0  0  0  0  0  0
   59.3127   30.4357   44.2260 H   0  0  0  0  0  0  0  0  0  0  0  0
   57.9390   28.1470   46.4110 C   0  0  0  0  0  0  0  0  0  0  0  0
   57.6328   27.1214   46.1573 H   0  0  0  0  0  0  0  0  0  0  0  0
   57.2391   28.6682   47.0806 H   0  0  0  0  0  0  0  0  0  0  0  0
   59.2750   28.0670   47.1780 C   0  0  0  0  0  0  0  0  0  0  0  0
   60.0870   28.3021   46.4742 H   0  0  0  0  0  0  0  0  0  0  0  0
   59.3333   27.0479   47.5879 H   0  0  0  0  0  0  0  0  0  0  0  0
   59.3940   29.0220   48.3810 C   0  0  0  0  0  0  0  0  0  0  0  0
   60.1764   28.6395   49.0530 H   0  0  0  0  0  0  0  0  0  0  0  0
   58.4072   29.0558   48.8659 H   0  0  0  0  0  0  0  0  0  0  0  0
   59.7550   30.4700   47.9850 C   0  0  0  0  0  0  0  0  0  0  0  0
   59.5808   31.1276   48.8494 H   0  0  0  0  0  0  0  0  0  0  0  0
   59.1220   30.7545   47.1316 H   0  0  0  0  0  0  0  0  0  0  0  0
   61.2230   30.6040   47.5490 C   0  0  0  0  0  0  0  0  0  0  0  0
   61.3912   29.9584   46.6744 H   0  0  0  0  0  0  0  0  0  0  0  0
   61.8523   30.3053   48.4003 H   0  0  0  0  0  0  0  0  0  0  0  0
   61.5980   32.0450   47.1760 C   0  0  0  0  0  0  0  0  0  0  0  0
   60.9572   32.7351   47.7445 H   0  0  0  0  0  0  0  0  0  0  0  0
   61.4518   32.1593   46.0918 H   0  0  0  0  0  0  0  0  0  0  0  0
   63.0600   32.3660   47.4850 C   0  0  0  0  0  0  0  0  0  0  0  0
   63.2059   32.3980   48.5748 H   0  0  0  0  0  0  0  0  0  0  0  0
   63.7058   31.5882   47.0513 H   0  0  0  0  0  0  0  0  0  0  0  0
   63.3205   33.3427   47.0513 H   0  0  0  0  0  0  0  0  0  0  0  0
   58.9760   34.3380   44.9120 C   0  0  0  0  0  0  0  0  0  0  0  0
   59.2214   34.6869   43.8981 H   0  0  0  0  0  0  0  0  0  0  0  0
   59.6070   34.9030   46.0220 C   0  0  0  0  0  0  0  0  0  0  0  0
   60.3543   35.6985   45.8849 H   0  0  0  0  0  0  0  0  0  0  0  0
   59.2890   34.4580   47.3040 C   0  0  0  0  0  0  0  0  0  0  0  0
   59.7807   34.8989   48.1837 H   0  0  0  0  0  0  0  0  0  0  0  0
  1  2  1  0
  2  3  1  0
  3  4  1  0
  4  5  2  0
  5  6  1  0
  6  7  1  0
  6  8  1  0
  6  9  1  0
  9 10  1  0
  9 11  1  0
  9 12  1  0
 12 13  1  0
 12 14  1  0
 12 15  1  0
 15 16  1  0
 15 17  1  0
 17 18  1  6
 17 19  1  0
 19 20  1  0
 19 21  1  0
 19 22  1  0
 17 23  1  0
 23 24  1  0
 23 25  1  0
 23 26  1  0
 26 27  1  0
 26 28  1  0
 26 29  1  0
 29 30  1  0
 29 31  1  0
 29 32  1  0
 32 33  1  0
 32 34  1  0
 32 35  1  0
 35 36  1  0
 35 37  1  0
 35 38  1  0
 38 39  1  0
 38 40  1  0
 38 41  1  0
 41 42  1  0
 41 43  1  0
 41 44  1  0
  4 45  1  0
 45 46  1  0
 45 47  2  0
 47 48  1  0
 47 49  1  0
 49 50  1  0
 49  2  2  0
M  CHG  1   3  -1
M  END
>  <UniqueID>  (9) 
9

>  <SMILES>  (9) 
CCCCCCC[C@H](C)NCCC/N=c1\cccc[n-]1

>  <Energy>  (9) 
36.08460685266943

>  <Genealogy>  (9) 
CCCCCCCC(C)NCCCN=c1cccc[n-]1 (protonated)
CCCCCCC[C@H](C)NCCCN=c1cccc[n-]1 (chirality)
CCCCCCC[C@H](C)NCCC/N=c1\cccc[n-]1 (cis-trans isomerization)
CCCCCCC[C@H](C)NCCC/N=c1\cccc[n-]1 (3D coordinates assigned)
CCCCCCC[C@H](C)NCCC/N=c1\cccc[n-]1 (optimized conformer: 36.08460685266943 kcal/mol)

>  <smiles>  (9) 
CCCCCCCC(C)NCCCN=c1cccc[nH]1

>  <score_type>  (9) 
oracle

>  <origin>  (9) 
adg

>  <m_score__min__energy>  (9) 
-8.7799999999999994

>  <m_primary>  (9) 
energy

$$$$
9:0
     RDKit          3D

 53 56  0  0  0  0  0  0  0  0999 V2000
   56.9560   34.2140   45.1720 C   0  0  0  0  0  0  0  0  0  0  0  0
   57.3950   33.6210   46.5070 C   0  0  0  0  0  0  0  0  0  0  0  0
   58.8950   33.4840   46.5650 C   0  0  0  0  0  0  0  0  0  0  0  0
   59.6350   34.6150   46.7230 N   0  0  0  0  0  0  0  0  0  0  0  0
   60.9900   34.5840   46.7780 C   0  0  0  0  0  0  0  0  0  0  0  0
   61.6540   33.3580   46.6800 C   0  0  0  0  0  0  0  0  0  0  0  0
   63.1530   33.2750   46.7580 C   0  0  0  0  0  0  0  0  0  0  0  0
   63.6280   32.1570   47.5990 N   0  0  0  0  0  0  0  0  0  0  0  0
   63.4510   32.2870   49.0650 C   0  0  1  0  0  0  0  0  0  0  0  0
   63.4140   33.7860   49.5400 C   0  0  0  0  0  0  0  0  0  0  0  0
   62.2270   34.1930   50.4410 C   0  0  0  0  0  0  0  0  0  0  0  0
   61.0080   33.4140   50.0920 C   0  0  0  0  0  0  0  0  0  0  0  0
   59.7350   33.8030   50.2590 N   0  0  0  0  0  0  0  0  0  0  0  0
   59.0320   32.6940   49.9400 C   0  0  0  0  0  0  0  0  0  0  0  0
   59.8430   31.6610   49.6150 N   0  0  0  0  0  0  0  0  0  0  0  0
   61.0700   32.1420   49.7030 N   0  0  0  0  0  0  0  0  0  0  0  0
   62.3070   31.3840   49.6040 C   0  0  0  0  0  0  0  0  0  0  0  0
   60.9220   32.2250   46.5220 N   0  0  0  0  0  0  0  0  0  0  0  0
   59.5630   32.2400   46.4640 C   0  0  0  0  0  0  0  0  0  0  0  0
   58.8490   30.9540   46.3070 C   0  0  0  0  0  0  0  0  0  0  0  0
   58.7830   30.1750   47.2960 O   0  0  0  0  0  0  0  0  0  0  0  0
   58.2540   30.5630   45.0480 N   0  0  0  0  0  0  0  0  0  0  0  0
   57.9440   29.1490   44.7950 C   0  0  0  0  0  0  0  0  0  0  0  0
   56.7740   29.0240   43.8180 C   0  0  0  0  0  0  0  0  0  0  0  0
   57.0050   29.7980   42.6580 O   0  0  0  0  0  0  0  0  0  0  0  0
   57.0140   31.1690   43.0020 C   0  0  0  0  0  0  0  0  0  0  0  0
   58.2010   31.4970   43.9120 C   0  0  0  0  0  0  0  0  0  0  0  0
   56.3104   35.0861   45.3527 H   0  0  0  0  0  0  0  0  0  0  0  0
   57.8424   34.5262   44.6003 H   0  0  0  0  0  0  0  0  0  0  0  0
   56.3986   33.4574   44.6003 H   0  0  0  0  0  0  0  0  0  0  0  0
   57.0614   34.2806   47.3216 H   0  0  0  0  0  0  0  0  0  0  0  0
   56.9456   32.6227   46.6140 H   0  0  0  0  0  0  0  0  0  0  0  0
   61.5615   35.5161   46.8987 H   0  0  0  0  0  0  0  0  0  0  0  0
   63.5497   33.1412   45.7408 H   0  0  0  0  0  0  0  0  0  0  0  0
   63.5098   34.2076   47.2195 H   0  0  0  0  0  0  0  0  0  0  0  0
   64.6230   31.9240   47.3750 H   0  0  0  0  0  0  0  0  0  0  0  0
   64.3555   31.8855   49.5454 H   0  0  0  0  0  0  0  0  0  0  0  0
   64.3409   33.9828   50.0987 H   0  0  0  0  0  0  0  0  0  0  0  0
   63.3002   34.3804   48.6214 H   0  0  0  0  0  0  0  0  0  0  0  0
   62.4893   34.0009   51.4919 H   0  0  0  0  0  0  0  0  0  0  0  0
   62.0183   35.2621   50.2881 H   0  0  0  0  0  0  0  0  0  0  0  0
   59.3760   34.7260   50.5900 H   0  0  0  0  0  0  0  0  0  0  0  0
   57.9334   32.6379   49.9441 H   0  0  0  0  0  0  0  0  0  0  0  0
   62.5816   31.0060   50.5998 H   0  0  0  0  0  0  0  0  0  0  0  0
   62.1572   30.5437   48.9101 H   0  0  0  0  0  0  0  0  0  0  0  0
   58.8285   28.6556   44.3657 H   0  0  0  0  0  0  0  0  0  0  0  0
   57.6667   28.6698   45.7455 H   0  0  0  0  0  0  0  0  0  0  0  0
   56.6555   27.9690   43.5301 H   0  0  0  0  0  0  0  0  0  0  0  0
   55.8616   29.3907   44.3111 H   0  0  0  0  0  0  0  0  0  0  0  0
   57.0875   31.7701   42.0837 H   0  0  0  0  0  0  0  0  0  0  0  0
   56.0837   31.4020   43.5407 H   0  0  0  0  0  0  0  0  0  0  0  0
   59.1333   31.4167   43.3337 H   0  0  0  0  0  0  0  0  0  0  0  0
   58.0808   32.5199   44.2982 H   0  0  0  0  0  0  0  0  0  0  0  0
  1  2  1  0
  2  3  1  0
  3  4  2  0
  4  5  1  0
  5  6  2  0
  6  7  1  0
  7  8  1  0
  8  9  1  0
  9 10  1  0
 10 11  1  0
 11 12  1  0
 12 13  2  0
 13 14  1  0
 14 15  2  0
 15 16  1  0
 16 17  1  0
  6 18  1  0
 18 19  2  0
 19 20  1  0
 20 21  2  0
 20 22  1  0
 22 23  1  0
 23 24  1  0
 24 25  1  0
 25 26  1  0
 26 27  1  0
 19  3  1  0
 27 22  1  0
 17  9  1  0
 16 12  1  0
  1 28  1  0
  1 29  1  0
  1 30  1  0
  2 31  1  0
  2 32  1  0
  5 33  1  0
  7 34  1  0
  7 35  1  0
  8 36  1  0
  9 37  1  1
 10 38  1  0
 10 39  1  0
 11 40  1  0
 11 41  1  0
 13 42  1  0
 14 43  1  0
 17 44  1  0
 17 45  1  0
 23 46  1  0
 23 47  1  0
 24 48  1  0
 24 49  1  0
 26 50  1  0
 26 51  1  0
 27 52  1  0
 27 53  1  0
M  CHG  1  13   1
M  END
>  <UniqueID>  (10) 
10

>  <SMILES>  (10) 
CCc1ncc(CN[C@H]2CCc3[nH+]cnn3C2)nc1C(=O)N1CCOCC1

>  <Energy>  (10) 
104.66503524311784

>  <Genealogy>  (10) 
CCc1ncc(CNC2CCc3[nH+]cnn3C2)nc1C(=O)N1CCOCC1 (protonated)
CCc1ncc(CN[C@H]2CCc3[nH+]cnn3C2)nc1C(=O)N1CCOCC1 (chirality)
CCc1ncc(CN[C@H]2CCc3[nH+]cnn3C2)nc1C(=O)N1CCOCC1 (3D coordinates assigned)
CCc1ncc(CN[C@H]2CCc3[nH+]cnn3C2)nc1C(=O)N1CCOCC1 (nonaromatic ring conformer: 104.66503524311784 kcal/mol)

>  <smiles>  (10) 
CCc1ncc(CNC2CCc3ncnn3C2)nc1C(=O)N1CCOCC1

>  <score_type>  (10) 
oracle

>  <origin>  (10) 
adg

>  <m_score__min__energy>  (10) 
-7.6900000000000004

>  <m_primary>  (10) 
energy

$$$$
10:0
     RDKit          3D

 33 34  0  0  0  0  0  0  0  0999 V2000
   56.6140   23.9190   47.3240 C   0  0  0  0  0  0  0  0  0  0  0  0
   57.8760   24.5360   47.0910 O   0  0  0  0  0  0  0  0  0  0  0  0
   58.0510   25.7410   46.3940 C   0  0  0  0  0  0  0  0  0  0  0  0
   57.7790   25.7610   45.0220 C   0  0  0  0  0  0  0  0  0  0  0  0
   57.9380   26.9360   44.2800 C   0  0  0  0  0  0  0  0  0  0  0  0
   58.3850   28.1190   44.9010 C   0  0  0  0  0  0  0  0  0  0  0  0
   58.5610   29.3590   44.1790 N   0  0  0  0  0  0  0  0  0  0  0  0
   57.8230   30.6170   44.4040 C   0  0  0  0  0  0  0  0  0  0  0  0
   56.3740   30.3260   44.4690 C   0  0  0  0  0  0  0  0  0  0  0  0
   55.2400   30.1000   44.5190 N   0  0  0  0  0  0  0  0  0  0  0  0
   58.1320   31.6410   43.2730 C   0  0  0  0  0  0  0  0  0  0  0  0
   58.0530   33.1000   43.7590 C   0  0  0  0  0  0  0  0  0  0  0  0
   57.1220   33.2240   44.8140 O   0  0  0  0  0  0  0  0  0  0  0  0
   57.6380   32.6300   45.9940 C   0  0  0  0  0  0  0  0  0  0  0  0
   58.2510   31.2260   45.7610 C   0  0  0  0  0  0  0  0  0  0  0  0
   58.6460   28.0950   46.2810 C   0  0  0  0  0  0  0  0  0  0  0  0
   58.4860   26.9210   47.0210 C   0  0  0  0  0  0  0  0  0  0  0  0
   56.4415   23.8347   48.4071 H   0  0  0  0  0  0  0  0  0  0  0  0
   55.8183   24.5297   46.8724 H   0  0  0  0  0  0  0  0  0  0  0  0
   56.6073   22.9160   46.8724 H   0  0  0  0  0  0  0  0  0  0  0  0
   57.4366   24.8433   44.5215 H   0  0  0  0  0  0  0  0  0  0  0  0
   57.7123   26.9364   43.2034 H   0  0  0  0  0  0  0  0  0  0  0  0
   59.2140   29.3230   43.3610 H   0  0  0  0  0  0  0  0  0  0  0  0
   59.1464   31.4506   42.8926 H   0  0  0  0  0  0  0  0  0  0  0  0
   57.3734   31.5095   42.4874 H   0  0  0  0  0  0  0  0  0  0  0  0
   59.0449   33.4170   44.1134 H   0  0  0  0  0  0  0  0  0  0  0  0
   57.7265   33.7348   42.9221 H   0  0  0  0  0  0  0  0  0  0  0  0
   58.4194   33.2879   46.4022 H   0  0  0  0  0  0  0  0  0  0  0  0
   56.7945   32.5040   46.6888 H   0  0  0  0  0  0  0  0  0  0  0  0
   59.3475   31.3109   45.7807 H   0  0  0  0  0  0  0  0  0  0  0  0
   57.8855   30.5623   46.5584 H   0  0  0  0  0  0  0  0  0  0  0  0
   58.9809   29.0131   46.7858 H   0  0  0  0  0  0  0  0  0  0  0  0
   58.7016   26.9202   48.0997 H   0  0  0  0  0  0  0  0  0  0  0  0
  1  2  1  0
  2  3  1  0
  3  4  2  0
  4  5  1  0
  5  6  2  0
  6  7  1  0
  7  8  1  0
  8  9  1  0
  9 10  3  0
  8 11  1  0
 11 12  1  0
 12 13  1  0
 13 14  1  0
 14 15  1  0
  6 16  1  0
 16 17  2  0
 17  3  1  0
 15  8  1  0
  1 18  1  0
  1 19  1  0
  1 20  1  0
  4 21  1  0
  5 22  1  0
  7 23  1  0
 11 24  1  0
 11 25  1  0
 12 26  1  0
 12 27  1  0
 14 28  1  0
 14 29  1  0
 15 30  1  0
 15 31  1  0
 16 32  1  0
 17 33  1  0
M  END
>  <UniqueID>  (11) 
11

>  <SMILES>  (11) 
COc1ccc(NC2(C#N)CCOCC2)cc1

>  <Energy>  (11) 
42.394589317956516

>  <Genealogy>  (11) 
COc1ccc(NC2(C#N)CCOCC2)cc1 (3D coordinates assigned)
COc1ccc(NC2(C#N)CCOCC2)cc1 (nonaromatic ring conformer: 42.394589317956516 kcal/mol)

>  <smiles>  (11) 
COc1ccc(NC2(C#N)CCOCC2)cc1

>  <score_type>  (11) 
oracle

>  <origin>  (11) 
adg

>  <m_score__min__energy>  (11) 
-5.8600000000000003

>  <m_primary>  (11) 
energy

$$$$
11:0
     RDKit          3D

 36 37  0  0  0  0  0  0  0  0999 V2000
   59.2290   34.6040   44.8910 C   0  0  0  0  0  0  0  0  0  0  0  0
   58.4090   33.9320   45.9860 C   0  0  0  0  0  0  0  0  0  0  0  0
   58.1150   32.5450   45.6240 N   0  0  0  0  0  0  0  0  0  0  0  0
   57.0240   32.1260   44.9530 C   0  0  0  0  0  0  0  0  0  0  0  0
   57.1280   30.7690   44.7010 C   0  0  0  0  0  0  0  0  0  0  0  0
   56.1070   29.9660   44.0900 N   0  0  0  0  0  0  0  0  0  0  0  0
   55.9820   29.9610   42.8490 O   0  0  0  0  0  0  0  0  0  0  0  0
   55.1510   29.3450   44.8580 O   0  0  0  0  0  0  0  0  0  0  0  0
   58.3450   30.3400   45.2200 C   0  0  0  0  0  0  0  0  0  0  0  0
   58.9270   28.9880   45.1720 C   0  0  0  0  0  0  0  0  0  0  0  0
   60.1470   28.8220   45.4440 O   0  0  0  0  0  0  0  0  0  0  0  0
   58.1360   27.9010   44.7900 O   0  0  0  0  0  0  0  0  0  0  0  0
   58.1460   27.3740   43.4690 C   0  0  0  0  0  0  0  0  0  0  0  0
   58.9270   31.4760   45.7710 C   0  0  0  0  0  0  0  0  0  0  0  0
   60.2300   31.5490   46.3700 N   0  0  0  0  0  0  0  0  0  0  0  0
   60.5640   32.4450   47.4450 C   0  0  0  0  0  0  0  0  0  0  0  0
   59.7050   32.6220   48.5470 C   0  0  0  0  0  0  0  0  0  0  0  0
   60.0580   33.4950   49.5820 C   0  0  0  0  0  0  0  0  0  0  0  0
   61.2710   34.1850   49.5330 C   0  0  0  0  0  0  0  0  0  0  0  0
   62.1380   34.0000   48.4530 C   0  0  0  0  0  0  0  0  0  0  0  0
   61.7880   33.1300   47.4150 C   0  0  0  0  0  0  0  0  0  0  0  0
   60.0026   35.2379   45.3490 H   0  0  0  0  0  0  0  0  0  0  0  0
   59.7074   33.8349   44.2669 H   0  0  0  0  0  0  0  0  0  0  0  0
   58.5688   35.2242   44.2669 H   0  0  0  0  0  0  0  0  0  0  0  0
   58.9785   33.9482   46.9270 H   0  0  0  0  0  0  0  0  0  0  0  0
   57.4617   34.4775   46.1083 H   0  0  0  0  0  0  0  0  0  0  0  0
   56.1804   32.7644   44.6518 H   0  0  0  0  0  0  0  0  0  0  0  0
   58.1668   26.2751   43.5128 H   0  0  0  0  0  0  0  0  0  0  0  0
   57.2415   27.7026   42.9363 H   0  0  0  0  0  0  0  0  0  0  0  0
   59.0374   27.7367   42.9363 H   0  0  0  0  0  0  0  0  0  0  0  0
   60.9500   30.8620   46.0530 H   0  0  0  0  0  0  0  0  0  0  0  0
   58.7535   32.0721   48.5942 H   0  0  0  0  0  0  0  0  0  0  0  0
   59.3790   33.6379   50.4355 H   0  0  0  0  0  0  0  0  0  0  0  0
   61.5442   34.8747   50.3452 H   0  0  0  0  0  0  0  0  0  0  0  0
   63.0964   34.5388   48.4190 H   0  0  0  0  0  0  0  0  0  0  0  0
   62.4767   32.9821   46.5701 H   0  0  0  0  0  0  0  0  0  0  0  0
  1  2  1  0
  2  3  1  0
  3  4  1  0
  4  5  2  0
  5  6  1  0
  6  7  2  0
  6  8  1  0
  5  9  1  0
  9 10  1  0
 10 11  2  0
 10 12  1  0
 12 13  1  0
  9 14  2  0
 14 15  1  0
 15 16  1  0
 16 17  2  0
 17 18  1  0
 18 19  2  0
 19 20  1  0
 20 21  2  0
 14  3  1  0
 21 16  1  0
  1 22  1  0
  1 23  1  0
  1 24  1  0
  2 25  1  0
  2 26  1  0
  4 27  1  0
 13 28  1  0
 13 29  1  0
 13 30  1  0
 15 31  1  0
 17 32  1  0
 18 33  1  0
 19 34  1  0
 20 35  1  0
 21 36  1  0
M  CHG  2   6   1   8  -1
M  END
>  <UniqueID>  (12) 
12

>  <SMILES>  (12) 
CCn1cc([N+](=O)[O-])c(C(=O)OC)c1Nc1ccccc1

>  <Energy>  (12) 
67.65828849952177

>  <Genealogy>  (12) 
CCn1cc([N+](=O)[O-])c(C(=O)OC)c1Nc1ccccc1 (3D coordinates assigned)
CCn1cc([N+](=O)[O-])c(C(=O)OC)c1Nc1ccccc1 (optimized conformer: 67.65828849952177 kcal/mol)

>  <smiles>  (12) 
CCn1cc([N+](=O)[O-])c(C(=O)OC)c1Nc1ccccc1

>  <score_type>  (12) 
oracle

>  <origin>  (12) 
adg

>  <m_score__min__energy>  (12) 
-6.6399999999999997

>  <m_primary>  (12) 
energy

$$$$
12:0
     RDKit          3D

 31 32  0  0  0  0  0  0  0  0999 V2000
   54.2580   22.1780   45.5540 H   0  0  0  0  0  0  0  0  0  0  0  0
   53.9030   23.0960   45.2030 N   0  0  0  0  0  0  0  0  0  0  0  0
   54.5130   24.2080   45.4620 C   0  0  0  0  0  0  0  0  0  0  0  0
   55.8680   24.3940   45.6140 C   0  0  0  0  0  0  0  0  0  0  0  0
   56.9610   23.5360   45.5550 C   0  0  0  0  0  0  0  0  0  0  0  0
   56.8343   22.4629   45.3488 H   0  0  0  0  0  0  0  0  0  0  0  0
   58.2340   24.0930   45.7690 C   0  0  0  0  0  0  0  0  0  0  0  0
   59.1244   23.4483   45.7282 H   0  0  0  0  0  0  0  0  0  0  0  0
   58.3810   25.4730   46.0360 C   0  0  0  0  0  0  0  0  0  0  0  0
   59.3852   25.8917   46.1983 H   0  0  0  0  0  0  0  0  0  0  0  0
   57.2480   26.3240   46.0970 C   0  0  0  0  0  0  0  0  0  0  0  0
   57.3490   27.7380   46.3610 N   0  0  0  0  0  0  0  0  0  0  0  0
   56.4710   28.3040   46.3970 H   0  0  0  0  0  0  0  0  0  0  0  0
   58.6070   28.4500   46.5920 C   0  0  0  0  0  0  0  0  0  0  0  0
   58.8132   28.4745   47.6722 H   0  0  0  0  0  0  0  0  0  0  0  0
   59.4110   27.9226   46.0577 H   0  0  0  0  0  0  0  0  0  0  0  0
   58.5310   29.8860   46.0640 C   0  0  0  0  0  0  0  0  0  0  0  0
   58.8197   30.5817   46.8656 H   0  0  0  0  0  0  0  0  0  0  0  0
   59.2153   29.9862   45.2086 H   0  0  0  0  0  0  0  0  0  0  0  0
   57.2160   30.1900   45.6350 O   0  0  0  0  0  0  0  0  0  0  0  0
   57.1610   30.2780   44.2260 C   0  0  0  0  0  0  0  0  0  0  0  0
   57.2854   31.3265   43.9174 H   0  0  0  0  0  0  0  0  0  0  0  0
   57.9667   29.6724   43.7854 H   0  0  0  0  0  0  0  0  0  0  0  0
   55.8130   29.7630   43.7470 C   0  0  0  0  0  0  0  0  0  0  0  0
   55.2120   30.6052   43.3735 H   0  0  0  0  0  0  0  0  0  0  0  0
   55.9692   29.0325   42.9395 H   0  0  0  0  0  0  0  0  0  0  0  0
   55.1470   29.1520   44.7930 F   0  0  0  0  0  0  0  0  0  0  0  0
   55.9990   25.7350   45.8730 C   0  0  0  0  0  0  0  0  0  0  0  0
   54.7890   26.3340   45.8780 N   0  0  0  0  0  0  0  0  0  0  0  0
   53.8870   25.3910   45.6250 N   0  0  0  0  0  0  0  0  0  0  0  0
   52.8590   25.5630   45.5670 H   0  0  0  0  0  0  0  0  0  0  0  0
  1  2  1  0
  2  3  2  0
  3  4  1  0
  4  5  2  0
  5  6  1  0
  5  7  1  0
  7  8  1  0
  7  9  2  0
  9 10  1  0
  9 11  1  0
 11 12  1  0
 12 13  1  0
 12 14  1  0
 14 15  1  0
 14 16  1  0
 14 17  1  0
 17 18  1  0
 17 19  1  0
 17 20  1  0
 20 21  1  0
 21 22  1  0
 21 23  1  0
 21 24  1  0
 24 25  1  0
 24 26  1  0
 24 27  1  0
 11 28  2  0
 28 29  1  0
 29 30  1  0
 30 31  1  0
 30  3  1  0
 28  4  1  0
M  CHG  1  29  -1
M  END
>  <UniqueID>  (13) 
13

>  <SMILES>  (13) 
[H]/N=c1/[nH][n-]c2c(NCCOCCF)cccc12

>  <Energy>  (13) 
68.21427973649736

>  <Genealogy>  (13) 
N=c1[nH][n-]c2c(NCCOCCF)cccc12 (protonated)
[H]/N=c1/[nH][n-]c2c(NCCOCCF)cccc12 (cis-trans isomerization)
[H]/N=c1/[nH][n-]c2c(NCCOCCF)cccc12 (3D coordinates assigned)
[H]/N=c1/[nH][n-]c2c(NCCOCCF)cccc12 (optimized conformer: 68.21427973649736 kcal/mol)

>  <smiles>  (13) 
N=c1[nH][nH]c2c(NCCOCCF)cccc12

>  <score_type>  (13) 
oracle

>  <origin>  (13) 
adg

>  <m_score__min__energy>  (13) 
-7.71

>  <m_primary>  (13) 
energy

$$$$
13:0
     RDKit          3D

 54 56  0  0  0  0  0  0  0  0999 V2000
   57.0830   33.0920   45.8640 C   0  0  0  0  0  0  0  0  0  0  0  0
   57.6220   31.9960   44.9520 C   0  0  0  0  0  0  0  0  0  0  0  0
   56.9070   30.7440   45.1690 N   0  0  0  0  0  0  0  0  0  0  0  0
   56.8180   29.6940   44.1970 C   0  0  0  0  0  0  0  0  0  0  0  0
   55.6860   29.3500   43.7530 O   0  0  0  0  0  0  0  0  0  0  0  0
   58.0310   29.0440   43.7450 N   0  0  2  0  0  0  0  0  0  0  0  0
   57.8140   27.7380   43.0620 C   0  0  0  0  0  0  0  0  0  0  0  0
   58.1070   26.5090   43.9460 C   0  0  0  0  0  0  0  0  0  0  0  0
   57.8140   26.7980   45.4140 C   0  0  0  0  0  0  0  0  0  0  0  0
   58.7230   27.9400   45.9660 C   0  0  0  0  0  0  0  0  0  0  0  0
   60.0570   27.3180   46.5090 C   0  0  0  0  0  0  0  0  0  0  0  0
   60.7620   28.1620   47.5930 C   0  0  0  0  0  0  0  0  0  0  0  0
   60.2500   29.5340   47.6210 N   0  0  0  0  0  0  0  0  0  0  0  0
   61.1140   30.6450   47.3010 C   0  0  0  0  0  0  0  0  0  0  0  0
   62.0760   30.4740   46.5040 O   0  0  0  0  0  0  0  0  0  0  0  0
   60.8820   31.9940   47.8640 C   0  0  0  0  0  0  0  0  0  0  0  0
   61.2020   32.2770   49.2020 C   0  0  0  0  0  0  0  0  0  0  0  0
   60.9890   33.5540   49.7240 C   0  0  0  0  0  0  0  0  0  0  0  0
   60.4580   34.5630   48.9170 C   0  0  0  0  0  0  0  0  0  0  0  0
   60.1290   34.2970   47.5800 C   0  0  0  0  0  0  0  0  0  0  0  0
   59.5990   35.3910   46.7010 C   0  0  0  0  0  0  0  0  0  0  0  0
   60.3640   33.0170   47.0520 C   0  0  0  0  0  0  0  0  0  0  0  0
   58.8080   29.7350   47.8280 C   0  0  0  0  0  0  0  0  0  0  0  0
   57.9850   28.6150   47.1600 C   0  0  0  0  0  0  0  0  0  0  0  0
   59.0440   28.9810   44.8240 C   0  0  0  0  0  0  0  0  0  0  0  0
   57.2272   32.7988   46.9144 H   0  0  0  0  0  0  0  0  0  0  0  0
   57.6224   34.0304   45.6679 H   0  0  0  0  0  0  0  0  0  0  0  0
   56.0105   33.2377   45.6679 H   0  0  0  0  0  0  0  0  0  0  0  0
   57.4975   32.3054   43.9038 H   0  0  0  0  0  0  0  0  0  0  0  0
   58.6863   31.8385   45.1808 H   0  0  0  0  0  0  0  0  0  0  0  0
   58.4240   29.6870   43.0160 H   0  0  0  0  0  0  0  0  0  0  0  0
   56.7640   27.6879   42.7378 H   0  0  0  0  0  0  0  0  0  0  0  0
   58.5209   27.6990   42.2201 H   0  0  0  0  0  0  0  0  0  0  0  0
   57.4773   25.6706   43.6136 H   0  0  0  0  0  0  0  0  0  0  0  0
   59.1736   26.2583   43.8484 H   0  0  0  0  0  0  0  0  0  0  0  0
   56.7609   27.0991   45.5155 H   0  0  0  0  0  0  0  0  0  0  0  0
   58.0184   25.8849   45.9924 H   0  0  0  0  0  0  0  0  0  0  0  0
   59.8267   26.3314   46.9375 H   0  0  0  0  0  0  0  0  0  0  0  0
   60.7481   27.2651   45.6548 H   0  0  0  0  0  0  0  0  0  0  0  0
   60.5921   27.6968   48.5752 H   0  0  0  0  0  0  0  0  0  0  0  0
   61.8360   28.1987   47.3582 H   0  0  0  0  0  0  0  0  0  0  0  0
   61.6229   31.4878   49.8423 H   0  0  0  0  0  0  0  0  0  0  0  0
   61.2400   33.7663   50.7737 H   0  0  0  0  0  0  0  0  0  0  0  0
   60.2974   35.5692   49.3315 H   0  0  0  0  0  0  0  0  0  0  0  0
   59.2045   36.2053   47.3266 H   0  0  0  0  0  0  0  0  0  0  0  0
   60.4102   35.7765   46.0659 H   0  0  0  0  0  0  0  0  0  0  0  0
   58.7936   34.9934   46.0659 H   0  0  0  0  0  0  0  0  0  0  0  0
   60.1407   32.8137   45.9943 H   0  0  0  0  0  0  0  0  0  0  0  0
   58.5980   29.7387   48.9078 H   0  0  0  0  0  0  0  0  0  0  0  0
   58.5222   30.6948   47.3728 H   0  0  0  0  0  0  0  0  0  0  0  0
   57.7644   27.8457   47.9146 H   0  0  0  0  0  0  0  0  0  0  0  0
   57.0698   29.0760   46.7601 H   0  0  0  0  0  0  0  0  0  0  0  0
   59.1213   29.9787   45.2809 H   0  0  0  0  0  0  0  0  0  0  0  0
   59.9809   28.6485   44.3532 H   0  0  0  0  0  0  0  0  0  0  0  0
  1  2  1  0
  2  3  1  0
  3  4  1  0
  4  5  2  0
  4  6  1  0
  6  7  1  0
  7  8  1  0
  8  9  1  0
  9 10  1  0
 10 11  1  0
 11 12  1  0
 12 13  1  0
 13 14  1  0
 14 15  2  0
 14 16  1  0
 16 17  2  0
 17 18  1  0
 18 19  2  0
 19 20  1  0
 20 21  1  0
 20 22  2  0
 13 23  1  0
 23 24  1  0
 10 25  1  0
 25  6  1  0
 24 10  1  0
 22 16  1  0
  1 26  1  0
  1 27  1  0
  1 28  1  0
  2 29  1  0
  2 30  1  0
  6 31  1  6
  7 32  1  0
  7 33  1  0
  8 34  1  0
  8 35  1  0
  9 36  1  0
  9 37  1  0
 11 38  1  0
 11 39  1  0
 12 40  1  0
 12 41  1  0
 17 42  1  0
 18 43  1  0
 19 44  1  0
 21 45  1  0
 21 46  1  0
 21 47  1  0
 22 48  1  0
 23 49  1  0
 23 50  1  0
 24 51  1  0
 24 52  1  0
 25 53  1  0
 25 54  1  0
M  CHG  2   3  -1   6   1
M  END
>  <UniqueID>  (14) 
14

>  <SMILES>  (14) 
CC[N-]C(=O)[N@@H+]1CCCC2(CCN(C(=O)c3cccc(C)c3)CC2)C1

>  <Energy>  (14) 
74.13069842941621

>  <Genealogy>  (14) 
CC[N-]C(=O)[NH+]1CCCC2(CCN(C(=O)c3cccc(C)c3)CC2)C1 (protonated)
CC[N-]C(=O)[N@@H+]1CCCC2(CCN(C(=O)c3cccc(C)c3)CC2)C1 (chirality)
CC[N-]C(=O)[N@@H+]1CCCC2(CCN(C(=O)c3cccc(C)c3)CC2)C1 (3D coordinates assigned)
CC[N-]C(=O)[N@@H+]1CCCC2(CCN(C(=O)c3cccc(C)c3)CC2)C1 (nonaromatic ring conformer: 74.13069842941621 kcal/mol)

>  <smiles>  (14) 
CCNC(=O)N1CCCC2(CCN(C(=O)c3cccc(C)c3)CC2)C1

>  <score_type>  (14) 
oracle

>  <origin>  (14) 
adg

>  <m_score__min__energy>  (14) 
-7.8499999999999996

>  <m_primary>  (14) 
energy

$$$$
14:0
     RDKit          3D

 37 38  0  0  0  0  0  0  0  0999 V2000
   57.8330   27.9830   45.9960 C   0  0  0  0  0  0  0  0  0  0  0  0
   58.2270   28.8990   44.9100 N   0  0  0  0  0  0  0  0  0  0  0  0
   59.6960   29.0320   44.8930 C   0  0  0  0  0  0  0  0  0  0  0  0
   57.7130   28.4170   43.5950 C   0  0  0  0  0  0  0  0  0  0  0  0
   56.6360   29.3420   42.9990 C   0  0  0  0  0  0  0  0  0  0  0  0
   56.9500   30.8300   43.1990 C   0  0  0  0  0  0  0  0  0  0  0  0
   56.7520   31.2050   44.5620 O   0  0  0  0  0  0  0  0  0  0  0  0
   57.4910   32.1740   45.2600 C   0  0  0  0  0  0  0  0  0  0  0  0
   57.6210   33.5030   44.8090 C   0  0  0  0  0  0  0  0  0  0  0  0
   58.3690   34.4300   45.5410 C   0  0  0  0  0  0  0  0  0  0  0  0
   59.0020   34.0450   46.7310 C   0  0  0  0  0  0  0  0  0  0  0  0
   59.7550   34.9670   47.4720 C   0  0  0  0  0  0  0  0  0  0  0  0
   60.3820   34.5700   48.6570 C   0  0  0  0  0  0  0  0  0  0  0  0
   60.2620   33.2530   49.1090 C   0  0  0  0  0  0  0  0  0  0  0  0
   59.5140   32.3250   48.3790 C   0  0  0  0  0  0  0  0  0  0  0  0
   58.8790   32.7110   47.1880 C   0  0  0  0  0  0  0  0  0  0  0  0
   58.1260   31.7890   46.4480 C   0  0  0  0  0  0  0  0  0  0  0  0
   58.0369   28.4570   46.9675 H   0  0  0  0  0  0  0  0  0  0  0  0
   56.7590   27.7592   45.9154 H   0  0  0  0  0  0  0  0  0  0  0  0
   58.4091   27.0494   45.9154 H   0  0  0  0  0  0  0  0  0  0  0  0
   57.8230   29.8370   45.1410 H   0  0  0  0  0  0  0  0  0  0  0  0
   60.0730   29.0661   45.9258 H   0  0  0  0  0  0  0  0  0  0  0  0
   60.1362   28.1700   44.3703 H   0  0  0  0  0  0  0  0  0  0  0  0
   59.9742   29.9590   44.3703 H   0  0  0  0  0  0  0  0  0  0  0  0
   58.5547   28.3575   42.8893 H   0  0  0  0  0  0  0  0  0  0  0  0
   57.2492   27.4336   43.7615 H   0  0  0  0  0  0  0  0  0  0  0  0
   56.5590   29.1414   41.9202 H   0  0  0  0  0  0  0  0  0  0  0  0
   55.6923   29.1304   43.5231 H   0  0  0  0  0  0  0  0  0  0  0  0
   57.9970   31.0195   42.9201 H   0  0  0  0  0  0  0  0  0  0  0  0
   56.2748   31.4239   42.5654 H   0  0  0  0  0  0  0  0  0  0  0  0
   57.1305   33.8130   43.8745 H   0  0  0  0  0  0  0  0  0  0  0  0
   58.4612   35.4656   45.1817 H   0  0  0  0  0  0  0  0  0  0  0  0
   59.8526   36.0047   47.1203 H   0  0  0  0  0  0  0  0  0  0  0  0
   60.9716   35.2966   49.2353 H   0  0  0  0  0  0  0  0  0  0  0  0
   60.7576   32.9459   50.0418 H   0  0  0  0  0  0  0  0  0  0  0  0
   59.4227   31.2895   48.7387 H   0  0  0  0  0  0  0  0  0  0  0  0
   58.0327   30.7523   46.8038 H   0  0  0  0  0  0  0  0  0  0  0  0
  1  2  1  0
  2  3  1  0
  2  4  1  0
  4  5  1  0
  5  6  1  0
  6  7  1  0
  7  8  1  0
  8  9  2  0
  9 10  1  0
 10 11  2  0
 11 12  1  0
 12 13  2  0
 13 14  1  0
 14 15  2  0
 15 16  1  0
 16 17  2  0
 17  8  1  0
 16 11  1  0
  1 18  1  0
  1 19  1  0
  1 20  1  0
  2 21  1  0
  3 22  1  0
  3 23  1  0
  3 24  1  0
  4 25  1  0
  4 26  1  0
  5 27  1  0
  5 28  1  0
  6 29  1  0
  6 30  1  0
  9 31  1  0
 10 32  1  0
 12 33  1  0
 13 34  1  0
 14 35  1  0
 15 36  1  0
 17 37  1  0
M  CHG  1   2   1
M  END
>  <UniqueID>  (15) 
15

>  <SMILES>  (15) 
C[NH+](C)CCCOc1ccc2ccccc2c1

>  <Energy>  (15) 
40.79850278964989

>  <Genealogy>  (15) 
C[NH+](C)CCCOc1ccc2ccccc2c1 (protonated)
C[NH+](C)CCCOc1ccc2ccccc2c1 (3D coordinates assigned)
C[NH+](C)CCCOc1ccc2ccccc2c1 (optimized conformer: 40.79850278964989 kcal/mol)

>  <smiles>  (15) 
CN(C)CCCOc1ccc2ccccc2c1

>  <score_type>  (15) 
oracle

>  <origin>  (15) 
adg

>  <m_score__min__energy>  (15) 
-4.6600000000000001

>  <m_primary>  (15) 
energy

$$$$
15:0
     RDKit          3D

 43 45  0  0  0  0  0  0  0  0999 V2000
   62.5530   33.7570   49.3980 C   0  0  0  0  0  0  0  0  0  0  0  0
   61.5040   33.9330   48.3390 C   0  0  0  0  0  0  0  0  0  0  0  0
   60.2420   34.4450   48.6720 C   0  0  0  0  0  0  0  0  0  0  0  0
   59.2760   34.6450   47.6800 C   0  0  0  0  0  0  0  0  0  0  0  0
   59.5690   34.3490   46.3340 C   0  0  0  0  0  0  0  0  0  0  0  0
   58.6410   34.5350   45.2970 O   0  0  0  0  0  0  0  0  0  0  0  0
   57.3940   33.8480   45.1730 C   0  0  0  0  0  0  0  0  0  0  0  0
   57.6000   32.3570   45.2030 C   0  0  0  0  0  0  0  0  0  0  0  0
   57.9880   31.7240   46.3930 C   0  0  0  0  0  0  0  0  0  0  0  0
   58.1740   30.3380   46.4290 C   0  0  0  0  0  0  0  0  0  0  0  0
   57.9720   29.5600   45.2740 C   0  0  0  0  0  0  0  0  0  0  0  0
   58.1630   28.0900   45.2960 C   0  0  0  0  0  0  0  0  0  0  0  0
   59.2640   27.6060   44.9150 O   0  0  0  0  0  0  0  0  0  0  0  0
   57.1240   27.2110   45.7590 N   0  0  0  0  0  0  0  0  0  0  0  0
   57.2540   25.7570   45.7080 C   0  0  0  0  0  0  0  0  0  0  0  0
   55.9060   25.1260   45.5710 C   0  0  0  0  0  0  0  0  0  0  0  0
   55.6550   23.8260   45.1790 C   0  0  0  0  0  0  0  0  0  0  0  0
   54.2850   23.6870   45.2150 C   0  0  0  0  0  0  0  0  0  0  0  0
   53.7860   24.9060   45.6280 C   0  0  0  0  0  0  0  0  0  0  0  0
   54.7770   25.7430   45.8320 O   0  0  0  0  0  0  0  0  0  0  0  0
   57.5570   30.1970   44.0910 C   0  0  0  0  0  0  0  0  0  0  0  0
   57.3710   31.5820   44.0560 C   0  0  0  0  0  0  0  0  0  0  0  0
   60.8350   33.8500   46.0060 C   0  0  0  0  0  0  0  0  0  0  0  0
   61.8010   33.6500   46.9980 C   0  0  0  0  0  0  0  0  0  0  0  0
   62.0876   33.8351   50.3916 H   0  0  0  0  0  0  0  0  0  0  0  0
   63.0215   32.7677   49.2892 H   0  0  0  0  0  0  0  0  0  0  0  0
   63.3187   34.5392   49.2892 H   0  0  0  0  0  0  0  0  0  0  0  0
   60.0102   34.6908   49.7188 H   0  0  0  0  0  0  0  0  0  0  0  0
   58.2840   35.0348   47.9519 H   0  0  0  0  0  0  0  0  0  0  0  0
   56.7378   34.1383   46.0068 H   0  0  0  0  0  0  0  0  0  0  0  0
   56.9349   34.1213   44.2115 H   0  0  0  0  0  0  0  0  0  0  0  0
   58.1469   32.3209   47.3032 H   0  0  0  0  0  0  0  0  0  0  0  0
   58.4805   29.8526   47.3673 H   0  0  0  0  0  0  0  0  0  0  0  0
   56.2660   27.6050   46.2050 H   0  0  0  0  0  0  0  0  0  0  0  0
   57.8762   25.4773   44.8451 H   0  0  0  0  0  0  0  0  0  0  0  0
   57.7241   25.4044   46.6379 H   0  0  0  0  0  0  0  0  0  0  0  0
   56.3941   23.0616   44.8971 H   0  0  0  0  0  0  0  0  0  0  0  0
   53.7054   22.7861   44.9650 H   0  0  0  0  0  0  0  0  0  0  0  0
   52.7201   25.1406   45.7653 H   0  0  0  0  0  0  0  0  0  0  0  0
   57.3771   29.5999   43.1848 H   0  0  0  0  0  0  0  0  0  0  0  0
   57.0434   32.0668   43.1245 H   0  0  0  0  0  0  0  0  0  0  0  0
   61.0726   33.6129   44.9585 H   0  0  0  0  0  0  0  0  0  0  0  0
   62.7965   33.2696   46.7253 H   0  0  0  0  0  0  0  0  0  0  0  0
  1  2  1  0
  2  3  2  0
  3  4  1  0
  4  5  2  0
  5  6  1  0
  6  7  1  0
  7  8  1  0
  8  9  2  0
  9 10  1  0
 10 11  2  0
 11 12  1  0
 12 13  2  0
 12 14  1  0
 14 15  1  0
 15 16  1  0
 16 17  2  0
 17 18  1  0
 18 19  2  0
 19 20  1  0
 11 21  1  0
 21 22  2  0
  5 23  1  0
 23 24  2  0
 24  2  1  0
 22  8  1  0
 20 16  1  0
  1 25  1  0
  1 26  1  0
  1 27  1  0
  3 28  1  0
  4 29  1  0
  7 30  1  0
  7 31  1  0
  9 32  1  0
 10 33  1  0
 14 34  1  0
 15 35  1  0
 15 36  1  0
 17 37  1  0
 18 38  1  0
 19 39  1  0
 21 40  1  0
 22 41  1  0
 23 42  1  0
 24 43  1  0
M  END
>  <UniqueID>  (16) 
16

>  <SMILES>  (16) 
Cc1ccc(OCc2ccc(C(=O)NCc3ccco3)cc2)cc1

>  <Energy>  (16) 
69.59508120160856

>  <Genealogy>  (16) 
Cc1ccc(OCc2ccc(C(=O)NCc3ccco3)cc2)cc1 (3D coordinates assigned)
Cc1ccc(OCc2ccc(C(=O)NCc3ccco3)cc2)cc1 (optimized conformer: 69.59508120160856 kcal/mol)

>  <smiles>  (16) 
Cc1ccc(OCc2ccc(C(=O)NCc3ccco3)cc2)cc1

>  <score_type>  (16) 
oracle

>  <origin>  (16) 
adg

>  <m_score__min__energy>  (16) 
-7.8399999999999999

>  <m_primary>  (16) 
energy

$$$$
16:0
     RDKit          3D

 38 40  0  0  0  0  0  0  0  0999 V2000
   56.5610   30.6530   43.7900 C   0  0  0  0  0  0  0  0  0  0  0  0
   56.6600   31.5520   44.8880 O   0  0  0  0  0  0  0  0  0  0  0  0
   57.8580   31.7870   45.5680 C   0  0  0  0  0  0  0  0  0  0  0  0
   58.2750   33.0560   45.8270 N   0  0  0  0  0  0  0  0  0  0  0  0
   59.4380   33.2910   46.4880 C   0  0  0  0  0  0  0  0  0  0  0  0
   60.2350   32.2190   46.9170 C   0  0  0  0  0  0  0  0  0  0  0  0
   61.5110   32.4500   47.6400 C   0  0  0  0  0  0  0  0  0  0  0  0
   62.7220   31.9360   47.1460 C   0  0  0  0  0  0  0  0  0  0  0  0
   63.8910   32.1490   47.8090 N   0  0  0  0  0  0  0  0  0  0  0  0
   63.9340   32.8650   48.9700 C   0  0  0  0  0  0  0  0  0  0  0  0
   65.1500   33.0700   49.6340 C   0  0  0  0  0  0  0  0  0  0  0  0
   65.1950   33.8070   50.8340 C   0  0  0  0  0  0  0  0  0  0  0  0
   66.3960   34.0320   51.5250 O   0  0  0  0  0  0  0  0  0  0  0  0
   67.6930   33.7830   50.9940 C   0  0  0  0  0  0  0  0  0  0  0  0
   64.0110   34.3400   51.3690 C   0  0  0  0  0  0  0  0  0  0  0  0
   64.0920   35.0690   52.5660 O   0  0  0  0  0  0  0  0  0  0  0  0
   64.8630   36.2530   52.7410 C   0  0  0  0  0  0  0  0  0  0  0  0
   62.7880   34.1340   50.7010 C   0  0  0  0  0  0  0  0  0  0  0  0
   62.7470   33.4010   49.5070 C   0  0  0  0  0  0  0  0  0  0  0  0
   61.5370   33.1900   48.8340 C   0  0  0  0  0  0  0  0  0  0  0  0
   59.7820   30.9210   46.6360 C   0  0  0  0  0  0  0  0  0  0  0  0
   58.6110   30.7340   45.9750 N   0  0  0  0  0  0  0  0  0  0  0  0
   56.4479   29.6256   44.1664 H   0  0  0  0  0  0  0  0  0  0  0  0
   55.6865   30.9174   43.1773 H   0  0  0  0  0  0  0  0  0  0  0  0
   57.4720   30.7208   43.1773 H   0  0  0  0  0  0  0  0  0  0  0  0
   59.7560   34.3249   46.6876 H   0  0  0  0  0  0  0  0  0  0  0  0
   62.7249   31.3546   46.2122 H   0  0  0  0  0  0  0  0  0  0  0  0
   64.7700   31.7530   47.4040 H   0  0  0  0  0  0  0  0  0  0  0  0
   66.0774   32.6522   49.2153 H   0  0  0  0  0  0  0  0  0  0  0  0
   68.4070   33.6459   51.8194 H   0  0  0  0  0  0  0  0  0  0  0  0
   67.6678   32.8733   50.3761 H   0  0  0  0  0  0  0  0  0  0  0  0
   68.0065   34.6374   50.3761 H   0  0  0  0  0  0  0  0  0  0  0  0
   64.9920   36.4511   53.8153 H   0  0  0  0  0  0  0  0  0  0  0  0
   65.8490   36.1212   52.2715 H   0  0  0  0  0  0  0  0  0  0  0  0
   64.3437   37.1014   52.2715 H   0  0  0  0  0  0  0  0  0  0  0  0
   61.8597   34.5508   51.1189 H   0  0  0  0  0  0  0  0  0  0  0  0
   60.6035   33.6052   49.2418 H   0  0  0  0  0  0  0  0  0  0  0  0
   60.3777   30.0521   46.9524 H   0  0  0  0  0  0  0  0  0  0  0  0
  1  2  1  0
  2  3  1  0
  3  4  2  0
  4  5  1  0
  5  6  2  0
  6  7  1  0
  7  8  2  0
  8  9  1  0
  9 10  2  0
 10 11  1  0
 11 12  2  0
 12 13  1  0
 13 14  1  0
 12 15  1  0
 15 16  1  0
 16 17  1  0
 15 18  2  0
 18 19  1  0
 19 20  2  0
  6 21  1  0
 21 22  2  0
 22  3  1  0
 20  7  1  0
 19 10  1  0
  1 23  1  0
  1 24  1  0
  1 25  1  0
  5 26  1  0
  8 27  1  0
  9 28  1  0
 11 29  1  0
 14 30  1  0
 14 31  1  0
 14 32  1  0
 17 33  1  0
 17 34  1  0
 17 35  1  0
 18 36  1  0
 20 37  1  0
 21 38  1  0
M  CHG  1   9   1
M  END
>  <UniqueID>  (17) 
17

>  <SMILES>  (17) 
COc1ncc(-c2c[nH+]c3cc(OC)c(OC)cc3c2)cn1

>  <Energy>  (17) 
46.7090686185785

>  <Genealogy>  (17) 
COc1ncc(-c2c[nH+]c3cc(OC)c(OC)cc3c2)cn1 (protonated)
COc1ncc(-c2c[nH+]c3cc(OC)c(OC)cc3c2)cn1 (3D coordinates assigned)
COc1ncc(-c2c[nH+]c3cc(OC)c(OC)cc3c2)cn1 (optimized conformer: 46.7090686185785 kcal/mol)

>  <smiles>  (17) 
COc1ncc(-c2cnc3cc(OC)c(OC)cc3c2)cn1

>  <score_type>  (17) 
oracle

>  <origin>  (17) 
adg

>  <m_score__min__energy>  (17) 
-4.3700000000000001

>  <m_primary>  (17) 
energy

$$$$
17:0
     RDKit          3D

 44 46  0  0  0  0  0  0  0  0999 V2000
   60.4360   33.7150   46.0340 C   0  0  0  0  0  0  0  0  0  0  0  0
   59.0990   33.7880   46.6470 N   0  0  0  0  0  0  0  0  0  0  0  0
   58.0500   34.1580   45.6670 C   0  0  0  0  0  0  0  0  0  0  0  0
   57.8300   33.0830   44.5800 C   0  0  0  0  0  0  0  0  0  0  0  0
   57.8090   31.7000   45.1740 C   0  0  0  0  0  0  0  0  0  0  0  0
   58.2990   31.4640   46.4490 C   0  0  0  0  0  0  0  0  0  0  0  0
   58.1320   29.8380   46.8260 S   0  0  0  0  0  0  0  0  0  0  0  0
   57.4850   29.3980   45.3300 C   0  0  0  0  0  0  0  0  0  0  0  0
   57.0830   28.0740   44.9510 N   0  0  0  0  0  0  0  0  0  0  0  0
   56.7290   27.0000   45.8290 C   0  0  0  0  0  0  0  0  0  0  0  0
   55.5090   26.7310   45.9860 O   0  0  0  0  0  0  0  0  0  0  0  0
   57.7760   26.1940   46.5600 C   0  0  0  0  0  0  0  0  0  0  0  0
   57.3280   24.7570   46.8800 C   0  0  0  0  0  0  0  0  0  0  0  0
   57.1990   23.9020   45.6430 C   0  0  0  0  0  0  0  0  0  0  0  0
   58.2050   22.9770   45.3160 C   0  0  0  0  0  0  0  0  0  0  0  0
   58.0880   22.1830   44.1700 C   0  0  0  0  0  0  0  0  0  0  0  0
   56.9700   22.3090   43.3420 C   0  0  0  0  0  0  0  0  0  0  0  0
   55.9670   23.2300   43.6560 C   0  0  0  0  0  0  0  0  0  0  0  0
   56.0790   24.0260   44.8010 C   0  0  0  0  0  0  0  0  0  0  0  0
   57.3470   30.5340   44.5270 C   0  0  0  0  0  0  0  0  0  0  0  0
   56.8080   30.5100   43.1490 C   0  0  0  0  0  0  0  0  0  0  0  0
   56.0910   29.3770   42.6570 N   0  0  0  0  0  0  0  0  0  0  0  0
   56.9720   31.5060   42.3950 O   0  0  0  0  0  0  0  0  0  0  0  0
   58.7600   32.5460   47.3780 C   0  0  0  0  0  0  0  0  0  0  0  0
   61.1999   33.6733   46.8243 H   0  0  0  0  0  0  0  0  0  0  0  0
   60.5044   32.8118   45.4099 H   0  0  0  0  0  0  0  0  0  0  0  0
   60.6023   34.6054   45.4099 H   0  0  0  0  0  0  0  0  0  0  0  0
   57.1037   34.3084   46.2072 H   0  0  0  0  0  0  0  0  0  0  0  0
   58.3844   35.0745   45.1589 H   0  0  0  0  0  0  0  0  0  0  0  0
   56.8694   33.2721   44.0784 H   0  0  0  0  0  0  0  0  0  0  0  0
   58.6618   33.1398   43.8625 H   0  0  0  0  0  0  0  0  0  0  0  0
   58.6792   26.1464   45.9340 H   0  0  0  0  0  0  0  0  0  0  0  0
   57.9616   26.6976   47.5202 H   0  0  0  0  0  0  0  0  0  0  0  0
   58.0692   24.2976   47.5505 H   0  0  0  0  0  0  0  0  0  0  0  0
   56.3358   24.8138   47.3516 H   0  0  0  0  0  0  0  0  0  0  0  0
   59.0883   22.8767   45.9638 H   0  0  0  0  0  0  0  0  0  0  0  0
   58.8774   21.4586   43.9207 H   0  0  0  0  0  0  0  0  0  0  0  0
   56.8791   21.6828   42.4422 H   0  0  0  0  0  0  0  0  0  0  0  0
   55.0882   23.3292   43.0019 H   0  0  0  0  0  0  0  0  0  0  0  0
   55.2885   24.7514   45.0437 H   0  0  0  0  0  0  0  0  0  0  0  0
   55.7690   29.3530   41.6630 H   0  0  0  0  0  0  0  0  0  0  0  0
   55.7980   28.6030   43.2920 H   0  0  0  0  0  0  0  0  0  0  0  0
   57.9572   32.7639   48.0977 H   0  0  0  0  0  0  0  0  0  0  0  0
   59.6658   32.1930   47.8926 H   0  0  0  0  0  0  0  0  0  0  0  0
  1  2  1  0
  2  3  1  0
  3  4  1  0
  4  5  1  0
  5  6  2  0
  6  7  1  0
  7  8  1  0
  8  9  1  0
  9 10  1  0
 10 11  2  0
 10 12  1  0
 12 13  1  0
 13 14  1  0
 14 15  2  0
 15 16  1  0
 16 17  2  0
 17 18  1  0
 18 19  2  0
  8 20  2  0
 20 21  1  0
 21 22  1  0
 21 23  2  0
  6 24  1  0
 24  2  1  0
 20  5  1  0
 19 14  1  0
  1 25  1  0
  1 26  1  0
  1 27  1  0
  3 28  1  0
  3 29  1  0
  4 30  1  0
  4 31  1  0
 12 32  1  0
 12 33  1  0
 13 34  1  0
 13 35  1  0
 15 36  1  0
 16 37  1  0
 17 38  1  0
 18 39  1  0
 19 40  1  0
 22 41  1  0
 22 42  1  0
 24 43  1  0
 24 44  1  0
M  CHG  1   9  -1
M  END
>  <UniqueID>  (18) 
18

>  <SMILES>  (18) 
CN1CCc2c(sc([N-]C(=O)CCc3ccccc3)c2C(N)=O)C1

>  <Energy>  (18) 
81.8504557184288

>  <Genealogy>  (18) 
CN1CCc2c(sc([N-]C(=O)CCc3ccccc3)c2C(N)=O)C1 (protonated)
CN1CCc2c(sc([N-]C(=O)CCc3ccccc3)c2C(N)=O)C1 (3D coordinates assigned)
CN1CCc2c(sc([N-]C(=O)CCc3ccccc3)c2C(N)=O)C1 (nonaromatic ring conformer: 81.8504557184288 kcal/mol)

>  <smiles>  (18) 
CN1CCc2c(sc(NC(=O)CCc3ccccc3)c2C(N)=O)C1

>  <score_type>  (18) 
oracle

>  <origin>  (18) 
adg

>  <m_score__min__energy>  (18) 
-10.130000000000001

>  <m_primary>  (18) 
energy

$$$$
18:0
     RDKit          3D

 43 46  0  0  0  0  0  0  0  0999 V2000
   58.0802   29.2983   43.6728 H   0  0  0  0  0  0  0  0  0  0  0  0
   58.4350   29.9560   44.4800 C   0  0  0  0  0  0  0  0  0  0  0  0
   57.5490   31.0610   44.9080 C   0  0  0  0  0  0  0  0  0  0  0  0
   56.3040   30.9050   44.8000 O   0  0  0  0  0  0  0  0  0  0  0  0
   58.0730   32.3190   45.4880 C   0  0  0  0  0  0  0  0  0  0  0  0
   58.4680   33.3850   44.6590 C   0  0  0  0  0  0  0  0  0  0  0  0
   58.4255   33.2724   43.5656 H   0  0  0  0  0  0  0  0  0  0  0  0
   58.9140   34.5860   45.2170 C   0  0  0  0  0  0  0  0  0  0  0  0
   59.2065   35.4203   44.5624 H   0  0  0  0  0  0  0  0  0  0  0  0
   58.9890   34.7290   46.6040 C   0  0  0  0  0  0  0  0  0  0  0  0
   59.3342   35.6773   47.0417 H   0  0  0  0  0  0  0  0  0  0  0  0
   58.6250   33.6660   47.4360 C   0  0  0  0  0  0  0  0  0  0  0  0
   58.6930   33.7760   48.5284 H   0  0  0  0  0  0  0  0  0  0  0  0
   58.1750   32.4640   46.8830 C   0  0  0  0  0  0  0  0  0  0  0  0
   57.8993   31.6275   47.5420 H   0  0  0  0  0  0  0  0  0  0  0  0
   59.6420   29.7010   45.0090 C   0  0  0  0  0  0  0  0  0  0  0  0
   60.5296   29.8902   44.3874 H   0  0  0  0  0  0  0  0  0  0  0  0
   59.8500   29.1800   46.3800 C   0  0  0  0  0  0  0  0  0  0  0  0
   59.3420   27.9130   46.7060 C   0  0  0  0  0  0  0  0  0  0  0  0
   58.7860   27.3385   45.9505 H   0  0  0  0  0  0  0  0  0  0  0  0
   59.5350   27.3750   47.9780 C   0  0  0  0  0  0  0  0  0  0  0  0
   59.1347   26.3792   48.2190 H   0  0  0  0  0  0  0  0  0  0  0  0
   60.2340   28.0960   48.9450 C   0  0  0  0  0  0  0  0  0  0  0  0
   60.3856   27.6662   49.9461 H   0  0  0  0  0  0  0  0  0  0  0  0
   60.7440   29.3660   48.6460 C   0  0  0  0  0  0  0  0  0  0  0  0
   61.4630   30.0800   49.6060 C   0  0  0  0  0  0  0  0  0  0  0  0
   61.6105   29.6543   50.6095 H   0  0  0  0  0  0  0  0  0  0  0  0
   61.9960   31.3340   49.2960 C   0  0  0  0  0  0  0  0  0  0  0  0
   62.7270   32.0460   50.2560 C   0  0  0  0  0  0  0  0  0  0  0  0
   62.8764   31.6196   51.2589 H   0  0  0  0  0  0  0  0  0  0  0  0
   63.2650   33.2920   49.9440 C   0  0  0  0  0  0  0  0  0  0  0  0
   63.8351   33.8480   50.7029 H   0  0  0  0  0  0  0  0  0  0  0  0
   63.0840   33.8380   48.6730 C   0  0  0  0  0  0  0  0  0  0  0  0
   63.5155   34.8219   48.4368 H   0  0  0  0  0  0  0  0  0  0  0  0
   62.3560   33.1440   47.6910 C   0  0  0  0  0  0  0  0  0  0  0  0
   62.1930   33.7730   46.3310 C   0  0  0  0  0  0  0  0  0  0  0  0
   61.9186   34.8319   46.4472 H   0  0  0  0  0  0  0  0  0  0  0  0
   63.1401   33.6984   45.7766 H   0  0  0  0  0  0  0  0  0  0  0  0
   61.4013   33.2478   45.7766 H   0  0  0  0  0  0  0  0  0  0  0  0
   61.7990   31.8750   48.0020 C   0  0  0  0  0  0  0  0  0  0  0  0
   61.0800   31.1600   47.0780 N   0  0  0  0  0  0  0  0  0  0  0  0
   60.9430   31.5590   46.1250 H   0  0  0  0  0  0  0  0  0  0  0  0
   60.5500   29.9290   47.3620 C   0  0  0  0  0  0  0  0  0  0  0  0
  1  2  1  0
  2  3  1  0
  3  4  2  0
  3  5  1  0
  5  6  2  0
  6  7  1  0
  6  8  1  0
  8  9  1  0
  8 10  2  0
 10 11  1  0
 10 12  1  0
 12 13  1  0
 12 14  2  0
 14 15  1  0
  2 16  2  0
 16 17  1  0
 16 18  1  0
 18 19  2  0
 19 20  1  0
 19 21  1  0
 21 22  1  0
 21 23  2  0
 23 24  1  0
 23 25  1  0
 25 26  2  0
 26 27  1  0
 26 28  1  0
 28 29  2  0
 29 30  1  0
 29 31  1  0
 31 32  1  0
 31 33  2  0
 33 34  1  0
 33 35  1  0
 35 36  1  0
 36 37  1  0
 36 38  1  0
 36 39  1  0
 35 40  2  0
 40 41  1  0
 41 42  1  0
 41 43  2  0
 14  5  1  0
 43 18  1  0
 43 25  1  0
 40 28  1  0
M  CHG  1  41   1
M  END
>  <UniqueID>  (19) 
19

>  <SMILES>  (19) 
Cc1cccc2cc3cccc(/C=C\C(=O)c4ccccc4)c3[nH+]c12

>  <Energy>  (19) 
66.51444416700741

>  <Genealogy>  (19) 
Cc1cccc2cc3cccc(C=CC(=O)c4ccccc4)c3[nH+]c12 (protonated)
Cc1cccc2cc3cccc(/C=C\C(=O)c4ccccc4)c3[nH+]c12 (cis-trans isomerization)
Cc1cccc2cc3cccc(/C=C\C(=O)c4ccccc4)c3[nH+]c12 (3D coordinates assigned)
Cc1cccc2cc3cccc(/C=C\C(=O)c4ccccc4)c3[nH+]c12 (optimized conformer: 66.51444416700741 kcal/mol)

>  <smiles>  (19) 
Cc1cccc2cc3cccc(C=CC(=O)c4ccccc4)c3nc12

>  <score_type>  (19) 
oracle

>  <origin>  (19) 
adg

>  <m_score__min__energy>  (19) 
-7.3300000000000001

>  <m_primary>  (19) 
energy

$$$$
19:0
     RDKit          3D

 31 31  0  0  0  0  0  0  0  0999 V2000
   56.2260   25.2340   46.7630 C   0  0  0  0  0  0  0  0  0  0  0  0
   56.0160   26.3790   45.8710 N   0  0  0  0  0  0  0  0  0  0  0  0
   57.2840   26.8510   45.2960 C   0  0  0  0  0  0  0  0  0  0  0  0
   57.2200   28.3450   44.9300 C   0  0  0  0  0  0  0  0  0  0  0  0
   55.8580   28.9010   45.0360 N   0  0  0  0  0  0  0  0  0  0  0  0
   55.6070   30.0120   44.1000 C   0  0  0  0  0  0  0  0  0  0  0  0
   56.9160   30.4680   43.4480 C   0  0  0  0  0  0  0  0  0  0  0  0
   57.5510   31.6000   44.2130 C   0  0  0  0  0  0  0  0  0  0  0  0
   58.0120   32.7390   43.5350 C   0  0  0  0  0  0  0  0  0  0  0  0
   58.6490   33.7660   44.2350 C   0  0  0  0  0  0  0  0  0  0  0  0
   58.8390   33.6660   45.6180 C   0  0  0  0  0  0  0  0  0  0  0  0
   59.6490   34.9770   46.4630 Cl  0  0  0  0  0  0  0  0  0  0  0  0
   58.3890   32.5250   46.3030 C   0  0  0  0  0  0  0  0  0  0  0  0
   58.6210   32.3520   48.0370 Cl  0  0  0  0  0  0  0  0  0  0  0  0
   57.7500   31.4970   45.6000 C   0  0  0  0  0  0  0  0  0  0  0  0
   56.1647   25.5682   47.8092 H   0  0  0  0  0  0  0  0  0  0  0  0
   55.4520   24.4755   46.5744 H   0  0  0  0  0  0  0  0  0  0  0  0
   57.2188   24.7995   46.5744 H   0  0  0  0  0  0  0  0  0  0  0  0
   55.6190   27.1530   46.4520 H   0  0  0  0  0  0  0  0  0  0  0  0
   58.0880   26.6978   46.0310 H   0  0  0  0  0  0  0  0  0  0  0  0
   57.4779   26.2798   44.3761 H   0  0  0  0  0  0  0  0  0  0  0  0
   57.8811   28.9022   45.6101 H   0  0  0  0  0  0  0  0  0  0  0  0
   57.5374   28.4432   43.8814 H   0  0  0  0  0  0  0  0  0  0  0  0
   55.1460   28.1470   44.8890 H   0  0  0  0  0  0  0  0  0  0  0  0
   54.9103   29.6763   43.3177 H   0  0  0  0  0  0  0  0  0  0  0  0
   55.1730   30.8558   44.6564 H   0  0  0  0  0  0  0  0  0  0  0  0
   57.6154   29.6195   43.4198 H   0  0  0  0  0  0  0  0  0  0  0  0
   56.6891   30.8236   42.4321 H   0  0  0  0  0  0  0  0  0  0  0  0
   57.8710   32.8232   42.4473 H   0  0  0  0  0  0  0  0  0  0  0  0
   59.0030   34.6577   43.6968 H   0  0  0  0  0  0  0  0  0  0  0  0
   57.4013   30.6026   46.1370 H   0  0  0  0  0  0  0  0  0  0  0  0
  1  2  1  0
  2  3  1  0
  3  4  1  0
  4  5  1  0
  5  6  1  0
  6  7  1  0
  7  8  1  0
  8  9  2  0
  9 10  1  0
 10 11  2  0
 11 12  1  0
 11 13  1  0
 13 14  1  0
 13 15  2  0
 15  8  1  0
  1 16  1  0
  1 17  1  0
  1 18  1  0
  2 19  1  0
  3 20  1  0
  3 21  1  0
  4 22  1  0
  4 23  1  0
  5 24  1  0
  6 25  1  0
  6 26  1  0
  7 27  1  0
  7 28  1  0
  9 29  1  0
 10 30  1  0
 15 31  1  0
M  END
>  <UniqueID>  (20) 
20

>  <SMILES>  (20) 
CNCCNCCc1ccc(Cl)c(Cl)c1

>  <Energy>  (20) 
26.375273610073442

>  <Genealogy>  (20) 
CNCCNCCc1ccc(Cl)c(Cl)c1 (3D coordinates assigned)
CNCCNCCc1ccc(Cl)c(Cl)c1 (optimized conformer: 26.375273610073442 kcal/mol)

>  <smiles>  (20) 
CNCCNCCc1ccc(Cl)c(Cl)c1

>  <score_type>  (20) 
oracle

>  <origin>  (20) 
adg

>  <m_score__min__energy>  (20) 
-7.1100000000000003

>  <m_primary>  (20) 
energy

$$$$
20:0
     RDKit          3D

 29 30  0  0  0  0  0  0  0  0999 V2000
   60.3800   28.4020   45.2260 C   0  0  0  0  0  0  0  0  0  0  0  0
   59.1980   27.4440   45.0960 C   0  0  0  0  0  0  0  0  0  0  0  0
   58.4710   27.5650   43.7410 C   0  0  0  0  0  0  0  0  0  0  0  0
   57.1850   28.2800   43.8240 N   0  0  0  0  0  0  0  0  0  0  0  0
   57.3750   29.6930   44.0300 C   0  0  0  0  0  0  0  0  0  0  0  0
   57.2310   30.6010   42.9680 C   0  0  0  0  0  0  0  0  0  0  0  0
   57.4020   31.9680   43.1980 C   0  0  0  0  0  0  0  0  0  0  0  0
   57.7160   32.4240   44.4830 C   0  0  0  0  0  0  0  0  0  0  0  0
   57.8950   33.7890   44.7500 C   0  0  0  0  0  0  0  0  0  0  0  0
   58.2080   34.2140   46.0460 C   0  0  0  0  0  0  0  0  0  0  0  0
   58.3420   33.2790   47.0780 C   0  0  0  0  0  0  0  0  0  0  0  0
   58.1650   31.9160   46.8220 C   0  0  0  0  0  0  0  0  0  0  0  0
   57.8530   31.4820   45.5280 C   0  0  0  0  0  0  0  0  0  0  0  0
   57.6800   30.1570   45.2750 N   0  0  0  0  0  0  0  0  0  0  0  0
   60.5952   28.5764   46.2905 H   0  0  0  0  0  0  0  0  0  0  0  0
   61.2636   27.9621   44.7406 H   0  0  0  0  0  0  0  0  0  0  0  0
   60.1326   29.3576   44.7406 H   0  0  0  0  0  0  0  0  0  0  0  0
   59.5680   26.4138   45.2046 H   0  0  0  0  0  0  0  0  0  0  0  0
   58.4745   27.7052   45.8823 H   0  0  0  0  0  0  0  0  0  0  0  0
   59.1256   28.1064   43.0421 H   0  0  0  0  0  0  0  0  0  0  0  0
   58.2506   26.5426   43.4004 H   0  0  0  0  0  0  0  0  0  0  0  0
   56.6800   28.1520   42.9150 H   0  0  0  0  0  0  0  0  0  0  0  0
   56.5780   27.8650   44.5680 H   0  0  0  0  0  0  0  0  0  0  0  0
   56.9846   30.2371   41.9596 H   0  0  0  0  0  0  0  0  0  0  0  0
   57.2901   32.6844   42.3708 H   0  0  0  0  0  0  0  0  0  0  0  0
   57.7893   34.5260   43.9403 H   0  0  0  0  0  0  0  0  0  0  0  0
   58.3489   35.2850   46.2537 H   0  0  0  0  0  0  0  0  0  0  0  0
   58.5877   33.6177   48.0953 H   0  0  0  0  0  0  0  0  0  0  0  0
   58.2708   31.1848   47.6370 H   0  0  0  0  0  0  0  0  0  0  0  0
  1  2  1  0
  2  3  1  0
  3  4  1  0
  4  5  1  0
  5  6  2  0
  6  7  1  0
  7  8  2  0
  8  9  1  0
  9 10  2  0
 10 11  1  0
 11 12  2  0
 12 13  1  0
 13 14  2  0
 14  5  1  0
 13  8  1  0
  1 15  1  0
  1 16  1  0
  1 17  1  0
  2 18  1  0
  2 19  1  0
  3 20  1  0
  3 21  1  0
  4 22  1  0
  4 23  1  0
  6 24  1  0
  7 25  1  0
  9 26  1  0
 10 27  1  0
 11 28  1  0
 12 29  1  0
M  CHG  1   4   1
M  END
>  <UniqueID>  (21) 
21

>  <SMILES>  (21) 
CCC[NH2+]c1ccc2ccccc2n1

>  <Energy>  (21) 
29.626638854440777

>  <Genealogy>  (21) 
CCC[NH2+]c1ccc2ccccc2n1 (protonated)
CCC[NH2+]c1ccc2ccccc2n1 (3D coordinates assigned)
CCC[NH2+]c1ccc2ccccc2n1 (optimized conformer: 29.626638854440777 kcal/mol)

>  <smiles>  (21) 
CCCNc1ccc2ccccc2n1

>  <score_type>  (21) 
oracle

>  <origin>  (21) 
adg

>  <m_score__min__energy>  (21) 
-4.4299999999999997

>  <m_primary>  (21) 
energy

$$$$
21:0
     RDKit          3D

 45 48  0  0  0  0  0  0  0  0999 V2000
   59.6520   35.9460   45.6010 C   0  0  0  0  0  0  0  0  0  0  0  0
   59.3660   34.6240   46.2490 C   0  0  0  0  0  0  0  0  0  0  0  0
   58.9170   33.5350   45.4720 C   0  0  0  0  0  0  0  0  0  0  0  0
   58.6080   32.3030   46.0830 C   0  0  0  0  0  0  0  0  0  0  0  0
   58.1430   31.1460   45.2810 C   0  0  0  0  0  0  0  0  0  0  0  0
   57.0080   31.2540   44.4570 C   0  0  0  0  0  0  0  0  0  0  0  0
   56.5770   30.1590   43.7010 C   0  0  0  0  0  0  0  0  0  0  0  0
   57.2760   28.9510   43.7550 C   0  0  0  0  0  0  0  0  0  0  0  0
   58.4080   28.8350   44.5650 C   0  0  0  0  0  0  0  0  0  0  0  0
   58.8440   29.9260   45.3220 C   0  0  0  0  0  0  0  0  0  0  0  0
   58.7690   32.2350   47.4720 C   0  0  0  0  0  0  0  0  0  0  0  0
   58.5760   31.1510   48.2530 N   0  0  0  0  0  0  0  0  0  0  0  0
   58.8900   31.5950   49.4950 C   0  0  0  0  0  0  0  0  0  0  0  0
   58.8450   30.7290   50.7130 C   0  0  0  0  0  0  0  0  0  0  0  0
   59.2750   32.9300   49.4460 C   0  0  0  0  0  0  0  0  0  0  0  0
   59.7820   33.7820   50.5740 C   0  0  0  0  0  0  0  0  0  0  0  0
   61.3820   33.1620   51.2040 S   0  0  0  0  0  0  0  0  0  0  0  0
   62.1390   32.9850   49.5870 C   0  0  0  0  0  0  0  0  0  0  0  0
   62.6410   34.1090   48.9200 C   0  0  0  0  0  0  0  0  0  0  0  0
   63.2210   33.9720   47.6550 C   0  0  0  0  0  0  0  0  0  0  0  0
   63.3100   32.7110   47.0580 C   0  0  0  0  0  0  0  0  0  0  0  0
   62.8200   31.5840   47.7280 C   0  0  0  0  0  0  0  0  0  0  0  0
   62.2380   31.7200   48.9920 C   0  0  0  0  0  0  0  0  0  0  0  0
   59.1900   33.3060   48.1590 N   0  0  0  0  0  0  0  0  0  0  0  0
   59.4820   34.4810   47.6020 N   0  0  0  0  0  0  0  0  0  0  0  0
   59.8167   36.7071   46.3779 H   0  0  0  0  0  0  0  0  0  0  0  0
   60.5524   35.8603   44.9749 H   0  0  0  0  0  0  0  0  0  0  0  0
   58.7967   36.2401   44.9749 H   0  0  0  0  0  0  0  0  0  0  0  0
   58.8075   33.6482   44.3833 H   0  0  0  0  0  0  0  0  0  0  0  0
   56.4566   32.2045   44.4070 H   0  0  0  0  0  0  0  0  0  0  0  0
   55.6858   30.2494   43.0626 H   0  0  0  0  0  0  0  0  0  0  0  0
   56.9351   28.0911   43.1597 H   0  0  0  0  0  0  0  0  0  0  0  0
   58.9575   27.8830   44.6072 H   0  0  0  0  0  0  0  0  0  0  0  0
   59.7398   29.8308   45.9532 H   0  0  0  0  0  0  0  0  0  0  0  0
   58.8778   31.3603   51.6132 H   0  0  0  0  0  0  0  0  0  0  0  0
   57.9151   30.1414   50.7110 H   0  0  0  0  0  0  0  0  0  0  0  0
   59.7090   30.0482   50.7110 H   0  0  0  0  0  0  0  0  0  0  0  0
   59.9135   34.8130   50.2137 H   0  0  0  0  0  0  0  0  0  0  0  0
   59.0485   33.7477   51.3930 H   0  0  0  0  0  0  0  0  0  0  0  0
   62.5791   35.1009   49.3915 H   0  0  0  0  0  0  0  0  0  0  0  0
   63.6076   34.8574   47.1291 H   0  0  0  0  0  0  0  0  0  0  0  0
   63.7649   32.6045   46.0621 H   0  0  0  0  0  0  0  0  0  0  0  0
   62.8928   30.5912   47.2600 H   0  0  0  0  0  0  0  0  0  0  0  0
   61.8574   30.8332   49.5200 H   0  0  0  0  0  0  0  0  0  0  0  0
   59.7930   35.2850   48.1920 H   0  0  0  0  0  0  0  0  0  0  0  0
  1  2  1  0
  2  3  1  0
  3  4  2  0
  4  5  1  0
  5  6  2  0
  6  7  1  0
  7  8  2  0
  8  9  1  0
  9 10  2  0
  4 11  1  0
 11 12  2  0
 12 13  1  0
 13 14  1  0
 13 15  2  0
 15 16  1  0
 16 17  1  0
 17 18  1  0
 18 19  2  0
 19 20  1  0
 20 21  2  0
 21 22  1  0
 22 23  2  0
 15 24  1  0
 24 25  1  0
 25  2  2  0
 10  5  1  0
 24 11  1  0
 23 18  1  0
  1 26  1  0
  1 27  1  0
  1 28  1  0
  3 29  1  0
  6 30  1  0
  7 31  1  0
  8 32  1  0
  9 33  1  0
 10 34  1  0
 14 35  1  0
 14 36  1  0
 14 37  1  0
 16 38  1  0
 16 39  1  0
 19 40  1  0
 20 41  1  0
 21 42  1  0
 22 43  1  0
 23 44  1  0
 25 45  1  0
M  CHG  1  25   1
M  END
>  <UniqueID>  (22) 
22

>  <SMILES>  (22) 
Cc1cc(-c2ccccc2)c2nc(C)c(CSc3ccccc3)n2[nH+]1

>  <Energy>  (22) 
82.00990139182329

>  <Genealogy>  (22) 
Cc1cc(-c2ccccc2)c2nc(C)c(CSc3ccccc3)n2[nH+]1 (protonated)
Cc1cc(-c2ccccc2)c2nc(C)c(CSc3ccccc3)n2[nH+]1 (3D coordinates assigned)
Cc1cc(-c2ccccc2)c2nc(C)c(CSc3ccccc3)n2[nH+]1 (optimized conformer: 82.00990139182329 kcal/mol)

>  <smiles>  (22) 
Cc1cc(-c2ccccc2)c2nc(C)c(CSc3ccccc3)n2n1

>  <score_type>  (22) 
oracle

>  <origin>  (22) 
adg

>  <m_score__min__energy>  (22) 
-6.9299999999999997

>  <m_primary>  (22) 
energy

$$$$
22:0
     RDKit          3D

 43 45  0  0  1  0  0  0  0  0999 V2000
   57.7760   32.3410   41.5520 C   0  0  0  0  0  0  0  0  0  0  0  0
   57.7680   31.9640   42.9920 C   0  0  0  0  0  0  0  0  0  0  0  0
   57.9000   32.9500   43.9510 C   0  0  0  0  0  0  0  0  0  0  0  0
   57.8860   32.5460   45.2670 C   0  0  0  0  0  0  0  0  0  0  0  0
   57.9980   33.3560   46.2490 N   0  0  0  0  0  0  0  0  0  0  0  0
   59.2720   34.5320   46.2490 S   0  0  0  0  0  0  0  0  0  0  0  0
   58.9150   35.7170   47.1010 O   0  0  0  0  0  0  0  0  0  0  0  0
   59.5290   34.9830   44.8390 O   0  0  0  0  0  0  0  0  0  0  0  0
   60.7030   33.7750   46.9250 C   0  0  0  0  0  0  0  0  0  0  0  0
   60.5720   32.8710   47.9630 C   0  0  0  0  0  0  0  0  0  0  0  0
   61.6910   32.2610   48.5120 C   0  0  0  0  0  0  0  0  0  0  0  0
   62.9670   32.5230   48.0570 C   0  0  0  0  0  0  0  0  0  0  0  0
   64.1310   31.9150   48.5990 N   0  0  0  0  0  0  0  0  0  0  0  0
   64.4900   31.9990   50.2620 S   0  0  0  0  0  0  0  0  0  0  0  0
   64.5640   30.6260   50.8570 O   0  0  0  0  0  0  0  0  0  0  0  0
   63.3600   32.7240   50.9720 O   0  0  0  0  0  0  0  0  0  0  0  0
   65.9300   32.9050   50.5740 C   0  0  0  0  0  0  0  0  0  0  0  0
   67.2020   32.8130   50.1280 C   0  0  0  0  0  0  0  0  0  0  0  0
   68.1350   33.6700   50.5490 C   0  0  0  0  0  0  0  0  0  0  0  0
   67.7030   34.6470   51.4670 C   0  0  0  0  0  0  0  0  0  0  0  0
   65.9190   34.3080   51.7130 S   0  0  0  0  0  0  0  0  0  0  0  0
   63.0950   33.4400   47.0070 C   0  0  0  0  0  0  0  0  0  0  0  0
   61.9750   34.0500   46.4570 C   0  0  0  0  0  0  0  0  0  0  0  0
   57.7470   31.2310   45.5700 N   0  0  0  0  0  0  0  0  0  0  0  0
   57.6200   30.2960   44.5960 C   0  0  0  0  0  0  0  0  0  0  0  0
   57.4700   28.8610   44.9760 C   0  0  0  0  0  0  0  0  0  0  0  0
   57.6310   30.6640   43.2880 N   0  0  0  0  0  0  0  0  0  0  0  0
   57.7993   33.4369   41.4600 H   0  0  0  0  0  0  0  0  0  0  0  0
   58.6653   31.9133   41.0659 H   0  0  0  0  0  0  0  0  0  0  0  0
   56.8694   31.9514   41.0659 H   0  0  0  0  0  0  0  0  0  0  0  0
   58.0112   34.0091   43.6756 H   0  0  0  0  0  0  0  0  0  0  0  0
   59.5727   32.6334   48.3568 H   0  0  0  0  0  0  0  0  0  0  0  0
   61.5564   31.5455   49.3366 H   0  0  0  0  0  0  0  0  0  0  0  0
   64.7580   31.4090   47.9190 H   0  0  0  0  0  0  0  0  0  0  0  0
   67.4716   32.0239   49.4106 H   0  0  0  0  0  0  0  0  0  0  0  0
   69.1769   33.6164   50.2004 H   0  0  0  0  0  0  0  0  0  0  0  0
   68.3050   35.4403   51.9342 H   0  0  0  0  0  0  0  0  0  0  0  0
   64.0936   33.6801   46.6132 H   0  0  0  0  0  0  0  0  0  0  0  0
   62.1023   34.7666   45.6322 H   0  0  0  0  0  0  0  0  0  0  0  0
   57.4606   28.7711   46.0723 H   0  0  0  0  0  0  0  0  0  0  0  0
   56.5261   28.4704   44.5679 H   0  0  0  0  0  0  0  0  0  0  0  0
   58.3127   28.2836   44.5679 H   0  0  0  0  0  0  0  0  0  0  0  0
   57.5330   29.9370   42.5410 H   0  0  0  0  0  0  0  0  0  0  0  0
  1  2  1  0
  2  3  2  0
  3  4  1  0
  4  5  2  0
  5  6  1  0
  6  7  2  0
  6  8  2  0
  6  9  1  0
  9 10  2  0
 10 11  1  0
 11 12  2  0
 12 13  1  0
 13 14  1  0
 14 15  2  0
 14 16  2  0
 14 17  1  0
 17 18  2  0
 18 19  1  0
 19 20  2  0
 20 21  1  0
 12 22  1  0
 22 23  2  0
  4 24  1  0
 24 25  2  0
 25 26  1  0
 25 27  1  0
 27  2  1  0
 23  9  1  0
 21 17  1  0
  1 28  1  0
  1 29  1  0
  1 30  1  0
  3 31  1  0
 10 32  1  0
 11 33  1  0
 13 34  1  0
 18 35  1  0
 19 36  1  0
 20 37  1  0
 22 38  1  0
 23 39  1  0
 26 40  1  0
 26 41  1  0
 26 42  1  0
 27 43  1  0
M  END
>  <smiles>  (23) 
Cc1cc(=NS(=O)(=O)c2ccc(NS(=O)(=O)c3cccs3)cc2)nc(C)[nH]1

>  <score_type>  (23) 
oracle

>  <origin>  (23) 
adg

>  <m_score__min__energy>  (23) 
-9.2200000000000006

>  <m_primary>  (23) 
energy

$$$$
23:0
     RDKit          3D

 43 45  0  0  1  0  0  0  0  0999 V2000
   55.5350   29.9990   44.0120 C   0  0  0  0  0  0  0  0  0  0  0  0
   56.9550   29.9360   44.0080 N   0  0  0  0  0  0  0  0  0  0  0  0
   57.4860   28.6130   43.8080 C   0  0  0  0  0  0  0  0  0  0  0  0
   57.6580   30.9810   43.3740 C   0  0  0  0  0  0  0  0  0  0  0  0
   57.3970   32.3600   44.0760 C   0  0  0  0  0  0  0  0  0  0  0  0
   57.2130   31.9750   45.4220 N   0  0  0  0  0  0  0  0  0  0  0  0
   58.0990   31.6790   46.2300 C   0  0  0  0  0  0  0  0  0  0  0  0
   58.2730   30.3590   46.5200 N   0  0  0  0  0  0  0  0  0  0  0  0
   59.1940   29.8990   47.3750 C   0  0  0  0  0  0  0  0  0  0  0  0
   59.2890   28.5550   47.5990 O   0  0  0  0  0  0  0  0  0  0  0  0
   58.7480   27.5040   46.9430 C   0  0  0  0  0  0  0  0  0  0  0  0
   59.6260   26.5640   46.3920 C   0  0  0  0  0  0  0  0  0  0  0  0
   59.1770   25.4650   45.7100 C   0  0  0  0  0  0  0  0  0  0  0  0
   57.8140   25.2370   45.5360 C   0  0  0  0  0  0  0  0  0  0  0  0
   57.1430   23.7340   44.6010 Br  0  0  0  0  0  0  0  0  0  0  0  0
   56.9420   26.1370   46.0610 C   0  0  0  0  0  0  0  0  0  0  0  0
   57.4090   27.2480   46.7510 C   0  0  0  0  0  0  0  0  0  0  0  0
   59.9830   30.8000   47.9740 N   0  0  0  0  0  0  0  0  0  0  0  0
   59.8440   32.1110   47.7150 C   0  0  0  0  0  0  0  0  0  0  0  0
   60.7170   32.9550   48.3930 C   0  0  0  0  0  0  0  0  0  0  0  0
   60.5580   34.2950   48.1170 C   0  0  0  0  0  0  0  0  0  0  0  0
   59.6440   34.8160   47.2590 C   0  0  0  0  0  0  0  0  0  0  0  0
   58.7640   33.9380   46.5780 C   0  0  0  0  0  0  0  0  0  0  0  0
   58.8960   32.6110   46.8310 C   0  0  0  0  0  0  0  0  0  0  0  0
   55.1716   30.0151   45.0501 H   0  0  0  0  0  0  0  0  0  0  0  0
   55.2070   30.9126   43.4945 H   0  0  0  0  0  0  0  0  0  0  0  0
   55.1274   29.1181   43.4945 H   0  0  0  0  0  0  0  0  0  0  0  0
   57.6749   28.1423   44.7841 H   0  0  0  0  0  0  0  0  0  0  0  0
   56.7609   28.0083   43.2435 H   0  0  0  0  0  0  0  0  0  0  0  0
   58.4279   28.6774   43.2435 H   0  0  0  0  0  0  0  0  0  0  0  0
   58.7350   30.7601   43.4097 H   0  0  0  0  0  0  0  0  0  0  0  0
   57.3064   31.0516   42.3341 H   0  0  0  0  0  0  0  0  0  0  0  0
   58.2601   33.0333   43.9674 H   0  0  0  0  0  0  0  0  0  0  0  0
   56.5479   32.9181   43.6547 H   0  0  0  0  0  0  0  0  0  0  0  0
   57.6600   29.6560   46.0540 H   0  0  0  0  0  0  0  0  0  0  0  0
   60.7095   26.7125   46.5103 H   0  0  0  0  0  0  0  0  0  0  0  0
   59.9033   24.7516   45.2934 H   0  0  0  0  0  0  0  0  0  0  0  0
   55.8595   25.9847   45.9387 H   0  0  0  0  0  0  0  0  0  0  0  0
   56.6751   27.9562   47.1632 H   0  0  0  0  0  0  0  0  0  0  0  0
   61.4762   32.5811   49.0957 H   0  0  0  0  0  0  0  0  0  0  0  0
   61.2257   35.0002   48.6336 H   0  0  0  0  0  0  0  0  0  0  0  0
   59.5873   35.9022   47.0949 H   0  0  0  0  0  0  0  0  0  0  0  0
   58.0069   34.3156   45.8750 H   0  0  0  0  0  0  0  0  0  0  0  0
  1  2  1  0
  2  3  1  0
  2  4  1  0
  4  5  1  0
  5  6  1  0
  6  7  2  0
  7  8  1  0
  8  9  1  0
  9 10  1  0
 10 11  1  0
 11 12  2  0
 12 13  1  0
 13 14  2  0
 14 15  1  0
 14 16  1  0
 16 17  2  0
  9 18  2  0
 18 19  1  0
 19 20  2  0
 20 21  1  0
 21 22  2  0
 22 23  1  0
 23 24  2  0
 24  7  1  0
 17 11  1  0
 24 19  1  0
  1 25  1  0
  1 26  1  0
  1 27  1  0
  3 28  1  0
  3 29  1  0
  3 30  1  0
  4 31  1  0
  4 32  1  0
  5 33  1  0
  5 34  1  0
  8 35  1  0
 12 36  1  0
 13 37  1  0
 16 38  1  0
 17 39  1  0
 20 40  1  0
 21 41  1  0
 22 42  1  0
 23 43  1  0
M  END
>  <smiles>  (24) 
CN(C)CCN=c1[nH]c(Oc2ccc(Br)cc2)nc2ccccc12

>  <score_type>  (24) 
oracle

>  <origin>  (24) 
adg

>  <m_score__min__energy>  (24) 
-6.5999999999999996

>  <m_primary>  (24) 
energy

$$$$
24:0
     RDKit          3D

 54 58  0  0  0  0  0  0  0  0999 V2000
   58.4810   30.6740   44.6150 O   0  0  0  0  0  0  0  0  0  0  0  0
   58.4430   31.1950   45.7640 C   0  0  0  0  0  0  0  0  0  0  0  0
   58.1360   30.3140   46.9490 C   0  0  0  0  0  0  0  0  0  0  0  0
   58.9320   29.0810   46.9040 N   0  0  0  0  0  0  0  0  0  0  0  0
   60.2550   28.9280   47.1930 C   0  0  0  0  0  0  0  0  0  0  0  0
   61.1290   29.9700   47.7630 C   0  0  0  0  0  0  0  0  0  0  0  0
   61.8160   30.8530   46.9140 C   0  0  0  0  0  0  0  0  0  0  0  0
   62.6640   31.8280   47.4480 C   0  0  0  0  0  0  0  0  0  0  0  0
   62.8440   31.9190   48.8320 C   0  0  0  0  0  0  0  0  0  0  0  0
   63.9100   33.1410   49.5010 Cl  0  0  0  0  0  0  0  0  0  0  0  0
   62.1790   31.0290   49.6820 C   0  0  0  0  0  0  0  0  0  0  0  0
   61.3300   30.0540   49.1500 C   0  0  0  0  0  0  0  0  0  0  0  0
   60.6920   27.6520   46.8500 C   0  0  0  0  0  0  0  0  0  0  0  0
   59.5850   27.0160   46.3360 C   0  0  0  0  0  0  0  0  0  0  0  0
   59.4500   25.7310   45.8170 C   0  0  0  0  0  0  0  0  0  0  0  0
   58.1870   25.3400   45.3150 C   0  0  0  0  0  0  0  0  0  0  0  0
   57.9900   23.9780   44.7570 C   0  0  0  0  0  0  0  0  0  0  0  0
   56.9480   23.7140   43.8520 C   0  0  0  0  0  0  0  0  0  0  0  0
   56.7780   22.4290   43.3350 C   0  0  0  0  0  0  0  0  0  0  0  0
   57.6500   21.4130   43.7230 C   0  0  0  0  0  0  0  0  0  0  0  0
   58.6570   21.6750   44.5990 N   0  0  0  0  0  0  0  0  0  0  0  0
   58.8440   22.9200   45.1170 C   0  0  0  0  0  0  0  0  0  0  0  0
   57.1100   26.2660   45.3450 C   0  0  0  0  0  0  0  0  0  0  0  0
   57.2830   27.5580   45.8720 C   0  0  0  0  0  0  0  0  0  0  0  0
   58.5400   27.9010   46.3730 C   0  0  0  0  0  0  0  0  0  0  0  0
   58.7450   32.5990   45.9220 N   0  0  0  0  0  0  0  0  0  0  0  0
   58.4870   33.5160   44.8040 C   0  0  0  0  0  0  0  0  0  0  0  0
   59.3880   34.7500   44.9080 C   0  0  0  0  0  0  0  0  0  0  0  0
   59.2940   35.3340   46.1920 O   0  0  0  0  0  0  0  0  0  0  0  0
   59.8230   34.4420   47.1540 C   0  0  0  0  0  0  0  0  0  0  0  0
   58.9650   33.1770   47.2540 C   0  0  0  0  0  0  0  0  0  0  0  0
   58.3701   30.8604   47.8745 H   0  0  0  0  0  0  0  0  0  0  0  0
   57.0696   30.0457   46.9211 H   0  0  0  0  0  0  0  0  0  0  0  0
   61.6864   30.7772   45.8243 H   0  0  0  0  0  0  0  0  0  0  0  0
   63.1903   32.5245   46.7787 H   0  0  0  0  0  0  0  0  0  0  0  0
   62.3243   31.0964   50.7703 H   0  0  0  0  0  0  0  0  0  0  0  0
   60.8171   29.3494   49.8212 H   0  0  0  0  0  0  0  0  0  0  0  0
   61.7054   27.2399   46.9651 H   0  0  0  0  0  0  0  0  0  0  0  0
   60.3038   25.0377   45.7979 H   0  0  0  0  0  0  0  0  0  0  0  0
   56.2650   24.5218   43.5505 H   0  0  0  0  0  0  0  0  0  0  0  0
   55.9625   22.2195   42.6271 H   0  0  0  0  0  0  0  0  0  0  0  0
   57.5235   20.3974   43.3199 H   0  0  0  0  0  0  0  0  0  0  0  0
   59.3040   20.9050   44.8770 H   0  0  0  0  0  0  0  0  0  0  0  0
   59.6689   23.0998   45.8221 H   0  0  0  0  0  0  0  0  0  0  0  0
   56.1273   25.9681   44.9505 H   0  0  0  0  0  0  0  0  0  0  0  0
   56.4515   28.2780   45.8890 H   0  0  0  0  0  0  0  0  0  0  0  0
   58.6903   32.9975   43.8554 H   0  0  0  0  0  0  0  0  0  0  0  0
   57.4356   33.8373   44.8409 H   0  0  0  0  0  0  0  0  0  0  0  0
   60.4305   34.4518   44.7230 H   0  0  0  0  0  0  0  0  0  0  0  0
   59.0622   35.4882   44.1604 H   0  0  0  0  0  0  0  0  0  0  0  0
   60.8457   34.1617   46.8617 H   0  0  0  0  0  0  0  0  0  0  0  0
   59.8278   34.9426   48.1335 H   0  0  0  0  0  0  0  0  0  0  0  0
   59.4792   32.4399   47.8882 H   0  0  0  0  0  0  0  0  0  0  0  0
   57.9915   33.4408   47.6929 H   0  0  0  0  0  0  0  0  0  0  0  0
  1  2  2  0
  2  3  1  0
  3  4  1  0
  4  5  1  0
  5  6  1  0
  6  7  2  0
  7  8  1  0
  8  9  2  0
  9 10  1  0
  9 11  1  0
 11 12  2  0
  5 13  2  0
 13 14  1  0
 14 15  2  0
 15 16  1  0
 16 17  1  0
 17 18  2  0
 18 19  1  0
 19 20  2  0
 20 21  1  0
 21 22  2  0
 16 23  2  0
 23 24  1  0
 24 25  2  0
  2 26  1  0
 26 27  1  0
 27 28  1  0
 28 29  1  0
 29 30  1  0
 30 31  1  0
 25  4  1  0
 31 26  1  0
 12  6  1  0
 25 14  1  0
 22 17  1  0
  3 32  1  0
  3 33  1  0
  7 34  1  0
  8 35  1  0
 11 36  1  0
 12 37  1  0
 13 38  1  0
 15 39  1  0
 18 40  1  0
 19 41  1  0
 20 42  1  0
 21 43  1  0
 22 44  1  0
 23 45  1  0
 24 46  1  0
 27 47  1  0
 27 48  1  0
 28 49  1  0
 28 50  1  0
 30 51  1  0
 30 52  1  0
 31 53  1  0
 31 54  1  0
M  CHG  1  21   1
M  END
>  <UniqueID>  (25) 
23

>  <SMILES>  (25) 
O=C(Cn1c(-c2ccc(Cl)cc2)cc2cc(-c3ccc[nH+]c3)ccc21)N1CCOCC1

>  <Energy>  (25) 
105.56941217888487

>  <Genealogy>  (25) 
O=C(Cn1c(-c2ccc(Cl)cc2)cc2cc(-c3ccc[nH+]c3)ccc21)N1CCOCC1 (protonated)
O=C(Cn1c(-c2ccc(Cl)cc2)cc2cc(-c3ccc[nH+]c3)ccc21)N1CCOCC1 (3D coordinates assigned)
O=C(Cn1c(-c2ccc(Cl)cc2)cc2cc(-c3ccc[nH+]c3)ccc21)N1CCOCC1 (nonaromatic ring conformer: 105.56941217888487 kcal/mol)

>  <smiles>  (25) 
O=C(Cn1c(-c2ccc(Cl)cc2)cc2cc(-c3cccnc3)ccc21)N1CCOCC1

>  <score_type>  (25) 
oracle

>  <origin>  (25) 
adg

>  <m_score__min__energy>  (25) 
-7.8399999999999999

>  <m_primary>  (25) 
energy

$$$$
25:0
     RDKit          3D

 39 42  0  0  0  0  0  0  0  0999 V2000
   56.5960   21.1300   48.2120 C   0  0  0  0  0  0  0  0  0  0  0  0
   57.2790   22.3410   47.9010 O   0  0  0  0  0  0  0  0  0  0  0  0
   56.7140   23.4100   47.1880 C   0  0  0  0  0  0  0  0  0  0  0  0
   55.5210   23.1860   46.4940 C   0  0  0  0  0  0  0  0  0  0  0  0
   54.9240   24.2150   45.7630 C   0  0  0  0  0  0  0  0  0  0  0  0
   55.5120   25.4800   45.7230 C   0  0  0  0  0  0  0  0  0  0  0  0
   56.7050   25.7320   46.4210 C   0  0  0  0  0  0  0  0  0  0  0  0
   57.3110   27.0380   46.3740 N   0  0  0  0  0  0  0  0  0  0  0  0
   58.5510   27.3560   46.8290 C   0  0  0  0  0  0  0  0  0  0  0  0
   58.7670   28.6980   46.6020 C   0  0  0  0  0  0  0  0  0  0  0  0
   59.8580   29.4550   46.8750 N   0  0  0  0  0  0  0  0  0  0  0  0
   59.8330   30.7850   46.5330 C   0  0  0  0  0  0  0  0  0  0  0  0
   60.9960   31.6620   46.7990 C   0  0  0  0  0  0  0  0  0  0  0  0
   62.2160   31.0920   47.2070 C   0  0  0  0  0  0  0  0  0  0  0  0
   63.3260   31.9010   47.4660 C   0  0  0  0  0  0  0  0  0  0  0  0
   63.2340   33.2850   47.3110 C   0  0  0  0  0  0  0  0  0  0  0  0
   62.0340   33.8630   46.8910 C   0  0  0  0  0  0  0  0  0  0  0  0
   60.9180   33.0600   46.6300 C   0  0  0  0  0  0  0  0  0  0  0  0
   59.7860   33.6480   46.1660 F   0  0  0  0  0  0  0  0  0  0  0  0
   58.7270   31.3090   45.9070 N   0  0  0  0  0  0  0  0  0  0  0  0
   57.6300   30.5470   45.6280 C   0  0  0  0  0  0  0  0  0  0  0  0
   57.6630   29.2130   45.9960 C   0  0  0  0  0  0  0  0  0  0  0  0
   56.7730   28.1750   45.8580 C   0  0  0  0  0  0  0  0  0  0  0  0
   55.5260   28.2590   45.2470 O   0  0  0  0  0  0  0  0  0  0  0  0
   57.3070   24.6880   47.1480 C   0  0  0  0  0  0  0  0  0  0  0  0
   56.5314   21.0155   49.3041 H   0  0  0  0  0  0  0  0  0  0  0  0
   55.5823   21.1609   47.7860 H   0  0  0  0  0  0  0  0  0  0  0  0
   57.1469   20.2785   47.7860 H   0  0  0  0  0  0  0  0  0  0  0  0
   55.0497   22.1926   46.5241 H   0  0  0  0  0  0  0  0  0  0  0  0
   53.9875   24.0280   45.2171 H   0  0  0  0  0  0  0  0  0  0  0  0
   55.0385   26.2847   45.1414 H   0  0  0  0  0  0  0  0  0  0  0  0
   59.2619   26.6604   47.2988 H   0  0  0  0  0  0  0  0  0  0  0  0
   60.7020   29.0140   47.3050 H   0  0  0  0  0  0  0  0  0  0  0  0
   62.2969   30.0011   47.3231 H   0  0  0  0  0  0  0  0  0  0  0  0
   64.2730   31.4464   47.7923 H   0  0  0  0  0  0  0  0  0  0  0  0
   64.1070   33.9208   47.5197 H   0  0  0  0  0  0  0  0  0  0  0  0
   61.9658   34.9536   46.7649 H   0  0  0  0  0  0  0  0  0  0  0  0
   56.7500   30.9778   45.1280 H   0  0  0  0  0  0  0  0  0  0  0  0
   58.2472   24.8708   47.6889 H   0  0  0  0  0  0  0  0  0  0  0  0
  1  2  1  0
  2  3  1  0
  3  4  2  0
  4  5  1  0
  5  6  2  0
  6  7  1  0
  7  8  1  0
  8  9  1  0
  9 10  2  0
 10 11  1  0
 11 12  2  0
 12 13  1  0
 13 14  2  0
 14 15  1  0
 15 16  2  0
 16 17  1  0
 17 18  2  0
 18 19  1  0
 12 20  1  0
 20 21  2  0
 21 22  1  0
 22 23  2  0
 23 24  1  0
  7 25  2  0
 25  3  1  0
 23  8  1  0
 22 10  1  0
 18 13  1  0
  1 26  1  0
  1 27  1  0
  1 28  1  0
  4 29  1  0
  5 30  1  0
  6 31  1  0
  9 32  1  0
 11 33  1  0
 14 34  1  0
 15 35  1  0
 16 36  1  0
 17 37  1  0
 21 38  1  0
 25 39  1  0
M  CHG  2  11   1  24  -1
M  END
>  <UniqueID>  (26) 
24

>  <SMILES>  (26) 
COc1cccc(-n2cc3[nH+]c(-c4ccccc4F)ncc3c2[O-])c1

>  <Energy>  (26) 
91.32282005436969

>  <Genealogy>  (26) 
COc1cccc(-n2cc3[nH+]c(-c4ccccc4F)ncc3c2[O-])c1 (protonated)
COc1cccc(-n2cc3[nH+]c(-c4ccccc4F)ncc3c2[O-])c1 (3D coordinates assigned)
COc1cccc(-n2cc3[nH+]c(-c4ccccc4F)ncc3c2[O-])c1 (optimized conformer: 91.32282005436969 kcal/mol)

>  <smiles>  (26) 
COc1cccc(-n2cc3nc(-c4ccccc4F)ncc3c2O)c1

>  <score_type>  (26) 
oracle

>  <origin>  (26) 
adg

>  <m_score__min__energy>  (26) 
-8.5399999999999991

>  <m_primary>  (26) 
energy

$$$$
26:0
     RDKit          3D

 36 38  0  0  0  0  0  0  0  0999 V2000
   67.8460   32.7140   51.5530 C   0  0  0  0  0  0  0  0  0  0  0  0
   66.6370   31.9720   51.6760 O   0  0  0  0  0  0  0  0  0  0  0  0
   65.5480   32.0810   50.7980 C   0  0  0  0  0  0  0  0  0  0  0  0
   64.4160   31.2510   50.8950 C   0  0  0  0  0  0  0  0  0  0  0  0
   63.3540   31.3970   49.9960 C   0  0  0  0  0  0  0  0  0  0  0  0
   63.4040   32.3730   48.9850 C   0  0  0  0  0  0  0  0  0  0  0  0
   62.2930   32.5490   48.0210 C   0  0  0  0  0  0  0  0  0  0  0  0
   61.4080   31.6000   47.6570 N   0  0  0  0  0  0  0  0  0  0  0  0
   60.6170   32.2470   46.7750 C   0  0  0  0  0  0  0  0  0  0  0  0
   59.4620   31.6470   46.0590 C   0  0  0  0  0  0  0  0  0  0  0  0
   58.3580   32.4260   45.6660 C   0  0  0  0  0  0  0  0  0  0  0  0
   57.2810   31.8420   44.9930 C   0  0  0  0  0  0  0  0  0  0  0  0
   57.2810   30.4690   44.7110 C   0  0  0  0  0  0  0  0  0  0  0  0
   56.1380   29.8480   43.9550 C   0  0  0  0  0  0  0  0  0  0  0  0
   55.1390   29.4380   44.8470 O   0  0  0  0  0  0  0  0  0  0  0  0
   58.3850   29.6910   45.0860 C   0  0  0  0  0  0  0  0  0  0  0  0
   59.4630   30.2740   45.7580 C   0  0  0  0  0  0  0  0  0  0  0  0
   61.0070   33.5280   46.6160 N   0  0  0  0  0  0  0  0  0  0  0  0
   62.0380   33.6740   47.3960 O   0  0  0  0  0  0  0  0  0  0  0  0
   64.5370   33.1980   48.8940 C   0  0  0  0  0  0  0  0  0  0  0  0
   65.5970   33.0510   49.7930 C   0  0  0  0  0  0  0  0  0  0  0  0
   68.2337   32.9519   52.5545 H   0  0  0  0  0  0  0  0  0  0  0  0
   68.5890   32.1162   51.0047 H   0  0  0  0  0  0  0  0  0  0  0  0
   67.6494   33.6471   51.0047 H   0  0  0  0  0  0  0  0  0  0  0  0
   64.3658   30.4836   51.6815 H   0  0  0  0  0  0  0  0  0  0  0  0
   62.4733   30.7434   50.0807 H   0  0  0  0  0  0  0  0  0  0  0  0
   61.3540   30.6090   47.9750 H   0  0  0  0  0  0  0  0  0  0  0  0
   58.3424   33.5028   45.8901 H   0  0  0  0  0  0  0  0  0  0  0  0
   56.4282   32.4637   44.6828 H   0  0  0  0  0  0  0  0  0  0  0  0
   55.7203   30.5867   43.2551 H   0  0  0  0  0  0  0  0  0  0  0  0
   56.5063   28.9732   43.3991 H   0  0  0  0  0  0  0  0  0  0  0  0
   54.7720   28.5870   44.4900 H   0  0  0  0  0  0  0  0  0  0  0  0
   58.4031   28.6167   44.8503 H   0  0  0  0  0  0  0  0  0  0  0  0
   60.3207   29.6522   46.0542 H   0  0  0  0  0  0  0  0  0  0  0  0
   64.5906   33.9663   48.1086 H   0  0  0  0  0  0  0  0  0  0  0  0
   66.4777   33.7046   49.7088 H   0  0  0  0  0  0  0  0  0  0  0  0
  1  2  1  0
  2  3  1  0
  3  4  2  0
  4  5  1  0
  5  6  2  0
  6  7  1  0
  7  8  2  0
  8  9  1  0
  9 10  1  0
 10 11  2  0
 11 12  1  0
 12 13  2  0
 13 14  1  0
 14 15  1  0
 13 16  1  0
 16 17  2  0
  9 18  2  0
 18 19  1  0
  6 20  1  0
 20 21  2  0
 21  3  1  0
 19  7  1  0
 17 10  1  0
  1 22  1  0
  1 23  1  0
  1 24  1  0
  4 25  1  0
  5 26  1  0
  8 27  1  0
 11 28  1  0
 12 29  1  0
 14 30  1  0
 14 31  1  0
 15 32  1  0
 16 33  1  0
 17 34  1  0
 20 35  1  0
 21 36  1  0
M  CHG  1   8   1
M  END
>  <UniqueID>  (27) 
25

>  <SMILES>  (27) 
COc1ccc(-c2[nH+]c(-c3ccc(CO)cc3)no2)cc1

>  <Energy>  (27) 
74.5007371145563

>  <Genealogy>  (27) 
COc1ccc(-c2[nH+]c(-c3ccc(CO)cc3)no2)cc1 (protonated)
COc1ccc(-c2[nH+]c(-c3ccc(CO)cc3)no2)cc1 (3D coordinates assigned)
COc1ccc(-c2[nH+]c(-c3ccc(CO)cc3)no2)cc1 (optimized conformer: 74.5007371145563 kcal/mol)

>  <smiles>  (27) 
COc1ccc(-c2nc(-c3ccc(CO)cc3)no2)cc1

>  <score_type>  (27) 
oracle

>  <origin>  (27) 
adg

>  <m_score__min__energy>  (27) 
-5.9500000000000002

>  <m_primary>  (27) 
energy

$$$$
27:0
     RDKit          3D

 30 32  0  0  0  0  0  0  0  0999 V2000
   56.3670   30.0820   43.3730 C   0  0  0  0  0  0  0  0  0  0  0  0
   56.2900   30.9590   44.4920 O   0  0  0  0  0  0  0  0  0  0  0  0
   57.3930   31.3640   45.2580 C   0  0  0  0  0  0  0  0  0  0  0  0
   57.6670   32.7160   45.5330 C   0  0  0  0  0  0  0  0  0  0  0  0
   58.7800   33.0690   46.3020 C   0  0  0  0  0  0  0  0  0  0  0  0
   59.6400   32.0790   46.8120 C   0  0  0  0  0  0  0  0  0  0  0  0
   60.8260   32.4250   47.6300 C   0  0  0  0  0  0  0  0  0  0  0  0
   62.0660   31.8890   47.4700 N   0  0  0  0  0  0  0  0  0  0  0  0
   62.7950   32.4970   48.4170 C   0  0  0  0  0  0  0  0  0  0  0  0
   64.1450   32.3310   48.7150 C   0  0  0  0  0  0  0  0  0  0  0  0
   64.6780   33.0970   49.7730 C   0  0  0  0  0  0  0  0  0  0  0  0
   66.0680   32.9670   50.1230 C   0  0  0  0  0  0  0  0  0  0  0  0
   67.1850   32.8610   50.4040 N   0  0  0  0  0  0  0  0  0  0  0  0
   63.8500   33.9970   50.4900 C   0  0  0  0  0  0  0  0  0  0  0  0
   62.4880   34.1350   50.1570 C   0  0  0  0  0  0  0  0  0  0  0  0
   62.0020   33.3610   49.1080 C   0  0  0  0  0  0  0  0  0  0  0  0
   60.7890   33.3120   48.6170 O   0  0  0  0  0  0  0  0  0  0  0  0
   59.3600   30.7300   46.5340 C   0  0  0  0  0  0  0  0  0  0  0  0
   58.2470   30.3790   45.7650 C   0  0  0  0  0  0  0  0  0  0  0  0
   56.4581   29.0442   43.7261 H   0  0  0  0  0  0  0  0  0  0  0  0
   55.4565   30.1836   42.7642 H   0  0  0  0  0  0  0  0  0  0  0  0
   57.2459   30.3407   42.7642 H   0  0  0  0  0  0  0  0  0  0  0  0
   57.0021   33.4997   45.1410 H   0  0  0  0  0  0  0  0  0  0  0  0
   58.9851   34.1295   46.5100 H   0  0  0  0  0  0  0  0  0  0  0  0
   62.3970   31.1760   46.7830 H   0  0  0  0  0  0  0  0  0  0  0  0
   64.7725   31.6287   48.1466 H   0  0  0  0  0  0  0  0  0  0  0  0
   64.2740   34.5920   51.3123 H   0  0  0  0  0  0  0  0  0  0  0  0
   61.8336   34.8284   50.7056 H   0  0  0  0  0  0  0  0  0  0  0  0
   60.0225   29.9438   46.9250 H   0  0  0  0  0  0  0  0  0  0  0  0
   58.0408   29.3188   45.5566 H   0  0  0  0  0  0  0  0  0  0  0  0
  1  2  1  0
  2  3  1  0
  3  4  2  0
  4  5  1  0
  5  6  2  0
  6  7  1  0
  7  8  2  0
  8  9  1  0
  9 10  2  0
 10 11  1  0
 11 12  1  0
 12 13  3  0
 11 14  2  0
 14 15  1  0
 15 16  2  0
 16 17  1  0
  6 18  1  0
 18 19  2  0
 19  3  1  0
 17  7  1  0
 16  9  1  0
  1 20  1  0
  1 21  1  0
  1 22  1  0
  4 23  1  0
  5 24  1  0
  8 25  1  0
 10 26  1  0
 14 27  1  0
 15 28  1  0
 18 29  1  0
 19 30  1  0
M  CHG  1   8   1
M  END
>  <UniqueID>  (28) 
26

>  <SMILES>  (28) 
COc1ccc(-c2[nH+]c3cc(C#N)ccc3o2)cc1

>  <Energy>  (28) 
71.36186249883293

>  <Genealogy>  (28) 
COc1ccc(-c2[nH+]c3cc(C#N)ccc3o2)cc1 (protonated)
COc1ccc(-c2[nH+]c3cc(C#N)ccc3o2)cc1 (3D coordinates assigned)
COc1ccc(-c2[nH+]c3cc(C#N)ccc3o2)cc1 (optimized conformer: 71.36186249883293 kcal/mol)

>  <smiles>  (28) 
COc1ccc(-c2nc3cc(C#N)ccc3o2)cc1

>  <score_type>  (28) 
oracle

>  <origin>  (28) 
adg

>  <m_score__min__energy>  (28) 
-4.46

>  <m_primary>  (28) 
energy

$$$$
28:0
     RDKit          3D

 43 46  0  0  0  0  0  0  0  0999 V2000
   59.3400   35.3280   45.4260 F   0  0  0  0  0  0  0  0  0  0  0  0
   59.3420   34.0120   45.7560 C   0  0  0  0  0  0  0  0  0  0  0  0
   58.6470   33.1050   44.9470 C   0  0  0  0  0  0  0  0  0  0  0  0
   58.6420   31.7340   45.2530 C   0  0  0  0  0  0  0  0  0  0  0  0
   57.9170   30.8040   44.4250 N   0  0  0  0  0  0  0  0  0  0  0  0
   57.7400   29.4060   44.8410 C   0  0  0  0  0  0  0  0  0  0  0  0
   56.2470   29.0440   44.8850 C   0  0  0  0  0  0  0  0  0  0  0  0
   55.4200   29.7150   43.7660 C   0  0  0  0  0  0  0  0  0  0  0  0
   56.2940   30.2510   42.6250 C   0  0  0  0  0  0  0  0  0  0  0  0
   57.3140   31.2640   43.1630 C   0  0  0  0  0  0  0  0  0  0  0  0
   59.3330   31.2870   46.3920 C   0  0  0  0  0  0  0  0  0  0  0  0
   60.0250   32.1910   47.2000 C   0  0  0  0  0  0  0  0  0  0  0  0
   60.0330   33.5600   46.8930 C   0  0  0  0  0  0  0  0  0  0  0  0
   60.8140   34.5250   47.7460 C   0  0  0  0  0  0  0  0  0  0  0  0
   62.1860   34.0500   47.9080 N   0  0  0  0  0  0  0  0  0  0  0  0
   62.9540   33.6190   46.9110 N   0  0  0  0  0  0  0  0  0  0  0  0
   64.1190   33.1820   47.3830 N   0  0  0  0  0  0  0  0  0  0  0  0
   64.0810   33.3310   48.7180 C   0  0  0  0  0  0  0  0  0  0  0  0
   65.0410   33.0050   49.6700 C   0  0  0  0  0  0  0  0  0  0  0  0
   64.7220   33.2570   51.0190 C   0  0  0  0  0  0  0  0  0  0  0  0
   63.4670   33.8160   51.3690 C   0  0  0  0  0  0  0  0  0  0  0  0
   62.5210   34.1300   50.3740 C   0  0  0  0  0  0  0  0  0  0  0  0
   62.8750   33.8680   49.0500 C   0  0  0  0  0  0  0  0  0  0  0  0
   58.1004   33.4689   44.0645 H   0  0  0  0  0  0  0  0  0  0  0  0
   58.2515   28.7471   44.1239 H   0  0  0  0  0  0  0  0  0  0  0  0
   58.1679   29.2763   45.8460 H   0  0  0  0  0  0  0  0  0  0  0  0
   56.1496   27.9530   44.7842 H   0  0  0  0  0  0  0  0  0  0  0  0
   55.8523   29.4097   45.8444 H   0  0  0  0  0  0  0  0  0  0  0  0
   54.7188   28.9743   43.3541 H   0  0  0  0  0  0  0  0  0  0  0  0
   54.8919   30.5713   44.2108 H   0  0  0  0  0  0  0  0  0  0  0  0
   56.8290   29.4132   42.1540 H   0  0  0  0  0  0  0  0  0  0  0  0
   55.6499   30.7510   41.8867 H   0  0  0  0  0  0  0  0  0  0  0  0
   58.1096   31.4014   42.4159 H   0  0  0  0  0  0  0  0  0  0  0  0
   56.7903   32.2119   43.3560 H   0  0  0  0  0  0  0  0  0  0  0  0
   59.3286   30.2174   46.6487 H   0  0  0  0  0  0  0  0  0  0  0  0
   60.5684   31.8270   48.0845 H   0  0  0  0  0  0  0  0  0  0  0  0
   60.8251   35.5127   47.2620 H   0  0  0  0  0  0  0  0  0  0  0  0
   60.3383   34.6000   48.7350 H   0  0  0  0  0  0  0  0  0  0  0  0
   64.8950   32.7900   46.8050 H   0  0  0  0  0  0  0  0  0  0  0  0
   66.0088   32.5687   49.3818 H   0  0  0  0  0  0  0  0  0  0  0  0
   65.4520   33.0183   51.8064 H   0  0  0  0  0  0  0  0  0  0  0  0
   63.2302   34.0060   52.4263 H   0  0  0  0  0  0  0  0  0  0  0  0
   61.5432   34.5640   50.6301 H   0  0  0  0  0  0  0  0  0  0  0  0
  1  2  1  0
  2  3  2  0
  3  4  1  0
  4  5  1  0
  5  6  1  0
  6  7  1  0
  7  8  1  0
  8  9  1  0
  9 10  1  0
  4 11  2  0
 11 12  1  0
 12 13  2  0
 13 14  1  0
 14 15  1  0
 15 16  1  0
 16 17  2  0
 17 18  1  0
 18 19  2  0
 19 20  1  0
 20 21  2  0
 21 22  1  0
 22 23  2  0
 13  2  1  0
 23 15  1  0
 10  5  1  0
 23 18  1  0
  3 24  1  0
  6 25  1  0
  6 26  1  0
  7 27  1  0
  7 28  1  0
  8 29  1  0
  8 30  1  0
  9 31  1  0
  9 32  1  0
 10 33  1  0
 10 34  1  0
 11 35  1  0
 12 36  1  0
 14 37  1  0
 14 38  1  0
 17 39  1  0
 19 40  1  0
 20 41  1  0
 21 42  1  0
 22 43  1  0
M  CHG  1  17   1
M  END
>  <UniqueID>  (29) 
27

>  <SMILES>  (29) 
Fc1cc(N2CCCCC2)ccc1Cn1n[nH+]c2ccccc21

>  <Energy>  (29) 
95.58817514620692

>  <Genealogy>  (29) 
Fc1cc(N2CCCCC2)ccc1Cn1n[nH+]c2ccccc21 (protonated)
Fc1cc(N2CCCCC2)ccc1Cn1n[nH+]c2ccccc21 (3D coordinates assigned)
Fc1cc(N2CCCCC2)ccc1Cn1n[nH+]c2ccccc21 (nonaromatic ring conformer: 95.58817514620692 kcal/mol)

>  <smiles>  (29) 
Fc1cc(N2CCCCC2)ccc1Cn1nnc2ccccc21

>  <score_type>  (29) 
oracle

>  <origin>  (29) 
adg

>  <m_score__min__energy>  (29) 
-7.1399999999999997

>  <m_primary>  (29) 
energy

$$$$
29:0
     RDKit          3D

 44 46  0  0  0  0  0  0  0  0999 V2000
   59.0790   35.6496   44.6190 H   0  0  0  0  0  0  0  0  0  0  0  0
   58.6290   34.7330   45.0280 C   0  0  0  0  0  0  0  0  0  0  0  0
   57.2580   34.5120   44.9030 C   0  0  0  0  0  0  0  0  0  0  0  0
   56.6198   35.2500   44.3950 H   0  0  0  0  0  0  0  0  0  0  0  0
   56.7040   33.3430   45.4300 C   0  0  0  0  0  0  0  0  0  0  0  0
   55.6232   33.1597   45.3385 H   0  0  0  0  0  0  0  0  0  0  0  0
   57.4950   32.4300   46.0560 N   0  0  0  0  0  0  0  0  0  0  0  0
   57.0510   31.5680   46.4450 H   0  0  0  0  0  0  0  0  0  0  0  0
   58.8420   32.6230   46.1860 C   0  0  0  0  0  0  0  0  0  0  0  0
   59.6920   31.6140   46.9100 C   0  0  0  0  0  0  0  0  0  0  0  0
   60.2512   32.1193   47.7112 H   0  0  0  0  0  0  0  0  0  0  0  0
   60.3895   31.1553   46.1937 H   0  0  0  0  0  0  0  0  0  0  0  0
   58.8750   30.5930   47.4790 O   0  0  0  0  0  0  0  0  0  0  0  0
   58.3060   29.5510   46.7330 C   0  0  0  0  0  0  0  0  0  0  0  0
   57.1730   29.7620   46.0120 N   0  0  0  0  0  0  0  0  0  0  0  0
   56.6080   28.7740   45.2740 C   0  0  0  0  0  0  0  0  0  0  0  0
   55.5180   29.0210   44.6100 N   0  0  0  0  0  0  0  0  0  0  0  0
   55.3770   30.0540   43.5820 C   0  0  0  0  0  0  0  0  0  0  0  0
   55.2656   31.0328   44.0714 H   0  0  0  0  0  0  0  0  0  0  0  0
   54.4913   29.8181   42.9739 H   0  0  0  0  0  0  0  0  0  0  0  0
   56.6000   30.0950   42.6570 C   0  0  0  0  0  0  0  0  0  0  0  0
   56.2592   30.0140   41.6143 H   0  0  0  0  0  0  0  0  0  0  0  0
   57.2581   29.2561   42.9275 H   0  0  0  0  0  0  0  0  0  0  0  0
   57.3960   31.3880   42.8160 C   0  0  0  0  0  0  0  0  0  0  0  0
   57.5306   31.6066   43.8856 H   0  0  0  0  0  0  0  0  0  0  0  0
   58.3803   31.2737   42.3385 H   0  0  0  0  0  0  0  0  0  0  0  0
   56.8507   32.2154   42.3385 H   0  0  0  0  0  0  0  0  0  0  0  0
   57.1840   27.5440   45.2450 N   0  0  0  0  0  0  0  0  0  0  0  0
   58.3260   27.2760   45.9320 C   0  0  0  0  0  0  0  0  0  0  0  0
   58.9100   28.2850   46.7280 C   0  0  0  0  0  0  0  0  0  0  0  0
   60.2100   28.0550   47.4680 C   0  0  0  0  0  0  0  0  0  0  0  0
   60.1395   28.5278   48.4587 H   0  0  0  0  0  0  0  0  0  0  0  0
   61.0181   28.4940   46.8645 H   0  0  0  0  0  0  0  0  0  0  0  0
   60.5280   26.5680   47.6560 C   0  0  0  0  0  0  0  0  0  0  0  0
   59.8551   26.1478   48.4180 H   0  0  0  0  0  0  0  0  0  0  0  0
   61.5755   26.4668   47.9763 H   0  0  0  0  0  0  0  0  0  0  0  0
   60.3380   25.8080   46.3440 C   0  0  0  0  0  0  0  0  0  0  0  0
   60.6263   24.7564   46.4887 H   0  0  0  0  0  0  0  0  0  0  0  0
   60.9687   26.2683   45.5692 H   0  0  0  0  0  0  0  0  0  0  0  0
   58.8740   25.8740   45.8990 C   0  0  0  0  0  0  0  0  0  0  0  0
   58.2721   25.2437   46.5702 H   0  0  0  0  0  0  0  0  0  0  0  0
   58.8235   25.5189   44.8591 H   0  0  0  0  0  0  0  0  0  0  0  0
   59.4290   33.7890   45.6730 C   0  0  0  0  0  0  0  0  0  0  0  0
   60.5109   33.9579   45.7782 H   0  0  0  0  0  0  0  0  0  0  0  0
  1  2  1  0
  2  3  2  0
  3  4  1  0
  3  5  1  0
  5  6  1  0
  5  7  2  0
  7  8  1  0
  7  9  1  0
  9 10  1  0
 10 11  1  0
 10 12  1  0
 10 13  1  0
 13 14  1  0
 14 15  2  0
 15 16  1  0
 16 17  2  0
 17 18  1  0
 18 19  1  0
 18 20  1  0
 18 21  1  0
 21 22  1  0
 21 23  1  0
 21 24  1  0
 24 25  1  0
 24 26  1  0
 24 27  1  0
 16 28  1  0
 28 29  1  0
 29 30  2  0
 30 31  1  0
 31 32  1  0
 31 33  1  0
 31 34  1  0
 34 35  1  0
 34 36  1  0
 34 37  1  0
 37 38  1  0
 37 39  1  0
 37 40  1  0
 40 41  1  0
 40 42  1  0
  9 43  2  0
 43 44  1  0
 43  2  1  0
 30 14  1  0
 40 29  1  0
M  CHG  2   7   1  28  -1
M  END
>  <UniqueID>  (30) 
28

>  <SMILES>  (30) 
CCC/N=c1/nc(OCc2cccc[nH+]2)c2c([n-]1)CCCC2

>  <Energy>  (30) 
37.68948625828333

>  <Genealogy>  (30) 
CCCN=c1nc(OCc2cccc[nH+]2)c2c([n-]1)CCCC2 (protonated)
CCC/N=c1/nc(OCc2cccc[nH+]2)c2c([n-]1)CCCC2 (cis-trans isomerization)
CCC/N=c1/nc(OCc2cccc[nH+]2)c2c([n-]1)CCCC2 (3D coordinates assigned)
CCC/N=c1/nc(OCc2cccc[nH+]2)c2c([n-]1)CCCC2 (nonaromatic ring conformer: 37.68948625828333 kcal/mol)

>  <smiles>  (30) 
CCCN=c1nc(OCc2ccccn2)c2c([nH]1)CCCC2

>  <score_type>  (30) 
oracle

>  <origin>  (30) 
adg

>  <m_score__min__energy>  (30) 
-6.7800000000000002

>  <m_primary>  (30) 
energy

$$$$
30:0
     RDKit          3D

 43 44  0  0  0  0  0  0  0  0999 V2000
   58.5740   28.1610   44.1360 C   0  0  0  0  0  0  0  0  0  0  0  0
   57.2380   28.0410   44.7480 N   0  0  0  0  0  0  0  0  0  0  0  0
   57.3130   27.6770   46.1790 C   0  0  0  0  0  0  0  0  0  0  0  0
   56.4130   26.4750   46.4890 C   0  0  0  0  0  0  0  0  0  0  0  0
   55.1540   26.6480   45.8980 O   0  0  0  0  0  0  0  0  0  0  0  0
   56.4140   29.2500   44.5150 C   0  0  0  0  0  0  0  0  0  0  0  0
   57.1560   30.5490   44.7620 C   0  0  0  0  0  0  0  0  0  0  0  0
   57.8070   30.7770   45.9850 C   0  0  0  0  0  0  0  0  0  0  0  0
   58.4960   31.9720   46.2070 C   0  0  0  0  0  0  0  0  0  0  0  0
   58.5450   32.9580   45.2100 C   0  0  0  0  0  0  0  0  0  0  0  0
   59.2470   34.2710   45.4660 C   0  0  0  0  0  0  0  0  0  0  0  0
   59.4520   34.5100   46.9040 N   0  0  0  0  0  0  0  0  0  0  0  0
   60.7900   34.1530   47.3140 C   0  0  0  0  0  0  0  0  0  0  0  0
   61.7630   33.8130   46.3560 C   0  0  0  0  0  0  0  0  0  0  0  0
   63.0680   33.5070   46.7530 C   0  0  0  0  0  0  0  0  0  0  0  0
   63.4140   33.5380   48.1070 C   0  0  0  0  0  0  0  0  0  0  0  0
   62.4560   33.8770   49.0650 C   0  0  0  0  0  0  0  0  0  0  0  0
   61.1500   34.1870   48.6730 C   0  0  0  0  0  0  0  0  0  0  0  0
   57.8820   32.7390   43.9940 C   0  0  0  0  0  0  0  0  0  0  0  0
   57.1930   31.5430   43.7710 C   0  0  0  0  0  0  0  0  0  0  0  0
   59.3350   28.2294   44.9273 H   0  0  0  0  0  0  0  0  0  0  0  0
   58.7722   27.2770   43.5120 H   0  0  0  0  0  0  0  0  0  0  0  0
   58.6115   29.0661   43.5120 H   0  0  0  0  0  0  0  0  0  0  0  0
   58.3529   27.4220   46.4311 H   0  0  0  0  0  0  0  0  0  0  0  0
   56.9702   28.5344   46.7768 H   0  0  0  0  0  0  0  0  0  0  0  0
   56.8783   25.5607   46.0920 H   0  0  0  0  0  0  0  0  0  0  0  0
   56.2895   26.3906   47.5788 H   0  0  0  0  0  0  0  0  0  0  0  0
   55.1490   27.5560   45.4990 H   0  0  0  0  0  0  0  0  0  0  0  0
   56.0696   29.2398   43.4703 H   0  0  0  0  0  0  0  0  0  0  0  0
   55.5802   29.2143   45.2316 H   0  0  0  0  0  0  0  0  0  0  0  0
   57.7743   30.0102   46.7730 H   0  0  0  0  0  0  0  0  0  0  0  0
   59.0028   32.1407   47.1686 H   0  0  0  0  0  0  0  0  0  0  0  0
   60.2260   34.2550   44.9646 H   0  0  0  0  0  0  0  0  0  0  0  0
   58.6140   35.0797   45.0718 H   0  0  0  0  0  0  0  0  0  0  0  0
   58.7420   33.9770   47.4600 H   0  0  0  0  0  0  0  0  0  0  0  0
   59.2960   35.5270   47.1000 H   0  0  0  0  0  0  0  0  0  0  0  0
   61.4954   33.7879   45.2893 H   0  0  0  0  0  0  0  0  0  0  0  0
   63.8236   33.2415   45.9989 H   0  0  0  0  0  0  0  0  0  0  0  0
   64.4409   33.2954   48.4179 H   0  0  0  0  0  0  0  0  0  0  0  0
   62.7294   33.9002   50.1302 H   0  0  0  0  0  0  0  0  0  0  0  0
   60.4008   34.4587   49.4312 H   0  0  0  0  0  0  0  0  0  0  0  0
   57.9041   33.5120   43.2117 H   0  0  0  0  0  0  0  0  0  0  0  0
   56.6768   31.3798   42.8134 H   0  0  0  0  0  0  0  0  0  0  0  0
  1  2  1  0
  2  3  1  0
  3  4  1  0
  4  5  1  0
  2  6  1  0
  6  7  1  0
  7  8  2  0
  8  9  1  0
  9 10  2  0
 10 11  1  0
 11 12  1  0
 12 13  1  0
 13 14  2  0
 14 15  1  0
 15 16  2  0
 16 17  1  0
 17 18  2  0
 10 19  1  0
 19 20  2  0
 20  7  1  0
 18 13  1  0
  1 21  1  0
  1 22  1  0
  1 23  1  0
  3 24  1  0
  3 25  1  0
  4 26  1  0
  4 27  1  0
  5 28  1  0
  6 29  1  0
  6 30  1  0
  8 31  1  0
  9 32  1  0
 11 33  1  0
 11 34  1  0
 12 35  1  0
 12 36  1  0
 14 37  1  0
 15 38  1  0
 16 39  1  0
 17 40  1  0
 18 41  1  0
 19 42  1  0
 20 43  1  0
M  CHG  1  12   1
M  END
>  <UniqueID>  (31) 
29

>  <SMILES>  (31) 
CN(CCO)Cc1ccc(C[NH2+]c2ccccc2)cc1

>  <Energy>  (31) 
44.01347739512848

>  <Genealogy>  (31) 
CN(CCO)Cc1ccc(C[NH2+]c2ccccc2)cc1 (protonated)
CN(CCO)Cc1ccc(C[NH2+]c2ccccc2)cc1 (3D coordinates assigned)
CN(CCO)Cc1ccc(C[NH2+]c2ccccc2)cc1 (optimized conformer: 44.01347739512848 kcal/mol)

>  <smiles>  (31) 
CN(CCO)Cc1ccc(CNc2ccccc2)cc1

>  <score_type>  (31) 
oracle

>  <origin>  (31) 
adg

>  <m_score__min__energy>  (31) 
-6.1799999999999997

>  <m_primary>  (31) 
energy

$$$$
32:0
     RDKit          3D

 29 29  0  0  0  0  0  0  0  0999 V2000
   55.3260   29.7250   43.7030 C   0  0  0  0  0  0  0  0  0  0  0  0
   55.5230   28.9640   44.8880 O   0  0  0  0  0  0  0  0  0  0  0  0
   56.7920   28.6970   45.4090 C   0  0  0  0  0  0  0  0  0  0  0  0
   57.0500   27.5800   45.9370 O   0  0  0  0  0  0  0  0  0  0  0  0
   57.8420   29.7610   45.3820 C   0  0  0  0  0  0  0  0  0  0  0  0
   57.2380   31.0520   45.4240 O   0  0  0  0  0  0  0  0  0  0  0  0
   57.9310   32.2680   45.3400 C   0  0  0  0  0  0  0  0  0  0  0  0
   58.2950   32.8850   44.1590 C   0  0  0  0  0  0  0  0  0  0  0  0
   58.0870   32.3480   42.7800 C   0  0  0  0  0  0  0  0  0  0  0  0
   58.9720   34.0120   44.4460 N   0  0  0  0  0  0  0  0  0  0  0  0
   59.0270   34.1530   45.7620 N   0  0  0  0  0  0  0  0  0  0  0  0
   59.6540   35.2900   46.4310 C   0  0  0  0  0  0  0  0  0  0  0  0
   58.3860   33.1140   46.3500 C   0  0  0  0  0  0  0  0  0  0  0  0
   58.1510   32.9790   47.8280 C   0  0  0  0  0  0  0  0  0  0  0  0
   55.0586   30.7579   43.9707 H   0  0  0  0  0  0  0  0  0  0  0  0
   56.2530   29.7280   43.1108 H   0  0  0  0  0  0  0  0  0  0  0  0
   54.5140   29.2778   43.1108 H   0  0  0  0  0  0  0  0  0  0  0  0
   58.5031   29.6409   46.2530 H   0  0  0  0  0  0  0  0  0  0  0  0
   58.4232   29.6674   44.4528 H   0  0  0  0  0  0  0  0  0  0  0  0
   57.6903   31.3238   42.8413 H   0  0  0  0  0  0  0  0  0  0  0  0
   57.3713   32.9868   42.2418 H   0  0  0  0  0  0  0  0  0  0  0  0
   59.0463   32.3380   42.2418 H   0  0  0  0  0  0  0  0  0  0  0  0
   59.3900   34.6750   43.7540 H   0  0  0  0  0  0  0  0  0  0  0  0
   59.5820   35.1595   47.5209 H   0  0  0  0  0  0  0  0  0  0  0  0
   60.7126   35.3497   46.1380 H   0  0  0  0  0  0  0  0  0  0  0  0
   59.1396   36.2171   46.1380 H   0  0  0  0  0  0  0  0  0  0  0  0
   58.9782   33.4542   48.3757 H   0  0  0  0  0  0  0  0  0  0  0  0
   57.2040   33.4708   48.0951 H   0  0  0  0  0  0  0  0  0  0  0  0
   58.0988   31.9132   48.0951 H   0  0  0  0  0  0  0  0  0  0  0  0
  1  2  1  0
  2  3  1  0
  3  4  2  0
  3  5  1  0
  5  6  1  0
  6  7  1  0
  7  8  1  0
  8  9  1  0
  8 10  2  0
 10 11  1  0
 11 12  1  0
 11 13  1  0
 13 14  1  0
 13  7  2  0
  1 15  1  0
  1 16  1  0
  1 17  1  0
  5 18  1  0
  5 19  1  0
  9 20  1  0
  9 21  1  0
  9 22  1  0
 10 23  1  0
 12 24  1  0
 12 25  1  0
 12 26  1  0
 14 27  1  0
 14 28  1  0
 14 29  1  0
M  CHG  1  10   1
M  END
>  <UniqueID>  (32) 
30

>  <SMILES>  (32) 
COC(=O)COc1c(C)[nH+]n(C)c1C

>  <Energy>  (32) 
55.579564643503666

>  <Genealogy>  (32) 
COC(=O)COc1c(C)[nH+]n(C)c1C (protonated)
COC(=O)COc1c(C)[nH+]n(C)c1C (3D coordinates assigned)
COC(=O)COc1c(C)[nH+]n(C)c1C (optimized conformer: 55.579564643503666 kcal/mol)

>  <smiles>  (32) 
COC(=O)COc1c(C)nn(C)c1C

>  <score_type>  (32) 
oracle

>  <origin>  (32) 
adg

>  <m_score__min__energy>  (32) 
-3.7200000000000002

>  <m_primary>  (32) 
energy

$$$$
33:0
     RDKit          3D

 50 52  0  0  0  0  0  0  0  0999 V2000
   56.2690   32.2607   43.7182 H   0  0  0  0  0  0  0  0  0  0  0  0
   56.7160   31.3870   44.2150 C   0  0  0  0  0  0  0  0  0  0  0  0
   56.2460   30.1060   43.9280 C   0  0  0  0  0  0  0  0  0  0  0  0
   55.4326   29.9698   43.2001 H   0  0  0  0  0  0  0  0  0  0  0  0
   56.8060   28.9960   44.5630 C   0  0  0  0  0  0  0  0  0  0  0  0
   56.4314   27.9886   44.3288 H   0  0  0  0  0  0  0  0  0  0  0  0
   57.8430   29.1520   45.4980 C   0  0  0  0  0  0  0  0  0  0  0  0
   58.4680   27.6960   46.2970 S   0  0  0  0  0  0  0  0  0  0  0  0
   59.9650   27.6200   46.1820 O   0  0  0  0  0  0  0  0  0  0  0  0
   58.1210   27.7980   47.7550 O   0  0  0  0  0  0  0  0  0  0  0  0
   57.7820   26.2230   45.6840 N   0  0  0  0  0  0  0  0  0  0  0  0
   56.5550   25.7840   45.7200 C   0  0  0  0  0  0  0  0  0  0  0  0
   55.5550   26.5820   46.0100 O   0  0  0  0  0  0  0  0  0  0  0  0
   54.4160   25.9580   45.9530 N   0  0  0  0  0  0  0  0  0  0  0  0
   54.6810   24.6840   45.6100 C   0  0  0  0  0  0  0  0  0  0  0  0
   53.6220   23.6490   45.4110 C   0  0  0  0  0  0  0  0  0  0  0  0
   53.2633   23.2985   46.3900 H   0  0  0  0  0  0  0  0  0  0  0  0
   52.7837   24.0856   44.8482 H   0  0  0  0  0  0  0  0  0  0  0  0
   54.0393   22.8010   44.8482 H   0  0  0  0  0  0  0  0  0  0  0  0
   56.0490   24.5070   45.4630 C   0  0  0  0  0  0  0  0  0  0  0  0
   56.7200   23.2470   45.0040 C   0  0  0  0  0  0  0  0  0  0  0  0
   57.0333   22.6587   45.8791 H   0  0  0  0  0  0  0  0  0  0  0  0
   56.0167   22.6568   44.3981 H   0  0  0  0  0  0  0  0  0  0  0  0
   57.6022   23.5012   44.3981 H   0  0  0  0  0  0  0  0  0  0  0  0
   58.3360   30.4540   45.7710 C   0  0  0  0  0  0  0  0  0  0  0  0
   59.4260   30.7000   46.7360 C   0  0  0  0  0  0  0  0  0  0  0  0
   59.1470   31.1950   48.0180 C   0  0  0  0  0  0  0  0  0  0  0  0
   58.1043   31.3595   48.3274 H   0  0  0  0  0  0  0  0  0  0  0  0
   60.1900   31.4800   48.9040 C   0  0  0  0  0  0  0  0  0  0  0  0
   59.9653   31.8814   49.9032 H   0  0  0  0  0  0  0  0  0  0  0  0
   61.5240   31.2560   48.5240 C   0  0  0  0  0  0  0  0  0  0  0  0
   62.6560   31.6310   49.4460 C   0  0  0  0  0  0  0  0  0  0  0  0
   62.2705   32.3009   50.2287 H   0  0  0  0  0  0  0  0  0  0  0  0
   63.0625   30.7063   49.8816 H   0  0  0  0  0  0  0  0  0  0  0  0
   63.7970   32.3480   48.6920 C   0  0  0  0  0  0  0  0  0  0  0  0
   64.2280   31.6306   47.9782 H   0  0  0  0  0  0  0  0  0  0  0  0
   64.8800   32.7990   49.6780 C   0  0  0  0  0  0  0  0  0  0  0  0
   64.5231   32.6504   50.7078 H   0  0  0  0  0  0  0  0  0  0  0  0
   65.7924   32.2060   49.5170 H   0  0  0  0  0  0  0  0  0  0  0  0
   65.1018   33.8643   49.5170 H   0  0  0  0  0  0  0  0  0  0  0  0
   63.2790   33.5540   47.8930 C   0  0  0  0  0  0  0  0  0  0  0  0
   62.9426   34.3373   48.5882 H   0  0  0  0  0  0  0  0  0  0  0  0
   64.0870   33.9485   47.2594 H   0  0  0  0  0  0  0  0  0  0  0  0
   62.4366   33.2396   47.2594 H   0  0  0  0  0  0  0  0  0  0  0  0
   61.7980   30.7260   47.2540 C   0  0  0  0  0  0  0  0  0  0  0  0
   62.8388   30.5349   46.9535 H   0  0  0  0  0  0  0  0  0  0  0  0
   60.7560   30.4400   46.3700 C   0  0  0  0  0  0  0  0  0  0  0  0
   60.9781   30.0091   45.3826 H   0  0  0  0  0  0  0  0  0  0  0  0
   57.7530   31.5610   45.1320 C   0  0  0  0  0  0  0  0  0  0  0  0
   58.1175   32.5742   45.3567 H   0  0  0  0  0  0  0  0  0  0  0  0
  1  2  1  0
  2  3  2  0
  3  4  1  0
  3  5  1  0
  5  6  1  0
  5  7  2  0
  7  8  1  0
  8  9  2  0
  8 10  2  0
  8 11  1  0
 11 12  2  0
 12 13  1  0
 13 14  1  0
 14 15  1  0
 15 16  1  0
 16 17  1  0
 16 18  1  0
 16 19  1  0
 15 20  2  0
 20 21  1  0
 21 22  1  0
 21 23  1  0
 21 24  1  0
  7 25  1  0
 25 26  1  0
 26 27  2  0
 27 28  1  0
 27 29  1  0
 29 30  1  0
 29 31  2  0
 31 32  1  0
 32 33  1  0
 32 34  1  0
 32 35  1  0
 35 36  1  0
 35 37  1  0
 37 38  1  0
 37 39  1  0
 37 40  1  0
 35 41  1  0
 41 42  1  0
 41 43  1  0
 41 44  1  0
 31 45  1  0
 45 46  1  0
 45 47  2  0
 47 48  1  0
 25 49  2  0
 49 50  1  0
 49  2  1  0
 20 12  1  0
 47 26  1  0
M  CHG  1  14  -1
M  END
>  <UniqueID>  (33) 
31

>  <SMILES>  (33) 
Cc1[n-]o/c(=N/S(=O)(=O)c2ccccc2-c2ccc(CC(C)C)cc2)c1C

>  <Energy>  (33) 
89.90174669717804

>  <Genealogy>  (33) 
Cc1[n-]oc(=NS(=O)(=O)c2ccccc2-c2ccc(CC(C)C)cc2)c1C (protonated)
Cc1[n-]o/c(=N/S(=O)(=O)c2ccccc2-c2ccc(CC(C)C)cc2)c1C (cis-trans isomerization)
Cc1[n-]o/c(=N/S(=O)(=O)c2ccccc2-c2ccc(CC(C)C)cc2)c1C (3D coordinates assigned)
Cc1[n-]o/c(=N/S(=O)(=O)c2ccccc2-c2ccc(CC(C)C)cc2)c1C (optimized conformer: 89.90174669717804 kcal/mol)

>  <smiles>  (33) 
Cc1[nH]oc(=NS(=O)(=O)c2ccccc2-c2ccc(CC(C)C)cc2)c1C

>  <score_type>  (33) 
oracle

>  <origin>  (33) 
adg

>  <m_score__min__energy>  (33) 
-12.02

>  <m_primary>  (33) 
energy

$$$$
34:0
     RDKit          3D

 49 52  0  0  0  0  0  0  0  0999 V2000
   57.3600   24.7140   44.5700 C   0  0  0  0  0  0  0  0  0  0  0  0
   56.2880   24.4230   45.6080 C   0  0  0  0  0  0  0  0  0  0  0  0
   56.2520   25.4800   46.5630 O   0  0  0  0  0  0  0  0  0  0  0  0
   57.4000   25.9840   47.1770 C   0  0  0  0  0  0  0  0  0  0  0  0
   58.1410   25.2200   47.8540 O   0  0  0  0  0  0  0  0  0  0  0  0
   57.7690   27.4050   47.0320 C   0  0  0  0  0  0  0  0  0  0  0  0
   58.8740   28.1750   48.0490 S   0  0  0  0  0  0  0  0  0  0  0  0
   58.8660   29.6240   47.2120 C   0  0  0  0  0  0  0  0  0  0  0  0
   59.6060   30.7170   47.5130 N   0  0  0  0  0  0  0  0  0  0  0  0
   59.5160   31.8400   46.7450 C   0  0  0  0  0  0  0  0  0  0  0  0
   60.2960   32.9930   47.0990 N   0  0  0  0  0  0  0  0  0  0  0  0
   59.7630   34.0090   48.0080 C   0  0  0  0  0  0  0  0  0  0  0  0
   60.7330   34.1840   49.1810 C   0  0  0  0  0  0  0  0  0  0  0  0
   62.0450   34.4460   48.7130 O   0  0  0  0  0  0  0  0  0  0  0  0
   62.5380   33.3270   47.9960 C   0  0  0  0  0  0  0  0  0  0  0  0
   61.7090   33.0840   46.7320 C   0  0  0  0  0  0  0  0  0  0  0  0
   58.6280   31.8690   45.6410 C   0  0  0  0  0  0  0  0  0  0  0  0
   57.8010   30.7510   45.3720 C   0  0  0  0  0  0  0  0  0  0  0  0
   57.9880   29.5750   46.1390 C   0  0  0  0  0  0  0  0  0  0  0  0
   57.3880   28.2960   46.0100 C   0  0  0  0  0  0  0  0  0  0  0  0
   56.6340   27.8770   44.8710 N   0  0  0  0  0  0  0  0  0  0  0  0
   56.6600   30.9860   44.4080 C   0  0  0  0  0  0  0  0  0  0  0  0
   57.1640   31.6090   43.0950 C   0  0  0  0  0  0  0  0  0  0  0  0
   58.2920   32.6540   43.2850 C   0  0  0  0  0  0  0  0  0  0  0  0
   58.5010   33.0830   44.7470 C   0  0  0  0  0  0  0  0  0  0  0  0
   58.3019   24.9697   45.0774 H   0  0  0  0  0  0  0  0  0  0  0  0
   57.5122   23.8247   43.9408 H   0  0  0  0  0  0  0  0  0  0  0  0
   57.0416   25.5582   43.9408 H   0  0  0  0  0  0  0  0  0  0  0  0
   55.3094   24.3435   45.1120 H   0  0  0  0  0  0  0  0  0  0  0  0
   56.5188   23.4760   46.1178 H   0  0  0  0  0  0  0  0  0  0  0  0
   60.2430   30.6970   48.3420 H   0  0  0  0  0  0  0  0  0  0  0  0
   59.6554   34.9637   47.4723 H   0  0  0  0  0  0  0  0  0  0  0  0
   58.7781   33.6936   48.3829 H   0  0  0  0  0  0  0  0  0  0  0  0
   60.3974   35.0260   49.8043 H   0  0  0  0  0  0  0  0  0  0  0  0
   60.7470   33.2546   49.7693 H   0  0  0  0  0  0  0  0  0  0  0  0
   63.5840   33.5134   47.7111 H   0  0  0  0  0  0  0  0  0  0  0  0
   62.4695   32.4375   48.6394 H   0  0  0  0  0  0  0  0  0  0  0  0
   61.8546   33.9179   46.0296 H   0  0  0  0  0  0  0  0  0  0  0  0
   62.0292   32.1475   46.2521 H   0  0  0  0  0  0  0  0  0  0  0  0
   56.5810   28.4880   44.0260 H   0  0  0  0  0  0  0  0  0  0  0  0
   56.2000   26.9310   44.8280 H   0  0  0  0  0  0  0  0  0  0  0  0
   56.1734   30.0248   44.1860 H   0  0  0  0  0  0  0  0  0  0  0  0
   55.9467   31.6819   44.8738 H   0  0  0  0  0  0  0  0  0  0  0  0
   57.5454   30.8013   42.4530 H   0  0  0  0  0  0  0  0  0  0  0  0
   56.3111   32.1396   42.6468 H   0  0  0  0  0  0  0  0  0  0  0  0
   59.2322   32.2209   42.9129 H   0  0  0  0  0  0  0  0  0  0  0  0
   57.9927   33.5534   42.7269 H   0  0  0  0  0  0  0  0  0  0  0  0
   59.4191   33.6845   44.8203 H   0  0  0  0  0  0  0  0  0  0  0  0
   57.6332   33.6757   45.0720 H   0  0  0  0  0  0  0  0  0  0  0  0
  1  2  1  0
  2  3  1  0
  3  4  1  0
  4  5  2  0
  4  6  1  0
  6  7  1  0
  7  8  1  0
  8  9  2  0
  9 10  1  0
 10 11  1  0
 11 12  1  0
 12 13  1  0
 13 14  1  0
 14 15  1  0
 15 16  1  0
 10 17  2  0
 17 18  1  0
 18 19  2  0
 19 20  1  0
 20 21  1  0
 18 22  1  0
 22 23  1  0
 23 24  1  0
 24 25  1  0
 20  6  2  0
 19  8  1  0
 16 11  1  0
 25 17  1  0
  1 26  1  0
  1 27  1  0
  1 28  1  0
  2 29  1  0
  2 30  1  0
  9 31  1  0
 12 32  1  0
 12 33  1  0
 13 34  1  0
 13 35  1  0
 15 36  1  0
 15 37  1  0
 16 38  1  0
 16 39  1  0
 21 40  1  0
 21 41  1  0
 22 42  1  0
 22 43  1  0
 23 44  1  0
 23 45  1  0
 24 46  1  0
 24 47  1  0
 25 48  1  0
 25 49  1  0
M  CHG  1   9   1
M  END
>  <UniqueID>  (34) 
32

>  <SMILES>  (34) 
CCOC(=O)c1sc2[nH+]c(N3CCOCC3)c3c(c2c1N)CCCC3

>  <Energy>  (34) 
100.86173257404661

>  <Genealogy>  (34) 
CCOC(=O)c1sc2[nH+]c(N3CCOCC3)c3c(c2c1N)CCCC3 (protonated)
CCOC(=O)c1sc2[nH+]c(N3CCOCC3)c3c(c2c1N)CCCC3 (3D coordinates assigned)
CCOC(=O)c1sc2[nH+]c(N3CCOCC3)c3c(c2c1N)CCCC3 (nonaromatic ring conformer: 100.86173257404661 kcal/mol)

>  <smiles>  (34) 
CCOC(=O)c1sc2nc(N3CCOCC3)c3c(c2c1N)CCCC3

>  <score_type>  (34) 
oracle

>  <origin>  (34) 
adg

>  <m_score__min__energy>  (34) 
-6.4199999999999999

>  <m_primary>  (34) 
energy

$$$$
35:0
     RDKit          3D

 55 56  0  0  0  0  0  0  0  0999 V2000
   63.0880   33.8530   46.3760 C   0  0  0  0  0  0  0  0  0  0  0  0
   63.9140   33.4780   47.6090 C   0  0  0  0  0  0  0  0  0  0  0  0
   63.2970   32.3890   48.4120 N   0  0  0  0  0  0  0  0  0  0  0  0
   64.1580   31.9640   49.5550 C   0  0  0  0  0  0  0  0  0  0  0  0
   65.2780   32.9690   49.8490 C   0  0  0  0  0  0  0  0  0  0  0  0
   61.9210   32.7580   48.8520 C   0  0  0  0  0  0  0  0  0  0  0  0
   60.9260   31.6010   48.8490 C   0  0  0  0  0  0  0  0  0  0  0  0
   59.9420   31.5290   49.8450 C   0  0  0  0  0  0  0  0  0  0  0  0
   59.0550   30.4590   49.8790 C   0  0  0  0  0  0  0  0  0  0  0  0
   59.1440   29.4630   48.9110 C   0  0  0  0  0  0  0  0  0  0  0  0
   60.0670   29.5460   47.9050 N   0  0  0  0  0  0  0  0  0  0  0  0
   60.1580   28.4340   46.9450 C   0  0  0  0  0  0  0  0  0  0  0  0
   58.7850   27.8690   46.6860 C   0  0  0  0  0  0  0  0  0  0  0  0
   58.4640   26.5740   47.1050 C   0  0  0  0  0  0  0  0  0  0  0  0
   57.2070   26.0180   46.8110 C   0  0  0  0  0  0  0  0  0  0  0  0
   56.8550   24.7240   47.2290 O   0  0  0  0  0  0  0  0  0  0  0  0
   57.3350   23.5220   46.6340 C   0  0  0  0  0  0  0  0  0  0  0  0
   56.2650   26.7570   46.0760 C   0  0  0  0  0  0  0  0  0  0  0  0
   55.0300   26.1300   45.8220 O   0  0  0  0  0  0  0  0  0  0  0  0
   54.8350   24.8340   45.2650 C   0  0  0  0  0  0  0  0  0  0  0  0
   56.5910   28.0650   45.6300 C   0  0  0  0  0  0  0  0  0  0  0  0
   55.6640   28.8010   44.8740 O   0  0  0  0  0  0  0  0  0  0  0  0
   56.0020   29.7810   43.8950 C   0  0  0  0  0  0  0  0  0  0  0  0
   57.8500   28.6050   45.9490 C   0  0  0  0  0  0  0  0  0  0  0  0
   60.9370   30.6080   47.8440 C   0  0  0  0  0  0  0  0  0  0  0  0
   61.7410   30.7090   46.8760 O   0  0  0  0  0  0  0  0  0  0  0  0
   62.1295   34.2882   46.6952 H   0  0  0  0  0  0  0  0  0  0  0  0
   63.6418   34.5880   45.7734 H   0  0  0  0  0  0  0  0  0  0  0  0
   62.8992   32.9524   45.7734 H   0  0  0  0  0  0  0  0  0  0  0  0
   64.9094   33.1480   47.2770 H   0  0  0  0  0  0  0  0  0  0  0  0
   63.9701   34.3693   48.2512 H   0  0  0  0  0  0  0  0  0  0  0  0
   63.1590   31.5750   47.7650 H   0  0  0  0  0  0  0  0  0  0  0  0
   63.5295   31.8631   50.4521 H   0  0  0  0  0  0  0  0  0  0  0  0
   64.6287   31.0078   49.2827 H   0  0  0  0  0  0  0  0  0  0  0  0
   65.3978   33.0765   50.9372 H   0  0  0  0  0  0  0  0  0  0  0  0
   66.2197   32.6073   49.4104 H   0  0  0  0  0  0  0  0  0  0  0  0
   65.0200   33.9442   49.4104 H   0  0  0  0  0  0  0  0  0  0  0  0
   61.9824   33.1561   49.8756 H   0  0  0  0  0  0  0  0  0  0  0  0
   61.5469   33.4953   48.1265 H   0  0  0  0  0  0  0  0  0  0  0  0
   59.8714   32.3229   50.6032 H   0  0  0  0  0  0  0  0  0  0  0  0
   58.2882   30.4000   50.6655 H   0  0  0  0  0  0  0  0  0  0  0  0
   58.4643   28.5992   48.9555 H   0  0  0  0  0  0  0  0  0  0  0  0
   60.5859   28.8012   46.0005 H   0  0  0  0  0  0  0  0  0  0  0  0
   60.8021   27.6459   47.3623 H   0  0  0  0  0  0  0  0  0  0  0  0
   59.2018   25.9852   47.6697 H   0  0  0  0  0  0  0  0  0  0  0  0
   57.6192   22.8103   47.4231 H   0  0  0  0  0  0  0  0  0  0  0  0
   56.5441   23.0807   46.0097 H   0  0  0  0  0  0  0  0  0  0  0  0
   58.2123   23.7468   46.0097 H   0  0  0  0  0  0  0  0  0  0  0  0
   54.7244   24.0992   46.0761 H   0  0  0  0  0  0  0  0  0  0  0  0
   53.9268   24.8345   44.6443 H   0  0  0  0  0  0  0  0  0  0  0  0
   55.7031   24.5672   44.6443 H   0  0  0  0  0  0  0  0  0  0  0  0
   56.3211   30.7062   44.3972 H   0  0  0  0  0  0  0  0  0  0  0  0
   56.8219   29.4036   43.2662 H   0  0  0  0  0  0  0  0  0  0  0  0
   55.1238   29.9893   43.2662 H   0  0  0  0  0  0  0  0  0  0  0  0
   58.1037   29.6216   45.6140 H   0  0  0  0  0  0  0  0  0  0  0  0
  1  2  1  0
  2  3  1  0
  3  4  1  0
  4  5  1  0
  3  6  1  0
  6  7  1  0
  7  8  2  0
  8  9  1  0
  9 10  2  0
 10 11  1  0
 11 12  1  0
 12 13  1  0
 13 14  2  0
 14 15  1  0
 15 16  1  0
 16 17  1  0
 15 18  2  0
 18 19  1  0
 19 20  1  0
 18 21  1  0
 21 22  1  0
 22 23  1  0
 21 24  2  0
 11 25  1  0
 25 26  2  0
 25  7  1  0
 24 13  1  0
  1 27  1  0
  1 28  1  0
  1 29  1  0
  2 30  1  0
  2 31  1  0
  3 32  1  0
  4 33  1  0
  4 34  1  0
  5 35  1  0
  5 36  1  0
  5 37  1  0
  6 38  1  0
  6 39  1  0
  8 40  1  0
  9 41  1  0
 10 42  1  0
 12 43  1  0
 12 44  1  0
 14 45  1  0
 17 46  1  0
 17 47  1  0
 17 48  1  0
 20 49  1  0
 20 50  1  0
 20 51  1  0
 23 52  1  0
 23 53  1  0
 23 54  1  0
 24 55  1  0
M  CHG  1   3   1
M  END
>  <UniqueID>  (35) 
33

>  <SMILES>  (35) 
CC[NH+](CC)Cc1cccn(Cc2cc(OC)c(OC)c(OC)c2)c1=O

>  <Energy>  (35) 
62.50096921162278

>  <Genealogy>  (35) 
CC[NH+](CC)Cc1cccn(Cc2cc(OC)c(OC)c(OC)c2)c1=O (protonated)
CC[NH+](CC)Cc1cccn(Cc2cc(OC)c(OC)c(OC)c2)c1=O (3D coordinates assigned)
CC[NH+](CC)Cc1cccn(Cc2cc(OC)c(OC)c(OC)c2)c1=O (optimized conformer: 62.50096921162278 kcal/mol)

>  <smiles>  (35) 
CCN(CC)Cc1cccn(Cc2cc(OC)c(OC)c(OC)c2)c1=O

>  <score_type>  (35) 
oracle

>  <origin>  (35) 
adg

>  <m_score__min__energy>  (35) 
-5.4800000000000004

>  <m_primary>  (35) 
energy

$$$$
36:0
     RDKit          3D

 21 21  0  0  0  0  0  0  0  0999 V2000
   61.9680   33.1600   46.7530 C   0  0  0  0  0  0  0  0  0  0  0  0
   60.7130   32.4510   47.2480 C   0  0  0  0  0  0  0  0  0  0  0  0
   59.5940   32.6930   46.3310 N   0  0  0  0  0  0  0  0  0  0  0  0
   58.9230   31.6830   45.7090 C   0  0  0  0  0  0  0  0  0  0  0  0
   57.8600   32.1000   44.9120 C   0  0  0  0  0  0  0  0  0  0  0  0
   56.9760   31.2260   44.1330 C   0  0  0  0  0  0  0  0  0  0  0  0
   56.1340   30.4980   44.7270 O   0  0  0  0  0  0  0  0  0  0  0  0
   57.0730   31.2080   42.7380 O   0  0  0  0  0  0  0  0  0  0  0  0
   57.7710   32.2070   42.0060 C   0  0  0  0  0  0  0  0  0  0  0  0
   57.7490   33.7780   45.0010 S   0  0  0  0  0  0  0  0  0  0  0  0
   59.0590   33.9100   46.0460 C   0  0  0  0  0  0  0  0  0  0  0  0
   59.5920   35.3390   46.6480 S   0  0  0  0  0  0  0  0  0  0  0  0
   62.5632   33.4963   47.6148 H   0  0  0  0  0  0  0  0  0  0  0  0
   62.5651   32.4658   46.1435 H   0  0  0  0  0  0  0  0  0  0  0  0
   61.6815   34.0297   46.1435 H   0  0  0  0  0  0  0  0  0  0  0  0
   60.9066   31.3697   47.3063 H   0  0  0  0  0  0  0  0  0  0  0  0
   60.4508   32.8420   48.2422 H   0  0  0  0  0  0  0  0  0  0  0  0
   59.1986   30.6246   45.8269 H   0  0  0  0  0  0  0  0  0  0  0  0
   58.2569   32.9024   42.7063 H   0  0  0  0  0  0  0  0  0  0  0  0
   58.5343   31.7314   41.3727 H   0  0  0  0  0  0  0  0  0  0  0  0
   57.0619   32.7602   41.3727 H   0  0  0  0  0  0  0  0  0  0  0  0
  1  2  1  0
  2  3  1  0
  3  4  1  0
  4  5  2  0
  5  6  1  0
  6  7  2  0
  6  8  1  0
  8  9  1  0
  5 10  1  0
 10 11  1  0
 11 12  2  0
 11  3  1  0
  1 13  1  0
  1 14  1  0
  1 15  1  0
  2 16  1  0
  2 17  1  0
  4 18  1  0
  9 19  1  0
  9 20  1  0
  9 21  1  0
M  END
>  <UniqueID>  (36) 
34

>  <SMILES>  (36) 
CCn1cc(C(=O)OC)sc1=S

>  <Energy>  (36) 
43.80272434148786

>  <Genealogy>  (36) 
CCn1cc(C(=O)OC)sc1=S (3D coordinates assigned)
CCn1cc(C(=O)OC)sc1=S (optimized conformer: 43.80272434148786 kcal/mol)

>  <smiles>  (36) 
CCn1cc(C(=O)OC)sc1=S

>  <score_type>  (36) 
oracle

>  <origin>  (36) 
adg

>  <m_score__min__energy>  (36) 
-4.5899999999999999

>  <m_primary>  (36) 
energy

$$$$
37:0
     RDKit          3D

 32 34  0  0  0  0  0  0  0  0999 V2000
   60.2780   34.1960   49.2410 C   0  0  0  0  0  0  0  0  0  0  0  0
   61.5760   33.7890   48.6120 C   0  0  0  0  0  0  0  0  0  0  0  0
   62.5520   33.2670   49.4000 N   0  0  0  0  0  0  0  0  0  0  0  0
   63.7450   32.8540   48.8920 C   0  0  0  0  0  0  0  0  0  0  0  0
   64.7650   32.2940   49.8130 C   0  0  0  0  0  0  0  0  0  0  0  0
   64.5250   31.2700   50.7500 C   0  0  0  0  0  0  0  0  0  0  0  0
   65.6440   30.9140   51.4890 C   0  0  0  0  0  0  0  0  0  0  0  0
   66.9330   31.8600   50.9770 S   0  0  0  0  0  0  0  0  0  0  0  0
   66.0890   32.7320   49.8170 C   0  0  0  0  0  0  0  0  0  0  0  0
   63.9680   32.9490   47.5480 N   0  0  0  0  0  0  0  0  0  0  0  0
   63.0250   33.4740   46.7200 C   0  0  0  0  0  0  0  0  0  0  0  0
   61.8120   33.9330   47.2330 C   0  0  0  0  0  0  0  0  0  0  0  0
   60.8650   34.4840   46.3620 O   0  0  0  0  0  0  0  0  0  0  0  0
   59.6640   33.8580   45.9980 C   0  0  0  0  0  0  0  0  0  0  0  0
   58.7160   34.5930   45.2740 C   0  0  0  0  0  0  0  0  0  0  0  0
   57.5050   34.0070   44.8970 C   0  0  0  0  0  0  0  0  0  0  0  0
   57.2280   32.6820   45.2470 C   0  0  0  0  0  0  0  0  0  0  0  0
   58.1610   31.9440   45.9800 C   0  0  0  0  0  0  0  0  0  0  0  0
   57.8890   30.6610   46.3260 F   0  0  0  0  0  0  0  0  0  0  0  0
   59.3740   32.5280   46.3600 C   0  0  0  0  0  0  0  0  0  0  0  0
   60.3758   34.1653   50.3362 H   0  0  0  0  0  0  0  0  0  0  0  0
   60.0215   35.2177   48.9242 H   0  0  0  0  0  0  0  0  0  0  0  0
   59.4841   33.5037   48.9242 H   0  0  0  0  0  0  0  0  0  0  0  0
   63.5412   30.7963   50.8835 H   0  0  0  0  0  0  0  0  0  0  0  0
   65.6803   30.1449   52.2746 H   0  0  0  0  0  0  0  0  0  0  0  0
   66.5091   33.5160   49.1698 H   0  0  0  0  0  0  0  0  0  0  0  0
   64.8560   32.6120   47.1210 H   0  0  0  0  0  0  0  0  0  0  0  0
   63.2203   33.5369   45.6393 H   0  0  0  0  0  0  0  0  0  0  0  0
   58.9264   35.6376   45.0008 H   0  0  0  0  0  0  0  0  0  0  0  0
   56.7683   34.5890   44.3239 H   0  0  0  0  0  0  0  0  0  0  0  0
   56.2760   32.2207   44.9455 H   0  0  0  0  0  0  0  0  0  0  0  0
   60.1035   31.9469   46.9432 H   0  0  0  0  0  0  0  0  0  0  0  0
  1  2  1  0
  2  3  2  0
  3  4  1  0
  4  5  1  0
  5  6  1  0
  6  7  2  0
  7  8  1  0
  8  9  1  0
  4 10  2  0
 10 11  1  0
 11 12  2  0
 12 13  1  0
 13 14  1  0
 14 15  2  0
 15 16  1  0
 16 17  2  0
 17 18  1  0
 18 19  1  0
 18 20  2  0
 12  2  1  0
 20 14  1  0
  9  5  2  0
  1 21  1  0
  1 22  1  0
  1 23  1  0
  6 24  1  0
  7 25  1  0
  9 26  1  0
 10 27  1  0
 11 28  1  0
 15 29  1  0
 16 30  1  0
 17 31  1  0
 20 32  1  0
M  CHG  1  10   1
M  END
>  <UniqueID>  (37) 
35

>  <SMILES>  (37) 
Cc1nc(-c2ccsc2)[nH+]cc1Oc1cccc(F)c1

>  <Energy>  (37) 
69.77097596220364

>  <Genealogy>  (37) 
Cc1nc(-c2ccsc2)[nH+]cc1Oc1cccc(F)c1 (protonated)
Cc1nc(-c2ccsc2)[nH+]cc1Oc1cccc(F)c1 (3D coordinates assigned)
Cc1nc(-c2ccsc2)[nH+]cc1Oc1cccc(F)c1 (optimized conformer: 69.77097596220364 kcal/mol)

>  <smiles>  (37) 
Cc1nc(-c2ccsc2)ncc1Oc1cccc(F)c1

>  <score_type>  (37) 
oracle

>  <origin>  (37) 
adg

>  <m_score__min__energy>  (37) 
-5.4400000000000004

>  <m_primary>  (37) 
energy

$$$$
38:0
     RDKit          3D

 47 50  0  0  0  0  0  0  0  0999 V2000
   59.1740   34.9710   44.9500 C   0  0  0  0  0  0  0  0  0  0  0  0
   58.2260   34.2360   45.8920 C   0  0  0  0  0  0  0  0  0  0  0  0
   58.2130   32.7650   45.5880 C   0  0  0  0  0  0  0  0  0  0  0  0
   57.6330   32.2580   44.4730 N   0  0  0  0  0  0  0  0  0  0  0  0
   57.7920   30.9310   44.5880 C   0  0  0  0  0  0  0  0  0  0  0  0
   57.3970   29.9470   43.6970 C   0  0  0  0  0  0  0  0  0  0  0  0
   57.6970   28.6170   44.0350 C   0  0  0  0  0  0  0  0  0  0  0  0
   58.3470   28.3100   45.2110 N   0  0  0  0  0  0  0  0  0  0  0  0
   58.6670   26.9030   45.4980 C   0  0  0  0  0  0  0  0  0  0  0  0
   57.4300   26.0520   45.3720 C   0  0  0  0  0  0  0  0  0  0  0  0
   57.4300   24.9180   44.5460 C   0  0  0  0  0  0  0  0  0  0  0  0
   56.2890   24.1200   44.4590 C   0  0  0  0  0  0  0  0  0  0  0  0
   55.1590   24.4570   45.2060 C   0  0  0  0  0  0  0  0  0  0  0  0
   55.1750   25.5540   46.0080 N   0  0  0  0  0  0  0  0  0  0  0  0
   56.2740   26.3490   46.1080 C   0  0  0  0  0  0  0  0  0  0  0  0
   58.7340   29.3080   46.0830 C   0  0  0  0  0  0  0  0  0  0  0  0
   59.3390   29.0250   47.1510 O   0  0  0  0  0  0  0  0  0  0  0  0
   58.4410   30.6390   45.7510 C   0  0  0  0  0  0  0  0  0  0  0  0
   58.7100   31.7940   46.4070 N   0  0  0  0  0  0  0  0  0  0  0  0
   59.4300   31.9940   47.6730 C   0  0  0  0  0  0  0  0  0  0  0  0
   60.8880   32.2900   47.4240 C   0  0  0  0  0  0  0  0  0  0  0  0
   61.8750   31.3250   47.6980 C   0  0  0  0  0  0  0  0  0  0  0  0
   63.2240   31.6120   47.4820 C   0  0  0  0  0  0  0  0  0  0  0  0
   63.6030   32.8680   47.0020 C   0  0  0  0  0  0  0  0  0  0  0  0
   62.6340   33.8380   46.7400 C   0  0  0  0  0  0  0  0  0  0  0  0
   61.2830   33.5540   46.9520 C   0  0  0  0  0  0  0  0  0  0  0  0
   59.9081   35.5402   45.5392 H   0  0  0  0  0  0  0  0  0  0  0  0
   59.6991   34.2417   44.3157 H   0  0  0  0  0  0  0  0  0  0  0  0
   58.5985   35.6613   44.3157 H   0  0  0  0  0  0  0  0  0  0  0  0
   58.5580   34.3877   46.9297 H   0  0  0  0  0  0  0  0  0  0  0  0
   57.2102   34.6352   45.7550 H   0  0  0  0  0  0  0  0  0  0  0  0
   57.1680   32.7810   43.6990 H   0  0  0  0  0  0  0  0  0  0  0  0
   56.8705   30.1965   42.7639 H   0  0  0  0  0  0  0  0  0  0  0  0
   57.4082   27.8067   43.3494 H   0  0  0  0  0  0  0  0  0  0  0  0
   59.4253   26.5498   44.7837 H   0  0  0  0  0  0  0  0  0  0  0  0
   59.0533   26.8250   46.5250 H   0  0  0  0  0  0  0  0  0  0  0  0
   58.3288   24.6583   43.9675 H   0  0  0  0  0  0  0  0  0  0  0  0
   56.2799   23.2335   43.8078 H   0  0  0  0  0  0  0  0  0  0  0  0
   54.2545   23.8339   45.1454 H   0  0  0  0  0  0  0  0  0  0  0  0
   56.2559   27.2283   46.7687 H   0  0  0  0  0  0  0  0  0  0  0  0
   58.9786   32.8387   48.2141 H   0  0  0  0  0  0  0  0  0  0  0  0
   59.3560   31.0718   48.2681 H   0  0  0  0  0  0  0  0  0  0  0  0
   61.5816   30.3380   48.0850 H   0  0  0  0  0  0  0  0  0  0  0  0
   63.9887   30.8490   47.6898 H   0  0  0  0  0  0  0  0  0  0  0  0
   64.6660   33.0928   46.8303 H   0  0  0  0  0  0  0  0  0  0  0  0
   62.9349   34.8277   46.3660 H   0  0  0  0  0  0  0  0  0  0  0  0
   60.5238   34.3236   46.7485 H   0  0  0  0  0  0  0  0  0  0  0  0
  1  2  1  0
  2  3  1  0
  3  4  2  0
  4  5  1  0
  5  6  1  0
  6  7  2  0
  7  8  1  0
  8  9  1  0
  9 10  1  0
 10 11  2  0
 11 12  1  0
 12 13  2  0
 13 14  1  0
 14 15  2  0
  8 16  1  0
 16 17  2  0
 16 18  1  0
 18 19  1  0
 19 20  1  0
 20 21  1  0
 21 22  2  0
 22 23  1  0
 23 24  2  0
 24 25  1  0
 25 26  2  0
 19  3  1  0
 26 21  1  0
 18  5  2  0
 15 10  1  0
  1 27  1  0
  1 28  1  0
  1 29  1  0
  2 30  1  0
  2 31  1  0
  4 32  1  0
  6 33  1  0
  7 34  1  0
  9 35  1  0
  9 36  1  0
 11 37  1  0
 12 38  1  0
 13 39  1  0
 15 40  1  0
 20 41  1  0
 20 42  1  0
 22 43  1  0
 23 44  1  0
 24 45  1  0
 25 46  1  0
 26 47  1  0
M  CHG  1   4   1
M  END
>  <UniqueID>  (38) 
36

>  <SMILES>  (38) 
CCc1[nH+]c2ccn(Cc3cccnc3)c(=O)c2n1Cc1ccccc1

>  <Energy>  (38) 
89.64635179882006

>  <Genealogy>  (38) 
CCc1[nH+]c2ccn(Cc3cccnc3)c(=O)c2n1Cc1ccccc1 (protonated)
CCc1[nH+]c2ccn(Cc3cccnc3)c(=O)c2n1Cc1ccccc1 (3D coordinates assigned)
CCc1[nH+]c2ccn(Cc3cccnc3)c(=O)c2n1Cc1ccccc1 (optimized conformer: 89.64635179882006 kcal/mol)

>  <smiles>  (38) 
CCc1nc2ccn(Cc3cccnc3)c(=O)c2n1Cc1ccccc1

>  <score_type>  (38) 
oracle

>  <origin>  (38) 
adg

>  <m_score__min__energy>  (38) 
-6.8099999999999996

>  <m_primary>  (38) 
energy

$$$$
39:0
     RDKit          3D

 29 31  0  0  0  0  0  0  0  0999 V2000
   59.2740   34.9690   46.5110 C   0  0  0  0  0  0  0  0  0  0  0  0
   59.1430   34.8240   45.1280 C   0  0  0  0  0  0  0  0  0  0  0  0
   58.6130   33.6460   44.5920 C   0  0  0  0  0  0  0  0  0  0  0  0
   58.2090   32.6000   45.4410 C   0  0  0  0  0  0  0  0  0  0  0  0
   57.6470   31.3530   44.8840 C   0  0  0  0  0  0  0  0  0  0  0  0
   58.3630   30.2210   44.7040 N   0  0  0  0  0  0  0  0  0  0  0  0
   57.4580   29.3660   44.1940 C   0  0  0  0  0  0  0  0  0  0  0  0
   57.7780   27.9760   43.7470 C   0  0  0  0  0  0  0  0  0  0  0  0
   58.7070   27.3560   44.6870 N   0  0  0  0  0  0  0  0  0  0  0  0
   58.5690   26.1450   45.2590 C   0  0  0  0  0  0  0  0  0  0  0  0
   59.6120   25.9600   46.1460 C   0  0  0  0  0  0  0  0  0  0  0  0
   60.3560   27.1250   46.0730 C   0  0  0  0  0  0  0  0  0  0  0  0
   59.7780   27.9530   45.1850 N   0  0  0  0  0  0  0  0  0  0  0  0
   56.2440   29.9990   44.0630 C   0  0  0  0  0  0  0  0  0  0  0  0
   56.3930   31.2230   44.5040 O   0  0  0  0  0  0  0  0  0  0  0  0
   58.3440   32.7550   46.8320 C   0  0  0  0  0  0  0  0  0  0  0  0
   58.8750   33.9350   47.3620 C   0  0  0  0  0  0  0  0  0  0  0  0
   59.6910   35.8966   46.9300 H   0  0  0  0  0  0  0  0  0  0  0  0
   59.4575   35.6384   44.4587 H   0  0  0  0  0  0  0  0  0  0  0  0
   58.5117   33.5371   43.5021 H   0  0  0  0  0  0  0  0  0  0  0  0
   56.8520   27.3838   43.7044 H   0  0  0  0  0  0  0  0  0  0  0  0
   58.2407   28.0126   42.7497 H   0  0  0  0  0  0  0  0  0  0  0  0
   57.7627   25.4251   45.0548 H   0  0  0  0  0  0  0  0  0  0  0  0
   59.8085   25.0784   46.7738 H   0  0  0  0  0  0  0  0  0  0  0  0
   61.2698   27.3384   46.6470 H   0  0  0  0  0  0  0  0  0  0  0  0
   60.1010   28.9140   44.9340 H   0  0  0  0  0  0  0  0  0  0  0  0
   55.3192   29.5587   43.6620 H   0  0  0  0  0  0  0  0  0  0  0  0
   58.0305   31.9444   47.5063 H   0  0  0  0  0  0  0  0  0  0  0  0
   58.9788   34.0495   48.4511 H   0  0  0  0  0  0  0  0  0  0  0  0
  1  2  2  0
  2  3  1  0
  3  4  2  0
  4  5  1  0
  5  6  2  0
  6  7  1  0
  7  8  1  0
  8  9  1  0
  9 10  1  0
 10 11  2  0
 11 12  1  0
 12 13  2  0
  7 14  2  0
 14 15  1  0
  4 16  1  0
 16 17  2  0
 17  1  1  0
 15  5  1  0
 13  9  1  0
  1 18  1  0
  2 19  1  0
  3 20  1  0
  8 21  1  0
  8 22  1  0
 10 23  1  0
 11 24  1  0
 12 25  1  0
 13 26  1  0
 14 27  1  0
 16 28  1  0
 17 29  1  0
M  CHG  1  13   1
M  END
>  <UniqueID>  (39) 
37

>  <SMILES>  (39) 
c1ccc(-c2nc(Cn3ccc[nH+]3)co2)cc1

>  <Energy>  (39) 
88.61399834148732

>  <Genealogy>  (39) 
c1ccc(-c2nc(Cn3ccc[nH+]3)co2)cc1 (protonated)
c1ccc(-c2nc(Cn3ccc[nH+]3)co2)cc1 (3D coordinates assigned)
c1ccc(-c2nc(Cn3ccc[nH+]3)co2)cc1 (optimized conformer: 88.61399834148732 kcal/mol)

>  <smiles>  (39) 
c1ccc(-c2nc(Cn3cccn3)co2)cc1

>  <score_type>  (39) 
oracle

>  <origin>  (39) 
adg

>  <m_score__min__energy>  (39) 
-4.6299999999999999

>  <m_primary>  (39) 
energy

$$$$
40:0
     RDKit          3D

 39 41  0  0  1  0  0  0  0  0999 V2000
   57.0410   29.2580   44.0980 C   0  0  0  0  0  0  0  0  0  0  0  0
   56.9020   30.0920   45.2210 O   0  0  0  0  0  0  0  0  0  0  0  0
   57.4900   31.3480   45.1790 C   0  0  0  0  0  0  0  0  0  0  0  0
   57.6370   31.9830   43.9870 C   0  0  0  0  0  0  0  0  0  0  0  0
   58.2060   33.2270   43.8340 C   0  0  0  0  0  0  0  0  0  0  0  0
   58.6430   33.8380   44.9930 C   0  0  0  0  0  0  0  0  0  0  0  0
   59.2000   35.0520   44.8470 N   0  0  0  0  0  0  0  0  0  0  0  0
   59.6500   35.7140   45.9200 C   0  0  0  0  0  0  0  0  0  0  0  0
   59.5170   35.1110   47.1120 N   0  0  0  0  0  0  0  0  0  0  0  0
   58.9690   33.9030   47.3030 C   0  0  0  0  0  0  0  0  0  0  0  0
   58.8960   33.4460   48.4620 N   0  0  0  0  0  0  0  0  0  0  0  0
   59.9010   33.4050   49.4360 C   0  0  0  0  0  0  0  0  0  0  0  0
   61.1620   33.0780   48.6270 C   0  0  0  0  0  0  0  0  0  0  0  0
   62.1080   34.0820   48.5390 C   0  0  0  0  0  0  0  0  0  0  0  0
   63.2710   33.8420   47.8180 C   0  0  0  0  0  0  0  0  0  0  0  0
   63.3850   32.6010   47.2400 C   0  0  0  0  0  0  0  0  0  0  0  0
   62.4430   31.6080   47.3310 C   0  0  0  0  0  0  0  0  0  0  0  0
   61.2810   31.8500   48.0530 C   0  0  0  0  0  0  0  0  0  0  0  0
   60.3610   30.8480   48.1270 O   0  0  0  0  0  0  0  0  0  0  0  0
   60.3040   29.7410   47.2570 C   0  0  0  0  0  0  0  0  0  0  0  0
   58.5010   33.2060   46.2240 C   0  0  0  0  0  0  0  0  0  0  0  0
   57.9400   31.9810   46.3660 C   0  0  0  0  0  0  0  0  0  0  0  0
   57.2135   28.2232   44.4289 H   0  0  0  0  0  0  0  0  0  0  0  0
   56.1232   29.3014   43.4932 H   0  0  0  0  0  0  0  0  0  0  0  0
   57.8951   29.5967   43.4932 H   0  0  0  0  0  0  0  0  0  0  0  0
   57.2772   31.4686   43.0837 H   0  0  0  0  0  0  0  0  0  0  0  0
   58.3066   33.7054   42.8486 H   0  0  0  0  0  0  0  0  0  0  0  0
   60.1091   36.7095   45.8289 H   0  0  0  0  0  0  0  0  0  0  0  0
   59.8780   35.6490   47.9320 H   0  0  0  0  0  0  0  0  0  0  0  0
   59.9987   34.3764   49.9428 H   0  0  0  0  0  0  0  0  0  0  0  0
   59.6989   32.6742   50.2330 H   0  0  0  0  0  0  0  0  0  0  0  0
   61.9432   35.0523   49.0304 H   0  0  0  0  0  0  0  0  0  0  0  0
   64.0576   34.6041   47.7155 H   0  0  0  0  0  0  0  0  0  0  0  0
   64.2970   32.3883   46.6629 H   0  0  0  0  0  0  0  0  0  0  0  0
   62.6049   30.6367   46.8407 H   0  0  0  0  0  0  0  0  0  0  0  0
   60.2562   28.8135   47.8464 H   0  0  0  0  0  0  0  0  0  0  0  0
   59.4087   29.8189   46.6227 H   0  0  0  0  0  0  0  0  0  0  0  0
   61.2026   29.7265   46.6227 H   0  0  0  0  0  0  0  0  0  0  0  0
   57.8387   31.5020   47.3510 H   0  0  0  0  0  0  0  0  0  0  0  0
  1  2  1  0
  2  3  1  0
  3  4  2  0
  4  5  1  0
  5  6  2  0
  6  7  1  0
  7  8  2  0
  8  9  1  0
  9 10  1  0
 10 11  2  0
 11 12  1  0
 12 13  1  0
 13 14  2  0
 14 15  1  0
 15 16  2  0
 16 17  1  0
 17 18  2  0
 18 19  1  0
 19 20  1  0
 10 21  1  0
 21 22  2  0
 22  3  1  0
 21  6  1  0
 18 13  1  0
  1 23  1  0
  1 24  1  0
  1 25  1  0
  4 26  1  0
  5 27  1  0
  8 28  1  0
  9 29  1  0
 12 30  1  0
 12 31  1  0
 14 32  1  0
 15 33  1  0
 16 34  1  0
 17 35  1  0
 20 36  1  0
 20 37  1  0
 20 38  1  0
 22 39  1  0
M  END
>  <smiles>  (40) 
COc1ccc2nc[nH]c(=NCc3ccccc3OC)c2c1

>  <score_type>  (40) 
oracle

>  <origin>  (40) 
adg

>  <m_score__min__energy>  (40) 
-7.3799999999999999

>  <m_primary>  (40) 
energy

$$$$
41:0
     RDKit          3D

 39 42  0  0  0  0  0  0  0  0999 V2000
   59.9959   31.0636   48.6613 H   0  0  0  0  0  0  0  0  0  0  0  0
   59.5250   30.3340   47.9860 C   0  0  0  0  0  0  0  0  0  0  0  0
   58.5770   30.6280   47.0660 N   0  0  0  0  0  0  0  0  0  0  0  0
   58.3100   29.4380   46.4870 C   0  0  0  0  0  0  0  0  0  0  0  0
   57.3880   29.1690   45.4540 C   0  0  0  0  0  0  0  0  0  0  0  0
   56.6400   30.0780   44.8850 N   0  0  0  0  0  0  0  0  0  0  0  0
   56.9960   31.0380   43.8400 C   0  0  0  0  0  0  0  0  0  0  0  0
   57.8288   30.6312   43.2475 H   0  0  0  0  0  0  0  0  0  0  0  0
   56.1137   31.2049   43.2047 H   0  0  0  0  0  0  0  0  0  0  0  0
   57.4120   32.3530   44.4310 C   0  0  0  0  0  0  0  0  0  0  0  0
   58.5450   33.3980   43.7570 S   0  0  0  0  0  0  0  0  0  0  0  0
   58.5250   34.5210   45.0080 C   0  0  0  0  0  0  0  0  0  0  0  0
   59.1137   35.4493   45.0492 H   0  0  0  0  0  0  0  0  0  0  0  0
   57.6390   34.0770   45.9800 C   0  0  0  0  0  0  0  0  0  0  0  0
   57.4386   34.6302   46.9094 H   0  0  0  0  0  0  0  0  0  0  0  0
   57.0240   32.8580   45.6660 C   0  0  0  0  0  0  0  0  0  0  0  0
   56.3071   32.3522   46.3295 H   0  0  0  0  0  0  0  0  0  0  0  0
   57.2810   27.8710   45.0320 N   0  0  0  0  0  0  0  0  0  0  0  0
   56.5850   27.6490   44.2840 H   0  0  0  0  0  0  0  0  0  0  0  0
   58.0330   26.8550   45.5710 C   0  0  0  0  0  0  0  0  0  0  0  0
   57.8910   25.4640   45.0710 C   0  0  0  0  0  0  0  0  0  0  0  0
   58.5260   24.4010   45.7360 C   0  0  0  0  0  0  0  0  0  0  0  0
   59.1311   24.6020   46.6323 H   0  0  0  0  0  0  0  0  0  0  0  0
   58.3950   23.0910   45.2680 C   0  0  0  0  0  0  0  0  0  0  0  0
   58.9036   22.2689   45.7929 H   0  0  0  0  0  0  0  0  0  0  0  0
   57.6180   22.8190   44.1320 C   0  0  0  0  0  0  0  0  0  0  0  0
   57.5110   21.4180   43.6070 C   0  0  0  0  0  0  0  0  0  0  0  0
   57.4572   20.7136   44.4502 H   0  0  0  0  0  0  0  0  0  0  0  0
   56.6031   21.3249   42.9929 H   0  0  0  0  0  0  0  0  0  0  0  0
   58.3942   21.1881   42.9929 H   0  0  0  0  0  0  0  0  0  0  0  0
   56.9970   23.8780   43.4540 C   0  0  0  0  0  0  0  0  0  0  0  0
   56.4046   23.6760   42.5494 H   0  0  0  0  0  0  0  0  0  0  0  0
   57.1270   25.1900   43.9220 C   0  0  0  0  0  0  0  0  0  0  0  0
   56.6286   26.0126   43.3881 H   0  0  0  0  0  0  0  0  0  0  0  0
   58.9470   27.1540   46.5980 C   0  0  0  0  0  0  0  0  0  0  0  0
   59.5664   26.3676   47.0540 H   0  0  0  0  0  0  0  0  0  0  0  0
   59.0390   28.4400   47.0060 N   0  0  0  0  0  0  0  0  0  0  0  0
   59.8150   28.9830   47.9530 C   0  0  0  0  0  0  0  0  0  0  0  0
   60.5443   28.4544   48.5844 H   0  0  0  0  0  0  0  0  0  0  0  0
  1  2  1  0
  2  3  1  0
  3  4  2  0
  4  5  1  0
  5  6  2  0
  6  7  1  0
  7  8  1  0
  7  9  1  0
  7 10  1  0
 10 11  1  0
 11 12  1  0
 12 13  1  0
 12 14  2  0
 14 15  1  0
 14 16  1  0
 16 17  1  0
  5 18  1  0
 18 19  1  0
 18 20  1  0
 20 21  1  0
 21 22  2  0
 22 23  1  0
 22 24  1  0
 24 25  1  0
 24 26  2  0
 26 27  1  0
 27 28  1  0
 27 29  1  0
 27 30  1  0
 26 31  1  0
 31 32  1  0
 31 33  2  0
 33 34  1  0
 20 35  2  0
 35 36  1  0
 35 37  1  0
 37 38  1  0
 38 39  1  0
 38  2  2  0
 37  4  1  0
 16 10  2  0
 33 21  1  0
M  END
>  <UniqueID>  (41) 
38

>  <SMILES>  (41) 
Cc1ccc(-c2cn3ccnc3/c(=N\Cc3cccs3)[nH]2)cc1

>  <Energy>  (41) 
111.79535132785773

>  <Genealogy>  (41) 
Cc1ccc(-c2cn3ccnc3/c(=N\Cc3cccs3)[nH]2)cc1 (cis-trans isomerization)
Cc1ccc(-c2cn3ccnc3/c(=N\Cc3cccs3)[nH]2)cc1 (3D coordinates assigned)
Cc1ccc(-c2cn3ccnc3/c(=N\Cc3cccs3)[nH]2)cc1 (optimized conformer: 111.79535132785773 kcal/mol)

>  <smiles>  (41) 
Cc1ccc(-c2cn3ccnc3c(=NCc3cccs3)[nH]2)cc1

>  <score_type>  (41) 
oracle

>  <origin>  (41) 
adg

>  <m_score__min__energy>  (41) 
-7.4400000000000004

>  <m_primary>  (41) 
energy

$$$$
42:0
     RDKit          3D

 54 57  0  0  0  0  0  0  0  0999 V2000
   58.8920   29.9140   49.3680 C   0  0  0  0  0  0  0  0  0  0  0  0
   58.5280   28.8420   48.5230 O   0  0  0  0  0  0  0  0  0  0  0  0
   59.5570   27.8710   48.4730 C   0  0  0  0  0  0  0  0  0  0  0  0
   60.2890   27.9220   47.1270 C   0  0  0  0  0  0  0  0  0  0  0  0
   59.3830   28.4180   46.0710 N   0  0  0  0  0  0  0  0  0  0  0  0
   58.5980   27.5450   45.3350 C   0  0  0  0  0  0  0  0  0  0  0  0
   58.6510   25.7610   45.6060 S   0  0  0  0  0  0  0  0  0  0  0  0
   57.3120   25.5970   46.8540 C   0  0  0  0  0  0  0  0  0  0  0  0
   55.9350   25.9120   46.3700 C   0  0  0  0  0  0  0  0  0  0  0  0
   55.6380   27.0820   46.0010 O   0  0  0  0  0  0  0  0  0  0  0  0
   54.9900   24.8460   46.2230 N   0  0  0  0  0  0  0  0  0  0  0  0
   55.2840   23.4470   46.5020 C   0  0  0  0  0  0  0  0  0  0  0  0
   55.8980   22.7960   45.2910 C   0  0  0  0  0  0  0  0  0  0  0  0
   56.2870   21.4450   45.3260 C   0  0  0  0  0  0  0  0  0  0  0  0
   56.8300   20.8380   44.1870 C   0  0  0  0  0  0  0  0  0  0  0  0
   57.0020   21.5810   43.0150 C   0  0  0  0  0  0  0  0  0  0  0  0
   56.6390   22.9320   42.9800 C   0  0  0  0  0  0  0  0  0  0  0  0
   56.0920   23.5400   44.1150 C   0  0  0  0  0  0  0  0  0  0  0  0
   57.7230   28.0170   44.4050 N   0  0  0  0  0  0  0  0  0  0  0  0
   57.6040   29.3490   44.2220 C   0  0  0  0  0  0  0  0  0  0  0  0
   56.5880   30.1250   43.1420 S   0  0  0  0  0  0  0  0  0  0  0  0
   57.0350   31.6830   43.6270 C   0  0  0  0  0  0  0  0  0  0  0  0
   57.9740   31.5950   44.6580 C   0  0  0  0  0  0  0  0  0  0  0  0
   58.4470   32.7860   45.3930 C   0  0  0  0  0  0  0  0  0  0  0  0
   59.0660   33.8440   44.7030 C   0  0  0  0  0  0  0  0  0  0  0  0
   59.5450   34.9580   45.3990 C   0  0  0  0  0  0  0  0  0  0  0  0
   59.4140   35.0220   46.7890 C   0  0  0  0  0  0  0  0  0  0  0  0
   58.8160   33.9650   47.4850 C   0  0  0  0  0  0  0  0  0  0  0  0
   58.3430   32.8460   46.7920 C   0  0  0  0  0  0  0  0  0  0  0  0
   58.3120   30.2610   44.9680 C   0  0  0  0  0  0  0  0  0  0  0  0
   59.2500   29.7770   45.8870 C   0  0  0  0  0  0  0  0  0  0  0  0
   59.9760   30.5820   46.5310 O   0  0  0  0  0  0  0  0  0  0  0  0
   58.7870   29.6048   50.4184 H   0  0  0  0  0  0  0  0  0  0  0  0
   59.9367   30.1972   49.1718 H   0  0  0  0  0  0  0  0  0  0  0  0
   58.2357   30.7747   49.1718 H   0  0  0  0  0  0  0  0  0  0  0  0
   60.2762   28.0658   49.2822 H   0  0  0  0  0  0  0  0  0  0  0  0
   59.1072   26.8743   48.5921 H   0  0  0  0  0  0  0  0  0  0  0  0
   61.1542   28.5963   47.2094 H   0  0  0  0  0  0  0  0  0  0  0  0
   60.6259   26.9086   46.8635 H   0  0  0  0  0  0  0  0  0  0  0  0
   57.3135   24.5587   47.2171 H   0  0  0  0  0  0  0  0  0  0  0  0
   57.5343   26.3416   47.6326 H   0  0  0  0  0  0  0  0  0  0  0  0
   55.9878   23.3842   47.3450 H   0  0  0  0  0  0  0  0  0  0  0  0
   54.3489   22.9262   46.7556 H   0  0  0  0  0  0  0  0  0  0  0  0
   56.1643   20.8631   46.2514 H   0  0  0  0  0  0  0  0  0  0  0  0
   57.1210   19.7775   44.2142 H   0  0  0  0  0  0  0  0  0  0  0  0
   57.4235   21.1025   42.1187 H   0  0  0  0  0  0  0  0  0  0  0  0
   56.7839   23.5163   42.0594 H   0  0  0  0  0  0  0  0  0  0  0  0
   55.8130   24.6036   44.0867 H   0  0  0  0  0  0  0  0  0  0  0  0
   56.6472   32.6187   43.1979 H   0  0  0  0  0  0  0  0  0  0  0  0
   59.1738   33.7946   43.6094 H   0  0  0  0  0  0  0  0  0  0  0  0
   60.0247   35.7836   44.8529 H   0  0  0  0  0  0  0  0  0  0  0  0
   59.7808   35.9030   47.3360 H   0  0  0  0  0  0  0  0  0  0  0  0
   58.7178   34.0145   48.5795 H   0  0  0  0  0  0  0  0  0  0  0  0
   57.8882   32.0106   47.3445 H   0  0  0  0  0  0  0  0  0  0  0  0
  1  2  1  0
  2  3  1  0
  3  4  1  0
  4  5  1  0
  5  6  1  0
  6  7  1  0
  7  8  1  0
  8  9  1  0
  9 10  2  0
  9 11  1  0
 11 12  1  0
 12 13  1  0
 13 14  2  0
 14 15  1  0
 15 16  2  0
 16 17  1  0
 17 18  2  0
  6 19  2  0
 19 20  1  0
 20 21  1  0
 21 22  1  0
 22 23  2  0
 23 24  1  0
 24 25  2  0
 25 26  1  0
 26 27  2  0
 27 28  1  0
 28 29  2  0
 23 30  1  0
 30 31  1  0
 31 32  2  0
 31  5  1  0
 18 13  1  0
 30 20  2  0
 29 24  1  0
  1 33  1  0
  1 34  1  0
  1 35  1  0
  3 36  1  0
  3 37  1  0
  4 38  1  0
  4 39  1  0
  8 40  1  0
  8 41  1  0
 12 42  1  0
 12 43  1  0
 14 44  1  0
 15 45  1  0
 16 46  1  0
 17 47  1  0
 18 48  1  0
 22 49  1  0
 25 50  1  0
 26 51  1  0
 27 52  1  0
 28 53  1  0
 29 54  1  0
M  CHG  1  11  -1
M  END
>  <UniqueID>  (42) 
39

>  <SMILES>  (42) 
COCCn1c(SCC(=O)[N-]Cc2ccccc2)nc2scc(-c3ccccc3)c2c1=O

>  <Energy>  (42) 
95.32919635813583

>  <Genealogy>  (42) 
COCCn1c(SCC(=O)[N-]Cc2ccccc2)nc2scc(-c3ccccc3)c2c1=O (protonated)
COCCn1c(SCC(=O)[N-]Cc2ccccc2)nc2scc(-c3ccccc3)c2c1=O (3D coordinates assigned)
COCCn1c(SCC(=O)[N-]Cc2ccccc2)nc2scc(-c3ccccc3)c2c1=O (optimized conformer: 95.32919635813583 kcal/mol)

>  <smiles>  (42) 
COCCn1c(SCC(=O)NCc2ccccc2)nc2scc(-c3ccccc3)c2c1=O

>  <score_type>  (42) 
oracle

>  <origin>  (42) 
adg

>  <m_score__min__energy>  (42) 
-11.02

>  <m_primary>  (42) 
energy

$$$$
43:0
     RDKit          3D

 37 39  0  0  0  0  0  0  0  0999 V2000
   55.6580   30.1060   43.7100 C   0  0  0  0  0  0  0  0  0  0  0  0
   56.8830   29.7950   44.4660 N   0  0  0  0  0  0  0  0  0  0  0  0
   57.9830   30.6210   44.3680 C   0  0  0  0  0  0  0  0  0  0  0  0
   57.9810   32.0870   43.3210 S   0  0  0  0  0  0  0  0  0  0  0  0
   57.4010   33.1840   44.6540 C   0  0  0  0  0  0  0  0  0  0  0  0
   58.5810   33.7270   45.3940 C   0  0  0  0  0  0  0  0  0  0  0  0
   58.8490   34.9560   45.3120 O   0  0  0  0  0  0  0  0  0  0  0  0
   59.3990   32.8490   46.1820 N   0  0  0  0  0  0  0  0  0  0  0  0
   60.4060   33.2960   47.1050 C   0  0  0  0  0  0  0  0  0  0  0  0
   60.0700   33.7810   48.3820 C   0  0  0  0  0  0  0  0  0  0  0  0
   61.0710   34.1860   49.2700 C   0  0  0  0  0  0  0  0  0  0  0  0
   62.4160   34.0980   48.8980 C   0  0  0  0  0  0  0  0  0  0  0  0
   63.3860   34.4890   49.7600 F   0  0  0  0  0  0  0  0  0  0  0  0
   62.7600   33.5960   47.6400 C   0  0  0  0  0  0  0  0  0  0  0  0
   61.7610   33.1890   46.7500 C   0  0  0  0  0  0  0  0  0  0  0  0
   59.1190   30.3400   45.0630 N   0  0  0  0  0  0  0  0  0  0  0  0
   59.1890   29.2400   45.8490 C   0  0  0  0  0  0  0  0  0  0  0  0
   58.1180   28.3980   45.9670 C   0  0  0  0  0  0  0  0  0  0  0  0
   56.9530   28.6650   45.2500 C   0  0  0  0  0  0  0  0  0  0  0  0
   55.9790   27.8680   45.3360 O   0  0  0  0  0  0  0  0  0  0  0  0
   58.3910   26.9970   47.0290 S   0  0  0  0  0  0  0  0  0  0  0  0
   60.1860   27.3760   47.0050 C   0  0  0  0  0  0  0  0  0  0  0  0
   60.3940   28.8450   46.6120 C   0  0  0  0  0  0  0  0  0  0  0  0
   54.8370   30.3144   44.4118 H   0  0  0  0  0  0  0  0  0  0  0  0
   55.8320   30.9885   43.0768 H   0  0  0  0  0  0  0  0  0  0  0  0
   55.3900   29.2474   43.0768 H   0  0  0  0  0  0  0  0  0  0  0  0
   56.8241   34.0148   44.2216 H   0  0  0  0  0  0  0  0  0  0  0  0
   56.7605   32.6173   45.3458 H   0  0  0  0  0  0  0  0  0  0  0  0
   59.3080   31.8200   46.0170 H   0  0  0  0  0  0  0  0  0  0  0  0
   59.0139   33.8419   48.6835 H   0  0  0  0  0  0  0  0  0  0  0  0
   60.8001   34.5745   50.2628 H   0  0  0  0  0  0  0  0  0  0  0  0
   63.8182   33.5209   47.3494 H   0  0  0  0  0  0  0  0  0  0  0  0
   62.0379   32.7826   45.7660 H   0  0  0  0  0  0  0  0  0  0  0  0
   60.6112   27.2001   48.0041 H   0  0  0  0  0  0  0  0  0  0  0  0
   60.6880   26.7262   46.2730 H   0  0  0  0  0  0  0  0  0  0  0  0
   60.4983   29.4698   47.5113 H   0  0  0  0  0  0  0  0  0  0  0  0
   61.3086   28.9758   46.0150 H   0  0  0  0  0  0  0  0  0  0  0  0
  1  2  1  0
  2  3  1  0
  3  4  1  0
  4  5  1  0
  5  6  1  0
  6  7  2  0
  6  8  1  0
  8  9  1  0
  9 10  2  0
 10 11  1  0
 11 12  2  0
 12 13  1  0
 12 14  1  0
 14 15  2  0
  3 16  2  0
 16 17  1  0
 17 18  2  0
 18 19  1  0
 19 20  2  0
 18 21  1  0
 21 22  1  0
 22 23  1  0
 19  2  1  0
 15  9  1  0
 23 17  1  0
  1 24  1  0
  1 25  1  0
  1 26  1  0
  5 27  1  0
  5 28  1  0
  8 29  1  0
 10 30  1  0
 11 31  1  0
 14 32  1  0
 15 33  1  0
 22 34  1  0
 22 35  1  0
 23 36  1  0
 23 37  1  0
M  END
>  <UniqueID>  (43) 
40

>  <SMILES>  (43) 
Cn1c(SCC(=O)Nc2ccc(F)cc2)nc2c(c1=O)SCC2

>  <Energy>  (43) 
49.45005830051301

>  <Genealogy>  (43) 
Cn1c(SCC(=O)Nc2ccc(F)cc2)nc2c(c1=O)SCC2 (3D coordinates assigned)
Cn1c(SCC(=O)Nc2ccc(F)cc2)nc2c(c1=O)SCC2 (nonaromatic ring conformer: 49.45005830051301 kcal/mol)

>  <smiles>  (43) 
Cn1c(SCC(=O)Nc2ccc(F)cc2)nc2c(c1=O)SCC2

>  <score_type>  (43) 
oracle

>  <origin>  (43) 
adg

>  <m_score__min__energy>  (43) 
-7.0300000000000002

>  <m_primary>  (43) 
energy

$$$$
44:0
     RDKit          3D

 41 43  0  0  0  0  0  0  0  0999 V2000
   54.2730   24.0990   45.5660 C   0  0  0  0  0  0  0  0  0  0  0  0
   55.1790   24.5750   46.5560 O   0  0  0  0  0  0  0  0  0  0  0  0
   56.3300   25.3350   46.2880 C   0  0  0  0  0  0  0  0  0  0  0  0
   56.2590   26.7090   46.0000 C   0  0  0  0  0  0  0  0  0  0  0  0
   57.4200   27.4490   45.7380 C   0  0  0  0  0  0  0  0  0  0  0  0
   57.3400   28.8580   45.4440 N   0  0  0  0  0  0  0  0  0  0  0  0
   56.4680   29.4720   44.6160 C   0  0  0  0  0  0  0  0  0  0  0  0
   56.6580   30.8060   44.5600 N   0  0  0  0  0  0  0  0  0  0  0  0
   57.6950   31.0380   45.3910 C   0  0  0  0  0  0  0  0  0  0  0  0
   58.2540   32.3880   45.6500 C   0  0  0  0  0  0  0  0  0  0  0  0
   58.6020   32.7610   46.9610 C   0  0  0  0  0  0  0  0  0  0  0  0
   59.1300   34.0300   47.2220 C   0  0  0  0  0  0  0  0  0  0  0  0
   59.3160   34.9400   46.1790 C   0  0  0  0  0  0  0  0  0  0  0  0
   58.9750   34.5830   44.8730 C   0  0  0  0  0  0  0  0  0  0  0  0
   58.4460   33.3150   44.6060 C   0  0  0  0  0  0  0  0  0  0  0  0
   58.1190   29.8390   45.9360 C   0  0  0  0  0  0  0  0  0  0  0  0
   58.6620   26.7980   45.7670 C   0  0  0  0  0  0  0  0  0  0  0  0
   58.7580   25.4220   46.0550 C   0  0  0  0  0  0  0  0  0  0  0  0
   60.0050   24.7770   46.0800 O   0  0  0  0  0  0  0  0  0  0  0  0
   60.2520   23.4530   45.6180 C   0  0  0  0  0  0  0  0  0  0  0  0
   57.5750   24.6860   46.3180 C   0  0  0  0  0  0  0  0  0  0  0  0
   57.5600   23.3080   46.6150 O   0  0  0  0  0  0  0  0  0  0  0  0
   57.1790   22.2540   45.7380 C   0  0  0  0  0  0  0  0  0  0  0  0
   53.4014   23.6411   46.0565 H   0  0  0  0  0  0  0  0  0  0  0  0
   53.9411   24.9392   44.9384 H   0  0  0  0  0  0  0  0  0  0  0  0
   54.7766   23.3490   44.9384 H   0  0  0  0  0  0  0  0  0  0  0  0
   55.2798   27.2098   45.9800 H   0  0  0  0  0  0  0  0  0  0  0  0
   55.6881   28.9423   44.0493 H   0  0  0  0  0  0  0  0  0  0  0  0
   58.4579   32.0494   47.7873 H   0  0  0  0  0  0  0  0  0  0  0  0
   59.3992   34.3116   48.2507 H   0  0  0  0  0  0  0  0  0  0  0  0
   59.7309   35.9374   46.3863 H   0  0  0  0  0  0  0  0  0  0  0  0
   59.1224   35.3000   44.0519 H   0  0  0  0  0  0  0  0  0  0  0  0
   58.1785   33.0403   43.5750 H   0  0  0  0  0  0  0  0  0  0  0  0
   58.9481   29.7101   46.6473 H   0  0  0  0  0  0  0  0  0  0  0  0
   59.5776   27.3719   45.5612 H   0  0  0  0  0  0  0  0  0  0  0  0
   60.3773   22.7813   46.4800 H   0  0  0  0  0  0  0  0  0  0  0  0
   59.4018   23.1127   45.0085 H   0  0  0  0  0  0  0  0  0  0  0  0
   61.1677   23.4422   45.0085 H   0  0  0  0  0  0  0  0  0  0  0  0
   56.8636   21.3814   46.3288 H   0  0  0  0  0  0  0  0  0  0  0  0
   56.3448   22.5883   45.1037 H   0  0  0  0  0  0  0  0  0  0  0  0
   58.0341   21.9776   45.1037 H   0  0  0  0  0  0  0  0  0  0  0  0
  1  2  1  0
  2  3  1  0
  3  4  2  0
  4  5  1  0
  5  6  1  0
  6  7  1  0
  7  8  2  0
  8  9  1  0
  9 10  1  0
 10 11  2  0
 11 12  1  0
 12 13  2  0
 13 14  1  0
 14 15  2  0
  9 16  2  0
  5 17  2  0
 17 18  1  0
 18 19  1  0
 19 20  1  0
 18 21  2  0
 21 22  1  0
 22 23  1  0
 21  3  1  0
 16  6  1  0
 15 10  1  0
  1 24  1  0
  1 25  1  0
  1 26  1  0
  4 27  1  0
  7 28  1  0
 11 29  1  0
 12 30  1  0
 13 31  1  0
 14 32  1  0
 15 33  1  0
 16 34  1  0
 17 35  1  0
 20 36  1  0
 20 37  1  0
 20 38  1  0
 23 39  1  0
 23 40  1  0
 23 41  1  0
M  END
>  <UniqueID>  (44) 
41

>  <SMILES>  (44) 
COc1cc(-n2cnc(-c3ccccc3)c2)cc(OC)c1OC

>  <Energy>  (44) 
79.30654478868433

>  <Genealogy>  (44) 
COc1cc(-n2cnc(-c3ccccc3)c2)cc(OC)c1OC (3D coordinates assigned)
COc1cc(-n2cnc(-c3ccccc3)c2)cc(OC)c1OC (optimized conformer: 79.30654478868433 kcal/mol)

>  <smiles>  (44) 
COc1cc(-n2cnc(-c3ccccc3)c2)cc(OC)c1OC

>  <score_type>  (44) 
oracle

>  <origin>  (44) 
adg

>  <m_score__min__energy>  (44) 
-6.3200000000000003

>  <m_primary>  (44) 
energy

$$$$
45:0
     RDKit          3D

 43 47  0  0  0  0  0  0  0  0999 V2000
   56.9270   30.3230   55.4880 C   0  0  0  0  0  0  0  0  0  0  0  0
   56.5020   31.0860   54.3630 O   0  0  0  0  0  0  0  0  0  0  0  0
   57.3370   31.4720   53.3030 C   0  0  0  0  0  0  0  0  0  0  0  0
   58.2040   32.5760   53.4000 C   0  0  0  0  0  0  0  0  0  0  0  0
   59.0170   32.9330   52.3230 C   0  0  0  0  0  0  0  0  0  0  0  0
   58.9760   32.2040   51.1260 C   0  0  0  0  0  0  0  0  0  0  0  0
   59.8550   32.5940   49.9990 C   0  0  0  0  0  0  0  0  0  0  0  0
   61.2080   32.6530   50.1910 N   0  0  0  0  0  0  0  0  0  0  0  0
   62.0680   33.0080   49.1920 C   0  0  0  0  0  0  0  0  0  0  0  0
   63.4460   33.0550   49.4120 C   0  0  0  0  0  0  0  0  0  0  0  0
   64.2990   33.4250   48.3680 C   0  0  0  0  0  0  0  0  0  0  0  0
   63.7590   33.7430   47.1170 C   0  0  0  0  0  0  0  0  0  0  0  0
   62.4140   33.6920   46.9170 N   0  0  0  0  0  0  0  0  0  0  0  0
   61.5630   33.3350   47.9160 C   0  0  0  0  0  0  0  0  0  0  0  0
   60.2150   33.2860   47.7370 N   0  0  0  0  0  0  0  0  0  0  0  0
   59.3620   32.9350   48.7270 C   0  0  0  0  0  0  0  0  0  0  0  0
   58.0530   32.9860   48.3670 N   0  0  0  0  0  0  0  0  0  0  0  0
   58.1210   33.3790   47.0770 C   0  0  0  0  0  0  0  0  0  0  0  0
   57.0550   33.5950   46.2070 C   0  0  0  0  0  0  0  0  0  0  0  0
   57.3520   34.0140   44.8970 C   0  0  0  0  0  0  0  0  0  0  0  0
   58.6920   34.2050   44.4920 C   0  0  0  0  0  0  0  0  0  0  0  0
   59.7490   33.9810   45.3920 C   0  0  0  0  0  0  0  0  0  0  0  0
   59.4220   33.5630   46.6850 C   0  0  0  0  0  0  0  0  0  0  0  0
   58.1260   31.0890   51.0350 C   0  0  0  0  0  0  0  0  0  0  0  0
   57.3010   30.7230   52.1170 C   0  0  0  0  0  0  0  0  0  0  0  0
   56.4330   29.6210   52.0530 O   0  0  0  0  0  0  0  0  0  0  0  0
   55.0440   29.6660   52.3660 C   0  0  0  0  0  0  0  0  0  0  0  0
   56.6378   30.8422   56.4136 H   0  0  0  0  0  0  0  0  0  0  0  0
   56.4511   29.3317   55.4596 H   0  0  0  0  0  0  0  0  0  0  0  0
   58.0204   30.2058   55.4596 H   0  0  0  0  0  0  0  0  0  0  0  0
   58.2413   33.1615   54.3305 H   0  0  0  0  0  0  0  0  0  0  0  0
   59.6958   33.7938   52.4141 H   0  0  0  0  0  0  0  0  0  0  0  0
   63.8578   32.8026   50.4003 H   0  0  0  0  0  0  0  0  0  0  0  0
   65.3864   33.4658   48.5288 H   0  0  0  0  0  0  0  0  0  0  0  0
   64.4247   34.0355   46.2916 H   0  0  0  0  0  0  0  0  0  0  0  0
   56.0155   33.4431   46.5332 H   0  0  0  0  0  0  0  0  0  0  0  0
   56.5349   34.1942   44.1830 H   0  0  0  0  0  0  0  0  0  0  0  0
   58.9102   34.5315   43.4645 H   0  0  0  0  0  0  0  0  0  0  0  0
   60.7960   34.1295   45.0892 H   0  0  0  0  0  0  0  0  0  0  0  0
   58.1044   30.4954   50.1091 H   0  0  0  0  0  0  0  0  0  0  0  0
   54.9142   29.6702   53.4583 H   0  0  0  0  0  0  0  0  0  0  0  0
   54.6017   30.5789   51.9407 H   0  0  0  0  0  0  0  0  0  0  0  0
   54.5435   28.7836   51.9407 H   0  0  0  0  0  0  0  0  0  0  0  0
  1  2  1  0
  2  3  1  0
  3  4  2  0
  4  5  1  0
  5  6  2  0
  6  7  1  0
  7  8  2  0
  8  9  1  0
  9 10  2  0
 10 11  1  0
 11 12  2  0
 12 13  1  0
 13 14  2  0
 14 15  1  0
 15 16  1  0
 16 17  2  0
 17 18  1  0
 18 19  2  0
 19 20  1  0
 20 21  2  0
 21 22  1  0
 22 23  2  0
  6 24  1  0
 24 25  2  0
 25 26  1  0
 26 27  1  0
 25  3  1  0
 16  7  1  0
 23 18  1  0
 14  9  1  0
 23 15  1  0
  1 28  1  0
  1 29  1  0
  1 30  1  0
  4 31  1  0
  5 32  1  0
 10 33  1  0
 11 34  1  0
 12 35  1  0
 19 36  1  0
 20 37  1  0
 21 38  1  0
 22 39  1  0
 24 40  1  0
 27 41  1  0
 27 42  1  0
 27 43  1  0
M  END
>  <UniqueID>  (45) 
42

>  <SMILES>  (45) 
COc1ccc(-c2nc3cccnc3n3c2nc2ccccc23)cc1OC

>  <Energy>  (45) 
102.46418569751114

>  <Genealogy>  (45) 
COc1ccc(-c2nc3cccnc3n3c2nc2ccccc23)cc1OC (3D coordinates assigned)
COc1ccc(-c2nc3cccnc3n3c2nc2ccccc23)cc1OC (optimized conformer: 102.46418569751114 kcal/mol)

>  <smiles>  (45) 
COc1ccc(-c2nc3cccnc3n3c2nc2ccccc23)cc1OC

>  <score_type>  (45) 
oracle

>  <origin>  (45) 
adg

>  <m_score__min__energy>  (45) 
-7.4100000000000001

>  <m_primary>  (45) 
energy

$$$$
46:0
     RDKit          3D

 38 39  0  0  0  0  0  0  0  0999 V2000
   59.4640   34.8940   47.3490 C   0  0  0  0  0  0  0  0  0  0  0  0
   58.8010   33.9020   46.4400 C   0  0  0  0  0  0  0  0  0  0  0  0
   59.0530   32.5290   46.5890 C   0  0  0  0  0  0  0  0  0  0  0  0
   58.4620   31.6060   45.7220 C   0  0  0  0  0  0  0  0  0  0  0  0
   57.6260   32.0440   44.6840 C   0  0  0  0  0  0  0  0  0  0  0  0
   56.9710   31.0410   43.7720 C   0  0  0  0  0  0  0  0  0  0  0  0
   57.6600   29.7560   43.8600 N   0  0  0  0  0  0  0  0  0  0  0  0
   57.1570   28.6680   44.6480 C   0  0  0  0  0  0  0  0  0  0  0  0
   56.0490   28.7710   45.2400 O   0  0  0  0  0  0  0  0  0  0  0  0
   57.9870   27.4250   44.8270 C   0  0  1  0  0  0  0  0  0  0  0  0
   57.5690   26.6480   46.1110 C   0  0  0  0  0  0  0  0  0  0  0  0
   57.1440   25.3300   45.6500 N   0  0  0  0  0  0  0  0  0  0  0  0
   56.6740   24.2420   46.4990 C   0  0  0  0  0  0  0  0  0  0  0  0
   57.2870   25.2810   44.2490 C   0  0  0  0  0  0  0  0  0  0  0  0
   57.0180   24.2660   43.5510 O   0  0  0  0  0  0  0  0  0  0  0  0
   57.7760   26.4930   43.7180 N   0  0  0  0  0  0  0  0  0  0  0  0
   58.1460   26.7180   42.3260 C   0  0  0  0  0  0  0  0  0  0  0  0
   57.3850   33.4180   44.5250 C   0  0  0  0  0  0  0  0  0  0  0  0
   57.9760   34.3410   45.3940 C   0  0  0  0  0  0  0  0  0  0  0  0
   59.2768   34.6140   48.3962 H   0  0  0  0  0  0  0  0  0  0  0  0
   60.5474   34.8987   47.1587 H   0  0  0  0  0  0  0  0  0  0  0  0
   59.0540   35.8968   47.1587 H   0  0  0  0  0  0  0  0  0  0  0  0
   59.7185   32.1782   47.3916 H   0  0  0  0  0  0  0  0  0  0  0  0
   58.6532   30.5308   45.8541 H   0  0  0  0  0  0  0  0  0  0  0  0
   55.9199   30.9112   44.0694 H   0  0  0  0  0  0  0  0  0  0  0  0
   57.0249   31.4077   42.7363 H   0  0  0  0  0  0  0  0  0  0  0  0
   58.5650   29.6410   43.3500 H   0  0  0  0  0  0  0  0  0  0  0  0
   59.0329   27.7610   44.8837 H   0  0  0  0  0  0  0  0  0  0  0  0
   58.4217   26.5575   46.7999 H   0  0  0  0  0  0  0  0  0  0  0  0
   56.7677   27.1662   46.6581 H   0  0  0  0  0  0  0  0  0  0  0  0
   56.7953   24.5228   47.5556 H   0  0  0  0  0  0  0  0  0  0  0  0
   55.6115   24.0473   46.2910 H   0  0  0  0  0  0  0  0  0  0  0  0
   57.2605   23.3350   46.2910 H   0  0  0  0  0  0  0  0  0  0  0  0
   59.0852   27.2891   42.2840 H   0  0  0  0  0  0  0  0  0  0  0  0
   58.2827   25.7499   41.8218 H   0  0  0  0  0  0  0  0  0  0  0  0
   57.3493   27.2847   41.8218 H   0  0  0  0  0  0  0  0  0  0  0  0
   56.7295   33.7696   43.7147 H   0  0  0  0  0  0  0  0  0  0  0  0
   57.7928   35.4169   45.2564 H   0  0  0  0  0  0  0  0  0  0  0  0
  1  2  1  0
  2  3  2  0
  3  4  1  0
  4  5  2  0
  5  6  1  0
  6  7  1  0
  7  8  1  0
  8  9  2  0
  8 10  1  0
 10 11  1  0
 11 12  1  0
 12 13  1  0
 12 14  1  0
 14 15  2  0
 14 16  1  0
 16 17  1  0
  5 18  1  0
 18 19  2  0
 19  2  1  0
 16 10  1  0
  1 20  1  0
  1 21  1  0
  1 22  1  0
  3 23  1  0
  4 24  1  0
  6 25  1  0
  6 26  1  0
  7 27  1  0
 10 28  1  1
 11 29  1  0
 11 30  1  0
 13 31  1  0
 13 32  1  0
 13 33  1  0
 17 34  1  0
 17 35  1  0
 17 36  1  0
 18 37  1  0
 19 38  1  0
M  END
>  <UniqueID>  (46) 
43

>  <SMILES>  (46) 
Cc1ccc(CNC(=O)[C@H]2CN(C)C(=O)N2C)cc1

>  <Energy>  (46) 
42.07527016444502

>  <Genealogy>  (46) 
Cc1ccc(CNC(=O)[C@H]2CN(C)C(=O)N2C)cc1 (chirality)
Cc1ccc(CNC(=O)[C@H]2CN(C)C(=O)N2C)cc1 (3D coordinates assigned)
Cc1ccc(CNC(=O)[C@H]2CN(C)C(=O)N2C)cc1 (nonaromatic ring conformer: 42.07527016444502 kcal/mol)

>  <smiles>  (46) 
Cc1ccc(CNC(=O)C2CN(C)C(=O)N2C)cc1

>  <score_type>  (46) 
oracle

>  <origin>  (46) 
adg

>  <m_score__min__energy>  (46) 
-6.8799999999999999

>  <m_primary>  (46) 
energy

$$$$
47:0
     RDKit          3D

 31 32  0  0  0  0  0  0  0  0999 V2000
   54.0977   29.8470   43.8761 H   0  0  0  0  0  0  0  0  0  0  0  0
   55.1510   29.7210   44.1670 C   0  0  0  0  0  0  0  0  0  0  0  0
   55.5240   28.6440   44.9020 N   0  0  0  0  0  0  0  0  0  0  0  0
   56.8130   28.4480   45.2840 C   0  0  0  0  0  0  0  0  0  0  0  0
   57.1470   27.3200   46.0430 C   0  0  0  0  0  0  0  0  0  0  0  0
   56.3666   26.5979   46.3252 H   0  0  0  0  0  0  0  0  0  0  0  0
   58.4690   27.1090   46.4430 C   0  0  0  0  0  0  0  0  0  0  0  0
   58.7270   26.2220   47.0402 H   0  0  0  0  0  0  0  0  0  0  0  0
   59.4630   28.0220   46.0860 C   0  0  0  0  0  0  0  0  0  0  0  0
   60.5024   27.8511   46.4029 H   0  0  0  0  0  0  0  0  0  0  0  0
   59.1440   29.1520   45.3280 C   0  0  0  0  0  0  0  0  0  0  0  0
   59.9335   29.8663   45.0513 H   0  0  0  0  0  0  0  0  0  0  0  0
   57.8140   29.3810   44.9160 C   0  0  0  0  0  0  0  0  0  0  0  0
   57.4490   30.5110   44.1490 C   0  0  0  0  0  0  0  0  0  0  0  0
   58.3610   31.3780   43.8030 N   0  0  0  0  0  0  0  0  0  0  0  0
   58.1400   32.7730   43.4230 C   0  0  0  0  0  0  0  0  0  0  0  0
   57.0803   32.9165   43.1652 H   0  0  0  0  0  0  0  0  0  0  0  0
   58.7719   33.0146   42.5557 H   0  0  0  0  0  0  0  0  0  0  0  0
   58.5080   33.6980   44.5840 C   0  0  0  0  0  0  0  0  0  0  0  0
   58.7408   34.6955   44.1831 H   0  0  0  0  0  0  0  0  0  0  0  0
   59.3763   33.2643   45.1016 H   0  0  0  0  0  0  0  0  0  0  0  0
   57.3660   33.8270   45.6010 C   0  0  0  0  0  0  0  0  0  0  0  0
   56.6000   33.0673   45.3864 H   0  0  0  0  0  0  0  0  0  0  0  0
   56.9271   34.8327   45.5242 H   0  0  0  0  0  0  0  0  0  0  0  0
   57.8600   33.6360   46.9130 O   0  0  0  0  0  0  0  0  0  0  0  0
   58.5020   32.3840   47.0220 C   0  0  0  0  0  0  0  0  0  0  0  0
   58.6323   32.1300   48.0843 H   0  0  0  0  0  0  0  0  0  0  0  0
   57.8879   31.6132   46.5333 H   0  0  0  0  0  0  0  0  0  0  0  0
   59.4863   32.4329   46.5333 H   0  0  0  0  0  0  0  0  0  0  0  0
   56.0970   30.6700   43.7780 C   0  0  0  0  0  0  0  0  0  0  0  0
   55.7889   31.5419   43.1823 H   0  0  0  0  0  0  0  0  0  0  0  0
  1  2  1  0
  2  3  1  0
  3  4  1  0
  4  5  2  0
  5  6  1  0
  5  7  1  0
  7  8  1  0
  7  9  2  0
  9 10  1  0
  9 11  1  0
 11 12  1  0
 11 13  2  0
 13 14  1  0
 14 15  2  0
 15 16  1  0
 16 17  1  0
 16 18  1  0
 16 19  1  0
 19 20  1  0
 19 21  1  0
 19 22  1  0
 22 23  1  0
 22 24  1  0
 22 25  1  0
 25 26  1  0
 26 27  1  0
 26 28  1  0
 26 29  1  0
 14 30  1  0
 30 31  1  0
 30  2  2  0
 13  4  1  0
M  CHG  1   3  -1
M  END
>  <UniqueID>  (47) 
44

>  <SMILES>  (47) 
COCCC/N=c1\cc[n-]c2ccccc12

>  <Energy>  (47) 
35.168320765906586

>  <Genealogy>  (47) 
COCCCN=c1cc[n-]c2ccccc12 (protonated)
COCCC/N=c1\cc[n-]c2ccccc12 (cis-trans isomerization)
COCCC/N=c1\cc[n-]c2ccccc12 (3D coordinates assigned)
COCCC/N=c1\cc[n-]c2ccccc12 (optimized conformer: 35.168320765906586 kcal/mol)

>  <smiles>  (47) 
COCCCN=c1cc[nH]c2ccccc12

>  <score_type>  (47) 
oracle

>  <origin>  (47) 
adg

>  <m_score__min__energy>  (47) 
-7.4299999999999997

>  <m_primary>  (47) 
energy

$$$$
