0:0
     RDKit          3D

 33 36  0  0  0  0  0  0  0  0999 V2000
   55.4480   29.7150   43.3670 C   0  0  0  0  0  0  0  0  0  0  0  0
   55.4990   29.0910   44.6430 O   0  0  0  0  0  0  0  0  0  0  0  0
   56.6820   28.9760   45.3790 C   0  0  0  0  0  0  0  0  0  0  0  0
   57.4320   30.0750   45.6980 N   0  0  0  0  0  0  0  0  0  0  0  0
   58.6000   29.9890   46.4140 C   0  0  0  0  0  0  0  0  0  0  0  0
   59.3310   31.2270   46.7410 C   0  0  0  0  0  0  0  0  0  0  0  0
   60.3150   31.3420   47.7130 C   0  0  0  0  0  0  0  0  0  0  0  0
   60.7700   32.6130   47.7280 N   0  0  0  0  0  0  0  0  0  0  0  0
   60.0500   33.2500   46.7850 C   0  0  0  0  0  0  0  0  0  0  0  0
   60.1390   34.6030   46.4590 C   0  0  0  0  0  0  0  0  0  0  0  0
   59.2630   35.0950   45.4800 C   0  0  0  0  0  0  0  0  0  0  0  0
   58.3240   34.2410   44.8730 C   0  0  0  0  0  0  0  0  0  0  0  0
   58.2770   32.8890   45.2440 C   0  0  0  0  0  0  0  0  0  0  0  0
   59.1640   32.4410   46.1740 N   0  0  0  0  0  0  0  0  0  0  0  0
   59.0450   28.7310   46.8780 C   0  0  0  0  0  0  0  0  0  0  0  0
   58.2770   27.6200   46.5450 C   0  0  0  0  0  0  0  0  0  0  0  0
   58.4450   26.2860   46.8450 C   0  0  0  0  0  0  0  0  0  0  0  0
   57.3590   25.6440   46.2590 C   0  0  0  0  0  0  0  0  0  0  0  0
   56.5560   26.5330   45.6290 N   0  0  0  0  0  0  0  0  0  0  0  0
   57.1290   27.7330   45.8140 C   0  0  0  0  0  0  0  0  0  0  0  0
   55.3590   30.8039   43.4947 H   0  0  0  0  0  0  0  0  0  0  0  0
   56.3679   29.4852   42.8094 H   0  0  0  0  0  0  0  0  0  0  0  0
   54.5776   29.3388   42.8094 H   0  0  0  0  0  0  0  0  0  0  0  0
   60.6671   30.5293   48.3654 H   0  0  0  0  0  0  0  0  0  0  0  0
   61.5090   33.0130   48.3480 H   0  0  0  0  0  0  0  0  0  0  0  0
   60.8699   35.2609   46.9519 H   0  0  0  0  0  0  0  0  0  0  0  0
   59.3105   36.1538   45.1854 H   0  0  0  0  0  0  0  0  0  0  0  0
   57.6313   34.6309   44.1126 H   0  0  0  0  0  0  0  0  0  0  0  0
   57.5406   32.2070   44.7939 H   0  0  0  0  0  0  0  0  0  0  0  0
   59.9616   28.6340   47.4783 H   0  0  0  0  0  0  0  0  0  0  0  0
   59.2612   25.8277   47.4228 H   0  0  0  0  0  0  0  0  0  0  0  0
   57.1773   24.5600   46.3018 H   0  0  0  0  0  0  0  0  0  0  0  0
   55.6720   26.3240   45.1150 H   0  0  0  0  0  0  0  0  0  0  0  0
  1  2  1  0
  2  3  1  0
  3  4  2  0
  4  5  1  0
  5  6  1  0
  6  7  2  0
  7  8  1  0
  8  9  2  0
  9 10  1  0
 10 11  2  0
 11 12  1  0
 12 13  2  0
 13 14  1  0
  5 15  2  0
 15 16  1  0
 16 17  1  0
 17 18  2  0
 18 19  1  0
 19 20  1  0
 20  3  1  0
 14  6  1  0
 20 16  2  0
 14  9  1  0
  1 21  1  0
  1 22  1  0
  1 23  1  0
  7 24  1  0
  8 25  1  0
 10 26  1  0
 11 27  1  0
 12 28  1  0
 13 29  1  0
 15 30  1  0
 17 31  1  0
 18 32  1  0
 19 33  1  0
M  CHG  1   8   1
M  END
>  <UniqueID>  (1) 
1

>  <SMILES>  (1) 
COc1nc(-c2c[nH+]c3ccccn23)cc2cc[nH]c12

>  <Energy>  (1) 
109.76706882811855

>  <Genealogy>  (1) 
COc1nc(-c2c[nH+]c3ccccn23)cc2cc[nH]c12 (protonated)
COc1nc(-c2c[nH+]c3ccccn23)cc2cc[nH]c12 (3D coordinates assigned)
COc1nc(-c2c[nH+]c3ccccn23)cc2cc[nH]c12 (optimized conformer: 109.76706882811855 kcal/mol)

>  <smiles>  (1) 
COc1nc(-c2cnc3ccccn23)cc2cc[nH]c12

>  <score_type>  (1) 
oracle

>  <origin>  (1) 
adg

>  <m_score__min__energy>  (1) 
-5.6799999999999997

>  <m_primary>  (1) 
energy

$$$$
1:0
     RDKit          3D

 42 44  0  0  0  0  0  0  0  0999 V2000
   58.8970   27.9670   44.9910 C   0  0  0  0  0  0  0  0  0  0  0  0
   58.5400   28.6020   46.3300 C   0  0  0  0  0  0  0  0  0  0  0  0
   58.8560   30.0340   46.3160 N   0  0  0  0  0  0  0  0  0  0  0  0
   59.9700   30.4340   46.9320 N   0  0  0  0  0  0  0  0  0  0  0  0
   60.3740   31.7300   46.9650 C   0  0  0  0  0  0  0  0  0  0  0  0
   61.6030   32.0490   47.7200 C   0  0  0  0  0  0  0  0  0  0  0  0
   62.6500   32.7650   47.1180 C   0  0  0  0  0  0  0  0  0  0  0  0
   63.7930   33.0940   47.8500 C   0  0  0  0  0  0  0  0  0  0  0  0
   63.9060   32.7250   49.2030 C   0  0  0  0  0  0  0  0  0  0  0  0
   65.1530   33.0880   49.9860 C   0  0  0  0  0  0  0  0  0  0  0  0
   64.8030   33.9040   51.2360 C   0  0  0  0  0  0  0  0  0  0  0  0
   65.9590   31.8350   50.3520 C   0  0  0  0  0  0  0  0  0  0  0  0
   62.8440   32.0270   49.8070 C   0  0  0  0  0  0  0  0  0  0  0  0
   61.7010   31.7000   49.0740 C   0  0  0  0  0  0  0  0  0  0  0  0
   59.6070   32.7040   46.2890 C   0  0  0  0  0  0  0  0  0  0  0  0
   60.0000   34.0570   46.2110 C   0  0  0  0  0  0  0  0  0  0  0  0
   59.2090   34.9870   45.5340 C   0  0  0  0  0  0  0  0  0  0  0  0
   58.0270   34.5850   44.9160 C   0  0  0  0  0  0  0  0  0  0  0  0
   57.6340   33.2460   44.9590 C   0  0  0  0  0  0  0  0  0  0  0  0
   58.4210   32.2940   45.6360 C   0  0  0  0  0  0  0  0  0  0  0  0
   58.0610   30.9350   45.6600 C   0  0  0  0  0  0  0  0  0  0  0  0
   57.0110   30.5460   45.0740 O   0  0  0  0  0  0  0  0  0  0  0  0
   59.4293   27.0202   45.1645 H   0  0  0  0  0  0  0  0  0  0  0  0
   57.9767   27.7712   44.4211 H   0  0  0  0  0  0  0  0  0  0  0  0
   59.5426   28.6515   44.4211 H   0  0  0  0  0  0  0  0  0  0  0  0
   57.4644   28.4698   46.5187 H   0  0  0  0  0  0  0  0  0  0  0  0
   59.1252   28.1148   47.1238 H   0  0  0  0  0  0  0  0  0  0  0  0
   62.5696   33.0686   46.0638 H   0  0  0  0  0  0  0  0  0  0  0  0
   64.6115   33.6460   47.3648 H   0  0  0  0  0  0  0  0  0  0  0  0
   65.7836   33.7171   49.3406 H   0  0  0  0  0  0  0  0  0  0  0  0
   65.0526   33.3221   52.1355 H   0  0  0  0  0  0  0  0  0  0  0  0
   65.3781   34.8417   51.2346 H   0  0  0  0  0  0  0  0  0  0  0  0
   63.7272   34.1336   51.2346 H   0  0  0  0  0  0  0  0  0  0  0  0
   66.0178   31.7436   51.4466 H   0  0  0  0  0  0  0  0  0  0  0  0
   65.4632   30.9456   49.9359 H   0  0  0  0  0  0  0  0  0  0  0  0
   66.9739   31.9174   49.9359 H   0  0  0  0  0  0  0  0  0  0  0  0
   62.9146   31.7364   50.8656 H   0  0  0  0  0  0  0  0  0  0  0  0
   60.8728   31.1654   49.5622 H   0  0  0  0  0  0  0  0  0  0  0  0
   60.9369   34.3815   46.6873 H   0  0  0  0  0  0  0  0  0  0  0  0
   59.5202   36.0411   45.4884 H   0  0  0  0  0  0  0  0  0  0  0  0
   57.4021   35.3240   44.3931 H   0  0  0  0  0  0  0  0  0  0  0  0
   56.7044   32.9327   44.4613 H   0  0  0  0  0  0  0  0  0  0  0  0
  1  2  1  0
  2  3  1  0
  3  4  1  0
  4  5  2  0
  5  6  1  0
  6  7  2  0
  7  8  1  0
  8  9  2  0
  9 10  1  0
 10 11  1  0
 10 12  1  0
  9 13  1  0
 13 14  2  0
  5 15  1  0
 15 16  2  0
 16 17  1  0
 17 18  2  0
 18 19  1  0
 19 20  2  0
 20 21  1  0
 21 22  2  0
 21  3  1  0
 14  6  1  0
 20 15  1  0
  1 23  1  0
  1 24  1  0
  1 25  1  0
  2 26  1  0
  2 27  1  0
  7 28  1  0
  8 29  1  0
 10 30  1  0
 11 31  1  0
 11 32  1  0
 11 33  1  0
 12 34  1  0
 12 35  1  0
 12 36  1  0
 13 37  1  0
 14 38  1  0
 16 39  1  0
 17 40  1  0
 18 41  1  0
 19 42  1  0
M  END
>  <UniqueID>  (2) 
2

>  <SMILES>  (2) 
CCn1nc(-c2ccc(C(C)C)cc2)c2ccccc2c1=O

>  <Energy>  (2) 
51.74954884514188

>  <Genealogy>  (2) 
CCn1nc(-c2ccc(C(C)C)cc2)c2ccccc2c1=O (3D coordinates assigned)
CCn1nc(-c2ccc(C(C)C)cc2)c2ccccc2c1=O (optimized conformer: 51.74954884514188 kcal/mol)

>  <smiles>  (2) 
CCn1nc(-c2ccc(C(C)C)cc2)c2ccccc2c1=O

>  <score_type>  (2) 
oracle

>  <origin>  (2) 
adg

>  <m_score__min__energy>  (2) 
-7.8899999999999997

>  <m_primary>  (2) 
energy

$$$$
2:0
     RDKit          3D

 28 29  0  0  1  0  0  0  0  0999 V2000
   56.4430   22.9510   48.4350 C   0  0  0  0  0  0  0  0  0  0  0  0
   57.3590   23.2910   47.4410 O   0  0  0  0  0  0  0  0  0  0  0  0
   56.6540   23.4840   46.2640 C   0  0  0  0  0  0  0  0  0  0  0  0
   56.5050   24.9250   46.0650 C   0  0  0  0  0  0  0  0  0  0  0  0
   55.7290   25.8740   46.1660 N   0  0  0  0  0  0  0  0  0  0  0  0
   55.9280   27.1040   45.8650 N   0  0  0  0  0  0  0  0  0  0  0  0
   57.1080   27.4160   45.3840 C   0  0  0  0  0  0  0  0  0  0  0  0
   57.6410   28.6060   44.9700 N   0  0  0  0  0  0  0  0  0  0  0  0
   56.6860   29.6100   44.6960 C   0  0  0  0  0  0  0  0  0  0  0  0
   55.5120   29.6230   45.1350 O   0  0  0  0  0  0  0  0  0  0  0  0
   57.1350   30.7180   43.8220 C   0  0  0  0  0  0  0  0  0  0  0  0
   56.9900   30.8060   42.4530 C   0  0  0  0  0  0  0  0  0  0  0  0
   57.5690   32.0170   42.0880 C   0  0  0  0  0  0  0  0  0  0  0  0
   58.0340   32.6290   43.1370 O   0  0  0  0  0  0  0  0  0  0  0  0
   57.7870   31.8720   44.1920 C   0  0  0  0  0  0  0  0  0  0  0  0
   58.1480   32.1850   45.6110 C   0  0  0  0  0  0  0  0  0  0  0  0
   58.0320   25.8460   45.3450 S   0  0  0  0  0  0  0  0  0  0  0  0
   56.8954   23.1189   49.4235 H   0  0  0  0  0  0  0  0  0  0  0  0
   55.5428   23.5749   48.3330 H   0  0  0  0  0  0  0  0  0  0  0  0
   56.1679   21.8909   48.3330 H   0  0  0  0  0  0  0  0  0  0  0  0
   57.2064   23.0446   45.4203 H   0  0  0  0  0  0  0  0  0  0  0  0
   55.6681   22.9996   46.3221 H   0  0  0  0  0  0  0  0  0  0  0  0
   55.1630   27.8510   45.9970 H   0  0  0  0  0  0  0  0  0  0  0  0
   56.5147   30.0704   41.7874 H   0  0  0  0  0  0  0  0  0  0  0  0
   57.6255   32.4019   41.0591 H   0  0  0  0  0  0  0  0  0  0  0  0
   57.4938   31.6178   46.2894 H   0  0  0  0  0  0  0  0  0  0  0  0
   59.1961   31.9050   45.7930 H   0  0  0  0  0  0  0  0  0  0  0  0
   58.0193   33.2622   45.7930 H   0  0  0  0  0  0  0  0  0  0  0  0
  1  2  1  0
  2  3  1  0
  3  4  1  0
  4  5  2  0
  5  6  1  0
  6  7  1  0
  7  8  2  0
  8  9  1  0
  9 10  2  0
  9 11  1  0
 11 12  1  0
 12 13  2  0
 13 14  1  0
 14 15  1  0
 15 16  1  0
  7 17  1  0
 17  4  1  0
 15 11  2  0
  1 18  1  0
  1 19  1  0
  1 20  1  0
  3 21  1  0
  3 22  1  0
  6 23  1  0
 12 24  1  0
 13 25  1  0
 16 26  1  0
 16 27  1  0
 16 28  1  0
M  END
>  <smiles>  (3) 
COCc1n[nH]c(=NC(=O)c2ccoc2C)s1

>  <score_type>  (3) 
oracle

>  <origin>  (3) 
adg

>  <m_score__min__energy>  (3) 
-6.7800000000000002

>  <m_primary>  (3) 
energy

$$$$
3:0
     RDKit          3D

 45 48  0  0  0  0  0  0  0  0999 V2000
   58.8440   27.4880   44.6000 C   0  0  0  0  0  0  0  0  0  0  0  0
   58.0820   28.7360   44.2670 C   0  0  0  0  0  0  0  0  0  0  0  0
   57.0670   28.7080   43.2990 C   0  0  0  0  0  0  0  0  0  0  0  0
   56.3910   29.8810   42.9570 C   0  0  0  0  0  0  0  0  0  0  0  0
   56.7240   31.0900   43.5730 C   0  0  0  0  0  0  0  0  0  0  0  0
   57.7350   31.1330   44.5500 C   0  0  0  0  0  0  0  0  0  0  0  0
   58.1220   32.3690   45.1740 N   0  0  0  0  0  0  0  0  0  0  0  0
   58.8180   33.4260   44.4960 C   0  0  0  0  0  0  0  0  0  0  0  0
   58.8680   33.4580   43.2370 O   0  0  0  0  0  0  0  0  0  0  0  0
   59.5080   34.4950   45.2860 C   0  0  0  0  0  0  0  0  0  0  0  0
   59.9110   33.9660   46.5890 N   0  0  0  0  0  0  0  0  0  0  0  0
   59.1120   33.7270   47.6590 C   0  0  0  0  0  0  0  0  0  0  0  0
   57.8580   33.8500   47.6270 O   0  0  0  0  0  0  0  0  0  0  0  0
   59.8000   33.3370   48.7630 N   0  0  0  0  0  0  0  0  0  0  0  0
   59.2690   33.0100   50.0590 C   0  0  0  0  0  0  0  0  0  0  0  0
   58.4850   31.8570   50.2380 C   0  0  0  0  0  0  0  0  0  0  0  0
   57.9640   31.5470   51.4970 C   0  0  0  0  0  0  0  0  0  0  0  0
   58.2140   32.3870   52.5850 C   0  0  0  0  0  0  0  0  0  0  0  0
   58.9850   33.5410   52.4150 C   0  0  0  0  0  0  0  0  0  0  0  0
   59.5080   33.8530   51.1560 C   0  0  0  0  0  0  0  0  0  0  0  0
   61.0900   33.3520   48.3630 C   0  0  0  0  0  0  0  0  0  0  0  0
   62.2520   33.1160   49.0980 C   0  0  0  0  0  0  0  0  0  0  0  0
   63.4530   33.2520   48.4620 N   0  0  0  0  0  0  0  0  0  0  0  0
   63.5430   33.6190   47.1460 C   0  0  0  0  0  0  0  0  0  0  0  0
   62.3810   33.8830   46.3970 C   0  0  0  0  0  0  0  0  0  0  0  0
   61.1580   33.7370   47.0520 C   0  0  0  0  0  0  0  0  0  0  0  0
   58.4260   29.9550   44.8720 C   0  0  0  0  0  0  0  0  0  0  0  0
   58.9103   27.3794   45.6926 H   0  0  0  0  0  0  0  0  0  0  0  0
   58.3238   26.6166   44.1758 H   0  0  0  0  0  0  0  0  0  0  0  0
   59.8569   27.5526   44.1758 H   0  0  0  0  0  0  0  0  0  0  0  0
   56.8030   27.7596   42.8082 H   0  0  0  0  0  0  0  0  0  0  0  0
   55.5935   29.8531   42.1999 H   0  0  0  0  0  0  0  0  0  0  0  0
   56.1934   32.0119   43.2928 H   0  0  0  0  0  0  0  0  0  0  0  0
   57.8260   32.5340   46.1620 H   0  0  0  0  0  0  0  0  0  0  0  0
   60.3992   34.8358   44.7387 H   0  0  0  0  0  0  0  0  0  0  0  0
   58.8187   35.3393   45.4342 H   0  0  0  0  0  0  0  0  0  0  0  0
   58.2807   31.1957   49.3830 H   0  0  0  0  0  0  0  0  0  0  0  0
   57.3561   30.6402   51.6317 H   0  0  0  0  0  0  0  0  0  0  0  0
   57.8042   32.1405   53.5756 H   0  0  0  0  0  0  0  0  0  0  0  0
   59.1802   34.2033   53.2713 H   0  0  0  0  0  0  0  0  0  0  0  0
   60.1101   34.7641   51.0245 H   0  0  0  0  0  0  0  0  0  0  0  0
   62.2024   32.8288   50.1587 H   0  0  0  0  0  0  0  0  0  0  0  0
   64.5309   33.7082   46.6705 H   0  0  0  0  0  0  0  0  0  0  0  0
   62.4348   34.1907   45.3423 H   0  0  0  0  0  0  0  0  0  0  0  0
   59.2451   29.9871   45.6055 H   0  0  0  0  0  0  0  0  0  0  0  0
  1  2  1  0
  2  3  2  0
  3  4  1  0
  4  5  2  0
  5  6  1  0
  6  7  1  0
  7  8  1  0
  8  9  2  0
  8 10  1  0
 10 11  1  0
 11 12  1  0
 12 13  2  0
 12 14  1  0
 14 15  1  0
 15 16  2  0
 16 17  1  0
 17 18  2  0
 18 19  1  0
 19 20  2  0
 14 21  1  0
 21 22  2  0
 22 23  1  0
 23 24  2  0
 24 25  1  0
 25 26  2  0
  6 27  2  0
 27  2  1  0
 26 11  1  0
 20 15  1  0
 26 21  1  0
  1 28  1  0
  1 29  1  0
  1 30  1  0
  3 31  1  0
  4 32  1  0
  5 33  1  0
  7 34  1  0
 10 35  1  0
 10 36  1  0
 16 37  1  0
 17 38  1  0
 18 39  1  0
 19 40  1  0
 20 41  1  0
 22 42  1  0
 24 43  1  0
 25 44  1  0
 27 45  1  0
M  END
>  <UniqueID>  (4) 
3

>  <SMILES>  (4) 
Cc1cccc(NC(=O)Cn2c(=O)n(-c3ccccc3)c3cnccc32)c1

>  <Energy>  (4) 
98.84492168390946

>  <Genealogy>  (4) 
Cc1cccc(NC(=O)Cn2c(=O)n(-c3ccccc3)c3cnccc32)c1 (3D coordinates assigned)
Cc1cccc(NC(=O)Cn2c(=O)n(-c3ccccc3)c3cnccc32)c1 (optimized conformer: 98.84492168390946 kcal/mol)

>  <smiles>  (4) 
Cc1cccc(NC(=O)Cn2c(=O)n(-c3ccccc3)c3cnccc32)c1

>  <score_type>  (4) 
oracle

>  <origin>  (4) 
adg

>  <m_score__min__energy>  (4) 
-7.5700000000000003

>  <m_primary>  (4) 
energy

$$$$
4:0
     RDKit          3D

 27 29  0  0  0  0  0  0  0  0999 V2000
   59.9380   33.9330   49.5290 C   0  0  0  0  0  0  0  0  0  0  0  0
   61.1180   33.8350   48.5970 C   0  0  0  0  0  0  0  0  0  0  0  0
   62.4130   33.8810   49.1410 C   0  0  0  0  0  0  0  0  0  0  0  0
   63.5360   33.8410   48.3120 C   0  0  0  0  0  0  0  0  0  0  0  0
   63.3800   33.7520   46.9290 C   0  0  0  0  0  0  0  0  0  0  0  0
   62.1020   33.6840   46.3720 C   0  0  0  0  0  0  0  0  0  0  0  0
   60.9610   33.7000   47.1920 C   0  0  0  0  0  0  0  0  0  0  0  0
   59.6360   33.6020   46.5400 C   0  0  0  0  0  0  0  0  0  0  0  0
   59.0730   34.5850   45.8330 C   0  0  0  0  0  0  0  0  0  0  0  0
   57.4320   34.2080   45.1750 S   0  0  0  0  0  0  0  0  0  0  0  0
   57.7010   32.5740   45.8290 C   0  0  0  0  0  0  0  0  0  0  0  0
   57.3430   31.4880   45.2410 N   0  0  0  0  0  0  0  0  0  0  0  0
   58.1330   30.3840   45.7790 C   0  0  0  0  0  0  0  0  0  0  0  0
   59.2500   31.0590   46.5980 C   0  0  0  0  0  0  0  0  0  0  0  0
   58.8200   32.4450   46.6550 N   0  0  0  0  0  0  0  0  0  0  0  0
   60.2901   33.9038   50.5707 H   0  0  0  0  0  0  0  0  0  0  0  0
   59.4056   34.8785   49.3483 H   0  0  0  0  0  0  0  0  0  0  0  0
   59.2569   33.0883   49.3483 H   0  0  0  0  0  0  0  0  0  0  0  0
   62.5433   33.9492   50.2311 H   0  0  0  0  0  0  0  0  0  0  0  0
   64.5443   33.8797   48.7501 H   0  0  0  0  0  0  0  0  0  0  0  0
   64.2653   33.7354   46.2763 H   0  0  0  0  0  0  0  0  0  0  0  0
   61.9868   33.6172   45.2801 H   0  0  0  0  0  0  0  0  0  0  0  0
   59.5703   35.5514   45.6637 H   0  0  0  0  0  0  0  0  0  0  0  0
   57.5137   29.7429   46.4236 H   0  0  0  0  0  0  0  0  0  0  0  0
   58.5345   29.7365   44.9855 H   0  0  0  0  0  0  0  0  0  0  0  0
   59.3189   30.6245   47.6062 H   0  0  0  0  0  0  0  0  0  0  0  0
   60.2492   30.9326   46.1557 H   0  0  0  0  0  0  0  0  0  0  0  0
  1  2  1  0
  2  3  2  0
  3  4  1  0
  4  5  2  0
  5  6  1  0
  6  7  2  0
  7  8  1  0
  8  9  2  0
  9 10  1  0
 10 11  1  0
 11 12  2  0
 12 13  1  0
 13 14  1  0
 14 15  1  0
  7  2  1  0
 15  8  1  0
 15 11  1  0
  1 16  1  0
  1 17  1  0
  1 18  1  0
  3 19  1  0
  4 20  1  0
  5 21  1  0
  6 22  1  0
  9 23  1  0
 13 24  1  0
 13 25  1  0
 14 26  1  0
 14 27  1  0
M  END
>  <UniqueID>  (5) 
4

>  <SMILES>  (5) 
Cc1ccccc1C1=CSC2=NCCN12

>  <Energy>  (5) 
73.84299656443036

>  <Genealogy>  (5) 
Cc1ccccc1C1=CSC2=NCCN12 (3D coordinates assigned)
Cc1ccccc1C1=CSC2=NCCN12 (nonaromatic ring conformer: 73.84299656443036 kcal/mol)

>  <smiles>  (5) 
Cc1ccccc1C1=CSC2=NCCN12

>  <score_type>  (5) 
oracle

>  <origin>  (5) 
adg

>  <m_score__min__energy>  (5) 
-6.5199999999999996

>  <m_primary>  (5) 
energy

$$$$
5:0
     RDKit          3D

 32 33  0  0  0  0  0  0  0  0999 V2000
   56.2670   29.7010   42.7170 C   0  0  0  0  0  0  0  0  0  0  0  0
   55.4460   29.9190   43.9820 C   0  0  0  0  0  0  0  0  0  0  0  0
   56.0660   29.2150   45.1120 N   0  0  0  0  0  0  0  0  0  0  0  0
   57.5360   29.2550   45.0360 C   0  0  0  0  0  0  0  0  0  0  0  0
   58.1170   30.0790   46.1910 C   0  0  0  0  0  0  0  0  0  0  0  0
   58.2410   31.5480   45.8360 C   0  0  0  0  0  0  0  0  0  0  0  0
   57.9270   31.9240   44.5170 C   0  0  0  0  0  0  0  0  0  0  0  0
   58.0420   33.2480   44.1010 C   0  0  0  0  0  0  0  0  0  0  0  0
   58.4820   34.2270   44.9870 C   0  0  0  0  0  0  0  0  0  0  0  0
   58.8200   33.8890   46.3030 C   0  0  0  0  0  0  0  0  0  0  0  0
   59.2780   34.8840   47.1820 C   0  0  0  0  0  0  0  0  0  0  0  0
   59.6330   34.5590   48.4900 C   0  0  0  0  0  0  0  0  0  0  0  0
   59.5330   33.2420   48.9350 C   0  0  0  0  0  0  0  0  0  0  0  0
   59.0760   32.2390   48.0770 C   0  0  0  0  0  0  0  0  0  0  0  0
   58.7070   32.5400   46.7470 C   0  0  0  0  0  0  0  0  0  0  0  0
   57.2967   29.4276   42.9908 H   0  0  0  0  0  0  0  0  0  0  0  0
   55.8180   28.8910   42.1235 H   0  0  0  0  0  0  0  0  0  0  0  0
   56.2790   30.6271   42.1235 H   0  0  0  0  0  0  0  0  0  0  0  0
   55.3994   30.9952   44.2048 H   0  0  0  0  0  0  0  0  0  0  0  0
   54.4308   29.5256   43.8253 H   0  0  0  0  0  0  0  0  0  0  0  0
   55.7660   29.6980   45.9920 H   0  0  0  0  0  0  0  0  0  0  0  0
   57.9283   28.2289   45.0916 H   0  0  0  0  0  0  0  0  0  0  0  0
   57.8279   29.7247   44.0851 H   0  0  0  0  0  0  0  0  0  0  0  0
   57.4568   29.9796   47.0652 H   0  0  0  0  0  0  0  0  0  0  0  0
   59.1252   29.6960   46.4075 H   0  0  0  0  0  0  0  0  0  0  0  0
   57.5853   31.1600   43.8031 H   0  0  0  0  0  0  0  0  0  0  0  0
   57.7839   33.5214   43.0673 H   0  0  0  0  0  0  0  0  0  0  0  0
   58.5646   35.2714   44.6517 H   0  0  0  0  0  0  0  0  0  0  0  0
   59.3570   35.9253   46.8363 H   0  0  0  0  0  0  0  0  0  0  0  0
   59.9927   35.3433   49.1723 H   0  0  0  0  0  0  0  0  0  0  0  0
   59.8156   32.9910   49.9680 H   0  0  0  0  0  0  0  0  0  0  0  0
   59.0026   31.2035   48.4409 H   0  0  0  0  0  0  0  0  0  0  0  0
  1  2  1  0
  2  3  1  0
  3  4  1  0
  4  5  1  0
  5  6  1  0
  6  7  2  0
  7  8  1  0
  8  9  2  0
  9 10  1  0
 10 11  2  0
 11 12  1  0
 12 13  2  0
 13 14  1  0
 14 15  2  0
 15  6  1  0
 15 10  1  0
  1 16  1  0
  1 17  1  0
  1 18  1  0
  2 19  1  0
  2 20  1  0
  3 21  1  0
  4 22  1  0
  4 23  1  0
  5 24  1  0
  5 25  1  0
  7 26  1  0
  8 27  1  0
  9 28  1  0
 11 29  1  0
 12 30  1  0
 13 31  1  0
 14 32  1  0
M  END
>  <UniqueID>  (6) 
5

>  <SMILES>  (6) 
CCNCCc1cccc2ccccc12

>  <Energy>  (6) 
32.25334066077338

>  <Genealogy>  (6) 
CCNCCc1cccc2ccccc12 (3D coordinates assigned)
CCNCCc1cccc2ccccc12 (optimized conformer: 32.25334066077338 kcal/mol)

>  <smiles>  (6) 
CCNCCc1cccc2ccccc12

>  <score_type>  (6) 
oracle

>  <origin>  (6) 
adg

>  <m_score__min__energy>  (6) 
-6.6399999999999997

>  <m_primary>  (6) 
energy

$$$$
6:0
     RDKit          3D

 30 32  0  0  0  0  0  0  0  0999 V2000
   59.6330   36.0770   44.9190 F   0  0  0  0  0  0  0  0  0  0  0  0
   59.2400   34.9390   45.5420 C   0  0  0  0  0  0  0  0  0  0  0  0
   59.3100   34.8490   46.9330 C   0  0  0  0  0  0  0  0  0  0  0  0
   58.9060   33.6810   47.5760 C   0  0  0  0  0  0  0  0  0  0  0  0
   58.4310   32.5970   46.8310 C   0  0  0  0  0  0  0  0  0  0  0  0
   58.3500   32.6640   45.4230 C   0  0  0  0  0  0  0  0  0  0  0  0
   57.8350   31.4840   44.6590 C   0  0  0  0  0  0  0  0  0  0  0  0
   57.0890   31.6030   43.4710 C   0  0  0  0  0  0  0  0  0  0  0  0
   56.6530   30.4450   42.8300 C   0  0  0  0  0  0  0  0  0  0  0  0
   56.9460   29.2280   43.3480 N   0  0  0  0  0  0  0  0  0  0  0  0
   57.6660   29.1090   44.4950 C   0  0  0  0  0  0  0  0  0  0  0  0
   57.9810   27.7700   45.0520 C   0  0  0  0  0  0  0  0  0  0  0  0
   58.8790   27.6370   46.1270 C   0  0  0  0  0  0  0  0  0  0  0  0
   59.1620   26.3700   46.6370 C   0  0  0  0  0  0  0  0  0  0  0  0
   58.5550   25.2460   46.0800 C   0  0  0  0  0  0  0  0  0  0  0  0
   57.6700   25.4060   45.0150 C   0  0  0  0  0  0  0  0  0  0  0  0
   57.4010   26.6480   44.5260 N   0  0  0  0  0  0  0  0  0  0  0  0
   58.0980   30.2310   45.1300 N   0  0  0  0  0  0  0  0  0  0  0  0
   58.7650   33.8590   44.7900 C   0  0  0  0  0  0  0  0  0  0  0  0
   59.6840   35.6999   47.5213 H   0  0  0  0  0  0  0  0  0  0  0  0
   58.9608   33.6113   48.6724 H   0  0  0  0  0  0  0  0  0  0  0  0
   58.1161   31.6793   47.3492 H   0  0  0  0  0  0  0  0  0  0  0  0
   56.8541   32.5940   43.0555 H   0  0  0  0  0  0  0  0  0  0  0  0
   56.0692   30.5193   41.9007 H   0  0  0  0  0  0  0  0  0  0  0  0
   59.3554   28.5275   46.5629 H   0  0  0  0  0  0  0  0  0  0  0  0
   59.8630   26.2582   47.4773 H   0  0  0  0  0  0  0  0  0  0  0  0
   58.7720   24.2432   46.4766 H   0  0  0  0  0  0  0  0  0  0  0  0
   57.1867   24.5249   44.5676 H   0  0  0  0  0  0  0  0  0  0  0  0
   56.7310   26.7230   43.7270 H   0  0  0  0  0  0  0  0  0  0  0  0
   58.7137   33.9401   43.6942 H   0  0  0  0  0  0  0  0  0  0  0  0
  1  2  1  0
  2  3  2  0
  3  4  1  0
  4  5  2  0
  5  6  1  0
  6  7  1  0
  7  8  2  0
  8  9  1  0
  9 10  2  0
 10 11  1  0
 11 12  1  0
 12 13  2  0
 13 14  1  0
 14 15  2  0
 15 16  1  0
 16 17  2  0
 11 18  2  0
  6 19  2  0
 19  2  1  0
 18  7  1  0
 17 12  1  0
  3 20  1  0
  4 21  1  0
  5 22  1  0
  8 23  1  0
  9 24  1  0
 13 25  1  0
 14 26  1  0
 15 27  1  0
 16 28  1  0
 17 29  1  0
 19 30  1  0
M  CHG  1  17   1
M  END
>  <UniqueID>  (7) 
6

>  <SMILES>  (7) 
Fc1cccc(-c2ccnc(-c3cccc[nH+]3)n2)c1

>  <Energy>  (7) 
39.821627646681165

>  <Genealogy>  (7) 
Fc1cccc(-c2ccnc(-c3cccc[nH+]3)n2)c1 (protonated)
Fc1cccc(-c2ccnc(-c3cccc[nH+]3)n2)c1 (3D coordinates assigned)
Fc1cccc(-c2ccnc(-c3cccc[nH+]3)n2)c1 (optimized conformer: 39.821627646681165 kcal/mol)

>  <smiles>  (7) 
Fc1cccc(-c2ccnc(-c3ccccn3)n2)c1

>  <score_type>  (7) 
oracle

>  <origin>  (7) 
adg

>  <m_score__min__energy>  (7) 
-5.4699999999999998

>  <m_primary>  (7) 
energy

$$$$
7:0
     RDKit          3D

 60 63  0  0  0  0  0  0  0  0999 V2000
   62.6220   34.6640   49.7640 C   0  0  0  0  0  0  0  0  0  0  0  0
   63.4540   34.4340   50.8970 O   0  0  0  0  0  0  0  0  0  0  0  0
   64.6690   33.7300   50.8620 C   0  0  0  0  0  0  0  0  0  0  0  0
   65.8450   34.2470   51.4440 C   0  0  0  0  0  0  0  0  0  0  0  0
   67.0420   33.5320   51.3750 C   0  0  0  0  0  0  0  0  0  0  0  0
   67.0840   32.3020   50.7210 C   0  0  0  0  0  0  0  0  0  0  0  0
   65.9260   31.7770   50.1410 C   0  0  0  0  0  0  0  0  0  0  0  0
   64.7120   32.4780   50.2140 C   0  0  0  0  0  0  0  0  0  0  0  0
   63.5230   31.9060   49.6400 N   0  0  0  0  0  0  0  0  0  0  0  0
   63.4710   31.5930   48.2030 C   0  0  0  0  0  0  0  0  0  0  0  0
   62.1090   31.9930   47.6200 C   0  0  0  0  0  0  0  0  0  0  0  0
   60.9960   31.6300   48.5170 N   0  0  0  0  0  0  0  0  0  0  0  0
   59.7110   32.2660   48.3570 C   0  0  0  0  0  0  0  0  0  0  0  0
   59.0030   32.5080   49.3720 O   0  0  0  0  0  0  0  0  0  0  0  0
   59.2100   32.6880   47.0310 C   0  0  0  0  0  0  0  0  0  0  0  0
   59.0760   34.0540   46.7370 C   0  0  0  0  0  0  0  0  0  0  0  0
   58.6160   34.4640   45.4840 C   0  0  0  0  0  0  0  0  0  0  0  0
   58.2690   33.5150   44.5200 C   0  0  0  0  0  0  0  0  0  0  0  0
   58.3540   32.1440   44.8080 C   0  0  0  0  0  0  0  0  0  0  0  0
   57.9990   31.1910   43.7920 N   0  0  0  0  0  0  0  0  0  0  0  0
   56.7720   30.4440   43.7730 C   0  0  0  0  0  0  0  0  0  0  0  0
   55.8100   30.7740   44.5160 O   0  0  0  0  0  0  0  0  0  0  0  0
   56.5910   29.3410   42.7780 C   0  0  0  0  0  0  0  0  0  0  0  0
   57.3840   28.2150   43.1470 O   0  0  0  0  0  0  0  0  0  0  0  0
   58.0960   28.1100   44.3530 C   0  0  0  0  0  0  0  0  0  0  0  0
   59.4980   28.2430   44.4130 C   0  0  0  0  0  0  0  0  0  0  0  0
   60.1630   28.1260   45.6370 C   0  0  0  0  0  0  0  0  0  0  0  0
   59.4420   27.8730   46.8070 C   0  0  0  0  0  0  0  0  0  0  0  0
   58.0520   27.7410   46.7550 C   0  0  0  0  0  0  0  0  0  0  0  0
   57.3820   27.8610   45.5340 C   0  0  0  0  0  0  0  0  0  0  0  0
   56.0330   27.7360   45.4970 F   0  0  0  0  0  0  0  0  0  0  0  0
   58.8360   31.7360   46.0660 C   0  0  0  0  0  0  0  0  0  0  0  0
   61.2880   30.8550   49.7320 C   0  0  0  0  0  0  0  0  0  0  0  0
   62.4000   31.5500   50.5200 C   0  0  0  0  0  0  0  0  0  0  0  0
   61.6127   34.9430   50.1008 H   0  0  0  0  0  0  0  0  0  0  0  0
   63.0447   35.4790   49.1581 H   0  0  0  0  0  0  0  0  0  0  0  0
   62.5661   33.7476   49.1581 H   0  0  0  0  0  0  0  0  0  0  0  0
   65.8189   35.2203   51.9558 H   0  0  0  0  0  0  0  0  0  0  0  0
   67.9530   33.9398   51.8373 H   0  0  0  0  0  0  0  0  0  0  0  0
   68.0299   31.7437   50.6613 H   0  0  0  0  0  0  0  0  0  0  0  0
   65.9661   30.8072   49.6234 H   0  0  0  0  0  0  0  0  0  0  0  0
   64.2657   32.1470   47.6819 H   0  0  0  0  0  0  0  0  0  0  0  0
   63.6147   30.5110   48.0669 H   0  0  0  0  0  0  0  0  0  0  0  0
   62.0965   33.0814   47.4611 H   0  0  0  0  0  0  0  0  0  0  0  0
   61.9725   31.4510   46.6726 H   0  0  0  0  0  0  0  0  0  0  0  0
   59.3347   34.8053   47.4976 H   0  0  0  0  0  0  0  0  0  0  0  0
   58.5268   35.5364   45.2558 H   0  0  0  0  0  0  0  0  0  0  0  0
   57.9266   33.8444   43.5279 H   0  0  0  0  0  0  0  0  0  0  0  0
   58.6340   31.0990   42.9630 H   0  0  0  0  0  0  0  0  0  0  0  0
   55.5315   29.0465   42.7496 H   0  0  0  0  0  0  0  0  0  0  0  0
   56.9071   29.6950   41.7857 H   0  0  0  0  0  0  0  0  0  0  0  0
   60.0703   28.4394   43.4943 H   0  0  0  0  0  0  0  0  0  0  0  0
   61.2569   28.2334   45.6793 H   0  0  0  0  0  0  0  0  0  0  0  0
   59.9684   27.7778   47.7682 H   0  0  0  0  0  0  0  0  0  0  0  0
   57.4842   27.5424   47.6760 H   0  0  0  0  0  0  0  0  0  0  0  0
   58.9208   30.6637   46.2961 H   0  0  0  0  0  0  0  0  0  0  0  0
   60.3825   30.7906   50.3532 H   0  0  0  0  0  0  0  0  0  0  0  0
   61.6119   29.8413   49.4535 H   0  0  0  0  0  0  0  0  0  0  0  0
   61.9981   32.4652   50.9792 H   0  0  0  0  0  0  0  0  0  0  0  0
   62.7657   30.8601   51.2948 H   0  0  0  0  0  0  0  0  0  0  0  0
  1  2  1  0
  2  3  1  0
  3  4  2  0
  4  5  1  0
  5  6  2  0
  6  7  1  0
  7  8  2  0
  8  9  1  0
  9 10  1  0
 10 11  1  0
 11 12  1  0
 12 13  1  0
 13 14  2  0
 13 15  1  0
 15 16  2  0
 16 17  1  0
 17 18  2  0
 18 19  1  0
 19 20  1  0
 20 21  1  0
 21 22  2  0
 21 23  1  0
 23 24  1  0
 24 25  1  0
 25 26  2  0
 26 27  1  0
 27 28  2  0
 28 29  1  0
 29 30  2  0
 30 31  1  0
 19 32  2  0
 12 33  1  0
 33 34  1  0
  8  3  1  0
 34  9  1  0
 32 15  1  0
 30 25  1  0
  1 35  1  0
  1 36  1  0
  1 37  1  0
  4 38  1  0
  5 39  1  0
  6 40  1  0
  7 41  1  0
 10 42  1  0
 10 43  1  0
 11 44  1  0
 11 45  1  0
 16 46  1  0
 17 47  1  0
 18 48  1  0
 20 49  1  0
 23 50  1  0
 23 51  1  0
 26 52  1  0
 27 53  1  0
 28 54  1  0
 29 55  1  0
 32 56  1  0
 33 57  1  0
 33 58  1  0
 34 59  1  0
 34 60  1  0
M  END
>  <UniqueID>  (8) 
7

>  <SMILES>  (8) 
COc1ccccc1N1CCN(C(=O)c2cccc(NC(=O)COc3ccccc3F)c2)CC1

>  <Energy>  (8) 
75.96515150034114

>  <Genealogy>  (8) 
COc1ccccc1N1CCN(C(=O)c2cccc(NC(=O)COc3ccccc3F)c2)CC1 (3D coordinates assigned)
COc1ccccc1N1CCN(C(=O)c2cccc(NC(=O)COc3ccccc3F)c2)CC1 (nonaromatic ring conformer: 75.96515150034114 kcal/mol)

>  <smiles>  (8) 
COc1ccccc1N1CCN(C(=O)c2cccc(NC(=O)COc3ccccc3F)c2)CC1

>  <score_type>  (8) 
oracle

>  <origin>  (8) 
adg

>  <m_score__min__energy>  (8) 
-9.3300000000000001

>  <m_primary>  (8) 
energy

$$$$
8:0
     RDKit          3D

 59 62  0  0  0  0  0  0  0  0999 V2000
   59.2740   34.5400   44.6870 C   0  0  0  0  0  0  0  0  0  0  0  0
   57.8840   34.2450   45.2440 C   0  0  0  0  0  0  0  0  0  0  0  0
   57.9550   33.8600   46.7310 C   0  0  0  0  0  0  0  0  0  0  0  0
   58.9940   34.6790   47.5100 C   0  0  0  0  0  0  0  0  0  0  0  0
   59.8970   33.8030   48.3900 C   0  0  0  0  0  0  0  0  0  0  0  0
   61.2630   33.5040   47.7450 C   0  0  0  0  0  0  0  0  0  0  0  0
   61.8880   32.1460   48.1190 C   0  0  0  0  0  0  0  0  0  0  0  0
   61.6550   31.0480   47.0740 C   0  0  0  0  0  0  0  0  0  0  0  0
   60.2530   30.8630   46.8760 O   0  0  0  0  0  0  0  0  0  0  0  0
   59.6570   29.7260   46.3010 C   0  0  0  0  0  0  0  0  0  0  0  0
   59.9970   28.4330   46.7220 C   0  0  0  0  0  0  0  0  0  0  0  0
   59.4280   27.3060   46.1240 C   0  0  0  0  0  0  0  0  0  0  0  0
   59.8050   26.0300   46.5640 C   0  0  0  0  0  0  0  0  0  0  0  0
   59.2500   24.9050   45.9700 C   0  0  0  0  0  0  0  0  0  0  0  0
   58.3380   25.0310   44.9600 N   0  0  0  0  0  0  0  0  0  0  0  0
   57.7740   23.8470   44.3660 C   0  0  0  0  0  0  0  0  0  0  0  0
   56.6310   23.9350   43.5470 C   0  0  0  0  0  0  0  0  0  0  0  0
   56.0860   22.7840   42.9710 C   0  0  0  0  0  0  0  0  0  0  0  0
   56.6760   21.5380   43.2040 C   0  0  0  0  0  0  0  0  0  0  0  0
   57.8130   21.4400   44.0150 C   0  0  0  0  0  0  0  0  0  0  0  0
   58.3600   22.5880   44.5960 C   0  0  0  0  0  0  0  0  0  0  0  0
   57.9480   26.2620   44.5160 C   0  0  0  0  0  0  0  0  0  0  0  0
   58.4820   27.4460   45.0790 C   0  0  0  0  0  0  0  0  0  0  0  0
   58.1140   28.7570   44.6450 C   0  0  0  0  0  0  0  0  0  0  0  0
   57.1790   28.9880   43.6020 C   0  0  0  0  0  0  0  0  0  0  0  0
   56.8370   30.2840   43.2170 C   0  0  0  0  0  0  0  0  0  0  0  0
   57.4030   31.3790   43.8560 C   0  0  0  0  0  0  0  0  0  0  0  0
   58.3280   31.1900   44.8780 C   0  0  0  0  0  0  0  0  0  0  0  0
   58.7050   29.8910   45.2770 C   0  0  0  0  0  0  0  0  0  0  0  0
   59.9782   34.6894   45.5187 H   0  0  0  0  0  0  0  0  0  0  0  0
   59.6093   33.6930   44.0704 H   0  0  0  0  0  0  0  0  0  0  0  0
   59.2364   35.4502   44.0704 H   0  0  0  0  0  0  0  0  0  0  0  0
   57.2552   35.1409   45.1343 H   0  0  0  0  0  0  0  0  0  0  0  0
   57.4546   33.4010   44.6842 H   0  0  0  0  0  0  0  0  0  0  0  0
   56.9663   34.0249   47.1841 H   0  0  0  0  0  0  0  0  0  0  0  0
   58.2583   32.8040   46.7850 H   0  0  0  0  0  0  0  0  0  0  0  0
   59.6239   35.2239   46.7914 H   0  0  0  0  0  0  0  0  0  0  0  0
   58.4477   35.3660   48.1731 H   0  0  0  0  0  0  0  0  0  0  0  0
   60.0668   34.3232   49.3442 H   0  0  0  0  0  0  0  0  0  0  0  0
   59.3833   32.8406   48.5311 H   0  0  0  0  0  0  0  0  0  0  0  0
   61.1353   33.5294   46.6527 H   0  0  0  0  0  0  0  0  0  0  0  0
   61.9529   34.2706   48.1276 H   0  0  0  0  0  0  0  0  0  0  0  0
   62.9725   32.2850   48.2400 H   0  0  0  0  0  0  0  0  0  0  0  0
   61.3998   31.8136   49.0470 H   0  0  0  0  0  0  0  0  0  0  0  0
   62.1230   31.3427   46.1231 H   0  0  0  0  0  0  0  0  0  0  0  0
   62.1006   30.1068   47.4284 H   0  0  0  0  0  0  0  0  0  0  0  0
   60.7242   28.3035   47.5371 H   0  0  0  0  0  0  0  0  0  0  0  0
   60.5379   25.9204   47.3769 H   0  0  0  0  0  0  0  0  0  0  0  0
   59.5467   23.9036   46.3151 H   0  0  0  0  0  0  0  0  0  0  0  0
   56.1654   24.9139   43.3600 H   0  0  0  0  0  0  0  0  0  0  0  0
   55.1923   22.8585   42.3340 H   0  0  0  0  0  0  0  0  0  0  0  0
   56.2461   20.6333   42.7494 H   0  0  0  0  0  0  0  0  0  0  0  0
   58.2764   20.4588   44.1953 H   0  0  0  0  0  0  0  0  0  0  0  0
   59.2516   22.5071   45.2352 H   0  0  0  0  0  0  0  0  0  0  0  0
   57.2062   26.3349   43.7070 H   0  0  0  0  0  0  0  0  0  0  0  0
   56.7171   28.1313   43.0895 H   0  0  0  0  0  0  0  0  0  0  0  0
   56.1145   30.4396   42.4022 H   0  0  0  0  0  0  0  0  0  0  0  0
   57.1196   32.3980   43.5537 H   0  0  0  0  0  0  0  0  0  0  0  0
   58.7700   32.0632   45.3802 H   0  0  0  0  0  0  0  0  0  0  0  0
  1  2  1  0
  2  3  1  0
  3  4  1  0
  4  5  1  0
  5  6  1  0
  6  7  1  0
  7  8  1  0
  8  9  1  0
  9 10  1  0
 10 11  2  0
 11 12  1  0
 12 13  2  0
 13 14  1  0
 14 15  2  0
 15 16  1  0
 16 17  2  0
 17 18  1  0
 18 19  2  0
 19 20  1  0
 20 21  2  0
 15 22  1  0
 22 23  2  0
 23 24  1  0
 24 25  2  0
 25 26  1  0
 26 27  2  0
 27 28  1  0
 28 29  2  0
 29 10  1  0
 23 12  1  0
 29 24  1  0
 21 16  1  0
  1 30  1  0
  1 31  1  0
  1 32  1  0
  2 33  1  0
  2 34  1  0
  3 35  1  0
  3 36  1  0
  4 37  1  0
  4 38  1  0
  5 39  1  0
  5 40  1  0
  6 41  1  0
  6 42  1  0
  7 43  1  0
  7 44  1  0
  8 45  1  0
  8 46  1  0
 11 47  1  0
 13 48  1  0
 14 49  1  0
 17 50  1  0
 18 51  1  0
 19 52  1  0
 20 53  1  0
 21 54  1  0
 22 55  1  0
 25 56  1  0
 26 57  1  0
 27 58  1  0
 28 59  1  0
M  CHG  1  15   1
M  END
>  <UniqueID>  (9) 
8

>  <SMILES>  (9) 
CCCCCCCCOc1cc2cc[n+](-c3ccccc3)cc2c2ccccc12

>  <Energy>  (9) 
68.83211214043199

>  <Genealogy>  (9) 
CCCCCCCCOc1cc2cc[n+](-c3ccccc3)cc2c2ccccc12 (3D coordinates assigned)
CCCCCCCCOc1cc2cc[n+](-c3ccccc3)cc2c2ccccc12 (optimized conformer: 68.83211214043199 kcal/mol)

>  <smiles>  (9) 
CCCCCCCCOc1cc2cc[n+](-c3ccccc3)cc2c2ccccc12

>  <score_type>  (9) 
oracle

>  <origin>  (9) 
adg

>  <m_score__min__energy>  (9) 
-7.3700000000000001

>  <m_primary>  (9) 
energy

$$$$
9:0
     RDKit          3D

 30 32  0  0  0  0  0  0  0  0999 V2000
   63.5430   33.4310   48.3380 C   0  0  0  0  0  0  0  0  0  0  0  0
   63.3570   33.4510   46.9530 C   0  0  0  0  0  0  0  0  0  0  0  0
   62.1270   33.8420   46.4160 C   0  0  0  0  0  0  0  0  0  0  0  0
   61.0690   34.2090   47.2650 C   0  0  0  0  0  0  0  0  0  0  0  0
   59.7590   34.6770   46.6860 C   0  0  0  0  0  0  0  0  0  0  0  0
   58.6170   33.7120   47.0290 C   0  0  0  0  0  0  0  0  0  0  0  0
   58.1320   33.0350   45.8300 N   0  0  0  0  0  0  0  0  0  0  0  0
   58.3740   33.4220   44.5540 C   0  0  0  0  0  0  0  0  0  0  0  0
   57.8150   32.4700   43.7370 C   0  0  0  0  0  0  0  0  0  0  0  0
   57.7570   32.3240   42.3570 C   0  0  0  0  0  0  0  0  0  0  0  0
   57.1240   31.2200   41.8580 N   0  0  0  0  0  0  0  0  0  0  0  0
   56.5590   30.2740   42.6750 C   0  0  0  0  0  0  0  0  0  0  0  0
   56.6180   30.4130   44.0760 C   0  0  0  0  0  0  0  0  0  0  0  0
   57.2620   31.5410   44.5700 C   0  0  0  0  0  0  0  0  0  0  0  0
   57.4610   31.8860   45.8540 N   0  0  0  0  0  0  0  0  0  0  0  0
   61.2660   34.1950   48.6560 C   0  0  0  0  0  0  0  0  0  0  0  0
   62.4980   33.8050   49.1890 C   0  0  0  0  0  0  0  0  0  0  0  0
   64.5110   33.1212   48.7587 H   0  0  0  0  0  0  0  0  0  0  0  0
   64.1800   33.1585   46.2843 H   0  0  0  0  0  0  0  0  0  0  0  0
   61.9868   33.8625   45.3252 H   0  0  0  0  0  0  0  0  0  0  0  0
   59.5223   35.6707   47.0942 H   0  0  0  0  0  0  0  0  0  0  0  0
   59.8599   34.7177   45.5914 H   0  0  0  0  0  0  0  0  0  0  0  0
   58.9825   32.9606   47.7444 H   0  0  0  0  0  0  0  0  0  0  0  0
   57.7889   34.2879   47.4679 H   0  0  0  0  0  0  0  0  0  0  0  0
   58.9144   34.3251   44.2341 H   0  0  0  0  0  0  0  0  0  0  0  0
   58.2059   33.0724   41.6874 H   0  0  0  0  0  0  0  0  0  0  0  0
   56.0564   29.4008   42.2334 H   0  0  0  0  0  0  0  0  0  0  0  0
   56.1747   29.6631   44.7477 H   0  0  0  0  0  0  0  0  0  0  0  0
   60.4476   34.4921   49.3283 H   0  0  0  0  0  0  0  0  0  0  0  0
   62.6458   33.7922   50.2790 H   0  0  0  0  0  0  0  0  0  0  0  0
  1  2  2  0
  2  3  1  0
  3  4  2  0
  4  5  1  0
  5  6  1  0
  6  7  1  0
  7  8  1  0
  8  9  2  0
  9 10  1  0
 10 11  2  0
 11 12  1  0
 12 13  2  0
 13 14  1  0
 14 15  2  0
  4 16  1  0
 16 17  2  0
 17  1  1  0
 15  7  1  0
 14  9  1  0
  1 18  1  0
  2 19  1  0
  3 20  1  0
  5 21  1  0
  5 22  1  0
  6 23  1  0
  6 24  1  0
  8 25  1  0
 10 26  1  0
 12 27  1  0
 13 28  1  0
 16 29  1  0
 17 30  1  0
M  END
>  <UniqueID>  (10) 
9

>  <SMILES>  (10) 
c1ccc(CCn2cc3cnccc3n2)cc1

>  <Energy>  (10) 
67.68511744916107

>  <Genealogy>  (10) 
c1ccc(CCn2cc3cnccc3n2)cc1 (3D coordinates assigned)
c1ccc(CCn2cc3cnccc3n2)cc1 (optimized conformer: 67.68511744916107 kcal/mol)

>  <smiles>  (10) 
c1ccc(CCn2cc3cnccc3n2)cc1

>  <score_type>  (10) 
oracle

>  <origin>  (10) 
adg

>  <m_score__min__energy>  (10) 
-6.6200000000000001

>  <m_primary>  (10) 
energy

$$$$
10:0
     RDKit          3D

 61 65  0  0  0  0  0  0  0  0999 V2000
   58.9340   27.6920   47.1260 C   0  0  0  0  0  0  0  0  0  0  0  0
   59.6540   28.9710   47.4360 C   0  0  0  0  0  0  0  0  0  0  0  0
   60.5190   29.5390   46.4930 C   0  0  0  0  0  0  0  0  0  0  0  0
   61.1690   30.7440   46.7690 C   0  0  0  0  0  0  0  0  0  0  0  0
   60.9300   31.4320   47.9760 C   0  0  0  0  0  0  0  0  0  0  0  0
   60.0720   30.8480   48.9330 C   0  0  0  0  0  0  0  0  0  0  0  0
   59.4290   29.6300   48.6500 C   0  0  0  0  0  0  0  0  0  0  0  0
   59.8570   31.5110   50.2720 C   0  0  0  0  0  0  0  0  0  0  0  0
   61.1020   31.4770   51.1770 C   0  0  0  0  0  0  0  0  0  0  0  0
   62.4970   31.7340   50.5970 C   0  0  0  0  0  0  0  0  0  0  0  0
   63.5690   31.3950   51.4410 C   0  0  0  0  0  0  0  0  0  0  0  0
   64.8850   31.5570   51.0300 C   0  0  0  0  0  0  0  0  0  0  0  0
   65.1430   32.0600   49.7640 C   0  0  0  0  0  0  0  0  0  0  0  0
   64.1200   32.4060   48.9410 N   0  0  0  0  0  0  0  0  0  0  0  0
   62.8040   32.2950   49.3170 C   0  0  0  0  0  0  0  0  0  0  0  0
   61.6950   32.6950   48.3550 C   0  0  1  0  0  0  0  0  0  0  0  0
   62.1370   33.5850   47.1620 C   0  0  0  0  0  0  0  0  0  0  0  0
   61.0210   33.7510   46.1110 C   0  0  0  0  0  0  0  0  0  0  0  0
   59.9770   34.7110   46.5480 N   0  0  0  0  0  0  0  0  0  0  0  0
   59.2770   35.3220   45.3890 C   0  0  0  0  0  0  0  0  0  0  0  0
   57.9250   34.6560   45.0450 C   0  0  0  0  0  0  0  0  0  0  0  0
   57.8790   33.2650   45.5160 N   0  0  0  0  0  0  0  0  0  0  0  0
   57.4570   32.1970   44.6360 C   0  0  0  0  0  0  0  0  0  0  0  0
   57.7340   32.2320   43.2560 C   0  0  0  0  0  0  0  0  0  0  0  0
   57.3000   31.1850   42.4390 C   0  0  0  0  0  0  0  0  0  0  0  0
   56.5980   30.1150   42.9930 C   0  0  0  0  0  0  0  0  0  0  0  0
   56.3400   30.1070   44.3630 C   0  0  0  0  0  0  0  0  0  0  0  0
   56.7690   31.1340   45.1440 N   0  0  0  0  0  0  0  0  0  0  0  0
   58.2020   33.0000   46.9270 C   0  0  0  0  0  0  0  0  0  0  0  0
   59.0170   34.1540   47.5270 C   0  0  0  0  0  0  0  0  0  0  0  0
   58.6529   27.1926   48.0649 H   0  0  0  0  0  0  0  0  0  0  0  0
   58.0279   27.9133   46.5429 H   0  0  0  0  0  0  0  0  0  0  0  0
   59.5932   27.0322   46.5429 H   0  0  0  0  0  0  0  0  0  0  0  0
   60.6875   29.0340   45.5304 H   0  0  0  0  0  0  0  0  0  0  0  0
   61.8755   31.1610   46.0362 H   0  0  0  0  0  0  0  0  0  0  0  0
   58.7430   29.1911   49.3894 H   0  0  0  0  0  0  0  0  0  0  0  0
   59.5789   32.5614   50.1005 H   0  0  0  0  0  0  0  0  0  0  0  0
   59.0640   30.9505   50.7887 H   0  0  0  0  0  0  0  0  0  0  0  0
   60.9426   32.2335   51.9595 H   0  0  0  0  0  0  0  0  0  0  0  0
   61.1540   30.4219   51.4836 H   0  0  0  0  0  0  0  0  0  0  0  0
   63.3614   30.9945   52.4443 H   0  0  0  0  0  0  0  0  0  0  0  0
   65.7141   31.2892   51.7014 H   0  0  0  0  0  0  0  0  0  0  0  0
   66.1824   32.1794   49.4244 H   0  0  0  0  0  0  0  0  0  0  0  0
   64.3900   32.7640   48.0000 H   0  0  0  0  0  0  0  0  0  0  0  0
   61.0116   33.3870   48.8689 H   0  0  0  0  0  0  0  0  0  0  0  0
   62.4129   34.5786   47.5450 H   0  0  0  0  0  0  0  0  0  0  0  0
   62.9899   33.0923   46.6723 H   0  0  0  0  0  0  0  0  0  0  0  0
   61.4679   34.1159   45.1745 H   0  0  0  0  0  0  0  0  0  0  0  0
   60.5411   32.7712   45.9708 H   0  0  0  0  0  0  0  0  0  0  0  0
   59.0917   36.3820   45.6171 H   0  0  0  0  0  0  0  0  0  0  0  0
   59.9303   35.1832   44.5149 H   0  0  0  0  0  0  0  0  0  0  0  0
   57.1139   35.2235   45.5246 H   0  0  0  0  0  0  0  0  0  0  0  0
   57.8067   34.6559   43.9514 H   0  0  0  0  0  0  0  0  0  0  0  0
   58.2885   33.0781   42.8239 H   0  0  0  0  0  0  0  0  0  0  0  0
   57.5119   31.2047   41.3598 H   0  0  0  0  0  0  0  0  0  0  0  0
   56.2520   29.2872   42.3566 H   0  0  0  0  0  0  0  0  0  0  0  0
   55.7884   29.2684   44.8129 H   0  0  0  0  0  0  0  0  0  0  0  0
   57.2672   32.8854   47.4953 H   0  0  0  0  0  0  0  0  0  0  0  0
   58.8009   32.0791   46.9841 H   0  0  0  0  0  0  0  0  0  0  0  0
   58.3278   34.9506   47.8437 H   0  0  0  0  0  0  0  0  0  0  0  0
   59.5868   33.7635   48.3830 H   0  0  0  0  0  0  0  0  0  0  0  0
  1  2  1  0
  2  3  2  0
  3  4  1  0
  4  5  2  0
  5  6  1  0
  6  7  2  0
  6  8  1  0
  8  9  1  0
  9 10  1  0
 10 11  2  0
 11 12  1  0
 12 13  2  0
 13 14  1  0
 14 15  2  0
 15 16  1  0
 16 17  1  0
 17 18  1  0
 18 19  1  0
 19 20  1  0
 20 21  1  0
 21 22  1  0
 22 23  1  0
 23 24  2  0
 24 25  1  0
 25 26  2  0
 26 27  1  0
 27 28  2  0
 22 29  1  0
 29 30  1  0
  7  2  1  0
 15 10  1  0
 30 19  1  0
 16  5  1  0
 28 23  1  0
  1 31  1  0
  1 32  1  0
  1 33  1  0
  3 34  1  0
  4 35  1  0
  7 36  1  0
  8 37  1  0
  8 38  1  0
  9 39  1  0
  9 40  1  0
 11 41  1  0
 12 42  1  0
 13 43  1  0
 14 44  1  0
 16 45  1  1
 17 46  1  0
 17 47  1  0
 18 48  1  0
 18 49  1  0
 20 50  1  0
 20 51  1  0
 21 52  1  0
 21 53  1  0
 24 54  1  0
 25 55  1  0
 26 56  1  0
 27 57  1  0
 29 58  1  0
 29 59  1  0
 30 60  1  0
 30 61  1  0
M  CHG  1  14   1
M  END
>  <UniqueID>  (11) 
10

>  <SMILES>  (11) 
Cc1ccc2c(c1)CCc1ccc[nH+]c1[C@H]2CCN1CCN(c2ccccn2)CC1

>  <Energy>  (11) 
95.84042740063418

>  <Genealogy>  (11) 
Cc1ccc2c(c1)CCc1ccc[nH+]c1C2CCN1CCN(c2ccccn2)CC1 (protonated)
Cc1ccc2c(c1)CCc1ccc[nH+]c1[C@H]2CCN1CCN(c2ccccn2)CC1 (chirality)
Cc1ccc2c(c1)CCc1ccc[nH+]c1[C@H]2CCN1CCN(c2ccccn2)CC1 (3D coordinates assigned)
Cc1ccc2c(c1)CCc1ccc[nH+]c1[C@H]2CCN1CCN(c2ccccn2)CC1 (nonaromatic ring conformer: 95.84042740063418 kcal/mol)

>  <smiles>  (11) 
Cc1ccc2c(c1)CCc1cccnc1C2CCN1CCN(c2ccccn2)CC1

>  <score_type>  (11) 
oracle

>  <origin>  (11) 
adg

>  <m_score__min__energy>  (11) 
-6.8600000000000003

>  <m_primary>  (11) 
energy

$$$$
11:0
     RDKit          3D

 71 73  0  0  0  0  0  0  0  0999 V2000
   55.2460   29.7420   43.9850 C   0  0  0  0  0  0  0  0  0  0  0  0
   56.6080   29.8660   43.3090 C   0  0  0  0  0  0  0  0  0  0  0  0
   57.6560   30.1740   44.3100 N   0  0  0  0  0  0  0  0  0  0  0  0
   58.4180   31.3850   43.9290 C   0  0  0  0  0  0  0  0  0  0  0  0
   57.8620   32.0010   42.6450 C   0  0  0  0  0  0  0  0  0  0  0  0
   58.5630   29.0150   44.4930 C   0  0  0  0  0  0  0  0  0  0  0  0
   59.4810   29.2140   45.7090 C   0  0  0  0  0  0  0  0  0  0  0  0
   59.2690   28.1490   46.7200 N   0  0  0  0  0  0  0  0  0  0  0  0
   59.7530   28.5760   48.0520 C   0  0  0  0  0  0  0  0  0  0  0  0
   58.9140   29.7480   48.5810 C   0  0  0  0  0  0  0  0  0  0  0  0
   59.6550   31.0160   48.4080 N   0  0  0  0  0  0  0  0  0  0  0  0
   60.8470   31.0700   49.2840 C   0  0  0  0  0  0  0  0  0  0  0  0
   61.8470   32.0490   48.7250 C   0  0  0  0  0  0  0  0  0  0  0  0
   62.0770   33.2800   49.3600 C   0  0  0  0  0  0  0  0  0  0  0  0
   63.0340   34.1640   48.8510 C   0  0  0  0  0  0  0  0  0  0  0  0
   63.7680   33.8240   47.7120 C   0  0  0  0  0  0  0  0  0  0  0  0
   63.5430   32.6000   47.0760 C   0  0  0  0  0  0  0  0  0  0  0  0
   62.5850   31.7160   47.5770 C   0  0  0  0  0  0  0  0  0  0  0  0
   58.7730   32.1810   48.6400 C   0  0  0  0  0  0  0  0  0  0  0  0
   58.6540   33.0060   47.3860 C   0  0  0  0  0  0  0  0  0  0  0  0
   59.7730   33.6770   46.8620 C   0  0  0  0  0  0  0  0  0  0  0  0
   59.6470   34.4640   45.7130 C   0  0  0  0  0  0  0  0  0  0  0  0
   58.4070   34.5890   45.0800 C   0  0  0  0  0  0  0  0  0  0  0  0
   57.2880   33.9310   45.6010 C   0  0  0  0  0  0  0  0  0  0  0  0
   57.4070   33.1510   46.7540 C   0  0  0  0  0  0  0  0  0  0  0  0
   57.8390   27.7650   46.7790 C   0  0  0  0  0  0  0  0  0  0  0  0
   57.6590   26.3660   46.2560 C   0  0  0  0  0  0  0  0  0  0  0  0
   58.7640   25.5040   46.1610 C   0  0  0  0  0  0  0  0  0  0  0  0
   58.6030   24.2030   45.6720 C   0  0  0  0  0  0  0  0  0  0  0  0
   57.3440   23.7620   45.2590 C   0  0  0  0  0  0  0  0  0  0  0  0
   56.2410   24.6170   45.3400 C   0  0  0  0  0  0  0  0  0  0  0  0
   56.3950   25.9150   45.8370 C   0  0  0  0  0  0  0  0  0  0  0  0
   55.3763   29.7539   45.0772 H   0  0  0  0  0  0  0  0  0  0  0  0
   54.6084   30.5858   43.6826 H   0  0  0  0  0  0  0  0  0  0  0  0
   54.7713   28.7969   43.6826 H   0  0  0  0  0  0  0  0  0  0  0  0
   56.8521   28.9170   42.8091 H   0  0  0  0  0  0  0  0  0  0  0  0
   56.5675   30.6821   42.5725 H   0  0  0  0  0  0  0  0  0  0  0  0
   58.3493   32.1235   44.7413 H   0  0  0  0  0  0  0  0  0  0  0  0
   59.4660   31.0993   43.7553 H   0  0  0  0  0  0  0  0  0  0  0  0
   57.1450   32.7953   42.9000 H   0  0  0  0  0  0  0  0  0  0  0  0
   58.6872   32.4272   42.0556 H   0  0  0  0  0  0  0  0  0  0  0  0
   57.3537   31.2237   42.0556 H   0  0  0  0  0  0  0  0  0  0  0  0
   57.9597   28.1076   44.6436 H   0  0  0  0  0  0  0  0  0  0  0  0
   59.1908   28.9189   43.5948 H   0  0  0  0  0  0  0  0  0  0  0  0
   60.5290   29.1890   45.3756 H   0  0  0  0  0  0  0  0  0  0  0  0
   59.2441   30.1844   46.1697 H   0  0  0  0  0  0  0  0  0  0  0  0
   59.6764   27.7313   48.7524 H   0  0  0  0  0  0  0  0  0  0  0  0
   60.7999   28.9013   47.9616 H   0  0  0  0  0  0  0  0  0  0  0  0
   57.9673   29.7998   48.0233 H   0  0  0  0  0  0  0  0  0  0  0  0
   58.7077   29.5921   49.6502 H   0  0  0  0  0  0  0  0  0  0  0  0
   60.5453   31.3914   50.2918 H   0  0  0  0  0  0  0  0  0  0  0  0
   61.3057   30.0715   49.3353 H   0  0  0  0  0  0  0  0  0  0  0  0
   61.5036   33.5496   50.2592 H   0  0  0  0  0  0  0  0  0  0  0  0
   63.2091   35.1292   49.3487 H   0  0  0  0  0  0  0  0  0  0  0  0
   64.5227   34.5194   47.3159 H   0  0  0  0  0  0  0  0  0  0  0  0
   64.1214   32.3325   46.1794 H   0  0  0  0  0  0  0  0  0  0  0  0
   62.4077   30.7556   47.0709 H   0  0  0  0  0  0  0  0  0  0  0  0
   57.7749   31.8267   48.9371 H   0  0  0  0  0  0  0  0  0  0  0  0
   59.2054   32.8033   49.4373 H   0  0  0  0  0  0  0  0  0  0  0  0
   60.7506   33.5826   47.3574 H   0  0  0  0  0  0  0  0  0  0  0  0
   60.5258   34.9859   45.3063 H   0  0  0  0  0  0  0  0  0  0  0  0
   58.3113   35.2042   44.1731 H   0  0  0  0  0  0  0  0  0  0  0  0
   56.3125   34.0278   45.1020 H   0  0  0  0  0  0  0  0  0  0  0  0
   56.5210   32.6482   47.1689 H   0  0  0  0  0  0  0  0  0  0  0  0
   57.4923   27.8113   47.8219 H   0  0  0  0  0  0  0  0  0  0  0  0
   57.2531   28.4599   46.1594 H   0  0  0  0  0  0  0  0  0  0  0  0
   59.7596   25.8531   46.4722 H   0  0  0  0  0  0  0  0  0  0  0  0
   59.4688   23.5270   45.6128 H   0  0  0  0  0  0  0  0  0  0  0  0
   57.2201   22.7407   44.8695 H   0  0  0  0  0  0  0  0  0  0  0  0
   55.2505   24.2683   45.0123 H   0  0  0  0  0  0  0  0  0  0  0  0
   55.5249   26.5850   45.9003 H   0  0  0  0  0  0  0  0  0  0  0  0
  1  2  1  0
  2  3  1  0
  3  4  1  0
  4  5  1  0
  3  6  1  0
  6  7  1  0
  7  8  1  0
  8  9  1  0
  9 10  1  0
 10 11  1  0
 11 12  1  0
 12 13  1  0
 13 14  2  0
 14 15  1  0
 15 16  2  0
 16 17  1  0
 17 18  2  0
 11 19  1  0
 19 20  1  0
 20 21  2  0
 21 22  1  0
 22 23  2  0
 23 24  1  0
 24 25  2  0
  8 26  1  0
 26 27  1  0
 27 28  2  0
 28 29  1  0
 29 30  2  0
 30 31  1  0
 31 32  2  0
 18 13  1  0
 25 20  1  0
 32 27  1  0
  1 33  1  0
  1 34  1  0
  1 35  1  0
  2 36  1  0
  2 37  1  0
  4 38  1  0
  4 39  1  0
  5 40  1  0
  5 41  1  0
  5 42  1  0
  6 43  1  0
  6 44  1  0
  7 45  1  0
  7 46  1  0
  9 47  1  0
  9 48  1  0
 10 49  1  0
 10 50  1  0
 12 51  1  0
 12 52  1  0
 14 53  1  0
 15 54  1  0
 16 55  1  0
 17 56  1  0
 18 57  1  0
 19 58  1  0
 19 59  1  0
 21 60  1  0
 22 61  1  0
 23 62  1  0
 24 63  1  0
 25 64  1  0
 26 65  1  0
 26 66  1  0
 28 67  1  0
 29 68  1  0
 30 69  1  0
 31 70  1  0
 32 71  1  0
M  END
>  <UniqueID>  (12) 
11

>  <SMILES>  (12) 
CCN(CC)CCN(CCN(Cc1ccccc1)Cc1ccccc1)Cc1ccccc1

>  <Energy>  (12) 
67.20297133597731

>  <Genealogy>  (12) 
CCN(CC)CCN(CCN(Cc1ccccc1)Cc1ccccc1)Cc1ccccc1 (3D coordinates assigned)
CCN(CC)CCN(CCN(Cc1ccccc1)Cc1ccccc1)Cc1ccccc1 (optimized conformer: 67.20297133597731 kcal/mol)

>  <smiles>  (12) 
CCN(CC)CCN(CCN(Cc1ccccc1)Cc1ccccc1)Cc1ccccc1

>  <score_type>  (12) 
oracle

>  <origin>  (12) 
adg

>  <m_score__min__energy>  (12) 
-8.2599999999999998

>  <m_primary>  (12) 
energy

$$$$
12:0
     RDKit          3D

 57 60  0  0  0  0  0  0  0  0999 V2000
   63.2490   34.1700   50.8200 C   0  0  0  0  0  0  0  0  0  0  0  0
   62.5440   33.3900   49.7520 C   0  0  0  0  0  0  0  0  0  0  0  0
   63.1320   33.2470   48.4890 C   0  0  0  0  0  0  0  0  0  0  0  0
   62.4960   32.4970   47.4990 C   0  0  0  0  0  0  0  0  0  0  0  0
   61.2710   31.8720   47.7600 C   0  0  0  0  0  0  0  0  0  0  0  0
   60.6500   31.0990   46.7260 N   0  0  0  0  0  0  0  0  0  0  0  0
   61.0650   29.9040   46.3400 N   0  0  0  0  0  0  0  0  0  0  0  0
   60.2420   29.4460   45.3740 C   0  0  0  0  0  0  0  0  0  0  0  0
   59.2580   30.3960   45.1580 C   0  0  0  0  0  0  0  0  0  0  0  0
   59.5630   31.4350   46.0070 C   0  0  0  0  0  0  0  0  0  0  0  0
   58.7160   32.6630   46.1730 C   0  0  0  0  0  0  0  0  0  0  0  0
   57.7890   32.8770   44.9410 C   0  0  0  0  0  0  0  0  0  0  0  0
   56.6770   33.8730   45.3200 C   0  0  0  0  0  0  0  0  0  0  0  0
   58.5970   33.4750   43.7690 C   0  0  0  0  0  0  0  0  0  0  0  0
   57.1280   31.5250   44.5170 C   0  0  0  0  0  0  0  0  0  0  0  0
   58.1510   30.4280   44.1430 C   0  0  2  0  0  0  0  0  0  0  0  0
   57.4740   29.1350   44.0880 N   0  0  0  0  0  0  0  0  0  0  0  0
   56.5230   28.6390   45.0390 C   0  0  0  0  0  0  0  0  0  0  0  0
   55.4600   29.2890   45.2250 O   0  0  0  0  0  0  0  0  0  0  0  0
   56.7100   27.3340   45.7650 C   0  0  0  0  0  0  0  0  0  0  0  0
   58.0570   27.2820   46.4390 C   0  0  0  0  0  0  0  0  0  0  0  0
   59.0700   26.4530   45.9330 C   0  0  0  0  0  0  0  0  0  0  0  0
   60.3130   26.4160   46.5690 C   0  0  0  0  0  0  0  0  0  0  0  0
   60.5350   27.1710   47.6770 N   0  0  0  0  0  0  0  0  0  0  0  0
   59.5700   27.9750   48.1960 C   0  0  0  0  0  0  0  0  0  0  0  0
   58.3130   28.0430   47.5900 C   0  0  0  0  0  0  0  0  0  0  0  0
   60.6810   31.9860   49.0370 C   0  0  0  0  0  0  0  0  0  0  0  0
   59.3470   31.3630   49.3430 C   0  0  0  0  0  0  0  0  0  0  0  0
   61.3220   32.7530   50.0220 C   0  0  0  0  0  0  0  0  0  0  0  0
   62.9259   33.8125   51.8089 H   0  0  0  0  0  0  0  0  0  0  0  0
   64.3356   34.0327   50.7175 H   0  0  0  0  0  0  0  0  0  0  0  0
   63.0030   35.2372   50.7175 H   0  0  0  0  0  0  0  0  0  0  0  0
   64.0984   33.7275   48.2767 H   0  0  0  0  0  0  0  0  0  0  0  0
   62.9603   32.3963   46.5069 H   0  0  0  0  0  0  0  0  0  0  0  0
   61.8950   29.4040   46.7310 H   0  0  0  0  0  0  0  0  0  0  0  0
   60.3364   28.4841   44.8488 H   0  0  0  0  0  0  0  0  0  0  0  0
   58.0953   32.5518   47.0743 H   0  0  0  0  0  0  0  0  0  0  0  0
   59.3802   33.5349   46.2653 H   0  0  0  0  0  0  0  0  0  0  0  0
   56.6024   33.9398   46.4154 H   0  0  0  0  0  0  0  0  0  0  0  0
   56.9165   34.8643   44.9076 H   0  0  0  0  0  0  0  0  0  0  0  0
   55.7180   33.5262   44.9076 H   0  0  0  0  0  0  0  0  0  0  0  0
   59.4216   34.0853   44.1659 H   0  0  0  0  0  0  0  0  0  0  0  0
   59.0068   32.6609   43.1531 H   0  0  0  0  0  0  0  0  0  0  0  0
   57.9382   34.1048   43.1531 H   0  0  0  0  0  0  0  0  0  0  0  0
   56.5160   31.1591   45.3546 H   0  0  0  0  0  0  0  0  0  0  0  0
   56.5274   31.7269   43.6178 H   0  0  0  0  0  0  0  0  0  0  0  0
   58.5861   30.6487   43.1571 H   0  0  0  0  0  0  0  0  0  0  0  0
   55.9223   27.2289   46.5256 H   0  0  0  0  0  0  0  0  0  0  0  0
   56.6505   26.5137   45.0346 H   0  0  0  0  0  0  0  0  0  0  0  0
   58.8862   25.8361   45.0410 H   0  0  0  0  0  0  0  0  0  0  0  0
   61.1137   25.7746   46.1723 H   0  0  0  0  0  0  0  0  0  0  0  0
   59.7790   28.5734   49.0950 H   0  0  0  0  0  0  0  0  0  0  0  0
   57.5291   28.6888   48.0123 H   0  0  0  0  0  0  0  0  0  0  0  0
   59.2129   31.3004   50.4330 H   0  0  0  0  0  0  0  0  0  0  0  0
   58.5461   31.9802   48.9099 H   0  0  0  0  0  0  0  0  0  0  0  0
   59.3062   30.3527   48.9099 H   0  0  0  0  0  0  0  0  0  0  0  0
   60.8624   32.8563   51.0160 H   0  0  0  0  0  0  0  0  0  0  0  0
  1  2  1  0
  2  3  2  0
  3  4  1  0
  4  5  2  0
  5  6  1  0
  6  7  1  0
  7  8  2  0
  8  9  1  0
  9 10  2  0
 10 11  1  0
 11 12  1  0
 12 13  1  0
 12 14  1  0
 12 15  1  0
 15 16  1  0
 16 17  1  0
 17 18  1  0
 18 19  2  0
 18 20  1  0
 20 21  1  0
 21 22  2  0
 22 23  1  0
 23 24  2  0
 24 25  1  0
 25 26  2  0
  5 27  1  0
 27 28  1  0
 27 29  2  0
 29  2  1  0
 10  6  1  0
 26 21  1  0
 16  9  1  0
  1 30  1  0
  1 31  1  0
  1 32  1  0
  3 33  1  0
  4 34  1  0
  7 35  1  0
  8 36  1  0
 11 37  1  0
 11 38  1  0
 13 39  1  0
 13 40  1  0
 13 41  1  0
 14 42  1  0
 14 43  1  0
 14 44  1  0
 15 45  1  0
 15 46  1  0
 16 47  1  6
 20 48  1  0
 20 49  1  0
 22 50  1  0
 23 51  1  0
 25 52  1  0
 26 53  1  0
 28 54  1  0
 28 55  1  0
 28 56  1  0
 29 57  1  0
M  CHG  2   7   1  17  -1
M  END
>  <UniqueID>  (13) 
12

>  <SMILES>  (13) 
Cc1ccc(-n2[nH+]cc3c2CC(C)(C)C[C@@H]3[N-]C(=O)Cc2ccncc2)c(C)c1

>  <Energy>  (13) 
95.37985063922788

>  <Genealogy>  (13) 
Cc1ccc(-n2[nH+]cc3c2CC(C)(C)CC3[N-]C(=O)Cc2ccncc2)c(C)c1 (protonated)
Cc1ccc(-n2[nH+]cc3c2CC(C)(C)C[C@@H]3[N-]C(=O)Cc2ccncc2)c(C)c1 (chirality)
Cc1ccc(-n2[nH+]cc3c2CC(C)(C)C[C@@H]3[N-]C(=O)Cc2ccncc2)c(C)c1 (3D coordinates assigned)
Cc1ccc(-n2[nH+]cc3c2CC(C)(C)C[C@@H]3[N-]C(=O)Cc2ccncc2)c(C)c1 (nonaromatic ring conformer: 95.37985063922788 kcal/mol)

>  <smiles>  (13) 
Cc1ccc(-n2ncc3c2CC(C)(C)CC3NC(=O)Cc2ccncc2)c(C)c1

>  <score_type>  (13) 
oracle

>  <origin>  (13) 
adg

>  <m_score__min__energy>  (13) 
-9.4000000000000004

>  <m_primary>  (13) 
energy

$$$$
13:0
     RDKit          3D

 36 39  0  0  0  0  0  0  0  0999 V2000
   56.5890   23.4170   43.3540 C   0  0  0  0  0  0  0  0  0  0  0  0
   56.8070   24.0070   44.6320 O   0  0  0  0  0  0  0  0  0  0  0  0
   57.2020   25.3380   44.8320 C   0  0  0  0  0  0  0  0  0  0  0  0
   57.7680   26.1210   43.8070 C   0  0  0  0  0  0  0  0  0  0  0  0
   58.1460   27.4440   44.0580 C   0  0  0  0  0  0  0  0  0  0  0  0
   57.9650   28.0040   45.3310 C   0  0  0  0  0  0  0  0  0  0  0  0
   58.3540   29.3670   45.5890 N   0  0  0  0  0  0  0  0  0  0  0  0
   59.6180   29.6580   46.2110 C   0  0  0  0  0  0  0  0  0  0  0  0
   60.3810   28.7180   46.5650 O   0  0  0  0  0  0  0  0  0  0  0  0
   60.0130   31.0640   46.4590 C   0  0  0  0  0  0  0  0  0  0  0  0
   61.2510   31.3640   47.0530 C   0  0  0  0  0  0  0  0  0  0  0  0
   61.6190   32.6880   47.2960 C   0  0  0  0  0  0  0  0  0  0  0  0
   60.7590   33.7320   46.9530 C   0  0  0  0  0  0  0  0  0  0  0  0
   59.5190   33.4590   46.3610 C   0  0  0  0  0  0  0  0  0  0  0  0
   58.6560   34.5080   46.0170 C   0  0  0  0  0  0  0  0  0  0  0  0
   57.4220   34.2370   45.4270 C   0  0  0  0  0  0  0  0  0  0  0  0
   57.0370   32.9200   45.1720 C   0  0  0  0  0  0  0  0  0  0  0  0
   57.8850   31.8500   45.5060 C   0  0  0  0  0  0  0  0  0  0  0  0
   59.1370   32.1160   46.1070 C   0  0  0  0  0  0  0  0  0  0  0  0
   57.4820   30.4540   45.2260 C   0  0  0  0  0  0  0  0  0  0  0  0
   56.3830   30.2180   44.6500 O   0  0  0  0  0  0  0  0  0  0  0  0
   57.4000   27.2230   46.3510 C   0  0  0  0  0  0  0  0  0  0  0  0
   57.0230   25.9010   46.1010 C   0  0  0  0  0  0  0  0  0  0  0  0
   56.2104   22.3923   43.4830 H   0  0  0  0  0  0  0  0  0  0  0  0
   55.8517   24.0128   42.7960 H   0  0  0  0  0  0  0  0  0  0  0  0
   57.5366   23.3902   42.7960 H   0  0  0  0  0  0  0  0  0  0  0  0
   57.9133   25.6903   42.8053 H   0  0  0  0  0  0  0  0  0  0  0  0
   58.5878   28.0487   43.2523 H   0  0  0  0  0  0  0  0  0  0  0  0
   61.9356   30.5483   47.3287 H   0  0  0  0  0  0  0  0  0  0  0  0
   62.5914   32.9097   47.7600 H   0  0  0  0  0  0  0  0  0  0  0  0
   61.0558   34.7731   47.1481 H   0  0  0  0  0  0  0  0  0  0  0  0
   58.9530   35.5488   46.2131 H   0  0  0  0  0  0  0  0  0  0  0  0
   56.7487   35.0653   45.1612 H   0  0  0  0  0  0  0  0  0  0  0  0
   56.0615   32.7176   44.7056 H   0  0  0  0  0  0  0  0  0  0  0  0
   57.2532   27.6538   47.3524 H   0  0  0  0  0  0  0  0  0  0  0  0
   56.5819   25.2977   46.9081 H   0  0  0  0  0  0  0  0  0  0  0  0
  1  2  1  0
  2  3  1  0
  3  4  2  0
  4  5  1  0
  5  6  2  0
  6  7  1  0
  7  8  1  0
  8  9  2  0
  8 10  1  0
 10 11  2  0
 11 12  1  0
 12 13  2  0
 13 14  1  0
 14 15  2  0
 15 16  1  0
 16 17  2  0
 17 18  1  0
 18 19  2  0
 18 20  1  0
 20 21  2  0
  6 22  1  0
 22 23  2  0
 23  3  1  0
 20  7  1  0
 19 10  1  0
 19 14  1  0
  1 24  1  0
  1 25  1  0
  1 26  1  0
  4 27  1  0
  5 28  1  0
 11 29  1  0
 12 30  1  0
 13 31  1  0
 15 32  1  0
 16 33  1  0
 17 34  1  0
 22 35  1  0
 23 36  1  0
M  END
>  <UniqueID>  (14) 
13

>  <SMILES>  (14) 
COc1ccc(N2C(=O)c3cccc4cccc(c34)C2=O)cc1

>  <Energy>  (14) 
52.7535214992348

>  <Genealogy>  (14) 
COc1ccc(N2C(=O)c3cccc4cccc(c34)C2=O)cc1 (3D coordinates assigned)
COc1ccc(N2C(=O)c3cccc4cccc(c34)C2=O)cc1 (nonaromatic ring conformer: 52.7535214992348 kcal/mol)

>  <smiles>  (14) 
COc1ccc(N2C(=O)c3cccc4cccc(c34)C2=O)cc1

>  <score_type>  (14) 
oracle

>  <origin>  (14) 
adg

>  <m_score__min__energy>  (14) 
-7.8099999999999996

>  <m_primary>  (14) 
energy

$$$$
14:0
     RDKit          3D

 19 20  0  0  0  0  0  0  0  0999 V2000
   60.0660   34.2350   49.3760 Cl  0  0  0  0  0  0  0  0  0  0  0  0
   59.3200   33.4550   47.9950 C   0  0  0  0  0  0  0  0  0  0  0  0
   58.7530   34.2190   46.9770 C   0  0  0  0  0  0  0  0  0  0  0  0
   58.1650   33.5770   45.8880 C   0  0  0  0  0  0  0  0  0  0  0  0
   58.1390   32.1700   45.8080 C   0  0  0  0  0  0  0  0  0  0  0  0
   57.5010   31.5050   44.6290 C   0  0  0  0  0  0  0  0  0  0  0  0
   57.7280   31.9170   43.3010 C   0  0  0  0  0  0  0  0  0  0  0  0
   57.0880   31.2360   42.2640 C   0  0  0  0  0  0  0  0  0  0  0  0
   56.2610   30.1970   42.5390 N   0  0  0  0  0  0  0  0  0  0  0  0
   56.0440   29.8050   43.8190 C   0  0  0  0  0  0  0  0  0  0  0  0
   56.6580   30.4540   44.8420 N   0  0  0  0  0  0  0  0  0  0  0  0
   58.7280   31.4470   46.8690 C   0  0  0  0  0  0  0  0  0  0  0  0
   59.2950   32.1010   47.9190 N   0  0  0  0  0  0  0  0  0  0  0  0
   58.7691   35.3175   47.0320 H   0  0  0  0  0  0  0  0  0  0  0  0
   57.7161   34.1756   45.0817 H   0  0  0  0  0  0  0  0  0  0  0  0
   58.3987   32.7616   43.0848 H   0  0  0  0  0  0  0  0  0  0  0  0
   57.2550   31.5430   41.2210 H   0  0  0  0  0  0  0  0  0  0  0  0
   55.3704   28.9610   44.0288 H   0  0  0  0  0  0  0  0  0  0  0  0
   58.7283   30.3472   46.8463 H   0  0  0  0  0  0  0  0  0  0  0  0
  1  2  1  0
  2  3  2  0
  3  4  1  0
  4  5  2  0
  5  6  1  0
  6  7  2  0
  7  8  1  0
  8  9  2  0
  9 10  1  0
 10 11  2  0
  5 12  1  0
 12 13  2  0
 13  2  1  0
 11  6  1  0
  3 14  1  0
  4 15  1  0
  7 16  1  0
  8 17  1  0
 10 18  1  0
 12 19  1  0
M  END
>  <UniqueID>  (15) 
14

>  <SMILES>  (15) 
Clc1ccc(-c2ccncn2)cn1

>  <Energy>  (15) 
26.350476401248915

>  <Genealogy>  (15) 
Clc1ccc(-c2ccncn2)cn1 (3D coordinates assigned)
Clc1ccc(-c2ccncn2)cn1 (optimized conformer: 26.350476401248915 kcal/mol)

>  <smiles>  (15) 
Clc1ccc(-c2ccncn2)cn1

>  <score_type>  (15) 
oracle

>  <origin>  (15) 
adg

>  <m_score__min__energy>  (15) 
-5.4199999999999999

>  <m_primary>  (15) 
energy

$$$$
15:0
     RDKit          3D

 42 43  0  0  0  0  0  0  0  0999 V2000
   55.8800   30.0330   43.4600 C   0  0  0  0  0  0  0  0  0  0  0  0
   56.2680   30.4750   44.7580 O   0  0  0  0  0  0  0  0  0  0  0  0
   57.5810   30.4460   45.2540 C   0  0  0  0  0  0  0  0  0  0  0  0
   58.2810   29.2380   45.4210 C   0  0  0  0  0  0  0  0  0  0  0  0
   59.6000   29.2250   45.8960 C   0  0  0  0  0  0  0  0  0  0  0  0
   60.3230   27.9090   45.9880 C   0  0  0  0  0  0  0  0  0  0  0  0
   60.2220   30.4410   46.2610 C   0  0  0  0  0  0  0  0  0  0  0  0
   61.5310   30.4720   46.7650 O   0  0  0  0  0  0  0  0  0  0  0  0
   61.8380   30.8640   48.0990 C   0  0  0  0  0  0  0  0  0  0  0  0
   59.5310   31.6570   46.0870 C   0  0  0  0  0  0  0  0  0  0  0  0
   58.2160   31.6570   45.5840 C   0  0  0  0  0  0  0  0  0  0  0  0
   57.5270   32.9860   45.4020 C   0  0  0  0  0  0  0  0  0  0  0  0
   57.7490   33.8460   46.6480 C   0  0  0  0  0  0  0  0  0  0  0  0
   59.2590   34.0520   46.9910 C   0  0  1  0  0  0  0  0  0  0  0  0
   59.4550   34.2030   48.4660 N   0  0  0  0  0  0  0  0  0  0  0  0
   60.8710   34.4300   48.8140 C   0  0  0  0  0  0  0  0  0  0  0  0
   58.9120   33.0770   49.2550 C   0  0  0  0  0  0  0  0  0  0  0  0
   60.2050   32.9910   46.3340 C   0  0  0  0  0  0  0  0  0  0  0  0
   55.1570   29.2094   43.5541 H   0  0  0  0  0  0  0  0  0  0  0  0
   55.4168   30.8667   42.9120 H   0  0  0  0  0  0  0  0  0  0  0  0
   56.7667   29.6817   42.9120 H   0  0  0  0  0  0  0  0  0  0  0  0
   57.7854   28.2873   45.1748 H   0  0  0  0  0  0  0  0  0  0  0  0
   60.4687   27.6438   47.0456 H   0  0  0  0  0  0  0  0  0  0  0  0
   59.7273   27.1280   45.4928 H   0  0  0  0  0  0  0  0  0  0  0  0
   61.3017   27.9929   45.4928 H   0  0  0  0  0  0  0  0  0  0  0  0
   61.3180   30.2000   48.8052 H   0  0  0  0  0  0  0  0  0  0  0  0
   62.9237   30.7936   48.2612 H   0  0  0  0  0  0  0  0  0  0  0  0
   61.5095   31.9012   48.2612 H   0  0  0  0  0  0  0  0  0  0  0  0
   57.9441   33.4987   44.5227 H   0  0  0  0  0  0  0  0  0  0  0  0
   56.4491   32.8247   45.2530 H   0  0  0  0  0  0  0  0  0  0  0  0
   57.2910   34.8317   46.4788 H   0  0  0  0  0  0  0  0  0  0  0  0
   57.2896   33.3178   47.4965 H   0  0  0  0  0  0  0  0  0  0  0  0
   59.5687   34.9998   46.5266 H   0  0  0  0  0  0  0  0  0  0  0  0
   58.9450   35.0660   48.7730 H   0  0  0  0  0  0  0  0  0  0  0  0
   60.9813   34.4477   49.9083 H   0  0  0  0  0  0  0  0  0  0  0  0
   61.4857   33.6189   48.3965 H   0  0  0  0  0  0  0  0  0  0  0  0
   61.2014   35.3926   48.3965 H   0  0  0  0  0  0  0  0  0  0  0  0
   59.0178   33.2963   50.3277 H   0  0  0  0  0  0  0  0  0  0  0  0
   57.8481   32.9385   49.0122 H   0  0  0  0  0  0  0  0  0  0  0  0
   59.4661   32.1583   49.0122 H   0  0  0  0  0  0  0  0  0  0  0  0
   60.5579   33.3873   45.3705 H   0  0  0  0  0  0  0  0  0  0  0  0
   61.0318   32.8125   47.0373 H   0  0  0  0  0  0  0  0  0  0  0  0
  1  2  1  0
  2  3  1  0
  3  4  2  0
  4  5  1  0
  5  6  1  0
  5  7  2  0
  7  8  1  0
  8  9  1  0
  7 10  1  0
 10 11  2  0
 11 12  1  0
 12 13  1  0
 13 14  1  0
 14 15  1  0
 15 16  1  0
 15 17  1  0
 14 18  1  0
 11  3  1  0
 18 10  1  0
  1 19  1  0
  1 20  1  0
  1 21  1  0
  4 22  1  0
  6 23  1  0
  6 24  1  0
  6 25  1  0
  9 26  1  0
  9 27  1  0
  9 28  1  0
 12 29  1  0
 12 30  1  0
 13 31  1  0
 13 32  1  0
 14 33  1  6
 15 34  1  0
 16 35  1  0
 16 36  1  0
 16 37  1  0
 17 38  1  0
 17 39  1  0
 17 40  1  0
 18 41  1  0
 18 42  1  0
M  CHG  1  15   1
M  END
>  <UniqueID>  (16) 
15

>  <SMILES>  (16) 
COc1cc(C)c(OC)c2c1CC[C@@H]([NH+](C)C)C2

>  <Energy>  (16) 
59.022141328699426

>  <Genealogy>  (16) 
COc1cc(C)c(OC)c2c1CCC([NH+](C)C)C2 (protonated)
COc1cc(C)c(OC)c2c1CC[C@@H]([NH+](C)C)C2 (chirality)
COc1cc(C)c(OC)c2c1CC[C@@H]([NH+](C)C)C2 (3D coordinates assigned)
COc1cc(C)c(OC)c2c1CC[C@@H]([NH+](C)C)C2 (nonaromatic ring conformer: 59.022141328699426 kcal/mol)

>  <smiles>  (16) 
COc1cc(C)c(OC)c2c1CCC(N(C)C)C2

>  <score_type>  (16) 
oracle

>  <origin>  (16) 
adg

>  <m_score__min__energy>  (16) 
-4.3799999999999999

>  <m_primary>  (16) 
energy

$$$$
16:0
     RDKit          3D

 35 37  0  0  0  0  0  0  0  0999 V2000
   60.0980   29.2720   44.9040 C   0  0  0  0  0  0  0  0  0  0  0  0
   59.5980   28.4890   46.0470 N   0  0  0  0  0  0  0  0  0  0  0  0
   58.1600   28.7420   46.3030 C   0  0  0  0  0  0  0  0  0  0  0  0
   57.6480   30.0010   45.6580 C   0  0  0  0  0  0  0  0  0  0  0  0
   58.2150   31.2120   45.8130 N   0  0  0  0  0  0  0  0  0  0  0  0
   57.3880   31.9830   45.0780 C   0  0  0  0  0  0  0  0  0  0  0  0
   57.5880   33.4510   44.8750 C   0  0  0  0  0  0  0  0  0  0  0  0
   58.1700   34.1810   46.0760 C   0  0  0  0  0  0  0  0  0  0  0  0
   59.0430   33.8960   44.8660 C   0  0  0  0  0  0  0  0  0  0  0  0
   56.3960   31.2790   44.4990 N   0  0  0  0  0  0  0  0  0  0  0  0
   56.5900   30.0560   44.8880 O   0  0  0  0  0  0  0  0  0  0  0  0
   60.4520   28.6910   47.2370 C   0  0  0  0  0  0  0  0  0  0  0  0
   60.4880   30.1460   47.6340 C   0  0  0  0  0  0  0  0  0  0  0  0
   61.4830   30.9960   47.1260 C   0  0  0  0  0  0  0  0  0  0  0  0
   61.5020   32.3500   47.4770 C   0  0  0  0  0  0  0  0  0  0  0  0
   62.8590   33.4980   46.7780 Br  0  0  0  0  0  0  0  0  0  0  0  0
   60.5280   32.8630   48.3380 C   0  0  0  0  0  0  0  0  0  0  0  0
   59.5330   32.0240   48.8480 C   0  0  0  0  0  0  0  0  0  0  0  0
   59.5090   30.6700   48.4980 C   0  0  0  0  0  0  0  0  0  0  0  0
   58.5310   29.8710   48.9980 F   0  0  0  0  0  0  0  0  0  0  0  0
   60.6556   30.1452   45.2736 H   0  0  0  0  0  0  0  0  0  0  0  0
   60.7629   28.6444   44.2924 H   0  0  0  0  0  0  0  0  0  0  0  0
   59.2489   29.6112   44.2924 H   0  0  0  0  0  0  0  0  0  0  0  0
   57.5820   27.8912   45.9131 H   0  0  0  0  0  0  0  0  0  0  0  0
   58.0414   28.8640   47.3898 H   0  0  0  0  0  0  0  0  0  0  0  0
   56.7217   33.6015   44.2141 H   0  0  0  0  0  0  0  0  0  0  0  0
   57.8569   35.2120   46.2975 H   0  0  0  0  0  0  0  0  0  0  0  0
   58.2420   33.9711   47.1534 H   0  0  0  0  0  0  0  0  0  0  0  0
   59.3618   34.7206   44.2115 H   0  0  0  0  0  0  0  0  0  0  0  0
   60.0086   33.3944   44.7046 H   0  0  0  0  0  0  0  0  0  0  0  0
   60.0503   28.0996   48.0730 H   0  0  0  0  0  0  0  0  0  0  0  0
   61.4750   28.3679   46.9940 H   0  0  0  0  0  0  0  0  0  0  0  0
   62.2515   30.5954   46.4486 H   0  0  0  0  0  0  0  0  0  0  0  0
   60.5444   33.9276   48.6145 H   0  0  0  0  0  0  0  0  0  0  0  0
   58.7674   32.4294   49.5259 H   0  0  0  0  0  0  0  0  0  0  0  0
  1  2  1  0
  2  3  1  0
  3  4  1  0
  4  5  2  0
  5  6  1  0
  6  7  1  0
  7  8  1  0
  8  9  1  0
  6 10  2  0
 10 11  1  0
  2 12  1  0
 12 13  1  0
 13 14  2  0
 14 15  1  0
 15 16  1  0
 15 17  2  0
 17 18  1  0
 18 19  2  0
 19 20  1  0
 11  4  1  0
 19 13  1  0
  9  7  1  0
  1 21  1  0
  1 22  1  0
  1 23  1  0
  3 24  1  0
  3 25  1  0
  7 26  1  0
  8 27  1  0
  8 28  1  0
  9 29  1  0
  9 30  1  0
 12 31  1  0
 12 32  1  0
 14 33  1  0
 17 34  1  0
 18 35  1  0
M  END
>  <UniqueID>  (17) 
16

>  <SMILES>  (17) 
CN(Cc1nc(C2CC2)no1)Cc1cc(Br)ccc1F

>  <Energy>  (17) 
333.4528735964361

>  <Genealogy>  (17) 
CN(Cc1nc(C2CC2)no1)Cc1cc(Br)ccc1F (3D coordinates assigned)
CN(Cc1nc(C2CC2)no1)Cc1cc(Br)ccc1F (nonaromatic ring conformer: 333.4528735964361 kcal/mol)

>  <smiles>  (17) 
CN(Cc1nc(C2CC2)no1)Cc1cc(Br)ccc1F

>  <score_type>  (17) 
oracle

>  <origin>  (17) 
adg

>  <m_score__min__energy>  (17) 
-7.8899999999999997

>  <m_primary>  (17) 
energy

$$$$
17:0
     RDKit          3D

 53 55  0  0  0  0  0  0  0  0999 V2000
   59.2390   34.6170   45.1360 C   0  0  0  0  0  0  0  0  0  0  0  0
   60.1490   34.9740   46.3220 C   0  0  0  0  0  0  0  0  0  0  0  0
   60.9230   33.8250   46.8500 N   0  0  0  0  0  0  0  0  0  0  0  0
   62.3300   33.8420   46.3940 C   0  0  0  0  0  0  0  0  0  0  0  0
   63.1830   32.8700   47.2040 C   0  0  0  0  0  0  0  0  0  0  0  0
   60.7790   33.6610   48.3190 C   0  0  0  0  0  0  0  0  0  0  0  0
   59.3260   33.3200   48.6890 C   0  0  0  0  0  0  0  0  0  0  0  0
   58.7560   32.0950   47.9400 C   0  0  0  0  0  0  0  0  0  0  0  0
   59.5690   31.6650   46.7790 N   0  0  0  0  0  0  0  0  0  0  0  0
   59.1220   30.4020   46.2000 C   0  0  0  0  0  0  0  0  0  0  0  0
   59.4160   29.1510   46.8200 C   0  0  0  0  0  0  0  0  0  0  0  0
   60.1200   29.0610   48.0510 C   0  0  0  0  0  0  0  0  0  0  0  0
   60.3220   27.8360   48.6810 C   0  0  0  0  0  0  0  0  0  0  0  0
   59.8250   26.6730   48.1190 C   0  0  0  0  0  0  0  0  0  0  0  0
   59.1510   26.7210   46.9040 C   0  0  0  0  0  0  0  0  0  0  0  0
   58.9680   27.9440   46.2080 C   0  0  0  0  0  0  0  0  0  0  0  0
   58.3510   27.9710   44.9750 N   0  0  0  0  0  0  0  0  0  0  0  0
   58.1880   26.7170   44.2030 C   0  0  0  0  0  0  0  0  0  0  0  0
   57.9180   29.1660   44.4430 C   0  0  0  0  0  0  0  0  0  0  0  0
   57.0300   29.1950   43.3360 C   0  0  0  0  0  0  0  0  0  0  0  0
   56.6480   30.3970   42.7480 C   0  0  0  0  0  0  0  0  0  0  0  0
   57.1280   31.5970   43.2480 C   0  0  0  0  0  0  0  0  0  0  0  0
   57.9620   31.6060   44.3620 C   0  0  0  0  0  0  0  0  0  0  0  0
   58.3430   30.4000   45.0070 C   0  0  0  0  0  0  0  0  0  0  0  0
   58.2769   34.2396   45.5127 H   0  0  0  0  0  0  0  0  0  0  0  0
   59.0664   35.5141   44.5232 H   0  0  0  0  0  0  0  0  0  0  0  0
   59.7224   33.8419   44.5232 H   0  0  0  0  0  0  0  0  0  0  0  0
   60.8581   35.7484   45.9941 H   0  0  0  0  0  0  0  0  0  0  0  0
   59.4941   35.3197   47.1354 H   0  0  0  0  0  0  0  0  0  0  0  0
   62.3671   33.5540   45.3330 H   0  0  0  0  0  0  0  0  0  0  0  0
   62.7298   34.8572   46.5339 H   0  0  0  0  0  0  0  0  0  0  0  0
   63.0248   33.0502   48.2775 H   0  0  0  0  0  0  0  0  0  0  0  0
   62.8945   31.8371   46.9592 H   0  0  0  0  0  0  0  0  0  0  0  0
   64.2446   33.0220   46.9592 H   0  0  0  0  0  0  0  0  0  0  0  0
   61.4380   32.8480   48.6577 H   0  0  0  0  0  0  0  0  0  0  0  0
   61.0557   34.6063   48.8088 H   0  0  0  0  0  0  0  0  0  0  0  0
   59.2833   33.1153   49.7689 H   0  0  0  0  0  0  0  0  0  0  0  0
   58.7125   34.1848   48.3963 H   0  0  0  0  0  0  0  0  0  0  0  0
   58.6933   31.2554   48.6480 H   0  0  0  0  0  0  0  0  0  0  0  0
   57.7729   32.3926   47.5465 H   0  0  0  0  0  0  0  0  0  0  0  0
   59.5160   32.4040   46.0410 H   0  0  0  0  0  0  0  0  0  0  0  0
   60.5800   31.6830   47.0160 H   0  0  0  0  0  0  0  0  0  0  0  0
   60.5132   29.9774   48.5154 H   0  0  0  0  0  0  0  0  0  0  0  0
   60.8786   27.7923   49.6288 H   0  0  0  0  0  0  0  0  0  0  0  0
   59.9633   25.7107   48.6336 H   0  0  0  0  0  0  0  0  0  0  0  0
   58.7511   25.7913   46.4731 H   0  0  0  0  0  0  0  0  0  0  0  0
   58.0780   25.8708   44.8971 H   0  0  0  0  0  0  0  0  0  0  0  0
   57.2918   26.7904   43.5694 H   0  0  0  0  0  0  0  0  0  0  0  0
   59.0731   26.5588   43.5694 H   0  0  0  0  0  0  0  0  0  0  0  0
   56.6363   28.2493   42.9353 H   0  0  0  0  0  0  0  0  0  0  0  0
   55.9647   30.3946   41.8859 H   0  0  0  0  0  0  0  0  0  0  0  0
   56.8492   32.5443   42.7634 H   0  0  0  0  0  0  0  0  0  0  0  0
   58.3332   32.5659   44.7503 H   0  0  0  0  0  0  0  0  0  0  0  0
  1  2  1  0
  2  3  1  0
  3  4  1  0
  4  5  1  0
  3  6  1  0
  6  7  1  0
  7  8  1  0
  8  9  1  0
  9 10  1  0
 10 11  2  0
 11 12  1  0
 12 13  2  0
 13 14  1  0
 14 15  2  0
 15 16  1  0
 16 17  2  0
 17 18  1  0
 17 19  1  0
 19 20  2  0
 20 21  1  0
 21 22  2  0
 22 23  1  0
 23 24  2  0
 24 10  1  0
 16 11  1  0
 24 19  1  0
  1 25  1  0
  1 26  1  0
  1 27  1  0
  2 28  1  0
  2 29  1  0
  4 30  1  0
  4 31  1  0
  5 32  1  0
  5 33  1  0
  5 34  1  0
  6 35  1  0
  6 36  1  0
  7 37  1  0
  7 38  1  0
  8 39  1  0
  8 40  1  0
  9 41  1  0
  9 42  1  0
 12 43  1  0
 13 44  1  0
 14 45  1  0
 15 46  1  0
 18 47  1  0
 18 48  1  0
 18 49  1  0
 20 50  1  0
 21 51  1  0
 22 52  1  0
 23 53  1  0
M  CHG  2   9   1  17   1
M  END
>  <UniqueID>  (18) 
17

>  <SMILES>  (18) 
CCN(CC)CCC[NH2+]c1c2ccccc2[n+](C)c2ccccc12

>  <Energy>  (18) 
83.36419797692356

>  <Genealogy>  (18) 
CCN(CC)CCC[NH2+]c1c2ccccc2[n+](C)c2ccccc12 (protonated)
CCN(CC)CCC[NH2+]c1c2ccccc2[n+](C)c2ccccc12 (3D coordinates assigned)
CCN(CC)CCC[NH2+]c1c2ccccc2[n+](C)c2ccccc12 (optimized conformer: 83.36419797692356 kcal/mol)

>  <smiles>  (18) 
CCN(CC)CCCNc1c2ccccc2[n+](C)c2ccccc12

>  <score_type>  (18) 
oracle

>  <origin>  (18) 
adg

>  <m_score__min__energy>  (18) 
-3.96

>  <m_primary>  (18) 
energy

$$$$
18:0
     RDKit          3D

 43 45  0  0  0  0  0  0  0  0999 V2000
   59.1300   27.6410   44.9090 C   0  0  0  0  0  0  0  0  0  0  0  0
   57.7640   27.8740   44.2750 C   0  0  0  0  0  0  0  0  0  0  0  0
   57.3630   29.3100   44.3930 C   0  0  0  0  0  0  0  0  0  0  0  0
   56.1570   29.7160   44.8350 N   0  0  0  0  0  0  0  0  0  0  0  0
   56.2160   31.0120   44.8130 O   0  0  0  0  0  0  0  0  0  0  0  0
   57.3950   31.3930   44.3860 C   0  0  0  0  0  0  0  0  0  0  0  0
   57.8250   32.8270   44.2590 C   0  0  0  0  0  0  0  0  0  0  0  0
   58.6860   33.2760   45.3730 N   0  0  0  0  0  0  0  0  0  0  0  0
   58.2860   32.7090   46.6830 C   0  0  0  0  0  0  0  0  0  0  0  0
   58.7180   33.5860   47.8750 C   0  0  0  0  0  0  0  0  0  0  0  0
   59.9940   34.2890   47.6280 N   0  0  0  0  0  0  0  0  0  0  0  0
   61.2020   33.4840   47.9530 C   0  0  0  0  0  0  0  0  0  0  0  0
   62.1010   34.1960   48.9670 C   0  0  0  0  0  0  0  0  0  0  0  0
   63.5150   33.7690   48.6180 C   0  0  0  0  0  0  0  0  0  0  0  0
   63.5100   33.5580   47.1140 C   0  0  0  0  0  0  0  0  0  0  0  0
   62.0940   33.1280   46.7480 C   0  0  0  0  0  0  0  0  0  0  0  0
   60.0340   35.0730   46.3650 C   0  0  0  0  0  0  0  0  0  0  0  0
   58.8800   34.7350   45.4090 C   0  0  0  0  0  0  0  0  0  0  0  0
   58.1840   30.3400   44.0980 N   0  0  0  0  0  0  0  0  0  0  0  0
   59.0333   27.6575   46.0046 H   0  0  0  0  0  0  0  0  0  0  0  0
   59.5203   26.6633   44.5900 H   0  0  0  0  0  0  0  0  0  0  0  0
   59.8224   28.4340   44.5900 H   0  0  0  0  0  0  0  0  0  0  0  0
   57.8081   27.5979   43.2111 H   0  0  0  0  0  0  0  0  0  0  0  0
   57.0210   27.2556   44.7999 H   0  0  0  0  0  0  0  0  0  0  0  0
   58.3820   32.9432   43.3176 H   0  0  0  0  0  0  0  0  0  0  0  0
   56.9151   33.4448   44.2788 H   0  0  0  0  0  0  0  0  0  0  0  0
   57.1909   32.6070   46.7013 H   0  0  0  0  0  0  0  0  0  0  0  0
   58.7902   31.7372   46.7892 H   0  0  0  0  0  0  0  0  0  0  0  0
   57.9342   34.3341   48.0647 H   0  0  0  0  0  0  0  0  0  0  0  0
   58.8638   32.9239   48.7412 H   0  0  0  0  0  0  0  0  0  0  0  0
   60.7772   32.5539   48.3586 H   0  0  0  0  0  0  0  0  0  0  0  0
   61.9947   35.2871   48.8767 H   0  0  0  0  0  0  0  0  0  0  0  0
   61.8377   33.9351   50.0027 H   0  0  0  0  0  0  0  0  0  0  0  0
   64.2340   34.5542   48.8946 H   0  0  0  0  0  0  0  0  0  0  0  0
   63.8140   32.8590   49.1589 H   0  0  0  0  0  0  0  0  0  0  0  0
   63.7697   34.4936   46.5971 H   0  0  0  0  0  0  0  0  0  0  0  0
   64.2486   32.8002   46.8137 H   0  0  0  0  0  0  0  0  0  0  0  0
   61.7535   33.6663   45.8512 H   0  0  0  0  0  0  0  0  0  0  0  0
   62.0506   32.0515   46.5259 H   0  0  0  0  0  0  0  0  0  0  0  0
   59.9794   36.1428   46.6152 H   0  0  0  0  0  0  0  0  0  0  0  0
   60.9719   34.8177   45.8501 H   0  0  0  0  0  0  0  0  0  0  0  0
   57.9575   35.2193   45.7617 H   0  0  0  0  0  0  0  0  0  0  0  0
   59.1210   35.0986   44.3992 H   0  0  0  0  0  0  0  0  0  0  0  0
  1  2  1  0
  2  3  1  0
  3  4  2  0
  4  5  1  0
  5  6  1  0
  6  7  1  0
  7  8  1  0
  8  9  1  0
  9 10  1  0
 10 11  1  0
 11 12  1  0
 12 13  1  0
 13 14  1  0
 14 15  1  0
 15 16  1  0
 11 17  1  0
 17 18  1  0
  6 19  2  0
 19  3  1  0
 18  8  1  0
 16 12  1  0
  1 20  1  0
  1 21  1  0
  1 22  1  0
  2 23  1  0
  2 24  1  0
  7 25  1  0
  7 26  1  0
  9 27  1  0
  9 28  1  0
 10 29  1  0
 10 30  1  0
 12 31  1  0
 13 32  1  0
 13 33  1  0
 14 34  1  0
 14 35  1  0
 15 36  1  0
 15 37  1  0
 16 38  1  0
 16 39  1  0
 17 40  1  0
 17 41  1  0
 18 42  1  0
 18 43  1  0
M  END
>  <UniqueID>  (19) 
18

>  <SMILES>  (19) 
CCc1noc(CN2CCN(C3CCCC3)CC2)n1

>  <Energy>  (19) 
90.68040470152008

>  <Genealogy>  (19) 
CCc1noc(CN2CCN(C3CCCC3)CC2)n1 (3D coordinates assigned)
CCc1noc(CN2CCN(C3CCCC3)CC2)n1 (nonaromatic ring conformer: 90.68040470152008 kcal/mol)

>  <smiles>  (19) 
CCc1noc(CN2CCN(C3CCCC3)CC2)n1

>  <score_type>  (19) 
oracle

>  <origin>  (19) 
adg

>  <m_score__min__energy>  (19) 
-8.1199999999999992

>  <m_primary>  (19) 
energy

$$$$
19:0
     RDKit          3D

 28 28  0  0  0  0  0  0  0  0999 V2000
   56.5120   27.4280   45.6390 N   0  0  0  0  0  0  0  0  0  0  0  0
   57.6620   26.6370   46.0670 C   0  0  0  0  0  0  0  0  0  0  0  0
   58.3690   27.2940   47.2620 C   0  0  0  0  0  0  0  0  0  0  0  0
   59.3040   28.4420   46.8450 C   0  0  0  0  0  0  0  0  0  0  0  0
   58.7410   29.2210   45.7410 N   0  0  0  0  0  0  0  0  0  0  0  0
   58.4160   30.4860   45.7370 C   0  0  0  0  0  0  0  0  0  0  0  0
   59.0570   31.4260   46.5710 C   0  0  0  0  0  0  0  0  0  0  0  0
   58.6650   32.7640   46.5350 C   0  0  0  0  0  0  0  0  0  0  0  0
   57.6720   33.1620   45.7010 N   0  0  0  0  0  0  0  0  0  0  0  0
   57.0340   32.2870   44.8810 C   0  0  0  0  0  0  0  0  0  0  0  0
   57.3920   30.9310   44.8720 C   0  0  0  0  0  0  0  0  0  0  0  0
   56.5510   29.7940   43.8030 S   0  0  0  0  0  0  0  0  0  0  0  0
   57.4900   28.3700   43.5060 N   0  0  0  0  0  0  0  0  0  0  0  0
   55.2540   29.3800   44.4430 O   0  0  0  0  0  0  0  0  0  0  0  0
   56.2650   30.4690   42.4920 O   0  0  0  0  0  0  0  0  0  0  0  0
   56.8110   28.4290   45.5960 H   0  0  0  0  0  0  0  0  0  0  0  0
   56.2660   27.1480   44.6610 H   0  0  0  0  0  0  0  0  0  0  0  0
   57.3194   25.6334   46.3593 H   0  0  0  0  0  0  0  0  0  0  0  0
   58.3739   26.5733   45.2308 H   0  0  0  0  0  0  0  0  0  0  0  0
   57.6054   27.6935   47.9456 H   0  0  0  0  0  0  0  0  0  0  0  0
   58.9870   26.5231   47.7455 H   0  0  0  0  0  0  0  0  0  0  0  0
   59.4602   29.1065   47.7076 H   0  0  0  0  0  0  0  0  0  0  0  0
   60.2558   28.0056   46.5081 H   0  0  0  0  0  0  0  0  0  0  0  0
   59.8630   31.1049   47.2472 H   0  0  0  0  0  0  0  0  0  0  0  0
   59.1626   33.4988   47.1849 H   0  0  0  0  0  0  0  0  0  0  0  0
   56.2311   32.6444   44.2195 H   0  0  0  0  0  0  0  0  0  0  0  0
   56.8290   27.5640   43.4450 H   0  0  0  0  0  0  0  0  0  0  0  0
   58.1020   28.2180   44.3390 H   0  0  0  0  0  0  0  0  0  0  0  0
  1  2  1  0
  2  3  1  0
  3  4  1  0
  4  5  1  0
  5  6  2  3
  6  7  1  0
  7  8  2  0
  8  9  1  0
  9 10  1  0
 10 11  2  0
 11 12  1  0
 12 13  1  0
 12 14  2  0
 12 15  2  0
 11  6  1  0
  1 16  1  0
  1 17  1  0
  2 18  1  0
  2 19  1  0
  3 20  1  0
  3 21  1  0
  4 22  1  0
  4 23  1  0
  7 24  1  0
  8 25  1  0
 10 26  1  0
 13 27  1  0
 13 28  1  0
M  CHG  1   9  -1
M  END
>  <UniqueID>  (20) 
19

>  <SMILES>  (20) 
NCCCN=c1cc[n-]cc1S(N)(=O)=O

>  <Energy>  (20) 
24.574808033999112

>  <Genealogy>  (20) 
NCCCN=c1cc[n-]cc1S(N)(=O)=O (protonated)
NCCCN=c1cc[n-]cc1S(N)(=O)=O (3D coordinates assigned)
NCCCN=c1cc[n-]cc1S(N)(=O)=O (optimized conformer: 24.574808033999112 kcal/mol)

>  <smiles>  (20) 
NCCCN=c1cc[nH]cc1S(N)(=O)=O

>  <score_type>  (20) 
oracle

>  <origin>  (20) 
adg

>  <m_score__min__energy>  (20) 
-5.9400000000000004

>  <m_primary>  (20) 
energy

$$$$
20:0
     RDKit          3D

 50 52  0  0  0  0  0  0  0  0999 V2000
   54.1960   24.5640   45.4050 C   0  0  0  0  0  0  0  0  0  0  0  0
   54.8040   25.7490   45.9100 O   0  0  0  0  0  0  0  0  0  0  0  0
   56.1860   25.9790   45.9700 C   0  0  0  0  0  0  0  0  0  0  0  0
   57.0770   24.9550   46.3580 C   0  0  0  0  0  0  0  0  0  0  0  0
   58.4540   25.1800   46.3790 C   0  0  0  0  0  0  0  0  0  0  0  0
   58.9640   26.4230   46.0120 C   0  0  0  0  0  0  0  0  0  0  0  0
   58.0980   27.4490   45.6330 C   0  0  0  0  0  0  0  0  0  0  0  0
   56.7100   27.2500   45.6210 C   0  0  0  0  0  0  0  0  0  0  0  0
   55.8940   28.3670   45.2270 N   0  0  0  0  0  0  0  0  0  0  0  0
   56.3140   29.6740   44.1650 S   0  0  0  0  0  0  0  0  0  0  0  0
   56.9920   29.1250   42.9400 O   0  0  0  0  0  0  0  0  0  0  0  0
   55.0830   30.4440   43.7730 O   0  0  0  0  0  0  0  0  0  0  0  0
   57.4050   30.7590   45.0190 C   0  0  0  0  0  0  0  0  0  0  0  0
   57.9190   31.8840   44.3620 C   0  0  0  0  0  0  0  0  0  0  0  0
   58.7870   32.7530   45.0270 C   0  0  0  0  0  0  0  0  0  0  0  0
   59.1450   32.5150   46.3650 C   0  0  0  0  0  0  0  0  0  0  0  0
   60.0670   33.4280   47.0800 C   0  0  0  0  0  0  0  0  0  0  0  0
   60.2310   34.5940   46.6260 O   0  0  0  0  0  0  0  0  0  0  0  0
   60.7780   33.0240   48.2710 N   0  0  0  0  0  0  0  0  0  0  0  0
   61.2970   31.6460   48.3900 C   0  0  0  0  0  0  0  0  0  0  0  0
   62.6600   31.4400   47.6890 C   0  0  0  0  0  0  0  0  0  0  0  0
   63.7610   32.4310   48.1000 C   0  0  0  0  0  0  0  0  0  0  0  0
   63.3770   33.9040   47.8920 C   0  0  0  0  0  0  0  0  0  0  0  0
   62.6320   34.5540   49.0710 C   0  0  0  0  0  0  0  0  0  0  0  0
   61.1750   34.0830   49.2230 C   0  0  0  0  0  0  0  0  0  0  0  0
   58.6460   31.3720   47.0120 C   0  0  0  0  0  0  0  0  0  0  0  0
   57.7790   30.5010   46.3450 C   0  0  0  0  0  0  0  0  0  0  0  0
   53.8716   23.9318   46.2447 H   0  0  0  0  0  0  0  0  0  0  0  0
   53.3243   24.8325   44.7901 H   0  0  0  0  0  0  0  0  0  0  0  0
   54.9225   24.0125   44.7901 H   0  0  0  0  0  0  0  0  0  0  0  0
   56.6818   23.9699   46.6467 H   0  0  0  0  0  0  0  0  0  0  0  0
   59.1376   24.3746   46.6858 H   0  0  0  0  0  0  0  0  0  0  0  0
   60.0503   26.5958   46.0210 H   0  0  0  0  0  0  0  0  0  0  0  0
   58.5091   28.4263   45.3399 H   0  0  0  0  0  0  0  0  0  0  0  0
   57.6378   32.0841   43.3175 H   0  0  0  0  0  0  0  0  0  0  0  0
   59.1929   33.6292   44.5002 H   0  0  0  0  0  0  0  0  0  0  0  0
   61.4147   31.4088   49.4577 H   0  0  0  0  0  0  0  0  0  0  0  0
   60.5733   30.9826   47.8938 H   0  0  0  0  0  0  0  0  0  0  0  0
   63.0122   30.4240   47.9206 H   0  0  0  0  0  0  0  0  0  0  0  0
   62.4814   31.6079   46.6166 H   0  0  0  0  0  0  0  0  0  0  0  0
   63.9853   32.2780   49.1660 H   0  0  0  0  0  0  0  0  0  0  0  0
   64.6293   32.2316   47.4548 H   0  0  0  0  0  0  0  0  0  0  0  0
   64.3000   34.4756   47.7146 H   0  0  0  0  0  0  0  0  0  0  0  0
   62.6812   33.9232   47.0402 H   0  0  0  0  0  0  0  0  0  0  0  0
   63.1727   34.3124   49.9980 H   0  0  0  0  0  0  0  0  0  0  0  0
   62.5991   35.6352   48.8712 H   0  0  0  0  0  0  0  0  0  0  0  0
   61.0422   33.6963   50.2442 H   0  0  0  0  0  0  0  0  0  0  0  0
   60.5375   34.9540   49.0108 H   0  0  0  0  0  0  0  0  0  0  0  0
   58.9395   31.1608   48.0509 H   0  0  0  0  0  0  0  0  0  0  0  0
   57.3897   29.6115   46.8620 H   0  0  0  0  0  0  0  0  0  0  0  0
  1  2  1  0
  2  3  1  0
  3  4  2  0
  4  5  1  0
  5  6  2  0
  6  7  1  0
  7  8  2  0
  8  9  1  0
  9 10  1  0
 10 11  2  0
 10 12  2  0
 10 13  1  0
 13 14  2  0
 14 15  1  0
 15 16  2  0
 16 17  1  0
 17 18  2  0
 17 19  1  0
 19 20  1  0
 20 21  1  0
 21 22  1  0
 22 23  1  0
 23 24  1  0
 24 25  1  0
 16 26  1  0
 26 27  2  0
  8  3  1  0
 27 13  1  0
 25 19  1  0
  1 28  1  0
  1 29  1  0
  1 30  1  0
  4 31  1  0
  5 32  1  0
  6 33  1  0
  7 34  1  0
 14 35  1  0
 15 36  1  0
 20 37  1  0
 20 38  1  0
 21 39  1  0
 21 40  1  0
 22 41  1  0
 22 42  1  0
 23 43  1  0
 23 44  1  0
 24 45  1  0
 24 46  1  0
 25 47  1  0
 25 48  1  0
 26 49  1  0
 27 50  1  0
M  CHG  1   9  -1
M  END
>  <UniqueID>  (21) 
20

>  <SMILES>  (21) 
COc1ccccc1[N-]S(=O)(=O)c1ccc(C(=O)N2CCCCCC2)cc1

>  <Energy>  (21) 
67.66743298143152

>  <Genealogy>  (21) 
COc1ccccc1[N-]S(=O)(=O)c1ccc(C(=O)N2CCCCCC2)cc1 (protonated)
COc1ccccc1[N-]S(=O)(=O)c1ccc(C(=O)N2CCCCCC2)cc1 (3D coordinates assigned)
COc1ccccc1[N-]S(=O)(=O)c1ccc(C(=O)N2CCCCCC2)cc1 (nonaromatic ring conformer: 67.66743298143152 kcal/mol)

>  <smiles>  (21) 
COc1ccccc1NS(=O)(=O)c1ccc(C(=O)N2CCCCCC2)cc1

>  <score_type>  (21) 
oracle

>  <origin>  (21) 
adg

>  <m_score__min__energy>  (21) 
-9.3800000000000008

>  <m_primary>  (21) 
energy

$$$$
21:0
     RDKit          3D

 34 33  0  0  0  0  0  0  0  0999 V2000
   63.7240   33.0820   47.7050 C   0  0  0  0  0  0  0  0  0  0  0  0
   62.8560   33.8270   46.6910 C   0  0  0  0  0  0  0  0  0  0  0  0
   61.3670   33.4460   46.7720 C   0  0  0  0  0  0  0  0  0  0  0  0
   60.3950   34.5420   46.3040 C   0  0  0  0  0  0  0  0  0  0  0  0
   59.1470   34.6550   47.1970 C   0  0  0  0  0  0  0  0  0  0  0  0
   58.2710   33.3860   47.1730 C   0  0  0  0  0  0  0  0  0  0  0  0
   57.0420   33.4630   46.2490 C   0  0  0  0  0  0  0  0  0  0  0  0
   57.4100   33.4860   44.7540 C   0  0  0  0  0  0  0  0  0  0  0  0
   58.0850   32.1760   44.2990 C   0  0  0  0  0  0  0  0  0  0  0  0
   57.1250   31.2390   43.5560 C   0  0  0  0  0  0  0  0  0  0  0  0
   56.3050   30.4880   44.4980 N   0  0  0  0  0  0  0  0  0  0  0  0
   56.6450   29.3280   44.8890 C   0  0  0  0  0  0  0  0  0  0  0  0
   57.0730   27.8580   45.3910 S   0  0  0  0  0  0  0  0  0  0  0  0
   63.4102   33.3514   48.7243 H   0  0  0  0  0  0  0  0  0  0  0  0
   63.6083   31.9977   47.5602 H   0  0  0  0  0  0  0  0  0  0  0  0
   64.7782   33.3608   47.5602 H   0  0  0  0  0  0  0  0  0  0  0  0
   62.9511   34.9071   46.8761 H   0  0  0  0  0  0  0  0  0  0  0  0
   63.2111   33.5469   45.6883 H   0  0  0  0  0  0  0  0  0  0  0  0
   61.2068   32.5561   46.1455 H   0  0  0  0  0  0  0  0  0  0  0  0
   61.1490   33.2723   47.8361 H   0  0  0  0  0  0  0  0  0  0  0  0
   60.9227   35.5071   46.3141 H   0  0  0  0  0  0  0  0  0  0  0  0
   60.0550   34.2727   45.2931 H   0  0  0  0  0  0  0  0  0  0  0  0
   59.4721   34.8368   48.2320 H   0  0  0  0  0  0  0  0  0  0  0  0
   58.5371   35.4829   46.8063 H   0  0  0  0  0  0  0  0  0  0  0  0
   58.8969   32.5452   46.8394 H   0  0  0  0  0  0  0  0  0  0  0  0
   57.8814   33.2612   48.1941 H   0  0  0  0  0  0  0  0  0  0  0  0
   56.4056   32.5862   46.4393 H   0  0  0  0  0  0  0  0  0  0  0  0
   56.5221   34.4061   46.4731 H   0  0  0  0  0  0  0  0  0  0  0  0
   56.4924   33.6344   44.1657 H   0  0  0  0  0  0  0  0  0  0  0  0
   58.1250   34.3067   44.5952 H   0  0  0  0  0  0  0  0  0  0  0  0
   58.9209   32.4258   43.6290 H   0  0  0  0  0  0  0  0  0  0  0  0
   58.4284   31.6498   45.2019 H   0  0  0  0  0  0  0  0  0  0  0  0
   56.4706   31.8359   42.9038 H   0  0  0  0  0  0  0  0  0  0  0  0
   57.7158   30.5295   42.9581 H   0  0  0  0  0  0  0  0  0  0  0  0
  1  2  1  0
  2  3  1  0
  3  4  1  0
  4  5  1  0
  5  6  1  0
  6  7  1  0
  7  8  1  0
  8  9  1  0
  9 10  1  0
 10 11  1  0
 11 12  2  0
 12 13  2  0
  1 14  1  0
  1 15  1  0
  1 16  1  0
  2 17  1  0
  2 18  1  0
  3 19  1  0
  3 20  1  0
  4 21  1  0
  4 22  1  0
  5 23  1  0
  5 24  1  0
  6 25  1  0
  6 26  1  0
  7 27  1  0
  7 28  1  0
  8 29  1  0
  8 30  1  0
  9 31  1  0
  9 32  1  0
 10 33  1  0
 10 34  1  0
M  END
>  <UniqueID>  (22) 
21

>  <SMILES>  (22) 
CCCCCCCCCCN=C=S

>  <Energy>  (22) 
12.620708445211285

>  <Genealogy>  (22) 
CCCCCCCCCCN=C=S (3D coordinates assigned)
CCCCCCCCCCN=C=S (optimized conformer: 12.620708445211285 kcal/mol)

>  <smiles>  (22) 
CCCCCCCCCCN=C=S

>  <score_type>  (22) 
oracle

>  <origin>  (22) 
adg

>  <m_score__min__energy>  (22) 
-5.0999999999999996

>  <m_primary>  (22) 
energy

$$$$
22:0
     RDKit          3D

 28 30  0  0  0  0  0  0  0  0999 V2000
   59.2420   34.5880   45.4740 C   0  0  0  0  0  0  0  0  0  0  0  0
   58.3740   34.0640   44.5210 O   0  0  0  0  0  0  0  0  0  0  0  0
   58.0450   32.7500   44.3240 C   0  0  0  0  0  0  0  0  0  0  0  0
   57.6830   32.2990   43.0810 C   0  0  0  0  0  0  0  0  0  0  0  0
   57.3620   30.9620   42.9420 C   0  0  0  0  0  0  0  0  0  0  0  0
   57.4010   30.1000   44.0180 C   0  0  0  0  0  0  0  0  0  0  0  0
   57.1400   28.7840   44.1420 N   0  0  0  0  0  0  0  0  0  0  0  0
   57.3310   28.4120   45.4240 C   0  0  0  0  0  0  0  0  0  0  0  0
   57.1340   27.0540   45.8920 C   0  0  0  0  0  0  0  0  0  0  0  0
   58.2260   26.2940   46.2670 C   0  0  0  0  0  0  0  0  0  0  0  0
   58.1050   24.9990   46.7190 C   0  0  0  0  0  0  0  0  0  0  0  0
   56.8280   24.4790   46.7850 C   0  0  0  0  0  0  0  0  0  0  0  0
   55.7400   25.1940   46.4270 N   0  0  0  0  0  0  0  0  0  0  0  0
   55.8800   26.4770   45.9800 C   0  0  0  0  0  0  0  0  0  0  0  0
   57.7100   29.4950   46.0930 N   0  0  0  0  0  0  0  0  0  0  0  0
   57.7670   30.5580   45.2670 C   0  0  0  0  0  0  0  0  0  0  0  0
   58.0920   31.9030   45.4200 C   0  0  0  0  0  0  0  0  0  0  0  0
   58.8627   34.3590   46.4808 H   0  0  0  0  0  0  0  0  0  0  0  0
   60.2389   34.1407   45.3473 H   0  0  0  0  0  0  0  0  0  0  0  0
   59.3106   35.6785   45.3473 H   0  0  0  0  0  0  0  0  0  0  0  0
   57.6490   32.9817   42.2191 H   0  0  0  0  0  0  0  0  0  0  0  0
   57.0696   30.5777   41.9537 H   0  0  0  0  0  0  0  0  0  0  0  0
   56.8400   28.2090   43.3180 H   0  0  0  0  0  0  0  0  0  0  0  0
   59.2292   26.7405   46.2019 H   0  0  0  0  0  0  0  0  0  0  0  0
   58.9841   24.4070   47.0135 H   0  0  0  0  0  0  0  0  0  0  0  0
   56.6922   23.4472   47.1413 H   0  0  0  0  0  0  0  0  0  0  0  0
   54.9905   27.0547   45.6883 H   0  0  0  0  0  0  0  0  0  0  0  0
   58.3848   32.2918   46.4065 H   0  0  0  0  0  0  0  0  0  0  0  0
  1  2  1  0
  2  3  1  0
  3  4  2  0
  4  5  1  0
  5  6  2  0
  6  7  1  0
  7  8  1  0
  8  9  1  0
  9 10  2  0
 10 11  1  0
 11 12  2  0
 12 13  1  0
 13 14  2  0
  8 15  2  0
 15 16  1  0
 16 17  2  0
 17  3  1  0
 16  6  1  0
 14  9  1  0
  1 18  1  0
  1 19  1  0
  1 20  1  0
  4 21  1  0
  5 22  1  0
  7 23  1  0
 10 24  1  0
 11 25  1  0
 12 26  1  0
 14 27  1  0
 17 28  1  0
M  END
>  <smiles>  (23) 
COc1ccc2[nH]c(-c3cccnc3)nc2c1

>  <score_type>  (23) 
oracle

>  <origin>  (23) 
adg

>  <m_score__min__energy>  (23) 
-5.8099999999999996

>  <m_primary>  (23) 
energy

$$$$
23:0
     RDKit          3D

 35 37  0  0  0  0  0  0  0  0999 V2000
   59.6510   35.2810   45.7480 C   0  0  0  0  0  0  0  0  0  0  0  0
   59.9330   34.6230   47.0930 C   0  0  0  0  0  0  0  0  0  0  0  0
   59.7380   33.1700   47.0260 N   0  0  0  0  0  0  0  0  0  0  0  0
   60.6380   32.1850   47.2770 C   0  0  0  0  0  0  0  0  0  0  0  0
   61.9690   32.3590   47.8950 C   0  0  0  0  0  0  0  0  0  0  0  0
   62.2880   31.6610   49.0720 C   0  0  0  0  0  0  0  0  0  0  0  0
   63.5340   31.8350   49.6810 C   0  0  0  0  0  0  0  0  0  0  0  0
   64.4670   32.7180   49.1310 C   0  0  0  0  0  0  0  0  0  0  0  0
   64.1500   33.4340   47.9740 C   0  0  0  0  0  0  0  0  0  0  0  0
   62.9040   33.2630   47.3610 C   0  0  0  0  0  0  0  0  0  0  0  0
   60.1940   30.9870   46.8410 N   0  0  0  0  0  0  0  0  0  0  0  0
   59.0000   31.2020   46.3150 N   0  0  0  0  0  0  0  0  0  0  0  0
   58.7210   32.5100   46.4310 C   0  0  0  0  0  0  0  0  0  0  0  0
   57.2240   33.2640   45.7840 S   0  0  0  0  0  0  0  0  0  0  0  0
   57.0140   32.0080   44.5220 C   0  0  0  0  0  0  0  0  0  0  0  0
   57.4160   32.2390   43.2010 C   0  0  0  0  0  0  0  0  0  0  0  0
   57.2360   31.2360   42.2460 C   0  0  0  0  0  0  0  0  0  0  0  0
   56.6660   30.0170   42.6170 C   0  0  0  0  0  0  0  0  0  0  0  0
   56.2870   29.8180   43.9460 C   0  0  0  0  0  0  0  0  0  0  0  0
   56.4700   30.8070   44.8620 N   0  0  0  0  0  0  0  0  0  0  0  0
   59.2225   36.2808   45.9116 H   0  0  0  0  0  0  0  0  0  0  0  0
   60.5890   35.3724   45.1807 H   0  0  0  0  0  0  0  0  0  0  0  0
   58.9379   34.6648   45.1807 H   0  0  0  0  0  0  0  0  0  0  0  0
   60.9732   34.8321   47.3833 H   0  0  0  0  0  0  0  0  0  0  0  0
   59.2323   35.0339   47.8347 H   0  0  0  0  0  0  0  0  0  0  0  0
   61.5531   30.9738   49.5166 H   0  0  0  0  0  0  0  0  0  0  0  0
   63.7807   31.2755   50.5954 H   0  0  0  0  0  0  0  0  0  0  0  0
   65.4494   32.8491   49.6082 H   0  0  0  0  0  0  0  0  0  0  0  0
   64.8817   34.1338   47.5440 H   0  0  0  0  0  0  0  0  0  0  0  0
   62.6548   33.8384   46.4572 H   0  0  0  0  0  0  0  0  0  0  0  0
   58.4010   30.4670   45.8790 H   0  0  0  0  0  0  0  0  0  0  0  0
   57.8690   33.2007   42.9182 H   0  0  0  0  0  0  0  0  0  0  0  0
   57.5428   31.4063   41.2035 H   0  0  0  0  0  0  0  0  0  0  0  0
   56.5171   29.2224   41.8710 H   0  0  0  0  0  0  0  0  0  0  0  0
   55.8401   28.8608   44.2526 H   0  0  0  0  0  0  0  0  0  0  0  0
  1  2  1  0
  2  3  1  0
  3  4  1  0
  4  5  1  0
  5  6  2  0
  6  7  1  0
  7  8  2  0
  8  9  1  0
  9 10  2  0
  4 11  2  0
 11 12  1  0
 12 13  2  0
 13 14  1  0
 14 15  1  0
 15 16  2  0
 16 17  1  0
 17 18  2  0
 18 19  1  0
 19 20  2  0
 13  3  1  0
 20 15  1  0
 10  5  1  0
  1 21  1  0
  1 22  1  0
  1 23  1  0
  2 24  1  0
  2 25  1  0
  6 26  1  0
  7 27  1  0
  8 28  1  0
  9 29  1  0
 10 30  1  0
 12 31  1  0
 16 32  1  0
 17 33  1  0
 18 34  1  0
 19 35  1  0
M  CHG  1  12   1
M  END
>  <UniqueID>  (24) 
22

>  <SMILES>  (24) 
CCn1c(-c2ccccc2)n[nH+]c1Sc1ccccn1

>  <Energy>  (24) 
73.5771909746671

>  <Genealogy>  (24) 
CCn1c(-c2ccccc2)n[nH+]c1Sc1ccccn1 (protonated)
CCn1c(-c2ccccc2)n[nH+]c1Sc1ccccn1 (3D coordinates assigned)
CCn1c(-c2ccccc2)n[nH+]c1Sc1ccccn1 (optimized conformer: 73.5771909746671 kcal/mol)

>  <smiles>  (24) 
CCn1c(Sc2ccccn2)nnc1-c1ccccc1

>  <score_type>  (24) 
oracle

>  <origin>  (24) 
adg

>  <m_score__min__energy>  (24) 
-5.9699999999999998

>  <m_primary>  (24) 
energy

$$$$
24:0
     RDKit          3D

 48 50  0  0  0  0  0  0  0  0999 V2000
   62.9000   33.3030   47.8310 C   0  0  0  0  0  0  0  0  0  0  0  0
   62.1200   34.2600   48.4710 O   0  0  0  0  0  0  0  0  0  0  0  0
   60.9290   33.7220   48.9250 C   0  0  0  0  0  0  0  0  0  0  0  0
   59.8250   34.6390   48.4870 C   0  0  0  0  0  0  0  0  0  0  0  0
   59.2420   34.2560   47.2230 N   0  0  0  0  0  0  0  0  0  0  0  0
   60.1610   34.4560   46.1170 C   0  0  0  0  0  0  0  0  0  0  0  0
   59.2460   34.6090   44.8930 C   0  0  0  0  0  0  0  0  0  0  0  0
   58.4100   33.3890   44.7520 C   0  0  0  0  0  0  0  0  0  0  0  0
   57.8010   32.8040   43.7010 N   0  0  0  0  0  0  0  0  0  0  0  0
   57.1780   31.7140   44.1410 C   0  0  0  0  0  0  0  0  0  0  0  0
   56.3630   30.7140   43.3630 C   0  0  0  0  0  0  0  0  0  0  0  0
   56.9460   29.3660   43.7250 C   0  0  0  0  0  0  0  0  0  0  0  0
   56.8350   29.0250   45.0470 O   0  0  0  0  0  0  0  0  0  0  0  0
   57.9410   28.3750   45.5620 C   0  0  0  0  0  0  0  0  0  0  0  0
   59.0260   28.3740   44.5050 C   0  0  0  0  0  0  0  0  0  0  0  0
   60.2980   28.5470   45.3440 C   0  0  0  0  0  0  0  0  0  0  0  0
   59.8490   29.6360   46.3110 C   0  0  0  0  0  0  0  0  0  0  0  0
   58.5170   29.0800   46.7710 C   0  0  0  0  0  0  0  0  0  0  0  0
   57.3960   31.6150   45.4670 N   0  0  0  0  0  0  0  0  0  0  0  0
   58.1580   32.6430   45.8740 C   0  0  0  0  0  0  0  0  0  0  0  0
   58.6570   32.9550   47.2320 C   0  0  0  0  0  0  0  0  0  0  0  0
   63.4072   32.6807   48.5830 H   0  0  0  0  0  0  0  0  0  0  0  0
   62.2587   32.6682   47.2019 H   0  0  0  0  0  0  0  0  0  0  0  0
   63.6511   33.8031   47.2019 H   0  0  0  0  0  0  0  0  0  0  0  0
   60.7799   32.7214   48.4931 H   0  0  0  0  0  0  0  0  0  0  0  0
   60.9403   33.6243   50.0206 H   0  0  0  0  0  0  0  0  0  0  0  0
   59.0365   34.6297   49.2539 H   0  0  0  0  0  0  0  0  0  0  0  0
   60.2607   35.6408   48.3584 H   0  0  0  0  0  0  0  0  0  0  0  0
   60.7641   35.3632   46.2696 H   0  0  0  0  0  0  0  0  0  0  0  0
   60.8771   33.6282   46.0080 H   0  0  0  0  0  0  0  0  0  0  0  0
   58.5964   35.4866   45.0267 H   0  0  0  0  0  0  0  0  0  0  0  0
   59.8579   34.7440   43.9889 H   0  0  0  0  0  0  0  0  0  0  0  0
   55.3038   30.7679   43.6549 H   0  0  0  0  0  0  0  0  0  0  0  0
   56.4017   30.9031   42.2801 H   0  0  0  0  0  0  0  0  0  0  0  0
   56.4286   28.5991   43.1299 H   0  0  0  0  0  0  0  0  0  0  0  0
   58.0234   29.4292   43.5125 H   0  0  0  0  0  0  0  0  0  0  0  0
   57.6204   27.3645   45.8553 H   0  0  0  0  0  0  0  0  0  0  0  0
   59.0408   27.4245   43.9499 H   0  0  0  0  0  0  0  0  0  0  0  0
   58.8948   29.1512   43.7377 H   0  0  0  0  0  0  0  0  0  0  0  0
   60.5648   27.6199   45.8724 H   0  0  0  0  0  0  0  0  0  0  0  0
   61.1992   28.7935   44.7635 H   0  0  0  0  0  0  0  0  0  0  0  0
   60.5521   29.7470   47.1496 H   0  0  0  0  0  0  0  0  0  0  0  0
   59.7931   30.6415   45.8685 H   0  0  0  0  0  0  0  0  0  0  0  0
   58.6608   28.3702   47.5990 H   0  0  0  0  0  0  0  0  0  0  0  0
   57.8484   29.8705   47.1426 H   0  0  0  0  0  0  0  0  0  0  0  0
   57.0190   30.8450   46.0740 H   0  0  0  0  0  0  0  0  0  0  0  0
   57.8212   32.9311   47.9468 H   0  0  0  0  0  0  0  0  0  0  0  0
   59.4093   32.2107   47.5322 H   0  0  0  0  0  0  0  0  0  0  0  0
  1  2  1  0
  2  3  1  0
  3  4  1  0
  4  5  1  0
  5  6  1  0
  6  7  1  0
  7  8  1  0
  8  9  1  0
  9 10  2  0
 10 11  1  0
 11 12  1  0
 12 13  1  0
 13 14  1  0
 14 15  1  0
 15 16  1  0
 16 17  1  0
 17 18  1  0
 10 19  1  0
 19 20  1  0
 20 21  1  0
 21  5  1  0
 20  8  2  0
 18 14  1  0
  1 22  1  0
  1 23  1  0
  1 24  1  0
  3 25  1  0
  3 26  1  0
  4 27  1  0
  4 28  1  0
  6 29  1  0
  6 30  1  0
  7 31  1  0
  7 32  1  0
 11 33  1  0
 11 34  1  0
 12 35  1  0
 12 36  1  0
 14 37  1  0
 15 38  1  0
 15 39  1  0
 16 40  1  0
 16 41  1  0
 17 42  1  0
 17 43  1  0
 18 44  1  0
 18 45  1  0
 19 46  1  0
 21 47  1  0
 21 48  1  0
M  END
>  <smiles>  (25) 
COCCN1CCc2nc(CCOC3CCCC3)[nH]c2C1

>  <score_type>  (25) 
oracle

>  <origin>  (25) 
adg

>  <m_score__min__energy>  (25) 
-6.8499999999999996

>  <m_primary>  (25) 
energy

$$$$
25:0
     RDKit          3D

 49 51  0  0  0  0  0  0  0  0999 V2000
   63.3390   33.3860   47.5430 C   0  0  0  0  0  0  0  0  0  0  0  0
   62.1640   32.4830   47.8000 C   0  0  0  0  0  0  0  0  0  0  0  0
   62.0810   31.2610   47.1120 C   0  0  0  0  0  0  0  0  0  0  0  0
   60.9810   30.4200   47.2870 C   0  0  0  0  0  0  0  0  0  0  0  0
   59.9450   30.7770   48.1520 C   0  0  0  0  0  0  0  0  0  0  0  0
   58.8650   29.8910   48.2970 O   0  0  0  0  0  0  0  0  0  0  0  0
   58.9280   28.4770   48.0990 C   0  0  0  0  0  0  0  0  0  0  0  0
   58.5220   28.1190   46.6920 C   0  0  0  0  0  0  0  0  0  0  0  0
   58.8420   26.8650   46.1510 C   0  0  0  0  0  0  0  0  0  0  0  0
   58.4910   26.5570   44.8340 C   0  0  0  0  0  0  0  0  0  0  0  0
   57.8260   27.5000   44.0440 C   0  0  0  0  0  0  0  0  0  0  0  0
   57.5040   28.7600   44.5730 C   0  0  0  0  0  0  0  0  0  0  0  0
   56.8160   29.7950   43.7220 C   0  0  0  0  0  0  0  0  0  0  0  0
   56.4370   30.9270   44.5080 O   0  0  0  0  0  0  0  0  0  0  0  0
   57.2920   31.9790   44.8790 C   0  0  0  0  0  0  0  0  0  0  0  0
   58.0260   32.7290   43.9400 C   0  0  0  0  0  0  0  0  0  0  0  0
   58.8540   33.7730   44.3630 C   0  0  0  0  0  0  0  0  0  0  0  0
   58.9760   34.0790   45.7280 C   0  0  0  0  0  0  0  0  0  0  0  0
   59.8010   35.2630   46.1630 C   0  0  0  0  0  0  0  0  0  0  0  0
   61.1400   34.9240   46.2670 F   0  0  0  0  0  0  0  0  0  0  0  0
   59.6800   36.2960   45.2480 F   0  0  0  0  0  0  0  0  0  0  0  0
   59.3510   35.7020   47.3980 F   0  0  0  0  0  0  0  0  0  0  0  0
   58.2340   33.3350   46.6610 C   0  0  0  0  0  0  0  0  0  0  0  0
   57.4080   32.2900   46.2380 C   0  0  0  0  0  0  0  0  0  0  0  0
   57.8220   29.0490   45.9080 C   0  0  0  0  0  0  0  0  0  0  0  0
   60.0160   32.0020   48.8410 C   0  0  0  0  0  0  0  0  0  0  0  0
   61.1090   32.8670   48.6600 C   0  0  0  0  0  0  0  0  0  0  0  0
   61.1520   34.1630   49.4260 C   0  0  0  0  0  0  0  0  0  0  0  0
   63.7660   33.7141   48.5022 H   0  0  0  0  0  0  0  0  0  0  0  0
   64.1025   32.8400   46.9694 H   0  0  0  0  0  0  0  0  0  0  0  0
   63.0079   34.2643   46.9694 H   0  0  0  0  0  0  0  0  0  0  0  0
   62.8906   30.9642   46.4290 H   0  0  0  0  0  0  0  0  0  0  0  0
   60.9299   29.4678   46.7387 H   0  0  0  0  0  0  0  0  0  0  0  0
   59.9575   28.1327   48.2767 H   0  0  0  0  0  0  0  0  0  0  0  0
   58.2367   27.9896   48.8022 H   0  0  0  0  0  0  0  0  0  0  0  0
   59.3710   26.1217   46.7655 H   0  0  0  0  0  0  0  0  0  0  0  0
   58.7386   25.5695   44.4173 H   0  0  0  0  0  0  0  0  0  0  0  0
   57.5548   27.2542   43.0067 H   0  0  0  0  0  0  0  0  0  0  0  0
   57.5017   30.1216   42.9263 H   0  0  0  0  0  0  0  0  0  0  0  0
   55.9099   29.3483   43.2867 H   0  0  0  0  0  0  0  0  0  0  0  0
   57.9475   32.4923   42.8686 H   0  0  0  0  0  0  0  0  0  0  0  0
   59.4146   34.3596   43.6203 H   0  0  0  0  0  0  0  0  0  0  0  0
   58.3038   33.5768   47.7318 H   0  0  0  0  0  0  0  0  0  0  0  0
   56.8438   31.7066   46.9806 H   0  0  0  0  0  0  0  0  0  0  0  0
   57.5202   30.0127   46.3442 H   0  0  0  0  0  0  0  0  0  0  0  0
   59.2064   32.2860   49.5294 H   0  0  0  0  0  0  0  0  0  0  0  0
   61.1450   33.9513   50.5054 H   0  0  0  0  0  0  0  0  0  0  0  0
   62.0689   34.7123   49.1660 H   0  0  0  0  0  0  0  0  0  0  0  0
   60.2736   34.7719   49.1660 H   0  0  0  0  0  0  0  0  0  0  0  0
  1  2  1  0
  2  3  2  0
  3  4  1  0
  4  5  2  0
  5  6  1  0
  6  7  1  0
  7  8  1  0
  8  9  2  0
  9 10  1  0
 10 11  2  0
 11 12  1  0
 12 13  1  0
 13 14  1  0
 14 15  1  0
 15 16  2  0
 16 17  1  0
 17 18  2  0
 18 19  1  0
 19 20  1  0
 19 21  1  0
 19 22  1  0
 18 23  1  0
 23 24  2  0
 12 25  2  0
  5 26  1  0
 26 27  2  0
 27 28  1  0
 27  2  1  0
 25  8  1  0
 24 15  1  0
  1 29  1  0
  1 30  1  0
  1 31  1  0
  3 32  1  0
  4 33  1  0
  7 34  1  0
  7 35  1  0
  9 36  1  0
 10 37  1  0
 11 38  1  0
 13 39  1  0
 13 40  1  0
 16 41  1  0
 17 42  1  0
 23 43  1  0
 24 44  1  0
 25 45  1  0
 26 46  1  0
 28 47  1  0
 28 48  1  0
 28 49  1  0
M  END
>  <UniqueID>  (26) 
23

>  <SMILES>  (26) 
Cc1ccc(OCc2cccc(COc3ccc(C(F)(F)F)cc3)c2)cc1C

>  <Energy>  (26) 
47.15316374132596

>  <Genealogy>  (26) 
Cc1ccc(OCc2cccc(COc3ccc(C(F)(F)F)cc3)c2)cc1C (3D coordinates assigned)
Cc1ccc(OCc2cccc(COc3ccc(C(F)(F)F)cc3)c2)cc1C (optimized conformer: 47.15316374132596 kcal/mol)

>  <smiles>  (26) 
Cc1ccc(OCc2cccc(COc3ccc(C(F)(F)F)cc3)c2)cc1C

>  <score_type>  (26) 
oracle

>  <origin>  (26) 
adg

>  <m_score__min__energy>  (26) 
-8.2200000000000006

>  <m_primary>  (26) 
energy

$$$$
26:0
     RDKit          3D

 16 16  0  0  0  0  0  0  0  0999 V2000
   57.3030   34.2030   45.2820 C   0  0  0  0  0  0  0  0  0  0  0  0
   58.2840   32.7490   44.8550 S   0  0  0  0  0  0  0  0  0  0  0  0
   57.2890   31.4320   44.1720 C   0  0  0  0  0  0  0  0  0  0  0  0
   56.6480   30.4860   44.8700 N   0  0  0  0  0  0  0  0  0  0  0  0
   55.9990   29.6610   43.9990 C   0  0  0  0  0  0  0  0  0  0  0  0
   56.2480   30.1110   42.7460 N   0  0  0  0  0  0  0  0  0  0  0  0
   57.0420   31.2040   42.8290 C   0  0  0  0  0  0  0  0  0  0  0  0
   57.5330   31.9810   41.6630 C   0  0  0  0  0  0  0  0  0  0  0  0
   57.2409   34.2950   46.3764 H   0  0  0  0  0  0  0  0  0  0  0  0
   57.7797   35.1023   44.8649 H   0  0  0  0  0  0  0  0  0  0  0  0
   56.2906   34.0977   44.8649 H   0  0  0  0  0  0  0  0  0  0  0  0
   55.3847   28.7884   44.2658 H   0  0  0  0  0  0  0  0  0  0  0  0
   55.8820   29.6800   41.8600 H   0  0  0  0  0  0  0  0  0  0  0  0
   58.0893   32.8614   42.0171 H   0  0  0  0  0  0  0  0  0  0  0  0
   58.1960   31.3488   41.0540 H   0  0  0  0  0  0  0  0  0  0  0  0
   56.6775   32.3084   41.0540 H   0  0  0  0  0  0  0  0  0  0  0  0
  1  2  1  0
  2  3  1  0
  3  4  1  0
  4  5  2  0
  5  6  1  0
  6  7  1  0
  7  8  1  0
  7  3  2  0
  1  9  1  0
  1 10  1  0
  1 11  1  0
  5 12  1  0
  6 13  1  0
  8 14  1  0
  8 15  1  0
  8 16  1  0
M  END
>  <smiles>  (27) 
CSc1nc[nH]c1C

>  <score_type>  (27) 
oracle

>  <origin>  (27) 
adg

>  <m_score__min__energy>  (27) 
-4.5

>  <m_primary>  (27) 
energy

$$$$
27:0
     RDKit          3D

 47 50  0  0  0  0  0  0  0  0999 V2000
   60.5332   27.5491   46.3156 H   0  0  0  0  0  0  0  0  0  0  0  0
   59.5460   27.9400   46.0280 C   0  0  0  0  0  0  0  0  0  0  0  0
   59.4320   29.2010   45.5390 N   0  0  0  0  0  0  0  0  0  0  0  0
   58.2330   29.7320   45.1690 C   0  0  0  0  0  0  0  0  0  0  0  0
   58.2100   31.1090   44.6370 C   0  0  0  0  0  0  0  0  0  0  0  0
   57.6690   31.5120   43.4210 C   0  0  0  0  0  0  0  0  0  0  0  0
   57.2177   30.8457   42.6711 H   0  0  0  0  0  0  0  0  0  0  0  0
   57.7870   32.8580   43.3080 N   0  0  0  0  0  0  0  0  0  0  0  0
   57.4690   33.4580   42.5160 H   0  0  0  0  0  0  0  0  0  0  0  0
   58.3740   33.2480   44.4560 C   0  0  0  0  0  0  0  0  0  0  0  0
   58.6700   34.5470   44.8470 C   0  0  0  0  0  0  0  0  0  0  0  0
   58.4712   35.4032   44.1857 H   0  0  0  0  0  0  0  0  0  0  0  0
   59.2330   34.7230   46.1200 C   0  0  0  0  0  0  0  0  0  0  0  0
   59.4983   35.7314   46.4705 H   0  0  0  0  0  0  0  0  0  0  0  0
   59.4600   33.5960   46.9560 C   0  0  0  0  0  0  0  0  0  0  0  0
   59.9740   33.6960   48.1500 N   0  0  0  0  0  0  0  0  0  0  0  0
   61.3480   34.0720   48.5020 C   0  0  0  0  0  0  0  0  0  0  0  0
   61.3829   35.1440   48.7461 H   0  0  0  0  0  0  0  0  0  0  0  0
   61.7870   33.2620   49.7270 C   0  0  0  0  0  0  0  0  0  0  0  0
   62.7653   33.6312   50.0685 H   0  0  0  0  0  0  0  0  0  0  0  0
   61.0278   33.3843   50.5136 H   0  0  0  0  0  0  0  0  0  0  0  0
   61.9050   31.7610   49.3950 C   0  0  0  0  0  0  0  0  0  0  0  0
   62.4883   31.2762   50.1917 H   0  0  0  0  0  0  0  0  0  0  0  0
   60.8788   31.3718   49.3213 H   0  0  0  0  0  0  0  0  0  0  0  0
   62.5650   31.4750   48.0940 N   0  0  0  0  0  0  0  0  0  0  0  0
   61.6550   30.8240   47.1370 C   0  0  0  0  0  0  0  0  0  0  0  0
   60.8801   30.2697   47.6868 H   0  0  0  0  0  0  0  0  0  0  0  0
   61.1799   31.5885   46.5046 H   0  0  0  0  0  0  0  0  0  0  0  0
   62.2251   30.1275   46.5046 H   0  0  0  0  0  0  0  0  0  0  0  0
   63.2500   32.6400   47.4970 C   0  0  0  0  0  0  0  0  0  0  0  0
   64.0770   32.9393   48.1577 H   0  0  0  0  0  0  0  0  0  0  0  0
   63.6136   32.3399   46.5032 H   0  0  0  0  0  0  0  0  0  0  0  0
   62.3090   33.8460   47.3060 C   0  0  0  0  0  0  0  0  0  0  0  0
   62.9223   34.7498   47.1758 H   0  0  0  0  0  0  0  0  0  0  0  0
   61.6863   33.6359   46.4239 H   0  0  0  0  0  0  0  0  0  0  0  0
   59.1330   32.3560   46.4940 N   0  0  0  0  0  0  0  0  0  0  0  0
   58.6320   32.2190   45.2690 N   0  0  0  0  0  0  0  0  0  0  0  0
   57.0550   28.9720   45.3280 C   0  0  0  0  0  0  0  0  0  0  0  0
   55.8100   29.5500   45.0310 O   0  0  0  0  0  0  0  0  0  0  0  0
   55.2890   29.7210   43.7170 C   0  0  0  0  0  0  0  0  0  0  0  0
   54.2455   30.0635   43.7780 H   0  0  0  0  0  0  0  0  0  0  0  0
   55.8896   30.4692   43.1789 H   0  0  0  0  0  0  0  0  0  0  0  0
   55.3294   28.7624   43.1789 H   0  0  0  0  0  0  0  0  0  0  0  0
   57.1650   27.6570   45.8170 C   0  0  0  0  0  0  0  0  0  0  0  0
   56.2642   27.0348   45.9244 H   0  0  0  0  0  0  0  0  0  0  0  0
   58.4130   27.1400   46.1660 C   0  0  0  0  0  0  0  0  0  0  0  0
   58.5019   26.1116   46.5462 H   0  0  0  0  0  0  0  0  0  0  0  0
  1  2  1  0
  2  3  2  0
  3  4  1  0
  4  5  1  0
  5  6  2  0
  6  7  1  0
  6  8  1  0
  8  9  1  0
  8 10  2  0
 10 11  1  0
 11 12  1  0
 11 13  2  0
 13 14  1  0
 13 15  1  0
 15 16  2  0
 16 17  1  0
 17 18  1  0
 17 19  1  0
 19 20  1  0
 19 21  1  0
 19 22  1  0
 22 23  1  0
 22 24  1  0
 22 25  1  0
 25 26  1  0
 26 27  1  0
 26 28  1  0
 26 29  1  0
 25 30  1  0
 30 31  1  0
 30 32  1  0
 30 33  1  0
 33 34  1  0
 33 35  1  0
 15 36  1  0
 36 37  1  0
  4 38  2  0
 38 39  1  0
 39 40  1  0
 40 41  1  0
 40 42  1  0
 40 43  1  0
 38 44  1  0
 44 45  1  0
 44 46  2  0
 46 47  1  0
 46  2  1  0
 37  5  1  0
 37 10  1  0
 33 17  1  0
M  CHG  2   8   1  36  -1
M  END
>  <UniqueID>  (28) 
24

>  <SMILES>  (28) 
COc1cccnc1-c1c[nH+]c2cc/c(=N\C3CCN(C)CC3)[n-]n12

>  <Energy>  (28) 
102.69236867785122

>  <Genealogy>  (28) 
COc1cccnc1-c1c[nH+]c2ccc(=NC3CCN(C)CC3)[n-]n12 (protonated)
COc1cccnc1-c1c[nH+]c2cc/c(=N\C3CCN(C)CC3)[n-]n12 (cis-trans isomerization)
COc1cccnc1-c1c[nH+]c2cc/c(=N\C3CCN(C)CC3)[n-]n12 (3D coordinates assigned)
COc1cccnc1-c1c[nH+]c2cc/c(=N\C3CCN(C)CC3)[n-]n12 (nonaromatic ring conformer: 102.69236867785122 kcal/mol)

>  <smiles>  (28) 
COc1cccnc1-c1cnc2ccc(=NC3CCN(C)CC3)[nH]n12

>  <score_type>  (28) 
oracle

>  <origin>  (28) 
adg

>  <m_score__min__energy>  (28) 
-7.4000000000000004

>  <m_primary>  (28) 
energy

$$$$
28:0
     RDKit          3D

 64 66  0  0  0  0  0  0  0  0999 V2000
   58.6000   30.1450   49.3440 H   0  0  0  0  0  0  0  0  0  0  0  0
   59.1750   30.7980   48.7660 N   0  0  0  0  0  0  0  0  0  0  0  0
   59.9880   30.2080   47.7390 C   0  0  0  0  0  0  0  0  0  0  0  0
   61.2340   30.5420   47.5590 N   0  0  0  0  0  0  0  0  0  0  0  0
   61.9430   31.6510   48.1920 C   0  0  0  0  0  0  0  0  0  0  0  0
   62.2213   31.3678   49.2178 H   0  0  0  0  0  0  0  0  0  0  0  0
   61.2873   32.5339   48.2147 H   0  0  0  0  0  0  0  0  0  0  0  0
   63.2070   31.9830   47.3970 C   0  0  0  0  0  0  0  0  0  0  0  0
   63.1730   31.4489   46.4360 H   0  0  0  0  0  0  0  0  0  0  0  0
   64.0766   31.6710   47.9941 H   0  0  0  0  0  0  0  0  0  0  0  0
   63.3330   33.4810   47.1250 C   0  0  0  0  0  0  0  0  0  0  0  0
   63.3787   34.0245   48.0802 H   0  0  0  0  0  0  0  0  0  0  0  0
   64.2505   33.6733   46.5495 H   0  0  0  0  0  0  0  0  0  0  0  0
   62.4605   33.8238   46.5495 H   0  0  0  0  0  0  0  0  0  0  0  0
   59.4710   29.0920   47.0120 N   0  0  0  0  0  0  0  0  0  0  0  0
   58.5260   28.1610   47.6160 C   0  0  0  0  0  0  0  0  0  0  0  0
   58.8118   27.9301   48.6528 H   0  0  0  0  0  0  0  0  0  0  0  0
   57.5043   28.5654   47.6674 H   0  0  0  0  0  0  0  0  0  0  0  0
   58.6260   26.9100   46.7290 C   0  0  1  0  0  0  0  0  0  0  0  0
   58.3020   25.6260   47.5100 C   0  0  0  0  0  0  0  0  0  0  0  0
   58.3536   25.8306   48.5896 H   0  0  0  0  0  0  0  0  0  0  0  0
   57.2894   25.2841   47.2496 H   0  0  0  0  0  0  0  0  0  0  0  0
   59.0311   24.8446   47.2496 H   0  0  0  0  0  0  0  0  0  0  0  0
   57.7260   27.0390   45.4630 C   0  0  0  0  0  0  0  0  0  0  0  0
   56.6848   27.1569   45.7977 H   0  0  0  0  0  0  0  0  0  0  0  0
   57.9010   26.1271   44.8733 H   0  0  0  0  0  0  0  0  0  0  0  0
   58.0700   28.2490   44.5050 C   0  0  0  0  0  0  0  0  0  0  0  0
   57.7720   27.8190   43.0500 C   0  0  0  0  0  0  0  0  0  0  0  0
   57.1454   26.9149   43.0559 H   0  0  0  0  0  0  0  0  0  0  0  0
   57.2411   28.6297   42.5295 H   0  0  0  0  0  0  0  0  0  0  0  0
   58.7175   27.6065   42.5295 H   0  0  0  0  0  0  0  0  0  0  0  0
   57.1490   29.4570   44.8100 C   0  0  0  0  0  0  0  0  0  0  0  0
   57.0548   29.5805   45.8990 H   0  0  0  0  0  0  0  0  0  0  0  0
   57.5834   30.3686   44.3738 H   0  0  0  0  0  0  0  0  0  0  0  0
   56.1549   29.2795   44.3738 H   0  0  0  0  0  0  0  0  0  0  0  0
   59.5770   28.6970   44.5900 C   0  0  0  0  0  0  0  0  0  0  0  0
   59.6292   29.7770   44.3878 H   0  0  0  0  0  0  0  0  0  0  0  0
   60.1295   28.1014   43.8484 H   0  0  0  0  0  0  0  0  0  0  0  0
   60.2330   28.4270   45.9600 C   0  0  2  0  0  0  0  0  0  0  0  0
   61.2778   28.7688   45.9198 H   0  0  0  0  0  0  0  0  0  0  0  0
   60.0820   26.9490   46.2750 C   0  0  0  0  0  0  0  0  0  0  0  0
   60.7660   26.6324   47.0762 H   0  0  0  0  0  0  0  0  0  0  0  0
   60.3201   26.2750   45.4389 H   0  0  0  0  0  0  0  0  0  0  0  0
   58.8400   32.2240   48.8480 C   0  0  0  0  0  0  0  0  0  0  0  0
   58.0828   32.3658   49.6332 H   0  0  0  0  0  0  0  0  0  0  0  0
   59.7631   32.7759   49.0790 H   0  0  0  0  0  0  0  0  0  0  0  0
   58.2820   32.7680   47.5140 C   0  0  0  0  0  0  0  0  0  0  0  0
   57.4464   32.1267   47.1969 H   0  0  0  0  0  0  0  0  0  0  0  0
   57.9617   33.8052   47.6918 H   0  0  0  0  0  0  0  0  0  0  0  0
   59.2960   32.7980   46.4240 N   0  0  0  0  0  0  0  0  0  0  0  0
   60.0680   32.1390   46.6720 H   0  0  0  0  0  0  0  0  0  0  0  0
   59.8930   34.1500   46.2430 C   0  0  0  0  0  0  0  0  0  0  0  0
   59.8270   34.6944   47.1965 H   0  0  0  0  0  0  0  0  0  0  0  0
   60.9369   34.0125   45.9247 H   0  0  0  0  0  0  0  0  0  0  0  0
   59.1780   34.9750   45.1530 C   0  0  0  0  0  0  0  0  0  0  0  0
   59.2488   36.0438   45.4035 H   0  0  0  0  0  0  0  0  0  0  0  0
   59.6616   34.7790   44.1846 H   0  0  0  0  0  0  0  0  0  0  0  0
   57.8190   34.6080   45.0660 O   0  0  0  0  0  0  0  0  0  0  0  0
   57.6980   33.2920   44.5560 C   0  0  0  0  0  0  0  0  0  0  0  0
   56.6888   32.9203   44.7867 H   0  0  0  0  0  0  0  0  0  0  0  0
   57.8846   33.3455   43.4733 H   0  0  0  0  0  0  0  0  0  0  0  0
   58.7320   32.3040   45.1490 C   0  0  0  0  0  0  0  0  0  0  0  0
   58.2384   31.3376   45.3289 H   0  0  0  0  0  0  0  0  0  0  0  0
   59.5566   32.1991   44.4285 H   0  0  0  0  0  0  0  0  0  0  0  0
  1  2  1  0
  2  3  1  0
  3  4  2  0
  4  5  1  0
  5  6  1  0
  5  7  1  0
  5  8  1  0
  8  9  1  0
  8 10  1  0
  8 11  1  0
 11 12  1  0
 11 13  1  0
 11 14  1  0
  3 15  1  0
 15 16  1  0
 16 17  1  0
 16 18  1  0
 16 19  1  0
 19 20  1  1
 20 21  1  0
 20 22  1  0
 20 23  1  0
 19 24  1  0
 24 25  1  0
 24 26  1  0
 24 27  1  0
 27 28  1  0
 28 29  1  0
 28 30  1  0
 28 31  1  0
 27 32  1  0
 32 33  1  0
 32 34  1  0
 32 35  1  0
 27 36  1  0
 36 37  1  0
 36 38  1  0
 36 39  1  0
 39 40  1  6
 39 41  1  0
 41 42  1  0
 41 43  1  0
  2 44  1  0
 44 45  1  0
 44 46  1  0
 44 47  1  0
 47 48  1  0
 47 49  1  0
 47 50  1  0
 50 51  1  0
 50 52  1  0
 52 53  1  0
 52 54  1  0
 52 55  1  0
 55 56  1  0
 55 57  1  0
 55 58  1  0
 58 59  1  0
 59 60  1  0
 59 61  1  0
 59 62  1  0
 62 63  1  0
 62 64  1  0
 39 15  1  0
 62 50  1  0
 41 19  1  0
M  CHG  1  50   1
M  END
>  <UniqueID>  (29) 
25

>  <SMILES>  (29) 
CCC/N=C(\NCC[NH+]1CCOCC1)N1C[C@]2(C)C[C@H]1CC(C)(C)C2

>  <Energy>  (29) 
89.72033776390226

>  <Genealogy>  (29) 
CCCN=C(NCC[NH+]1CCOCC1)N1CC2(C)CC1CC(C)(C)C2 (protonated)
CCCN=C(NCC[NH+]1CCOCC1)N1C[C@]2(C)C[C@H]1CC(C)(C)C2 (chirality)
CCC/N=C(\NCC[NH+]1CCOCC1)N1C[C@]2(C)C[C@H]1CC(C)(C)C2 (cis-trans isomerization)
CCC/N=C(\NCC[NH+]1CCOCC1)N1C[C@]2(C)C[C@H]1CC(C)(C)C2 (3D coordinates assigned)
CCC/N=C(\NCC[NH+]1CCOCC1)N1C[C@]2(C)C[C@H]1CC(C)(C)C2 (nonaromatic ring conformer: 89.72033776390226 kcal/mol)

>  <smiles>  (29) 
CCCN=C(NCCN1CCOCC1)N1CC2(C)CC1CC(C)(C)C2

>  <score_type>  (29) 
oracle

>  <origin>  (29) 
adg

>  <m_score__min__energy>  (29) 
-5.96

>  <m_primary>  (29) 
energy

$$$$
29:0
     RDKit          3D

 35 37  0  0  0  0  0  0  0  0999 V2000
   55.3770   29.3820   44.8780 O   0  0  0  0  0  0  0  0  0  0  0  0
   56.7100   29.4570   44.1840 S   0  0  0  0  0  0  0  0  0  0  0  0
   56.5040   29.3100   42.7020 O   0  0  0  0  0  0  0  0  0  0  0  0
   57.4620   31.0190   44.4970 C   0  0  0  0  0  0  0  0  0  0  0  0
   57.7440   31.8810   43.4280 C   0  0  0  0  0  0  0  0  0  0  0  0
   58.3410   33.1230   43.6600 C   0  0  0  0  0  0  0  0  0  0  0  0
   58.6610   33.5170   44.9660 C   0  0  0  0  0  0  0  0  0  0  0  0
   59.2630   34.7620   45.2120 C   0  0  0  0  0  0  0  0  0  0  0  0
   59.5760   35.1440   46.5190 C   0  0  0  0  0  0  0  0  0  0  0  0
   59.2920   34.2910   47.5890 C   0  0  0  0  0  0  0  0  0  0  0  0
   58.6930   33.0490   47.3580 C   0  0  0  0  0  0  0  0  0  0  0  0
   58.3750   32.6530   46.0510 C   0  0  0  0  0  0  0  0  0  0  0  0
   57.7740   31.4080   45.8070 C   0  0  0  0  0  0  0  0  0  0  0  0
   57.7430   28.1770   44.7710 N   0  0  0  0  0  0  0  0  0  0  0  0
   59.0890   28.2490   44.1510 C   0  0  0  0  0  0  0  0  0  0  0  0
   60.1510   28.8110   45.1090 C   0  0  0  0  0  0  0  0  0  0  0  0
   60.2600   28.0030   46.3360 N   0  0  0  0  0  0  0  0  0  0  0  0
   58.9800   27.4190   46.7840 C   0  0  0  0  0  0  0  0  0  0  0  0
   57.7670   28.1900   46.2480 C   0  0  0  0  0  0  0  0  0  0  0  0
   57.4939   31.5779   42.4006 H   0  0  0  0  0  0  0  0  0  0  0  0
   58.5602   33.7928   42.8154 H   0  0  0  0  0  0  0  0  0  0  0  0
   59.4885   35.4377   44.3738 H   0  0  0  0  0  0  0  0  0  0  0  0
   60.0478   36.1199   46.7065 H   0  0  0  0  0  0  0  0  0  0  0  0
   59.5404   34.5976   48.6158 H   0  0  0  0  0  0  0  0  0  0  0  0
   58.4707   32.3811   48.2033 H   0  0  0  0  0  0  0  0  0  0  0  0
   57.5470   30.7351   46.6471 H   0  0  0  0  0  0  0  0  0  0  0  0
   59.3908   27.2364   43.8452 H   0  0  0  0  0  0  0  0  0  0  0  0
   59.0233   28.9299   43.2896 H   0  0  0  0  0  0  0  0  0  0  0  0
   61.1251   28.8163   44.5979 H   0  0  0  0  0  0  0  0  0  0  0  0
   59.8503   29.8298   45.3948 H   0  0  0  0  0  0  0  0  0  0  0  0
   60.6300   28.6220   47.0950 H   0  0  0  0  0  0  0  0  0  0  0  0
   58.9227   26.3792   46.4296 H   0  0  0  0  0  0  0  0  0  0  0  0
   58.9529   27.4721   47.8824 H   0  0  0  0  0  0  0  0  0  0  0  0
   56.8467   27.7216   46.6270 H   0  0  0  0  0  0  0  0  0  0  0  0
   57.8362   29.2337   46.5886 H   0  0  0  0  0  0  0  0  0  0  0  0
  1  2  2  0
  2  3  2  0
  2  4  1  0
  4  5  2  0
  5  6  1  0
  6  7  2  0
  7  8  1  0
  8  9  2  0
  9 10  1  0
 10 11  2  0
 11 12  1  0
 12 13  2  0
  2 14  1  0
 14 15  1  0
 15 16  1  0
 16 17  1  0
 17 18  1  0
 18 19  1  0
 13  4  1  0
 19 14  1  0
 12  7  1  0
  5 20  1  0
  6 21  1  0
  8 22  1  0
  9 23  1  0
 10 24  1  0
 11 25  1  0
 13 26  1  0
 15 27  1  0
 15 28  1  0
 16 29  1  0
 16 30  1  0
 17 31  1  0
 18 32  1  0
 18 33  1  0
 19 34  1  0
 19 35  1  0
M  END
>  <UniqueID>  (30) 
26

>  <SMILES>  (30) 
O=S(=O)(c1ccc2ccccc2c1)N1CCNCC1

>  <Energy>  (30) 
47.722868373452364

>  <Genealogy>  (30) 
O=S(=O)(c1ccc2ccccc2c1)N1CCNCC1 (3D coordinates assigned)
O=S(=O)(c1ccc2ccccc2c1)N1CCNCC1 (nonaromatic ring conformer: 47.722868373452364 kcal/mol)

>  <smiles>  (30) 
O=S(=O)(c1ccc2ccccc2c1)N1CCNCC1

>  <score_type>  (30) 
oracle

>  <origin>  (30) 
adg

>  <m_score__min__energy>  (30) 
-8.1300000000000008

>  <m_primary>  (30) 
energy

$$$$
30:0
     RDKit          3D

 30 32  0  0  0  0  0  0  0  0999 V2000
   59.1260   34.2240   44.9500 C   0  0  0  0  0  0  0  0  0  0  0  0
   59.2280   33.9360   46.4240 C   0  0  0  0  0  0  0  0  0  0  0  0
   59.5890   34.9760   47.2990 C   0  0  0  0  0  0  0  0  0  0  0  0
   59.7120   34.7380   48.6700 C   0  0  0  0  0  0  0  0  0  0  0  0
   59.4710   33.4650   49.1830 C   0  0  0  0  0  0  0  0  0  0  0  0
   59.0970   32.4250   48.3290 C   0  0  0  0  0  0  0  0  0  0  0  0
   58.9650   32.6460   46.9470 C   0  0  0  0  0  0  0  0  0  0  0  0
   58.5470   31.5650   46.0950 N   0  0  0  0  0  0  0  0  0  0  0  0
   57.3440   31.4720   45.5360 N   0  0  0  0  0  0  0  0  0  0  0  0
   57.2880   30.3160   44.8250 C   0  0  0  0  0  0  0  0  0  0  0  0
   56.1000   29.8940   44.0660 C   0  0  0  0  0  0  0  0  0  0  0  0
   55.1460   29.0030   44.6340 N   0  0  0  0  0  0  0  0  0  0  0  0
   55.9240   30.3270   42.8960 O   0  0  0  0  0  0  0  0  0  0  0  0
   58.5050   29.6620   44.9500 C   0  0  0  0  0  0  0  0  0  0  0  0
   59.0310   28.4730   44.4460 C   0  0  0  0  0  0  0  0  0  0  0  0
   60.3550   28.1540   44.7960 C   0  0  0  0  0  0  0  0  0  0  0  0
   61.0970   29.0300   45.6220 C   0  0  0  0  0  0  0  0  0  0  0  0
   60.5360   30.1860   46.0890 N   0  0  0  0  0  0  0  0  0  0  0  0
   59.2530   30.4730   45.7520 C   0  0  0  0  0  0  0  0  0  0  0  0
   58.7621   35.2514   44.8015 H   0  0  0  0  0  0  0  0  0  0  0  0
   60.1173   34.1154   44.4857 H   0  0  0  0  0  0  0  0  0  0  0  0
   58.4241   33.5157   44.4857 H   0  0  0  0  0  0  0  0  0  0  0  0
   59.7759   35.9843   46.9010 H   0  0  0  0  0  0  0  0  0  0  0  0
   59.9996   35.5569   49.3458 H   0  0  0  0  0  0  0  0  0  0  0  0
   59.5755   33.2789   50.2621 H   0  0  0  0  0  0  0  0  0  0  0  0
   58.9040   31.4238   48.7416 H   0  0  0  0  0  0  0  0  0  0  0  0
   54.4200   29.3470   45.3020 H   0  0  0  0  0  0  0  0  0  0  0  0
   58.4344   27.8114   43.8008 H   0  0  0  0  0  0  0  0  0  0  0  0
   60.8131   27.2242   44.4278 H   0  0  0  0  0  0  0  0  0  0  0  0
   62.1337   28.7792   45.8908 H   0  0  0  0  0  0  0  0  0  0  0  0
  1  2  1  0
  2  3  2  0
  3  4  1  0
  4  5  2  0
  5  6  1  0
  6  7  2  0
  7  8  1  0
  8  9  1  0
  9 10  2  0
 10 11  1  0
 11 12  1  0
 11 13  2  0
 10 14  1  0
 14 15  2  0
 15 16  1  0
 16 17  2  0
 17 18  1  0
 18 19  2  0
  7  2  1  0
 19  8  1  0
 19 14  1  0
  1 20  1  0
  1 21  1  0
  1 22  1  0
  3 23  1  0
  4 24  1  0
  5 25  1  0
  6 26  1  0
 12 27  1  0
 15 28  1  0
 16 29  1  0
 17 30  1  0
M  CHG  1  12  -1
M  END
>  <UniqueID>  (31) 
27

>  <SMILES>  (31) 
Cc1ccccc1-n1nc(C([NH-])=O)c2cccnc21

>  <Energy>  (31) 
79.2166279955012

>  <Genealogy>  (31) 
Cc1ccccc1-n1nc(C([NH-])=O)c2cccnc21 (protonated)
Cc1ccccc1-n1nc(C([NH-])=O)c2cccnc21 (3D coordinates assigned)
Cc1ccccc1-n1nc(C([NH-])=O)c2cccnc21 (optimized conformer: 79.2166279955012 kcal/mol)

>  <smiles>  (31) 
Cc1ccccc1-n1nc(C(N)=O)c2cccnc21

>  <score_type>  (31) 
oracle

>  <origin>  (31) 
adg

>  <m_score__min__energy>  (31) 
-10.279999999999999

>  <m_primary>  (31) 
energy

$$$$
31:0
     RDKit          3D

 32 32  0  0  0  0  0  0  0  0999 V2000
   61.7378   34.8010   50.5980 H   0  0  0  0  0  0  0  0  0  0  0  0
   62.6690   34.5630   50.0630 C   0  0  0  0  0  0  0  0  0  0  0  0
   63.3557   35.3702   49.7683 H   0  0  0  0  0  0  0  0  0  0  0  0
   62.9660   33.2930   49.7710 C   0  0  0  0  0  0  0  0  0  0  0  0
   62.2694   32.4967   50.0722 H   0  0  0  0  0  0  0  0  0  0  0  0
   64.2320   32.9240   49.0390 C   0  0  0  0  0  0  0  0  0  0  0  0
   64.9462   33.7563   49.1239 H   0  0  0  0  0  0  0  0  0  0  0  0
   64.6319   32.0066   49.4955 H   0  0  0  0  0  0  0  0  0  0  0  0
   63.9860   32.6490   47.6000 N   0  0  1  0  0  0  0  0  0  0  0  0
   64.8730   32.3270   47.1490 H   0  0  0  0  0  0  0  0  0  0  0  0
   62.9920   31.5680   47.4420 C   0  0  0  0  0  0  0  0  0  0  0  0
   62.6702   31.2180   48.4339 H   0  0  0  0  0  0  0  0  0  0  0  0
   62.1217   31.9484   46.8872 H   0  0  0  0  0  0  0  0  0  0  0  0
   63.4439   30.7326   46.8872 H   0  0  0  0  0  0  0  0  0  0  0  0
   63.5030   33.8660   46.9040 C   0  0  0  0  0  0  0  0  0  0  0  0
   63.5249   34.7093   47.6100 H   0  0  0  0  0  0  0  0  0  0  0  0
   64.1635   34.0453   46.0428 H   0  0  0  0  0  0  0  0  0  0  0  0
   62.0930   33.7070   46.3800 C   0  0  0  0  0  0  0  0  0  0  0  0
   61.9373   33.0343   45.5237 H   0  0  0  0  0  0  0  0  0  0  0  0
   61.0200   34.3300   46.8880 C   0  0  0  0  0  0  0  0  0  0  0  0
   61.1850   35.1133   47.6425 H   0  0  0  0  0  0  0  0  0  0  0  0
   59.6330   34.0270   46.4950 C   0  0  0  0  0  0  0  0  0  0  0  0
   59.1690   34.4690   45.2470 C   0  0  0  0  0  0  0  0  0  0  0  0
   59.8394   35.0343   44.5830 H   0  0  0  0  0  0  0  0  0  0  0  0
   57.8600   34.1950   44.8430 C   0  0  0  0  0  0  0  0  0  0  0  0
   57.5075   34.5311   43.8567 H   0  0  0  0  0  0  0  0  0  0  0  0
   56.9990   33.4950   45.6900 C   0  0  0  0  0  0  0  0  0  0  0  0
   55.9717   33.2713   45.3665 H   0  0  0  0  0  0  0  0  0  0  0  0
   57.4410   33.0780   46.9490 C   0  0  0  0  0  0  0  0  0  0  0  0
   56.7563   32.5361   47.6180 H   0  0  0  0  0  0  0  0  0  0  0  0
   58.7510   33.3470   47.3620 C   0  0  0  0  0  0  0  0  0  0  0  0
   59.2400   32.8670   48.9840 Cl  0  0  0  0  0  0  0  0  0  0  0  0
  1  2  1  0
  2  3  1  0
  2  4  2  0
  4  5  1  0
  4  6  1  0
  6  7  1  0
  6  8  1  0
  6  9  1  0
  9 10  1  6
  9 11  1  0
 11 12  1  0
 11 13  1  0
 11 14  1  0
  9 15  1  0
 15 16  1  0
 15 17  1  0
 15 18  1  0
 18 19  1  0
 18 20  2  0
 20 21  1  0
 20 22  1  0
 22 23  2  0
 23 24  1  0
 23 25  1  0
 25 26  1  0
 25 27  2  0
 27 28  1  0
 27 29  1  0
 29 30  1  0
 29 31  2  0
 31 32  1  0
 31 22  1  0
M  CHG  1   9   1
M  END
>  <UniqueID>  (32) 
28

>  <SMILES>  (32) 
C=CC[N@@H+](C)C/C=C\c1ccccc1Cl

>  <Energy>  (32) 
35.56831365777217

>  <Genealogy>  (32) 
C=CC[NH+](C)CC=Cc1ccccc1Cl (protonated)
C=CC[N@@H+](C)CC=Cc1ccccc1Cl (chirality)
C=CC[N@@H+](C)C/C=C\c1ccccc1Cl (cis-trans isomerization)
C=CC[N@@H+](C)C/C=C\c1ccccc1Cl (3D coordinates assigned)
C=CC[N@@H+](C)C/C=C\c1ccccc1Cl (optimized conformer: 35.56831365777217 kcal/mol)

>  <smiles>  (32) 
C=CCN(C)CC=Cc1ccccc1Cl

>  <score_type>  (32) 
oracle

>  <origin>  (32) 
adg

>  <m_score__min__energy>  (32) 
-4.5800000000000001

>  <m_primary>  (32) 
energy

$$$$
32:0
     RDKit          3D

 48 48  0  0  0  0  0  0  0  0999 V2000
   60.1650   26.7330   46.3910 C   0  0  0  0  0  0  0  0  0  0  0  0
   59.2170   26.7860   47.5850 C   0  0  0  0  0  0  0  0  0  0  0  0
   58.0900   25.7430   47.4920 C   0  0  0  0  0  0  0  0  0  0  0  0
   57.4450   25.7210   46.1700 N   0  0  0  0  0  0  0  0  0  0  0  0
   57.5010   24.5170   45.3280 C   0  0  0  0  0  0  0  0  0  0  0  0
   57.3670   24.8620   43.8320 C   0  0  0  0  0  0  0  0  0  0  0  0
   56.6110   23.7860   43.0540 C   0  0  0  0  0  0  0  0  0  0  0  0
   56.5100   26.7610   45.8460 C   0  0  0  0  0  0  0  0  0  0  0  0
   55.2830   26.5930   46.0730 O   0  0  0  0  0  0  0  0  0  0  0  0
   56.9840   28.0620   45.2570 C   0  0  0  0  0  0  0  0  0  0  0  0
   55.8920   29.0350   45.1130 N   0  0  0  0  0  0  0  0  0  0  0  0
   55.9370   29.7250   43.8170 C   0  0  0  0  0  0  0  0  0  0  0  0
   56.6670   31.0320   43.9530 C   0  0  0  0  0  0  0  0  0  0  0  0
   57.1600   31.5670   42.9250 O   0  0  0  0  0  0  0  0  0  0  0  0
   56.8590   31.6710   45.2230 N   0  0  0  0  0  0  0  0  0  0  0  0
   57.8860   32.6240   45.5370 C   0  0  0  0  0  0  0  0  0  0  0  0
   57.8900   33.8930   44.9370 C   0  0  0  0  0  0  0  0  0  0  0  0
   58.8920   34.8160   45.2440 C   0  0  0  0  0  0  0  0  0  0  0  0
   59.9070   34.4750   46.1390 C   0  0  0  0  0  0  0  0  0  0  0  0
   59.9290   33.2060   46.7210 C   0  0  0  0  0  0  0  0  0  0  0  0
   58.9300   32.2650   46.4140 C   0  0  0  0  0  0  0  0  0  0  0  0
   58.9500   30.9100   47.0650 C   0  0  0  0  0  0  0  0  0  0  0  0
   61.2033   26.6750   46.7495 H   0  0  0  0  0  0  0  0  0  0  0  0
   59.9375   25.8462   45.7813 H   0  0  0  0  0  0  0  0  0  0  0  0
   60.0378   27.6397   45.7813 H   0  0  0  0  0  0  0  0  0  0  0  0
   59.7948   26.5995   48.5022 H   0  0  0  0  0  0  0  0  0  0  0  0
   58.7496   27.7817   47.5955 H   0  0  0  0  0  0  0  0  0  0  0  0
   58.5137   24.7481   47.6935 H   0  0  0  0  0  0  0  0  0  0  0  0
   57.3228   26.0157   48.2317 H   0  0  0  0  0  0  0  0  0  0  0  0
   58.4639   24.0112   45.4925 H   0  0  0  0  0  0  0  0  0  0  0  0
   56.6606   23.8641   45.6063 H   0  0  0  0  0  0  0  0  0  0  0  0
   56.8252   25.8145   43.7358 H   0  0  0  0  0  0  0  0  0  0  0  0
   58.3807   24.9320   43.4108 H   0  0  0  0  0  0  0  0  0  0  0  0
   56.1260   23.0957   43.7599 H   0  0  0  0  0  0  0  0  0  0  0  0
   55.8465   24.2602   42.4210 H   0  0  0  0  0  0  0  0  0  0  0  0
   57.3163   23.2275   42.4210 H   0  0  0  0  0  0  0  0  0  0  0  0
   57.7550   28.4891   45.9152 H   0  0  0  0  0  0  0  0  0  0  0  0
   57.3855   27.8532   44.2544 H   0  0  0  0  0  0  0  0  0  0  0  0
   55.9500   29.7430   45.8820 H   0  0  0  0  0  0  0  0  0  0  0  0
   56.4591   29.0911   43.0852 H   0  0  0  0  0  0  0  0  0  0  0  0
   54.9092   29.9202   43.4771 H   0  0  0  0  0  0  0  0  0  0  0  0
   57.0994   34.1619   44.2210 H   0  0  0  0  0  0  0  0  0  0  0  0
   58.8812   35.8132   44.7797 H   0  0  0  0  0  0  0  0  0  0  0  0
   60.6904   35.2066   46.3862 H   0  0  0  0  0  0  0  0  0  0  0  0
   60.7325   32.9407   47.4238 H   0  0  0  0  0  0  0  0  0  0  0  0
   58.9483   31.0286   48.1586 H   0  0  0  0  0  0  0  0  0  0  0  0
   58.0601   30.3418   46.7564 H   0  0  0  0  0  0  0  0  0  0  0  0
   59.8562   30.3683   46.7564 H   0  0  0  0  0  0  0  0  0  0  0  0
  1  2  1  0
  2  3  1  0
  3  4  1  0
  4  5  1  0
  5  6  1  0
  6  7  1  0
  4  8  1  0
  8  9  2  0
  8 10  1  0
 10 11  1  0
 11 12  1  0
 12 13  1  0
 13 14  2  0
 13 15  1  0
 15 16  1  0
 16 17  2  0
 17 18  1  0
 18 19  2  0
 19 20  1  0
 20 21  2  0
 21 22  1  0
 21 16  1  0
  1 23  1  0
  1 24  1  0
  1 25  1  0
  2 26  1  0
  2 27  1  0
  3 28  1  0
  3 29  1  0
  5 30  1  0
  5 31  1  0
  6 32  1  0
  6 33  1  0
  7 34  1  0
  7 35  1  0
  7 36  1  0
 10 37  1  0
 10 38  1  0
 11 39  1  0
 12 40  1  0
 12 41  1  0
 17 42  1  0
 18 43  1  0
 19 44  1  0
 20 45  1  0
 22 46  1  0
 22 47  1  0
 22 48  1  0
M  CHG  1  15  -1
M  END
>  <UniqueID>  (33) 
29

>  <SMILES>  (33) 
CCCN(CCC)C(=O)CNCC(=O)[N-]c1ccccc1C

>  <Energy>  (33) 
46.36899633842019

>  <Genealogy>  (33) 
CCCN(CCC)C(=O)CNCC(=O)[N-]c1ccccc1C (protonated)
CCCN(CCC)C(=O)CNCC(=O)[N-]c1ccccc1C (3D coordinates assigned)
CCCN(CCC)C(=O)CNCC(=O)[N-]c1ccccc1C (optimized conformer: 46.36899633842019 kcal/mol)

>  <smiles>  (33) 
CCCN(CCC)C(=O)CNCC(=O)Nc1ccccc1C

>  <score_type>  (33) 
oracle

>  <origin>  (33) 
adg

>  <m_score__min__energy>  (33) 
-8.7100000000000009

>  <m_primary>  (33) 
energy

$$$$
33:0
     RDKit          3D

 33 33  0  0  0  0  0  0  0  0999 V2000
   62.7760   31.4830   47.5420 C   0  0  0  0  0  0  0  0  0  0  0  0
   63.7620   32.5760   47.6310 N   0  0  0  0  0  0  0  0  0  0  0  0
   64.2050   32.7190   49.0310 C   0  0  0  0  0  0  0  0  0  0  0  0
   63.1670   33.8370   47.1150 C   0  0  0  0  0  0  0  0  0  0  0  0
   61.8360   33.6270   46.3620 C   0  0  0  0  0  0  0  0  0  0  0  0
   60.6960   34.5600   46.8020 C   0  0  0  0  0  0  0  0  0  0  0  0
   59.5520   33.8160   47.2290 O   0  0  0  0  0  0  0  0  0  0  0  0
   58.8160   32.8940   46.4650 C   0  0  0  0  0  0  0  0  0  0  0  0
   57.8240   33.3940   45.6140 C   0  0  0  0  0  0  0  0  0  0  0  0
   57.0510   32.5330   44.8340 C   0  0  0  0  0  0  0  0  0  0  0  0
   57.2590   31.1440   44.8860 C   0  0  0  0  0  0  0  0  0  0  0  0
   56.4620   30.2500   44.0860 N   0  0  0  0  0  0  0  0  0  0  0  0
   56.6730   30.1320   42.8600 O   0  0  0  0  0  0  0  0  0  0  0  0
   55.4530   29.5100   44.6590 O   0  0  0  0  0  0  0  0  0  0  0  0
   58.2610   30.6390   45.7310 C   0  0  0  0  0  0  0  0  0  0  0  0
   59.0360   31.5030   46.5100 C   0  0  0  0  0  0  0  0  0  0  0  0
   62.4889   31.1648   48.5551 H   0  0  0  0  0  0  0  0  0  0  0  0
   61.8849   31.8361   47.0023 H   0  0  0  0  0  0  0  0  0  0  0  0
   63.2187   30.6329   47.0023 H   0  0  0  0  0  0  0  0  0  0  0  0
   64.5880   32.3020   47.0540 H   0  0  0  0  0  0  0  0  0  0  0  0
   63.3786   32.4522   49.7062 H   0  0  0  0  0  0  0  0  0  0  0  0
   65.0593   32.0510   49.2153 H   0  0  0  0  0  0  0  0  0  0  0  0
   64.5075   33.7604   49.2153 H   0  0  0  0  0  0  0  0  0  0  0  0
   62.9831   34.5090   47.9662 H   0  0  0  0  0  0  0  0  0  0  0  0
   63.8824   34.2614   46.3952 H   0  0  0  0  0  0  0  0  0  0  0  0
   62.0190   33.7913   45.2899 H   0  0  0  0  0  0  0  0  0  0  0  0
   61.5065   32.6031   46.5923 H   0  0  0  0  0  0  0  0  0  0  0  0
   61.0472   35.1869   47.6349 H   0  0  0  0  0  0  0  0  0  0  0  0
   60.4050   35.1821   45.9428 H   0  0  0  0  0  0  0  0  0  0  0  0
   57.6515   34.4790   45.5592 H   0  0  0  0  0  0  0  0  0  0  0  0
   56.2733   32.9444   44.1737 H   0  0  0  0  0  0  0  0  0  0  0  0
   58.4373   29.5543   45.7801 H   0  0  0  0  0  0  0  0  0  0  0  0
   59.8222   31.0946   47.1620 H   0  0  0  0  0  0  0  0  0  0  0  0
  1  2  1  0
  2  3  1  0
  2  4  1  0
  4  5  1  0
  5  6  1  0
  6  7  1  0
  7  8  1  0
  8  9  2  0
  9 10  1  0
 10 11  2  0
 11 12  1  0
 12 13  2  0
 12 14  1  0
 11 15  1  0
 15 16  2  0
 16  8  1  0
  1 17  1  0
  1 18  1  0
  1 19  1  0
  2 20  1  0
  3 21  1  0
  3 22  1  0
  3 23  1  0
  4 24  1  0
  4 25  1  0
  5 26  1  0
  5 27  1  0
  6 28  1  0
  6 29  1  0
  9 30  1  0
 10 31  1  0
 15 32  1  0
 16 33  1  0
M  CHG  3   2   1  12   1  14  -1
M  END
>  <UniqueID>  (34) 
30

>  <SMILES>  (34) 
C[NH+](C)CCCOc1ccc([N+](=O)[O-])cc1

>  <Energy>  (34) 
33.17970633233266

>  <Genealogy>  (34) 
C[NH+](C)CCCOc1ccc([N+](=O)[O-])cc1 (protonated)
C[NH+](C)CCCOc1ccc([N+](=O)[O-])cc1 (3D coordinates assigned)
C[NH+](C)CCCOc1ccc([N+](=O)[O-])cc1 (optimized conformer: 33.17970633233266 kcal/mol)

>  <smiles>  (34) 
CN(C)CCCOc1ccc([N+](=O)[O-])cc1

>  <score_type>  (34) 
oracle

>  <origin>  (34) 
adg

>  <m_score__min__energy>  (34) 
-4.5

>  <m_primary>  (34) 
energy

$$$$
34:0
     RDKit          3D

 20 21  0  0  0  0  0  0  0  0999 V2000
   57.7780   31.1170   45.3070 Cl  0  0  0  0  0  0  0  0  0  0  0  0
   58.6870   32.5560   45.7330 C   0  0  0  0  0  0  0  0  0  0  0  0
   58.1720   33.8210   45.4360 C   0  0  0  0  0  0  0  0  0  0  0  0
   58.8970   34.9660   45.7700 C   0  0  0  0  0  0  0  0  0  0  0  0
   60.1390   34.8510   46.4020 C   0  0  0  0  0  0  0  0  0  0  0  0
   60.6700   33.5840   46.7100 C   0  0  0  0  0  0  0  0  0  0  0  0
   61.9510   33.4640   47.3630 N   0  0  0  0  0  0  0  0  0  0  0  0
   62.2260   33.6710   48.6690 C   0  0  0  0  0  0  0  0  0  0  0  0
   63.5700   33.4490   48.8720 C   0  0  0  0  0  0  0  0  0  0  0  0
   64.1290   33.1010   47.6990 N   0  0  0  0  0  0  0  0  0  0  0  0
   63.1290   33.1180   46.7980 C   0  0  0  0  0  0  0  0  0  0  0  0
   59.9290   32.4370   46.3670 C   0  0  0  0  0  0  0  0  0  0  0  0
   57.1951   33.9142   44.9389 H   0  0  0  0  0  0  0  0  0  0  0  0
   58.4905   35.9609   45.5356 H   0  0  0  0  0  0  0  0  0  0  0  0
   60.7057   35.7577   46.6606 H   0  0  0  0  0  0  0  0  0  0  0  0
   61.4994   33.9669   49.4401 H   0  0  0  0  0  0  0  0  0  0  0  0
   64.0980   33.5409   49.8326 H   0  0  0  0  0  0  0  0  0  0  0  0
   65.1300   32.8650   47.5240 H   0  0  0  0  0  0  0  0  0  0  0  0
   63.2553   32.8793   45.7317 H   0  0  0  0  0  0  0  0  0  0  0  0
   60.3295   31.4392   46.5992 H   0  0  0  0  0  0  0  0  0  0  0  0
  1  2  1  0
  2  3  2  0
  3  4  1  0
  4  5  2  0
  5  6  1  0
  6  7  1  0
  7  8  1  0
  8  9  2  0
  9 10  1  0
 10 11  2  0
  6 12  2  0
 12  2  1  0
 11  7  1  0
  3 13  1  0
  4 14  1  0
  5 15  1  0
  8 16  1  0
  9 17  1  0
 10 18  1  0
 11 19  1  0
 12 20  1  0
M  CHG  1  10   1
M  END
>  <UniqueID>  (35) 
31

>  <SMILES>  (35) 
Clc1cccc(-n2cc[nH+]c2)c1

>  <Energy>  (35) 
54.004752501180946

>  <Genealogy>  (35) 
Clc1cccc(-n2cc[nH+]c2)c1 (protonated)
Clc1cccc(-n2cc[nH+]c2)c1 (3D coordinates assigned)
Clc1cccc(-n2cc[nH+]c2)c1 (optimized conformer: 54.004752501180946 kcal/mol)

>  <smiles>  (35) 
Clc1cccc(-n2ccnc2)c1

>  <score_type>  (35) 
oracle

>  <origin>  (35) 
adg

>  <m_score__min__energy>  (35) 
-3.8599999999999999

>  <m_primary>  (35) 
energy

$$$$
35:0
     RDKit          3D

 47 50  0  0  0  0  0  0  0  0999 V2000
   57.1850   34.2450   44.5380 C   0  0  0  0  0  0  0  0  0  0  0  0
   56.7190   33.5030   45.7860 C   0  0  0  0  0  0  0  0  0  0  0  0
   57.8670   32.8980   46.4750 N   0  0  0  0  0  0  0  0  0  0  0  0
   57.8470   31.5740   46.7330 N   0  0  0  0  0  0  0  0  0  0  0  0
   58.8530   30.9450   47.4160 C   0  0  0  0  0  0  0  0  0  0  0  0
   58.7520   29.5080   47.7170 C   0  0  0  0  0  0  0  0  0  0  0  0
   58.7150   29.1290   48.9160 O   0  0  0  0  0  0  0  0  0  0  0  0
   58.6780   28.5310   46.6700 N   0  0  0  0  0  0  0  0  0  0  0  0
   57.4380   28.0650   46.0540 C   0  0  0  0  0  0  0  0  0  0  0  0
   56.9850   29.0220   44.9960 C   0  0  0  0  0  0  0  0  0  0  0  0
   57.2850   28.9430   43.6500 C   0  0  0  0  0  0  0  0  0  0  0  0
   56.6980   30.0480   43.0740 C   0  0  0  0  0  0  0  0  0  0  0  0
   56.0710   30.7280   44.1000 C   0  0  0  0  0  0  0  0  0  0  0  0
   56.2590   30.0900   45.2330 O   0  0  0  0  0  0  0  0  0  0  0  0
   59.9240   31.7260   47.8540 C   0  0  0  0  0  0  0  0  0  0  0  0
   61.0530   31.4880   48.6230 C   0  0  0  0  0  0  0  0  0  0  0  0
   61.4550   30.1920   49.2670 C   0  0  0  0  0  0  0  0  0  0  0  0
   61.7040   32.6760   48.7650 N   0  0  0  0  0  0  0  0  0  0  0  0
   62.9320   32.9230   49.4670 C   0  0  0  0  0  0  0  0  0  0  0  0
   62.9490   33.8140   50.5520 C   0  0  0  0  0  0  0  0  0  0  0  0
   64.1440   34.0790   51.2300 C   0  0  0  0  0  0  0  0  0  0  0  0
   65.3330   33.4680   50.8190 C   0  0  0  0  0  0  0  0  0  0  0  0
   66.9630   33.8330   51.7440 Br  0  0  0  0  0  0  0  0  0  0  0  0
   65.3280   32.5960   49.7260 C   0  0  0  0  0  0  0  0  0  0  0  0
   64.1350   32.3290   49.0480 C   0  0  0  0  0  0  0  0  0  0  0  0
   61.0210   33.6430   48.1600 N   0  0  0  0  0  0  0  0  0  0  0  0
   59.9420   33.0650   47.6060 C   0  0  0  0  0  0  0  0  0  0  0  0
   58.9090   33.6800   46.9170 C   0  0  0  0  0  0  0  0  0  0  0  0
   58.9290   34.9270   46.7200 O   0  0  0  0  0  0  0  0  0  0  0  0
   57.7485   35.1422   44.8338 H   0  0  0  0  0  0  0  0  0  0  0  0
   57.8319   33.5864   43.9399 H   0  0  0  0  0  0  0  0  0  0  0  0
   56.3108   34.5417   43.9399 H   0  0  0  0  0  0  0  0  0  0  0  0
   56.2198   34.2106   46.4643 H   0  0  0  0  0  0  0  0  0  0  0  0
   56.0183   32.7083   45.4904 H   0  0  0  0  0  0  0  0  0  0  0  0
   57.0340   31.0000   46.4070 H   0  0  0  0  0  0  0  0  0  0  0  0
   57.6084   27.0777   45.5998 H   0  0  0  0  0  0  0  0  0  0  0  0
   56.6600   27.9975   46.8287 H   0  0  0  0  0  0  0  0  0  0  0  0
   57.8703   28.1611   43.1439 H   0  0  0  0  0  0  0  0  0  0  0  0
   56.7234   30.3317   42.0115 H   0  0  0  0  0  0  0  0  0  0  0  0
   55.5009   31.6618   43.9857 H   0  0  0  0  0  0  0  0  0  0  0  0
   61.4214   30.3003   50.3611 H   0  0  0  0  0  0  0  0  0  0  0  0
   60.7612   29.3972   48.9558 H   0  0  0  0  0  0  0  0  0  0  0  0
   62.4768   29.9293   48.9558 H   0  0  0  0  0  0  0  0  0  0  0  0
   62.0183   34.3062   50.8706 H   0  0  0  0  0  0  0  0  0  0  0  0
   64.1482   34.7685   52.0870 H   0  0  0  0  0  0  0  0  0  0  0  0
   66.2640   32.1195   49.3992 H   0  0  0  0  0  0  0  0  0  0  0  0
   64.1377   31.6506   48.1821 H   0  0  0  0  0  0  0  0  0  0  0  0
  1  2  1  0
  2  3  1  0
  3  4  1  0
  4  5  2  0
  5  6  1  0
  6  7  2  0
  6  8  1  0
  8  9  1  0
  9 10  1  0
 10 11  2  0
 11 12  1  0
 12 13  2  0
 13 14  1  0
  5 15  1  0
 15 16  2  0
 16 17  1  0
 16 18  1  0
 18 19  1  0
 19 20  2  0
 20 21  1  0
 21 22  2  0
 22 23  1  0
 22 24  1  0
 24 25  2  0
 18 26  1  0
 26 27  2  0
 27 28  1  0
 28 29  2  0
 28  3  1  0
 14 10  1  0
 27 15  1  0
 25 19  1  0
  1 30  1  0
  1 31  1  0
  1 32  1  0
  2 33  1  0
  2 34  1  0
  4 35  1  0
  9 36  1  0
  9 37  1  0
 11 38  1  0
 12 39  1  0
 13 40  1  0
 17 41  1  0
 17 42  1  0
 17 43  1  0
 20 44  1  0
 21 45  1  0
 24 46  1  0
 25 47  1  0
M  CHG  2   4   1   8  -1
M  END
>  <UniqueID>  (36) 
32

>  <SMILES>  (36) 
CCn1[nH+]c(C(=O)[N-]Cc2ccco2)c2c(C)n(-c3ccc(Br)cc3)nc2c1=O

>  <Energy>  (36) 
120.55072597767065

>  <Genealogy>  (36) 
CCn1[nH+]c(C(=O)[N-]Cc2ccco2)c2c(C)n(-c3ccc(Br)cc3)nc2c1=O (protonated)
CCn1[nH+]c(C(=O)[N-]Cc2ccco2)c2c(C)n(-c3ccc(Br)cc3)nc2c1=O (3D coordinates assigned)
CCn1[nH+]c(C(=O)[N-]Cc2ccco2)c2c(C)n(-c3ccc(Br)cc3)nc2c1=O (optimized conformer: 120.55072597767065 kcal/mol)

>  <smiles>  (36) 
CCn1nc(C(=O)NCc2ccco2)c2c(C)n(-c3ccc(Br)cc3)nc2c1=O

>  <score_type>  (36) 
oracle

>  <origin>  (36) 
adg

>  <m_score__min__energy>  (36) 
-7.6699999999999999

>  <m_primary>  (36) 
energy

$$$$
36:0
     RDKit          3D

 47 49  0  0  0  0  0  0  0  0999 V2000
   56.8860   30.0090   43.8380 C   0  0  0  0  0  0  0  0  0  0  0  0
   56.9880   30.6540   45.1030 O   0  0  0  0  0  0  0  0  0  0  0  0
   57.7340   31.8180   45.3520 C   0  0  0  0  0  0  0  0  0  0  0  0
   57.3960   33.0500   44.7550 C   0  0  0  0  0  0  0  0  0  0  0  0
   58.1810   34.1840   44.9760 C   0  0  0  0  0  0  0  0  0  0  0  0
   59.3100   34.1060   45.7890 C   0  0  0  0  0  0  0  0  0  0  0  0
   59.6530   32.8950   46.3940 C   0  0  0  0  0  0  0  0  0  0  0  0
   58.8640   31.7490   46.2000 C   0  0  0  0  0  0  0  0  0  0  0  0
   59.2600   30.4880   46.8680 C   0  0  0  0  0  0  0  0  0  0  0  0
   60.2960   30.4520   47.8140 C   0  0  0  0  0  0  0  0  0  0  0  0
   60.6530   29.2350   48.3940 C   0  0  0  0  0  0  0  0  0  0  0  0
   59.9850   28.0640   48.0290 C   0  0  0  0  0  0  0  0  0  0  0  0
   58.9550   28.1240   47.0750 C   0  0  0  0  0  0  0  0  0  0  0  0
   58.2260   26.9060   46.6340 C   0  0  0  0  0  0  0  0  0  0  0  0
   58.8770   25.6690   46.5200 C   0  0  0  0  0  0  0  0  0  0  0  0
   58.1760   24.5220   46.1090 C   0  0  0  0  0  0  0  0  0  0  0  0
   58.8070   23.2730   45.9820 O   0  0  0  0  0  0  0  0  0  0  0  0
   59.1340   22.6520   44.7430 C   0  0  0  0  0  0  0  0  0  0  0  0
   56.8050   24.6020   45.8140 C   0  0  0  0  0  0  0  0  0  0  0  0
   56.1770   23.4100   45.4060 O   0  0  0  0  0  0  0  0  0  0  0  0
   56.0260   22.9430   44.0700 C   0  0  0  0  0  0  0  0  0  0  0  0
   56.1320   25.8440   45.9390 C   0  0  0  0  0  0  0  0  0  0  0  0
   54.7600   25.9310   45.6530 O   0  0  0  0  0  0  0  0  0  0  0  0
   53.8640   24.8260   45.5930 C   0  0  0  0  0  0  0  0  0  0  0  0
   56.8560   26.9800   46.3520 C   0  0  0  0  0  0  0  0  0  0  0  0
   58.6370   29.3270   46.5210 N   0  0  0  0  0  0  0  0  0  0  0  0
   56.7158   28.9326   43.9879 H   0  0  0  0  0  0  0  0  0  0  0  0
   56.0446   30.4383   43.2743 H   0  0  0  0  0  0  0  0  0  0  0  0
   57.8188   30.1577   43.2743 H   0  0  0  0  0  0  0  0  0  0  0  0
   56.5073   33.1185   44.1103 H   0  0  0  0  0  0  0  0  0  0  0  0
   57.9074   35.1407   44.5072 H   0  0  0  0  0  0  0  0  0  0  0  0
   59.9313   34.9986   45.9543 H   0  0  0  0  0  0  0  0  0  0  0  0
   60.5497   32.8379   47.0286 H   0  0  0  0  0  0  0  0  0  0  0  0
   60.8221   31.3761   48.0957 H   0  0  0  0  0  0  0  0  0  0  0  0
   61.4611   29.1973   49.1393 H   0  0  0  0  0  0  0  0  0  0  0  0
   60.2630   27.1022   48.4848 H   0  0  0  0  0  0  0  0  0  0  0  0
   59.9491   25.5955   46.7550 H   0  0  0  0  0  0  0  0  0  0  0  0
   59.6386   21.6937   44.9351 H   0  0  0  0  0  0  0  0  0  0  0  0
   58.2133   22.4729   44.1684 H   0  0  0  0  0  0  0  0  0  0  0  0
   59.8027   23.3098   44.1684 H   0  0  0  0  0  0  0  0  0  0  0  0
   55.6876   21.8964   44.0835 H   0  0  0  0  0  0  0  0  0  0  0  0
   55.2823   23.5621   43.5470 H   0  0  0  0  0  0  0  0  0  0  0  0
   56.9914   23.0095   43.5470 H   0  0  0  0  0  0  0  0  0  0  0  0
   53.6057   24.5075   46.6137 H   0  0  0  0  0  0  0  0  0  0  0  0
   52.9494   25.1241   45.0595 H   0  0  0  0  0  0  0  0  0  0  0  0
   54.3447   23.9927   45.0595 H   0  0  0  0  0  0  0  0  0  0  0  0
   56.3353   27.9435   46.4549 H   0  0  0  0  0  0  0  0  0  0  0  0
  1  2  1  0
  2  3  1  0
  3  4  2  0
  4  5  1  0
  5  6  2  0
  6  7  1  0
  7  8  2  0
  8  9  1  0
  9 10  2  0
 10 11  1  0
 11 12  2  0
 12 13  1  0
 13 14  1  0
 14 15  2  0
 15 16  1  0
 16 17  1  0
 17 18  1  0
 16 19  2  0
 19 20  1  0
 20 21  1  0
 19 22  1  0
 22 23  1  0
 23 24  1  0
 22 25  2  0
 13 26  2  0
  8  3  1  0
 26  9  1  0
 25 14  1  0
  1 27  1  0
  1 28  1  0
  1 29  1  0
  4 30  1  0
  5 31  1  0
  6 32  1  0
  7 33  1  0
 10 34  1  0
 11 35  1  0
 12 36  1  0
 15 37  1  0
 18 38  1  0
 18 39  1  0
 18 40  1  0
 21 41  1  0
 21 42  1  0
 21 43  1  0
 24 44  1  0
 24 45  1  0
 24 46  1  0
 25 47  1  0
M  END
>  <UniqueID>  (37) 
33

>  <SMILES>  (37) 
COc1ccccc1-c1cccc(-c2cc(OC)c(OC)c(OC)c2)n1

>  <Energy>  (37) 
60.38068951727954

>  <Genealogy>  (37) 
COc1ccccc1-c1cccc(-c2cc(OC)c(OC)c(OC)c2)n1 (3D coordinates assigned)
COc1ccccc1-c1cccc(-c2cc(OC)c(OC)c(OC)c2)n1 (optimized conformer: 60.38068951727954 kcal/mol)

>  <smiles>  (37) 
COc1ccccc1-c1cccc(-c2cc(OC)c(OC)c(OC)c2)n1

>  <score_type>  (37) 
oracle

>  <origin>  (37) 
adg

>  <m_score__min__energy>  (37) 
-7.4900000000000002

>  <m_primary>  (37) 
energy

$$$$
37:0
     RDKit          3D

 38 40  0  0  0  0  0  0  0  0999 V2000
   62.7850   33.7980   46.3810 C   0  0  0  0  0  0  0  0  0  0  0  0
   62.1150   33.8340   47.7180 C   0  0  0  0  0  0  0  0  0  0  0  0
   62.6840   33.4690   48.9210 C   0  0  0  0  0  0  0  0  0  0  0  0
   61.7020   33.6500   49.8710 C   0  0  0  0  0  0  0  0  0  0  0  0
   60.6040   34.0930   49.3000 O   0  0  0  0  0  0  0  0  0  0  0  0
   60.8130   34.2160   48.0080 C   0  0  0  0  0  0  0  0  0  0  0  0
   59.7810   34.6710   47.0550 C   0  0  0  0  0  0  0  0  0  0  0  0
   59.7450   35.8830   46.7070 O   0  0  0  0  0  0  0  0  0  0  0  0
   58.8510   33.7420   46.4710 N   0  0  0  0  0  0  0  0  0  0  0  0
   58.5550   33.8200   45.0360 C   0  0  0  0  0  0  0  0  0  0  0  0
   57.3680   32.9180   44.6640 C   0  0  0  0  0  0  0  0  0  0  0  0
   57.5010   31.5310   45.1850 N   0  0  0  0  0  0  0  0  0  0  0  0
   58.1500   30.6290   44.2130 C   0  0  0  0  0  0  0  0  0  0  0  0
   58.2820   29.2490   44.7830 C   0  0  0  0  0  0  0  0  0  0  0  0
   59.4750   28.5710   45.0010 C   0  0  0  0  0  0  0  0  0  0  0  0
   59.2890   27.2950   45.5440 C   0  0  0  0  0  0  0  0  0  0  0  0
   57.9550   26.9650   45.7510 C   0  0  0  0  0  0  0  0  0  0  0  0
   57.0060   28.2640   45.2570 S   0  0  0  0  0  0  0  0  0  0  0  0
   58.1320   31.4220   46.5270 C   0  0  0  0  0  0  0  0  0  0  0  0
   58.1480   32.7490   47.2870 C   0  0  0  0  0  0  0  0  0  0  0  0
   63.8748   33.7394   46.5185 H   0  0  0  0  0  0  0  0  0  0  0  0
   62.4382   32.9172   45.8207 H   0  0  0  0  0  0  0  0  0  0  0  0
   62.5346   34.7109   45.8207 H   0  0  0  0  0  0  0  0  0  0  0  0
   63.7097   33.1081   49.0874 H   0  0  0  0  0  0  0  0  0  0  0  0
   61.8196   33.4531   50.9468 H   0  0  0  0  0  0  0  0  0  0  0  0
   58.3103   34.8605   44.7761 H   0  0  0  0  0  0  0  0  0  0  0  0
   59.4399   33.4790   44.4786 H   0  0  0  0  0  0  0  0  0  0  0  0
   56.4496   33.3603   45.0774 H   0  0  0  0  0  0  0  0  0  0  0  0
   57.3374   32.8537   43.5663 H   0  0  0  0  0  0  0  0  0  0  0  0
   57.5417   30.5857   43.2975 H   0  0  0  0  0  0  0  0  0  0  0  0
   59.1537   31.0164   43.9840 H   0  0  0  0  0  0  0  0  0  0  0  0
   60.4639   28.9939   44.7704 H   0  0  0  0  0  0  0  0  0  0  0  0
   60.1208   26.6166   45.7845 H   0  0  0  0  0  0  0  0  0  0  0  0
   57.5830   26.0169   46.1666 H   0  0  0  0  0  0  0  0  0  0  0  0
   57.5707   30.6848   47.1199 H   0  0  0  0  0  0  0  0  0  0  0  0
   59.1776   31.1156   46.3761 H   0  0  0  0  0  0  0  0  0  0  0  0
   57.1165   33.0834   47.4719 H   0  0  0  0  0  0  0  0  0  0  0  0
   58.6588   32.6245   48.2532 H   0  0  0  0  0  0  0  0  0  0  0  0
  1  2  1  0
  2  3  1  0
  3  4  2  0
  4  5  1  0
  5  6  1  0
  6  7  1  0
  7  8  2  0
  7  9  1  0
  9 10  1  0
 10 11  1  0
 11 12  1  0
 12 13  1  0
 13 14  1  0
 14 15  2  0
 15 16  1  0
 16 17  2  0
 17 18  1  0
 12 19  1  0
 19 20  1  0
  6  2  2  0
 20  9  1  0
 18 14  1  0
  1 21  1  0
  1 22  1  0
  1 23  1  0
  3 24  1  0
  4 25  1  0
 10 26  1  0
 10 27  1  0
 11 28  1  0
 11 29  1  0
 13 30  1  0
 13 31  1  0
 15 32  1  0
 16 33  1  0
 17 34  1  0
 19 35  1  0
 19 36  1  0
 20 37  1  0
 20 38  1  0
M  END
>  <UniqueID>  (38) 
34

>  <SMILES>  (38) 
Cc1ccoc1C(=O)N1CCN(Cc2cccs2)CC1

>  <Energy>  (38) 
100.92274058016858

>  <Genealogy>  (38) 
Cc1ccoc1C(=O)N1CCN(Cc2cccs2)CC1 (3D coordinates assigned)
Cc1ccoc1C(=O)N1CCN(Cc2cccs2)CC1 (nonaromatic ring conformer: 100.92274058016858 kcal/mol)

>  <smiles>  (38) 
Cc1ccoc1C(=O)N1CCN(Cc2cccs2)CC1

>  <score_type>  (38) 
oracle

>  <origin>  (38) 
adg

>  <m_score__min__energy>  (38) 
-7.0700000000000003

>  <m_primary>  (38) 
energy

$$$$
38:0
     RDKit          3D

 38 39  0  0  0  0  0  0  0  0999 V2000
   60.6950   29.3430   45.8850 C   0  0  0  0  0  0  0  0  0  0  0  0
   60.6360   30.0310   47.1310 O   0  0  0  0  0  0  0  0  0  0  0  0
   61.2000   31.2960   47.3680 C   0  0  0  0  0  0  0  0  0  0  0  0
   62.5420   31.4510   47.7730 C   0  0  0  0  0  0  0  0  0  0  0  0
   63.0780   32.7270   47.9690 C   0  0  0  0  0  0  0  0  0  0  0  0
   64.3680   32.8660   48.3610 F   0  0  0  0  0  0  0  0  0  0  0  0
   62.2850   33.8570   47.7660 C   0  0  0  0  0  0  0  0  0  0  0  0
   60.9520   33.7160   47.3750 C   0  0  0  0  0  0  0  0  0  0  0  0
   60.4020   32.4400   47.1740 C   0  0  0  0  0  0  0  0  0  0  0  0
   59.0360   32.3020   46.7500 N   0  0  0  0  0  0  0  0  0  0  0  0
   58.4660   33.1840   45.7330 C   0  0  0  0  0  0  0  0  0  0  0  0
   57.8650   32.3590   44.6390 C   0  0  0  0  0  0  0  0  0  0  0  0
   58.0880   32.5050   43.2840 C   0  0  0  0  0  0  0  0  0  0  0  0
   57.3210   31.5340   42.6720 C   0  0  0  0  0  0  0  0  0  0  0  0
   56.6830   30.8610   43.6980 C   0  0  0  0  0  0  0  0  0  0  0  0
   55.7100   29.7390   43.5570 C   0  0  0  0  0  0  0  0  0  0  0  0
   55.5000   29.1360   44.8700 N   0  0  0  0  0  0  0  0  0  0  0  0
   56.9800   28.4410   45.4600 S   0  0  0  0  0  0  0  0  0  0  0  0
   58.0450   28.0460   44.0880 C   0  0  0  0  0  0  0  0  0  0  0  0
   56.6940   27.1990   46.2570 O   0  0  0  0  0  0  0  0  0  0  0  0
   57.6710   29.4450   46.3390 O   0  0  0  0  0  0  0  0  0  0  0  0
   57.0310   31.3680   44.8550 O   0  0  0  0  0  0  0  0  0  0  0  0
   60.7877   28.2621   46.0670 H   0  0  0  0  0  0  0  0  0  0  0  0
   59.7766   29.5411   45.3129 H   0  0  0  0  0  0  0  0  0  0  0  0
   61.5663   29.6945   45.3129 H   0  0  0  0  0  0  0  0  0  0  0  0
   63.1704   30.5629   47.9355 H   0  0  0  0  0  0  0  0  0  0  0  0
   62.7106   34.8604   47.9142 H   0  0  0  0  0  0  0  0  0  0  0  0
   60.3291   34.6099   47.2236 H   0  0  0  0  0  0  0  0  0  0  0  0
   58.5690   31.3750   46.8850 H   0  0  0  0  0  0  0  0  0  0  0  0
   57.6870   33.8134   46.1881 H   0  0  0  0  0  0  0  0  0  0  0  0
   59.2576   33.8246   45.3171 H   0  0  0  0  0  0  0  0  0  0  0  0
   58.7412   33.2420   42.7940 H   0  0  0  0  0  0  0  0  0  0  0  0
   57.2352   31.3367   41.5932 H   0  0  0  0  0  0  0  0  0  0  0  0
   54.7552   30.1232   43.1688 H   0  0  0  0  0  0  0  0  0  0  0  0
   56.1028   28.9870   42.8569 H   0  0  0  0  0  0  0  0  0  0  0  0
   59.0132   27.6869   44.4669 H   0  0  0  0  0  0  0  0  0  0  0  0
   57.5774   27.2615   43.4749 H   0  0  0  0  0  0  0  0  0  0  0  0
   58.2021   28.9457   43.4749 H   0  0  0  0  0  0  0  0  0  0  0  0
  1  2  1  0
  2  3  1  0
  3  4  2  0
  4  5  1  0
  5  6  1  0
  5  7  2  0
  7  8  1  0
  8  9  2  0
  9 10  1  0
 10 11  1  0
 11 12  1  0
 12 13  2  0
 13 14  1  0
 14 15  2  0
 15 16  1  0
 16 17  1  0
 17 18  1  0
 18 19  1  0
 18 20  2  0
 18 21  2  0
 15 22  1  0
  9  3  1  0
 22 12  1  0
  1 23  1  0
  1 24  1  0
  1 25  1  0
  4 26  1  0
  7 27  1  0
  8 28  1  0
 10 29  1  0
 11 30  1  0
 11 31  1  0
 13 32  1  0
 14 33  1  0
 16 34  1  0
 16 35  1  0
 19 36  1  0
 19 37  1  0
 19 38  1  0
M  CHG  1  17  -1
M  END
>  <UniqueID>  (39) 
35

>  <SMILES>  (39) 
COc1cc(F)ccc1NCc1ccc(C[N-]S(C)(=O)=O)o1

>  <Energy>  (39) 
56.2313804428797

>  <Genealogy>  (39) 
COc1cc(F)ccc1NCc1ccc(C[N-]S(C)(=O)=O)o1 (protonated)
COc1cc(F)ccc1NCc1ccc(C[N-]S(C)(=O)=O)o1 (3D coordinates assigned)
COc1cc(F)ccc1NCc1ccc(C[N-]S(C)(=O)=O)o1 (optimized conformer: 56.2313804428797 kcal/mol)

>  <smiles>  (39) 
COc1cc(F)ccc1NCc1ccc(CNS(C)(=O)=O)o1

>  <score_type>  (39) 
oracle

>  <origin>  (39) 
adg

>  <m_score__min__energy>  (39) 
-8.9100000000000001

>  <m_primary>  (39) 
energy

$$$$
39:0
     RDKit          3D

 64 68  0  0  0  0  0  0  0  0999 V2000
   61.5303   29.6429   49.3098 H   0  0  0  0  0  0  0  0  0  0  0  0
   60.4650   29.4150   49.4620 C   0  0  0  0  0  0  0  0  0  0  0  0
   60.0110   29.3210   50.7170 C   0  0  0  0  0  0  0  0  0  0  0  0
   59.1531   28.6582   50.9034 H   0  0  0  0  0  0  0  0  0  0  0  0
   60.5970   30.0640   51.8970 C   0  0  0  0  0  0  0  0  0  0  0  0
   60.8554   29.3351   52.6792 H   0  0  0  0  0  0  0  0  0  0  0  0
   61.4840   30.6084   51.5408 H   0  0  0  0  0  0  0  0  0  0  0  0
   59.6500   31.0680   52.4720 N   0  0  0  0  0  0  0  0  0  0  0  0
   60.0550   31.4480   53.3610 H   0  0  0  0  0  0  0  0  0  0  0  0
   59.5060   32.2420   51.5690 C   0  0  0  0  0  0  0  0  0  0  0  0
   60.3788   32.8997   51.6945 H   0  0  0  0  0  0  0  0  0  0  0  0
   59.4391   31.8772   50.5334 H   0  0  0  0  0  0  0  0  0  0  0  0
   58.2310   33.0370   51.8860 C   0  0  0  0  0  0  0  0  0  0  0  0
   58.2698   33.3678   52.9344 H   0  0  0  0  0  0  0  0  0  0  0  0
   58.1858   33.8958   51.2001 H   0  0  0  0  0  0  0  0  0  0  0  0
   57.0130   32.2280   51.6860 N   0  0  0  0  0  0  0  0  0  0  0  0
   56.6450   32.4110   50.7220 H   0  0  0  0  0  0  0  0  0  0  0  0
   57.2360   30.7760   51.8150 C   0  0  0  0  0  0  0  0  0  0  0  0
   56.2992   30.2975   52.1366 H   0  0  0  0  0  0  0  0  0  0  0  0
   57.5580   30.3878   50.8375 H   0  0  0  0  0  0  0  0  0  0  0  0
   58.3340   30.4650   52.8430 C   0  0  0  0  0  0  0  0  0  0  0  0
   58.0257   30.8641   53.8206 H   0  0  0  0  0  0  0  0  0  0  0  0
   58.4630   29.3731   52.8755 H   0  0  0  0  0  0  0  0  0  0  0  0
   59.6160   29.2300   48.2740 C   0  0  0  0  0  0  0  0  0  0  0  0
   59.1860   30.2300   47.4200 C   0  0  0  0  0  0  0  0  0  0  0  0
   59.5730   31.6530   47.4840 C   0  0  0  0  0  0  0  0  0  0  0  0
   58.5650   32.6160   47.6330 C   0  0  0  0  0  0  0  0  0  0  0  0
   57.5148   32.2974   47.7081 H   0  0  0  0  0  0  0  0  0  0  0  0
   58.8800   33.9750   47.6870 C   0  0  0  0  0  0  0  0  0  0  0  0
   58.0784   34.7189   47.8057 H   0  0  0  0  0  0  0  0  0  0  0  0
   60.2070   34.3930   47.5910 C   0  0  0  0  0  0  0  0  0  0  0  0
   60.4478   35.4654   47.6347 H   0  0  0  0  0  0  0  0  0  0  0  0
   61.2360   33.4520   47.4390 C   0  0  0  0  0  0  0  0  0  0  0  0
   62.5690   33.8780   47.3360 C   0  0  0  0  0  0  0  0  0  0  0  0
   62.8057   34.9516   47.3728 H   0  0  0  0  0  0  0  0  0  0  0  0
   63.5960   32.9440   47.1870 C   0  0  0  0  0  0  0  0  0  0  0  0
   64.6394   33.2835   47.1088 H   0  0  0  0  0  0  0  0  0  0  0  0
   63.3020   31.5810   47.1370 C   0  0  0  0  0  0  0  0  0  0  0  0
   64.1152   30.8500   47.0174 H   0  0  0  0  0  0  0  0  0  0  0  0
   61.9810   31.1400   47.2380 C   0  0  0  0  0  0  0  0  0  0  0  0
   61.7608   30.0629   47.2020 H   0  0  0  0  0  0  0  0  0  0  0  0
   60.9260   32.0660   47.3860 C   0  0  0  0  0  0  0  0  0  0  0  0
   58.6260   29.5510   46.3400 C   0  0  0  0  0  0  0  0  0  0  0  0
   58.1190   30.1280   45.0740 C   0  0  0  0  0  0  0  0  0  0  0  0
   57.2240   29.3890   44.2830 C   0  0  0  0  0  0  0  0  0  0  0  0
   56.9051   28.3883   44.6101 H   0  0  0  0  0  0  0  0  0  0  0  0
   56.7350   29.9150   43.0830 C   0  0  0  0  0  0  0  0  0  0  0  0
   56.0377   29.3246   42.4705 H   0  0  0  0  0  0  0  0  0  0  0  0
   57.1310   31.1970   42.6550 C   0  0  0  0  0  0  0  0  0  0  0  0
   56.6690   31.7690   41.4610 O   0  0  0  0  0  0  0  0  0  0  0  0
   57.4040   32.7050   40.6820 C   0  0  0  0  0  0  0  0  0  0  0  0
   57.9443   33.3930   41.3489 H   0  0  0  0  0  0  0  0  0  0  0  0
   58.1245   32.1682   40.0473 H   0  0  0  0  0  0  0  0  0  0  0  0
   56.7117   33.2776   40.0473 H   0  0  0  0  0  0  0  0  0  0  0  0
   58.0140   31.9370   43.4500 C   0  0  0  0  0  0  0  0  0  0  0  0
   58.3298   32.9396   43.1260 H   0  0  0  0  0  0  0  0  0  0  0  0
   58.4980   31.4130   44.6520 C   0  0  0  0  0  0  0  0  0  0  0  0
   59.1811   32.0117   45.2724 H   0  0  0  0  0  0  0  0  0  0  0  0
   58.7310   28.2220   46.5490 N   0  0  0  0  0  0  0  0  0  0  0  0
   59.3230   28.0350   47.7180 N   0  0  0  0  0  0  0  0  0  0  0  0
   59.7040   26.7140   48.2070 C   0  0  0  0  0  0  0  0  0  0  0  0
   59.7034   26.7160   49.3070 H   0  0  0  0  0  0  0  0  0  0  0  0
   58.9849   25.9662   47.8413 H   0  0  0  0  0  0  0  0  0  0  0  0
   60.7109   26.4640   47.8413 H   0  0  0  0  0  0  0  0  0  0  0  0
  1  2  1  0
  2  3  2  0
  3  4  1  0
  3  5  1  0
  5  6  1  0
  5  7  1  0
  5  8  1  0
  8  9  1  0
  8 10  1  0
 10 11  1  0
 10 12  1  0
 10 13  1  0
 13 14  1  0
 13 15  1  0
 13 16  1  0
 16 17  1  0
 16 18  1  0
 18 19  1  0
 18 20  1  0
 18 21  1  0
 21 22  1  0
 21 23  1  0
  2 24  1  0
 24 25  2  0
 25 26  1  0
 26 27  2  0
 27 28  1  0
 27 29  1  0
 29 30  1  0
 29 31  2  0
 31 32  1  0
 31 33  1  0
 33 34  2  0
 34 35  1  0
 34 36  1  0
 36 37  1  0
 36 38  2  0
 38 39  1  0
 38 40  1  0
 40 41  1  0
 40 42  2  0
 25 43  1  0
 43 44  1  0
 44 45  2  0
 45 46  1  0
 45 47  1  0
 47 48  1  0
 47 49  2  0
 49 50  1  0
 50 51  1  0
 51 52  1  0
 51 53  1  0
 51 54  1  0
 49 55  1  0
 55 56  1  0
 55 57  2  0
 57 58  1  0
 43 59  2  0
 59 60  1  0
 60 61  1  0
 61 62  1  0
 61 63  1  0
 61 64  1  0
 21  8  1  0
 60 24  1  0
 42 26  1  0
 57 44  1  0
 42 33  1  0
M  CHG  1   8   1
M  END
>  <UniqueID>  (40) 
36

>  <SMILES>  (40) 
COc1ccc(-c2nn(C)c(/C=C\C[NH+]3CCNCC3)c2-c2cccc3ccccc23)cc1

>  <Energy>  (40) 
133.60401347079232

>  <Genealogy>  (40) 
COc1ccc(-c2nn(C)c(C=CC[NH+]3CCNCC3)c2-c2cccc3ccccc23)cc1 (protonated)
COc1ccc(-c2nn(C)c(/C=C\C[NH+]3CCNCC3)c2-c2cccc3ccccc23)cc1 (cis-trans isomerization)
COc1ccc(-c2nn(C)c(/C=C\C[NH+]3CCNCC3)c2-c2cccc3ccccc23)cc1 (3D coordinates assigned)
COc1ccc(-c2nn(C)c(/C=C\C[NH+]3CCNCC3)c2-c2cccc3ccccc23)cc1 (nonaromatic ring conformer: 133.60401347079232 kcal/mol)

>  <smiles>  (40) 
COc1ccc(-c2nn(C)c(C=CCN3CCNCC3)c2-c2cccc3ccccc23)cc1

>  <score_type>  (40) 
oracle

>  <origin>  (40) 
adg

>  <m_score__min__energy>  (40) 
-8.3800000000000008

>  <m_primary>  (40) 
energy

$$$$
40:0
     RDKit          3D

 33 35  0  0  0  0  0  0  0  0999 V2000
   60.0030   36.3335   47.0405 H   0  0  0  0  0  0  0  0  0  0  0  0
   59.5900   35.3530   46.7610 C   0  0  0  0  0  0  0  0  0  0  0  0
   59.3070   35.0810   45.4610 N   0  0  0  0  0  0  0  0  0  0  0  0
   58.7960   33.8820   45.0740 C   0  0  0  0  0  0  0  0  0  0  0  0
   58.5779   33.6972   44.0118 H   0  0  0  0  0  0  0  0  0  0  0  0
   58.5450   32.8770   46.0250 C   0  0  0  0  0  0  0  0  0  0  0  0
   57.9880   31.5640   45.6280 C   0  0  0  0  0  0  0  0  0  0  0  0
   56.9410   31.4230   44.7820 N   0  0  0  0  0  0  0  0  0  0  0  0
   56.6140   30.1190   44.5720 C   0  0  0  0  0  0  0  0  0  0  0  0
   55.5050   29.7320   43.6450 C   0  0  0  0  0  0  0  0  0  0  0  0
   54.6266   29.4255   44.2319 H   0  0  0  0  0  0  0  0  0  0  0  0
   55.2406   30.5910   43.0108 H   0  0  0  0  0  0  0  0  0  0  0  0
   55.8325   28.8950   43.0108 H   0  0  0  0  0  0  0  0  0  0  0  0
   57.4150   29.2000   45.2510 C   0  0  0  0  0  0  0  0  0  0  0  0
   57.3260   27.7030   45.1890 C   0  0  0  0  0  0  0  0  0  0  0  0
   57.1860   27.3924   44.1431 H   0  0  0  0  0  0  0  0  0  0  0  0
   58.2561   27.2760   45.5921 H   0  0  0  0  0  0  0  0  0  0  0  0
   56.2000   27.2190   45.9890 N   0  0  0  0  0  0  0  0  0  0  0  0
   55.7290   26.0070   45.9530 C   0  0  0  0  0  0  0  0  0  0  0  0
   54.4150   25.7730   45.6680 N   0  0  0  0  0  0  0  0  0  0  0  0
   53.9010   24.5140   45.6310 C   0  0  0  0  0  0  0  0  0  0  0  0
   52.8366   24.3609   45.3995 H   0  0  0  0  0  0  0  0  0  0  0  0
   54.7250   23.4160   45.8870 C   0  0  0  0  0  0  0  0  0  0  0  0
   54.3160   22.3953   45.8588 H   0  0  0  0  0  0  0  0  0  0  0  0
   56.0730   23.6280   46.1790 C   0  0  0  0  0  0  0  0  0  0  0  0
   56.7338   22.7722   46.3814 H   0  0  0  0  0  0  0  0  0  0  0  0
   56.5820   24.9280   46.2140 C   0  0  0  0  0  0  0  0  0  0  0  0
   57.6433   25.1026   46.4445 H   0  0  0  0  0  0  0  0  0  0  0  0
   58.5530   30.0590   46.1400 S   0  0  0  0  0  0  0  0  0  0  0  0
   58.8340   33.1480   47.3720 C   0  0  0  0  0  0  0  0  0  0  0  0
   58.6480   32.3808   48.1380 H   0  0  0  0  0  0  0  0  0  0  0  0
   59.3570   34.3890   47.7420 C   0  0  0  0  0  0  0  0  0  0  0  0
   59.5830   34.6042   48.7968 H   0  0  0  0  0  0  0  0  0  0  0  0
  1  2  1  0
  2  3  2  0
  3  4  1  0
  4  5  1  0
  4  6  2  0
  6  7  1  0
  7  8  2  0
  8  9  1  0
  9 10  1  0
 10 11  1  0
 10 12  1  0
 10 13  1  0
  9 14  2  0
 14 15  1  0
 15 16  1  0
 15 17  1  0
 15 18  1  0
 18 19  2  0
 19 20  1  0
 20 21  1  0
 21 22  1  0
 21 23  2  0
 23 24  1  0
 23 25  1  0
 25 26  1  0
 25 27  2  0
 27 28  1  0
 14 29  1  0
  6 30  1  0
 30 31  1  0
 30 32  2  0
 32 33  1  0
 32  2  1  0
 29  7  1  0
 27 19  1  0
M  CHG  1  20  -1
M  END
>  <UniqueID>  (41) 
37

>  <SMILES>  (41) 
Cc1nc(-c2cccnc2)sc1C/N=c1/cccc[n-]1

>  <Energy>  (41) 
64.99224468094692

>  <Genealogy>  (41) 
Cc1nc(-c2cccnc2)sc1CN=c1cccc[n-]1 (protonated)
Cc1nc(-c2cccnc2)sc1C/N=c1/cccc[n-]1 (cis-trans isomerization)
Cc1nc(-c2cccnc2)sc1C/N=c1/cccc[n-]1 (3D coordinates assigned)
Cc1nc(-c2cccnc2)sc1C/N=c1/cccc[n-]1 (optimized conformer: 64.99224468094692 kcal/mol)

>  <smiles>  (41) 
Cc1nc(-c2cccnc2)sc1CN=c1cccc[nH]1

>  <score_type>  (41) 
oracle

>  <origin>  (41) 
adg

>  <m_score__min__energy>  (41) 
-9.5700000000000003

>  <m_primary>  (41) 
energy

$$$$
41:0
     RDKit          3D

 31 32  0  0  0  0  0  0  0  0999 V2000
   58.5170   27.8910   47.4250 C   0  0  0  0  0  0  0  0  0  0  0  0
   57.4260   27.6380   46.3910 C   0  0  0  0  0  0  0  0  0  0  0  0
   57.6110   28.4750   45.2500 O   0  0  0  0  0  0  0  0  0  0  0  0
   56.6570   29.3990   44.8100 C   0  0  0  0  0  0  0  0  0  0  0  0
   55.4610   29.3190   45.2050 O   0  0  0  0  0  0  0  0  0  0  0  0
   57.0640   30.4630   43.8760 C   0  0  0  0  0  0  0  0  0  0  0  0
   56.6450   30.4990   42.2480 S   0  0  0  0  0  0  0  0  0  0  0  0
   57.3830   31.9640   41.8840 C   0  0  0  0  0  0  0  0  0  0  0  0
   57.9730   32.4520   43.0420 C   0  0  0  0  0  0  0  0  0  0  0  0
   57.8040   31.6160   44.1560 C   0  0  0  0  0  0  0  0  0  0  0  0
   58.3750   31.9490   45.4760 C   0  0  0  0  0  0  0  0  0  0  0  0
   59.2810   31.0530   46.0630 C   0  0  0  0  0  0  0  0  0  0  0  0
   59.8550   31.3400   47.3020 C   0  0  0  0  0  0  0  0  0  0  0  0
   59.5280   32.5220   47.9680 C   0  0  0  0  0  0  0  0  0  0  0  0
   58.6170   33.4170   47.4010 C   0  0  0  0  0  0  0  0  0  0  0  0
   58.0190   33.1360   46.1600 C   0  0  0  0  0  0  0  0  0  0  0  0
   57.0360   34.1150   45.5730 C   0  0  0  0  0  0  0  0  0  0  0  0
   58.0941   27.7929   48.4357 H   0  0  0  0  0  0  0  0  0  0  0  0
   59.3250   27.1564   47.2927 H   0  0  0  0  0  0  0  0  0  0  0  0
   58.9192   28.9063   47.2927 H   0  0  0  0  0  0  0  0  0  0  0  0
   57.4635   26.5846   46.0764 H   0  0  0  0  0  0  0  0  0  0  0  0
   56.4494   27.8658   46.8431 H   0  0  0  0  0  0  0  0  0  0  0  0
   57.3963   32.4521   40.8983 H   0  0  0  0  0  0  0  0  0  0  0  0
   58.5215   33.4046   43.0824 H   0  0  0  0  0  0  0  0  0  0  0  0
   59.5404   30.1188   45.5435 H   0  0  0  0  0  0  0  0  0  0  0  0
   60.5664   30.6335   47.7545 H   0  0  0  0  0  0  0  0  0  0  0  0
   59.9882   32.7495   48.9409 H   0  0  0  0  0  0  0  0  0  0  0  0
   58.3658   34.3484   47.9296 H   0  0  0  0  0  0  0  0  0  0  0  0
   56.5104   34.6385   46.3852 H   0  0  0  0  0  0  0  0  0  0  0  0
   57.5737   34.8471   44.9526 H   0  0  0  0  0  0  0  0  0  0  0  0
   56.3061   33.5743   44.9526 H   0  0  0  0  0  0  0  0  0  0  0  0
  1  2  1  0
  2  3  1  0
  3  4  1  0
  4  5  2  0
  4  6  1  0
  6  7  1  0
  7  8  1  0
  8  9  2  0
  9 10  1  0
 10 11  1  0
 11 12  2  0
 12 13  1  0
 13 14  2  0
 14 15  1  0
 15 16  2  0
 16 17  1  0
 10  6  2  0
 16 11  1  0
  1 18  1  0
  1 19  1  0
  1 20  1  0
  2 21  1  0
  2 22  1  0
  8 23  1  0
  9 24  1  0
 12 25  1  0
 13 26  1  0
 14 27  1  0
 15 28  1  0
 17 29  1  0
 17 30  1  0
 17 31  1  0
M  END
>  <UniqueID>  (42) 
38

>  <SMILES>  (42) 
CCOC(=O)c1sccc1-c1ccccc1C

>  <Energy>  (42) 
60.153101042822854

>  <Genealogy>  (42) 
CCOC(=O)c1sccc1-c1ccccc1C (3D coordinates assigned)
CCOC(=O)c1sccc1-c1ccccc1C (optimized conformer: 60.153101042822854 kcal/mol)

>  <smiles>  (42) 
CCOC(=O)c1sccc1-c1ccccc1C

>  <score_type>  (42) 
oracle

>  <origin>  (42) 
adg

>  <m_score__min__energy>  (42) 
-6.5700000000000003

>  <m_primary>  (42) 
energy

$$$$
42:0
     RDKit          3D

 39 39  0  0  0  0  0  0  0  0999 V2000
   58.5588   30.9896   42.5213 H   0  0  0  0  0  0  0  0  0  0  0  0
   57.7800   31.3850   43.1900 C   0  0  0  0  0  0  0  0  0  0  0  0
   56.8080   30.4180   43.7360 C   0  0  0  0  0  0  0  0  0  0  0  0
   55.8940   30.7870   44.5230 O   0  0  0  0  0  0  0  0  0  0  0  0
   56.9580   29.0670   43.4140 O   0  0  0  0  0  0  0  0  0  0  0  0
   57.7540   28.1740   44.1890 C   0  0  0  0  0  0  0  0  0  0  0  0
   58.7060   27.9911   43.6692 H   0  0  0  0  0  0  0  0  0  0  0  0
   57.2095   27.2270   44.3183 H   0  0  0  0  0  0  0  0  0  0  0  0
   58.0380   28.7810   45.5680 C   0  0  0  0  0  0  0  0  0  0  0  0
   58.0439   27.9724   46.3137 H   0  0  0  0  0  0  0  0  0  0  0  0
   57.2493   29.5196   45.7741 H   0  0  0  0  0  0  0  0  0  0  0  0
   59.3400   29.4890   45.6260 N   0  0  0  0  0  0  0  0  0  0  0  0
   59.4790   30.2080   46.9150 C   0  0  0  0  0  0  0  0  0  0  0  0
   59.6088   29.4693   47.7196 H   0  0  0  0  0  0  0  0  0  0  0  0
   58.5702   30.8096   47.0638 H   0  0  0  0  0  0  0  0  0  0  0  0
   60.6760   31.1600   46.9240 C   0  0  0  0  0  0  0  0  0  0  0  0
   60.9582   31.3844   47.9632 H   0  0  0  0  0  0  0  0  0  0  0  0
   61.5244   30.6872   46.4076 H   0  0  0  0  0  0  0  0  0  0  0  0
   60.4063   32.0931   46.4076 H   0  0  0  0  0  0  0  0  0  0  0  0
   60.5110   28.6370   45.2870 C   0  0  0  0  0  0  0  0  0  0  0  0
   60.4766   28.4227   44.2086 H   0  0  0  0  0  0  0  0  0  0  0  0
   61.4030   29.2046   45.5905 H   0  0  0  0  0  0  0  0  0  0  0  0
   60.5770   27.2990   46.0370 C   0  0  0  0  0  0  0  0  0  0  0  0
   60.5678   27.4855   47.1210 H   0  0  0  0  0  0  0  0  0  0  0  0
   59.7082   26.6822   45.7637 H   0  0  0  0  0  0  0  0  0  0  0  0
   61.5023   26.7707   45.7637 H   0  0  0  0  0  0  0  0  0  0  0  0
   57.7980   32.7040   43.4370 C   0  0  0  0  0  0  0  0  0  0  0  0
   57.5078   33.3757   42.6156 H   0  0  0  0  0  0  0  0  0  0  0  0
   58.1760   33.3280   44.7230 C   0  0  0  0  0  0  0  0  0  0  0  0
   57.5190   32.9310   45.8980 C   0  0  0  0  0  0  0  0  0  0  0  0
   56.7069   32.1908   45.8477 H   0  0  0  0  0  0  0  0  0  0  0  0
   57.8920   33.4720   47.1320 C   0  0  0  0  0  0  0  0  0  0  0  0
   57.3623   33.1692   48.0473 H   0  0  0  0  0  0  0  0  0  0  0  0
   58.9370   34.3970   47.2040 C   0  0  0  0  0  0  0  0  0  0  0  0
   59.2246   34.8277   48.1745 H   0  0  0  0  0  0  0  0  0  0  0  0
   59.6170   34.7750   46.0420 C   0  0  0  0  0  0  0  0  0  0  0  0
   60.4443   35.4976   46.1002 H   0  0  0  0  0  0  0  0  0  0  0  0
   59.2470   34.2360   44.8070 C   0  0  0  0  0  0  0  0  0  0  0  0
   59.7951   34.5227   43.8974 H   0  0  0  0  0  0  0  0  0  0  0  0
  1  2  1  0
  2  3  1  0
  3  4  2  0
  3  5  1  0
  5  6  1  0
  6  7  1  0
  6  8  1  0
  6  9  1  0
  9 10  1  0
  9 11  1  0
  9 12  1  0
 12 13  1  0
 13 14  1  0
 13 15  1  0
 13 16  1  0
 16 17  1  0
 16 18  1  0
 16 19  1  0
 12 20  1  0
 20 21  1  0
 20 22  1  0
 20 23  1  0
 23 24  1  0
 23 25  1  0
 23 26  1  0
  2 27  2  0
 27 28  1  0
 27 29  1  0
 29 30  2  0
 30 31  1  0
 30 32  1  0
 32 33  1  0
 32 34  2  0
 34 35  1  0
 34 36  1  0
 36 37  1  0
 36 38  2  0
 38 39  1  0
 38 29  1  0
M  END
>  <UniqueID>  (43) 
39

>  <SMILES>  (43) 
CCN(CC)CCOC(=O)/C=C\c1ccccc1

>  <Energy>  (43) 
44.31099725689487

>  <Genealogy>  (43) 
CCN(CC)CCOC(=O)/C=C\c1ccccc1 (cis-trans isomerization)
CCN(CC)CCOC(=O)/C=C\c1ccccc1 (3D coordinates assigned)
CCN(CC)CCOC(=O)/C=C\c1ccccc1 (optimized conformer: 44.31099725689487 kcal/mol)

>  <smiles>  (43) 
CCN(CC)CCOC(=O)C=Cc1ccccc1

>  <score_type>  (43) 
oracle

>  <origin>  (43) 
adg

>  <m_score__min__energy>  (43) 
-6.0099999999999998

>  <m_primary>  (43) 
energy

$$$$
43:0
     RDKit          3D

 52 54  0  0  0  0  0  0  0  0999 V2000
   56.3720   30.6480   43.5210 C   0  0  0  0  0  0  0  0  0  0  0  0
   56.4840   31.2390   44.8100 O   0  0  0  0  0  0  0  0  0  0  0  0
   57.3910   32.2580   45.1440 C   0  0  0  0  0  0  0  0  0  0  0  0
   57.0770   33.6200   44.9680 C   0  0  0  0  0  0  0  0  0  0  0  0
   58.0130   34.6090   45.2790 C   0  0  0  0  0  0  0  0  0  0  0  0
   59.2690   34.2530   45.7680 C   0  0  0  0  0  0  0  0  0  0  0  0
   59.5930   32.9070   45.9530 C   0  0  0  0  0  0  0  0  0  0  0  0
   58.6580   31.9020   45.6530 C   0  0  0  0  0  0  0  0  0  0  0  0
   59.0030   30.5220   45.8630 N   0  0  0  0  0  0  0  0  0  0  0  0
   59.6100   30.1190   47.1390 C   0  0  0  0  0  0  0  0  0  0  0  0
   60.2920   28.7510   47.0330 C   0  0  0  0  0  0  0  0  0  0  0  0
   59.3980   27.7790   46.3860 N   0  0  0  0  0  0  0  0  0  0  0  0
   59.4080   26.3980   46.8110 C   0  0  0  0  0  0  0  0  0  0  0  0
   60.3420   25.9790   47.5500 O   0  0  0  0  0  0  0  0  0  0  0  0
   58.3520   25.4340   46.3290 C   0  0  0  0  0  0  0  0  0  0  0  0
   57.0750   25.4610   47.1830 C   0  0  0  0  0  0  0  0  0  0  0  0
   55.8960   25.7870   46.3750 N   0  0  0  0  0  0  0  0  0  0  0  0
   54.9530   24.3740   45.9900 S   0  0  0  0  0  0  0  0  0  0  0  0
   53.6830   24.8050   45.3130 O   0  0  0  0  0  0  0  0  0  0  0  0
   54.6030   23.6240   47.2450 O   0  0  0  0  0  0  0  0  0  0  0  0
   55.8530   23.3350   44.8880 C   0  0  0  0  0  0  0  0  0  0  0  0
   55.5870   23.3530   43.5110 C   0  0  0  0  0  0  0  0  0  0  0  0
   56.2840   22.4980   42.6510 C   0  0  0  0  0  0  0  0  0  0  0  0
   57.2480   21.6240   43.1610 C   0  0  0  0  0  0  0  0  0  0  0  0
   57.5210   21.6080   44.5320 C   0  0  0  0  0  0  0  0  0  0  0  0
   56.8280   22.4630   45.3940 C   0  0  0  0  0  0  0  0  0  0  0  0
   58.6000   28.1840   45.2150 C   0  0  0  0  0  0  0  0  0  0  0  0
   58.9710   29.5890   44.7320 C   0  0  0  0  0  0  0  0  0  0  0  0
   56.1681   29.5723   43.6273 H   0  0  0  0  0  0  0  0  0  0  0  0
   55.5482   31.1246   42.9694 H   0  0  0  0  0  0  0  0  0  0  0  0
   57.3131   30.7901   42.9694 H   0  0  0  0  0  0  0  0  0  0  0  0
   56.0874   33.9067   44.5828 H   0  0  0  0  0  0  0  0  0  0  0  0
   57.7588   35.6699   45.1379 H   0  0  0  0  0  0  0  0  0  0  0  0
   60.0060   35.0333   46.0085 H   0  0  0  0  0  0  0  0  0  0  0  0
   60.5868   32.6319   46.3361 H   0  0  0  0  0  0  0  0  0  0  0  0
   60.3594   30.8697   47.4305 H   0  0  0  0  0  0  0  0  0  0  0  0
   58.8114   30.0475   47.8921 H   0  0  0  0  0  0  0  0  0  0  0  0
   61.2113   28.8499   46.4371 H   0  0  0  0  0  0  0  0  0  0  0  0
   60.5330   28.3941   48.0452 H   0  0  0  0  0  0  0  0  0  0  0  0
   58.0863   25.6949   45.2939 H   0  0  0  0  0  0  0  0  0  0  0  0
   58.7745   24.4211   46.4035 H   0  0  0  0  0  0  0  0  0  0  0  0
   56.9312   24.4720   47.6426 H   0  0  0  0  0  0  0  0  0  0  0  0
   57.1911   26.2373   47.9536 H   0  0  0  0  0  0  0  0  0  0  0  0
   54.8293   24.0404   43.1069 H   0  0  0  0  0  0  0  0  0  0  0  0
   56.0731   22.5135   41.5715 H   0  0  0  0  0  0  0  0  0  0  0  0
   57.7918   20.9489   42.4838 H   0  0  0  0  0  0  0  0  0  0  0  0
   58.2818   20.9220   44.9328 H   0  0  0  0  0  0  0  0  0  0  0  0
   57.0479   22.4518   46.4717 H   0  0  0  0  0  0  0  0  0  0  0  0
   58.7774   27.4685   44.3986 H   0  0  0  0  0  0  0  0  0  0  0  0
   57.5403   28.1927   45.5100 H   0  0  0  0  0  0  0  0  0  0  0  0
   59.9628   29.5597   44.2571 H   0  0  0  0  0  0  0  0  0  0  0  0
   58.2171   29.9298   44.0071 H   0  0  0  0  0  0  0  0  0  0  0  0
  1  2  1  0
  2  3  1  0
  3  4  2  0
  4  5  1  0
  5  6  2  0
  6  7  1  0
  7  8  2  0
  8  9  1  0
  9 10  1  0
 10 11  1  0
 11 12  1  0
 12 13  1  0
 13 14  2  0
 13 15  1  0
 15 16  1  0
 16 17  1  0
 17 18  1  0
 18 19  2  0
 18 20  2  0
 18 21  1  0
 21 22  2  0
 22 23  1  0
 23 24  2  0
 24 25  1  0
 25 26  2  0
 12 27  1  0
 27 28  1  0
  8  3  1  0
 28  9  1  0
 26 21  1  0
  1 29  1  0
  1 30  1  0
  1 31  1  0
  4 32  1  0
  5 33  1  0
  6 34  1  0
  7 35  1  0
 10 36  1  0
 10 37  1  0
 11 38  1  0
 11 39  1  0
 15 40  1  0
 15 41  1  0
 16 42  1  0
 16 43  1  0
 22 44  1  0
 23 45  1  0
 24 46  1  0
 25 47  1  0
 26 48  1  0
 27 49  1  0
 27 50  1  0
 28 51  1  0
 28 52  1  0
M  CHG  1  17  -1
M  END
>  <UniqueID>  (44) 
40

>  <SMILES>  (44) 
COc1ccccc1N1CCN(C(=O)CC[N-]S(=O)(=O)c2ccccc2)CC1

>  <Energy>  (44) 
55.541141783072774

>  <Genealogy>  (44) 
COc1ccccc1N1CCN(C(=O)CC[N-]S(=O)(=O)c2ccccc2)CC1 (protonated)
COc1ccccc1N1CCN(C(=O)CC[N-]S(=O)(=O)c2ccccc2)CC1 (3D coordinates assigned)
COc1ccccc1N1CCN(C(=O)CC[N-]S(=O)(=O)c2ccccc2)CC1 (nonaromatic ring conformer: 55.541141783072774 kcal/mol)

>  <smiles>  (44) 
COc1ccccc1N1CCN(C(=O)CCNS(=O)(=O)c2ccccc2)CC1

>  <score_type>  (44) 
oracle

>  <origin>  (44) 
adg

>  <m_score__min__energy>  (44) 
-10

>  <m_primary>  (44) 
energy

$$$$
44:0
     RDKit          3D

 34 36  0  0  0  0  0  0  0  0999 V2000
   56.3140   30.4170   44.0740 C   0  0  0  0  0  0  0  0  0  0  0  0
   56.3840   31.5960   44.8690 O   0  0  0  0  0  0  0  0  0  0  0  0
   57.5790   32.2290   45.2440 C   0  0  0  0  0  0  0  0  0  0  0  0
   57.8820   33.5520   44.8640 C   0  0  0  0  0  0  0  0  0  0  0  0
   59.0900   34.1380   45.2510 C   0  0  0  0  0  0  0  0  0  0  0  0
   60.0030   33.4180   46.0280 C   0  0  0  0  0  0  0  0  0  0  0  0
   61.1860   33.9840   46.3810 N   0  0  0  0  0  0  0  0  0  0  0  0
   62.0930   33.3040   47.1280 C   0  0  0  0  0  0  0  0  0  0  0  0
   63.4060   33.9310   47.4610 C   0  0  0  0  0  0  0  0  0  0  0  0
   61.8260   32.0330   47.5290 N   0  0  0  0  0  0  0  0  0  0  0  0
   60.6530   31.4210   47.2220 C   0  0  0  0  0  0  0  0  0  0  0  0
   60.4330   30.1200   47.6900 O   0  0  0  0  0  0  0  0  0  0  0  0
   59.8420   29.0960   46.9340 C   0  0  0  0  0  0  0  0  0  0  0  0
   60.2220   28.8290   45.6050 C   0  0  0  0  0  0  0  0  0  0  0  0
   59.6080   27.7960   44.8920 C   0  0  0  0  0  0  0  0  0  0  0  0
   58.6060   27.0260   45.4920 C   0  0  0  0  0  0  0  0  0  0  0  0
   57.7670   25.6170   44.5160 Br  0  0  0  0  0  0  0  0  0  0  0  0
   58.2180   27.2950   46.8090 C   0  0  0  0  0  0  0  0  0  0  0  0
   58.8320   28.3270   47.5240 C   0  0  0  0  0  0  0  0  0  0  0  0
   59.7020   32.1010   46.4340 C   0  0  0  0  0  0  0  0  0  0  0  0
   58.4940   31.5100   46.0220 C   0  0  0  0  0  0  0  0  0  0  0  0
   56.2616   29.5353   44.7296 H   0  0  0  0  0  0  0  0  0  0  0  0
   55.4166   30.4556   43.4391 H   0  0  0  0  0  0  0  0  0  0  0  0
   57.2097   30.3492   43.4391 H   0  0  0  0  0  0  0  0  0  0  0  0
   57.1640   34.1260   44.2598 H   0  0  0  0  0  0  0  0  0  0  0  0
   59.3234   35.1681   44.9438 H   0  0  0  0  0  0  0  0  0  0  0  0
   63.5197   33.9853   48.5538 H   0  0  0  0  0  0  0  0  0  0  0  0
   64.2200   33.3244   47.0373 H   0  0  0  0  0  0  0  0  0  0  0  0
   63.4459   34.9454   47.0373 H   0  0  0  0  0  0  0  0  0  0  0  0
   61.0049   29.4356   45.1263 H   0  0  0  0  0  0  0  0  0  0  0  0
   59.9134   27.5877   43.8560 H   0  0  0  0  0  0  0  0  0  0  0  0
   57.4283   26.6932   47.2825 H   0  0  0  0  0  0  0  0  0  0  0  0
   58.5194   28.5364   48.5576 H   0  0  0  0  0  0  0  0  0  0  0  0
   58.2664   30.4741   46.3136 H   0  0  0  0  0  0  0  0  0  0  0  0
  1  2  1  0
  2  3  1  0
  3  4  2  0
  4  5  1  0
  5  6  2  0
  6  7  1  0
  7  8  2  0
  8  9  1  0
  8 10  1  0
 10 11  2  0
 11 12  1  0
 12 13  1  0
 13 14  2  0
 14 15  1  0
 15 16  2  0
 16 17  1  0
 16 18  1  0
 18 19  2  0
 11 20  1  0
 20 21  2  0
 21  3  1  0
 20  6  1  0
 19 13  1  0
  1 22  1  0
  1 23  1  0
  1 24  1  0
  4 25  1  0
  5 26  1  0
  9 27  1  0
  9 28  1  0
  9 29  1  0
 14 30  1  0
 15 31  1  0
 18 32  1  0
 19 33  1  0
 21 34  1  0
M  END
>  <UniqueID>  (45) 
41

>  <SMILES>  (45) 
COc1ccc2nc(C)nc(Oc3ccc(Br)cc3)c2c1

>  <Energy>  (45) 
46.790624363231416

>  <Genealogy>  (45) 
COc1ccc2nc(C)nc(Oc3ccc(Br)cc3)c2c1 (3D coordinates assigned)
COc1ccc2nc(C)nc(Oc3ccc(Br)cc3)c2c1 (optimized conformer: 46.790624363231416 kcal/mol)

>  <smiles>  (45) 
COc1ccc2nc(C)nc(Oc3ccc(Br)cc3)c2c1

>  <score_type>  (45) 
oracle

>  <origin>  (45) 
adg

>  <m_score__min__energy>  (45) 
-6.8799999999999999

>  <m_primary>  (45) 
energy

$$$$
