0:0
     RDKit          3D

 54 56  0  0  0  0  0  0  0  0999 V2000
   63.7070   33.1370   46.7650 C   0  0  0  0  0  0  0  0  0  0  0  0
   63.2820   32.8270   48.2100 C   0  0  0  0  0  0  0  0  0  0  0  0
   61.8160   32.8780   48.4530 N   0  0  0  0  0  0  0  0  0  0  0  0
   61.3860   34.1980   48.9790 C   0  0  0  0  0  0  0  0  0  0  0  0
   59.9000   34.1820   49.3140 C   0  0  0  0  0  0  0  0  0  0  0  0
   61.2830   31.7720   49.2810 C   0  0  0  0  0  0  0  0  0  0  0  0
   60.6550   30.6230   48.4640 C   0  0  0  0  0  0  0  0  0  0  0  0
   60.9660   30.6870   47.0170 N   0  0  0  0  0  0  0  0  0  0  0  0
   59.7610   30.6960   46.1890 C   0  0  0  0  0  0  0  0  0  0  0  0
   59.1540   29.4880   45.7220 C   0  0  0  0  0  0  0  0  0  0  0  0
   58.0200   29.5740   44.8570 C   0  0  0  0  0  0  0  0  0  0  0  0
   57.3940   30.7870   44.6500 N   0  0  0  0  0  0  0  0  0  0  0  0
   56.0100   30.8300   44.1190 C   0  0  0  0  0  0  0  0  0  0  0  0
   58.0330   31.9620   44.9770 C   0  0  0  0  0  0  0  0  0  0  0  0
   57.5480   33.2130   44.5100 C   0  0  0  0  0  0  0  0  0  0  0  0
   58.1600   34.4070   44.8740 C   0  0  0  0  0  0  0  0  0  0  0  0
   59.2730   34.3910   45.7000 C   0  0  0  0  0  0  0  0  0  0  0  0
   59.7970   33.1800   46.1440 C   0  0  0  0  0  0  0  0  0  0  0  0
   59.2080   31.9420   45.7740 C   0  0  0  0  0  0  0  0  0  0  0  0
   57.5910   28.4640   44.2030 C   0  0  0  0  0  0  0  0  0  0  0  0
   58.1850   27.1840   44.4350 N   0  0  0  0  0  0  0  0  0  0  0  0
   57.7740   26.0450   43.6170 C   0  0  0  0  0  0  0  0  0  0  0  0
   59.0010   26.9790   45.6230 C   0  0  0  0  0  0  0  0  0  0  0  0
   59.6310   28.2630   46.0720 C   0  0  0  0  0  0  0  0  0  0  0  0
   64.5957   33.7852   46.7752 H   0  0  0  0  0  0  0  0  0  0  0  0
   63.9440   32.1982   46.2431 H   0  0  0  0  0  0  0  0  0  0  0  0
   62.8854   33.6494   46.2431 H   0  0  0  0  0  0  0  0  0  0  0  0
   63.6356   31.8162   48.4614 H   0  0  0  0  0  0  0  0  0  0  0  0
   63.7278   33.6115   48.8391 H   0  0  0  0  0  0  0  0  0  0  0  0
   61.9595   34.4291   49.8888 H   0  0  0  0  0  0  0  0  0  0  0  0
   61.5686   34.9633   48.2102 H   0  0  0  0  0  0  0  0  0  0  0  0
   59.7704   34.1806   50.4063 H   0  0  0  0  0  0  0  0  0  0  0  0
   59.4186   35.0750   48.8888 H   0  0  0  0  0  0  0  0  0  0  0  0
   59.4380   33.2788   48.8888 H   0  0  0  0  0  0  0  0  0  0  0  0
   62.1082   31.3597   49.8802 H   0  0  0  0  0  0  0  0  0  0  0  0
   60.4804   32.1971   49.9016 H   0  0  0  0  0  0  0  0  0  0  0  0
   61.0324   29.6683   48.8592 H   0  0  0  0  0  0  0  0  0  0  0  0
   59.5634   30.7143   48.5643 H   0  0  0  0  0  0  0  0  0  0  0  0
   61.6690   29.9700   46.7510 H   0  0  0  0  0  0  0  0  0  0  0  0
   61.5030   31.5630   46.8200 H   0  0  0  0  0  0  0  0  0  0  0  0
   55.2966   30.8522   44.9560 H   0  0  0  0  0  0  0  0  0  0  0  0
   55.8813   31.7326   43.5035 H   0  0  0  0  0  0  0  0  0  0  0  0
   55.8255   29.9372   43.5035 H   0  0  0  0  0  0  0  0  0  0  0  0
   56.6706   33.2374   43.8470 H   0  0  0  0  0  0  0  0  0  0  0  0
   57.7611   35.3641   44.5067 H   0  0  0  0  0  0  0  0  0  0  0  0
   59.7433   35.3373   46.0054 H   0  0  0  0  0  0  0  0  0  0  0  0
   60.6844   33.1822   46.7940 H   0  0  0  0  0  0  0  0  0  0  0  0
   56.7680   28.5514   43.4784 H   0  0  0  0  0  0  0  0  0  0  0  0
   57.4738   25.2131   44.2711 H   0  0  0  0  0  0  0  0  0  0  0  0
   56.9246   26.3371   42.9821 H   0  0  0  0  0  0  0  0  0  0  0  0
   58.6142   25.7274   42.9821 H   0  0  0  0  0  0  0  0  0  0  0  0
   58.3664   26.5879   46.4319 H   0  0  0  0  0  0  0  0  0  0  0  0
   59.8003   26.2637   45.3792 H   0  0  0  0  0  0  0  0  0  0  0  0
   60.5218   28.2122   46.7154 H   0  0  0  0  0  0  0  0  0  0  0  0
  1  2  1  0
  2  3  1  0
  3  4  1  0
  4  5  1  0
  3  6  1  0
  6  7  1  0
  7  8  1  0
  8  9  1  0
  9 10  1  0
 10 11  1  0
 11 12  1  0
 12 13  1  0
 12 14  2  0
 14 15  1  0
 15 16  2  0
 16 17  1  0
 17 18  2  0
 18 19  1  0
 11 20  2  0
 20 21  1  0
 21 22  1  0
 21 23  1  0
 23 24  1  0
 19  9  2  0
 24 10  2  0
 19 14  1  0
  1 25  1  0
  1 26  1  0
  1 27  1  0
  2 28  1  0
  2 29  1  0
  4 30  1  0
  4 31  1  0
  5 32  1  0
  5 33  1  0
  5 34  1  0
  6 35  1  0
  6 36  1  0
  7 37  1  0
  7 38  1  0
  8 39  1  0
  8 40  1  0
 13 41  1  0
 13 42  1  0
 13 43  1  0
 15 44  1  0
 16 45  1  0
 17 46  1  0
 18 47  1  0
 20 48  1  0
 22 49  1  0
 22 50  1  0
 22 51  1  0
 23 52  1  0
 23 53  1  0
 24 54  1  0
M  CHG  2   8   1  12   1
M  END
>  <UniqueID>  (1) 
1

>  <SMILES>  (1) 
CCN(CC)CC[NH2+]c1c2c([n+](C)c3ccccc13)=CN(C)CC=2

>  <Energy>  (1) 
89.5590801576762

>  <Genealogy>  (1) 
CCN(CC)CC[NH2+]c1c2c([n+](C)c3ccccc13)=CN(C)CC=2 (protonated)
CCN(CC)CC[NH2+]c1c2c([n+](C)c3ccccc13)=CN(C)CC=2 (3D coordinates assigned)
CCN(CC)CC[NH2+]c1c2c([n+](C)c3ccccc13)=CN(C)CC=2 (nonaromatic ring conformer: 89.5590801576762 kcal/mol)

>  <smiles>  (1) 
CCN(CC)CCNc1c2c([n+](C)c3ccccc13)=CN(C)CC=2

>  <score_type>  (1) 
oracle

>  <origin>  (1) 
adg

>  <m_score__min__energy>  (1) 
-3.6499999999999999

>  <m_primary>  (1) 
energy

$$$$
1:0
     RDKit          3D

 46 48  0  0  0  0  0  0  0  0999 V2000
   58.4490   33.4700   44.5360 Br  0  0  0  0  0  0  0  0  0  0  0  0
   57.8870   31.6450   44.3740 C   0  0  0  0  0  0  0  0  0  0  0  0
   57.0820   31.2840   43.2870 C   0  0  0  0  0  0  0  0  0  0  0  0
   56.6490   29.9650   43.1410 C   0  0  0  0  0  0  0  0  0  0  0  0
   57.0180   28.9990   44.0800 C   0  0  0  0  0  0  0  0  0  0  0  0
   57.8220   29.3470   45.1690 C   0  0  0  0  0  0  0  0  0  0  0  0
   58.2950   27.9960   46.4420 Br  0  0  0  0  0  0  0  0  0  0  0  0
   58.2660   30.6740   45.3210 C   0  0  0  0  0  0  0  0  0  0  0  0
   59.0890   31.0300   46.4390 N   0  0  0  0  0  0  0  0  0  0  0  0
   58.5010   31.7930   47.5440 C   0  0  0  0  0  0  0  0  0  0  0  0
   59.5870   32.2260   48.5360 C   0  0  0  0  0  0  0  0  0  0  0  0
   60.8000   32.6570   47.8040 N   0  0  0  0  0  0  0  0  0  0  0  0
   61.7310   33.4510   48.6680 C   0  0  0  0  0  0  0  0  0  0  0  0
   63.1500   33.5800   48.0330 C   0  0  0  0  0  0  0  0  0  0  0  0
   64.2640   32.7500   48.7000 C   0  0  0  0  0  0  0  0  0  0  0  0
   64.8740   33.4610   49.9190 C   0  0  0  0  0  0  0  0  0  0  0  0
   64.0380   33.3080   51.1920 C   0  0  0  0  0  0  0  0  0  0  0  0
   62.6200   33.8860   51.0670 C   0  0  0  0  0  0  0  0  0  0  0  0
   61.7140   33.0250   50.1670 C   0  0  0  0  0  0  0  0  0  0  0  0
   61.4460   31.5120   47.1050 C   0  0  0  0  0  0  0  0  0  0  0  0
   60.4400   30.4740   46.5510 C   0  0  0  0  0  0  0  0  0  0  0  0
   56.7898   32.0422   42.5456 H   0  0  0  0  0  0  0  0  0  0  0  0
   56.0164   29.6860   42.2854 H   0  0  0  0  0  0  0  0  0  0  0  0
   56.6746   27.9607   43.9620 H   0  0  0  0  0  0  0  0  0  0  0  0
   58.0016   32.6866   47.1413 H   0  0  0  0  0  0  0  0  0  0  0  0
   57.7738   31.1559   48.0687 H   0  0  0  0  0  0  0  0  0  0  0  0
   59.2122   33.0625   49.1440 H   0  0  0  0  0  0  0  0  0  0  0  0
   59.8411   31.3760   49.1864 H   0  0  0  0  0  0  0  0  0  0  0  0
   60.4710   33.3180   47.0580 H   0  0  0  0  0  0  0  0  0  0  0  0
   61.3363   34.4773   48.6994 H   0  0  0  0  0  0  0  0  0  0  0  0
   63.0786   33.2649   46.9815 H   0  0  0  0  0  0  0  0  0  0  0  0
   63.4417   34.6321   48.1674 H   0  0  0  0  0  0  0  0  0  0  0  0
   63.8409   31.7887   49.0268 H   0  0  0  0  0  0  0  0  0  0  0  0
   65.0648   32.6068   47.9596 H   0  0  0  0  0  0  0  0  0  0  0  0
   65.8729   33.0396   50.1049 H   0  0  0  0  0  0  0  0  0  0  0  0
   64.9136   34.5347   49.6831 H   0  0  0  0  0  0  0  0  0  0  0  0
   63.9577   32.2369   51.4292 H   0  0  0  0  0  0  0  0  0  0  0  0
   64.5493   33.8737   51.9848 H   0  0  0  0  0  0  0  0  0  0  0  0
   62.1714   33.9422   52.0698 H   0  0  0  0  0  0  0  0  0  0  0  0
   62.7023   34.8817   50.6068 H   0  0  0  0  0  0  0  0  0  0  0  0
   62.0502   31.9798   50.2346 H   0  0  0  0  0  0  0  0  0  0  0  0
   60.6833   33.1592   50.5271 H   0  0  0  0  0  0  0  0  0  0  0  0
   62.0364   31.9063   46.2648 H   0  0  0  0  0  0  0  0  0  0  0  0
   62.0688   30.9918   47.8476 H   0  0  0  0  0  0  0  0  0  0  0  0
   60.7753   30.1502   45.5546 H   0  0  0  0  0  0  0  0  0  0  0  0
   60.4034   29.6265   47.2513 H   0  0  0  0  0  0  0  0  0  0  0  0
  1  2  1  0
  2  3  2  0
  3  4  1  0
  4  5  2  0
  5  6  1  0
  6  7  1  0
  6  8  2  0
  8  9  1  0
  9 10  1  0
 10 11  1  0
 11 12  1  0
 12 13  1  0
 13 14  1  0
 14 15  1  0
 15 16  1  0
 16 17  1  0
 17 18  1  0
 18 19  1  0
 12 20  1  0
 20 21  1  0
  8  2  1  0
 21  9  1  0
 19 13  1  0
  3 22  1  0
  4 23  1  0
  5 24  1  0
 10 25  1  0
 10 26  1  0
 11 27  1  0
 11 28  1  0
 12 29  1  0
 13 30  1  0
 14 31  1  0
 14 32  1  0
 15 33  1  0
 15 34  1  0
 16 35  1  0
 16 36  1  0
 17 37  1  0
 17 38  1  0
 18 39  1  0
 18 40  1  0
 19 41  1  0
 19 42  1  0
 20 43  1  0
 20 44  1  0
 21 45  1  0
 21 46  1  0
M  CHG  1  12   1
M  END
>  <UniqueID>  (2) 
2

>  <SMILES>  (2) 
Brc1cccc(Br)c1N1CC[NH+](C2CCCCCC2)CC1

>  <Energy>  (2) 
66.22177951208486

>  <Genealogy>  (2) 
Brc1cccc(Br)c1N1CC[NH+](C2CCCCCC2)CC1 (protonated)
Brc1cccc(Br)c1N1CC[NH+](C2CCCCCC2)CC1 (3D coordinates assigned)
Brc1cccc(Br)c1N1CC[NH+](C2CCCCCC2)CC1 (nonaromatic ring conformer: 66.22177951208486 kcal/mol)

>  <smiles>  (2) 
Brc1cccc(Br)c1N1CCN(C2CCCCCC2)CC1

>  <score_type>  (2) 
oracle

>  <origin>  (2) 
adg

>  <m_score__min__energy>  (2) 
-4.2800000000000002

>  <m_primary>  (2) 
energy

$$$$
2:0
     RDKit          3D

 45 48  0  0  0  0  0  0  0  0999 V2000
   63.6571   33.2491   46.4931 H   0  0  0  0  0  0  0  0  0  0  0  0
   63.2450   32.9630   47.4720 C   0  0  0  0  0  0  0  0  0  0  0  0
   63.0500   31.6150   47.7810 C   0  0  0  0  0  0  0  0  0  0  0  0
   63.3142   30.8394   47.0471 H   0  0  0  0  0  0  0  0  0  0  0  0
   62.5190   31.2500   49.0230 C   0  0  0  0  0  0  0  0  0  0  0  0
   62.3678   30.1872   49.2632 H   0  0  0  0  0  0  0  0  0  0  0  0
   62.1780   32.2360   49.9650 C   0  0  0  0  0  0  0  0  0  0  0  0
   61.5970   31.8330   51.2950 C   0  0  0  0  0  0  0  0  0  0  0  0
   61.9023   32.5635   52.0587 H   0  0  0  0  0  0  0  0  0  0  0  0
   61.9695   30.8311   51.5547 H   0  0  0  0  0  0  0  0  0  0  0  0
   60.1310   31.7890   51.2290 N   0  0  0  0  0  0  0  0  0  0  0  0
   59.6270   32.1750   52.0590 H   0  0  0  0  0  0  0  0  0  0  0  0
   59.4280   31.3760   50.2040 C   0  0  0  0  0  0  0  0  0  0  0  0
   58.5470   30.1870   50.2830 C   0  0  0  0  0  0  0  0  0  0  0  0
   57.7420   30.0670   51.2430 O   0  0  0  0  0  0  0  0  0  0  0  0
   58.5870   29.1560   49.2920 N   0  0  0  0  0  0  0  0  0  0  0  0
   59.2510   29.1890   48.0190 C   0  0  0  0  0  0  0  0  0  0  0  0
   59.7300   27.9720   47.5150 C   0  0  0  0  0  0  0  0  0  0  0  0
   59.6211   27.0555   48.1135 H   0  0  0  0  0  0  0  0  0  0  0  0
   60.3420   27.9090   46.2660 C   0  0  0  0  0  0  0  0  0  0  0  0
   60.7304   26.9506   45.8911 H   0  0  0  0  0  0  0  0  0  0  0  0
   60.4620   29.0600   45.4920 C   0  0  0  0  0  0  0  0  0  0  0  0
   60.9460   29.0094   44.5055 H   0  0  0  0  0  0  0  0  0  0  0  0
   59.9700   30.2780   45.9640 C   0  0  0  0  0  0  0  0  0  0  0  0
   60.0588   31.1781   45.3379 H   0  0  0  0  0  0  0  0  0  0  0  0
   59.3580   30.3710   47.2380 C   0  0  0  0  0  0  0  0  0  0  0  0
   58.7800   31.6810   47.7660 C   0  0  2  0  0  0  0  0  0  0  0  0
   57.7290   31.4688   48.0116 H   0  0  0  0  0  0  0  0  0  0  0  0
   58.7190   32.8150   46.7470 C   0  0  0  0  0  0  0  0  0  0  0  0
   59.6930   33.8320   46.7700 C   0  0  0  0  0  0  0  0  0  0  0  0
   60.4925   33.8047   47.5250 H   0  0  0  0  0  0  0  0  0  0  0  0
   59.6520   34.8760   45.8410 C   0  0  0  0  0  0  0  0  0  0  0  0
   60.4228   35.6605   45.8626 H   0  0  0  0  0  0  0  0  0  0  0  0
   58.6350   34.9250   44.8860 C   0  0  0  0  0  0  0  0  0  0  0  0
   58.6089   35.7444   44.1525 H   0  0  0  0  0  0  0  0  0  0  0  0
   57.6510   33.9350   44.8610 C   0  0  0  0  0  0  0  0  0  0  0  0
   56.8458   33.9794   44.1129 H   0  0  0  0  0  0  0  0  0  0  0  0
   57.6880   32.8870   45.7860 C   0  0  0  0  0  0  0  0  0  0  0  0
   56.9072   32.1125   45.7644 H   0  0  0  0  0  0  0  0  0  0  0  0
   59.5130   32.0980   48.9640 N   0  0  0  0  0  0  0  0  0  0  0  0
   60.1150   32.9520   48.9390 H   0  0  0  0  0  0  0  0  0  0  0  0
   62.3840   33.5890   49.6500 C   0  0  0  0  0  0  0  0  0  0  0  0
   62.1260   34.3680   50.3826 H   0  0  0  0  0  0  0  0  0  0  0  0
   62.9160   33.9490   48.4080 C   0  0  0  0  0  0  0  0  0  0  0  0
   63.0762   35.0101   48.1664 H   0  0  0  0  0  0  0  0  0  0  0  0
  1  2  1  0
  2  3  2  0
  3  4  1  0
  3  5  1  0
  5  6  1  0
  5  7  2  0
  7  8  1  0
  8  9  1  0
  8 10  1  0
  8 11  1  0
 11 12  1  0
 11 13  2  0
 13 14  1  0
 14 15  2  0
 14 16  1  0
 16 17  1  0
 17 18  2  0
 18 19  1  0
 18 20  1  0
 20 21  1  0
 20 22  2  0
 22 23  1  0
 22 24  1  0
 24 25  1  0
 24 26  2  0
 26 27  1  0
 27 28  1  1
 27 29  1  0
 29 30  2  0
 30 31  1  0
 30 32  1  0
 32 33  1  0
 32 34  2  0
 34 35  1  0
 34 36  1  0
 36 37  1  0
 36 38  2  0
 38 39  1  0
 27 40  1  0
 40 41  1  0
  7 42  1  0
 42 43  1  0
 42 44  2  0
 44 45  1  0
 44  2  1  0
 40 13  1  0
 26 17  1  0
 38 29  1  0
M  CHG  2  11   1  16  -1
M  END
>  <UniqueID>  (3) 
3

>  <SMILES>  (3) 
O=C1[N-]c2ccccc2[C@H](c2ccccc2)N/C1=[NH+]/Cc1ccccc1

>  <Energy>  (3) 
66.43777598182207

>  <Genealogy>  (3) 
O=C1[N-]c2ccccc2C(c2ccccc2)NC1=[NH+]Cc1ccccc1 (protonated)
O=C1[N-]c2ccccc2[C@H](c2ccccc2)NC1=[NH+]Cc1ccccc1 (chirality)
O=C1[N-]c2ccccc2[C@H](c2ccccc2)N/C1=[NH+]/Cc1ccccc1 (cis-trans isomerization)
O=C1[N-]c2ccccc2[C@H](c2ccccc2)N/C1=[NH+]/Cc1ccccc1 (3D coordinates assigned)
O=C1[N-]c2ccccc2[C@H](c2ccccc2)N/C1=[NH+]/Cc1ccccc1 (nonaromatic ring conformer: 66.43777598182207 kcal/mol)

>  <smiles>  (3) 
O=C1Nc2ccccc2C(c2ccccc2)NC1=NCc1ccccc1

>  <score_type>  (3) 
oracle

>  <origin>  (3) 
adg

>  <m_score__min__energy>  (3) 
-6.75

>  <m_primary>  (3) 
energy

$$$$
3:0
     RDKit          3D

 42 45  0  0  0  0  0  0  0  0999 V2000
   56.9770   33.2840   45.9160 C   0  0  0  0  0  0  0  0  0  0  0  0
   57.5780   33.7640   44.6610 N   0  0  0  0  0  0  0  0  0  0  0  0
   58.6690   34.7460   44.8540 C   0  0  0  0  0  0  0  0  0  0  0  0
   59.3790   34.6170   46.1710 C   0  0  0  0  0  0  0  0  0  0  0  0
   60.5530   33.9300   46.4230 C   0  0  0  0  0  0  0  0  0  0  0  0
   60.8030   34.1760   47.7640 C   0  0  0  0  0  0  0  0  0  0  0  0
   62.0150   33.7840   48.5250 C   0  0  0  0  0  0  0  0  0  0  0  0
   62.2410   34.2820   49.8230 C   0  0  0  0  0  0  0  0  0  0  0  0
   63.4140   33.9630   50.5110 C   0  0  0  0  0  0  0  0  0  0  0  0
   64.3700   33.1360   49.9200 C   0  0  0  0  0  0  0  0  0  0  0  0
   64.1550   32.6240   48.6390 C   0  0  0  0  0  0  0  0  0  0  0  0
   62.9860   32.9450   47.9430 C   0  0  0  0  0  0  0  0  0  0  0  0
   59.8010   34.9390   48.2500 N   0  0  0  0  0  0  0  0  0  0  0  0
   58.9730   35.1880   47.2810 O   0  0  0  0  0  0  0  0  0  0  0  0
   57.8310   32.7090   43.6510 C   0  0  0  0  0  0  0  0  0  0  0  0
   57.3700   31.3400   44.0800 C   0  0  0  0  0  0  0  0  0  0  0  0
   58.1590   30.2500   44.1060 N   0  0  0  0  0  0  0  0  0  0  0  0
   57.3130   29.3200   44.5970 C   0  0  0  0  0  0  0  0  0  0  0  0
   57.7000   27.9080   44.9210 C   0  0  0  0  0  0  0  0  0  0  0  0
   59.1750   27.5500   44.7870 C   0  0  0  0  0  0  0  0  0  0  0  0
   58.1860   27.1140   43.7190 C   0  0  0  0  0  0  0  0  0  0  0  0
   56.0840   29.8160   44.8420 N   0  0  0  0  0  0  0  0  0  0  0  0
   56.1580   31.0680   44.5050 O   0  0  0  0  0  0  0  0  0  0  0  0
   57.5182   33.7163   46.7705 H   0  0  0  0  0  0  0  0  0  0  0  0
   55.9213   33.5903   45.9577 H   0  0  0  0  0  0  0  0  0  0  0  0
   57.0423   32.1867   45.9577 H   0  0  0  0  0  0  0  0  0  0  0  0
   59.4055   34.6079   44.0487 H   0  0  0  0  0  0  0  0  0  0  0  0
   58.2065   35.7439   44.8374 H   0  0  0  0  0  0  0  0  0  0  0  0
   61.1497   33.3281   45.7218 H   0  0  0  0  0  0  0  0  0  0  0  0
   61.4878   34.9273   50.2987 H   0  0  0  0  0  0  0  0  0  0  0  0
   63.5845   34.3645   51.5208 H   0  0  0  0  0  0  0  0  0  0  0  0
   65.2934   32.8874   50.4636 H   0  0  0  0  0  0  0  0  0  0  0  0
   64.9066   31.9671   48.1768 H   0  0  0  0  0  0  0  0  0  0  0  0
   62.8229   32.5396   46.9335 H   0  0  0  0  0  0  0  0  0  0  0  0
   59.7030   35.3260   49.2140 H   0  0  0  0  0  0  0  0  0  0  0  0
   57.3021   32.9798   42.7253 H   0  0  0  0  0  0  0  0  0  0  0  0
   58.9204   32.6528   43.5093 H   0  0  0  0  0  0  0  0  0  0  0  0
   56.9520   27.7740   45.7163 H   0  0  0  0  0  0  0  0  0  0  0  0
   59.9136   28.3345   44.5655 H   0  0  0  0  0  0  0  0  0  0  0  0
   59.9117   27.0359   45.4217 H   0  0  0  0  0  0  0  0  0  0  0  0
   58.2096   27.5825   42.7240 H   0  0  0  0  0  0  0  0  0  0  0  0
   57.9114   26.1525   43.2605 H   0  0  0  0  0  0  0  0  0  0  0  0
  1  2  1  0
  2  3  1  0
  3  4  1  0
  4  5  2  0
  5  6  1  0
  6  7  1  0
  7  8  2  0
  8  9  1  0
  9 10  2  0
 10 11  1  0
 11 12  2  0
  6 13  2  0
 13 14  1  0
  2 15  1  0
 15 16  1  0
 16 17  2  0
 17 18  1  0
 18 19  1  0
 19 20  1  0
 20 21  1  0
 18 22  2  0
 22 23  1  0
 14  4  1  0
 23 16  1  0
 12  7  1  0
 21 19  1  0
  1 24  1  0
  1 25  1  0
  1 26  1  0
  3 27  1  0
  3 28  1  0
  5 29  1  0
  8 30  1  0
  9 31  1  0
 10 32  1  0
 11 33  1  0
 12 34  1  0
 13 35  1  0
 15 36  1  0
 15 37  1  0
 19 38  1  0
 20 39  1  0
 20 40  1  0
 21 41  1  0
 21 42  1  0
M  CHG  1  13   1
M  END
>  <UniqueID>  (4) 
4

>  <SMILES>  (4) 
CN(Cc1cc(-c2ccccc2)[nH+]o1)Cc1nc(C2CC2)no1

>  <Energy>  (4) 
376.91666304587596

>  <Genealogy>  (4) 
CN(Cc1cc(-c2ccccc2)[nH+]o1)Cc1nc(C2CC2)no1 (protonated)
CN(Cc1cc(-c2ccccc2)[nH+]o1)Cc1nc(C2CC2)no1 (3D coordinates assigned)
CN(Cc1cc(-c2ccccc2)[nH+]o1)Cc1nc(C2CC2)no1 (nonaromatic ring conformer: 376.91666304587596 kcal/mol)

>  <smiles>  (4) 
CN(Cc1cc(-c2ccccc2)no1)Cc1nc(C2CC2)no1

>  <score_type>  (4) 
oracle

>  <origin>  (4) 
adg

>  <m_score__min__energy>  (4) 
-7.4800000000000004

>  <m_primary>  (4) 
energy

$$$$
4:0
     RDKit          3D

 63 66  0  0  0  0  0  0  0  0999 V2000
   64.7660   32.3610   49.7350 C   0  0  0  0  0  0  0  0  0  0  0  0
   63.4530   31.5870   49.6820 C   0  0  0  0  0  0  0  0  0  0  0  0
   62.4900   32.2790   48.7970 N   0  0  0  0  0  0  0  0  0  0  0  0
   62.8510   32.1270   47.3680 C   0  0  0  0  0  0  0  0  0  0  0  0
   63.2320   33.4650   46.7330 C   0  0  0  0  0  0  0  0  0  0  0  0
   62.2390   33.6800   49.2180 C   0  0  0  0  0  0  0  0  0  0  0  0
   61.1420   33.8400   50.2870 C   0  0  0  0  0  0  0  0  0  0  0  0
   60.6390   32.5650   50.6480 O   0  0  0  0  0  0  0  0  0  0  0  0
   59.2310   32.5870   50.7640 C   0  0  0  0  0  0  0  0  0  0  0  0
   58.5990   31.8750   49.5660 C   0  0  0  0  0  0  0  0  0  0  0  0
   59.6030   31.5440   48.5550 N   0  0  0  0  0  0  0  0  0  0  0  0
   59.2990   31.6100   47.1540 C   0  0  0  0  0  0  0  0  0  0  0  0
   59.2950   32.8540   46.4870 C   0  0  0  0  0  0  0  0  0  0  0  0
   59.7700   34.0170   47.1300 C   0  0  0  0  0  0  0  0  0  0  0  0
   59.7560   35.2480   46.4780 C   0  0  0  0  0  0  0  0  0  0  0  0
   59.2740   35.3440   45.1780 C   0  0  0  0  0  0  0  0  0  0  0  0
   58.8010   34.2110   44.5160 C   0  0  0  0  0  0  0  0  0  0  0  0
   58.7970   32.9430   45.1500 C   0  0  0  0  0  0  0  0  0  0  0  0
   58.3200   31.8150   44.5090 N   0  0  0  0  0  0  0  0  0  0  0  0
   57.7710   31.8960   43.1420 C   0  0  0  0  0  0  0  0  0  0  0  0
   58.3910   30.6100   45.1560 C   0  0  0  0  0  0  0  0  0  0  0  0
   57.9480   29.0960   44.5540 S   0  0  0  0  0  0  0  0  0  0  0  0
   58.4220   28.2360   45.9140 C   0  0  0  0  0  0  0  0  0  0  0  0
   58.9760   29.1090   46.8530 C   0  0  0  0  0  0  0  0  0  0  0  0
   58.9030   30.4660   46.4430 C   0  0  0  0  0  0  0  0  0  0  0  0
   59.6330   28.5780   48.1080 C   0  0  0  0  0  0  0  0  0  0  0  0
   60.0030   27.0920   47.9770 C   0  0  0  0  0  0  0  0  0  0  0  0
   58.8240   26.2770   47.4230 C   0  0  0  0  0  0  0  0  0  0  0  0
   58.4480   26.7400   46.0100 C   0  0  0  0  0  0  0  0  0  0  0  0
   65.0506   32.5288   50.7842 H   0  0  0  0  0  0  0  0  0  0  0  0
   65.5533   31.7825   49.2295 H   0  0  0  0  0  0  0  0  0  0  0  0
   64.6411   33.3300   49.2295 H   0  0  0  0  0  0  0  0  0  0  0  0
   63.6424   30.5755   49.2933 H   0  0  0  0  0  0  0  0  0  0  0  0
   63.0303   31.5254   50.6957 H   0  0  0  0  0  0  0  0  0  0  0  0
   63.7053   31.4388   47.2879 H   0  0  0  0  0  0  0  0  0  0  0  0
   61.9740   31.7325   46.8339 H   0  0  0  0  0  0  0  0  0  0  0  0
   63.4413   34.2000   47.5242 H   0  0  0  0  0  0  0  0  0  0  0  0
   64.1282   33.3328   46.1090 H   0  0  0  0  0  0  0  0  0  0  0  0
   62.4006   33.8247   46.1090 H   0  0  0  0  0  0  0  0  0  0  0  0
   63.1759   34.0898   49.6234 H   0  0  0  0  0  0  0  0  0  0  0  0
   61.8853   34.2159   48.3249 H   0  0  0  0  0  0  0  0  0  0  0  0
   61.5657   34.3312   51.1754 H   0  0  0  0  0  0  0  0  0  0  0  0
   60.3240   34.4535   49.8814 H   0  0  0  0  0  0  0  0  0  0  0  0
   58.9333   32.0753   51.6911 H   0  0  0  0  0  0  0  0  0  0  0  0
   58.8857   33.6311   50.7884 H   0  0  0  0  0  0  0  0  0  0  0  0
   58.1197   30.9475   49.9123 H   0  0  0  0  0  0  0  0  0  0  0  0
   57.8581   32.5496   49.1121 H   0  0  0  0  0  0  0  0  0  0  0  0
   60.5710   31.2990   48.8550 H   0  0  0  0  0  0  0  0  0  0  0  0
   60.1558   33.9507   48.1580 H   0  0  0  0  0  0  0  0  0  0  0  0
   60.1273   36.1461   46.9933 H   0  0  0  0  0  0  0  0  0  0  0  0
   59.2655   36.3188   44.6684 H   0  0  0  0  0  0  0  0  0  0  0  0
   58.4253   34.3028   43.4862 H   0  0  0  0  0  0  0  0  0  0  0  0
   56.6839   32.0564   43.1924 H   0  0  0  0  0  0  0  0  0  0  0  0
   58.2410   32.7345   42.6072 H   0  0  0  0  0  0  0  0  0  0  0  0
   57.9788   30.9575   42.6072 H   0  0  0  0  0  0  0  0  0  0  0  0
   60.5482   29.1565   48.3022 H   0  0  0  0  0  0  0  0  0  0  0  0
   58.9165   28.6789   48.9365 H   0  0  0  0  0  0  0  0  0  0  0  0
   60.8602   26.9937   47.2947 H   0  0  0  0  0  0  0  0  0  0  0  0
   60.2578   26.7053   48.9748 H   0  0  0  0  0  0  0  0  0  0  0  0
   59.1061   25.2143   47.3896 H   0  0  0  0  0  0  0  0  0  0  0  0
   57.9560   26.4262   48.0820 H   0  0  0  0  0  0  0  0  0  0  0  0
   59.1876   26.3483   45.2962 H   0  0  0  0  0  0  0  0  0  0  0  0
   57.4422   26.3604   45.7772 H   0  0  0  0  0  0  0  0  0  0  0  0
  1  2  1  0
  2  3  1  0
  3  4  1  0
  4  5  1  0
  3  6  1  0
  6  7  1  0
  7  8  1  0
  8  9  1  0
  9 10  1  0
 10 11  1  0
 11 12  1  0
 12 13  2  0
 13 14  1  0
 14 15  2  0
 15 16  1  0
 16 17  2  0
 17 18  1  0
 18 19  2  0
 19 20  1  0
 19 21  1  0
 21 22  1  0
 22 23  1  0
 23 24  2  0
 24 25  1  0
 24 26  1  0
 26 27  1  0
 27 28  1  0
 28 29  1  0
 25 12  1  0
 18 13  1  0
 25 21  2  0
 29 23  1  0
  1 30  1  0
  1 31  1  0
  1 32  1  0
  2 33  1  0
  2 34  1  0
  4 35  1  0
  4 36  1  0
  5 37  1  0
  5 38  1  0
  5 39  1  0
  6 40  1  0
  6 41  1  0
  7 42  1  0
  7 43  1  0
  9 44  1  0
  9 45  1  0
 10 46  1  0
 10 47  1  0
 11 48  1  0
 14 49  1  0
 15 50  1  0
 16 51  1  0
 17 52  1  0
 20 53  1  0
 20 54  1  0
 20 55  1  0
 26 56  1  0
 26 57  1  0
 27 58  1  0
 27 59  1  0
 28 60  1  0
 28 61  1  0
 29 62  1  0
 29 63  1  0
M  CHG  1  19   1
M  END
>  <UniqueID>  (5) 
5

>  <SMILES>  (5) 
CCN(CC)CCOCCNc1c2ccccc2[n+](C)c2sc3c(c12)CCCC3

>  <Energy>  (5) 
115.08817670789037

>  <Genealogy>  (5) 
CCN(CC)CCOCCNc1c2ccccc2[n+](C)c2sc3c(c12)CCCC3 (3D coordinates assigned)
CCN(CC)CCOCCNc1c2ccccc2[n+](C)c2sc3c(c12)CCCC3 (nonaromatic ring conformer: 115.08817670789037 kcal/mol)

>  <smiles>  (5) 
CCN(CC)CCOCCNc1c2ccccc2[n+](C)c2sc3c(c12)CCCC3

>  <score_type>  (5) 
oracle

>  <origin>  (5) 
adg

>  <m_score__min__energy>  (5) 
-6.3300000000000001

>  <m_primary>  (5) 
energy

$$$$
5:0
     RDKit          3D

 63 67  0  0  0  0  0  0  0  0999 V2000
   58.0940   32.3430   41.6360 C   0  0  0  0  0  0  0  0  0  0  0  0
   57.6670   31.6250   42.7890 O   0  0  0  0  0  0  0  0  0  0  0  0
   57.7690   32.0990   44.1070 C   0  0  0  0  0  0  0  0  0  0  0  0
   57.5420   33.4530   44.4270 C   0  0  0  0  0  0  0  0  0  0  0  0
   57.6320   33.8920   45.7500 C   0  0  0  0  0  0  0  0  0  0  0  0
   57.9470   32.9920   46.7660 C   0  0  0  0  0  0  0  0  0  0  0  0
   58.1780   31.6490   46.4640 C   0  0  0  0  0  0  0  0  0  0  0  0
   58.0950   31.1920   45.1370 C   0  0  0  0  0  0  0  0  0  0  0  0
   58.3740   29.8090   44.8390 N   0  0  0  0  0  0  0  0  0  0  0  0
   59.7490   29.2980   44.9160 C   0  0  0  0  0  0  0  0  0  0  0  0
   59.7480   27.8240   45.3550 C   0  0  0  0  0  0  0  0  0  0  0  0
   58.6550   27.5340   46.3130 N   0  0  0  0  0  0  0  0  0  0  0  0
   58.7710   28.2700   47.5960 C   0  0  0  0  0  0  0  0  0  0  0  0
   60.0620   27.9280   48.3520 C   0  0  0  0  0  0  0  0  0  0  0  0
   60.8690   29.0950   48.4910 O   0  0  0  0  0  0  0  0  0  0  0  0
   60.3930   30.3000   49.0230 C   0  0  0  0  0  0  0  0  0  0  0  0
   59.3880   30.3020   49.7870 O   0  0  0  0  0  0  0  0  0  0  0  0
   61.0910   31.5940   48.6600 C   0  0  2  0  0  0  0  0  0  0  0  0
   62.4800   31.7090   49.3530 C   0  0  0  0  0  0  0  0  0  0  0  0
   63.1600   33.0390   48.9590 C   0  0  1  0  0  0  0  0  0  0  0  0
   63.3530   33.0830   47.4270 C   0  0  0  0  0  0  0  0  0  0  0  0
   61.9780   32.9840   46.7310 C   0  0  2  0  0  0  0  0  0  0  0  0
   61.0910   34.1670   47.1740 C   0  0  0  0  0  0  0  0  0  0  0  0
   60.8970   34.1230   48.7050 C   0  0  2  0  0  0  0  0  0  0  0  0
   62.2710   34.2210   49.4010 C   0  0  0  0  0  0  0  0  0  0  0  0
   60.2130   32.7950   49.1000 C   0  0  0  0  0  0  0  0  0  0  0  0
   61.2970   31.6540   47.1220 C   0  0  0  0  0  0  0  0  0  0  0  0
   57.3200   27.7330   45.6880 C   0  0  0  0  0  0  0  0  0  0  0  0
   57.2870   28.8510   44.6210 C   0  0  0  0  0  0  0  0  0  0  0  0
   58.6332   33.2497   41.9476 H   0  0  0  0  0  0  0  0  0  0  0  0
   58.7613   31.7079   41.0348 H   0  0  0  0  0  0  0  0  0  0  0  0
   57.2174   32.6261   41.0348 H   0  0  0  0  0  0  0  0  0  0  0  0
   57.2924   34.1685   43.6297 H   0  0  0  0  0  0  0  0  0  0  0  0
   57.4538   34.9505   45.9903 H   0  0  0  0  0  0  0  0  0  0  0  0
   58.0137   33.3403   47.8073 H   0  0  0  0  0  0  0  0  0  0  0  0
   58.4268   30.9431   47.2701 H   0  0  0  0  0  0  0  0  0  0  0  0
   60.2229   29.3815   43.9268 H   0  0  0  0  0  0  0  0  0  0  0  0
   60.3096   29.8903   45.6542 H   0  0  0  0  0  0  0  0  0  0  0  0
   59.6202   27.1883   44.4664 H   0  0  0  0  0  0  0  0  0  0  0  0
   60.7049   27.6167   45.8563 H   0  0  0  0  0  0  0  0  0  0  0  0
   58.7600   29.3497   47.3861 H   0  0  0  0  0  0  0  0  0  0  0  0
   57.9225   27.9740   48.2303 H   0  0  0  0  0  0  0  0  0  0  0  0
   59.8082   27.5397   49.3494 H   0  0  0  0  0  0  0  0  0  0  0  0
   60.6209   27.1676   47.7869 H   0  0  0  0  0  0  0  0  0  0  0  0
   62.3460   31.6780   50.4444 H   0  0  0  0  0  0  0  0  0  0  0  0
   63.1144   30.8703   49.0304 H   0  0  0  0  0  0  0  0  0  0  0  0
   64.1396   33.1123   49.4541 H   0  0  0  0  0  0  0  0  0  0  0  0
   63.8389   34.0290   47.1458 H   0  0  0  0  0  0  0  0  0  0  0  0
   63.9842   32.2386   47.1129 H   0  0  0  0  0  0  0  0  0  0  0  0
   62.1158   33.0177   45.6402 H   0  0  0  0  0  0  0  0  0  0  0  0
   61.5760   35.1136   46.8934 H   0  0  0  0  0  0  0  0  0  0  0  0
   60.1113   34.0948   46.6791 H   0  0  0  0  0  0  0  0  0  0  0  0
   60.2661   34.9677   49.0187 H   0  0  0  0  0  0  0  0  0  0  0  0
   62.7559   35.1682   49.1223 H   0  0  0  0  0  0  0  0  0  0  0  0
   62.1317   34.1859   50.4916 H   0  0  0  0  0  0  0  0  0  0  0  0
   60.0767   32.7660   50.1911 H   0  0  0  0  0  0  0  0  0  0  0  0
   59.2355   32.7298   48.5998 H   0  0  0  0  0  0  0  0  0  0  0  0
   60.3203   31.5838   46.6208 H   0  0  0  0  0  0  0  0  0  0  0  0
   61.9375   30.8156   46.8108 H   0  0  0  0  0  0  0  0  0  0  0  0
   57.0174   26.7895   45.2102 H   0  0  0  0  0  0  0  0  0  0  0  0
   56.6342   28.0391   46.4917 H   0  0  0  0  0  0  0  0  0  0  0  0
   57.3973   28.4010   43.6233 H   0  0  0  0  0  0  0  0  0  0  0  0
   56.3271   29.3829   44.6965 H   0  0  0  0  0  0  0  0  0  0  0  0
  1  2  1  0
  2  3  1  0
  3  4  2  0
  4  5  1  0
  5  6  2  0
  6  7  1  0
  7  8  2  0
  8  9  1  0
  9 10  1  0
 10 11  1  0
 11 12  1  0
 12 13  1  0
 13 14  1  0
 14 15  1  0
 15 16  1  0
 16 17  2  0
 18 16  1  6
 18 19  1  0
 19 20  1  0
 20 21  1  0
 21 22  1  0
 22 23  1  0
 23 24  1  0
 24 25  1  0
 24 26  1  0
 22 27  1  0
 12 28  1  0
 28 29  1  0
  8  3  1  0
 29  9  1  0
 26 18  1  0
 27 18  1  0
 25 20  1  0
  1 30  1  0
  1 31  1  0
  1 32  1  0
  4 33  1  0
  5 34  1  0
  6 35  1  0
  7 36  1  0
 10 37  1  0
 10 38  1  0
 11 39  1  0
 11 40  1  0
 13 41  1  0
 13 42  1  0
 14 43  1  0
 14 44  1  0
 19 45  1  0
 19 46  1  0
 20 47  1  1
 21 48  1  0
 21 49  1  0
 22 50  1  6
 23 51  1  0
 23 52  1  0
 24 53  1  1
 25 54  1  0
 25 55  1  0
 26 56  1  0
 26 57  1  0
 27 58  1  0
 27 59  1  0
 28 60  1  0
 28 61  1  0
 29 62  1  0
 29 63  1  0
M  END
>  <UniqueID>  (6) 
6

>  <SMILES>  (6) 
COc1ccccc1N1CCN(CCOC(=O)C23CC4CC(CC(C4)C2)C3)CC1

>  <Energy>  (6) 
74.2235748118095

>  <Genealogy>  (6) 
COc1ccccc1N1CCN(CCOC(=O)C23CC4CC(CC(C4)C2)C3)CC1 (3D coordinates assigned)
COc1ccccc1N1CCN(CCOC(=O)C23CC4CC(CC(C4)C2)C3)CC1 (nonaromatic ring conformer: 74.2235748118095 kcal/mol)

>  <smiles>  (6) 
COc1ccccc1N1CCN(CCOC(=O)C23CC4CC(CC(C4)C2)C3)CC1

>  <score_type>  (6) 
oracle

>  <origin>  (6) 
adg

>  <m_score__min__energy>  (6) 
-9.3300000000000001

>  <m_primary>  (6) 
energy

$$$$
6:0
     RDKit          3D

 46 49  0  0  0  0  0  0  0  0999 V2000
   67.0610   32.3970   50.5130 C   0  0  0  0  0  0  0  0  0  0  0  0
   65.6200   32.0600   50.1200 C   0  0  0  0  0  0  0  0  0  0  0  0
   65.0910   32.9770   49.0970 N   0  0  0  0  0  0  0  0  0  0  0  0
   63.7440   32.6240   48.7110 C   0  0  0  0  0  0  0  0  0  0  0  0
   63.0070   31.7050   49.4770 C   0  0  0  0  0  0  0  0  0  0  0  0
   61.7020   31.3690   49.1110 C   0  0  0  0  0  0  0  0  0  0  0  0
   61.1210   31.9450   47.9780 C   0  0  0  0  0  0  0  0  0  0  0  0
   61.8290   32.8910   47.2170 C   0  0  0  0  0  0  0  0  0  0  0  0
   63.1450   33.2140   47.5840 C   0  0  0  0  0  0  0  0  0  0  0  0
   61.2210   33.5610   46.0940 N   0  0  0  0  0  0  0  0  0  0  0  0
   59.7960   33.6480   45.8830 C   0  0  0  0  0  0  0  0  0  0  0  0
   59.2800   34.6580   45.0550 C   0  0  0  0  0  0  0  0  0  0  0  0
   57.8980   34.7940   44.8830 C   0  0  0  0  0  0  0  0  0  0  0  0
   57.0200   33.9230   45.5330 C   0  0  0  0  0  0  0  0  0  0  0  0
   57.5230   32.9050   46.3480 C   0  0  0  0  0  0  0  0  0  0  0  0
   58.9050   32.7600   46.5150 C   0  0  0  0  0  0  0  0  0  0  0  0
   59.5340   31.4350   47.4580 S   0  0  0  0  0  0  0  0  0  0  0  0
   59.6750   30.0000   46.4080 C   0  0  0  0  0  0  0  0  0  0  0  0
   58.5020   29.9260   45.4730 C   0  0  0  0  0  0  0  0  0  0  0  0
   57.4240   29.0720   45.7590 C   0  0  0  0  0  0  0  0  0  0  0  0
   56.3560   28.9620   44.8630 C   0  0  0  0  0  0  0  0  0  0  0  0
   56.3620   29.6960   43.6740 C   0  0  0  0  0  0  0  0  0  0  0  0
   57.4360   30.5410   43.3780 C   0  0  0  0  0  0  0  0  0  0  0  0
   58.5040   30.6560   44.2720 C   0  0  0  0  0  0  0  0  0  0  0  0
   67.1469   32.4171   51.6095 H   0  0  0  0  0  0  0  0  0  0  0  0
   67.7402   31.6335   50.1059 H   0  0  0  0  0  0  0  0  0  0  0  0
   67.3311   33.3826   50.1059 H   0  0  0  0  0  0  0  0  0  0  0  0
   65.5920   31.0341   49.7240 H   0  0  0  0  0  0  0  0  0  0  0  0
   64.9937   32.1609   51.0186 H   0  0  0  0  0  0  0  0  0  0  0  0
   65.1290   33.9640   49.4460 H   0  0  0  0  0  0  0  0  0  0  0  0
   65.7070   32.9280   48.2520 H   0  0  0  0  0  0  0  0  0  0  0  0
   63.4602   31.2481   50.3691 H   0  0  0  0  0  0  0  0  0  0  0  0
   61.1302   30.6496   49.7156 H   0  0  0  0  0  0  0  0  0  0  0  0
   63.7146   33.9376   46.9824 H   0  0  0  0  0  0  0  0  0  0  0  0
   61.8360   34.1520   45.4900 H   0  0  0  0  0  0  0  0  0  0  0  0
   59.9659   35.3459   44.5389 H   0  0  0  0  0  0  0  0  0  0  0  0
   57.5017   35.5890   44.2342 H   0  0  0  0  0  0  0  0  0  0  0  0
   55.9338   34.0383   45.4035 H   0  0  0  0  0  0  0  0  0  0  0  0
   56.8324   32.2175   46.8584 H   0  0  0  0  0  0  0  0  0  0  0  0
   60.6034   30.0680   45.8220 H   0  0  0  0  0  0  0  0  0  0  0  0
   59.6928   29.0962   47.0348 H   0  0  0  0  0  0  0  0  0  0  0  0
   57.4199   28.4877   46.6910 H   0  0  0  0  0  0  0  0  0  0  0  0
   55.5107   28.2973   45.0943 H   0  0  0  0  0  0  0  0  0  0  0  0
   55.5211   29.6090   42.9702 H   0  0  0  0  0  0  0  0  0  0  0  0
   57.4403   31.1160   42.4402 H   0  0  0  0  0  0  0  0  0  0  0  0
   59.3486   31.3197   44.0350 H   0  0  0  0  0  0  0  0  0  0  0  0
  1  2  1  0
  2  3  1  0
  3  4  1  0
  4  5  2  0
  5  6  1  0
  6  7  2  0
  7  8  1  0
  8  9  2  0
  8 10  1  0
 10 11  1  0
 11 12  2  0
 12 13  1  0
 13 14  2  0
 14 15  1  0
 15 16  2  0
 16 17  1  0
 17 18  1  6
 18 19  1  0
 19 20  2  0
 20 21  1  0
 21 22  2  0
 22 23  1  0
 23 24  2  0
  9  4  1  0
 16 11  1  0
 24 19  1  0
 17  7  1  0
  1 25  1  0
  1 26  1  0
  1 27  1  0
  2 28  1  0
  2 29  1  0
  3 30  1  0
  3 31  1  0
  5 32  1  0
  6 33  1  0
  9 34  1  0
 10 35  1  0
 12 36  1  0
 13 37  1  0
 14 38  1  0
 15 39  1  0
 18 40  1  0
 18 41  1  0
 20 42  1  0
 21 43  1  0
 22 44  1  0
 23 45  1  0
 24 46  1  0
M  CHG  2   3   1  17   1
M  END
>  <UniqueID>  (7) 
7

>  <SMILES>  (7) 
CC[NH2+]c1ccc2c(c1)Nc1ccccc1[S@@+]2Cc1ccccc1

>  <Energy>  (7) 
49.641787119532374

>  <Genealogy>  (7) 
CC[NH2+]c1ccc2c(c1)Nc1ccccc1[S+]2Cc1ccccc1 (protonated)
CC[NH2+]c1ccc2c(c1)Nc1ccccc1[S@@+]2Cc1ccccc1 (chirality)
CC[NH2+]c1ccc2c(c1)Nc1ccccc1[S@@+]2Cc1ccccc1 (3D coordinates assigned)
CC[NH2+]c1ccc2c(c1)Nc1ccccc1[S@@+]2Cc1ccccc1 (nonaromatic ring conformer: 49.641787119532374 kcal/mol)

>  <smiles>  (7) 
CCNc1ccc2c(c1)Nc1ccccc1[S+]2Cc1ccccc1

>  <score_type>  (7) 
oracle

>  <origin>  (7) 
adg

>  <m_score__min__energy>  (7) 
-5.6200000000000001

>  <m_primary>  (7) 
energy

$$$$
7:0
     RDKit          3D

 28 29  0  0  0  0  0  0  0  0999 V2000
   58.4880   33.6440   47.2940 C   0  0  0  0  0  0  0  0  0  0  0  0
   57.4150   33.1480   46.3260 C   0  0  0  0  0  0  0  0  0  0  0  0
   57.6790   33.5940   44.9390 N   0  0  0  0  0  0  0  0  0  0  0  0
   58.8770   34.4510   44.8920 C   0  0  0  0  0  0  0  0  0  0  0  0
   57.7630   32.4890   43.9540 C   0  0  0  0  0  0  0  0  0  0  0  0
   57.2210   31.1810   44.4650 C   0  0  0  0  0  0  0  0  0  0  0  0
   55.9090   30.8760   44.4910 N   0  0  0  0  0  0  0  0  0  0  0  0
   55.8590   29.6720   44.9740 O   0  0  0  0  0  0  0  0  0  0  0  0
   57.0720   29.2510   45.2320 C   0  0  0  0  0  0  0  0  0  0  0  0
   57.3880   27.9300   45.7830 C   0  0  0  0  0  0  0  0  0  0  0  0
   58.6410   27.5100   46.2130 C   0  0  0  0  0  0  0  0  0  0  0  0
   58.6460   26.1960   46.6950 C   0  0  0  0  0  0  0  0  0  0  0  0
   57.3980   25.5900   46.6430 C   0  0  0  0  0  0  0  0  0  0  0  0
   56.9940   23.8150   47.2040 Br  0  0  0  0  0  0  0  0  0  0  0  0
   56.2870   26.6760   46.0000 S   0  0  0  0  0  0  0  0  0  0  0  0
   57.9980   30.1790   44.9240 N   0  0  0  0  0  0  0  0  0  0  0  0
   58.1491   33.4873   48.3287 H   0  0  0  0  0  0  0  0  0  0  0  0
   59.4206   33.0856   47.1251 H   0  0  0  0  0  0  0  0  0  0  0  0
   58.6669   34.7161   47.1251 H   0  0  0  0  0  0  0  0  0  0  0  0
   57.3952   32.0484   46.3490 H   0  0  0  0  0  0  0  0  0  0  0  0
   56.4483   33.5669   46.6423 H   0  0  0  0  0  0  0  0  0  0  0  0
   59.2020   34.6835   45.9169 H   0  0  0  0  0  0  0  0  0  0  0  0
   59.6842   33.9241   44.3620 H   0  0  0  0  0  0  0  0  0  0  0  0
   58.6391   35.3851   44.3620 H   0  0  0  0  0  0  0  0  0  0  0  0
   57.1906   32.7766   43.0597 H   0  0  0  0  0  0  0  0  0  0  0  0
   58.8299   32.3322   43.7367 H   0  0  0  0  0  0  0  0  0  0  0  0
   59.5379   28.1458   46.1781 H   0  0  0  0  0  0  0  0  0  0  0  0
   59.5475   25.6942   47.0764 H   0  0  0  0  0  0  0  0  0  0  0  0
  1  2  1  0
  2  3  1  0
  3  4  1  0
  3  5  1  0
  5  6  1  0
  6  7  2  0
  7  8  1  0
  8  9  1  0
  9 10  1  0
 10 11  2  0
 11 12  1  0
 12 13  2  0
 13 14  1  0
 13 15  1  0
  9 16  2  0
 16  6  1  0
 15 10  1  0
  1 17  1  0
  1 18  1  0
  1 19  1  0
  2 20  1  0
  2 21  1  0
  4 22  1  0
  4 23  1  0
  4 24  1  0
  5 25  1  0
  5 26  1  0
 11 27  1  0
 12 28  1  0
M  END
>  <UniqueID>  (8) 
8

>  <SMILES>  (8) 
CCN(C)Cc1noc(-c2ccc(Br)s2)n1

>  <Energy>  (8) 
86.74276278307514

>  <Genealogy>  (8) 
CCN(C)Cc1noc(-c2ccc(Br)s2)n1 (3D coordinates assigned)
CCN(C)Cc1noc(-c2ccc(Br)s2)n1 (optimized conformer: 86.74276278307514 kcal/mol)

>  <smiles>  (8) 
CCN(C)Cc1noc(-c2ccc(Br)s2)n1

>  <score_type>  (8) 
oracle

>  <origin>  (8) 
adg

>  <m_score__min__energy>  (8) 
-6.71

>  <m_primary>  (8) 
energy

$$$$
8:0
     RDKit          3D

 43 45  0  0  0  0  0  0  0  0999 V2000
   65.4450   32.7040   49.7170 C   0  0  0  0  0  0  0  0  0  0  0  0
   64.1920   33.3800   49.7010 O   0  0  0  0  0  0  0  0  0  0  0  0
   63.0700   32.9640   48.9650 C   0  0  0  0  0  0  0  0  0  0  0  0
   62.3790   33.8300   48.1040 C   0  0  0  0  0  0  0  0  0  0  0  0
   61.2620   33.3840   47.3830 C   0  0  0  0  0  0  0  0  0  0  0  0
   60.5980   34.2720   46.5360 C   0  0  0  0  0  0  0  0  0  0  0  0
   59.5070   33.8870   45.8130 N   0  0  0  0  0  0  0  0  0  0  0  0
   58.8730   34.8950   44.9450 C   0  0  0  0  0  0  0  0  0  0  0  0
   59.0250   32.5970   45.9020 C   0  0  0  0  0  0  0  0  0  0  0  0
   57.8930   32.1910   45.1550 C   0  0  0  0  0  0  0  0  0  0  0  0
   57.3910   30.8850   45.2330 C   0  0  0  0  0  0  0  0  0  0  0  0
   56.2690   30.4690   44.4980 O   0  0  0  0  0  0  0  0  0  0  0  0
   56.3010   30.0290   43.1440 C   0  0  0  0  0  0  0  0  0  0  0  0
   58.0130   29.9550   46.0650 C   0  0  0  0  0  0  0  0  0  0  0  0
   57.4800   28.6560   46.1160 O   0  0  0  0  0  0  0  0  0  0  0  0
   57.8200   27.5990   45.2240 C   0  0  0  0  0  0  0  0  0  0  0  0
   59.1380   30.3330   46.8150 C   0  0  0  0  0  0  0  0  0  0  0  0
   59.6650   31.6470   46.7540 C   0  0  0  0  0  0  0  0  0  0  0  0
   60.8060   32.0540   47.5080 C   0  0  0  0  0  0  0  0  0  0  0  0
   61.5160   31.1920   48.3820 C   0  0  0  0  0  0  0  0  0  0  0  0
   62.6370   31.6430   49.1060 C   0  0  0  0  0  0  0  0  0  0  0  0
   63.3540   30.8040   49.9760 O   0  0  0  0  0  0  0  0  0  0  0  0
   62.9210   30.4230   51.2790 C   0  0  0  0  0  0  0  0  0  0  0  0
   65.7574   32.5354   50.7581 H   0  0  0  0  0  0  0  0  0  0  0  0
   65.3464   31.7367   49.2026 H   0  0  0  0  0  0  0  0  0  0  0  0
   66.1993   33.3176   49.2026 H   0  0  0  0  0  0  0  0  0  0  0  0
   62.7174   34.8708   47.9933 H   0  0  0  0  0  0  0  0  0  0  0  0
   60.9625   35.3062   46.4492 H   0  0  0  0  0  0  0  0  0  0  0  0
   58.3900   35.6629   45.5671 H   0  0  0  0  0  0  0  0  0  0  0  0
   59.6381   35.3654   44.3100 H   0  0  0  0  0  0  0  0  0  0  0  0
   58.1176   34.4091   44.3100 H   0  0  0  0  0  0  0  0  0  0  0  0
   57.3952   32.9186   44.4971 H   0  0  0  0  0  0  0  0  0  0  0  0
   56.3808   28.9322   43.1167 H   0  0  0  0  0  0  0  0  0  0  0  0
   55.3777   30.3423   42.6347 H   0  0  0  0  0  0  0  0  0  0  0  0
   57.1693   30.4726   42.6347 H   0  0  0  0  0  0  0  0  0  0  0  0
   58.1064   26.7086   45.8029 H   0  0  0  0  0  0  0  0  0  0  0  0
   56.9531   27.3610   44.5901 H   0  0  0  0  0  0  0  0  0  0  0  0
   58.6631   27.9111   44.5901 H   0  0  0  0  0  0  0  0  0  0  0  0
   59.6225   29.5906   47.4663 H   0  0  0  0  0  0  0  0  0  0  0  0
   61.1844   30.1495   48.4970 H   0  0  0  0  0  0  0  0  0  0  0  0
   63.5215   30.9514   52.0341 H   0  0  0  0  0  0  0  0  0  0  0  0
   61.8603   30.6860   51.4044 H   0  0  0  0  0  0  0  0  0  0  0  0
   63.0469   29.3374   51.4044 H   0  0  0  0  0  0  0  0  0  0  0  0
  1  2  1  0
  2  3  1  0
  3  4  2  0
  4  5  1  0
  5  6  2  0
  6  7  1  0
  7  8  1  0
  7  9  2  0
  9 10  1  0
 10 11  2  0
 11 12  1  0
 12 13  1  0
 11 14  1  0
 14 15  1  0
 15 16  1  0
 14 17  2  0
 17 18  1  0
 18 19  2  0
 19 20  1  0
 20 21  2  0
 21 22  1  0
 22 23  1  0
 21  3  1  0
 19  5  1  0
 18  9  1  0
  1 24  1  0
  1 25  1  0
  1 26  1  0
  4 27  1  0
  6 28  1  0
  8 29  1  0
  8 30  1  0
  8 31  1  0
 10 32  1  0
 13 33  1  0
 13 34  1  0
 13 35  1  0
 16 36  1  0
 16 37  1  0
 16 38  1  0
 17 39  1  0
 20 40  1  0
 23 41  1  0
 23 42  1  0
 23 43  1  0
M  CHG  1   7   1
M  END
>  <UniqueID>  (9) 
9

>  <SMILES>  (9) 
COc1cc2c[n+](C)c3cc(OC)c(OC)cc3c2cc1OC

>  <Energy>  (9) 
59.690303761326554

>  <Genealogy>  (9) 
COc1cc2c[n+](C)c3cc(OC)c(OC)cc3c2cc1OC (3D coordinates assigned)
COc1cc2c[n+](C)c3cc(OC)c(OC)cc3c2cc1OC (optimized conformer: 59.690303761326554 kcal/mol)

>  <smiles>  (9) 
COc1cc2c[n+](C)c3cc(OC)c(OC)cc3c2cc1OC

>  <score_type>  (9) 
oracle

>  <origin>  (9) 
adg

>  <m_score__min__energy>  (9) 
-4.6600000000000001

>  <m_primary>  (9) 
energy

$$$$
9:0
     RDKit          3D

 41 43  0  0  0  0  0  0  0  0999 V2000
   59.3360   34.9420   47.6390 C   0  0  0  0  0  0  0  0  0  0  0  0
   59.6040   35.0220   46.1390 C   0  0  0  0  0  0  0  0  0  0  0  0
   60.4300   33.8270   45.6590 C   0  0  0  0  0  0  0  0  0  0  0  0
   60.7500   32.9480   46.7880 N   0  0  0  0  0  0  0  0  0  0  0  0
   60.0720   31.8430   47.2110 C   0  0  0  0  0  0  0  0  0  0  0  0
   58.8180   31.4060   46.6680 N   0  0  0  0  0  0  0  0  0  0  0  0
   57.7530   32.3690   46.3850 C   0  0  0  0  0  0  0  0  0  0  0  0
   57.1960   32.1070   44.9840 C   0  0  0  0  0  0  0  0  0  0  0  0
   56.8180   30.7490   44.8380 O   0  0  0  0  0  0  0  0  0  0  0  0
   57.9610   29.9160   44.9360 C   0  0  0  0  0  0  0  0  0  0  0  0
   58.5790   30.0020   46.3350 C   0  0  0  0  0  0  0  0  0  0  0  0
   60.7450   31.1390   48.1540 N   0  0  0  0  0  0  0  0  0  0  0  0
   61.8870   31.8230   48.3230 C   0  0  0  0  0  0  0  0  0  0  0  0
   62.9610   31.5050   49.1490 C   0  0  0  0  0  0  0  0  0  0  0  0
   64.0890   32.3540   49.1220 C   0  0  0  0  0  0  0  0  0  0  0  0
   65.2880   32.0360   49.9640 C   0  0  0  0  0  0  0  0  0  0  0  0
   64.1140   33.4650   48.2410 C   0  0  0  0  0  0  0  0  0  0  0  0
   63.0120   33.7520   47.4130 C   0  0  0  0  0  0  0  0  0  0  0  0
   61.9010   32.9090   47.4930 C   0  0  0  0  0  0  0  0  0  0  0  0
   60.2485   35.2144   48.1895 H   0  0  0  0  0  0  0  0  0  0  0  0
   58.5262   35.6376   47.9044 H   0  0  0  0  0  0  0  0  0  0  0  0
   59.0400   33.9164   47.9044 H   0  0  0  0  0  0  0  0  0  0  0  0
   58.6434   35.0324   45.6031 H   0  0  0  0  0  0  0  0  0  0  0  0
   60.1721   35.9417   45.9357 H   0  0  0  0  0  0  0  0  0  0  0  0
   59.8530   33.2630   44.9113 H   0  0  0  0  0  0  0  0  0  0  0  0
   61.3660   34.1933   45.2121 H   0  0  0  0  0  0  0  0  0  0  0  0
   56.9490   32.2569   47.1273 H   0  0  0  0  0  0  0  0  0  0  0  0
   58.1560   33.3912   46.4369 H   0  0  0  0  0  0  0  0  0  0  0  0
   56.3155   32.7459   44.8208 H   0  0  0  0  0  0  0  0  0  0  0  0
   57.9781   32.3364   44.2453 H   0  0  0  0  0  0  0  0  0  0  0  0
   57.6669   28.8752   44.7351 H   0  0  0  0  0  0  0  0  0  0  0  0
   58.7063   30.2524   44.2002 H   0  0  0  0  0  0  0  0  0  0  0  0
   57.8892   29.5615   47.0700 H   0  0  0  0  0  0  0  0  0  0  0  0
   59.5302   29.4498   46.3542 H   0  0  0  0  0  0  0  0  0  0  0  0
   60.4520   30.2540   48.6240 H   0  0  0  0  0  0  0  0  0  0  0  0
   62.9321   30.6204   49.8021 H   0  0  0  0  0  0  0  0  0  0  0  0
   65.0183   32.1075   51.0280 H   0  0  0  0  0  0  0  0  0  0  0  0
   65.6325   31.0154   49.7409 H   0  0  0  0  0  0  0  0  0  0  0  0
   66.0930   32.7517   49.7409 H   0  0  0  0  0  0  0  0  0  0  0  0
   65.0044   34.1098   48.2041 H   0  0  0  0  0  0  0  0  0  0  0  0
   63.0254   34.6111   46.7262 H   0  0  0  0  0  0  0  0  0  0  0  0
  1  2  1  0
  2  3  1  0
  3  4  1  0
  4  5  1  0
  5  6  1  0
  6  7  1  0
  7  8  1  0
  8  9  1  0
  9 10  1  0
 10 11  1  0
  5 12  2  0
 12 13  1  0
 13 14  2  0
 14 15  1  0
 15 16  1  0
 15 17  2  0
 17 18  1  0
 18 19  2  0
 19  4  1  0
 11  6  1  0
 19 13  1  0
  1 20  1  0
  1 21  1  0
  1 22  1  0
  2 23  1  0
  2 24  1  0
  3 25  1  0
  3 26  1  0
  7 27  1  0
  7 28  1  0
  8 29  1  0
  8 30  1  0
 10 31  1  0
 10 32  1  0
 11 33  1  0
 11 34  1  0
 12 35  1  0
 14 36  1  0
 16 37  1  0
 16 38  1  0
 16 39  1  0
 17 40  1  0
 18 41  1  0
M  CHG  1  12   1
M  END
>  <UniqueID>  (10) 
10

>  <SMILES>  (10) 
CCCn1c(N2CCOCC2)[nH+]c2cc(C)ccc21

>  <Energy>  (10) 
80.06539617900451

>  <Genealogy>  (10) 
CCCn1c(N2CCOCC2)[nH+]c2cc(C)ccc21 (protonated)
CCCn1c(N2CCOCC2)[nH+]c2cc(C)ccc21 (3D coordinates assigned)
CCCn1c(N2CCOCC2)[nH+]c2cc(C)ccc21 (nonaromatic ring conformer: 80.06539617900451 kcal/mol)

>  <smiles>  (10) 
CCCn1c(N2CCOCC2)nc2cc(C)ccc21

>  <score_type>  (10) 
oracle

>  <origin>  (10) 
adg

>  <m_score__min__energy>  (10) 
-4.8700000000000001

>  <m_primary>  (10) 
energy

$$$$
10:0
     RDKit          3D

 31 33  0  0  0  0  0  0  0  0999 V2000
   56.3220   23.9680   43.1410 N   0  0  0  0  0  0  0  0  0  0  0  0
   57.4190   24.1060   44.0970 C   0  0  0  0  0  0  0  0  0  0  0  0
   57.6730   25.5550   44.4220 C   0  0  0  0  0  0  0  0  0  0  0  0
   57.9450   26.4740   43.3970 C   0  0  0  0  0  0  0  0  0  0  0  0
   58.1490   27.8240   43.6950 C   0  0  0  0  0  0  0  0  0  0  0  0
   58.0740   28.2800   45.0220 C   0  0  0  0  0  0  0  0  0  0  0  0
   58.2830   29.6700   45.3290 N   0  0  0  0  0  0  0  0  0  0  0  0
   59.4270   30.2680   45.9500 C   0  0  0  0  0  0  0  0  0  0  0  0
   60.4290   29.6290   46.3680 O   0  0  0  0  0  0  0  0  0  0  0  0
   59.2310   31.7070   46.0750 C   0  0  0  0  0  0  0  0  0  0  0  0
   60.0560   32.6940   46.6110 C   0  0  0  0  0  0  0  0  0  0  0  0
   59.5920   34.0220   46.5980 C   0  0  0  0  0  0  0  0  0  0  0  0
   58.3250   34.3320   46.0570 C   0  0  0  0  0  0  0  0  0  0  0  0
   57.5100   33.3170   45.5250 C   0  0  0  0  0  0  0  0  0  0  0  0
   57.9920   32.0090   45.5500 C   0  0  0  0  0  0  0  0  0  0  0  0
   57.3940   30.7650   45.0820 C   0  0  0  0  0  0  0  0  0  0  0  0
   56.2800   30.6640   44.5020 O   0  0  0  0  0  0  0  0  0  0  0  0
   57.7880   27.3600   46.0440 C   0  0  0  0  0  0  0  0  0  0  0  0
   57.5840   26.0100   45.7460 C   0  0  0  0  0  0  0  0  0  0  0  0
   55.8880   24.9070   42.9880 H   0  0  0  0  0  0  0  0  0  0  0  0
   56.7120   23.6440   42.2260 H   0  0  0  0  0  0  0  0  0  0  0  0
   57.1596   23.5700   45.0219 H   0  0  0  0  0  0  0  0  0  0  0  0
   58.3299   23.6826   43.6486 H   0  0  0  0  0  0  0  0  0  0  0  0
   57.9979   26.1300   42.3535 H   0  0  0  0  0  0  0  0  0  0  0  0
   58.3699   28.5347   42.8850 H   0  0  0  0  0  0  0  0  0  0  0  0
   61.0407   32.4422   47.0317 H   0  0  0  0  0  0  0  0  0  0  0  0
   60.2204   34.8243   47.0120 H   0  0  0  0  0  0  0  0  0  0  0  0
   57.9733   35.3742   46.0517 H   0  0  0  0  0  0  0  0  0  0  0  0
   56.5214   33.5482   45.1016 H   0  0  0  0  0  0  0  0  0  0  0  0
   57.7241   27.7046   47.0867 H   0  0  0  0  0  0  0  0  0  0  0  0
   57.3524   25.3004   46.5539 H   0  0  0  0  0  0  0  0  0  0  0  0
  1  2  1  0
  2  3  1  0
  3  4  2  0
  4  5  1  0
  5  6  2  0
  6  7  1  0
  7  8  1  0
  8  9  2  0
  8 10  1  0
 10 11  2  0
 11 12  1  0
 12 13  2  0
 13 14  1  0
 14 15  2  0
 15 16  1  0
 16 17  2  0
  6 18  1  0
 18 19  2  0
 19  3  1  0
 16  7  1  0
 15 10  1  0
  1 20  1  0
  1 21  1  0
  2 22  1  0
  2 23  1  0
  4 24  1  0
  5 25  1  0
 11 26  1  0
 12 27  1  0
 13 28  1  0
 14 29  1  0
 18 30  1  0
 19 31  1  0
M  END
>  <UniqueID>  (11) 
11

>  <SMILES>  (11) 
NCc1ccc(N2C(=O)c3ccccc3C2=O)cc1

>  <Energy>  (11) 
69.17071338221237

>  <Genealogy>  (11) 
NCc1ccc(N2C(=O)c3ccccc3C2=O)cc1 (3D coordinates assigned)
NCc1ccc(N2C(=O)c3ccccc3C2=O)cc1 (nonaromatic ring conformer: 69.17071338221237 kcal/mol)

>  <smiles>  (11) 
NCc1ccc(N2C(=O)c3ccccc3C2=O)cc1

>  <score_type>  (11) 
oracle

>  <origin>  (11) 
adg

>  <m_score__min__energy>  (11) 
-6.9800000000000004

>  <m_primary>  (11) 
energy

$$$$
11:0
     RDKit          3D

 40 42  0  0  0  0  0  0  0  0999 V2000
   58.4780   34.5230   46.6590 C   0  0  0  0  0  0  0  0  0  0  0  0
   58.2020   33.3930   45.7120 C   0  0  0  0  0  0  0  0  0  0  0  0
   57.4210   33.5000   44.6220 N   0  0  0  0  0  0  0  0  0  0  0  0
   57.4360   32.3380   43.9860 N   0  0  0  0  0  0  0  0  0  0  0  0
   58.2310   31.5250   44.7110 C   0  0  0  0  0  0  0  0  0  0  0  0
   58.6700   29.8570   44.2050 S   0  0  0  0  0  0  0  0  0  0  0  0
   57.0740   29.5290   43.3790 C   0  0  0  0  0  0  0  0  0  0  0  0
   55.9760   29.4650   44.3900 C   0  0  0  0  0  0  0  0  0  0  0  0
   55.1700   30.4270   44.5030 O   0  0  0  0  0  0  0  0  0  0  0  0
   55.8590   28.3150   45.2350 N   0  0  0  0  0  0  0  0  0  0  0  0
   57.0110   27.5590   45.7120 C   0  0  0  0  0  0  0  0  0  0  0  0
   56.6010   26.1150   46.0120 C   0  0  2  0  0  0  0  0  0  0  0  0
   57.1250   25.1400   44.9710 C   0  0  0  0  0  0  0  0  0  0  0  0
   56.0810   24.0700   44.9810 C   0  0  0  0  0  0  0  0  0  0  0  0
   54.8310   24.8140   45.4060 C   0  0  0  0  0  0  0  0  0  0  0  0
   55.1950   26.0150   46.0560 O   0  0  0  0  0  0  0  0  0  0  0  0
   58.7020   32.1430   45.8190 N   0  0  0  0  0  0  0  0  0  0  0  0
   59.6770   31.6340   46.7850 C   0  0  0  0  0  0  0  0  0  0  0  0
   59.1640   31.5740   48.2160 C   0  0  0  0  0  0  0  0  0  0  0  0
   59.2940   30.2980   47.4070 C   0  0  0  0  0  0  0  0  0  0  0  0
   58.3901   34.1632   47.6948 H   0  0  0  0  0  0  0  0  0  0  0  0
   59.4956   34.9042   46.4884 H   0  0  0  0  0  0  0  0  0  0  0  0
   57.7507   35.3304   46.4884 H   0  0  0  0  0  0  0  0  0  0  0  0
   56.8970   34.3450   44.3020 H   0  0  0  0  0  0  0  0  0  0  0  0
   56.8624   30.3366   42.6627 H   0  0  0  0  0  0  0  0  0  0  0  0
   57.1334   28.5660   42.8507 H   0  0  0  0  0  0  0  0  0  0  0  0
   57.7943   27.5624   44.9397 H   0  0  0  0  0  0  0  0  0  0  0  0
   57.3930   28.0248   46.6324 H   0  0  0  0  0  0  0  0  0  0  0  0
   57.0410   25.8508   46.9850 H   0  0  0  0  0  0  0  0  0  0  0  0
   57.1986   25.6153   43.9817 H   0  0  0  0  0  0  0  0  0  0  0  0
   58.1378   24.7686   45.1863 H   0  0  0  0  0  0  0  0  0  0  0  0
   55.9575   23.6294   43.9807 H   0  0  0  0  0  0  0  0  0  0  0  0
   56.3302   23.2287   45.6444 H   0  0  0  0  0  0  0  0  0  0  0  0
   54.2236   25.0468   44.5190 H   0  0  0  0  0  0  0  0  0  0  0  0
   54.2477   24.1863   46.0957 H   0  0  0  0  0  0  0  0  0  0  0  0
   60.5729   32.0404   46.2929 H   0  0  0  0  0  0  0  0  0  0  0  0
   59.8501   31.7655   49.0542 H   0  0  0  0  0  0  0  0  0  0  0  0
   58.3492   32.0628   48.7703 H   0  0  0  0  0  0  0  0  0  0  0  0
   60.0744   29.5647   47.6584 H   0  0  0  0  0  0  0  0  0  0  0  0
   58.6129   29.4792   47.1319 H   0  0  0  0  0  0  0  0  0  0  0  0
  1  2  1  0
  2  3  2  0
  3  4  1  0
  4  5  2  0
  5  6  1  0
  6  7  1  0
  7  8  1  0
  8  9  2  0
  8 10  1  0
 10 11  1  0
 11 12  1  0
 12 13  1  0
 13 14  1  0
 14 15  1  0
 15 16  1  0
  5 17  1  0
 17 18  1  0
 18 19  1  0
 19 20  1  0
 17  2  1  0
 20 18  1  0
 16 12  1  0
  1 21  1  0
  1 22  1  0
  1 23  1  0
  3 24  1  0
  7 25  1  0
  7 26  1  0
 11 27  1  0
 11 28  1  0
 12 29  1  1
 13 30  1  0
 13 31  1  0
 14 32  1  0
 14 33  1  0
 15 34  1  0
 15 35  1  0
 18 36  1  0
 19 37  1  0
 19 38  1  0
 20 39  1  0
 20 40  1  0
M  CHG  2   3   1  10  -1
M  END
>  <UniqueID>  (12) 
12

>  <SMILES>  (12) 
Cc1[nH+]nc(SCC(=O)[N-]C[C@@H]2CCCO2)n1C1CC1

>  <Energy>  (12) 
329.7257221986786

>  <Genealogy>  (12) 
Cc1[nH+]nc(SCC(=O)[N-]CC2CCCO2)n1C1CC1 (protonated)
Cc1[nH+]nc(SCC(=O)[N-]C[C@@H]2CCCO2)n1C1CC1 (chirality)
Cc1[nH+]nc(SCC(=O)[N-]C[C@@H]2CCCO2)n1C1CC1 (3D coordinates assigned)
Cc1[nH+]nc(SCC(=O)[N-]C[C@@H]2CCCO2)n1C1CC1 (nonaromatic ring conformer: 329.7257221986786 kcal/mol)

>  <smiles>  (12) 
Cc1nnc(SCC(=O)NCC2CCCO2)n1C1CC1

>  <score_type>  (12) 
oracle

>  <origin>  (12) 
adg

>  <m_score__min__energy>  (12) 
-8.4900000000000002

>  <m_primary>  (12) 
energy

$$$$
12:0
     RDKit          3D

 41 43  0  0  0  0  0  0  0  0999 V2000
   59.6650   35.4660   46.0860 C   0  0  0  0  0  0  0  0  0  0  0  0
   59.8550   34.2120   45.2380 C   0  0  0  0  0  0  0  0  0  0  0  0
   59.5910   32.9990   46.0400 N   0  0  0  0  0  0  0  0  0  0  0  0
   58.3690   32.3680   45.9870 C   0  0  0  0  0  0  0  0  0  0  0  0
   57.0400   32.9420   44.9040 S   0  0  0  0  0  0  0  0  0  0  0  0
   57.2460   31.6090   43.6710 C   0  0  0  0  0  0  0  0  0  0  0  0
   56.3460   30.4460   43.9740 C   0  0  0  0  0  0  0  0  0  0  0  0
   55.5330   30.0540   43.0940 O   0  0  0  0  0  0  0  0  0  0  0  0
   56.4030   29.7460   45.2220 N   0  0  0  0  0  0  0  0  0  0  0  0
   56.6950   28.3250   45.3600 C   0  0  0  0  0  0  0  0  0  0  0  0
   58.1740   28.1310   45.4180 C   0  0  0  0  0  0  0  0  0  0  0  0
   59.1250   28.9150   44.7770 C   0  0  0  0  0  0  0  0  0  0  0  0
   60.4390   28.5390   45.0800 C   0  0  0  0  0  0  0  0  0  0  0  0
   60.5250   27.4760   45.9710 C   0  0  0  0  0  0  0  0  0  0  0  0
   58.9650   27.0040   46.3810 S   0  0  0  0  0  0  0  0  0  0  0  0
   58.1160   31.2870   46.7740 N   0  0  0  0  0  0  0  0  0  0  0  0
   59.0590   30.7840   47.6120 C   0  0  0  0  0  0  0  0  0  0  0  0
   58.7820   29.6520   48.3970 C   0  0  0  0  0  0  0  0  0  0  0  0
   59.7560   29.1380   49.2560 C   0  0  0  0  0  0  0  0  0  0  0  0
   61.0100   29.7500   49.3410 C   0  0  0  0  0  0  0  0  0  0  0  0
   61.2940   30.8770   48.5660 C   0  0  0  0  0  0  0  0  0  0  0  0
   60.3210   31.4010   47.6930 C   0  0  0  0  0  0  0  0  0  0  0  0
   60.5610   32.5320   46.8960 C   0  0  0  0  0  0  0  0  0  0  0  0
   61.6770   33.1210   46.9750 O   0  0  0  0  0  0  0  0  0  0  0  0
   59.7057   35.1974   47.1519 H   0  0  0  0  0  0  0  0  0  0  0  0
   60.4642   36.1869   45.8587 H   0  0  0  0  0  0  0  0  0  0  0  0
   58.6882   35.9178   45.8587 H   0  0  0  0  0  0  0  0  0  0  0  0
   59.1587   34.2418   44.3870 H   0  0  0  0  0  0  0  0  0  0  0  0
   60.8938   34.1807   44.8776 H   0  0  0  0  0  0  0  0  0  0  0  0
   57.0010   32.0020   42.6732 H   0  0  0  0  0  0  0  0  0  0  0  0
   58.2889   31.2608   43.7051 H   0  0  0  0  0  0  0  0  0  0  0  0
   56.2374   27.9435   46.2847 H   0  0  0  0  0  0  0  0  0  0  0  0
   56.2841   27.7780   44.4986 H   0  0  0  0  0  0  0  0  0  0  0  0
   58.8717   29.7453   44.1013 H   0  0  0  0  0  0  0  0  0  0  0  0
   61.3211   29.0384   44.6527 H   0  0  0  0  0  0  0  0  0  0  0  0
   61.4547   27.0215   46.3440 H   0  0  0  0  0  0  0  0  0  0  0  0
   57.1770   30.8330   46.7220 H   0  0  0  0  0  0  0  0  0  0  0  0
   57.7955   29.1694   48.3348 H   0  0  0  0  0  0  0  0  0  0  0  0
   59.5360   28.2500   49.8668 H   0  0  0  0  0  0  0  0  0  0  0  0
   61.7745   29.3434   50.0194 H   0  0  0  0  0  0  0  0  0  0  0  0
   62.2812   31.3569   48.6379 H   0  0  0  0  0  0  0  0  0  0  0  0
  1  2  1  0
  2  3  1  0
  3  4  1  0
  4  5  1  0
  5  6  1  0
  6  7  1  0
  7  8  2  0
  7  9  1  0
  9 10  1  0
 10 11  1  0
 11 12  2  0
 12 13  1  0
 13 14  2  0
 14 15  1  0
  4 16  2  0
 16 17  1  0
 17 18  2  0
 18 19  1  0
 19 20  2  0
 20 21  1  0
 21 22  2  0
 22 23  1  0
 23 24  2  0
 23  3  1  0
 15 11  1  0
 22 17  1  0
  1 25  1  0
  1 26  1  0
  1 27  1  0
  2 28  1  0
  2 29  1  0
  6 30  1  0
  6 31  1  0
 10 32  1  0
 10 33  1  0
 12 34  1  0
 13 35  1  0
 14 36  1  0
 16 37  1  0
 18 38  1  0
 19 39  1  0
 20 40  1  0
 21 41  1  0
M  CHG  2   9  -1  16   1
M  END
>  <UniqueID>  (13) 
13

>  <SMILES>  (13) 
CCn1c(SCC(=O)[N-]Cc2cccs2)[nH+]c2ccccc2c1=O

>  <Energy>  (13) 
66.87065716157623

>  <Genealogy>  (13) 
CCn1c(SCC(=O)[N-]Cc2cccs2)[nH+]c2ccccc2c1=O (protonated)
CCn1c(SCC(=O)[N-]Cc2cccs2)[nH+]c2ccccc2c1=O (3D coordinates assigned)
CCn1c(SCC(=O)[N-]Cc2cccs2)[nH+]c2ccccc2c1=O (optimized conformer: 66.87065716157623 kcal/mol)

>  <smiles>  (13) 
CCn1c(SCC(=O)NCc2cccs2)nc2ccccc2c1=O

>  <score_type>  (13) 
oracle

>  <origin>  (13) 
adg

>  <m_score__min__energy>  (13) 
-7.8799999999999999

>  <m_primary>  (13) 
energy

$$$$
13:0
     RDKit          3D

 49 52  0  0  0  0  0  0  0  0999 V2000
   54.9390   25.0080   45.6240 C   0  0  0  0  0  0  0  0  0  0  0  0
   55.1370   26.3760   45.9780 O   0  0  0  0  0  0  0  0  0  0  0  0
   56.3490   27.0740   45.8580 C   0  0  0  0  0  0  0  0  0  0  0  0
   56.3910   28.3480   45.2570 C   0  0  0  0  0  0  0  0  0  0  0  0
   57.6010   29.0450   45.1200 C   0  0  0  0  0  0  0  0  0  0  0  0
   57.6410   30.3730   44.4590 C   0  0  0  0  0  0  0  0  0  0  0  0
   57.2520   30.6750   43.1590 C   0  0  0  0  0  0  0  0  0  0  0  0
   57.4090   32.0030   42.9220 N   0  0  0  0  0  0  0  0  0  0  0  0
   57.8860   32.4770   44.0920 C   0  0  0  0  0  0  0  0  0  0  0  0
   58.1840   33.8000   44.3900 C   0  0  0  0  0  0  0  0  0  0  0  0
   58.6310   34.0860   45.6890 C   0  0  0  0  0  0  0  0  0  0  0  0
   58.7660   33.0420   46.6420 C   0  0  0  0  0  0  0  0  0  0  0  0
   59.2240   33.2870   47.9930 N   0  0  0  0  0  0  0  0  0  0  0  0
   60.1350   34.4060   48.2940 C   0  0  0  0  0  0  0  0  0  0  0  0
   60.8730   34.1810   49.6200 C   0  0  0  0  0  0  0  0  0  0  0  0
   59.9720   33.8130   50.6430 O   0  0  0  0  0  0  0  0  0  0  0  0
   59.4270   32.5430   50.3450 C   0  0  0  0  0  0  0  0  0  0  0  0
   58.5310   32.6170   49.1060 C   0  0  0  0  0  0  0  0  0  0  0  0
   58.4410   31.7700   46.2630 N   0  0  0  0  0  0  0  0  0  0  0  0
   58.0340   31.5290   45.0190 N   0  0  0  0  0  0  0  0  0  0  0  0
   58.7770   28.4720   45.6180 C   0  0  0  0  0  0  0  0  0  0  0  0
   58.7600   27.2030   46.2240 C   0  0  0  0  0  0  0  0  0  0  0  0
   59.9320   26.6000   46.7160 O   0  0  0  0  0  0  0  0  0  0  0  0
   60.5410   26.9100   47.9660 C   0  0  0  0  0  0  0  0  0  0  0  0
   57.5520   26.4980   46.3440 C   0  0  0  0  0  0  0  0  0  0  0  0
   57.6190   25.2320   46.9580 O   0  0  0  0  0  0  0  0  0  0  0  0
   58.0420   24.0150   46.3520 C   0  0  0  0  0  0  0  0  0  0  0  0
   54.8513   24.4018   46.5377 H   0  0  0  0  0  0  0  0  0  0  0  0
   54.0177   24.9124   45.0307 H   0  0  0  0  0  0  0  0  0  0  0  0
   55.7954   24.6551   45.0307 H   0  0  0  0  0  0  0  0  0  0  0  0
   55.4597   28.8035   44.8892 H   0  0  0  0  0  0  0  0  0  0  0  0
   56.8725   29.9450   42.4289 H   0  0  0  0  0  0  0  0  0  0  0  0
   58.0739   34.5937   43.6364 H   0  0  0  0  0  0  0  0  0  0  0  0
   58.8773   35.1207   45.9695 H   0  0  0  0  0  0  0  0  0  0  0  0
   60.8732   34.4953   47.4834 H   0  0  0  0  0  0  0  0  0  0  0  0
   59.5388   35.3264   48.3797 H   0  0  0  0  0  0  0  0  0  0  0  0
   61.6144   33.3793   49.4878 H   0  0  0  0  0  0  0  0  0  0  0  0
   61.3686   35.1194   49.9095 H   0  0  0  0  0  0  0  0  0  0  0  0
   60.2462   31.8335   50.1566 H   0  0  0  0  0  0  0  0  0  0  0  0
   58.8217   32.2079   51.2002 H   0  0  0  0  0  0  0  0  0  0  0  0
   58.2582   31.5969   48.7979 H   0  0  0  0  0  0  0  0  0  0  0  0
   57.6310   33.1970   49.3584 H   0  0  0  0  0  0  0  0  0  0  0  0
   59.7264   29.0212   45.5343 H   0  0  0  0  0  0  0  0  0  0  0  0
   59.8868   26.5770   48.7852 H   0  0  0  0  0  0  0  0  0  0  0  0
   61.5107   26.3958   48.0390 H   0  0  0  0  0  0  0  0  0  0  0  0
   60.6958   27.9966   48.0390 H   0  0  0  0  0  0  0  0  0  0  0  0
   58.2958   23.2847   47.1344 H   0  0  0  0  0  0  0  0  0  0  0  0
   57.2301   23.6152   45.7267 H   0  0  0  0  0  0  0  0  0  0  0  0
   58.9268   24.2049   45.7267 H   0  0  0  0  0  0  0  0  0  0  0  0
  1  2  1  0
  2  3  1  0
  3  4  2  0
  4  5  1  0
  5  6  1  0
  6  7  2  0
  7  8  1  0
  8  9  2  0
  9 10  1  0
 10 11  2  0
 11 12  1  0
 12 13  1  0
 13 14  1  0
 14 15  1  0
 15 16  1  0
 16 17  1  0
 17 18  1  0
 12 19  2  0
 19 20  1  0
  5 21  2  0
 21 22  1  0
 22 23  1  0
 23 24  1  0
 22 25  2  0
 25 26  1  0
 26 27  1  0
 25  3  1  0
 20  6  1  0
 20  9  1  0
 18 13  1  0
  1 28  1  0
  1 29  1  0
  1 30  1  0
  4 31  1  0
  7 32  1  0
 10 33  1  0
 11 34  1  0
 14 35  1  0
 14 36  1  0
 15 37  1  0
 15 38  1  0
 17 39  1  0
 17 40  1  0
 18 41  1  0
 18 42  1  0
 21 43  1  0
 24 44  1  0
 24 45  1  0
 24 46  1  0
 27 47  1  0
 27 48  1  0
 27 49  1  0
M  END
>  <UniqueID>  (14) 
14

>  <SMILES>  (14) 
COc1cc(-c2cnc3ccc(N4CCOCC4)nn23)cc(OC)c1OC

>  <Energy>  (14) 
97.16096904250338

>  <Genealogy>  (14) 
COc1cc(-c2cnc3ccc(N4CCOCC4)nn23)cc(OC)c1OC (3D coordinates assigned)
COc1cc(-c2cnc3ccc(N4CCOCC4)nn23)cc(OC)c1OC (nonaromatic ring conformer: 97.16096904250338 kcal/mol)

>  <smiles>  (14) 
COc1cc(-c2cnc3ccc(N4CCOCC4)nn23)cc(OC)c1OC

>  <score_type>  (14) 
oracle

>  <origin>  (14) 
adg

>  <m_score__min__energy>  (14) 
-7.0599999999999996

>  <m_primary>  (14) 
energy

$$$$
14:0
     RDKit          3D

 41 44  0  0  0  0  0  0  0  0999 V2000
   58.9390   34.9160   44.8760 C   0  0  0  0  0  0  0  0  0  0  0  0
   58.6280   33.5870   45.4020 N   0  0  0  0  0  0  0  0  0  0  0  0
   58.1690   32.5120   44.7110 C   0  0  0  0  0  0  0  0  0  0  0  0
   57.8330   32.4370   43.3550 C   0  0  0  0  0  0  0  0  0  0  0  0
   57.3870   31.2020   42.8510 C   0  0  0  0  0  0  0  0  0  0  0  0
   57.2920   30.0720   43.6940 C   0  0  0  0  0  0  0  0  0  0  0  0
   57.6440   30.1640   45.0520 C   0  0  0  0  0  0  0  0  0  0  0  0
   58.0790   31.4000   45.5270 C   0  0  0  0  0  0  0  0  0  0  0  0
   58.5150   31.7960   46.7710 C   0  0  0  0  0  0  0  0  0  0  0  0
   58.6750   31.0980   47.9590 C   0  0  0  0  0  0  0  0  0  0  0  0
   59.1950   31.8070   49.0550 C   0  0  0  0  0  0  0  0  0  0  0  0
   59.5270   33.1400   48.9440 N   0  0  0  0  0  0  0  0  0  0  0  0
   60.1040   33.8390   50.0980 C   0  0  0  0  0  0  0  0  0  0  0  0
   61.5140   33.3160   50.3830 C   0  0  0  0  0  0  0  0  0  0  0  0
   62.2720   33.1030   49.1020 C   0  0  0  0  0  0  0  0  0  0  0  0
   62.5870   31.8030   48.6710 C   0  0  0  0  0  0  0  0  0  0  0  0
   63.3200   31.6090   47.4960 C   0  0  0  0  0  0  0  0  0  0  0  0
   63.7520   32.7090   46.7490 C   0  0  0  0  0  0  0  0  0  0  0  0
   63.4550   34.0060   47.1780 C   0  0  0  0  0  0  0  0  0  0  0  0
   62.7220   34.2040   48.3530 C   0  0  0  0  0  0  0  0  0  0  0  0
   59.3760   33.8100   47.7550 C   0  0  0  0  0  0  0  0  0  0  0  0
   58.8520   33.1250   46.6580 C   0  0  0  0  0  0  0  0  0  0  0  0
   59.1019   35.6123   45.7119 H   0  0  0  0  0  0  0  0  0  0  0  0
   59.8490   34.8629   44.2603 H   0  0  0  0  0  0  0  0  0  0  0  0
   58.1000   35.2722   44.2603 H   0  0  0  0  0  0  0  0  0  0  0  0
   57.9152   33.3183   42.7020 H   0  0  0  0  0  0  0  0  0  0  0  0
   57.1094   31.1149   41.7902 H   0  0  0  0  0  0  0  0  0  0  0  0
   56.9401   29.1135   43.2848 H   0  0  0  0  0  0  0  0  0  0  0  0
   57.5783   29.2902   45.7170 H   0  0  0  0  0  0  0  0  0  0  0  0
   58.4062   30.0344   48.0397 H   0  0  0  0  0  0  0  0  0  0  0  0
   59.3392   31.2907   50.0155 H   0  0  0  0  0  0  0  0  0  0  0  0
   60.1530   34.9166   49.8826 H   0  0  0  0  0  0  0  0  0  0  0  0
   59.4703   33.6601   50.9791 H   0  0  0  0  0  0  0  0  0  0  0  0
   62.0520   34.0481   51.0032 H   0  0  0  0  0  0  0  0  0  0  0  0
   61.4340   32.3539   50.9102 H   0  0  0  0  0  0  0  0  0  0  0  0
   62.2558   30.9350   49.2600 H   0  0  0  0  0  0  0  0  0  0  0  0
   63.5571   30.5891   47.1589 H   0  0  0  0  0  0  0  0  0  0  0  0
   64.3258   32.5539   45.8234 H   0  0  0  0  0  0  0  0  0  0  0  0
   63.7978   34.8711   46.5915 H   0  0  0  0  0  0  0  0  0  0  0  0
   62.4968   35.2259   48.6922 H   0  0  0  0  0  0  0  0  0  0  0  0
   59.6631   34.8684   47.6687 H   0  0  0  0  0  0  0  0  0  0  0  0
  1  2  1  0
  2  3  1  0
  3  4  2  0
  4  5  1  0
  5  6  2  0
  6  7  1  0
  7  8  2  0
  8  9  1  0
  9 10  2  0
 10 11  1  0
 11 12  2  0
 12 13  1  0
 13 14  1  0
 14 15  1  0
 15 16  2  0
 16 17  1  0
 17 18  2  0
 18 19  1  0
 19 20  2  0
 12 21  1  0
 21 22  2  0
 22  2  1  0
  8  3  1  0
 22  9  1  0
 20 15  1  0
  1 23  1  0
  1 24  1  0
  1 25  1  0
  4 26  1  0
  5 27  1  0
  6 28  1  0
  7 29  1  0
 10 30  1  0
 11 31  1  0
 13 32  1  0
 13 33  1  0
 14 34  1  0
 14 35  1  0
 16 36  1  0
 17 37  1  0
 18 38  1  0
 19 39  1  0
 20 40  1  0
 21 41  1  0
M  CHG  1  12   1
M  END
>  <UniqueID>  (15) 
15

>  <SMILES>  (15) 
Cn1c2ccccc2c2cc[n+](CCc3ccccc3)cc21

>  <Energy>  (15) 
85.41940816314886

>  <Genealogy>  (15) 
Cn1c2ccccc2c2cc[n+](CCc3ccccc3)cc21 (3D coordinates assigned)
Cn1c2ccccc2c2cc[n+](CCc3ccccc3)cc21 (optimized conformer: 85.41940816314886 kcal/mol)

>  <smiles>  (15) 
Cn1c2ccccc2c2cc[n+](CCc3ccccc3)cc21

>  <score_type>  (15) 
oracle

>  <origin>  (15) 
adg

>  <m_score__min__energy>  (15) 
-5.9500000000000002

>  <m_primary>  (15) 
energy

$$$$
15:0
     RDKit          3D

 47 48  0  0  0  0  0  0  0  0999 V2000
   64.2280   33.3530   50.3920 C   0  0  0  0  0  0  0  0  0  0  0  0
   64.4810   32.7180   49.0300 C   0  0  0  0  0  0  0  0  0  0  0  0
   63.4400   33.1520   48.0480 C   0  0  0  0  0  0  0  0  0  0  0  0
   62.1180   33.1430   48.2850 N   0  0  0  0  0  0  0  0  0  0  0  0
   61.6100   33.5800   47.1140 C   0  0  0  0  0  0  0  0  0  0  0  0
   60.2030   33.7470   46.8510 N   0  0  0  0  0  0  0  0  0  0  0  0
   59.7160   34.9360   46.1390 C   0  0  0  0  0  0  0  0  0  0  0  0
   58.5670   34.5940   45.1620 C   0  0  0  0  0  0  0  0  0  0  0  0
   57.8090   33.3650   45.5080 N   0  0  0  0  0  0  0  0  0  0  0  0
   58.2380   32.2050   44.6870 C   0  0  0  0  0  0  0  0  0  0  0  0
   57.0610   31.5140   43.9810 C   0  0  0  0  0  0  0  0  0  0  0  0
   56.4030   30.6140   44.8540 O   0  0  0  0  0  0  0  0  0  0  0  0
   56.2620   29.3440   44.2480 C   0  0  0  0  0  0  0  0  0  0  0  0
   57.2710   28.3640   44.8670 C   0  0  0  0  0  0  0  0  0  0  0  0
   58.1610   27.7510   43.7800 C   0  0  0  0  0  0  0  0  0  0  0  0
   58.1340   29.0560   45.9310 C   0  0  0  0  0  0  0  0  0  0  0  0
   57.8170   33.1070   46.9640 C   0  0  0  0  0  0  0  0  0  0  0  0
   59.2350   32.8430   47.4830 C   0  0  0  0  0  0  0  0  0  0  0  0
   62.5820   33.8360   46.2130 N   0  0  0  0  0  0  0  0  0  0  0  0
   63.6940   33.5570   46.8260 O   0  0  0  0  0  0  0  0  0  0  0  0
   64.5102   32.6447   51.1849 H   0  0  0  0  0  0  0  0  0  0  0  0
   64.8299   34.2688   50.4871 H   0  0  0  0  0  0  0  0  0  0  0  0
   63.1612   33.6039   50.4871 H   0  0  0  0  0  0  0  0  0  0  0  0
   65.4725   33.0253   48.6659 H   0  0  0  0  0  0  0  0  0  0  0  0
   64.4375   31.6238   49.1341 H   0  0  0  0  0  0  0  0  0  0  0  0
   61.6220   32.8630   49.1600 H   0  0  0  0  0  0  0  0  0  0  0  0
   59.3506   35.6666   46.8757 H   0  0  0  0  0  0  0  0  0  0  0  0
   60.5507   35.3472   45.5524 H   0  0  0  0  0  0  0  0  0  0  0  0
   57.8634   35.4395   45.1499 H   0  0  0  0  0  0  0  0  0  0  0  0
   59.0337   34.4083   44.1834 H   0  0  0  0  0  0  0  0  0  0  0  0
   58.9490   32.5564   43.9248 H   0  0  0  0  0  0  0  0  0  0  0  0
   58.6991   31.4701   45.3633 H   0  0  0  0  0  0  0  0  0  0  0  0
   56.3444   32.2780   43.6451 H   0  0  0  0  0  0  0  0  0  0  0  0
   57.4511   30.9474   43.1226 H   0  0  0  0  0  0  0  0  0  0  0  0
   55.2405   28.9708   44.4129 H   0  0  0  0  0  0  0  0  0  0  0  0
   56.4518   29.4309   43.1680 H   0  0  0  0  0  0  0  0  0  0  0  0
   56.7027   27.5593   45.3563 H   0  0  0  0  0  0  0  0  0  0  0  0
   58.9796   27.1872   44.2512 H   0  0  0  0  0  0  0  0  0  0  0  0
   57.5616   27.0733   43.1544 H   0  0  0  0  0  0  0  0  0  0  0  0
   58.5805   28.5526   43.1544 H   0  0  0  0  0  0  0  0  0  0  0  0
   57.7793   28.7716   46.9326 H   0  0  0  0  0  0  0  0  0  0  0  0
   59.1825   28.7455   45.8115 H   0  0  0  0  0  0  0  0  0  0  0  0
   58.0588   30.1469   45.8115 H   0  0  0  0  0  0  0  0  0  0  0  0
   57.4041   33.9839   47.4841 H   0  0  0  0  0  0  0  0  0  0  0  0
   57.2077   32.2120   47.1580 H   0  0  0  0  0  0  0  0  0  0  0  0
   59.2545   32.9992   48.5717 H   0  0  0  0  0  0  0  0  0  0  0  0
   59.5109   31.8069   47.2374 H   0  0  0  0  0  0  0  0  0  0  0  0
  1  2  1  0
  2  3  1  0
  3  4  2  0
  4  5  1  0
  5  6  1  0
  6  7  1  0
  7  8  1  0
  8  9  1  0
  9 10  1  0
 10 11  1  0
 11 12  1  0
 12 13  1  0
 13 14  1  0
 14 15  1  0
 14 16  1  0
  9 17  1  0
 17 18  1  0
  5 19  2  0
 19 20  1  0
 20  3  1  0
 18  6  1  0
  1 21  1  0
  1 22  1  0
  1 23  1  0
  2 24  1  0
  2 25  1  0
  4 26  1  0
  7 27  1  0
  7 28  1  0
  8 29  1  0
  8 30  1  0
 10 31  1  0
 10 32  1  0
 11 33  1  0
 11 34  1  0
 13 35  1  0
 13 36  1  0
 14 37  1  0
 15 38  1  0
 15 39  1  0
 15 40  1  0
 16 41  1  0
 16 42  1  0
 16 43  1  0
 17 44  1  0
 17 45  1  0
 18 46  1  0
 18 47  1  0
M  CHG  1   4   1
M  END
>  <UniqueID>  (16) 
16

>  <SMILES>  (16) 
CCc1[nH+]c(N2CCN(CCOCC(C)C)CC2)no1

>  <Energy>  (16) 
80.40969173591395

>  <Genealogy>  (16) 
CCc1[nH+]c(N2CCN(CCOCC(C)C)CC2)no1 (protonated)
CCc1[nH+]c(N2CCN(CCOCC(C)C)CC2)no1 (3D coordinates assigned)
CCc1[nH+]c(N2CCN(CCOCC(C)C)CC2)no1 (nonaromatic ring conformer: 80.40969173591395 kcal/mol)

>  <smiles>  (16) 
CCc1nc(N2CCN(CCOCC(C)C)CC2)no1

>  <score_type>  (16) 
oracle

>  <origin>  (16) 
adg

>  <m_score__min__energy>  (16) 
-5.6200000000000001

>  <m_primary>  (16) 
energy

$$$$
16:0
     RDKit          3D

 59 62  0  0  0  0  0  0  0  0999 V2000
   62.6890   34.5630   49.7560 C   0  0  0  0  0  0  0  0  0  0  0  0
   63.5470   33.7700   48.7570 C   0  0  0  0  0  0  0  0  0  0  0  0
   62.7830   33.1290   47.6570 N   0  0  0  0  0  0  0  0  0  0  0  0
   62.9720   33.8050   46.3640 C   0  0  0  0  0  0  0  0  0  0  0  0
   63.0020   31.6690   47.5510 C   0  0  0  0  0  0  0  0  0  0  0  0
   61.8990   30.9070   48.3010 C   0  0  0  0  0  0  0  0  0  0  0  0
   61.1470   31.7990   49.2950 C   0  0  0  0  0  0  0  0  0  0  0  0
   59.7150   31.8510   48.9880 N   0  0  0  0  0  0  0  0  0  0  0  0
   59.2350   31.7730   47.6320 C   0  0  0  0  0  0  0  0  0  0  0  0
   59.1970   32.9260   46.8270 C   0  0  0  0  0  0  0  0  0  0  0  0
   59.5950   34.1810   47.3370 C   0  0  0  0  0  0  0  0  0  0  0  0
   59.6370   35.3040   46.5180 C   0  0  0  0  0  0  0  0  0  0  0  0
   59.2940   35.1990   45.1750 C   0  0  0  0  0  0  0  0  0  0  0  0
   58.8740   33.9760   44.6530 C   0  0  0  0  0  0  0  0  0  0  0  0
   58.7780   32.8220   45.4730 C   0  0  0  0  0  0  0  0  0  0  0  0
   58.3100   31.6180   44.9800 N   0  0  0  0  0  0  0  0  0  0  0  0
   57.6110   31.5750   43.6760 C   0  0  0  0  0  0  0  0  0  0  0  0
   58.4530   30.4610   45.7250 C   0  0  0  0  0  0  0  0  0  0  0  0
   58.2110   29.1800   45.1660 C   0  0  0  0  0  0  0  0  0  0  0  0
   58.2640   28.0150   45.9470 C   0  0  0  0  0  0  0  0  0  0  0  0
   57.9890   26.6850   45.3430 C   0  0  0  0  0  0  0  0  0  0  0  0
   57.9380   25.5300   46.1470 C   0  0  0  0  0  0  0  0  0  0  0  0
   57.6780   24.2810   45.5760 C   0  0  0  0  0  0  0  0  0  0  0  0
   57.4670   24.1690   44.2000 C   0  0  0  0  0  0  0  0  0  0  0  0
   57.5150   25.3070   43.3920 C   0  0  0  0  0  0  0  0  0  0  0  0
   57.7750   26.5590   43.9570 C   0  0  0  0  0  0  0  0  0  0  0  0
   58.5770   28.1230   47.3060 C   0  0  0  0  0  0  0  0  0  0  0  0
   58.8740   29.3610   47.8660 C   0  0  0  0  0  0  0  0  0  0  0  0
   58.8620   30.5330   47.0820 C   0  0  0  0  0  0  0  0  0  0  0  0
   62.9793   34.2947   50.7825 H   0  0  0  0  0  0  0  0  0  0  0  0
   62.8465   35.6405   49.6002 H   0  0  0  0  0  0  0  0  0  0  0  0
   61.6273   34.3213   49.6002 H   0  0  0  0  0  0  0  0  0  0  0  0
   64.2783   34.4595   48.3101 H   0  0  0  0  0  0  0  0  0  0  0  0
   64.0150   32.9542   49.3275 H   0  0  0  0  0  0  0  0  0  0  0  0
   63.2645   34.8513   46.5365 H   0  0  0  0  0  0  0  0  0  0  0  0
   63.7614   33.2927   45.7944 H   0  0  0  0  0  0  0  0  0  0  0  0
   62.0314   33.7764   45.7944 H   0  0  0  0  0  0  0  0  0  0  0  0
   62.9882   31.3763   46.4907 H   0  0  0  0  0  0  0  0  0  0  0  0
   63.9755   31.4205   47.9987 H   0  0  0  0  0  0  0  0  0  0  0  0
   61.1810   30.5116   47.5674 H   0  0  0  0  0  0  0  0  0  0  0  0
   62.3781   30.0977   48.8715 H   0  0  0  0  0  0  0  0  0  0  0  0
   61.2812   31.3965   50.3099 H   0  0  0  0  0  0  0  0  0  0  0  0
   61.5542   32.8183   49.2228 H   0  0  0  0  0  0  0  0  0  0  0  0
   59.0560   32.1690   49.7340 H   0  0  0  0  0  0  0  0  0  0  0  0
   59.8757   34.2716   48.3967 H   0  0  0  0  0  0  0  0  0  0  0  0
   59.9418   36.2760   46.9331 H   0  0  0  0  0  0  0  0  0  0  0  0
   59.3540   36.0826   44.5226 H   0  0  0  0  0  0  0  0  0  0  0  0
   58.6126   33.9047   43.5869 H   0  0  0  0  0  0  0  0  0  0  0  0
   56.5259   31.5083   43.8437 H   0  0  0  0  0  0  0  0  0  0  0  0
   57.8387   32.4888   43.1076 H   0  0  0  0  0  0  0  0  0  0  0  0
   57.9490   30.6959   43.1076 H   0  0  0  0  0  0  0  0  0  0  0  0
   57.9761   29.0976   44.0945 H   0  0  0  0  0  0  0  0  0  0  0  0
   58.1038   25.6113   47.2314 H   0  0  0  0  0  0  0  0  0  0  0  0
   57.6395   23.3842   46.2119 H   0  0  0  0  0  0  0  0  0  0  0  0
   57.2631   23.1849   43.7529 H   0  0  0  0  0  0  0  0  0  0  0  0
   57.3478   25.2180   42.3084 H   0  0  0  0  0  0  0  0  0  0  0  0
   57.8126   27.4513   43.3148 H   0  0  0  0  0  0  0  0  0  0  0  0
   58.5883   27.2219   47.9367 H   0  0  0  0  0  0  0  0  0  0  0  0
   59.1218   29.4268   48.9357 H   0  0  0  0  0  0  0  0  0  0  0  0
  1  2  1  0
  2  3  1  0
  3  4  1  0
  3  5  1  0
  5  6  1  0
  6  7  1  0
  7  8  1  0
  8  9  1  0
  9 10  2  0
 10 11  1  0
 11 12  2  0
 12 13  1  0
 13 14  2  0
 14 15  1  0
 15 16  2  0
 16 17  1  0
 16 18  1  0
 18 19  2  0
 19 20  1  0
 20 21  1  0
 21 22  2  0
 22 23  1  0
 23 24  2  0
 24 25  1  0
 25 26  2  0
 20 27  2  0
 27 28  1  0
 28 29  2  0
 29  9  1  0
 15 10  1  0
 29 18  1  0
 26 21  1  0
  1 30  1  0
  1 31  1  0
  1 32  1  0
  2 33  1  0
  2 34  1  0
  4 35  1  0
  4 36  1  0
  4 37  1  0
  5 38  1  0
  5 39  1  0
  6 40  1  0
  6 41  1  0
  7 42  1  0
  7 43  1  0
  8 44  1  0
 11 45  1  0
 12 46  1  0
 13 47  1  0
 14 48  1  0
 17 49  1  0
 17 50  1  0
 17 51  1  0
 19 52  1  0
 22 53  1  0
 23 54  1  0
 24 55  1  0
 25 56  1  0
 26 57  1  0
 27 58  1  0
 28 59  1  0
M  CHG  1  16   1
M  END
>  <UniqueID>  (17) 
17

>  <SMILES>  (17) 
CCN(C)CCCNc1c2ccccc2[n+](C)c2cc(-c3ccccc3)ccc12

>  <Energy>  (17) 
92.630857154507

>  <Genealogy>  (17) 
CCN(C)CCCNc1c2ccccc2[n+](C)c2cc(-c3ccccc3)ccc12 (3D coordinates assigned)
CCN(C)CCCNc1c2ccccc2[n+](C)c2cc(-c3ccccc3)ccc12 (optimized conformer: 92.630857154507 kcal/mol)

>  <smiles>  (17) 
CCN(C)CCCNc1c2ccccc2[n+](C)c2cc(-c3ccccc3)ccc12

>  <score_type>  (17) 
oracle

>  <origin>  (17) 
adg

>  <m_score__min__energy>  (17) 
-6.8899999999999997

>  <m_primary>  (17) 
energy

$$$$
17:0
     RDKit          3D

 69 71  0  0  0  0  0  0  0  0999 V2000
   55.8310   22.7370   46.9950 H   0  0  0  0  0  0  0  0  0  0  0  0
   56.3750   23.6480   46.7050 C   0  0  0  0  0  0  0  0  0  0  0  0
   57.7720   23.6550   46.7030 C   0  0  0  0  0  0  0  0  0  0  0  0
   58.3258   22.7504   46.9945 H   0  0  0  0  0  0  0  0  0  0  0  0
   58.4680   24.8100   46.3310 C   0  0  0  0  0  0  0  0  0  0  0  0
   59.5680   24.8059   46.3241 H   0  0  0  0  0  0  0  0  0  0  0  0
   57.7690   25.9820   45.9640 C   0  0  0  0  0  0  0  0  0  0  0  0
   58.4340   27.1720   45.5940 C   0  0  0  0  0  0  0  0  0  0  0  0
   59.7420   27.1800   45.5410 N   0  0  0  0  0  0  0  0  0  0  0  0
   60.6960   27.4530   46.6190 C   0  0  0  0  0  0  0  0  0  0  0  0
   61.3831   26.5996   46.7165 H   0  0  0  0  0  0  0  0  0  0  0  0
   61.2531   28.3687   46.3716 H   0  0  0  0  0  0  0  0  0  0  0  0
   59.9660   27.6680   47.9580 C   0  0  0  0  0  0  0  0  0  0  0  0
   58.8973   27.4445   47.8239 H   0  0  0  0  0  0  0  0  0  0  0  0
   60.4112   26.9985   48.7087 H   0  0  0  0  0  0  0  0  0  0  0  0
   60.1120   29.0650   48.4300 N   0  0  0  0  0  0  0  0  0  0  0  0
   61.1460   29.7960   47.6440 C   0  0  0  0  0  0  0  0  0  0  0  0
   62.1275   29.6364   48.1144 H   0  0  0  0  0  0  0  0  0  0  0  0
   61.1277   29.4061   46.6156 H   0  0  0  0  0  0  0  0  0  0  0  0
   60.8650   31.3110   47.5820 C   0  0  0  0  0  0  0  0  0  0  0  0
   60.9089   31.7137   48.6047 H   0  0  0  0  0  0  0  0  0  0  0  0
   61.6275   31.7507   46.9223 H   0  0  0  0  0  0  0  0  0  0  0  0
   59.5950   31.6400   47.0240 O   0  0  0  0  0  0  0  0  0  0  0  0
   58.6210   30.6150   47.1710 C   0  0  0  0  0  0  0  0  0  0  0  0
   57.6249   31.0805   47.2046 H   0  0  0  0  0  0  0  0  0  0  0  0
   58.7283   29.9345   46.3134 H   0  0  0  0  0  0  0  0  0  0  0  0
   58.8140   29.7800   48.4460 C   0  0  0  0  0  0  0  0  0  0  0  0
   58.7834   30.4477   49.3196 H   0  0  0  0  0  0  0  0  0  0  0  0
   58.0073   29.0340   48.4979 H   0  0  0  0  0  0  0  0  0  0  0  0
   57.6650   28.3130   45.2870 C   0  0  0  0  0  0  0  0  0  0  0  0
   58.1637   29.2671   45.0613 H   0  0  0  0  0  0  0  0  0  0  0  0
   56.2630   28.2330   45.2690 C   0  0  0  0  0  0  0  0  0  0  0  0
   55.4440   29.3430   44.8690 N   0  0  0  0  0  0  0  0  0  0  0  0
   54.4060   29.2160   44.9050 H   0  0  0  0  0  0  0  0  0  0  0  0
   55.9460   30.5800   44.2640 C   0  0  0  0  0  0  0  0  0  0  0  0
   56.8372   30.9096   44.8182 H   0  0  0  0  0  0  0  0  0  0  0  0
   55.1442   31.3314   44.3144 H   0  0  0  0  0  0  0  0  0  0  0  0
   56.3240   30.3890   42.7850 C   0  0  0  0  0  0  0  0  0  0  0  0
   55.4346   30.5832   42.1675 H   0  0  0  0  0  0  0  0  0  0  0  0
   56.6865   29.3571   42.6676 H   0  0  0  0  0  0  0  0  0  0  0  0
   57.4510   31.3280   42.3300 C   0  0  0  0  0  0  0  0  0  0  0  0
   57.0153   32.2855   42.0086 H   0  0  0  0  0  0  0  0  0  0  0  0
   57.9902   30.8545   41.4963 H   0  0  0  0  0  0  0  0  0  0  0  0
   58.4400   31.5840   43.4740 C   0  0  0  0  0  0  0  0  0  0  0  0
   59.4164   31.1542   43.2059 H   0  0  0  0  0  0  0  0  0  0  0  0
   58.0437   31.1137   44.3860 H   0  0  0  0  0  0  0  0  0  0  0  0
   58.6120   33.0900   43.7410 C   0  0  0  0  0  0  0  0  0  0  0  0
   57.7033   33.6145   43.4106 H   0  0  0  0  0  0  0  0  0  0  0  0
   59.4967   33.4329   43.1844 H   0  0  0  0  0  0  0  0  0  0  0  0
   58.8380   33.3840   45.1880 N   0  0  0  0  0  0  0  0  0  0  0  0
   59.2450   32.5390   45.6560 H   0  0  0  0  0  0  0  0  0  0  0  0
   57.5820   33.7230   45.9060 C   0  0  0  0  0  0  0  0  0  0  0  0
   57.8390   34.2611   46.8304 H   0  0  0  0  0  0  0  0  0  0  0  0
   57.0549   32.7810   46.1177 H   0  0  0  0  0  0  0  0  0  0  0  0
   56.6450   34.6010   45.0720 C   0  0  0  0  0  0  0  0  0  0  0  0
   56.0084   35.1975   45.7420 H   0  0  0  0  0  0  0  0  0  0  0  0
   57.2408   35.2735   44.4374 H   0  0  0  0  0  0  0  0  0  0  0  0
   56.0126   33.9628   44.4374 H   0  0  0  0  0  0  0  0  0  0  0  0
   59.8620   34.4450   45.3780 C   0  0  0  0  0  0  0  0  0  0  0  0
   60.7823   34.1328   44.8627 H   0  0  0  0  0  0  0  0  0  0  0  0
   59.4375   35.3724   44.9660 H   0  0  0  0  0  0  0  0  0  0  0  0
   60.2060   34.7310   46.8500 C   0  0  0  0  0  0  0  0  0  0  0  0
   59.5250   34.1648   47.5024 H   0  0  0  0  0  0  0  0  0  0  0  0
   61.2437   34.4257   47.0500 H   0  0  0  0  0  0  0  0  0  0  0  0
   60.0953   35.8070   47.0500 H   0  0  0  0  0  0  0  0  0  0  0  0
   55.6550   27.0710   45.6240 N   0  0  0  0  0  0  0  0  0  0  0  0
   56.3530   25.9620   45.9760 C   0  0  0  0  0  0  0  0  0  0  0  0
   55.6670   24.7970   46.3390 C   0  0  0  0  0  0  0  0  0  0  0  0
   54.5671   24.7853   46.3363 H   0  0  0  0  0  0  0  0  0  0  0  0
  1  2  1  0
  2  3  2  0
  3  4  1  0
  3  5  1  0
  5  6  1  0
  5  7  2  0
  7  8  1  0
  8  9  2  0
  9 10  1  0
 10 11  1  0
 10 12  1  0
 10 13  1  0
 13 14  1  0
 13 15  1  0
 13 16  1  0
 16 17  1  0
 17 18  1  0
 17 19  1  0
 17 20  1  0
 20 21  1  0
 20 22  1  0
 20 23  1  0
 23 24  1  0
 24 25  1  0
 24 26  1  0
 24 27  1  0
 27 28  1  0
 27 29  1  0
  8 30  1  0
 30 31  1  0
 30 32  2  0
 32 33  1  0
 33 34  1  0
 33 35  1  0
 35 36  1  0
 35 37  1  0
 35 38  1  0
 38 39  1  0
 38 40  1  0
 38 41  1  0
 41 42  1  0
 41 43  1  0
 41 44  1  0
 44 45  1  0
 44 46  1  0
 44 47  1  0
 47 48  1  0
 47 49  1  0
 47 50  1  0
 50 51  1  0
 50 52  1  0
 52 53  1  0
 52 54  1  0
 52 55  1  0
 55 56  1  0
 55 57  1  0
 55 58  1  0
 50 59  1  0
 59 60  1  0
 59 61  1  0
 59 62  1  0
 62 63  1  0
 62 64  1  0
 62 65  1  0
 32 66  1  0
 66 67  1  0
 67 68  2  0
 68 69  1  0
 68  2  1  0
 67  7  1  0
 27 16  1  0
M  CHG  2  50   1  66  -1
M  END
>  <UniqueID>  (18) 
18

>  <SMILES>  (18) 
CC[NH+](CC)CCCCCNc1c/c(=N\CCN2CCOCC2)c2ccccc2[n-]1

>  <Energy>  (18) 
86.39062420645126

>  <Genealogy>  (18) 
CC[NH+](CC)CCCCCNc1cc(=NCCN2CCOCC2)c2ccccc2[n-]1 (protonated)
CC[NH+](CC)CCCCCNc1c/c(=N\CCN2CCOCC2)c2ccccc2[n-]1 (cis-trans isomerization)
CC[NH+](CC)CCCCCNc1c/c(=N\CCN2CCOCC2)c2ccccc2[n-]1 (3D coordinates assigned)
CC[NH+](CC)CCCCCNc1c/c(=N\CCN2CCOCC2)c2ccccc2[n-]1 (nonaromatic ring conformer: 86.39062420645126 kcal/mol)

>  <smiles>  (18) 
CCN(CC)CCCCCNc1cc(=NCCN2CCOCC2)c2ccccc2[nH]1

>  <score_type>  (18) 
oracle

>  <origin>  (18) 
adg

>  <m_score__min__energy>  (18) 
-7.5300000000000002

>  <m_primary>  (18) 
energy

$$$$
18:0
     RDKit          3D

 49 51  0  0  0  0  0  0  0  0999 V2000
   58.9730   33.1440   51.4910 C   0  0  0  0  0  0  0  0  0  0  0  0
   58.5180   32.0140   50.5650 C   0  0  0  0  0  0  0  0  0  0  0  0
   58.5250   32.4240   49.0800 C   0  0  0  0  0  0  0  0  0  0  0  0
   59.2530   33.7520   48.8080 C   0  0  0  0  0  0  0  0  0  0  0  0
   59.8850   33.7770   47.4840 N   0  0  0  0  0  0  0  0  0  0  0  0
   59.2740   33.9600   46.2930 C   0  0  0  0  0  0  0  0  0  0  0  0
   57.5080   34.1920   46.0650 S   0  0  0  0  0  0  0  0  0  0  0  0
   57.4380   33.1860   44.5430 C   0  0  0  0  0  0  0  0  0  0  0  0
   57.6340   31.7360   44.8680 C   0  0  0  0  0  0  0  0  0  0  0  0
   56.6380   30.9610   44.8780 O   0  0  0  0  0  0  0  0  0  0  0  0
   58.9250   31.2560   45.2710 N   0  0  0  0  0  0  0  0  0  0  0  0
   59.1870   29.8690   45.5400 C   0  0  0  0  0  0  0  0  0  0  0  0
   58.6360   28.8930   44.6960 C   0  0  0  0  0  0  0  0  0  0  0  0
   58.8990   27.5380   44.9130 C   0  0  0  0  0  0  0  0  0  0  0  0
   59.7050   27.1450   45.9830 C   0  0  0  0  0  0  0  0  0  0  0  0
   60.2370   28.1040   46.8490 C   0  0  0  0  0  0  0  0  0  0  0  0
   59.9690   29.4750   46.6470 C   0  0  0  0  0  0  0  0  0  0  0  0
   60.4360   30.4620   47.5340 O   0  0  0  0  0  0  0  0  0  0  0  0
   61.1750   30.1940   48.7230 C   0  0  0  0  0  0  0  0  0  0  0  0
   60.1570   34.0030   45.2800 N   0  0  0  0  0  0  0  0  0  0  0  0
   61.3590   33.8410   45.8120 N   0  0  0  0  0  0  0  0  0  0  0  0
   61.1970   33.6990   47.1430 C   0  0  0  0  0  0  0  0  0  0  0  0
   62.3410   33.4950   48.0570 C   0  0  0  0  0  0  0  0  0  0  0  0
   62.4810   34.1100   49.2990 C   0  0  0  0  0  0  0  0  0  0  0  0
   63.6800   33.7920   49.9510 C   0  0  0  0  0  0  0  0  0  0  0  0
   64.5020   32.9440   49.2240 C   0  0  0  0  0  0  0  0  0  0  0  0
   63.7320   32.5880   47.7720 S   0  0  0  0  0  0  0  0  0  0  0  0
   58.8476   32.8326   52.5385 H   0  0  0  0  0  0  0  0  0  0  0  0
   60.0324   33.3704   51.3001 H   0  0  0  0  0  0  0  0  0  0  0  0
   58.3661   34.0413   51.3001 H   0  0  0  0  0  0  0  0  0  0  0  0
   59.1947   31.1568   50.6968 H   0  0  0  0  0  0  0  0  0  0  0  0
   57.4824   31.7595   50.8349 H   0  0  0  0  0  0  0  0  0  0  0  0
   59.0228   31.6307   48.5031 H   0  0  0  0  0  0  0  0  0  0  0  0
   57.4760   32.5655   48.7808 H   0  0  0  0  0  0  0  0  0  0  0  0
   58.5246   34.5740   48.8683 H   0  0  0  0  0  0  0  0  0  0  0  0
   60.0457   33.8631   49.5625 H   0  0  0  0  0  0  0  0  0  0  0  0
   56.4572   33.3210   44.0636 H   0  0  0  0  0  0  0  0  0  0  0  0
   58.2384   33.5113   43.8621 H   0  0  0  0  0  0  0  0  0  0  0  0
   59.6500   31.9580   45.5460 H   0  0  0  0  0  0  0  0  0  0  0  0
   57.9923   29.1968   43.8573 H   0  0  0  0  0  0  0  0  0  0  0  0
   58.4707   26.7804   44.2403 H   0  0  0  0  0  0  0  0  0  0  0  0
   59.9216   26.0787   46.1446 H   0  0  0  0  0  0  0  0  0  0  0  0
   60.8682   27.7887   47.6929 H   0  0  0  0  0  0  0  0  0  0  0  0
   60.5518   30.4200   49.6008 H   0  0  0  0  0  0  0  0  0  0  0  0
   61.4655   29.1333   48.7429 H   0  0  0  0  0  0  0  0  0  0  0  0
   62.0779   30.8219   48.7429 H   0  0  0  0  0  0  0  0  0  0  0  0
   61.7224   34.7816   49.7274 H   0  0  0  0  0  0  0  0  0  0  0  0
   63.9444   34.1788   50.9462 H   0  0  0  0  0  0  0  0  0  0  0  0
   65.4862   32.5695   49.5418 H   0  0  0  0  0  0  0  0  0  0  0  0
  1  2  1  0
  2  3  1  0
  3  4  1  0
  4  5  1  0
  5  6  1  0
  6  7  1  0
  7  8  1  0
  8  9  1  0
  9 10  2  0
  9 11  1  0
 11 12  1  0
 12 13  2  0
 13 14  1  0
 14 15  2  0
 15 16  1  0
 16 17  2  0
 17 18  1  0
 18 19  1  0
  6 20  2  0
 20 21  1  0
 21 22  2  0
 22 23  1  0
 23 24  2  0
 24 25  1  0
 25 26  2  0
 26 27  1  0
 22  5  1  0
 27 23  1  0
 17 12  1  0
  1 28  1  0
  1 29  1  0
  1 30  1  0
  2 31  1  0
  2 32  1  0
  3 33  1  0
  3 34  1  0
  4 35  1  0
  4 36  1  0
  8 37  1  0
  8 38  1  0
 11 39  1  0
 13 40  1  0
 14 41  1  0
 15 42  1  0
 16 43  1  0
 19 44  1  0
 19 45  1  0
 19 46  1  0
 24 47  1  0
 25 48  1  0
 26 49  1  0
M  END
>  <UniqueID>  (19) 
19

>  <SMILES>  (19) 
CCCCn1c(SCC(=O)Nc2ccccc2OC)nnc1-c1cccs1

>  <Energy>  (19) 
108.79591791620669

>  <Genealogy>  (19) 
CCCCn1c(SCC(=O)Nc2ccccc2OC)nnc1-c1cccs1 (3D coordinates assigned)
CCCCn1c(SCC(=O)Nc2ccccc2OC)nnc1-c1cccs1 (optimized conformer: 108.79591791620669 kcal/mol)

>  <smiles>  (19) 
CCCCn1c(SCC(=O)Nc2ccccc2OC)nnc1-c1cccs1

>  <score_type>  (19) 
oracle

>  <origin>  (19) 
adg

>  <m_score__min__energy>  (19) 
-8.4299999999999997

>  <m_primary>  (19) 
energy

$$$$
19:0
     RDKit          3D

 57 60  0  0  0  0  0  0  0  0999 V2000
   61.0740   26.4900   50.6160 C   0  0  0  0  0  0  0  0  0  0  0  0
   61.2470   27.8240   50.1520 O   0  0  0  0  0  0  0  0  0  0  0  0
   60.5430   28.3430   49.0620 C   0  0  0  0  0  0  0  0  0  0  0  0
   60.9480   29.4900   48.4520 N   0  0  0  0  0  0  0  0  0  0  0  0
   60.2660   30.0000   47.3950 C   0  0  0  0  0  0  0  0  0  0  0  0
   59.1210   29.3490   46.9180 C   0  0  0  0  0  0  0  0  0  0  0  0
   58.3710   29.8730   45.7540 C   0  0  0  0  0  0  0  0  0  0  0  0
   57.7980   28.9590   44.8550 C   0  0  0  0  0  0  0  0  0  0  0  0
   57.1290   29.4070   43.7160 C   0  0  0  0  0  0  0  0  0  0  0  0
   57.0280   30.7720   43.4550 C   0  0  0  0  0  0  0  0  0  0  0  0
   57.5940   31.7040   44.3350 C   0  0  0  0  0  0  0  0  0  0  0  0
   58.2410   31.2640   45.5090 C   0  0  0  0  0  0  0  0  0  0  0  0
   58.7370   32.2370   46.4510 N   0  0  0  0  0  0  0  0  0  0  0  0
   58.6600   33.6850   46.2140 C   0  0  1  0  0  0  0  0  0  0  0  0
   59.8790   34.3890   46.8590 C   0  0  0  0  0  0  0  0  0  0  0  0
   59.5740   35.7210   47.0950 F   0  0  0  0  0  0  0  0  0  0  0  0
   60.9440   34.3580   45.9700 F   0  0  0  0  0  0  0  0  0  0  0  0
   60.3050   33.7020   48.1420 C   0  0  0  0  0  0  0  0  0  0  0  0
   61.5910   33.1450   48.2460 C   0  0  0  0  0  0  0  0  0  0  0  0
   61.9830   32.4770   49.4100 C   0  0  0  0  0  0  0  0  0  0  0  0
   61.0980   32.3580   50.4910 C   0  0  0  0  0  0  0  0  0  0  0  0
   61.5050   31.6020   51.7270 C   0  0  0  0  0  0  0  0  0  0  0  0
   61.3000   30.1650   51.5170 N   0  0  0  0  0  0  0  0  0  0  0  0
   60.2580   29.6620   52.4210 C   0  0  0  0  0  0  0  0  0  0  0  0
   58.8710   30.0050   51.8790 C   0  0  0  0  0  0  0  0  0  0  0  0
   58.4500   31.2070   52.4190 F   0  0  0  0  0  0  0  0  0  0  0  0
   58.9140   30.1240   50.5000 F   0  0  0  0  0  0  0  0  0  0  0  0
   57.9680   29.0160   52.2250 F   0  0  0  0  0  0  0  0  0  0  0  0
   59.8040   32.8860   50.3800 C   0  0  0  0  0  0  0  0  0  0  0  0
   59.4100   33.5530   49.2170 C   0  0  0  0  0  0  0  0  0  0  0  0
   58.5610   33.9800   44.7020 C   0  0  0  0  0  0  0  0  0  0  0  0
   57.4250   33.1760   44.0700 C   0  0  0  0  0  0  0  0  0  0  0  0
   58.7300   28.1640   47.5530 C   0  0  0  0  0  0  0  0  0  0  0  0
   59.4420   27.6890   48.6080 N   0  0  0  0  0  0  0  0  0  0  0  0
   61.0729   26.4816   51.7160 H   0  0  0  0  0  0  0  0  0  0  0  0
   60.1170   26.0941   50.2454 H   0  0  0  0  0  0  0  0  0  0  0  0
   61.8984   25.8631   50.2454 H   0  0  0  0  0  0  0  0  0  0  0  0
   60.6128   30.9256   46.9124 H   0  0  0  0  0  0  0  0  0  0  0  0
   57.8775   27.8795   45.0509 H   0  0  0  0  0  0  0  0  0  0  0  0
   56.6801   28.6810   43.0222 H   0  0  0  0  0  0  0  0  0  0  0  0
   56.5015   31.1196   42.5539 H   0  0  0  0  0  0  0  0  0  0  0  0
   58.9420   31.9260   47.4270 H   0  0  0  0  0  0  0  0  0  0  0  0
   57.7497   34.0838   46.6854 H   0  0  0  0  0  0  0  0  0  0  0  0
   62.2945   33.2352   47.4052 H   0  0  0  0  0  0  0  0  0  0  0  0
   62.9912   32.0424   49.4781 H   0  0  0  0  0  0  0  0  0  0  0  0
   62.5674   31.7927   51.9391 H   0  0  0  0  0  0  0  0  0  0  0  0
   60.8928   31.9370   52.5773 H   0  0  0  0  0  0  0  0  0  0  0  0
   60.9640   30.0320   50.5340 H   0  0  0  0  0  0  0  0  0  0  0  0
   60.3522   28.5697   52.5104 H   0  0  0  0  0  0  0  0  0  0  0  0
   60.3826   30.1342   53.4066 H   0  0  0  0  0  0  0  0  0  0  0  0
   59.0947   32.7746   51.2133 H   0  0  0  0  0  0  0  0  0  0  0  0
   58.3927   33.9645   49.1416 H   0  0  0  0  0  0  0  0  0  0  0  0
   58.3697   35.0532   44.5549 H   0  0  0  0  0  0  0  0  0  0  0  0
   59.5082   33.6929   44.2220 H   0  0  0  0  0  0  0  0  0  0  0  0
   56.4674   33.5105   44.4955 H   0  0  0  0  0  0  0  0  0  0  0  0
   57.4418   33.3406   42.9825 H   0  0  0  0  0  0  0  0  0  0  0  0
   57.8447   27.6166   47.1970 H   0  0  0  0  0  0  0  0  0  0  0  0
  1  2  1  0
  2  3  1  0
  3  4  2  0
  4  5  1  0
  5  6  2  0
  6  7  1  0
  7  8  2  0
  8  9  1  0
  9 10  2  0
 10 11  1  0
 11 12  2  0
 12 13  1  0
 13 14  1  0
 14 15  1  0
 15 16  1  0
 15 17  1  0
 15 18  1  0
 18 19  2  0
 19 20  1  0
 20 21  2  0
 21 22  1  0
 22 23  1  0
 23 24  1  0
 24 25  1  0
 25 26  1  0
 25 27  1  0
 25 28  1  0
 21 29  1  0
 29 30  2  0
 14 31  1  0
 31 32  1  0
  6 33  1  0
 33 34  2  0
 34  3  1  0
 12  7  1  0
 30 18  1  0
 32 11  1  0
  1 35  1  0
  1 36  1  0
  1 37  1  0
  5 38  1  0
  8 39  1  0
  9 40  1  0
 10 41  1  0
 13 42  1  0
 14 43  1  1
 19 44  1  0
 20 45  1  0
 22 46  1  0
 22 47  1  0
 23 48  1  0
 24 49  1  0
 24 50  1  0
 29 51  1  0
 30 52  1  0
 31 53  1  0
 31 54  1  0
 32 55  1  0
 32 56  1  0
 33 57  1  0
M  END
>  <UniqueID>  (20) 
20

>  <SMILES>  (20) 
COc1ncc(-c2cccc3c2N[C@@H](C(F)(F)c2ccc(CNCC(F)(F)F)cc2)CC3)cn1

>  <Energy>  (20) 
62.69873868433917

>  <Genealogy>  (20) 
COc1ncc(-c2cccc3c2N[C@@H](C(F)(F)c2ccc(CNCC(F)(F)F)cc2)CC3)cn1 (chirality)
COc1ncc(-c2cccc3c2N[C@@H](C(F)(F)c2ccc(CNCC(F)(F)F)cc2)CC3)cn1 (3D coordinates assigned)
COc1ncc(-c2cccc3c2N[C@@H](C(F)(F)c2ccc(CNCC(F)(F)F)cc2)CC3)cn1 (nonaromatic ring conformer: 62.69873868433917 kcal/mol)

>  <smiles>  (20) 
COc1ncc(-c2cccc3c2NC(C(F)(F)c2ccc(CNCC(F)(F)F)cc2)CC3)cn1

>  <score_type>  (20) 
oracle

>  <origin>  (20) 
adg

>  <m_score__min__energy>  (20) 
-7.2000000000000002

>  <m_primary>  (20) 
energy

$$$$
20:0
     RDKit          3D

 54 55  0  0  0  0  0  0  0  0999 V2000
   66.3320   32.6970   50.1250 C   0  0  0  0  0  0  0  0  0  0  0  0
   66.3590   33.8590   51.1220 C   0  0  0  0  0  0  0  0  0  0  0  0
   65.0220   34.1730   51.6570 N   0  0  0  0  0  0  0  0  0  0  0  0
   64.2730   32.9600   52.0280 C   0  0  0  0  0  0  0  0  0  0  0  0
   62.8600   32.9890   51.4330 C   0  0  0  0  0  0  0  0  0  0  0  0
   62.7090   34.0980   50.5450 O   0  0  0  0  0  0  0  0  0  0  0  0
   62.4710   34.0110   49.1630 C   0  0  0  0  0  0  0  0  0  0  0  0
   63.5440   33.6690   48.3320 C   0  0  0  0  0  0  0  0  0  0  0  0
   63.3680   33.5680   46.9490 C   0  0  0  0  0  0  0  0  0  0  0  0
   62.1150   33.8050   46.3830 C   0  0  0  0  0  0  0  0  0  0  0  0
   61.0210   34.1380   47.1990 C   0  0  0  0  0  0  0  0  0  0  0  0
   59.6580   34.3870   46.5860 C   0  0  0  0  0  0  0  0  0  0  0  0
   59.0800   33.2050   45.9070 N   0  0  0  0  0  0  0  0  0  0  0  0
   58.4810   32.2420   46.8480 C   0  0  0  0  0  0  0  0  0  0  0  0
   58.1320   30.9460   46.1140 C   0  0  0  0  0  0  0  0  0  0  0  0
   57.3240   31.2330   44.9200 N   0  0  0  0  0  0  0  0  0  0  0  0
   56.3840   30.2480   44.4460 C   0  0  0  0  0  0  0  0  0  0  0  0
   55.7820   30.4240   43.3500 O   0  0  0  0  0  0  0  0  0  0  0  0
   56.1290   29.1000   45.2060 O   0  0  0  0  0  0  0  0  0  0  0  0
   57.0210   27.9890   45.2810 C   0  0  0  0  0  0  0  0  0  0  0  0
   57.9630   27.9760   44.0830 C   0  0  0  0  0  0  0  0  0  0  0  0
   57.7550   32.3240   44.0340 C   0  0  0  0  0  0  0  0  0  0  0  0
   58.1160   33.5660   44.8510 C   0  0  0  0  0  0  0  0  0  0  0  0
   61.2060   34.2440   48.5880 C   0  0  0  0  0  0  0  0  0  0  0  0
   66.3099   31.7437   50.6735 H   0  0  0  0  0  0  0  0  0  0  0  0
   65.4355   32.7771   49.4927 H   0  0  0  0  0  0  0  0  0  0  0  0
   67.2313   32.7354   49.4927 H   0  0  0  0  0  0  0  0  0  0  0  0
   67.0201   33.5906   51.9592 H   0  0  0  0  0  0  0  0  0  0  0  0
   66.7239   34.7493   50.5888 H   0  0  0  0  0  0  0  0  0  0  0  0
   65.1480   34.7620   52.5140 H   0  0  0  0  0  0  0  0  0  0  0  0
   64.4760   34.7300   50.9580 H   0  0  0  0  0  0  0  0  0  0  0  0
   64.8064   32.0764   51.6476 H   0  0  0  0  0  0  0  0  0  0  0  0
   64.1930   32.9166   53.1242 H   0  0  0  0  0  0  0  0  0  0  0  0
   62.6823   32.0557   50.8786 H   0  0  0  0  0  0  0  0  0  0  0  0
   62.1331   33.0903   52.2524 H   0  0  0  0  0  0  0  0  0  0  0  0
   64.5344   33.4780   48.7710 H   0  0  0  0  0  0  0  0  0  0  0  0
   64.2193   33.3011   46.3055 H   0  0  0  0  0  0  0  0  0  0  0  0
   61.9832   33.7308   45.2934 H   0  0  0  0  0  0  0  0  0  0  0  0
   58.9700   34.6975   47.3861 H   0  0  0  0  0  0  0  0  0  0  0  0
   59.7906   35.1631   45.8178 H   0  0  0  0  0  0  0  0  0  0  0  0
   59.1985   32.0237   47.6527 H   0  0  0  0  0  0  0  0  0  0  0  0
   57.5643   32.6748   47.2749 H   0  0  0  0  0  0  0  0  0  0  0  0
   59.0606   30.4407   45.8100 H   0  0  0  0  0  0  0  0  0  0  0  0
   57.5524   30.2994   46.7892 H   0  0  0  0  0  0  0  0  0  0  0  0
   57.6127   28.0621   46.2054 H   0  0  0  0  0  0  0  0  0  0  0  0
   56.4317   27.0602   45.2790 H   0  0  0  0  0  0  0  0  0  0  0  0
   59.0048   27.9616   44.4359 H   0  0  0  0  0  0  0  0  0  0  0  0
   57.7697   27.0804   43.4742 H   0  0  0  0  0  0  0  0  0  0  0  0
   57.7945   28.8766   43.4742 H   0  0  0  0  0  0  0  0  0  0  0  0
   58.6360   31.9987   43.4612 H   0  0  0  0  0  0  0  0  0  0  0  0
   56.9302   32.5747   43.3507 H   0  0  0  0  0  0  0  0  0  0  0  0
   58.5650   34.3211   44.1890 H   0  0  0  0  0  0  0  0  0  0  0  0
   57.2054   33.9742   45.3139 H   0  0  0  0  0  0  0  0  0  0  0  0
   60.3554   34.5113   49.2322 H   0  0  0  0  0  0  0  0  0  0  0  0
  1  2  1  0
  2  3  1  0
  3  4  1  0
  4  5  1  0
  5  6  1  0
  6  7  1  0
  7  8  2  0
  8  9  1  0
  9 10  2  0
 10 11  1  0
 11 12  1  0
 12 13  1  0
 13 14  1  0
 14 15  1  0
 15 16  1  0
 16 17  1  0
 17 18  2  0
 17 19  1  0
 19 20  1  0
 20 21  1  0
 16 22  1  0
 22 23  1  0
 11 24  2  0
 24  7  1  0
 23 13  1  0
  1 25  1  0
  1 26  1  0
  1 27  1  0
  2 28  1  0
  2 29  1  0
  3 30  1  0
  3 31  1  0
  4 32  1  0
  4 33  1  0
  5 34  1  0
  5 35  1  0
  8 36  1  0
  9 37  1  0
 10 38  1  0
 12 39  1  0
 12 40  1  0
 14 41  1  0
 14 42  1  0
 15 43  1  0
 15 44  1  0
 20 45  1  0
 20 46  1  0
 21 47  1  0
 21 48  1  0
 21 49  1  0
 22 50  1  0
 22 51  1  0
 23 52  1  0
 23 53  1  0
 24 54  1  0
M  CHG  1   3   1
M  END
>  <UniqueID>  (21) 
21

>  <SMILES>  (21) 
CC[NH2+]CCOc1cccc(CN2CCN(C(=O)OCC)CC2)c1

>  <Energy>  (21) 
46.10123347495009

>  <Genealogy>  (21) 
CC[NH2+]CCOc1cccc(CN2CCN(C(=O)OCC)CC2)c1 (protonated)
CC[NH2+]CCOc1cccc(CN2CCN(C(=O)OCC)CC2)c1 (3D coordinates assigned)
CC[NH2+]CCOc1cccc(CN2CCN(C(=O)OCC)CC2)c1 (nonaromatic ring conformer: 46.10123347495009 kcal/mol)

>  <smiles>  (21) 
CCNCCOc1cccc(CN2CCN(C(=O)OCC)CC2)c1

>  <score_type>  (21) 
oracle

>  <origin>  (21) 
adg

>  <m_score__min__energy>  (21) 
-5.7199999999999998

>  <m_primary>  (21) 
energy

$$$$
21:0
     RDKit          3D

 48 50  0  0  0  0  0  0  0  0999 V2000
   56.6480   30.5010   42.8040 C   0  0  0  0  0  0  0  0  0  0  0  0
   55.8460   30.0240   44.0100 C   0  0  0  0  0  0  0  0  0  0  0  0
   56.6190   30.1290   45.2040 O   0  0  0  0  0  0  0  0  0  0  0  0
   57.7880   29.4030   45.4950 C   0  0  0  0  0  0  0  0  0  0  0  0
   58.0530   28.1440   44.9190 C   0  0  0  0  0  0  0  0  0  0  0  0
   59.2530   27.4830   45.1880 C   0  0  0  0  0  0  0  0  0  0  0  0
   60.2040   28.0690   46.0250 C   0  0  0  0  0  0  0  0  0  0  0  0
   59.9500   29.3120   46.6060 C   0  0  0  0  0  0  0  0  0  0  0  0
   58.7400   29.9730   46.3680 C   0  0  0  0  0  0  0  0  0  0  0  0
   58.5260   31.2130   46.9850 O   0  0  0  0  0  0  0  0  0  0  0  0
   58.6460   32.4610   46.3510 C   0  0  0  0  0  0  0  0  0  0  0  0
   58.0030   32.7230   45.1260 C   0  0  0  0  0  0  0  0  0  0  0  0
   58.1340   33.9680   44.5100 C   0  0  0  0  0  0  0  0  0  0  0  0
   58.8940   34.9700   45.1120 C   0  0  0  0  0  0  0  0  0  0  0  0
   59.5210   34.7320   46.3370 C   0  0  0  0  0  0  0  0  0  0  0  0
   59.3980   33.4820   46.9700 C   0  0  0  0  0  0  0  0  0  0  0  0
   60.0720   33.2460   48.3070 C   0  0  0  0  0  0  0  0  0  0  0  0
   60.9620   32.0550   48.2930 N   0  0  0  0  0  0  0  0  0  0  0  0
   61.6870   31.8680   49.5720 C   0  0  0  0  0  0  0  0  0  0  0  0
   62.7640   32.9510   49.8060 C   0  0  0  0  0  0  0  0  0  0  0  0
   63.4130   33.4140   48.5660 N   0  0  0  0  0  0  0  0  0  0  0  0
   63.3530   32.4090   47.5020 C   0  0  0  0  0  0  0  0  0  0  0  0
   61.8930   32.0780   47.1270 C   0  0  0  0  0  0  0  0  0  0  0  0
   57.5458   31.0350   43.1487 H   0  0  0  0  0  0  0  0  0  0  0  0
   56.9475   29.6341   42.1967 H   0  0  0  0  0  0  0  0  0  0  0  0
   56.0292   31.1780   42.1967 H   0  0  0  0  0  0  0  0  0  0  0  0
   54.9419   30.6426   44.1098 H   0  0  0  0  0  0  0  0  0  0  0  0
   55.5726   28.9695   43.8578 H   0  0  0  0  0  0  0  0  0  0  0  0
   57.3101   27.6797   44.2538 H   0  0  0  0  0  0  0  0  0  0  0  0
   59.4495   26.4981   44.7393 H   0  0  0  0  0  0  0  0  0  0  0  0
   61.1533   27.5511   46.2265 H   0  0  0  0  0  0  0  0  0  0  0  0
   60.7067   29.7757   47.2560 H   0  0  0  0  0  0  0  0  0  0  0  0
   57.3930   31.9404   44.6512 H   0  0  0  0  0  0  0  0  0  0  0  0
   57.6368   34.1594   43.5476 H   0  0  0  0  0  0  0  0  0  0  0  0
   58.9998   35.9489   44.6216 H   0  0  0  0  0  0  0  0  0  0  0  0
   60.1152   35.5277   46.8101 H   0  0  0  0  0  0  0  0  0  0  0  0
   60.6723   34.1321   48.5608 H   0  0  0  0  0  0  0  0  0  0  0  0
   59.2831   33.0653   49.0520 H   0  0  0  0  0  0  0  0  0  0  0  0
   60.3490   31.2140   48.1720 H   0  0  0  0  0  0  0  0  0  0  0  0
   60.9614   31.9079   50.3978 H   0  0  0  0  0  0  0  0  0  0  0  0
   62.1966   30.8942   49.5278 H   0  0  0  0  0  0  0  0  0  0  0  0
   62.2886   33.8149   50.2934 H   0  0  0  0  0  0  0  0  0  0  0  0
   63.5476   32.4977   50.4309 H   0  0  0  0  0  0  0  0  0  0  0  0
   62.9450   34.2870   48.2280 H   0  0  0  0  0  0  0  0  0  0  0  0
   63.8725   32.7964   46.6132 H   0  0  0  0  0  0  0  0  0  0  0  0
   63.8360   31.4896   47.8644 H   0  0  0  0  0  0  0  0  0  0  0  0
   61.5375   32.8367   46.4143 H   0  0  0  0  0  0  0  0  0  0  0  0
   61.8942   31.0651   46.6980 H   0  0  0  0  0  0  0  0  0  0  0  0
  1  2  1  0
  2  3  1  0
  3  4  1  0
  4  5  2  0
  5  6  1  0
  6  7  2  0
  7  8  1  0
  8  9  2  0
  9 10  1  0
 10 11  1  0
 11 12  2  0
 12 13  1  0
 13 14  2  0
 14 15  1  0
 15 16  2  0
 16 17  1  0
 17 18  1  0
 18 19  1  0
 19 20  1  0
 20 21  1  0
 21 22  1  0
 22 23  1  0
  9  4  1  0
 16 11  1  0
 23 18  1  0
  1 24  1  0
  1 25  1  0
  1 26  1  0
  2 27  1  0
  2 28  1  0
  5 29  1  0
  6 30  1  0
  7 31  1  0
  8 32  1  0
 12 33  1  0
 13 34  1  0
 14 35  1  0
 15 36  1  0
 17 37  1  0
 17 38  1  0
 18 39  1  0
 19 40  1  0
 19 41  1  0
 20 42  1  0
 20 43  1  0
 21 44  1  0
 22 45  1  0
 22 46  1  0
 23 47  1  0
 23 48  1  0
M  CHG  1  18   1
M  END
>  <UniqueID>  (22) 
22

>  <SMILES>  (22) 
CCOc1ccccc1Oc1ccccc1C[NH+]1CCNCC1

>  <Energy>  (22) 
65.79422640981679

>  <Genealogy>  (22) 
CCOc1ccccc1Oc1ccccc1C[NH+]1CCNCC1 (protonated)
CCOc1ccccc1Oc1ccccc1C[NH+]1CCNCC1 (3D coordinates assigned)
CCOc1ccccc1Oc1ccccc1C[NH+]1CCNCC1 (nonaromatic ring conformer: 65.79422640981679 kcal/mol)

>  <smiles>  (22) 
CCOc1ccccc1Oc1ccccc1CN1CCNCC1

>  <score_type>  (22) 
oracle

>  <origin>  (22) 
adg

>  <m_score__min__energy>  (22) 
-5.6100000000000003

>  <m_primary>  (22) 
energy

$$$$
22:0
     RDKit          3D

 35 36  0  0  0  0  0  0  0  0999 V2000
   58.3600   27.7030   45.1200 C   0  0  0  0  0  0  0  0  0  0  0  0
   59.1350   28.9330   44.6580 C   0  0  0  0  0  0  0  0  0  0  0  0
   58.9630   30.0480   45.5950 N   0  0  0  0  0  0  0  0  0  0  0  0
   59.3760   29.9700   46.8840 C   0  0  0  0  0  0  0  0  0  0  0  0
   59.2650   31.1910   47.5160 C   0  0  0  0  0  0  0  0  0  0  0  0
   58.7560   32.0470   46.5690 C   0  0  0  0  0  0  0  0  0  0  0  0
   58.5010   33.4120   46.6870 C   0  0  0  0  0  0  0  0  0  0  0  0
   58.7560   34.0600   47.9060 O   0  0  0  0  0  0  0  0  0  0  0  0
   60.0330   34.5510   48.2990 C   0  0  0  0  0  0  0  0  0  0  0  0
   58.0000   34.0790   45.5570 C   0  0  0  0  0  0  0  0  0  0  0  0
   57.7420   33.3740   44.3700 C   0  0  0  0  0  0  0  0  0  0  0  0
   57.9860   31.9830   44.2620 C   0  0  0  0  0  0  0  0  0  0  0  0
   57.4720   31.3050   43.0110 C   0  0  0  0  0  0  0  0  0  0  0  0
   56.3790   30.2820   43.3600 C   0  0  0  0  0  0  0  0  0  0  0  0
   56.5810   29.0290   42.6320 N   0  0  0  0  0  0  0  0  0  0  0  0
   58.5460   31.3340   45.4020 C   0  0  0  0  0  0  0  0  0  0  0  0
   58.3412   27.6731   46.2194 H   0  0  0  0  0  0  0  0  0  0  0  0
   57.3301   27.7533   44.7369 H   0  0  0  0  0  0  0  0  0  0  0  0
   58.8499   26.7957   44.7369 H   0  0  0  0  0  0  0  0  0  0  0  0
   60.2036   28.6806   44.5922 H   0  0  0  0  0  0  0  0  0  0  0  0
   58.7491   29.2402   43.6748 H   0  0  0  0  0  0  0  0  0  0  0  0
   59.7505   29.0533   47.3630 H   0  0  0  0  0  0  0  0  0  0  0  0
   59.5281   31.4291   48.5572 H   0  0  0  0  0  0  0  0  0  0  0  0
   60.0947   34.5747   49.3970 H   0  0  0  0  0  0  0  0  0  0  0  0
   60.8179   33.8905   47.9018 H   0  0  0  0  0  0  0  0  0  0  0  0
   60.1732   35.5672   47.9018 H   0  0  0  0  0  0  0  0  0  0  0  0
   57.8083   35.1612   45.6020 H   0  0  0  0  0  0  0  0  0  0  0  0
   57.3399   33.9163   43.5015 H   0  0  0  0  0  0  0  0  0  0  0  0
   57.0535   32.0645   42.3342 H   0  0  0  0  0  0  0  0  0  0  0  0
   58.3068   30.7797   42.5239 H   0  0  0  0  0  0  0  0  0  0  0  0
   56.4085   30.0788   44.4407 H   0  0  0  0  0  0  0  0  0  0  0  0
   55.4031   30.7005   43.0727 H   0  0  0  0  0  0  0  0  0  0  0  0
   55.8860   28.9710   41.8530 H   0  0  0  0  0  0  0  0  0  0  0  0
   56.4410   28.2150   43.2720 H   0  0  0  0  0  0  0  0  0  0  0  0
   57.5460   29.0010   42.2280 H   0  0  0  0  0  0  0  0  0  0  0  0
  1  2  1  0
  2  3  1  0
  3  4  1  0
  4  5  2  0
  5  6  1  0
  6  7  2  0
  7  8  1  0
  8  9  1  0
  7 10  1  0
 10 11  2  0
 11 12  1  0
 12 13  1  0
 13 14  1  0
 14 15  1  0
 12 16  2  0
 16  3  1  0
 16  6  1  0
  1 17  1  0
  1 18  1  0
  1 19  1  0
  2 20  1  0
  2 21  1  0
  4 22  1  0
  5 23  1  0
  9 24  1  0
  9 25  1  0
  9 26  1  0
 10 27  1  0
 11 28  1  0
 13 29  1  0
 13 30  1  0
 14 31  1  0
 14 32  1  0
 15 33  1  0
 15 34  1  0
 15 35  1  0
M  CHG  1  15   1
M  END
>  <UniqueID>  (23) 
23

>  <SMILES>  (23) 
CCn1ccc2c(OC)ccc(CC[NH3+])c21

>  <Energy>  (23) 
69.90409751727393

>  <Genealogy>  (23) 
CCn1ccc2c(OC)ccc(CC[NH3+])c21 (protonated)
CCn1ccc2c(OC)ccc(CC[NH3+])c21 (3D coordinates assigned)
CCn1ccc2c(OC)ccc(CC[NH3+])c21 (optimized conformer: 69.90409751727393 kcal/mol)

>  <smiles>  (23) 
CCn1ccc2c(OC)ccc(CCN)c21

>  <score_type>  (23) 
oracle

>  <origin>  (23) 
adg

>  <m_score__min__energy>  (23) 
-4.3300000000000001

>  <m_primary>  (23) 
energy

$$$$
23:0
     RDKit          3D

 46 48  0  0  0  0  0  0  0  0999 V2000
   63.7620   33.1190   46.7700 C   0  0  0  0  0  0  0  0  0  0  0  0
   62.4870   33.8220   47.2670 C   0  0  0  0  0  0  0  0  0  0  0  0
   61.7190   33.0560   48.2770 N   0  0  0  0  0  0  0  0  0  0  0  0
   61.4620   33.8200   49.5080 C   0  0  0  0  0  0  0  0  0  0  0  0
   62.2850   31.7170   48.5600 C   0  0  0  0  0  0  0  0  0  0  0  0
   61.3610   30.6150   48.0260 C   0  0  0  0  0  0  0  0  0  0  0  0
   59.9450   31.0120   48.1070 N   0  0  0  0  0  0  0  0  0  0  0  0
   59.3280   30.9620   46.7930 C   0  0  0  0  0  0  0  0  0  0  0  0
   59.1370   29.7390   46.1010 C   0  0  0  0  0  0  0  0  0  0  0  0
   59.6150   28.5120   46.6180 C   0  0  0  0  0  0  0  0  0  0  0  0
   59.4530   27.3250   45.9100 C   0  0  0  0  0  0  0  0  0  0  0  0
   58.8310   27.3320   44.6690 C   0  0  0  0  0  0  0  0  0  0  0  0
   58.3500   28.5240   44.1340 C   0  0  0  0  0  0  0  0  0  0  0  0
   58.4640   29.7480   44.8440 C   0  0  0  0  0  0  0  0  0  0  0  0
   57.9610   30.9280   44.3290 N   0  0  0  0  0  0  0  0  0  0  0  0
   57.0250   30.9020   43.1830 C   0  0  0  0  0  0  0  0  0  0  0  0
   58.3240   32.1330   44.8940 C   0  0  0  0  0  0  0  0  0  0  0  0
   58.0740   33.3740   44.2590 C   0  0  0  0  0  0  0  0  0  0  0  0
   58.4190   34.5740   44.8790 C   0  0  0  0  0  0  0  0  0  0  0  0
   59.0260   34.5460   46.1280 C   0  0  0  0  0  0  0  0  0  0  0  0
   59.2990   33.3570   46.7200 N   0  0  0  0  0  0  0  0  0  0  0  0
   58.9830   32.1620   46.1450 C   0  0  0  0  0  0  0  0  0  0  0  0
   64.3593   32.7897   47.6330 H   0  0  0  0  0  0  0  0  0  0  0  0
   63.4855   32.2458   46.1608 H   0  0  0  0  0  0  0  0  0  0  0  0
   64.3528   33.8188   46.1608 H   0  0  0  0  0  0  0  0  0  0  0  0
   62.7767   34.7849   47.7129 H   0  0  0  0  0  0  0  0  0  0  0  0
   61.8296   33.9347   46.3923 H   0  0  0  0  0  0  0  0  0  0  0  0
   61.6746   33.1880   50.3829 H   0  0  0  0  0  0  0  0  0  0  0  0
   62.1109   34.7079   49.5307 H   0  0  0  0  0  0  0  0  0  0  0  0
   60.4084   34.1352   49.5307 H   0  0  0  0  0  0  0  0  0  0  0  0
   63.2684   31.6305   48.0747 H   0  0  0  0  0  0  0  0  0  0  0  0
   62.3855   31.5980   49.6489 H   0  0  0  0  0  0  0  0  0  0  0  0
   61.6160   30.4127   46.9753 H   0  0  0  0  0  0  0  0  0  0  0  0
   61.5033   29.7158   48.6435 H   0  0  0  0  0  0  0  0  0  0  0  0
   59.8790   31.9810   48.4950 H   0  0  0  0  0  0  0  0  0  0  0  0
   59.4250   30.4140   48.7870 H   0  0  0  0  0  0  0  0  0  0  0  0
   60.1222   28.4960   47.5940 H   0  0  0  0  0  0  0  0  0  0  0  0
   59.8188   26.3786   46.3349 H   0  0  0  0  0  0  0  0  0  0  0  0
   58.7179   26.3933   44.1068 H   0  0  0  0  0  0  0  0  0  0  0  0
   57.8728   28.5172   43.1429 H   0  0  0  0  0  0  0  0  0  0  0  0
   55.9903   30.8733   43.5553 H   0  0  0  0  0  0  0  0  0  0  0  0
   57.1696   31.8045   42.5710 H   0  0  0  0  0  0  0  0  0  0  0  0
   57.2194   30.0089   42.5710 H   0  0  0  0  0  0  0  0  0  0  0  0
   57.6023   33.3912   43.2654 H   0  0  0  0  0  0  0  0  0  0  0  0
   58.2124   35.5342   44.3836 H   0  0  0  0  0  0  0  0  0  0  0  0
   59.2848   35.4867   46.6360 H   0  0  0  0  0  0  0  0  0  0  0  0
  1  2  1  0
  2  3  1  0
  3  4  1  0
  3  5  1  0
  5  6  1  0
  6  7  1  0
  7  8  1  0
  8  9  2  0
  9 10  1  0
 10 11  2  0
 11 12  1  0
 12 13  2  0
 13 14  1  0
 14 15  2  0
 15 16  1  0
 15 17  1  0
 17 18  2  0
 18 19  1  0
 19 20  2  0
 20 21  1  0
 21 22  2  0
 22  8  1  0
 14  9  1  0
 22 17  1  0
  1 23  1  0
  1 24  1  0
  1 25  1  0
  2 26  1  0
  2 27  1  0
  4 28  1  0
  4 29  1  0
  4 30  1  0
  5 31  1  0
  5 32  1  0
  6 33  1  0
  6 34  1  0
  7 35  1  0
  7 36  1  0
 10 37  1  0
 11 38  1  0
 12 39  1  0
 13 40  1  0
 16 41  1  0
 16 42  1  0
 16 43  1  0
 18 44  1  0
 19 45  1  0
 20 46  1  0
M  CHG  2   7   1  15   1
M  END
>  <UniqueID>  (24) 
24

>  <SMILES>  (24) 
CCN(C)CC[NH2+]c1c2ccccc2[n+](C)c2cccnc12

>  <Energy>  (24) 
72.4765886367857

>  <Genealogy>  (24) 
CCN(C)CC[NH2+]c1c2ccccc2[n+](C)c2cccnc12 (protonated)
CCN(C)CC[NH2+]c1c2ccccc2[n+](C)c2cccnc12 (3D coordinates assigned)
CCN(C)CC[NH2+]c1c2ccccc2[n+](C)c2cccnc12 (optimized conformer: 72.4765886367857 kcal/mol)

>  <smiles>  (24) 
CCN(C)CCNc1c2ccccc2[n+](C)c2cccnc12

>  <score_type>  (24) 
oracle

>  <origin>  (24) 
adg

>  <m_score__min__energy>  (24) 
-3.3799999999999999

>  <m_primary>  (24) 
energy

$$$$
24:0
     RDKit          3D

 85 89  0  0  0  0  0  0  0  0999 V2000
   59.2540   34.5580   44.4930 C   0  0  0  0  0  0  0  0  0  0  0  0
   58.8200   34.6340   45.9540 C   0  0  0  0  0  0  0  0  0  0  0  0
   59.1070   33.3530   46.6410 N   0  0  0  0  0  0  0  0  0  0  0  0
   57.8920   32.5070   46.7400 C   0  0  0  0  0  0  0  0  0  0  0  0
   57.4750   31.9260   45.3850 C   0  0  0  0  0  0  0  0  0  0  0  0
   59.8070   33.5580   47.9360 C   0  0  0  0  0  0  0  0  0  0  0  0
   61.2130   34.1820   47.7990 C   0  0  0  0  0  0  0  0  0  0  0  0
   61.7250   34.0110   46.4920 O   0  0  0  0  0  0  0  0  0  0  0  0
   63.1380   34.1280   46.4570 C   0  0  0  0  0  0  0  0  0  0  0  0
   63.7990   33.2610   47.5370 C   0  0  0  0  0  0  0  0  0  0  0  0
   63.4810   31.8460   47.3600 N   0  0  0  0  0  0  0  0  0  0  0  0
   62.4200   31.2550   48.1150 C   0  0  0  0  0  0  0  0  0  0  0  0
   62.3960   31.2630   49.5280 C   0  0  0  0  0  0  0  0  0  0  0  0
   63.4360   31.8650   50.2610 C   0  0  0  0  0  0  0  0  0  0  0  0
   63.4380   31.8190   51.6530 C   0  0  0  0  0  0  0  0  0  0  0  0
   62.4130   31.1700   52.3350 C   0  0  0  0  0  0  0  0  0  0  0  0
   61.3550   30.5870   51.6350 C   0  0  0  0  0  0  0  0  0  0  0  0
   61.2950   30.6490   50.2210 C   0  0  0  0  0  0  0  0  0  0  0  0
   60.2240   30.1210   49.5080 N   0  0  0  0  0  0  0  0  0  0  0  0
   58.9660   29.7270   50.1640 C   0  0  0  0  0  0  0  0  0  0  0  0
   60.3410   30.0390   48.1440 C   0  0  0  0  0  0  0  0  0  0  0  0
   61.3880   30.6090   47.4580 C   0  0  0  0  0  0  0  0  0  0  0  0
   61.2740   30.4280   46.1600 O   0  0  0  0  0  0  0  0  0  0  0  0
   60.1780   29.7280   45.9700 C   0  0  0  0  0  0  0  0  0  0  0  0
   59.6880   29.2760   44.7520 C   0  0  0  0  0  0  0  0  0  0  0  0
   58.5200   28.4980   44.7570 C   0  0  0  0  0  0  0  0  0  0  0  0
   57.8720   28.1700   45.9790 C   0  0  0  0  0  0  0  0  0  0  0  0
   56.7050   27.3920   46.0200 O   0  0  0  0  0  0  0  0  0  0  0  0
   56.6720   26.0090   46.3590 C   0  0  0  0  0  0  0  0  0  0  0  0
   57.6470   25.1820   45.4890 C   0  0  0  0  0  0  0  0  0  0  0  0
   57.1860   23.8130   45.0770 N   0  0  0  0  0  0  0  0  0  0  0  0
   56.4890   23.1620   46.2220 C   0  0  0  0  0  0  0  0  0  0  0  0
   58.4190   23.0290   44.7520 C   0  0  0  0  0  0  0  0  0  0  0  0
   58.1420   21.6000   44.2290 C   0  0  0  0  0  0  0  0  0  0  0  0
   56.8950   21.5140   43.3370 C   0  0  0  0  0  0  0  0  0  0  0  0
   56.5350   22.8770   42.7640 C   0  0  0  0  0  0  0  0  0  0  0  0
   56.2710   23.9090   43.8800 C   0  0  0  0  0  0  0  0  0  0  0  0
   58.4040   28.6320   47.2000 C   0  0  0  0  0  0  0  0  0  0  0  0
   59.5460   29.4410   47.1660 C   0  0  0  0  0  0  0  0  0  0  0  0
   60.3363   34.3685   44.4414 H   0  0  0  0  0  0  0  0  0  0  0  0
   58.7143   33.7407   43.9922 H   0  0  0  0  0  0  0  0  0  0  0  0
   59.0242   35.5101   43.9922 H   0  0  0  0  0  0  0  0  0  0  0  0
   59.3690   35.4454   46.4543 H   0  0  0  0  0  0  0  0  0  0  0  0
   57.7384   34.8296   45.9971 H   0  0  0  0  0  0  0  0  0  0  0  0
   58.0944   31.6773   47.4333 H   0  0  0  0  0  0  0  0  0  0  0  0
   57.0692   33.1414   47.1013 H   0  0  0  0  0  0  0  0  0  0  0  0
   56.8404   31.0418   45.5448 H   0  0  0  0  0  0  0  0  0  0  0  0
   56.9129   32.6832   44.8187 H   0  0  0  0  0  0  0  0  0  0  0  0
   58.3723   31.6358   44.8187 H   0  0  0  0  0  0  0  0  0  0  0  0
   59.1924   34.2239   48.5596 H   0  0  0  0  0  0  0  0  0  0  0  0
   59.9431   32.5630   48.3848 H   0  0  0  0  0  0  0  0  0  0  0  0
   61.1512   35.2574   48.0219 H   0  0  0  0  0  0  0  0  0  0  0  0
   61.8879   33.6767   48.5055 H   0  0  0  0  0  0  0  0  0  0  0  0
   63.4993   33.8062   45.4691 H   0  0  0  0  0  0  0  0  0  0  0  0
   63.4030   35.1786   46.6466 H   0  0  0  0  0  0  0  0  0  0  0  0
   64.8898   33.3914   47.4813 H   0  0  0  0  0  0  0  0  0  0  0  0
   63.4147   33.5800   48.5171 H   0  0  0  0  0  0  0  0  0  0  0  0
   64.2400   31.2000   47.0480 H   0  0  0  0  0  0  0  0  0  0  0  0
   64.2532   32.3756   49.7305 H   0  0  0  0  0  0  0  0  0  0  0  0
   64.2531   32.2976   52.2157 H   0  0  0  0  0  0  0  0  0  0  0  0
   62.4366   31.1160   53.4334 H   0  0  0  0  0  0  0  0  0  0  0  0
   60.5565   30.0721   52.1894 H   0  0  0  0  0  0  0  0  0  0  0  0
   59.0937   29.7670   51.2558 H   0  0  0  0  0  0  0  0  0  0  0  0
   58.1638   30.4169   49.8631 H   0  0  0  0  0  0  0  0  0  0  0  0
   58.7007   28.7027   49.8631 H   0  0  0  0  0  0  0  0  0  0  0  0
   60.2007   29.5207   43.8100 H   0  0  0  0  0  0  0  0  0  0  0  0
   58.1016   28.1383   43.8054 H   0  0  0  0  0  0  0  0  0  0  0  0
   56.9533   25.8946   47.4162 H   0  0  0  0  0  0  0  0  0  0  0  0
   55.6527   25.6367   46.1791 H   0  0  0  0  0  0  0  0  0  0  0  0
   57.8459   25.7569   44.5725 H   0  0  0  0  0  0  0  0  0  0  0  0
   58.5289   25.0118   46.1241 H   0  0  0  0  0  0  0  0  0  0  0  0
   56.8999   23.5457   47.1675 H   0  0  0  0  0  0  0  0  0  0  0  0
   55.4133   23.3862   46.1719 H   0  0  0  0  0  0  0  0  0  0  0  0
   56.6394   22.0735   46.1719 H   0  0  0  0  0  0  0  0  0  0  0  0
   58.9821   23.5754   43.9810 H   0  0  0  0  0  0  0  0  0  0  0  0
   58.9802   22.9185   45.6916 H   0  0  0  0  0  0  0  0  0  0  0  0
   59.0129   21.2661   43.6458 H   0  0  0  0  0  0  0  0  0  0  0  0
   57.9620   20.9601   45.1054 H   0  0  0  0  0  0  0  0  0  0  0  0
   57.0931   20.8174   42.5091 H   0  0  0  0  0  0  0  0  0  0  0  0
   56.0524   21.1589   43.9485 H   0  0  0  0  0  0  0  0  0  0  0  0
   57.3669   23.2325   42.1382 H   0  0  0  0  0  0  0  0  0  0  0  0
   55.6156   22.7691   42.1698 H   0  0  0  0  0  0  0  0  0  0  0  0
   56.3824   24.9140   43.4468 H   0  0  0  0  0  0  0  0  0  0  0  0
   55.2578   23.7001   44.2540 H   0  0  0  0  0  0  0  0  0  0  0  0
   57.9329   28.3631   48.1569 H   0  0  0  0  0  0  0  0  0  0  0  0
  1  2  1  0
  2  3  1  0
  3  4  1  0
  4  5  1  0
  3  6  1  0
  6  7  1  0
  7  8  1  0
  8  9  1  0
  9 10  1  0
 10 11  1  0
 11 12  1  0
 12 13  2  0
 13 14  1  0
 14 15  2  0
 15 16  1  0
 16 17  2  0
 17 18  1  0
 18 19  2  0
 19 20  1  0
 19 21  1  0
 21 22  2  0
 22 23  1  0
 23 24  1  0
 24 25  2  0
 25 26  1  0
 26 27  2  0
 27 28  1  0
 28 29  1  0
 29 30  1  0
 30 31  1  0
 31 32  1  0
 31 33  1  0
 33 34  1  0
 34 35  1  0
 35 36  1  0
 36 37  1  0
 27 38  1  0
 38 39  2  0
 22 12  1  0
 39 24  1  0
 18 13  1  0
 39 21  1  0
 37 31  1  0
  1 40  1  0
  1 41  1  0
  1 42  1  0
  2 43  1  0
  2 44  1  0
  4 45  1  0
  4 46  1  0
  5 47  1  0
  5 48  1  0
  5 49  1  0
  6 50  1  0
  6 51  1  0
  7 52  1  0
  7 53  1  0
  9 54  1  0
  9 55  1  0
 10 56  1  0
 10 57  1  0
 11 58  1  0
 14 59  1  0
 15 60  1  0
 16 61  1  0
 17 62  1  0
 20 63  1  0
 20 64  1  0
 20 65  1  0
 25 66  1  0
 26 67  1  0
 29 68  1  0
 29 69  1  0
 30 70  1  0
 30 71  1  0
 32 72  1  0
 32 73  1  0
 32 74  1  0
 33 75  1  0
 33 76  1  0
 34 77  1  0
 34 78  1  0
 35 79  1  0
 35 80  1  0
 36 81  1  0
 36 82  1  0
 37 83  1  0
 37 84  1  0
 38 85  1  0
M  CHG  2  19   1  31   1
M  END
>  <UniqueID>  (25) 
25

>  <SMILES>  (25) 
CCN(CC)CCOCCNc1c2ccccc2[n+](C)c2c1oc1ccc(OCC[N+]3(C)CCCCC3)cc12

>  <Energy>  (25) 
170.81206025775546

>  <Genealogy>  (25) 
CCN(CC)CCOCCNc1c2ccccc2[n+](C)c2c1oc1ccc(OCC[N+]3(C)CCCCC3)cc12 (3D coordinates assigned)
CCN(CC)CCOCCNc1c2ccccc2[n+](C)c2c1oc1ccc(OCC[N+]3(C)CCCCC3)cc12 (nonaromatic ring conformer: 170.81206025775546 kcal/mol)

>  <smiles>  (25) 
CCN(CC)CCOCCNc1c2ccccc2[n+](C)c2c1oc1ccc(OCC[N+]3(C)CCCCC3)cc12

>  <score_type>  (25) 
oracle

>  <origin>  (25) 
adg

>  <m_score__min__energy>  (25) 
-5.6699999999999999

>  <m_primary>  (25) 
energy

$$$$
25:0
     RDKit          3D

 43 44  0  0  0  0  0  0  0  0999 V2000
   58.1360   26.8210   42.6150 C   0  0  0  0  0  0  0  0  0  0  0  0
   58.1330   26.8020   44.1480 C   0  0  0  0  0  0  0  0  0  0  0  0
   58.5810   28.0940   44.7370 N   0  0  0  0  0  0  0  0  0  0  0  0
   59.8970   28.5070   44.1750 C   0  0  0  0  0  0  0  0  0  0  0  0
   60.9210   28.9680   45.2230 C   0  0  0  0  0  0  0  0  0  0  0  0
   58.5660   28.0330   46.2230 C   0  0  0  0  0  0  0  0  0  0  0  0
   58.1950   29.3710   46.8760 C   0  0  0  0  0  0  0  0  0  0  0  0
   57.3340   30.0990   46.0020 O   0  0  0  0  0  0  0  0  0  0  0  0
   57.7210   31.2150   45.2420 C   0  0  0  0  0  0  0  0  0  0  0  0
   57.5950   31.2320   43.8380 C   0  0  0  0  0  0  0  0  0  0  0  0
   57.9760   32.3580   43.0960 C   0  0  0  0  0  0  0  0  0  0  0  0
   57.8710   32.3430   41.5990 C   0  0  0  0  0  0  0  0  0  0  0  0
   58.5190   33.4700   43.7510 C   0  0  0  0  0  0  0  0  0  0  0  0
   58.6530   33.4760   45.1450 C   0  0  0  0  0  0  0  0  0  0  0  0
   59.1860   34.5980   45.8000 C   0  0  0  0  0  0  0  0  0  0  0  0
   59.3200   34.6040   47.1900 C   0  0  0  0  0  0  0  0  0  0  0  0
   58.9240   33.4940   47.9370 C   0  0  0  0  0  0  0  0  0  0  0  0
   58.3920   32.3690   47.3010 C   0  0  0  0  0  0  0  0  0  0  0  0
   58.2500   32.3450   45.9000 C   0  0  0  0  0  0  0  0  0  0  0  0
   58.2986   27.8498   42.2614 H   0  0  0  0  0  0  0  0  0  0  0  0
   58.9429   26.1732   42.2419 H   0  0  0  0  0  0  0  0  0  0  0  0
   57.1687   26.4536   42.2419 H   0  0  0  0  0  0  0  0  0  0  0  0
   57.1108   26.5918   44.4958 H   0  0  0  0  0  0  0  0  0  0  0  0
   58.8399   26.0245   44.4732 H   0  0  0  0  0  0  0  0  0  0  0  0
   57.9000   28.8340   44.4440 H   0  0  0  0  0  0  0  0  0  0  0  0
   60.3229   27.6502   43.6322 H   0  0  0  0  0  0  0  0  0  0  0  0
   59.7019   29.3735   43.5261 H   0  0  0  0  0  0  0  0  0  0  0  0
   60.5202   28.7876   46.2314 H   0  0  0  0  0  0  0  0  0  0  0  0
   61.8567   28.4043   45.0941 H   0  0  0  0  0  0  0  0  0  0  0  0
   61.1193   30.0423   45.0941 H   0  0  0  0  0  0  0  0  0  0  0  0
   57.8319   27.2756   46.5350 H   0  0  0  0  0  0  0  0  0  0  0  0
   59.5846   27.7787   46.5514 H   0  0  0  0  0  0  0  0  0  0  0  0
   57.6785   29.1841   47.8291 H   0  0  0  0  0  0  0  0  0  0  0  0
   59.1080   29.9548   47.0647 H   0  0  0  0  0  0  0  0  0  0  0  0
   57.1924   30.3500   43.3183 H   0  0  0  0  0  0  0  0  0  0  0  0
   56.8212   32.1930   41.3066 H   0  0  0  0  0  0  0  0  0  0  0  0
   58.2304   33.3016   41.1966 H   0  0  0  0  0  0  0  0  0  0  0  0
   58.4844   31.5234   41.1966 H   0  0  0  0  0  0  0  0  0  0  0  0
   58.8423   34.3443   43.1670 H   0  0  0  0  0  0  0  0  0  0  0  0
   59.4993   35.4758   45.2157 H   0  0  0  0  0  0  0  0  0  0  0  0
   59.7387   35.4858   47.6972 H   0  0  0  0  0  0  0  0  0  0  0  0
   59.0311   33.5045   49.0317 H   0  0  0  0  0  0  0  0  0  0  0  0
   58.0827   31.4981   47.8975 H   0  0  0  0  0  0  0  0  0  0  0  0
  1  2  1  0
  2  3  1  0
  3  4  1  0
  4  5  1  0
  3  6  1  0
  6  7  1  0
  7  8  1  0
  8  9  1  0
  9 10  2  0
 10 11  1  0
 11 12  1  0
 11 13  2  0
 13 14  1  0
 14 15  2  0
 15 16  1  0
 16 17  2  0
 17 18  1  0
 18 19  2  0
 19  9  1  0
 19 14  1  0
  1 20  1  0
  1 21  1  0
  1 22  1  0
  2 23  1  0
  2 24  1  0
  3 25  1  0
  4 26  1  0
  4 27  1  0
  5 28  1  0
  5 29  1  0
  5 30  1  0
  6 31  1  0
  6 32  1  0
  7 33  1  0
  7 34  1  0
 10 35  1  0
 12 36  1  0
 12 37  1  0
 12 38  1  0
 13 39  1  0
 15 40  1  0
 16 41  1  0
 17 42  1  0
 18 43  1  0
M  CHG  1   3   1
M  END
>  <UniqueID>  (26) 
26

>  <SMILES>  (26) 
CC[NH+](CC)CCOc1cc(C)cc2ccccc12

>  <Energy>  (26) 
46.74246723674024

>  <Genealogy>  (26) 
CC[NH+](CC)CCOc1cc(C)cc2ccccc12 (protonated)
CC[NH+](CC)CCOc1cc(C)cc2ccccc12 (3D coordinates assigned)
CC[NH+](CC)CCOc1cc(C)cc2ccccc12 (optimized conformer: 46.74246723674024 kcal/mol)

>  <smiles>  (26) 
CCN(CC)CCOc1cc(C)cc2ccccc12

>  <score_type>  (26) 
oracle

>  <origin>  (26) 
adg

>  <m_score__min__energy>  (26) 
-4.3700000000000001

>  <m_primary>  (26) 
energy

$$$$
26:0
     RDKit          3D

 34 36  0  0  0  0  0  0  0  0999 V2000
   61.8700   31.2550   48.2030 C   0  0  0  0  0  0  0  0  0  0  0  0
   60.9930   30.1420   47.7080 C   0  0  0  0  0  0  0  0  0  0  0  0
   60.2680   29.3580   48.6140 C   0  0  0  0  0  0  0  0  0  0  0  0
   59.4220   28.3450   48.1520 C   0  0  0  0  0  0  0  0  0  0  0  0
   59.2800   28.1060   46.7730 C   0  0  0  0  0  0  0  0  0  0  0  0
   58.3820   27.0310   46.2800 C   0  0  0  0  0  0  0  0  0  0  0  0
   56.9860   27.1720   46.3660 C   0  0  0  0  0  0  0  0  0  0  0  0
   56.1300   26.1620   45.9030 C   0  0  0  0  0  0  0  0  0  0  0  0
   54.7470   26.3260   45.9940 O   0  0  0  0  0  0  0  0  0  0  0  0
   56.6720   24.9890   45.3470 C   0  0  0  0  0  0  0  0  0  0  0  0
   55.8560   23.9500   44.8720 C   0  0  0  0  0  0  0  0  0  0  0  0
   56.4340   22.8020   44.3280 C   0  0  0  0  0  0  0  0  0  0  0  0
   57.8290   22.6950   44.2610 C   0  0  0  0  0  0  0  0  0  0  0  0
   58.4660   21.4730   43.6830 C   0  0  0  0  0  0  0  0  0  0  0  0
   58.6080   23.7100   44.7240 N   0  0  0  0  0  0  0  0  0  0  0  0
   58.0750   24.8420   45.2590 C   0  0  0  0  0  0  0  0  0  0  0  0
   58.9180   25.8570   45.7220 C   0  0  0  0  0  0  0  0  0  0  0  0
   59.9990   28.9080   45.8670 C   0  0  0  0  0  0  0  0  0  0  0  0
   60.8420   29.9220   46.3310 C   0  0  0  0  0  0  0  0  0  0  0  0
   61.8726   31.2582   49.3030 H   0  0  0  0  0  0  0  0  0  0  0  0
   62.8955   31.1053   47.8344 H   0  0  0  0  0  0  0  0  0  0  0  0
   61.4846   32.2171   47.8344 H   0  0  0  0  0  0  0  0  0  0  0  0
   60.3645   29.5400   49.6945 H   0  0  0  0  0  0  0  0  0  0  0  0
   58.8630   27.7300   48.8727 H   0  0  0  0  0  0  0  0  0  0  0  0
   56.5591   28.0870   46.8024 H   0  0  0  0  0  0  0  0  0  0  0  0
   54.3350   27.1700   46.3740 H   0  0  0  0  0  0  0  0  0  0  0  0
   54.7612   24.0407   44.9286 H   0  0  0  0  0  0  0  0  0  0  0  0
   55.7979   21.9862   43.9541 H   0  0  0  0  0  0  0  0  0  0  0  0
   58.8077   20.8175   44.4976 H   0  0  0  0  0  0  0  0  0  0  0  0
   57.7332   20.9359   43.0630 H   0  0  0  0  0  0  0  0  0  0  0  0
   59.3260   21.7662   43.0630 H   0  0  0  0  0  0  0  0  0  0  0  0
   60.0089   25.7361   45.6491 H   0  0  0  0  0  0  0  0  0  0  0  0
   59.8968   28.7355   44.7854 H   0  0  0  0  0  0  0  0  0  0  0  0
   61.3894   30.5502   45.6129 H   0  0  0  0  0  0  0  0  0  0  0  0
  1  2  1  0
  2  3  2  0
  3  4  1  0
  4  5  2  0
  5  6  1  0
  6  7  2  0
  7  8  1  0
  8  9  1  0
  8 10  2  0
 10 11  1  0
 11 12  2  0
 12 13  1  0
 13 14  1  0
 13 15  2  0
 15 16  1  0
 16 17  2  0
  5 18  1  0
 18 19  2  0
 19  2  1  0
 17  6  1  0
 16 10  1  0
  1 20  1  0
  1 21  1  0
  1 22  1  0
  3 23  1  0
  4 24  1  0
  7 25  1  0
  9 26  1  0
 11 27  1  0
 12 28  1  0
 14 29  1  0
 14 30  1  0
 14 31  1  0
 17 32  1  0
 18 33  1  0
 19 34  1  0
M  END
>  <UniqueID>  (27) 
27

>  <SMILES>  (27) 
Cc1ccc(-c2cc(O)c3ccc(C)nc3c2)cc1

>  <Energy>  (27) 
43.323643110413286

>  <Genealogy>  (27) 
Cc1ccc(-c2cc(O)c3ccc(C)nc3c2)cc1 (3D coordinates assigned)
Cc1ccc(-c2cc(O)c3ccc(C)nc3c2)cc1 (optimized conformer: 43.323643110413286 kcal/mol)

>  <smiles>  (27) 
Cc1ccc(-c2cc(O)c3ccc(C)nc3c2)cc1

>  <score_type>  (27) 
oracle

>  <origin>  (27) 
adg

>  <m_score__min__energy>  (27) 
-7.3600000000000003

>  <m_primary>  (27) 
energy

$$$$
27:0
     RDKit          3D

 33 35  0  0  0  0  0  0  0  0999 V2000
   58.1230   32.3390   41.9030 C   0  0  0  0  0  0  0  0  0  0  0  0
   57.7410   32.1040   43.2950 N   0  0  0  0  0  0  0  0  0  0  0  0
   57.0570   31.0480   43.8170 C   0  0  0  0  0  0  0  0  0  0  0  0
   56.4460   29.9470   43.0000 C   0  0  0  0  0  0  0  0  0  0  0  0
   57.1030   28.6700   43.2860 N   0  0  0  0  0  0  0  0  0  0  0  0
   57.8950   28.4050   44.4600 C   0  0  0  0  0  0  0  0  0  0  0  0
   57.2730   27.8570   45.5950 C   0  0  0  0  0  0  0  0  0  0  0  0
   58.0120   27.5900   46.7510 C   0  0  0  0  0  0  0  0  0  0  0  0
   59.3830   27.8630   46.7850 C   0  0  0  0  0  0  0  0  0  0  0  0
   60.3910   27.4980   48.3660 Br  0  0  0  0  0  0  0  0  0  0  0  0
   60.0150   28.3970   45.6590 C   0  0  0  0  0  0  0  0  0  0  0  0
   59.2790   28.6650   44.5010 C   0  0  0  0  0  0  0  0  0  0  0  0
   56.9590   31.0880   45.1710 N   0  0  0  0  0  0  0  0  0  0  0  0
   57.6260   32.2110   45.4930 C   0  0  0  0  0  0  0  0  0  0  0  0
   57.8530   32.7270   46.7660 C   0  0  0  0  0  0  0  0  0  0  0  0
   58.6070   33.9120   46.8680 C   0  0  0  0  0  0  0  0  0  0  0  0
   59.1140   34.5390   45.7080 C   0  0  0  0  0  0  0  0  0  0  0  0
   58.8670   33.9910   44.4350 C   0  0  0  0  0  0  0  0  0  0  0  0
   58.1070   32.8200   44.3710 C   0  0  0  0  0  0  0  0  0  0  0  0
   59.0595   32.9151   41.8721 H   0  0  0  0  0  0  0  0  0  0  0  0
   58.2690   31.3743   41.3950 H   0  0  0  0  0  0  0  0  0  0  0  0
   57.3278   32.9043   41.3950 H   0  0  0  0  0  0  0  0  0  0  0  0
   55.3764   29.8663   43.2439 H   0  0  0  0  0  0  0  0  0  0  0  0
   56.5754   30.1822   41.9333 H   0  0  0  0  0  0  0  0  0  0  0  0
   56.9500   27.8920   42.6050 H   0  0  0  0  0  0  0  0  0  0  0  0
   56.1956   27.6364   45.5734 H   0  0  0  0  0  0  0  0  0  0  0  0
   57.5145   27.1646   47.6350 H   0  0  0  0  0  0  0  0  0  0  0  0
   61.0945   28.6071   45.6838 H   0  0  0  0  0  0  0  0  0  0  0  0
   59.7835   29.0813   43.6166 H   0  0  0  0  0  0  0  0  0  0  0  0
   57.4569   32.2261   47.6616 H   0  0  0  0  0  0  0  0  0  0  0  0
   58.8024   34.3521   47.8570 H   0  0  0  0  0  0  0  0  0  0  0  0
   59.7058   35.4617   45.8001 H   0  0  0  0  0  0  0  0  0  0  0  0
   59.2580   34.4672   43.5238 H   0  0  0  0  0  0  0  0  0  0  0  0
  1  2  1  0
  2  3  1  0
  3  4  1  0
  4  5  1  0
  5  6  1  0
  6  7  2  0
  7  8  1  0
  8  9  2  0
  9 10  1  0
  9 11  1  0
 11 12  2  0
  3 13  2  0
 13 14  1  0
 14 15  2  0
 15 16  1  0
 16 17  2  0
 17 18  1  0
 18 19  2  0
 19  2  1  0
 12  6  1  0
 19 14  1  0
  1 20  1  0
  1 21  1  0
  1 22  1  0
  4 23  1  0
  4 24  1  0
  5 25  1  0
  7 26  1  0
  8 27  1  0
 11 28  1  0
 12 29  1  0
 15 30  1  0
 16 31  1  0
 17 32  1  0
 18 33  1  0
M  END
>  <UniqueID>  (28) 
28

>  <SMILES>  (28) 
Cn1c(CNc2ccc(Br)cc2)nc2ccccc21

>  <Energy>  (28) 
71.16870285531832

>  <Genealogy>  (28) 
Cn1c(CNc2ccc(Br)cc2)nc2ccccc21 (3D coordinates assigned)
Cn1c(CNc2ccc(Br)cc2)nc2ccccc21 (optimized conformer: 71.16870285531832 kcal/mol)

>  <smiles>  (28) 
Cn1c(CNc2ccc(Br)cc2)nc2ccccc21

>  <score_type>  (28) 
oracle

>  <origin>  (28) 
adg

>  <m_score__min__energy>  (28) 
-7.7699999999999996

>  <m_primary>  (28) 
energy

$$$$
28:0
     RDKit          3D

110116  0  0  0  0  0  0  0  0999 V2000
   63.4740   32.5990   47.1510 C   0  0  0  0  0  0  0  0  0  0  0  0
   62.4790   32.4380   48.2970 C   0  0  0  0  0  0  0  0  0  0  0  0
   61.6230   33.6310   48.4320 N   0  0  0  0  0  0  0  0  0  0  0  0
   62.0540   34.7210   49.3290 C   0  0  0  0  0  0  0  0  0  0  0  0
   62.7720   34.1990   50.5950 C   0  0  0  0  0  0  0  0  0  0  0  0
   61.8180   33.6780   51.6860 C   0  0  0  0  0  0  0  0  0  0  0  0
   61.4620   32.2810   51.4480 N   0  0  0  0  0  0  0  0  0  0  0  0
   60.2080   31.8770   50.8770 C   0  0  0  0  0  0  0  0  0  0  0  0
   59.3770   32.7690   50.5580 O   0  0  0  0  0  0  0  0  0  0  0  0
   59.9010   30.3930   50.5930 C   0  0  2  0  0  0  0  0  0  0  0  0
   59.7430   29.6140   51.9370 C   0  0  0  0  0  0  0  0  0  0  0  0
   61.0540   29.4610   52.7130 C   0  0  0  0  0  0  0  0  0  0  0  0
   62.0540   28.6370   51.9050 C   0  0  2  0  0  0  0  0  0  0  0  0
   63.3300   28.3820   52.7260 C   0  0  0  0  0  0  0  0  0  0  0  0
   62.3290   29.2680   50.4980 C   0  0  2  0  0  0  0  0  0  0  0  0
   63.3410   30.4380   50.5820 C   0  0  0  0  0  0  0  0  0  0  0  0
   61.0320   29.7270   49.7220 C   0  0  1  0  0  0  0  0  0  0  0  0
   60.4030   28.7050   48.7580 C   0  0  0  0  0  0  0  0  0  0  0  0
   60.2390   27.4330   49.1550 C   0  0  0  0  0  0  0  0  0  0  0  0
   59.2900   26.4550   48.5490 C   0  0  0  0  0  0  0  0  0  0  0  0
   58.1900   27.0610   47.6300 C   0  0  2  0  0  0  0  0  0  0  0  0
   57.3740   25.9180   46.8430 C   0  0  2  0  0  0  0  0  0  0  0  0
   55.8960   26.4090   46.6360 C   0  0  0  0  0  0  0  0  0  0  0  0
   57.2710   24.6110   47.6980 C   0  0  0  0  0  0  0  0  0  0  0  0
   56.4780   23.5590   46.9900 C   0  0  0  0  0  0  0  0  0  0  0  0
   55.5540   22.8220   47.6600 N   0  0  0  0  0  0  0  0  0  0  0  0
   54.7950   21.8940   47.0200 C   0  0  0  0  0  0  0  0  0  0  0  0
   54.9690   21.6940   45.6510 C   0  0  0  0  0  0  0  0  0  0  0  0
   55.9000   22.4240   44.9840 N   0  0  0  0  0  0  0  0  0  0  0  0
   56.6520   23.3740   45.6120 C   0  0  0  0  0  0  0  0  0  0  0  0
   57.7800   24.0890   44.8780 C   0  0  0  0  0  0  0  0  0  0  0  0
   57.4380   24.1660   43.3680 C   0  0  0  0  0  0  0  0  0  0  0  0
   59.0220   23.1690   45.0220 C   0  0  0  0  0  0  0  0  0  0  0  0
   58.0180   25.5810   45.4290 C   0  0  2  0  0  0  0  0  0  0  0  0
   59.5050   26.0200   45.3170 C   0  0  0  0  0  0  0  0  0  0  0  0
   59.8360   27.4710   45.7420 C   0  0  0  0  0  0  0  0  0  0  0  0
   58.8220   28.1730   46.7120 C   0  0  1  0  0  0  0  0  0  0  0  0
   57.7360   28.8780   45.8270 C   0  0  0  0  0  0  0  0  0  0  0  0
   59.5580   29.3000   47.6160 C   0  0  2  0  0  0  0  0  0  0  0  0
   60.5320   30.1230   46.6940 C   0  0  0  0  0  0  0  0  0  0  0  0
   58.5420   30.3120   48.3050 C   0  0  0  0  0  0  0  0  0  0  0  0
   58.5100   30.3110   49.8570 C   0  0  0  0  0  0  0  0  0  0  0  0
   60.4870   33.8060   47.5500 C   0  0  0  0  0  0  0  0  0  0  0  0
   59.2230   33.2810   47.8860 C   0  0  0  0  0  0  0  0  0  0  0  0
   58.1310   33.4530   47.0310 C   0  0  0  0  0  0  0  0  0  0  0  0
   58.2780   34.1670   45.8420 C   0  0  0  0  0  0  0  0  0  0  0  0
   59.5160   34.7220   45.5110 C   0  0  0  0  0  0  0  0  0  0  0  0
   60.6120   34.5490   46.3600 C   0  0  0  0  0  0  0  0  0  0  0  0
   64.4818   32.7621   47.5606 H   0  0  0  0  0  0  0  0  0  0  0  0
   63.4721   31.6889   46.5332 H   0  0  0  0  0  0  0  0  0  0  0  0
   63.1852   33.4621   46.5332 H   0  0  0  0  0  0  0  0  0  0  0  0
   61.8442   31.5614   48.1005 H   0  0  0  0  0  0  0  0  0  0  0  0
   63.0432   32.3067   49.2321 H   0  0  0  0  0  0  0  0  0  0  0  0
   62.7431   35.3786   48.7788 H   0  0  0  0  0  0  0  0  0  0  0  0
   61.1527   35.2607   49.6552 H   0  0  0  0  0  0  0  0  0  0  0  0
   63.4410   33.3774   50.2993 H   0  0  0  0  0  0  0  0  0  0  0  0
   63.3148   35.0523   51.0278 H   0  0  0  0  0  0  0  0  0  0  0  0
   62.3120   33.7613   52.6653 H   0  0  0  0  0  0  0  0  0  0  0  0
   60.8989   34.2820   51.6648 H   0  0  0  0  0  0  0  0  0  0  0  0
   62.1740   31.5700   51.7070 H   0  0  0  0  0  0  0  0  0  0  0  0
   59.0247   30.1551   52.5705 H   0  0  0  0  0  0  0  0  0  0  0  0
   59.3968   28.6009   51.6845 H   0  0  0  0  0  0  0  0  0  0  0  0
   61.4783   30.4568   52.9088 H   0  0  0  0  0  0  0  0  0  0  0  0
   60.8498   28.9455   53.6630 H   0  0  0  0  0  0  0  0  0  0  0  0
   61.6102   27.6523   51.6965 H   0  0  0  0  0  0  0  0  0  0  0  0
   63.0914   28.4297   53.7988 H   0  0  0  0  0  0  0  0  0  0  0  0
   63.7294   27.3863   52.4831 H   0  0  0  0  0  0  0  0  0  0  0  0
   64.0814   29.1477   52.4831 H   0  0  0  0  0  0  0  0  0  0  0  0
   62.7670   28.4481   49.9098 H   0  0  0  0  0  0  0  0  0  0  0  0
   63.5437   30.6724   51.6374 H   0  0  0  0  0  0  0  0  0  0  0  0
   64.2782   30.1486   50.0841 H   0  0  0  0  0  0  0  0  0  0  0  0
   62.9196   31.3237   50.0841 H   0  0  0  0  0  0  0  0  0  0  0  0
   61.4848   30.5151   49.1025 H   0  0  0  0  0  0  0  0  0  0  0  0
   60.8552   27.0834   49.9964 H   0  0  0  0  0  0  0  0  0  0  0  0
   59.8760   25.7426   47.9497 H   0  0  0  0  0  0  0  0  0  0  0  0
   58.7550   25.9948   49.3928 H   0  0  0  0  0  0  0  0  0  0  0  0
   57.4251   27.5610   48.2423 H   0  0  0  0  0  0  0  0  0  0  0  0
   55.4214   26.5667   47.6157 H   0  0  0  0  0  0  0  0  0  0  0  0
   55.8991   27.3544   46.0737 H   0  0  0  0  0  0  0  0  0  0  0  0
   55.3327   25.6497   46.0737 H   0  0  0  0  0  0  0  0  0  0  0  0
   58.2840   24.2276   47.8898 H   0  0  0  0  0  0  0  0  0  0  0  0
   56.7611   24.8533   48.6421 H   0  0  0  0  0  0  0  0  0  0  0  0
   54.0504   21.3061   47.5767 H   0  0  0  0  0  0  0  0  0  0  0  0
   54.3579   20.9519   45.1163 H   0  0  0  0  0  0  0  0  0  0  0  0
   56.3716   24.4061   43.2454 H   0  0  0  0  0  0  0  0  0  0  0  0
   58.0472   24.9495   42.8936 H   0  0  0  0  0  0  0  0  0  0  0  0
   57.6526   23.1971   42.8936 H   0  0  0  0  0  0  0  0  0  0  0  0
   59.2381   23.0090   46.0886 H   0  0  0  0  0  0  0  0  0  0  0  0
   58.8194   22.2013   44.5397 H   0  0  0  0  0  0  0  0  0  0  0  0
   59.8886   23.6448   44.5397 H   0  0  0  0  0  0  0  0  0  0  0  0
   57.4331   26.2091   44.7410 H   0  0  0  0  0  0  0  0  0  0  0  0
   60.1004   25.3439   45.9481 H   0  0  0  0  0  0  0  0  0  0  0  0
   59.7399   25.9728   44.2434 H   0  0  0  0  0  0  0  0  0  0  0  0
   60.8169   27.4564   46.2397 H   0  0  0  0  0  0  0  0  0  0  0  0
   59.7991   28.0585   44.8128 H   0  0  0  0  0  0  0  0  0  0  0  0
   56.9912   29.3615   46.4763 H   0  0  0  0  0  0  0  0  0  0  0  0
   58.2166   29.6368   45.1920 H   0  0  0  0  0  0  0  0  0  0  0  0
   57.2385   28.1302   45.1920 H   0  0  0  0  0  0  0  0  0  0  0  0
   61.2231   30.7070   47.3196 H   0  0  0  0  0  0  0  0  0  0  0  0
   61.1066   29.4326   46.0589 H   0  0  0  0  0  0  0  0  0  0  0  0
   59.9472   30.8047   46.0589 H   0  0  0  0  0  0  0  0  0  0  0  0
   58.8076   31.3277   47.9767 H   0  0  0  0  0  0  0  0  0  0  0  0
   57.5415   29.9783   47.9927 H   0  0  0  0  0  0  0  0  0  0  0  0
   57.9111   31.1757   50.1787 H   0  0  0  0  0  0  0  0  0  0  0  0
   58.0916   29.3330   50.1371 H   0  0  0  0  0  0  0  0  0  0  0  0
   59.0948   32.7308   48.8299 H   0  0  0  0  0  0  0  0  0  0  0  0
   57.1534   33.0243   47.2964 H   0  0  0  0  0  0  0  0  0  0  0  0
   57.4197   34.2928   45.1656 H   0  0  0  0  0  0  0  0  0  0  0  0
   59.6285   35.2966   44.5798 H   0  0  0  0  0  0  0  0  0  0  0  0
   61.5814   34.9972   46.0967 H   0  0  0  0  0  0  0  0  0  0  0  0
  1  2  1  0
  2  3  1  0
  3  4  1  0
  4  5  1  0
  5  6  1  0
  6  7  1  0
  7  8  1  0
  8  9  2  0
 10  8  1  1
 10 11  1  0
 11 12  1  0
 12 13  1  0
 13 14  1  0
 13 15  1  0
 15 16  1  0
 15 17  1  0
 17 18  1  0
 18 19  2  0
 19 20  1  0
 20 21  1  0
 21 22  1  0
 22 23  1  6
 22 24  1  0
 24 25  1  0
 25 26  2  0
 26 27  1  0
 27 28  2  0
 28 29  1  0
 29 30  2  0
 30 31  1  0
 31 32  1  0
 31 33  1  0
 31 34  1  0
 34 35  1  0
 35 36  1  0
 36 37  1  0
 37 38  1  6
 37 39  1  0
 39 40  1  6
 39 41  1  0
 41 42  1  0
  3 43  1  0
 43 44  2  0
 44 45  1  0
 45 46  2  0
 46 47  1  0
 47 48  2  0
 17 10  1  0
 39 18  1  0
 48 43  1  0
 42 10  1  0
 37 21  1  0
 34 22  1  0
 30 25  1  0
  1 49  1  0
  1 50  1  0
  1 51  1  0
  2 52  1  0
  2 53  1  0
  4 54  1  0
  4 55  1  0
  5 56  1  0
  5 57  1  0
  6 58  1  0
  6 59  1  0
  7 60  1  0
 11 61  1  0
 11 62  1  0
 12 63  1  0
 12 64  1  0
 13 65  1  6
 14 66  1  0
 14 67  1  0
 14 68  1  0
 15 69  1  6
 16 70  1  0
 16 71  1  0
 16 72  1  0
 17 73  1  6
 19 74  1  0
 20 75  1  0
 20 76  1  0
 21 77  1  1
 23 78  1  0
 23 79  1  0
 23 80  1  0
 24 81  1  0
 24 82  1  0
 27 83  1  0
 28 84  1  0
 32 85  1  0
 32 86  1  0
 32 87  1  0
 33 88  1  0
 33 89  1  0
 33 90  1  0
 34 91  1  6
 35 92  1  0
 35 93  1  0
 36 94  1  0
 36 95  1  0
 38 96  1  0
 38 97  1  0
 38 98  1  0
 40 99  1  0
 40100  1  0
 40101  1  0
 41102  1  0
 41103  1  0
 42104  1  0
 42105  1  0
 44106  1  0
 45107  1  0
 46108  1  0
 47109  1  0
 48110  1  0
M  END
>  <UniqueID>  (29) 
29

>  <SMILES>  (29) 
CCN(CCCNC(=O)[C@]12CC[C@H](C)C(C)C1C1=CCC3C4(C)Cc5nccnc5C(C)(C)C4CCC3(C)C1(C)CC2)c1ccccc1

>  <Energy>  (29) 
196.98149484224467

>  <Genealogy>  (29) 
CCN(CCCNC(=O)[C@]12CC[C@H](C)C(C)C1C1=CCC3C4(C)Cc5nccnc5C(C)(C)C4CCC3(C)C1(C)CC2)c1ccccc1 (chirality)
CCN(CCCNC(=O)[C@]12CC[C@H](C)C(C)C1C1=CCC3C4(C)Cc5nccnc5C(C)(C)C4CCC3(C)C1(C)CC2)c1ccccc1 (3D coordinates assigned)
CCN(CCCNC(=O)[C@]12CC[C@H](C)C(C)C1C1=CCC3C4(C)Cc5nccnc5C(C)(C)C4CCC3(C)C1(C)CC2)c1ccccc1 (nonaromatic ring conformer: 196.98149484224467 kcal/mol)

>  <smiles>  (29) 
CCN(CCCNC(=O)C12CCC(C)C(C)C1C1=CCC3C4(C)Cc5nccnc5C(C)(C)C4CCC3(C)C1(C)CC2)c1ccccc1

>  <score_type>  (29) 
oracle

>  <origin>  (29) 
adg

>  <m_score__min__energy>  (29) 
-9.4499999999999993

>  <m_primary>  (29) 
energy

$$$$
