0:0
     RDKit          3D

 54 55  0  0  0  0  0  0  0  0999 V2000
   56.2790   29.6520   42.8660 C   0  0  0  0  0  0  0  0  0  0  0  0
   55.5240   30.1450   44.0950 C   0  0  0  0  0  0  0  0  0  0  0  0
   55.7820   29.2990   45.2000 O   0  0  0  0  0  0  0  0  0  0  0  0
   56.9810   28.5780   45.0030 C   0  0  0  0  0  0  0  0  0  0  0  0
   58.1500   29.3960   45.5470 C   0  0  0  0  0  0  0  0  0  0  0  0
   58.3720   30.5350   44.7340 O   0  0  0  0  0  0  0  0  0  0  0  0
   58.9980   31.5810   45.4620 C   0  0  1  0  0  0  0  0  0  0  0  0
   58.5200   32.9340   44.8960 C   0  0  0  0  0  0  0  0  0  0  0  0
   57.2170   33.3870   45.5620 C   0  0  0  0  0  0  0  0  0  0  0  0
   57.3780   33.5020   47.0940 C   0  0  0  0  0  0  0  0  0  0  0  0
   58.5690   32.7790   47.5940 N   0  0  0  0  0  0  0  0  0  0  0  0
   58.5390   32.6820   49.0650 C   0  0  0  0  0  0  0  0  0  0  0  0
   59.9380   32.7620   49.6190 C   0  0  0  0  0  0  0  0  0  0  0  0
   60.1040   32.6900   50.8300 O   0  0  0  0  0  0  0  0  0  0  0  0
   61.0750   32.9010   48.7280 N   0  0  0  0  0  0  0  0  0  0  0  0
   61.7840   31.6150   48.6090 C   0  0  0  0  0  0  0  0  0  0  0  0
   62.8980   31.7090   47.5480 C   0  0  0  0  0  0  0  0  0  0  0  0
   63.6160   33.0070   47.5550 N   0  0  0  0  0  0  0  0  0  0  0  0
   63.3060   33.8350   46.3780 C   0  0  0  0  0  0  0  0  0  0  0  0
   63.4540   33.7590   48.8150 C   0  0  0  0  0  0  0  0  0  0  0  0
   61.9710   33.9950   49.1840 C   0  0  0  0  0  0  0  0  0  0  0  0
   58.6630   31.4450   46.9670 C   0  0  0  0  0  0  0  0  0  0  0  0
   57.1607   29.0762   43.1839 H   0  0  0  0  0  0  0  0  0  0  0  0
   55.6195   29.0100   42.2636 H   0  0  0  0  0  0  0  0  0  0  0  0
   56.6016   30.5140   42.2636 H   0  0  0  0  0  0  0  0  0  0  0  0
   55.8508   31.1673   44.3361 H   0  0  0  0  0  0  0  0  0  0  0  0
   54.4451   30.1359   43.8806 H   0  0  0  0  0  0  0  0  0  0  0  0
   56.9247   27.6168   45.5350 H   0  0  0  0  0  0  0  0  0  0  0  0
   57.1282   28.3892   43.9294 H   0  0  0  0  0  0  0  0  0  0  0  0
   57.9197   29.7210   46.5723 H   0  0  0  0  0  0  0  0  0  0  0  0
   59.0559   28.7720   45.5447 H   0  0  0  0  0  0  0  0  0  0  0  0
   60.0914   31.5216   45.3572 H   0  0  0  0  0  0  0  0  0  0  0  0
   59.2966   33.6920   45.0757 H   0  0  0  0  0  0  0  0  0  0  0  0
   58.3354   32.8137   43.8183 H   0  0  0  0  0  0  0  0  0  0  0  0
   56.9308   34.3690   45.1574 H   0  0  0  0  0  0  0  0  0  0  0  0
   56.4409   32.6367   45.3506 H   0  0  0  0  0  0  0  0  0  0  0  0
   57.4731   34.5651   47.3600 H   0  0  0  0  0  0  0  0  0  0  0  0
   56.4909   33.0469   47.5587 H   0  0  0  0  0  0  0  0  0  0  0  0
   57.9390   33.5093   49.4718 H   0  0  0  0  0  0  0  0  0  0  0  0
   58.0929   31.7186   49.3528 H   0  0  0  0  0  0  0  0  0  0  0  0
   60.7110   33.1500   47.7780 H   0  0  0  0  0  0  0  0  0  0  0  0
   62.2303   31.3564   49.5806 H   0  0  0  0  0  0  0  0  0  0  0  0
   61.0660   30.8398   48.3032 H   0  0  0  0  0  0  0  0  0  0  0  0
   63.6270   30.9072   47.7370 H   0  0  0  0  0  0  0  0  0  0  0  0
   62.4157   31.6121   46.5641 H   0  0  0  0  0  0  0  0  0  0  0  0
   62.9380   34.8178   46.7077 H   0  0  0  0  0  0  0  0  0  0  0  0
   64.2153   33.9679   45.7734 H   0  0  0  0  0  0  0  0  0  0  0  0
   62.5330   33.3380   45.7734 H   0  0  0  0  0  0  0  0  0  0  0  0
   63.9325   33.1919   49.6270 H   0  0  0  0  0  0  0  0  0  0  0  0
   63.9221   34.7446   48.6756 H   0  0  0  0  0  0  0  0  0  0  0  0
   61.8917   34.0793   50.2779 H   0  0  0  0  0  0  0  0  0  0  0  0
   61.6492   34.9156   48.6752 H   0  0  0  0  0  0  0  0  0  0  0  0
   59.4549   30.8654   47.4641 H   0  0  0  0  0  0  0  0  0  0  0  0
   57.6964   30.9309   47.0733 H   0  0  0  0  0  0  0  0  0  0  0  0
  1  2  1  0
  2  3  1  0
  3  4  1  0
  4  5  1  0
  5  6  1  0
  6  7  1  0
  7  8  1  0
  8  9  1  0
  9 10  1  0
 10 11  1  0
 11 12  1  0
 12 13  1  0
 13 14  2  0
 13 15  1  0
 15 16  1  0
 16 17  1  0
 17 18  1  0
 18 19  1  0
 18 20  1  0
 20 21  1  0
 11 22  1  0
 22  7  1  0
 21 15  1  0
  1 23  1  0
  1 24  1  0
  1 25  1  0
  2 26  1  0
  2 27  1  0
  4 28  1  0
  4 29  1  0
  5 30  1  0
  5 31  1  0
  7 32  1  1
  8 33  1  0
  8 34  1  0
  9 35  1  0
  9 36  1  0
 10 37  1  0
 10 38  1  0
 12 39  1  0
 12 40  1  0
 15 41  1  0
 16 42  1  0
 16 43  1  0
 17 44  1  0
 17 45  1  0
 19 46  1  0
 19 47  1  0
 19 48  1  0
 20 49  1  0
 20 50  1  0
 21 51  1  0
 21 52  1  0
 22 53  1  0
 22 54  1  0
M  CHG  1  15   1
M  END
>  <UniqueID>  (1) 
1

>  <SMILES>  (1) 
CCOCCO[C@H]1CCCN(CC(=O)[NH+]2CCN(C)CC2)C1

>  <Energy>  (1) 
67.69211288043225

>  <Genealogy>  (1) 
CCOCCOC1CCCN(CC(=O)[NH+]2CCN(C)CC2)C1 (protonated)
CCOCCO[C@H]1CCCN(CC(=O)[NH+]2CCN(C)CC2)C1 (chirality)
CCOCCO[C@H]1CCCN(CC(=O)[NH+]2CCN(C)CC2)C1 (3D coordinates assigned)
CCOCCO[C@H]1CCCN(CC(=O)[NH+]2CCN(C)CC2)C1 (nonaromatic ring conformer: 67.69211288043225 kcal/mol)

>  <smiles>  (1) 
CCOCCOC1CCCN(CC(=O)N2CCN(C)CC2)C1

>  <score_type>  (1) 
oracle

>  <origin>  (1) 
adg

>  <m_score__min__energy>  (1) 
-5.8899999999999997

>  <m_primary>  (1) 
energy

$$$$
1:0
     RDKit          3D

 49 50  0  0  0  0  0  0  0  0999 V2000
   59.9820   29.1460   49.4150 C   0  0  0  0  0  0  0  0  0  0  0  0
   60.6960   27.8280   49.1360 C   0  0  0  0  0  0  0  0  0  0  0  0
   60.3880   27.3520   47.8240 O   0  0  0  0  0  0  0  0  0  0  0  0
   59.6130   28.0300   46.8700 C   0  0  0  0  0  0  0  0  0  0  0  0
   60.1320   29.0510   46.0490 C   0  0  0  0  0  0  0  0  0  0  0  0
   59.3120   29.6910   45.1160 C   0  0  0  0  0  0  0  0  0  0  0  0
   57.9670   29.3220   44.9880 C   0  0  0  0  0  0  0  0  0  0  0  0
   56.9110   30.1280   43.8310 S   0  0  0  0  0  0  0  0  0  0  0  0
   55.6000   30.4120   44.5090 O   0  0  0  0  0  0  0  0  0  0  0  0
   56.6510   29.2410   42.6450 O   0  0  0  0  0  0  0  0  0  0  0  0
   57.6370   31.6330   43.3120 N   0  0  0  0  0  0  0  0  0  0  0  0
   57.3550   31.9760   41.9030 C   0  0  0  0  0  0  0  0  0  0  0  0
   58.4990   32.7140   41.1920 C   0  0  0  0  0  0  0  0  0  0  0  0
   57.3970   32.7380   44.2630 C   0  0  0  0  0  0  0  0  0  0  0  0
   58.6970   33.5100   44.4990 C   0  0  0  0  0  0  0  0  0  0  0  0
   59.0550   33.5440   45.9620 C   0  0  0  0  0  0  0  0  0  0  0  0
   59.9430   34.5160   46.4510 C   0  0  0  0  0  0  0  0  0  0  0  0
   60.2250   34.5900   47.8180 C   0  0  0  0  0  0  0  0  0  0  0  0
   59.6060   33.7090   48.7170 C   0  0  0  0  0  0  0  0  0  0  0  0
   59.9320   33.7700   50.1800 C   0  0  0  0  0  0  0  0  0  0  0  0
   58.7260   32.7320   48.2290 C   0  0  0  0  0  0  0  0  0  0  0  0
   58.4460   32.6550   46.8620 C   0  0  0  0  0  0  0  0  0  0  0  0
   57.4490   28.3040   45.7980 C   0  0  0  0  0  0  0  0  0  0  0  0
   58.2690   27.6630   46.7310 C   0  0  0  0  0  0  0  0  0  0  0  0
   59.9007   29.2961   50.5017 H   0  0  0  0  0  0  0  0  0  0  0  0
   60.5548   29.9742   48.9723 H   0  0  0  0  0  0  0  0  0  0  0  0
   58.9754   29.1186   48.9723 H   0  0  0  0  0  0  0  0  0  0  0  0
   61.7821   27.9817   49.2182 H   0  0  0  0  0  0  0  0  0  0  0  0
   60.3584   27.0817   49.8702 H   0  0  0  0  0  0  0  0  0  0  0  0
   61.1876   29.3455   46.1431 H   0  0  0  0  0  0  0  0  0  0  0  0
   59.7245   30.4878   44.4796 H   0  0  0  0  0  0  0  0  0  0  0  0
   57.1531   31.0438   41.3551 H   0  0  0  0  0  0  0  0  0  0  0  0
   56.4946   32.6613   41.9113 H   0  0  0  0  0  0  0  0  0  0  0  0
   59.1755   33.1504   41.9415 H   0  0  0  0  0  0  0  0  0  0  0  0
   59.0573   32.0053   40.5626 H   0  0  0  0  0  0  0  0  0  0  0  0
   58.0835   33.5148   40.5626 H   0  0  0  0  0  0  0  0  0  0  0  0
   56.6384   33.4182   43.8486 H   0  0  0  0  0  0  0  0  0  0  0  0
   57.0415   32.3244   45.2183 H   0  0  0  0  0  0  0  0  0  0  0  0
   59.5102   33.0213   43.9423 H   0  0  0  0  0  0  0  0  0  0  0  0
   58.5548   34.5441   44.1520 H   0  0  0  0  0  0  0  0  0  0  0  0
   60.4188   35.2224   45.7549 H   0  0  0  0  0  0  0  0  0  0  0  0
   60.9356   35.3425   48.1905 H   0  0  0  0  0  0  0  0  0  0  0  0
   59.0175   33.5989   50.7669 H   0  0  0  0  0  0  0  0  0  0  0  0
   60.6740   32.9951   50.4230 H   0  0  0  0  0  0  0  0  0  0  0  0
   60.3436   34.7607   50.4230 H   0  0  0  0  0  0  0  0  0  0  0  0
   58.2541   32.0232   48.9254 H   0  0  0  0  0  0  0  0  0  0  0  0
   57.7448   31.8939   46.4892 H   0  0  0  0  0  0  0  0  0  0  0  0
   56.3941   28.0080   45.6998 H   0  0  0  0  0  0  0  0  0  0  0  0
   57.8546   26.8628   47.3619 H   0  0  0  0  0  0  0  0  0  0  0  0
  1  2  1  0
  2  3  1  0
  3  4  1  0
  4  5  2  0
  5  6  1  0
  6  7  2  0
  7  8  1  0
  8  9  2  0
  8 10  2  0
  8 11  1  0
 11 12  1  0
 12 13  1  0
 11 14  1  0
 14 15  1  0
 15 16  1  0
 16 17  2  0
 17 18  1  0
 18 19  2  0
 19 20  1  0
 19 21  1  0
 21 22  2  0
  7 23  1  0
 23 24  2  0
 24  4  1  0
 22 16  1  0
  1 25  1  0
  1 26  1  0
  1 27  1  0
  2 28  1  0
  2 29  1  0
  5 30  1  0
  6 31  1  0
 12 32  1  0
 12 33  1  0
 13 34  1  0
 13 35  1  0
 13 36  1  0
 14 37  1  0
 14 38  1  0
 15 39  1  0
 15 40  1  0
 17 41  1  0
 18 42  1  0
 20 43  1  0
 20 44  1  0
 20 45  1  0
 21 46  1  0
 22 47  1  0
 23 48  1  0
 24 49  1  0
M  END
>  <UniqueID>  (2) 
2

>  <SMILES>  (2) 
CCOc1ccc(S(=O)(=O)N(CC)CCc2ccc(C)cc2)cc1

>  <Energy>  (2) 
44.44933076835661

>  <Genealogy>  (2) 
CCOc1ccc(S(=O)(=O)N(CC)CCc2ccc(C)cc2)cc1 (3D coordinates assigned)
CCOc1ccc(S(=O)(=O)N(CC)CCc2ccc(C)cc2)cc1 (optimized conformer: 44.44933076835661 kcal/mol)

>  <smiles>  (2) 
CCOc1ccc(S(=O)(=O)N(CC)CCc2ccc(C)cc2)cc1

>  <score_type>  (2) 
oracle

>  <origin>  (2) 
adg

>  <m_score__min__energy>  (2) 
-7.75

>  <m_primary>  (2) 
energy

$$$$
2:0
     RDKit          3D

 62 64  0  0  0  0  0  0  0  0999 V2000
   59.8550   33.6560   50.2760 C   0  0  0  0  0  0  0  0  0  0  0  0
   61.1450   33.8310   49.4700 C   0  0  0  0  0  0  0  0  0  0  0  0
   60.9620   33.6820   48.0050 N   0  0  0  0  0  0  0  0  0  0  0  0
   62.1920   33.8310   47.1920 C   0  0  0  0  0  0  0  0  0  0  0  0
   63.1740   32.6970   47.4530 C   0  0  0  0  0  0  0  0  0  0  0  0
   59.8370   34.4930   47.4810 C   0  0  0  0  0  0  0  0  0  0  0  0
   58.8790   33.5950   46.6880 C   0  0  0  0  0  0  0  0  0  0  0  0
   59.6200   32.6020   45.8910 N   0  0  0  0  0  0  0  0  0  0  0  0
   58.9450   31.3150   45.9090 C   0  0  0  0  0  0  0  0  0  0  0  0
   58.1460   30.9030   44.8040 C   0  0  0  0  0  0  0  0  0  0  0  0
   57.8640   31.7750   43.7200 C   0  0  0  0  0  0  0  0  0  0  0  0
   57.0650   31.3650   42.6530 C   0  0  0  0  0  0  0  0  0  0  0  0
   56.5280   30.0850   42.6350 C   0  0  0  0  0  0  0  0  0  0  0  0
   56.7780   29.2110   43.6890 C   0  0  0  0  0  0  0  0  0  0  0  0
   57.5770   29.6010   44.7880 C   0  0  0  0  0  0  0  0  0  0  0  0
   57.7950   28.7140   45.8680 C   0  0  0  0  0  0  0  0  0  0  0  0
   56.9890   27.5270   45.9630 N   0  0  0  0  0  0  0  0  0  0  0  0
   57.3290   26.3250   45.2020 C   0  0  0  0  0  0  0  0  0  0  0  0
   56.5300   25.1250   45.6950 C   0  0  0  0  0  0  0  0  0  0  0  0
   55.2710   25.5600   46.1550 O   0  0  0  0  0  0  0  0  0  0  0  0
   54.2640   24.7350   45.6220 C   0  0  0  0  0  0  0  0  0  0  0  0
   58.6570   29.0810   46.9340 C   0  0  0  0  0  0  0  0  0  0  0  0
   59.1110   30.4290   47.0110 C   0  0  0  0  0  0  0  0  0  0  0  0
   59.7200   30.8510   48.2100 C   0  0  0  0  0  0  0  0  0  0  0  0
   59.9430   29.9560   49.2440 C   0  0  0  0  0  0  0  0  0  0  0  0
   59.6370   28.6170   49.0650 C   0  0  0  0  0  0  0  0  0  0  0  0
   59.0630   28.1770   47.9060 N   0  0  0  0  0  0  0  0  0  0  0  0
   59.0070   26.7150   47.7180 C   0  0  0  0  0  0  0  0  0  0  0  0
   60.0871   33.6875   51.3508 H   0  0  0  0  0  0  0  0  0  0  0  0
   59.1548   34.4674   50.0281 H   0  0  0  0  0  0  0  0  0  0  0  0
   59.3963   32.6874   50.0281 H   0  0  0  0  0  0  0  0  0  0  0  0
   61.5443   34.8365   49.6689 H   0  0  0  0  0  0  0  0  0  0  0  0
   61.8323   33.0337   49.7892 H   0  0  0  0  0  0  0  0  0  0  0  0
   61.9187   33.8290   46.1265 H   0  0  0  0  0  0  0  0  0  0  0  0
   62.6769   34.7784   47.4700 H   0  0  0  0  0  0  0  0  0  0  0  0
   63.2941   32.5583   48.5376 H   0  0  0  0  0  0  0  0  0  0  0  0
   62.7897   31.7688   47.0050 H   0  0  0  0  0  0  0  0  0  0  0  0
   64.1476   32.9447   47.0050 H   0  0  0  0  0  0  0  0  0  0  0  0
   59.2959   34.9537   48.3206 H   0  0  0  0  0  0  0  0  0  0  0  0
   60.2310   35.2792   46.8202 H   0  0  0  0  0  0  0  0  0  0  0  0
   58.2154   33.0691   47.3903 H   0  0  0  0  0  0  0  0  0  0  0  0
   58.2945   34.2268   46.0030 H   0  0  0  0  0  0  0  0  0  0  0  0
   59.7480   32.9310   44.9090 H   0  0  0  0  0  0  0  0  0  0  0  0
   60.6010   32.5170   46.2390 H   0  0  0  0  0  0  0  0  0  0  0  0
   58.2831   32.7920   43.7216 H   0  0  0  0  0  0  0  0  0  0  0  0
   56.8598   32.0577   41.8235 H   0  0  0  0  0  0  0  0  0  0  0  0
   55.9051   29.7616   41.7880 H   0  0  0  0  0  0  0  0  0  0  0  0
   56.3464   28.1994   43.6664 H   0  0  0  0  0  0  0  0  0  0  0  0
   56.2880   27.4420   46.7370 H   0  0  0  0  0  0  0  0  0  0  0  0
   57.1032   26.4959   44.1391 H   0  0  0  0  0  0  0  0  0  0  0  0
   58.3999   26.1141   45.3383 H   0  0  0  0  0  0  0  0  0  0  0  0
   56.3928   24.4109   44.8696 H   0  0  0  0  0  0  0  0  0  0  0  0
   57.0724   24.6338   46.5163 H   0  0  0  0  0  0  0  0  0  0  0  0
   53.6975   24.2709   46.4428 H   0  0  0  0  0  0  0  0  0  0  0  0
   53.5843   25.3392   45.0032 H   0  0  0  0  0  0  0  0  0  0  0  0
   54.7227   23.9497   45.0032 H   0  0  0  0  0  0  0  0  0  0  0  0
   60.0216   31.9025   48.3262 H   0  0  0  0  0  0  0  0  0  0  0  0
   60.3599   30.3062   50.1998 H   0  0  0  0  0  0  0  0  0  0  0  0
   59.8593   27.8979   49.8672 H   0  0  0  0  0  0  0  0  0  0  0  0
   58.9880   26.2195   48.6999 H   0  0  0  0  0  0  0  0  0  0  0  0
   58.0981   26.4520   47.1570 H   0  0  0  0  0  0  0  0  0  0  0  0
   59.8931   26.3833   47.1570 H   0  0  0  0  0  0  0  0  0  0  0  0
  1  2  1  0
  2  3  1  0
  3  4  1  0
  4  5  1  0
  3  6  1  0
  6  7  1  0
  7  8  1  0
  8  9  1  0
  9 10  2  0
 10 11  1  0
 11 12  2  0
 12 13  1  0
 13 14  2  0
 14 15  1  0
 15 16  2  0
 16 17  1  0
 17 18  1  0
 18 19  1  0
 19 20  1  0
 20 21  1  0
 16 22  1  0
 22 23  2  0
 23 24  1  0
 24 25  2  0
 25 26  1  0
 26 27  2  0
 27 28  1  0
 23  9  1  0
 15 10  1  0
 27 22  1  0
  1 29  1  0
  1 30  1  0
  1 31  1  0
  2 32  1  0
  2 33  1  0
  4 34  1  0
  4 35  1  0
  5 36  1  0
  5 37  1  0
  5 38  1  0
  6 39  1  0
  6 40  1  0
  7 41  1  0
  7 42  1  0
  8 43  1  0
  8 44  1  0
 11 45  1  0
 12 46  1  0
 13 47  1  0
 14 48  1  0
 17 49  1  0
 18 50  1  0
 18 51  1  0
 19 52  1  0
 19 53  1  0
 21 54  1  0
 21 55  1  0
 21 56  1  0
 24 57  1  0
 25 58  1  0
 26 59  1  0
 28 60  1  0
 28 61  1  0
 28 62  1  0
M  CHG  2   8   1  27   1
M  END
>  <UniqueID>  (3) 
3

>  <SMILES>  (3) 
CCN(CC)CC[NH2+]c1c2ccccc2c(NCCOC)c2c1ccc[n+]2C

>  <Energy>  (3) 
94.51415045608753

>  <Genealogy>  (3) 
CCN(CC)CC[NH2+]c1c2ccccc2c(NCCOC)c2c1ccc[n+]2C (protonated)
CCN(CC)CC[NH2+]c1c2ccccc2c(NCCOC)c2c1ccc[n+]2C (3D coordinates assigned)
CCN(CC)CC[NH2+]c1c2ccccc2c(NCCOC)c2c1ccc[n+]2C (optimized conformer: 94.51415045608753 kcal/mol)

>  <smiles>  (3) 
CCN(CC)CCNc1c2ccccc2c(NCCOC)c2c1ccc[n+]2C

>  <score_type>  (3) 
oracle

>  <origin>  (3) 
adg

>  <m_score__min__energy>  (3) 
-4.6299999999999999

>  <m_primary>  (3) 
energy

$$$$
3:0
     RDKit          3D

 36 38  0  0  0  0  0  0  0  0999 V2000
   60.7590   28.2430   49.3860 C   0  0  0  0  0  0  0  0  0  0  0  0
   59.9670   27.7410   48.2150 C   0  0  0  0  0  0  0  0  0  0  0  0
   60.5200   26.7950   47.3390 C   0  0  0  0  0  0  0  0  0  0  0  0
   59.7720   26.3090   46.2630 C   0  0  0  0  0  0  0  0  0  0  0  0
   58.4560   26.7520   46.0560 C   0  0  0  0  0  0  0  0  0  0  0  0
   57.6740   26.2670   44.8670 C   0  0  0  0  0  0  0  0  0  0  0  0
   58.1440   27.1760   43.3520 S   0  0  0  0  0  0  0  0  0  0  0  0
   57.6410   28.7840   43.9770 C   0  0  0  0  0  0  0  0  0  0  0  0
   56.3840   29.2490   43.9010 N   0  0  0  0  0  0  0  0  0  0  0  0
   56.3480   30.4300   44.4970 N   0  0  0  0  0  0  0  0  0  0  0  0
   57.6010   30.6780   44.9340 C   0  0  0  0  0  0  0  0  0  0  0  0
   57.9470   31.9070   45.6810 C   0  0  0  0  0  0  0  0  0  0  0  0
   58.5410   31.9280   46.9390 C   0  0  0  0  0  0  0  0  0  0  0  0
   58.7920   33.2200   47.4190 C   0  0  0  0  0  0  0  0  0  0  0  0
   58.4050   34.2250   46.5450 C   0  0  0  0  0  0  0  0  0  0  0  0
   57.7530   33.5020   45.1760 S   0  0  0  0  0  0  0  0  0  0  0  0
   58.4430   29.6630   44.6130 N   0  0  0  0  0  0  0  0  0  0  0  0
   59.8780   29.5370   44.8700 C   0  0  0  0  0  0  0  0  0  0  0  0
   57.8960   27.6830   46.9460 C   0  0  0  0  0  0  0  0  0  0  0  0
   58.6440   28.1700   48.0220 C   0  0  0  0  0  0  0  0  0  0  0  0
   60.2688   27.9323   50.3205 H   0  0  0  0  0  0  0  0  0  0  0  0
   61.7753   27.8238   49.3481 H   0  0  0  0  0  0  0  0  0  0  0  0
   60.8136   29.3410   49.3481 H   0  0  0  0  0  0  0  0  0  0  0  0
   61.5467   26.4342   47.4997 H   0  0  0  0  0  0  0  0  0  0  0  0
   60.2169   25.5754   45.5746 H   0  0  0  0  0  0  0  0  0  0  0  0
   57.8735   25.1954   44.7191 H   0  0  0  0  0  0  0  0  0  0  0  0
   56.6047   26.4392   45.0592 H   0  0  0  0  0  0  0  0  0  0  0  0
   55.5610   28.7730   43.4700 H   0  0  0  0  0  0  0  0  0  0  0  0
   58.7898   31.0169   47.5030 H   0  0  0  0  0  0  0  0  0  0  0  0
   59.2530   33.4188   48.3977 H   0  0  0  0  0  0  0  0  0  0  0  0
   58.5072   35.3065   46.7180 H   0  0  0  0  0  0  0  0  0  0  0  0
   60.0561   29.5214   45.9554 H   0  0  0  0  0  0  0  0  0  0  0  0
   60.2498   28.6028   44.4239 H   0  0  0  0  0  0  0  0  0  0  0  0
   60.4069   30.3922   44.4239 H   0  0  0  0  0  0  0  0  0  0  0  0
   56.8633   28.0309   46.7956 H   0  0  0  0  0  0  0  0  0  0  0  0
   58.1945   28.8918   48.7199 H   0  0  0  0  0  0  0  0  0  0  0  0
  1  2  1  0
  2  3  2  0
  3  4  1  0
  4  5  2  0
  5  6  1  0
  6  7  1  0
  7  8  1  0
  8  9  2  0
  9 10  1  0
 10 11  2  0
 11 12  1  0
 12 13  2  0
 13 14  1  0
 14 15  2  0
 15 16  1  0
 11 17  1  0
 17 18  1  0
  5 19  1  0
 19 20  2  0
 20  2  1  0
 17  8  1  0
 16 12  1  0
  1 21  1  0
  1 22  1  0
  1 23  1  0
  3 24  1  0
  4 25  1  0
  6 26  1  0
  6 27  1  0
  9 28  1  0
 13 29  1  0
 14 30  1  0
 15 31  1  0
 18 32  1  0
 18 33  1  0
 18 34  1  0
 19 35  1  0
 20 36  1  0
M  CHG  1   9   1
M  END
>  <UniqueID>  (4) 
4

>  <SMILES>  (4) 
Cc1ccc(CSc2[nH+]nc(-c3cccs3)n2C)cc1

>  <Energy>  (4) 
93.41788497247954

>  <Genealogy>  (4) 
Cc1ccc(CSc2[nH+]nc(-c3cccs3)n2C)cc1 (protonated)
Cc1ccc(CSc2[nH+]nc(-c3cccs3)n2C)cc1 (3D coordinates assigned)
Cc1ccc(CSc2[nH+]nc(-c3cccs3)n2C)cc1 (optimized conformer: 93.41788497247954 kcal/mol)

>  <smiles>  (4) 
Cc1ccc(CSc2nnc(-c3cccs3)n2C)cc1

>  <score_type>  (4) 
oracle

>  <origin>  (4) 
adg

>  <m_score__min__energy>  (4) 
-5.6200000000000001

>  <m_primary>  (4) 
energy

$$$$
4:0
     RDKit          3D

 50 52  0  0  0  0  0  0  0  0999 V2000
   59.3160   33.0980   50.2900 C   0  0  0  0  0  0  0  0  0  0  0  0
   58.5220   32.1160   49.4360 C   0  0  0  0  0  0  0  0  0  0  0  0
   59.1720   31.8930   48.1850 O   0  0  0  0  0  0  0  0  0  0  0  0
   58.5330   31.6520   46.9560 C   0  0  0  0  0  0  0  0  0  0  0  0
   58.3980   30.3480   46.4250 C   0  0  0  0  0  0  0  0  0  0  0  0
   57.7750   30.1770   45.1880 C   0  0  0  0  0  0  0  0  0  0  0  0
   57.2870   31.2430   44.4860 C   0  0  0  0  0  0  0  0  0  0  0  0
   57.3960   32.5410   44.9790 C   0  0  0  0  0  0  0  0  0  0  0  0
   58.0290   32.7560   46.2180 C   0  0  0  0  0  0  0  0  0  0  0  0
   58.2240   34.1730   46.6960 C   0  0  0  0  0  0  0  0  0  0  0  0
   59.6340   34.4220   47.0390 N   0  0  0  0  0  0  0  0  0  0  0  0
   60.5550   34.1270   45.9260 C   0  0  0  0  0  0  0  0  0  0  0  0
   61.9760   33.8360   46.4300 C   0  0  0  0  0  0  0  0  0  0  0  0
   61.9500   33.2460   47.7870 N   0  0  0  0  0  0  0  0  0  0  0  0
   62.1110   31.7760   47.7270 C   0  0  0  0  0  0  0  0  0  0  0  0
   62.5860   31.2200   49.0800 C   0  0  0  0  0  0  0  0  0  0  0  0
   63.8460   31.7280   49.4990 O   0  0  0  0  0  0  0  0  0  0  0  0
   64.1610   33.0000   48.9500 C   0  0  0  0  0  0  0  0  0  0  0  0
   62.9230   33.8840   48.7090 C   0  0  0  0  0  0  0  0  0  0  0  0
   56.6960   30.8380   43.1900 C   0  0  0  0  0  0  0  0  0  0  0  0
   56.8490   29.3050   43.1740 C   0  0  0  0  0  0  0  0  0  0  0  0
   57.5760   28.8970   44.4710 C   0  0  0  0  0  0  0  0  0  0  0  0
   59.1417   32.8824   51.3545 H   0  0  0  0  0  0  0  0  0  0  0  0
   60.3880   32.9954   50.0659 H   0  0  0  0  0  0  0  0  0  0  0  0
   58.9912   34.1248   50.0659 H   0  0  0  0  0  0  0  0  0  0  0  0
   58.4346   31.1598   49.9727 H   0  0  0  0  0  0  0  0  0  0  0  0
   57.5251   32.5400   49.2452 H   0  0  0  0  0  0  0  0  0  0  0  0
   58.7796   29.4787   46.9806 H   0  0  0  0  0  0  0  0  0  0  0  0
   56.9919   33.3889   44.4065 H   0  0  0  0  0  0  0  0  0  0  0  0
   57.9191   34.8672   45.8990 H   0  0  0  0  0  0  0  0  0  0  0  0
   57.6105   34.3281   47.5958 H   0  0  0  0  0  0  0  0  0  0  0  0
   59.8740   33.7820   47.8320 H   0  0  0  0  0  0  0  0  0  0  0  0
   60.1835   33.2482   45.3786 H   0  0  0  0  0  0  0  0  0  0  0  0
   60.5964   35.0095   45.2706 H   0  0  0  0  0  0  0  0  0  0  0  0
   62.4641   33.1309   45.7411 H   0  0  0  0  0  0  0  0  0  0  0  0
   62.5326   34.7839   46.4719 H   0  0  0  0  0  0  0  0  0  0  0  0
   61.1447   31.3182   47.4688 H   0  0  0  0  0  0  0  0  0  0  0  0
   62.8661   31.5361   46.9639 H   0  0  0  0  0  0  0  0  0  0  0  0
   61.8370   31.4780   49.8431 H   0  0  0  0  0  0  0  0  0  0  0  0
   62.7040   30.1334   48.9561 H   0  0  0  0  0  0  0  0  0  0  0  0
   64.8335   33.5234   49.6455 H   0  0  0  0  0  0  0  0  0  0  0  0
   64.6312   32.8246   47.9711 H   0  0  0  0  0  0  0  0  0  0  0  0
   62.4276   34.0705   49.6733 H   0  0  0  0  0  0  0  0  0  0  0  0
   63.2626   34.8221   48.2457 H   0  0  0  0  0  0  0  0  0  0  0  0
   55.6356   31.1258   43.1367 H   0  0  0  0  0  0  0  0  0  0  0  0
   57.1855   31.3215   42.3317 H   0  0  0  0  0  0  0  0  0  0  0  0
   55.8580   28.8293   43.1336 H   0  0  0  0  0  0  0  0  0  0  0  0
   57.4214   28.9825   42.2918 H   0  0  0  0  0  0  0  0  0  0  0  0
   56.9581   28.2079   45.0654 H   0  0  0  0  0  0  0  0  0  0  0  0
   58.5212   28.3684   44.2782 H   0  0  0  0  0  0  0  0  0  0  0  0
  1  2  1  0
  2  3  1  0
  3  4  1  0
  4  5  2  0
  5  6  1  0
  6  7  2  0
  7  8  1  0
  8  9  2  0
  9 10  1  0
 10 11  1  0
 11 12  1  0
 12 13  1  0
 13 14  1  0
 14 15  1  0
 15 16  1  0
 16 17  1  0
 17 18  1  0
 18 19  1  0
  7 20  1  0
 20 21  1  0
 21 22  1  0
  9  4  1  0
 19 14  1  0
 22  6  1  0
  1 23  1  0
  1 24  1  0
  1 25  1  0
  2 26  1  0
  2 27  1  0
  5 28  1  0
  8 29  1  0
 10 30  1  0
 10 31  1  0
 11 32  1  0
 12 33  1  0
 12 34  1  0
 13 35  1  0
 13 36  1  0
 15 37  1  0
 15 38  1  0
 16 39  1  0
 16 40  1  0
 18 41  1  0
 18 42  1  0
 19 43  1  0
 19 44  1  0
 20 45  1  0
 20 46  1  0
 21 47  1  0
 21 48  1  0
 22 49  1  0
 22 50  1  0
M  END
>  <UniqueID>  (5) 
5

>  <SMILES>  (5) 
CCOc1cc2c(cc1CNCCN1CCOCC1)CCC2

>  <Energy>  (5) 
67.54027833102869

>  <Genealogy>  (5) 
CCOc1cc2c(cc1CNCCN1CCOCC1)CCC2 (3D coordinates assigned)
CCOc1cc2c(cc1CNCCN1CCOCC1)CCC2 (nonaromatic ring conformer: 67.54027833102869 kcal/mol)

>  <smiles>  (5) 
CCOc1cc2c(cc1CNCCN1CCOCC1)CCC2

>  <score_type>  (5) 
oracle

>  <origin>  (5) 
adg

>  <m_score__min__energy>  (5) 
-7.21

>  <m_primary>  (5) 
energy

$$$$
5:0
     RDKit          3D

 57 59  0  0  0  0  0  0  0  0999 V2000
   59.3450   34.9530   47.1330 C   0  0  0  0  0  0  0  0  0  0  0  0
   58.8800   34.2190   45.8790 C   0  0  0  0  0  0  0  0  0  0  0  0
   57.4000   33.8230   45.9850 C   0  0  0  0  0  0  0  0  0  0  0  0
   57.0550   32.6150   45.1080 C   0  0  0  0  0  0  0  0  0  0  0  0
   57.7370   31.4070   45.5970 N   0  0  0  0  0  0  0  0  0  0  0  0
   57.3030   30.1910   44.8910 C   0  0  0  0  0  0  0  0  0  0  0  0
   58.2550   29.0090   45.1110 C   0  0  0  0  0  0  0  0  0  0  0  0
   59.4980   29.4970   45.5730 O   0  0  0  0  0  0  0  0  0  0  0  0
   59.8760   28.8400   46.7690 C   0  0  0  0  0  0  0  0  0  0  0  0
   59.3830   29.6390   47.9840 C   0  0  0  0  0  0  0  0  0  0  0  0
   59.2890   31.0860   47.7080 N   0  0  0  0  0  0  0  0  0  0  0  0
   60.0140   31.8790   48.6960 C   0  0  0  0  0  0  0  0  0  0  0  0
   61.2690   32.4810   48.3870 C   0  0  0  0  0  0  0  0  0  0  0  0
   61.8900   32.3410   47.1180 C   0  0  0  0  0  0  0  0  0  0  0  0
   63.0740   33.0060   46.8120 C   0  0  0  0  0  0  0  0  0  0  0  0
   63.6710   33.8310   47.7510 C   0  0  0  0  0  0  0  0  0  0  0  0
   63.1150   33.9590   49.0180 C   0  0  0  0  0  0  0  0  0  0  0  0
   61.9380   33.2540   49.3820 C   0  0  0  0  0  0  0  0  0  0  0  0
   61.4400   33.3220   50.6660 N   0  0  0  0  0  0  0  0  0  0  0  0
   62.2960   33.8280   51.7630 C   0  0  0  0  0  0  0  0  0  0  0  0
   60.1630   32.8800   50.9400 C   0  0  0  0  0  0  0  0  0  0  0  0
   59.5270   33.1930   52.1690 C   0  0  0  0  0  0  0  0  0  0  0  0
   58.2720   32.6850   52.4850 C   0  0  0  0  0  0  0  0  0  0  0  0
   57.6090   31.8630   51.5860 C   0  0  0  0  0  0  0  0  0  0  0  0
   56.0350   31.2050   51.9980 Cl  0  0  0  0  0  0  0  0  0  0  0  0
   58.1820   31.5790   50.3470 C   0  0  0  0  0  0  0  0  0  0  0  0
   59.4480   32.1060   49.9830 C   0  0  0  0  0  0  0  0  0  0  0  0
   59.0006   34.4093   48.0250 H   0  0  0  0  0  0  0  0  0  0  0  0
   60.4436   35.0088   47.1391 H   0  0  0  0  0  0  0  0  0  0  0  0
   58.9262   35.9701   47.1391 H   0  0  0  0  0  0  0  0  0  0  0  0
   59.0141   34.8768   45.0076 H   0  0  0  0  0  0  0  0  0  0  0  0
   59.4790   33.3030   45.7688 H   0  0  0  0  0  0  0  0  0  0  0  0
   57.1747   33.5749   47.0327 H   0  0  0  0  0  0  0  0  0  0  0  0
   56.7987   34.6748   45.6346 H   0  0  0  0  0  0  0  0  0  0  0  0
   55.9676   32.4504   45.1313 H   0  0  0  0  0  0  0  0  0  0  0  0
   57.3879   32.8177   44.0794 H   0  0  0  0  0  0  0  0  0  0  0  0
   58.7700   31.5200   45.4680 H   0  0  0  0  0  0  0  0  0  0  0  0
   56.3034   29.9105   45.2545 H   0  0  0  0  0  0  0  0  0  0  0  0
   57.2951   30.4161   43.8143 H   0  0  0  0  0  0  0  0  0  0  0  0
   57.8267   28.3252   45.8586 H   0  0  0  0  0  0  0  0  0  0  0  0
   58.3980   28.4669   44.1646 H   0  0  0  0  0  0  0  0  0  0  0  0
   59.4306   27.8344   46.7889 H   0  0  0  0  0  0  0  0  0  0  0  0
   60.9726   28.7625   46.8079 H   0  0  0  0  0  0  0  0  0  0  0  0
   58.3872   29.2688   48.2693 H   0  0  0  0  0  0  0  0  0  0  0  0
   60.1135   29.4999   48.7946 H   0  0  0  0  0  0  0  0  0  0  0  0
   58.2840   31.3690   47.6950 H   0  0  0  0  0  0  0  0  0  0  0  0
   59.5700   31.2820   46.7260 H   0  0  0  0  0  0  0  0  0  0  0  0
   61.4255   31.6930   46.3602 H   0  0  0  0  0  0  0  0  0  0  0  0
   63.5365   32.8761   45.8224 H   0  0  0  0  0  0  0  0  0  0  0  0
   64.5857   34.3851   47.4935 H   0  0  0  0  0  0  0  0  0  0  0  0
   63.5966   34.6199   49.7537 H   0  0  0  0  0  0  0  0  0  0  0  0
   61.8465   33.5623   52.7312 H   0  0  0  0  0  0  0  0  0  0  0  0
   63.2958   33.3756   51.6864 H   0  0  0  0  0  0  0  0  0  0  0  0
   62.3817   34.9220   51.6864 H   0  0  0  0  0  0  0  0  0  0  0  0
   60.0376   33.8515   52.8870 H   0  0  0  0  0  0  0  0  0  0  0  0
   57.8046   32.9352   53.4488 H   0  0  0  0  0  0  0  0  0  0  0  0
   57.6421   30.9340   49.6381 H   0  0  0  0  0  0  0  0  0  0  0  0
  1  2  1  0
  2  3  1  0
  3  4  1  0
  4  5  1  0
  5  6  1  0
  6  7  1  0
  7  8  1  0
  8  9  1  0
  9 10  1  0
 10 11  1  0
 11 12  1  0
 12 13  2  0
 13 14  1  0
 14 15  2  0
 15 16  1  0
 16 17  2  0
 17 18  1  0
 18 19  2  0
 19 20  1  0
 19 21  1  0
 21 22  2  0
 22 23  1  0
 23 24  2  0
 24 25  1  0
 24 26  1  0
 26 27  2  0
 27 12  1  0
 18 13  1  0
 27 21  1  0
  1 28  1  0
  1 29  1  0
  1 30  1  0
  2 31  1  0
  2 32  1  0
  3 33  1  0
  3 34  1  0
  4 35  1  0
  4 36  1  0
  5 37  1  0
  6 38  1  0
  6 39  1  0
  7 40  1  0
  7 41  1  0
  9 42  1  0
  9 43  1  0
 10 44  1  0
 10 45  1  0
 11 46  1  0
 11 47  1  0
 14 48  1  0
 15 49  1  0
 16 50  1  0
 17 51  1  0
 20 52  1  0
 20 53  1  0
 20 54  1  0
 22 55  1  0
 23 56  1  0
 26 57  1  0
M  CHG  2  11   1  19   1
M  END
>  <UniqueID>  (6) 
6

>  <SMILES>  (6) 
CCCCNCCOCC[NH2+]c1c2ccccc2[n+](C)c2ccc(Cl)cc12

>  <Energy>  (6) 
80.88323651102898

>  <Genealogy>  (6) 
CCCCNCCOCC[NH2+]c1c2ccccc2[n+](C)c2ccc(Cl)cc12 (protonated)
CCCCNCCOCC[NH2+]c1c2ccccc2[n+](C)c2ccc(Cl)cc12 (3D coordinates assigned)
CCCCNCCOCC[NH2+]c1c2ccccc2[n+](C)c2ccc(Cl)cc12 (optimized conformer: 80.88323651102898 kcal/mol)

>  <smiles>  (6) 
CCCCNCCOCCNc1c2ccccc2[n+](C)c2ccc(Cl)cc12

>  <score_type>  (6) 
oracle

>  <origin>  (6) 
adg

>  <m_score__min__energy>  (6) 
-3.9900000000000002

>  <m_primary>  (6) 
energy

$$$$
6:0
     RDKit          3D

 80 84  0  0  0  0  0  0  0  0999 V2000
   58.6320   28.5200   45.0030 C   0  0  0  0  0  0  0  0  0  0  0  0
   57.4360   28.6310   45.9430 C   0  0  0  0  0  0  0  0  0  0  0  0
   56.2730   29.1430   45.2110 N   0  0  0  0  0  0  0  0  0  0  0  0
   56.6050   29.3430   43.7970 C   0  0  0  0  0  0  0  0  0  0  0  0
   56.6040   30.8410   43.4390 C   0  0  0  0  0  0  0  0  0  0  0  0
   56.5620   31.7230   44.6190 N   0  0  0  0  0  0  0  0  0  0  0  0
   57.3860   32.9290   44.4560 C   0  0  0  0  0  0  0  0  0  0  0  0
   58.4980   32.9170   45.4670 C   0  0  0  0  0  0  0  0  0  0  0  0
   59.3600   34.0370   45.5970 C   0  0  0  0  0  0  0  0  0  0  0  0
   60.3990   34.0380   46.5440 C   0  0  0  0  0  0  0  0  0  0  0  0
   60.5680   32.9020   47.3390 C   0  0  0  0  0  0  0  0  0  0  0  0
   59.7430   31.8040   47.1940 C   0  0  0  0  0  0  0  0  0  0  0  0
   58.6960   31.7780   46.2770 C   0  0  0  0  0  0  0  0  0  0  0  0
   60.1860   30.8640   48.0980 C   0  0  0  0  0  0  0  0  0  0  0  0
   59.7290   29.5810   48.3920 C   0  0  0  0  0  0  0  0  0  0  0  0
   60.4040   28.8590   49.3900 C   0  0  0  0  0  0  0  0  0  0  0  0
   61.5160   29.4210   50.0520 C   0  0  0  0  0  0  0  0  0  0  0  0
   61.9580   30.7220   49.7370 C   0  0  0  0  0  0  0  0  0  0  0  0
   61.2640   31.4320   48.7520 C   0  0  0  0  0  0  0  0  0  0  0  0
   61.4960   32.6920   48.3070 N   0  0  0  0  0  0  0  0  0  0  0  0
   62.5140   33.6350   48.7770 C   0  0  0  0  0  0  0  0  0  0  0  0
   63.8690   32.9360   48.9180 C   0  0  0  0  0  0  0  0  0  0  0  0
   64.5960   33.3530   50.2120 C   0  0  0  0  0  0  0  0  0  0  0  0
   65.6330   32.3780   50.5820 N   0  0  0  0  0  0  0  0  0  0  0  0
   65.4750   31.8580   51.9550 C   0  0  0  0  0  0  0  0  0  0  0  0
   64.0370   31.4060   52.2790 C   0  0  0  0  0  0  0  0  0  0  0  0
   63.2570   32.4690   52.9310 N   0  0  0  0  0  0  0  0  0  0  0  0
   61.8890   32.4210   52.4780 C   0  0  0  0  0  0  0  0  0  0  0  0
   61.3450   33.4890   51.7440 C   0  0  0  0  0  0  0  0  0  0  0  0
   60.0090   33.4630   51.3360 C   0  0  0  0  0  0  0  0  0  0  0  0
   59.1890   32.3730   51.6670 C   0  0  0  0  0  0  0  0  0  0  0  0
   59.7310   31.2880   52.3880 C   0  0  0  0  0  0  0  0  0  0  0  0
   61.0680   31.3260   52.8060 C   0  0  0  0  0  0  0  0  0  0  0  0
   58.9060   30.1580   52.7160 N   0  0  0  0  0  0  0  0  0  0  0  0
   57.5630   30.0180   52.1550 C   0  0  0  0  0  0  0  0  0  0  0  0
   56.8960   31.3900   52.0310 C   0  0  0  0  0  0  0  0  0  0  0  0
   57.7600   32.3300   51.1800 C   0  0  0  0  0  0  0  0  0  0  0  0
   59.5559   28.4343   45.5937 H   0  0  0  0  0  0  0  0  0  0  0  0
   58.5183   27.6285   44.3687 H   0  0  0  0  0  0  0  0  0  0  0  0
   58.6843   29.4172   44.3687 H   0  0  0  0  0  0  0  0  0  0  0  0
   57.2008   27.6378   46.3531 H   0  0  0  0  0  0  0  0  0  0  0  0
   57.6818   29.3224   46.7625 H   0  0  0  0  0  0  0  0  0  0  0  0
   56.0170   30.0730   45.6210 H   0  0  0  0  0  0  0  0  0  0  0  0
   57.6035   28.9260   43.5990 H   0  0  0  0  0  0  0  0  0  0  0  0
   55.8475   28.8342   43.1827 H   0  0  0  0  0  0  0  0  0  0  0  0
   57.5178   31.0642   42.8688 H   0  0  0  0  0  0  0  0  0  0  0  0
   55.6925   31.0354   42.8547 H   0  0  0  0  0  0  0  0  0  0  0  0
   56.8760   31.2010   45.4710 H   0  0  0  0  0  0  0  0  0  0  0  0
   57.8125   32.9473   43.4422 H   0  0  0  0  0  0  0  0  0  0  0  0
   56.7623   33.8223   44.6079 H   0  0  0  0  0  0  0  0  0  0  0  0
   59.2135   34.9141   44.9495 H   0  0  0  0  0  0  0  0  0  0  0  0
   61.0608   34.9095   46.6559 H   0  0  0  0  0  0  0  0  0  0  0  0
   58.0432   30.8973   46.1864 H   0  0  0  0  0  0  0  0  0  0  0  0
   58.8687   29.1482   47.8605 H   0  0  0  0  0  0  0  0  0  0  0  0
   60.0631   27.8479   49.6574 H   0  0  0  0  0  0  0  0  0  0  0  0
   62.0433   28.8382   50.8216 H   0  0  0  0  0  0  0  0  0  0  0  0
   62.8234   31.1658   50.2509 H   0  0  0  0  0  0  0  0  0  0  0  0
   62.6054   34.4590   48.0540 H   0  0  0  0  0  0  0  0  0  0  0  0
   62.2109   34.0246   49.7601 H   0  0  0  0  0  0  0  0  0  0  0  0
   63.7084   31.8479   48.9346 H   0  0  0  0  0  0  0  0  0  0  0  0
   64.4961   33.2299   48.0634 H   0  0  0  0  0  0  0  0  0  0  0  0
   65.0667   34.3351   50.0576 H   0  0  0  0  0  0  0  0  0  0  0  0
   63.8569   33.3984   51.0255 H   0  0  0  0  0  0  0  0  0  0  0  0
   65.6270   31.5940   49.8860 H   0  0  0  0  0  0  0  0  0  0  0  0
   66.1475   30.9967   52.0808 H   0  0  0  0  0  0  0  0  0  0  0  0
   65.7186   32.6810   52.6430 H   0  0  0  0  0  0  0  0  0  0  0  0
   63.5351   31.1212   51.3425 H   0  0  0  0  0  0  0  0  0  0  0  0
   64.0975   30.5553   52.9737 H   0  0  0  0  0  0  0  0  0  0  0  0
   63.6670   33.4030   52.6940 H   0  0  0  0  0  0  0  0  0  0  0  0
   63.2890   32.3500   53.9710 H   0  0  0  0  0  0  0  0  0  0  0  0
   61.9765   34.3527   51.4886 H   0  0  0  0  0  0  0  0  0  0  0  0
   59.5980   34.3003   50.7529 H   0  0  0  0  0  0  0  0  0  0  0  0
   61.4792   30.4931   53.3953 H   0  0  0  0  0  0  0  0  0  0  0  0
   59.3060   29.3610   53.2570 H   0  0  0  0  0  0  0  0  0  0  0  0
   57.6316   29.5561   51.1591 H   0  0  0  0  0  0  0  0  0  0  0  0
   56.9597   29.3847   52.8221 H   0  0  0  0  0  0  0  0  0  0  0  0
   55.9113   31.2726   51.5550 H   0  0  0  0  0  0  0  0  0  0  0  0
   56.7810   31.8229   53.0357 H   0  0  0  0  0  0  0  0  0  0  0  0
   57.7494   31.9776   50.1380 H   0  0  0  0  0  0  0  0  0  0  0  0
   57.3413   33.3442   51.2587 H   0  0  0  0  0  0  0  0  0  0  0  0
  1  2  1  0
  2  3  1  0
  3  4  1  0
  4  5  1  0
  5  6  1  0
  6  7  1  0
  7  8  1  0
  8  9  2  0
  9 10  1  0
 10 11  2  0
 11 12  1  0
 12 13  2  0
 12 14  1  0
 14 15  2  0
 15 16  1  0
 16 17  2  0
 17 18  1  0
 18 19  2  0
 19 20  1  0
 20 21  1  0
 21 22  1  0
 22 23  1  0
 23 24  1  0
 24 25  1  0
 25 26  1  0
 26 27  1  0
 27 28  1  0
 28 29  2  0
 29 30  1  0
 30 31  2  0
 31 32  1  0
 32 33  2  0
 32 34  1  0
 34 35  1  0
 35 36  1  0
 36 37  1  0
 13  8  1  0
 19 14  1  0
 33 28  1  0
 20 11  1  0
 37 31  1  0
  1 38  1  0
  1 39  1  0
  1 40  1  0
  2 41  1  0
  2 42  1  0
  3 43  1  0
  4 44  1  0
  4 45  1  0
  5 46  1  0
  5 47  1  0
  6 48  1  0
  7 49  1  0
  7 50  1  0
  9 51  1  0
 10 52  1  0
 13 53  1  0
 15 54  1  0
 16 55  1  0
 17 56  1  0
 18 57  1  0
 21 58  1  0
 21 59  1  0
 22 60  1  0
 22 61  1  0
 23 62  1  0
 23 63  1  0
 24 64  1  0
 25 65  1  0
 25 66  1  0
 26 67  1  0
 26 68  1  0
 27 69  1  0
 27 70  1  0
 29 71  1  0
 30 72  1  0
 33 73  1  0
 34 74  1  0
 35 75  1  0
 35 76  1  0
 36 77  1  0
 36 78  1  0
 37 79  1  0
 37 80  1  0
M  CHG  1  27   1
M  END
>  <UniqueID>  (7) 
7

>  <SMILES>  (7) 
CCNCCNCc1ccc2c(c1)c1ccccc1n2CCCNCC[NH2+]c1ccc2c(c1)NCCC2

>  <Energy>  (7) 
119.21820591286924

>  <Genealogy>  (7) 
CCNCCNCc1ccc2c(c1)c1ccccc1n2CCCNCC[NH2+]c1ccc2c(c1)NCCC2 (protonated)
CCNCCNCc1ccc2c(c1)c1ccccc1n2CCCNCC[NH2+]c1ccc2c(c1)NCCC2 (3D coordinates assigned)
CCNCCNCc1ccc2c(c1)c1ccccc1n2CCCNCC[NH2+]c1ccc2c(c1)NCCC2 (nonaromatic ring conformer: 119.21820591286924 kcal/mol)

>  <smiles>  (7) 
CCNCCNCc1ccc2c(c1)c1ccccc1n2CCCNCCNc1ccc2c(c1)NCCC2

>  <score_type>  (7) 
oracle

>  <origin>  (7) 
adg

>  <m_score__min__energy>  (7) 
-6.9699999999999998

>  <m_primary>  (7) 
energy

$$$$
8:0
     RDKit          3D

 56 60  0  0  0  0  0  0  0  0999 V2000
   57.7310   24.4960   44.9530 C   0  0  0  0  0  0  0  0  0  0  0  0
   57.8390   25.8450   44.4150 N   0  0  0  0  0  0  0  0  0  0  0  0
   57.7110   26.9830   45.1200 C   0  0  0  0  0  0  0  0  0  0  0  0
   57.8060   28.0430   44.2390 C   0  0  0  0  0  0  0  0  0  0  0  0
   57.7210   29.4780   44.5790 C   0  0  0  0  0  0  0  0  0  0  0  0
   56.6420   30.2770   44.1600 C   0  0  0  0  0  0  0  0  0  0  0  0
   56.6080   31.5930   44.4990 N   0  0  0  0  0  0  0  0  0  0  0  0
   57.5990   32.1540   45.2380 C   0  0  0  0  0  0  0  0  0  0  0  0
   57.5600   33.5030   45.5880 C   0  0  0  0  0  0  0  0  0  0  0  0
   58.5950   34.0450   46.3510 C   0  0  0  0  0  0  0  0  0  0  0  0
   59.6670   33.2310   46.7630 C   0  0  0  0  0  0  0  0  0  0  0  0
   60.7460   33.7850   47.5500 N   0  0  0  0  0  0  0  0  0  0  0  0
   62.1150   33.8380   47.0090 C   0  0  0  0  0  0  0  0  0  0  0  0
   62.7900   32.4470   47.1000 C   0  0  0  0  0  0  0  0  0  0  0  0
   63.6440   32.2420   48.2920 N   0  0  0  0  0  0  0  0  0  0  0  0
   63.0250   31.4590   49.3720 C   0  0  0  0  0  0  0  0  0  0  0  0
   63.4820   32.0710   50.6850 C   0  0  0  0  0  0  0  0  0  0  0  0
   63.7880   33.5100   50.3380 C   0  0  0  0  0  0  0  0  0  0  0  0
   64.2010   33.4720   48.8750 C   0  0  0  0  0  0  0  0  0  0  0  0
   60.4760   34.3270   48.8910 C   0  0  0  0  0  0  0  0  0  0  0  0
   60.2770   33.1890   49.9000 C   0  0  0  0  0  0  0  0  0  0  0  0
   58.8950   32.5500   49.9250 C   0  0  0  0  0  0  0  0  0  0  0  0
   59.3060   33.5140   51.0270 C   0  0  0  0  0  0  0  0  0  0  0  0
   59.6820   31.9110   46.4040 N   0  0  0  0  0  0  0  0  0  0  0  0
   58.6810   31.3640   45.6600 C   0  0  0  0  0  0  0  0  0  0  0  0
   58.7120   30.0470   45.3200 N   0  0  0  0  0  0  0  0  0  0  0  0
   57.9810   27.4600   42.9930 C   0  0  0  0  0  0  0  0  0  0  0  0
   57.9880   26.1190   43.1280 N   0  0  0  0  0  0  0  0  0  0  0  0
   57.7344   24.5383   46.0522 H   0  0  0  0  0  0  0  0  0  0  0  0
   56.7932   24.0371   44.6066 H   0  0  0  0  0  0  0  0  0  0  0  0
   58.5838   23.8937   44.6066 H   0  0  0  0  0  0  0  0  0  0  0  0
   57.5577   27.0569   46.2067 H   0  0  0  0  0  0  0  0  0  0  0  0
   55.8298   29.8392   43.5611 H   0  0  0  0  0  0  0  0  0  0  0  0
   56.7198   34.1352   45.2651 H   0  0  0  0  0  0  0  0  0  0  0  0
   58.5732   35.1086   46.6306 H   0  0  0  0  0  0  0  0  0  0  0  0
   62.0758   34.1528   45.9557 H   0  0  0  0  0  0  0  0  0  0  0  0
   62.7024   34.5571   47.5989 H   0  0  0  0  0  0  0  0  0  0  0  0
   61.9980   31.6837   47.1124 H   0  0  0  0  0  0  0  0  0  0  0  0
   63.4564   32.3713   46.2281 H   0  0  0  0  0  0  0  0  0  0  0  0
   61.9289   31.5087   49.2937 H   0  0  0  0  0  0  0  0  0  0  0  0
   63.3212   30.4015   49.3086 H   0  0  0  0  0  0  0  0  0  0  0  0
   62.6847   32.0132   51.4406 H   0  0  0  0  0  0  0  0  0  0  0  0
   64.3494   31.5479   51.1139 H   0  0  0  0  0  0  0  0  0  0  0  0
   62.8967   34.1402   50.4737 H   0  0  0  0  0  0  0  0  0  0  0  0
   64.5712   33.9370   50.9817 H   0  0  0  0  0  0  0  0  0  0  0  0
   63.8018   34.3516   48.3488 H   0  0  0  0  0  0  0  0  0  0  0  0
   65.2969   33.4846   48.7806 H   0  0  0  0  0  0  0  0  0  0  0  0
   61.3267   34.9478   49.2086 H   0  0  0  0  0  0  0  0  0  0  0  0
   59.5585   34.9325   48.8520 H   0  0  0  0  0  0  0  0  0  0  0  0
   61.3036   32.8005   49.8284 H   0  0  0  0  0  0  0  0  0  0  0  0
   58.1370   32.8500   49.1864 H   0  0  0  0  0  0  0  0  0  0  0  0
   58.5148   31.5182   49.8964 H   0  0  0  0  0  0  0  0  0  0  0  0
   58.8452   34.5111   51.0854 H   0  0  0  0  0  0  0  0  0  0  0  0
   59.3460   33.4680   52.1253 H   0  0  0  0  0  0  0  0  0  0  0  0
   60.4640   31.2940   46.7170 H   0  0  0  0  0  0  0  0  0  0  0  0
   58.0959   28.0055   42.0447 H   0  0  0  0  0  0  0  0  0  0  0  0
  1  2  1  0
  2  3  1  0
  3  4  2  0
  4  5  1  0
  5  6  2  0
  6  7  1  0
  7  8  2  0
  8  9  1  0
  9 10  2  0
 10 11  1  0
 11 12  1  0
 12 13  1  0
 13 14  1  0
 14 15  1  0
 15 16  1  0
 16 17  1  0
 17 18  1  0
 18 19  1  0
 12 20  1  0
 20 21  1  0
 21 22  1  0
 22 23  1  0
 11 24  2  0
 24 25  1  0
 25 26  2  0
  4 27  1  0
 27 28  2  0
 28  2  1  0
 26  5  1  0
 25  8  1  0
 19 15  1  0
 23 21  1  0
  1 29  1  0
  1 30  1  0
  1 31  1  0
  3 32  1  0
  6 33  1  0
  9 34  1  0
 10 35  1  0
 13 36  1  0
 13 37  1  0
 14 38  1  0
 14 39  1  0
 16 40  1  0
 16 41  1  0
 17 42  1  0
 17 43  1  0
 18 44  1  0
 18 45  1  0
 19 46  1  0
 19 47  1  0
 20 48  1  0
 20 49  1  0
 21 50  1  0
 22 51  1  0
 22 52  1  0
 23 53  1  0
 23 54  1  0
 24 55  1  0
 27 56  1  0
M  CHG  1  24   1
M  END
>  <UniqueID>  (8) 
8

>  <SMILES>  (8) 
Cn1cc(-c2cnc3ccc(N(CCN4CCCC4)CC4CC4)[nH+]c3n2)cn1

>  <Energy>  (8) 
363.43007914801575

>  <Genealogy>  (8) 
Cn1cc(-c2cnc3ccc(N(CCN4CCCC4)CC4CC4)[nH+]c3n2)cn1 (protonated)
Cn1cc(-c2cnc3ccc(N(CCN4CCCC4)CC4CC4)[nH+]c3n2)cn1 (3D coordinates assigned)
Cn1cc(-c2cnc3ccc(N(CCN4CCCC4)CC4CC4)[nH+]c3n2)cn1 (nonaromatic ring conformer: 363.43007914801575 kcal/mol)

>  <smiles>  (8) 
Cn1cc(-c2cnc3ccc(N(CCN4CCCC4)CC4CC4)nc3n2)cn1

>  <score_type>  (8) 
oracle

>  <origin>  (8) 
adg

>  <m_score__min__energy>  (8) 
-6.1100000000000003

>  <m_primary>  (8) 
energy

$$$$
9:0
     RDKit          3D

 55 56  0  0  0  0  0  0  0  0999 V2000
   56.2420   29.7070   43.2510 C   0  0  0  0  0  0  0  0  0  0  0  0
   57.3200   30.6050   43.8370 C   0  0  0  0  0  0  0  0  0  0  0  0
   57.1020   30.7470   45.2280 O   0  0  0  0  0  0  0  0  0  0  0  0
   57.8700   31.7730   45.7200 N   0  0  0  0  0  0  0  0  0  0  0  0
   57.0370   32.9720   45.8520 C   0  0  0  0  0  0  0  0  0  0  0  0
   57.8580   34.2340   45.5670 C   0  0  0  0  0  0  0  0  0  0  0  0
   59.3390   34.0430   45.9010 C   0  0  0  0  0  0  0  0  0  0  0  0
   59.4500   33.3150   47.1000 O   0  0  0  0  0  0  0  0  0  0  0  0
   60.7270   32.8530   47.1550 N   0  0  0  0  0  0  0  0  0  0  0  0
   61.7870   33.4390   47.9500 C   0  0  0  0  0  0  0  0  0  0  0  0
   62.9080   32.3860   47.8770 C   0  0  0  0  0  0  0  0  0  0  0  0
   62.3390   31.2660   47.1310 N   0  0  0  0  0  0  0  0  0  0  0  0
   61.1420   31.5620   46.7580 C   0  0  0  0  0  0  0  0  0  0  0  0
   60.3080   30.6650   46.0130 N   0  0  0  0  0  0  0  0  0  0  0  0
   60.7520   29.3360   45.6010 C   0  0  0  0  0  0  0  0  0  0  0  0
   59.5920   28.5580   44.9640 C   0  0  0  0  0  0  0  0  0  0  0  0
   59.1970   27.3180   45.7790 C   0  0  0  0  0  0  0  0  0  0  0  0
   58.1920   27.6430   46.8920 C   0  0  0  0  0  0  0  0  0  0  0  0
   58.1390   29.0850   47.1230 N   0  0  0  0  0  0  0  0  0  0  0  0
   58.6550   29.6970   48.3110 C   0  0  0  0  0  0  0  0  0  0  0  0
   59.2300   29.0320   49.2520 N   0  0  0  0  0  0  0  0  0  0  0  0
   59.6470   29.9470   50.3080 C   0  0  0  0  0  0  0  0  0  0  0  0
   59.2120   31.3420   49.8260 C   0  0  0  0  0  0  0  0  0  0  0  0
   58.5880   31.0870   48.5430 N   0  0  0  0  0  0  0  0  0  0  0  0
   55.6749   29.2346   44.0667 H   0  0  0  0  0  0  0  0  0  0  0  0
   55.5607   30.3084   42.6312 H   0  0  0  0  0  0  0  0  0  0  0  0
   56.7104   28.9283   42.6312 H   0  0  0  0  0  0  0  0  0  0  0  0
   58.3084   30.1545   43.6636 H   0  0  0  0  0  0  0  0  0  0  0  0
   57.2810   31.5926   43.3541 H   0  0  0  0  0  0  0  0  0  0  0  0
   58.3460   31.5540   46.6300 H   0  0  0  0  0  0  0  0  0  0  0  0
   56.2037   32.9137   45.1363 H   0  0  0  0  0  0  0  0  0  0  0  0
   56.6522   33.0245   46.8812 H   0  0  0  0  0  0  0  0  0  0  0  0
   57.7642   34.4851   44.5002 H   0  0  0  0  0  0  0  0  0  0  0  0
   57.4684   35.0430   46.2024 H   0  0  0  0  0  0  0  0  0  0  0  0
   59.8319   33.4904   45.0875 H   0  0  0  0  0  0  0  0  0  0  0  0
   59.8225   35.0242   46.0169 H   0  0  0  0  0  0  0  0  0  0  0  0
   62.1175   34.3967   47.5215 H   0  0  0  0  0  0  0  0  0  0  0  0
   61.4767   33.6666   48.9805 H   0  0  0  0  0  0  0  0  0  0  0  0
   63.7847   32.7928   47.3517 H   0  0  0  0  0  0  0  0  0  0  0  0
   63.2488   32.0807   48.8773 H   0  0  0  0  0  0  0  0  0  0  0  0
   59.3670   30.9950   45.7010 H   0  0  0  0  0  0  0  0  0  0  0  0
   61.5664   29.4368   44.8684 H   0  0  0  0  0  0  0  0  0  0  0  0
   61.1059   28.7876   46.4864 H   0  0  0  0  0  0  0  0  0  0  0  0
   58.7195   29.2238   44.8898 H   0  0  0  0  0  0  0  0  0  0  0  0
   59.9245   28.2145   43.9733 H   0  0  0  0  0  0  0  0  0  0  0  0
   58.7456   26.5790   45.1007 H   0  0  0  0  0  0  0  0  0  0  0  0
   60.1081   26.9262   46.2548 H   0  0  0  0  0  0  0  0  0  0  0  0
   57.1946   27.2862   46.5957 H   0  0  0  0  0  0  0  0  0  0  0  0
   58.5111   27.1439   47.8188 H   0  0  0  0  0  0  0  0  0  0  0  0
   57.7570   29.7000   46.3700 H   0  0  0  0  0  0  0  0  0  0  0  0
   59.1503   29.6940   51.2563 H   0  0  0  0  0  0  0  0  0  0  0  0
   60.7299   29.8948   50.4941 H   0  0  0  0  0  0  0  0  0  0  0  0
   58.4947   31.7927   50.5277 H   0  0  0  0  0  0  0  0  0  0  0  0
   60.0522   32.0486   49.7568 H   0  0  0  0  0  0  0  0  0  0  0  0
   58.1650   31.8010   47.9090 H   0  0  0  0  0  0  0  0  0  0  0  0
  1  2  1  0
  2  3  1  0
  3  4  1  0
  4  5  1  0
  5  6  1  0
  6  7  1  0
  7  8  1  0
  8  9  1  0
  9 10  1  0
 10 11  1  0
 11 12  1  0
 12 13  2  0
 13 14  1  0
 14 15  1  0
 15 16  1  0
 16 17  1  0
 17 18  1  0
 18 19  1  0
 19 20  1  0
 20 21  2  0
 21 22  1  0
 22 23  1  0
 23 24  1  0
 13  9  1  0
 24 20  1  0
  1 25  1  0
  1 26  1  0
  1 27  1  0
  2 28  1  0
  2 29  1  0
  4 30  1  0
  5 31  1  0
  5 32  1  0
  6 33  1  0
  6 34  1  0
  7 35  1  0
  7 36  1  0
 10 37  1  0
 10 38  1  0
 11 39  1  0
 11 40  1  0
 14 41  1  0
 15 42  1  0
 15 43  1  0
 16 44  1  0
 16 45  1  0
 17 46  1  0
 17 47  1  0
 18 48  1  0
 18 49  1  0
 19 50  1  0
 22 51  1  0
 22 52  1  0
 23 53  1  0
 23 54  1  0
 24 55  1  0
M  END
>  <UniqueID>  (9) 
9

>  <SMILES>  (9) 
CCONCCCON1CCN=C1NCCCCNC1=NCCN1

>  <Energy>  (9) 
62.37937647494701

>  <Genealogy>  (9) 
CCONCCCON1CCN=C1NCCCCNC1=NCCN1 (3D coordinates assigned)
CCONCCCON1CCN=C1NCCCCNC1=NCCN1 (nonaromatic ring conformer: 62.37937647494701 kcal/mol)

>  <smiles>  (9) 
CCONCCCON1CCN=C1NCCCCNC1=NCCN1

>  <score_type>  (9) 
oracle

>  <origin>  (9) 
adg

>  <m_score__min__energy>  (9) 
-5.75

>  <m_primary>  (9) 
energy

$$$$
10:0
     RDKit          3D

 40 41  0  0  0  0  0  0  0  0999 V2000
   58.9920   29.5710   44.7850 C   0  0  0  0  0  0  0  0  0  0  0  0
   57.6120   29.6100   45.4340 C   0  0  0  0  0  0  0  0  0  0  0  0
   56.8100   30.7210   44.8740 N   0  0  0  0  0  0  0  0  0  0  0  0
   56.2540   30.3460   43.5600 C   0  0  0  0  0  0  0  0  0  0  0  0
   57.6110   31.9590   44.7510 C   0  0  0  0  0  0  0  0  0  0  0  0
   56.9130   33.1150   45.4730 C   0  0  0  0  0  0  0  0  0  0  0  0
   57.4230   33.2380   46.8350 N   0  0  0  0  0  0  0  0  0  0  0  0
   58.7990   32.9840   47.1410 C   0  0  0  0  0  0  0  0  0  0  0  0
   59.3480   31.4800   47.6850 S   0  0  0  0  0  0  0  0  0  0  0  0
   60.9530   31.9580   47.6250 C   0  0  0  0  0  0  0  0  0  0  0  0
   62.0820   31.2050   47.9390 C   0  0  0  0  0  0  0  0  0  0  0  0
   63.3410   31.7960   47.7710 C   0  0  0  0  0  0  0  0  0  0  0  0
   63.4480   33.1120   47.2870 C   0  0  0  0  0  0  0  0  0  0  0  0
   62.2960   33.8540   46.9720 C   0  0  0  0  0  0  0  0  0  0  0  0
   61.0350   33.2650   47.1590 C   0  0  0  0  0  0  0  0  0  0  0  0
   59.8250   33.8500   46.8860 N   0  0  0  0  0  0  0  0  0  0  0  0
   59.6570   35.2010   46.3300 C   0  0  0  0  0  0  0  0  0  0  0  0
   59.2460   35.1450   44.8590 C   0  0  0  0  0  0  0  0  0  0  0  0
   59.7647   29.5492   45.5676 H   0  0  0  0  0  0  0  0  0  0  0  0
   59.0778   28.6701   44.1597 H   0  0  0  0  0  0  0  0  0  0  0  0
   59.1286   30.4656   44.1597 H   0  0  0  0  0  0  0  0  0  0  0  0
   57.0949   28.6579   45.2438 H   0  0  0  0  0  0  0  0  0  0  0  0
   57.7308   29.7658   46.5164 H   0  0  0  0  0  0  0  0  0  0  0  0
   55.3500   29.7363   43.7049 H   0  0  0  0  0  0  0  0  0  0  0  0
   55.9965   31.2557   42.9977 H   0  0  0  0  0  0  0  0  0  0  0  0
   57.0009   29.7664   42.9977 H   0  0  0  0  0  0  0  0  0  0  0  0
   58.6023   31.7964   45.1993 H   0  0  0  0  0  0  0  0  0  0  0  0
   57.7173   32.2131   43.6861 H   0  0  0  0  0  0  0  0  0  0  0  0
   57.1023   34.0515   44.9279 H   0  0  0  0  0  0  0  0  0  0  0  0
   55.8320   32.9151   45.5105 H   0  0  0  0  0  0  0  0  0  0  0  0
   56.9200   33.9050   47.4640 H   0  0  0  0  0  0  0  0  0  0  0  0
   61.9875   30.1735   48.3091 H   0  0  0  0  0  0  0  0  0  0  0  0
   64.2499   31.2281   48.0188 H   0  0  0  0  0  0  0  0  0  0  0  0
   64.4416   33.5648   47.1537 H   0  0  0  0  0  0  0  0  0  0  0  0
   62.3812   34.8801   46.5850 H   0  0  0  0  0  0  0  0  0  0  0  0
   58.8790   35.7297   46.9002 H   0  0  0  0  0  0  0  0  0  0  0  0
   60.6184   35.7305   46.4036 H   0  0  0  0  0  0  0  0  0  0  0  0
   58.1584   34.9968   44.7876 H   0  0  0  0  0  0  0  0  0  0  0  0
   59.5207   36.0889   44.3654 H   0  0  0  0  0  0  0  0  0  0  0  0
   59.7632   34.3090   44.3654 H   0  0  0  0  0  0  0  0  0  0  0  0
  1  2  1  0
  2  3  1  0
  3  4  1  0
  3  5  1  0
  5  6  1  0
  6  7  1  0
  7  8  1  0
  8  9  1  0
  9 10  1  0
 10 11  2  0
 11 12  1  0
 12 13  2  0
 13 14  1  0
 14 15  2  0
 15 16  1  0
 16 17  1  0
 17 18  1  0
 16  8  2  0
 15 10  1  0
  1 19  1  0
  1 20  1  0
  1 21  1  0
  2 22  1  0
  2 23  1  0
  4 24  1  0
  4 25  1  0
  4 26  1  0
  5 27  1  0
  5 28  1  0
  6 29  1  0
  6 30  1  0
  7 31  1  0
 11 32  1  0
 12 33  1  0
 13 34  1  0
 14 35  1  0
 17 36  1  0
 17 37  1  0
 18 38  1  0
 18 39  1  0
 18 40  1  0
M  CHG  1  16   1
M  END
>  <UniqueID>  (10) 
10

>  <SMILES>  (10) 
CCN(C)CCNc1sc2ccccc2[n+]1CC

>  <Energy>  (10) 
75.33882927579891

>  <Genealogy>  (10) 
CCN(C)CCNc1sc2ccccc2[n+]1CC (3D coordinates assigned)
CCN(C)CCNc1sc2ccccc2[n+]1CC (optimized conformer: 75.33882927579891 kcal/mol)

>  <smiles>  (10) 
CCN(C)CCNc1sc2ccccc2[n+]1CC

>  <score_type>  (10) 
oracle

>  <origin>  (10) 
adg

>  <m_score__min__energy>  (10) 
-4.9400000000000004

>  <m_primary>  (10) 
energy

$$$$
11:0
     RDKit          3D

 53 56  0  0  0  0  0  0  0  0999 V2000
   63.4020   33.6560   47.0940 C   0  0  0  0  0  0  0  0  0  0  0  0
   63.5190   33.1360   48.5350 C   0  0  0  0  0  0  0  0  0  0  0  0
   63.0100   34.2120   49.5120 C   0  0  0  0  0  0  0  0  0  0  0  0
   62.7710   31.8670   48.6750 N   0  0  0  0  0  0  0  0  0  0  0  0
   62.2440   31.3720   47.3890 C   0  0  0  0  0  0  0  0  0  0  0  0
   60.7190   31.5630   47.3070 C   0  0  2  0  0  0  0  0  0  0  0  0
   60.2550   32.1220   48.5280 O   0  0  0  0  0  0  0  0  0  0  0  0
   59.9640   33.4990   48.3900 C   0  0  0  0  0  0  0  0  0  0  0  0
   59.1010   33.7300   47.1770 C   0  0  0  0  0  0  0  0  0  0  0  0
   57.8000   33.2030   47.1140 C   0  0  0  0  0  0  0  0  0  0  0  0
   57.0280   33.3730   45.9590 C   0  0  0  0  0  0  0  0  0  0  0  0
   57.5510   34.0650   44.8630 C   0  0  0  0  0  0  0  0  0  0  0  0
   58.8440   34.5900   44.9190 C   0  0  0  0  0  0  0  0  0  0  0  0
   59.6180   34.4240   46.0720 C   0  0  0  0  0  0  0  0  0  0  0  0
   60.0420   30.2310   47.0660 C   0  0  0  0  0  0  0  0  0  0  0  0
   59.6540   29.4240   48.1620 C   0  0  0  0  0  0  0  0  0  0  0  0
   59.0050   28.1960   47.9580 C   0  0  0  0  0  0  0  0  0  0  0  0
   58.7400   27.7790   46.6480 C   0  0  0  0  0  0  0  0  0  0  0  0
   59.1160   28.5800   45.5740 C   0  0  0  0  0  0  0  0  0  0  0  0
   59.7590   29.8010   45.7530 C   0  0  0  0  0  0  0  0  0  0  0  0
   58.6770   27.8550   44.1140 S   0  0  0  0  0  0  0  0  0  0  0  0
   57.9990   26.4980   44.8540 C   0  0  0  0  0  0  0  0  0  0  0  0
   57.4010   25.4030   44.2340 C   0  0  0  0  0  0  0  0  0  0  0  0
   56.8960   24.3750   45.0440 C   0  0  0  0  0  0  0  0  0  0  0  0
   56.9960   24.4590   46.4450 C   0  0  0  0  0  0  0  0  0  0  0  0
   57.6020   25.5700   47.0530 C   0  0  0  0  0  0  0  0  0  0  0  0
   58.1050   26.5950   46.2390 C   0  0  0  0  0  0  0  0  0  0  0  0
   63.1606   34.7291   47.1099 H   0  0  0  0  0  0  0  0  0  0  0  0
   64.3571   33.5028   46.5702 H   0  0  0  0  0  0  0  0  0  0  0  0
   62.6046   33.1085   46.5702 H   0  0  0  0  0  0  0  0  0  0  0  0
   64.5720   32.9287   48.7761 H   0  0  0  0  0  0  0  0  0  0  0  0
   63.1702   33.8734   50.5463 H   0  0  0  0  0  0  0  0  0  0  0  0
   63.5600   35.1497   49.3438 H   0  0  0  0  0  0  0  0  0  0  0  0
   61.9362   34.3815   49.3438 H   0  0  0  0  0  0  0  0  0  0  0  0
   63.3910   31.1400   49.1010 H   0  0  0  0  0  0  0  0  0  0  0  0
   61.9630   32.0290   49.3220 H   0  0  0  0  0  0  0  0  0  0  0  0
   62.7206   31.9270   46.5675 H   0  0  0  0  0  0  0  0  0  0  0  0
   62.4672   30.2978   47.3092 H   0  0  0  0  0  0  0  0  0  0  0  0
   60.4789   32.2390   46.4731 H   0  0  0  0  0  0  0  0  0  0  0  0
   59.4317   33.8494   49.2866 H   0  0  0  0  0  0  0  0  0  0  0  0
   60.9060   34.0545   48.2710 H   0  0  0  0  0  0  0  0  0  0  0  0
   57.3873   32.6556   47.9743 H   0  0  0  0  0  0  0  0  0  0  0  0
   56.0088   32.9617   45.9138 H   0  0  0  0  0  0  0  0  0  0  0  0
   56.9436   34.1962   43.9554 H   0  0  0  0  0  0  0  0  0  0  0  0
   59.2539   35.1345   44.0556 H   0  0  0  0  0  0  0  0  0  0  0  0
   60.6359   34.8390   46.1130 H   0  0  0  0  0  0  0  0  0  0  0  0
   59.8637   29.7634   49.1871 H   0  0  0  0  0  0  0  0  0  0  0  0
   58.7094   27.5713   48.8138 H   0  0  0  0  0  0  0  0  0  0  0  0
   60.0410   30.4186   44.8875 H   0  0  0  0  0  0  0  0  0  0  0  0
   57.3268   25.3460   43.1380 H   0  0  0  0  0  0  0  0  0  0  0  0
   56.4192   23.4983   44.5813 H   0  0  0  0  0  0  0  0  0  0  0  0
   56.5957   23.6468   47.0696 H   0  0  0  0  0  0  0  0  0  0  0  0
   57.6808   25.6352   48.1482 H   0  0  0  0  0  0  0  0  0  0  0  0
  1  2  1  0
  2  3  1  0
  2  4  1  0
  4  5  1  0
  5  6  1  0
  6  7  1  0
  7  8  1  0
  8  9  1  0
  9 10  2  0
 10 11  1  0
 11 12  2  0
 12 13  1  0
 13 14  2  0
  6 15  1  0
 15 16  2  0
 16 17  1  0
 17 18  2  0
 18 19  1  0
 19 20  2  0
 19 21  1  0
 21 22  1  0
 22 23  2  0
 23 24  1  0
 24 25  2  0
 25 26  1  0
 26 27  2  0
 14  9  1  0
 20 15  1  0
 27 22  1  0
 27 18  1  0
  1 28  1  0
  1 29  1  0
  1 30  1  0
  2 31  1  0
  3 32  1  0
  3 33  1  0
  3 34  1  0
  4 35  1  0
  4 36  1  0
  5 37  1  0
  5 38  1  0
  6 39  1  6
  8 40  1  0
  8 41  1  0
 10 42  1  0
 11 43  1  0
 12 44  1  0
 13 45  1  0
 14 46  1  0
 16 47  1  0
 17 48  1  0
 20 49  1  0
 23 50  1  0
 24 51  1  0
 25 52  1  0
 26 53  1  0
M  CHG  1   4   1
M  END
>  <UniqueID>  (11) 
11

>  <SMILES>  (11) 
CC(C)[NH2+]C[C@H](OCc1ccccc1)c1ccc2c(c1)sc1ccccc12

>  <Energy>  (11) 
89.82577668394292

>  <Genealogy>  (11) 
CC(C)[NH2+]CC(OCc1ccccc1)c1ccc2c(c1)sc1ccccc12 (protonated)
CC(C)[NH2+]C[C@H](OCc1ccccc1)c1ccc2c(c1)sc1ccccc12 (chirality)
CC(C)[NH2+]C[C@H](OCc1ccccc1)c1ccc2c(c1)sc1ccccc12 (3D coordinates assigned)
CC(C)[NH2+]C[C@H](OCc1ccccc1)c1ccc2c(c1)sc1ccccc12 (optimized conformer: 89.82577668394292 kcal/mol)

>  <smiles>  (11) 
CC(C)NCC(OCc1ccccc1)c1ccc2c(c1)sc1ccccc12

>  <score_type>  (11) 
oracle

>  <origin>  (11) 
adg

>  <m_score__min__energy>  (11) 
-7.25

>  <m_primary>  (11) 
energy

$$$$
12:0
     RDKit          3D

 61 64  0  0  0  0  0  0  0  0999 V2000
   56.4090   29.7090   42.7440 C   0  0  0  0  0  0  0  0  0  0  0  0
   55.8250   30.1020   44.0980 C   0  0  0  0  0  0  0  0  0  0  0  0
   56.8020   30.7630   44.8790 O   0  0  0  0  0  0  0  0  0  0  0  0
   58.0730   30.6710   44.2730 C   0  0  0  0  0  0  0  0  0  0  0  0
   59.1450   30.5570   45.3560 C   0  0  0  0  0  0  0  0  0  0  0  0
   58.5490   30.2210   46.5950 O   0  0  0  0  0  0  0  0  0  0  0  0
   58.2110   28.8480   46.6350 C   0  0  0  0  0  0  0  0  0  0  0  0
   58.5560   28.2670   48.0150 C   0  0  0  0  0  0  0  0  0  0  0  0
   58.6170   29.2880   49.0740 N   0  0  0  0  0  0  0  0  0  0  0  0
   59.9610   29.4180   49.6550 C   0  0  0  0  0  0  0  0  0  0  0  0
   59.8760   30.0090   51.0620 C   0  0  0  0  0  0  0  0  0  0  0  0
   60.1410   31.4460   51.0400 N   0  0  0  0  0  0  0  0  0  0  0  0
   60.8550   32.0200   49.9380 C   0  0  0  0  0  0  0  0  0  0  0  0
   60.1650   32.5320   48.8460 C   0  0  0  0  0  0  0  0  0  0  0  0
   60.8300   33.1130   47.7800 C   0  0  0  0  0  0  0  0  0  0  0  0
   62.1890   33.3030   47.7980 N   0  0  0  0  0  0  0  0  0  0  0  0
   62.8190   34.2020   46.8170 C   0  0  0  0  0  0  0  0  0  0  0  0
   62.9280   32.6860   48.7960 C   0  0  0  0  0  0  0  0  0  0  0  0
   64.3440   32.6400   48.7520 C   0  0  0  0  0  0  0  0  0  0  0  0
   65.0730   32.0350   49.7770 C   0  0  0  0  0  0  0  0  0  0  0  0
   64.4200   31.4520   50.8570 C   0  0  0  0  0  0  0  0  0  0  0  0
   63.0290   31.4490   50.9170 C   0  0  0  0  0  0  0  0  0  0  0  0
   62.2650   32.0530   49.8990 C   0  0  0  0  0  0  0  0  0  0  0  0
   59.8140   33.5230   46.7780 C   0  0  0  0  0  0  0  0  0  0  0  0
   59.9370   33.9660   45.4520 C   0  0  0  0  0  0  0  0  0  0  0  0
   58.7680   34.2080   44.7100 C   0  0  0  0  0  0  0  0  0  0  0  0
   57.5010   33.9690   45.2750 C   0  0  0  0  0  0  0  0  0  0  0  0
   57.3890   33.4610   46.5770 C   0  0  0  0  0  0  0  0  0  0  0  0
   58.5600   33.2390   47.3010 C   0  0  0  0  0  0  0  0  0  0  0  0
   58.7270   32.6180   48.6040 C   0  0  0  0  0  0  0  0  0  0  0  0
   57.8050   32.2270   49.3670 O   0  0  0  0  0  0  0  0  0  0  0  0
   57.3127   29.1008   42.8971 H   0  0  0  0  0  0  0  0  0  0  0  0
   55.6662   29.1263   42.1795 H   0  0  0  0  0  0  0  0  0  0  0  0
   56.6691   30.6166   42.1795 H   0  0  0  0  0  0  0  0  0  0  0  0
   54.9683   30.7743   43.9427 H   0  0  0  0  0  0  0  0  0  0  0  0
   55.4990   29.1933   44.6253 H   0  0  0  0  0  0  0  0  0  0  0  0
   58.1080   29.7814   43.6270 H   0  0  0  0  0  0  0  0  0  0  0  0
   58.2571   31.5706   43.6673 H   0  0  0  0  0  0  0  0  0  0  0  0
   59.8653   29.7747   45.0744 H   0  0  0  0  0  0  0  0  0  0  0  0
   59.6621   31.5229   45.4547 H   0  0  0  0  0  0  0  0  0  0  0  0
   57.1331   28.7317   46.4489 H   0  0  0  0  0  0  0  0  0  0  0  0
   58.7806   28.3111   45.8622 H   0  0  0  0  0  0  0  0  0  0  0  0
   57.7875   27.5279   48.2855 H   0  0  0  0  0  0  0  0  0  0  0  0
   59.5555   27.8139   47.9390 H   0  0  0  0  0  0  0  0  0  0  0  0
   58.3200   30.2140   48.6880 H   0  0  0  0  0  0  0  0  0  0  0  0
   60.4317   28.4251   49.7063 H   0  0  0  0  0  0  0  0  0  0  0  0
   60.5614   30.0875   49.0215 H   0  0  0  0  0  0  0  0  0  0  0  0
   58.8677   29.8347   51.4657 H   0  0  0  0  0  0  0  0  0  0  0  0
   60.6323   29.5214   51.6947 H   0  0  0  0  0  0  0  0  0  0  0  0
   60.2090   31.9380   51.9610 H   0  0  0  0  0  0  0  0  0  0  0  0
   63.3725   34.9918   47.3460 H   0  0  0  0  0  0  0  0  0  0  0  0
   63.5131   33.6275   46.1860 H   0  0  0  0  0  0  0  0  0  0  0  0
   62.0421   34.6584   46.1860 H   0  0  0  0  0  0  0  0  0  0  0  0
   64.8753   33.0870   47.8988 H   0  0  0  0  0  0  0  0  0  0  0  0
   66.1719   32.0194   49.7299 H   0  0  0  0  0  0  0  0  0  0  0  0
   65.0044   30.9914   51.6671 H   0  0  0  0  0  0  0  0  0  0  0  0
   62.5216   30.9704   51.7675 H   0  0  0  0  0  0  0  0  0  0  0  0
   60.9288   34.1208   45.0022 H   0  0  0  0  0  0  0  0  0  0  0  0
   58.8438   34.5870   43.6801 H   0  0  0  0  0  0  0  0  0  0  0  0
   56.5932   34.1821   44.6914 H   0  0  0  0  0  0  0  0  0  0  0  0
   56.4040   33.2434   47.0156 H   0  0  0  0  0  0  0  0  0  0  0  0
  1  2  1  0
  2  3  1  0
  3  4  1  0
  4  5  1  0
  5  6  1  0
  6  7  1  0
  7  8  1  0
  8  9  1  0
  9 10  1  0
 10 11  1  0
 11 12  1  0
 12 13  1  0
 13 14  2  0
 14 15  1  0
 15 16  2  0
 16 17  1  0
 16 18  1  0
 18 19  2  0
 19 20  1  0
 20 21  2  0
 21 22  1  0
 22 23  2  0
 15 24  1  0
 24 25  2  0
 25 26  1  0
 26 27  2  0
 27 28  1  0
 28 29  2  0
 29 30  1  0
 30 31  2  0
 23 13  1  0
 29 24  1  0
 30 14  1  0
 23 18  1  0
  1 32  1  0
  1 33  1  0
  1 34  1  0
  2 35  1  0
  2 36  1  0
  4 37  1  0
  4 38  1  0
  5 39  1  0
  5 40  1  0
  7 41  1  0
  7 42  1  0
  8 43  1  0
  8 44  1  0
  9 45  1  0
 10 46  1  0
 10 47  1  0
 11 48  1  0
 11 49  1  0
 12 50  1  0
 17 51  1  0
 17 52  1  0
 17 53  1  0
 19 54  1  0
 20 55  1  0
 21 56  1  0
 22 57  1  0
 25 58  1  0
 26 59  1  0
 27 60  1  0
 28 61  1  0
M  CHG  1  16   1
M  END
>  <UniqueID>  (12) 
12

>  <SMILES>  (12) 
CCOCCOCCNCCNc1c2c([n+](C)c3ccccc13)-c1ccccc1C2=O

>  <Energy>  (12) 
113.79435377798136

>  <Genealogy>  (12) 
CCOCCOCCNCCNc1c2c([n+](C)c3ccccc13)-c1ccccc1C2=O (3D coordinates assigned)
CCOCCOCCNCCNc1c2c([n+](C)c3ccccc13)-c1ccccc1C2=O (nonaromatic ring conformer: 113.79435377798136 kcal/mol)

>  <smiles>  (12) 
CCOCCOCCNCCNc1c2c([n+](C)c3ccccc13)-c1ccccc1C2=O

>  <score_type>  (12) 
oracle

>  <origin>  (12) 
adg

>  <m_score__min__energy>  (12) 
-5.9199999999999999

>  <m_primary>  (12) 
energy

$$$$
13:0
     RDKit          3D

 48 51  0  0  0  0  0  0  0  0999 V2000
   57.6950   27.7500   44.1280 C   0  0  0  0  0  0  0  0  0  0  0  0
   57.0530   28.5490   45.2570 C   0  0  0  0  0  0  0  0  0  0  0  0
   55.7730   29.0090   44.8670 O   0  0  0  0  0  0  0  0  0  0  0  0
   55.8500   29.7080   43.6410 C   0  0  0  0  0  0  0  0  0  0  0  0
   57.0250   30.6750   43.6840 C   0  0  0  0  0  0  0  0  0  0  0  0
   56.9870   31.4190   44.8990 O   0  0  0  0  0  0  0  0  0  0  0  0
   57.7490   32.5690   45.1430 C   0  0  0  0  0  0  0  0  0  0  0  0
   57.4450   33.8360   44.5900 C   0  0  0  0  0  0  0  0  0  0  0  0
   58.2570   34.9590   44.8740 C   0  0  0  0  0  0  0  0  0  0  0  0
   59.3830   34.8390   45.7090 C   0  0  0  0  0  0  0  0  0  0  0  0
   59.6670   33.5850   46.2450 C   0  0  0  0  0  0  0  0  0  0  0  0
   60.6710   33.2600   47.0410 O   0  0  0  0  0  0  0  0  0  0  0  0
   60.5410   31.9720   47.2950 C   0  0  0  0  0  0  0  0  0  0  0  0
   61.3440   31.1330   48.0660 C   0  0  0  0  0  0  0  0  0  0  0  0
   62.5190   31.6080   48.7470 N   0  0  0  0  0  0  0  0  0  0  0  0
   63.4490   32.4910   48.0280 C   0  0  0  0  0  0  0  0  0  0  0  0
   64.5390   33.0430   48.9600 C   0  0  0  0  0  0  0  0  0  0  0  0
   63.9260   33.4810   50.2960 C   0  0  0  0  0  0  0  0  0  0  0  0
   63.1730   32.3380   51.0130 C   0  0  0  0  0  0  0  0  0  0  0  0
   62.8620   31.1440   50.0980 C   0  0  0  0  0  0  0  0  0  0  0  0
   61.0050   29.8090   48.1140 N   0  0  0  0  0  0  0  0  0  0  0  0
   59.9050   29.3180   47.4580 C   0  0  0  0  0  0  0  0  0  0  0  0
   59.5170   27.6150   47.5660 Cl  0  0  0  0  0  0  0  0  0  0  0  0
   59.1120   30.1470   46.7160 N   0  0  0  0  0  0  0  0  0  0  0  0
   59.4490   31.4570   46.6530 C   0  0  0  0  0  0  0  0  0  0  0  0
   58.8700   32.4920   45.9690 C   0  0  0  0  0  0  0  0  0  0  0  0
   58.3303   26.9593   44.5536 H   0  0  0  0  0  0  0  0  0  0  0  0
   56.9088   27.2946   43.5080 H   0  0  0  0  0  0  0  0  0  0  0  0
   58.3090   28.4197   43.5080 H   0  0  0  0  0  0  0  0  0  0  0  0
   56.9529   27.9070   46.1446 H   0  0  0  0  0  0  0  0  0  0  0  0
   57.6894   29.4158   45.4887 H   0  0  0  0  0  0  0  0  0  0  0  0
   55.9938   28.9919   42.8185 H   0  0  0  0  0  0  0  0  0  0  0  0
   54.9179   30.2690   43.4784 H   0  0  0  0  0  0  0  0  0  0  0  0
   57.9669   30.1094   43.6303 H   0  0  0  0  0  0  0  0  0  0  0  0
   56.9614   31.3657   42.8303 H   0  0  0  0  0  0  0  0  0  0  0  0
   56.5695   33.9484   43.9336 H   0  0  0  0  0  0  0  0  0  0  0  0
   58.0053   35.9367   44.4373 H   0  0  0  0  0  0  0  0  0  0  0  0
   60.0192   35.7083   45.9316 H   0  0  0  0  0  0  0  0  0  0  0  0
   63.9271   31.9217   47.2172 H   0  0  0  0  0  0  0  0  0  0  0  0
   62.8766   33.3403   47.6268 H   0  0  0  0  0  0  0  0  0  0  0  0
   65.2893   32.2600   49.1445 H   0  0  0  0  0  0  0  0  0  0  0  0
   65.0119   33.9131   48.4812 H   0  0  0  0  0  0  0  0  0  0  0  0
   64.7332   33.8365   50.9532 H   0  0  0  0  0  0  0  0  0  0  0  0
   63.1955   34.2747   50.0807 H   0  0  0  0  0  0  0  0  0  0  0  0
   63.7925   31.9837   51.8501 H   0  0  0  0  0  0  0  0  0  0  0  0
   62.2097   32.7466   51.3523 H   0  0  0  0  0  0  0  0  0  0  0  0
   63.7449   30.4902   50.0431 H   0  0  0  0  0  0  0  0  0  0  0  0
   62.0063   30.5909   50.5126 H   0  0  0  0  0  0  0  0  0  0  0  0
  1  2  1  0
  2  3  1  0
  3  4  1  0
  4  5  1  0
  5  6  1  0
  6  7  1  0
  7  8  2  0
  8  9  1  0
  9 10  2  0
 10 11  1  0
 11 12  1  0
 12 13  1  0
 13 14  2  0
 14 15  1  0
 15 16  1  0
 16 17  1  0
 17 18  1  0
 18 19  1  0
 19 20  1  0
 14 21  1  0
 21 22  2  0
 22 23  1  0
 22 24  1  0
 24 25  2  0
 25 26  1  0
 26  7  1  0
 26 11  2  0
 25 13  1  0
 20 15  1  0
  1 27  1  0
  1 28  1  0
  1 29  1  0
  2 30  1  0
  2 31  1  0
  4 32  1  0
  4 33  1  0
  5 34  1  0
  5 35  1  0
  8 36  1  0
  9 37  1  0
 10 38  1  0
 16 39  1  0
 16 40  1  0
 17 41  1  0
 17 42  1  0
 18 43  1  0
 18 44  1  0
 19 45  1  0
 19 46  1  0
 20 47  1  0
 20 48  1  0
M  END
>  <UniqueID>  (13) 
13

>  <SMILES>  (13) 
CCOCCOc1cccc2oc3c(N4CCCCC4)nc(Cl)nc3c12

>  <Energy>  (13) 
96.1104300679987

>  <Genealogy>  (13) 
CCOCCOc1cccc2oc3c(N4CCCCC4)nc(Cl)nc3c12 (3D coordinates assigned)
CCOCCOc1cccc2oc3c(N4CCCCC4)nc(Cl)nc3c12 (nonaromatic ring conformer: 96.1104300679987 kcal/mol)

>  <smiles>  (13) 
CCOCCOc1cccc2oc3c(N4CCCCC4)nc(Cl)nc3c12

>  <score_type>  (13) 
oracle

>  <origin>  (13) 
adg

>  <m_score__min__energy>  (13) 
-7.8200000000000003

>  <m_primary>  (13) 
energy

$$$$
14:0
     RDKit          3D

 41 43  0  0  0  0  0  0  0  0999 V2000
   56.2730   22.5090   42.8640 C   0  0  0  0  0  0  0  0  0  0  0  0
   55.9430   23.5260   43.8620 C   0  0  0  0  0  0  0  0  0  0  0  0
   55.6640   24.3580   44.6880 C   0  0  0  0  0  0  0  0  0  0  0  0
   55.3510   25.3470   45.6870 C   0  0  0  0  0  0  0  0  0  0  0  0
   54.2590   25.9670   45.6210 O   0  0  0  0  0  0  0  0  0  0  0  0
   56.2690   25.6460   46.7470 N   0  0  0  0  0  0  0  0  0  0  0  0
   57.4300   26.5170   46.5920 C   0  0  0  0  0  0  0  0  0  0  0  0
   57.0150   27.8420   45.9420 C   0  0  0  0  0  0  0  0  0  0  0  0
   57.6890   28.0720   44.5790 C   0  0  0  0  0  0  0  0  0  0  0  0
   57.6870   29.5430   44.1850 C   0  0  0  0  0  0  0  0  0  0  0  0
   57.0190   29.8930   43.0030 C   0  0  0  0  0  0  0  0  0  0  0  0
   56.4090   28.9510   42.2380 F   0  0  0  0  0  0  0  0  0  0  0  0
   56.9680   31.2180   42.5970 C   0  0  0  0  0  0  0  0  0  0  0  0
   57.5490   32.1920   43.3380 N   0  0  0  0  0  0  0  0  0  0  0  0
   58.2060   31.9280   44.5120 C   0  0  0  0  0  0  0  0  0  0  0  0
   58.2880   30.5740   44.9650 C   0  0  0  0  0  0  0  0  0  0  0  0
   58.9540   30.2970   46.1760 C   0  0  0  0  0  0  0  0  0  0  0  0
   59.5300   31.3110   46.9270 C   0  0  0  0  0  0  0  0  0  0  0  0
   59.4660   32.6370   46.5040 C   0  0  0  0  0  0  0  0  0  0  0  0
   60.0600   33.6370   47.2910 C   0  0  0  0  0  0  0  0  0  0  0  0
   60.0090   34.9710   46.8960 C   0  0  0  0  0  0  0  0  0  0  0  0
   59.3650   35.3190   45.7130 C   0  0  0  0  0  0  0  0  0  0  0  0
   58.7680   34.3390   44.9160 C   0  0  0  0  0  0  0  0  0  0  0  0
   58.8030   32.9710   45.2910 C   0  0  0  0  0  0  0  0  0  0  0  0
   56.5741   21.5809   43.3719 H   0  0  0  0  0  0  0  0  0  0  0  0
   55.3922   22.3134   42.2347 H   0  0  0  0  0  0  0  0  0  0  0  0
   57.1008   22.8678   42.2347 H   0  0  0  0  0  0  0  0  0  0  0  0
   57.8675   26.7188   47.5809 H   0  0  0  0  0  0  0  0  0  0  0  0
   58.1697   26.0179   45.9488 H   0  0  0  0  0  0  0  0  0  0  0  0
   55.9244   27.8372   45.7988 H   0  0  0  0  0  0  0  0  0  0  0  0
   57.3342   28.6544   46.6114 H   0  0  0  0  0  0  0  0  0  0  0  0
   58.7297   27.7198   44.6331 H   0  0  0  0  0  0  0  0  0  0  0  0
   57.1206   27.5151   43.8195 H   0  0  0  0  0  0  0  0  0  0  0  0
   56.4500   31.4811   41.6629 H   0  0  0  0  0  0  0  0  0  0  0  0
   57.4530   33.1520   42.9520 H   0  0  0  0  0  0  0  0  0  0  0  0
   59.0181   29.2581   46.5318 H   0  0  0  0  0  0  0  0  0  0  0  0
   60.0437   31.0652   47.8681 H   0  0  0  0  0  0  0  0  0  0  0  0
   60.5696   33.3641   48.2269 H   0  0  0  0  0  0  0  0  0  0  0  0
   60.4769   35.7483   47.5180 H   0  0  0  0  0  0  0  0  0  0  0  0
   59.3255   36.3736   45.4028 H   0  0  0  0  0  0  0  0  0  0  0  0
   58.2632   34.6324   43.9837 H   0  0  0  0  0  0  0  0  0  0  0  0
  1  2  1  0
  2  3  3  0
  3  4  1  0
  4  5  2  0
  4  6  1  0
  6  7  1  0
  7  8  1  0
  8  9  1  0
  9 10  1  0
 10 11  2  0
 11 12  1  0
 11 13  1  0
 13 14  2  0
 14 15  1  0
 15 16  2  0
 16 17  1  0
 17 18  2  0
 18 19  1  0
 19 20  2  0
 20 21  1  0
 21 22  2  0
 22 23  1  0
 23 24  2  0
 16 10  1  0
 24 19  1  0
 24 15  1  0
  1 25  1  0
  1 26  1  0
  1 27  1  0
  7 28  1  0
  7 29  1  0
  8 30  1  0
  8 31  1  0
  9 32  1  0
  9 33  1  0
 13 34  1  0
 14 35  1  0
 17 36  1  0
 18 37  1  0
 20 38  1  0
 21 39  1  0
 22 40  1  0
 23 41  1  0
M  CHG  2   6  -1  14   1
M  END
>  <UniqueID>  (14) 
14

>  <SMILES>  (14) 
CC#CC(=O)[N-]CCCc1c(F)c[nH+]c2c1ccc1ccccc12

>  <Energy>  (14) 
45.73840826353972

>  <Genealogy>  (14) 
CC#CC(=O)[N-]CCCc1c(F)c[nH+]c2c1ccc1ccccc12 (protonated)
CC#CC(=O)[N-]CCCc1c(F)c[nH+]c2c1ccc1ccccc12 (3D coordinates assigned)
CC#CC(=O)[N-]CCCc1c(F)c[nH+]c2c1ccc1ccccc12 (optimized conformer: 45.73840826353972 kcal/mol)

>  <smiles>  (14) 
CC#CC(=O)NCCCc1c(F)cnc2c1ccc1ccccc12

>  <score_type>  (14) 
oracle

>  <origin>  (14) 
adg

>  <m_score__min__energy>  (14) 
-8.4499999999999993

>  <m_primary>  (14) 
energy

$$$$
15:0
     RDKit          3D

 51 53  0  0  0  0  0  0  0  0999 V2000
   56.5780   30.4570   42.9820 C   0  0  0  0  0  0  0  0  0  0  0  0
   55.5620   30.4660   44.1180 C   0  0  0  0  0  0  0  0  0  0  0  0
   55.8080   29.3320   45.0160 N   0  0  0  0  0  0  0  0  0  0  0  0
   57.0760   28.6550   44.7050 C   0  0  0  0  0  0  0  0  0  0  0  0
   58.1460   28.9730   45.7560 C   0  0  0  0  0  0  0  0  0  0  0  0
   57.7410   30.1030   46.5900 N   0  0  0  0  0  0  0  0  0  0  0  0
   58.6840   31.1170   46.9830 C   0  0  0  0  0  0  0  0  0  0  0  0
   58.6950   32.3630   46.3290 C   0  0  0  0  0  0  0  0  0  0  0  0
   57.8770   32.5960   45.2030 C   0  0  0  0  0  0  0  0  0  0  0  0
   57.9190   33.8150   44.5320 C   0  0  0  0  0  0  0  0  0  0  0  0
   58.7910   34.8120   44.9550 C   0  0  0  0  0  0  0  0  0  0  0  0
   59.6140   34.6020   46.0610 C   0  0  0  0  0  0  0  0  0  0  0  0
   59.5680   33.3840   46.7880 C   0  0  0  0  0  0  0  0  0  0  0  0
   60.3610   33.1710   47.9000 N   0  0  0  0  0  0  0  0  0  0  0  0
   61.0440   34.3110   48.5510 C   0  0  0  0  0  0  0  0  0  0  0  0
   60.5010   31.8950   48.4130 C   0  0  0  0  0  0  0  0  0  0  0  0
   61.5030   31.5800   49.3610 C   0  0  0  0  0  0  0  0  0  0  0  0
   61.6000   30.3070   49.9180 C   0  0  0  0  0  0  0  0  0  0  0  0
   60.7130   29.2860   49.5440 C   0  0  0  0  0  0  0  0  0  0  0  0
   60.8050   27.9650   50.1410 N   0  0  0  0  0  0  0  0  0  0  0  0
   61.0520   27.8060   51.5800 C   0  0  0  0  0  0  0  0  0  0  0  0
   60.6650   26.7610   49.3120 C   0  0  0  0  0  0  0  0  0  0  0  0
   59.7450   29.5720   48.5660 C   0  0  0  0  0  0  0  0  0  0  0  0
   59.6400   30.8540   47.9820 C   0  0  0  0  0  0  0  0  0  0  0  0
   57.5954   30.4480   43.4001 H   0  0  0  0  0  0  0  0  0  0  0  0
   56.4280   29.5601   42.3630 H   0  0  0  0  0  0  0  0  0  0  0  0
   56.4439   31.3564   42.3630 H   0  0  0  0  0  0  0  0  0  0  0  0
   55.6545   31.4054   44.6828 H   0  0  0  0  0  0  0  0  0  0  0  0
   54.5485   30.3830   43.6985 H   0  0  0  0  0  0  0  0  0  0  0  0
   55.8820   29.7100   45.9900 H   0  0  0  0  0  0  0  0  0  0  0  0
   56.9066   27.5683   44.6827 H   0  0  0  0  0  0  0  0  0  0  0  0
   57.4311   29.0121   43.7270 H   0  0  0  0  0  0  0  0  0  0  0  0
   58.2965   28.0902   46.3947 H   0  0  0  0  0  0  0  0  0  0  0  0
   59.0795   29.2368   45.2373 H   0  0  0  0  0  0  0  0  0  0  0  0
   56.7190   30.2830   46.7180 H   0  0  0  0  0  0  0  0  0  0  0  0
   57.1982   31.8051   44.8513 H   0  0  0  0  0  0  0  0  0  0  0  0
   57.2622   33.9895   43.6670 H   0  0  0  0  0  0  0  0  0  0  0  0
   58.8318   35.7697   44.4154 H   0  0  0  0  0  0  0  0  0  0  0  0
   60.3103   35.3935   46.3751 H   0  0  0  0  0  0  0  0  0  0  0  0
   60.9788   34.2021   49.6436 H   0  0  0  0  0  0  0  0  0  0  0  0
   62.1009   34.3276   48.2466 H   0  0  0  0  0  0  0  0  0  0  0  0
   60.5600   35.2507   48.2466 H   0  0  0  0  0  0  0  0  0  0  0  0
   62.2204   32.3567   49.6645 H   0  0  0  0  0  0  0  0  0  0  0  0
   62.3833   30.0990   50.6618 H   0  0  0  0  0  0  0  0  0  0  0  0
   60.2593   28.3163   52.1467 H   0  0  0  0  0  0  0  0  0  0  0  0
   61.0547   26.7361   51.8355 H   0  0  0  0  0  0  0  0  0  0  0  0
   62.0270   28.2465   51.8355 H   0  0  0  0  0  0  0  0  0  0  0  0
   60.5624   25.8788   49.9610 H   0  0  0  0  0  0  0  0  0  0  0  0
   59.7717   26.8549   48.6770 H   0  0  0  0  0  0  0  0  0  0  0  0
   61.5560   26.6474   48.6770 H   0  0  0  0  0  0  0  0  0  0  0  0
   59.0526   28.7787   48.2477 H   0  0  0  0  0  0  0  0  0  0  0  0
  1  2  1  0
  2  3  1  0
  3  4  1  0
  4  5  1  0
  5  6  1  0
  6  7  1  0
  7  8  2  0
  8  9  1  0
  9 10  2  0
 10 11  1  0
 11 12  2  0
 12 13  1  0
 13 14  2  0
 14 15  1  0
 14 16  1  0
 16 17  2  0
 17 18  1  0
 18 19  2  0
 19 20  1  0
 20 21  1  0
 20 22  1  0
 19 23  1  0
 23 24  2  0
 24  7  1  0
 13  8  1  0
 24 16  1  0
  1 25  1  0
  1 26  1  0
  1 27  1  0
  2 28  1  0
  2 29  1  0
  3 30  1  0
  4 31  1  0
  4 32  1  0
  5 33  1  0
  5 34  1  0
  6 35  1  0
  9 36  1  0
 10 37  1  0
 11 38  1  0
 12 39  1  0
 15 40  1  0
 15 41  1  0
 15 42  1  0
 17 43  1  0
 18 44  1  0
 21 45  1  0
 21 46  1  0
 21 47  1  0
 22 48  1  0
 22 49  1  0
 22 50  1  0
 23 51  1  0
M  CHG  1  14   1
M  END
>  <UniqueID>  (15) 
15

>  <SMILES>  (15) 
CCNCCNc1c2ccccc2[n+](C)c2ccc(N(C)C)cc12

>  <Energy>  (15) 
73.62814890415892

>  <Genealogy>  (15) 
CCNCCNc1c2ccccc2[n+](C)c2ccc(N(C)C)cc12 (3D coordinates assigned)
CCNCCNc1c2ccccc2[n+](C)c2ccc(N(C)C)cc12 (optimized conformer: 73.62814890415892 kcal/mol)

>  <smiles>  (15) 
CCNCCNc1c2ccccc2[n+](C)c2ccc(N(C)C)cc12

>  <score_type>  (15) 
oracle

>  <origin>  (15) 
adg

>  <m_score__min__energy>  (15) 
-5.7199999999999998

>  <m_primary>  (15) 
energy

$$$$
16:0
     RDKit          3D

 55 56  0  0  0  0  0  0  0  0999 V2000
   60.1640   28.8700   49.0360 C   0  0  0  0  0  0  0  0  0  0  0  0
   58.6880   28.9680   48.6580 C   0  0  0  0  0  0  0  0  0  0  0  0
   58.5000   29.9450   47.6490 O   0  0  0  0  0  0  0  0  0  0  0  0
   59.6840   30.6930   47.4330 C   0  0  0  0  0  0  0  0  0  0  0  0
   59.3430   32.1740   47.2410 C   0  0  0  0  0  0  0  0  0  0  0  0
   59.2260   32.4880   45.8660 O   0  0  0  0  0  0  0  0  0  0  0  0
   58.1260   33.3470   45.6420 C   0  0  0  0  0  0  0  0  0  0  0  0
   57.0300   32.5780   44.9140 C   0  0  0  0  0  0  0  0  0  0  0  0
   57.1850   31.1990   45.1710 O   0  0  0  0  0  0  0  0  0  0  0  0
   56.7550   30.4420   44.0560 C   0  0  0  0  0  0  0  0  0  0  0  0
   56.7100   28.9600   44.4410 C   0  0  0  0  0  0  0  0  0  0  0  0
   57.4310   28.7240   45.7030 N   0  0  0  0  0  0  0  0  0  0  0  0
   57.8490   27.3410   45.7940 C   0  0  0  0  0  0  0  0  0  0  0  0
   59.2140   27.0260   45.9400 C   0  0  0  0  0  0  0  0  0  0  0  0
   60.1460   28.0760   46.0190 O   0  0  0  0  0  0  0  0  0  0  0  0
   60.8450   28.6320   44.9110 C   0  0  0  0  0  0  0  0  0  0  0  0
   59.6160   25.6810   46.0030 C   0  0  0  0  0  0  0  0  0  0  0  0
   58.6770   24.6340   45.9380 C   0  0  0  0  0  0  0  0  0  0  0  0
   59.0890   23.2900   45.9770 O   0  0  0  0  0  0  0  0  0  0  0  0
   59.3630   22.4870   44.8340 C   0  0  0  0  0  0  0  0  0  0  0  0
   57.3000   24.9430   45.8320 C   0  0  0  0  0  0  0  0  0  0  0  0
   56.2950   23.9450   45.7840 C   0  0  0  0  0  0  0  0  0  0  0  0
   56.5830   22.7190   45.8320 O   0  0  0  0  0  0  0  0  0  0  0  0
   54.9500   24.3120   45.6860 C   0  0  0  0  0  0  0  0  0  0  0  0
   54.6030   25.6580   45.6330 C   0  0  0  0  0  0  0  0  0  0  0  0
   55.5700   26.6080   45.6720 N   0  0  0  0  0  0  0  0  0  0  0  0
   56.8940   26.3020   45.7660 C   0  0  0  0  0  0  0  0  0  0  0  0
   60.2623   28.8635   50.1316 H   0  0  0  0  0  0  0  0  0  0  0  0
   60.5871   27.9418   48.6244 H   0  0  0  0  0  0  0  0  0  0  0  0
   60.7061   29.7341   48.6244 H   0  0  0  0  0  0  0  0  0  0  0  0
   58.3436   27.9918   48.2859 H   0  0  0  0  0  0  0  0  0  0  0  0
   58.1104   29.2586   49.5479 H   0  0  0  0  0  0  0  0  0  0  0  0
   60.3481   30.5823   48.3029 H   0  0  0  0  0  0  0  0  0  0  0  0
   60.1864   30.3189   46.5287 H   0  0  0  0  0  0  0  0  0  0  0  0
   58.3892   32.3926   47.7434 H   0  0  0  0  0  0  0  0  0  0  0  0
   60.1515   32.7813   47.6741 H   0  0  0  0  0  0  0  0  0  0  0  0
   57.7415   33.7115   46.6060 H   0  0  0  0  0  0  0  0  0  0  0  0
   58.4448   34.2040   45.0305 H   0  0  0  0  0  0  0  0  0  0  0  0
   56.0452   32.9113   45.2733 H   0  0  0  0  0  0  0  0  0  0  0  0
   57.1027   32.7639   43.8323 H   0  0  0  0  0  0  0  0  0  0  0  0
   55.7515   30.7736   43.7510 H   0  0  0  0  0  0  0  0  0  0  0  0
   57.4548   30.5856   43.2195 H   0  0  0  0  0  0  0  0  0  0  0  0
   55.6613   28.6508   44.5619 H   0  0  0  0  0  0  0  0  0  0  0  0
   57.1932   28.3747   43.6448 H   0  0  0  0  0  0  0  0  0  0  0  0
   58.2620   29.3590   45.7610 H   0  0  0  0  0  0  0  0  0  0  0  0
   56.8180   28.9660   46.5170 H   0  0  0  0  0  0  0  0  0  0  0  0
   61.6570   29.2779   45.2764 H   0  0  0  0  0  0  0  0  0  0  0  0
   61.2682   27.8210   44.3001 H   0  0  0  0  0  0  0  0  0  0  0  0
   60.1500   29.2268   44.3001 H   0  0  0  0  0  0  0  0  0  0  0  0
   60.6848   25.4416   46.1050 H   0  0  0  0  0  0  0  0  0  0  0  0
   59.7025   21.4920   45.1577 H   0  0  0  0  0  0  0  0  0  0  0  0
   58.4491   22.3842   44.2305 H   0  0  0  0  0  0  0  0  0  0  0  0
   60.1491   22.9643   44.2305 H   0  0  0  0  0  0  0  0  0  0  0  0
   54.1683   23.5389   45.6509 H   0  0  0  0  0  0  0  0  0  0  0  0
   53.5454   25.9515   45.5595 H   0  0  0  0  0  0  0  0  0  0  0  0
  1  2  1  0
  2  3  1  0
  3  4  1  0
  4  5  1  0
  5  6  1  0
  6  7  1  0
  7  8  1  0
  8  9  1  0
  9 10  1  0
 10 11  1  0
 11 12  1  0
 12 13  1  0
 13 14  2  0
 14 15  1  0
 15 16  1  0
 14 17  1  0
 17 18  2  0
 18 19  1  0
 19 20  1  0
 18 21  1  0
 21 22  1  0
 22 23  2  0
 22 24  1  0
 24 25  2  0
 25 26  1  0
 26 27  1  0
 27 13  1  0
 27 21  2  0
  1 28  1  0
  1 29  1  0
  1 30  1  0
  2 31  1  0
  2 32  1  0
  4 33  1  0
  4 34  1  0
  5 35  1  0
  5 36  1  0
  7 37  1  0
  7 38  1  0
  8 39  1  0
  8 40  1  0
 10 41  1  0
 10 42  1  0
 11 43  1  0
 11 44  1  0
 12 45  1  0
 12 46  1  0
 16 47  1  0
 16 48  1  0
 16 49  1  0
 17 50  1  0
 20 51  1  0
 20 52  1  0
 20 53  1  0
 24 54  1  0
 25 55  1  0
M  CHG  2  12   1  26  -1
M  END
>  <UniqueID>  (16) 
16

>  <SMILES>  (16) 
CCOCCOCCOCC[NH2+]c1c(OC)cc(OC)c2c(=O)cc[n-]c12

>  <Energy>  (16) 
61.136442775213396

>  <Genealogy>  (16) 
CCOCCOCCOCC[NH2+]c1c(OC)cc(OC)c2c(=O)cc[n-]c12 (protonated)
CCOCCOCCOCC[NH2+]c1c(OC)cc(OC)c2c(=O)cc[n-]c12 (3D coordinates assigned)
CCOCCOCCOCC[NH2+]c1c(OC)cc(OC)c2c(=O)cc[n-]c12 (optimized conformer: 61.136442775213396 kcal/mol)

>  <smiles>  (16) 
CCOCCOCCOCCNc1c(OC)cc(OC)c2c(=O)cc[nH]c12

>  <score_type>  (16) 
oracle

>  <origin>  (16) 
adg

>  <m_score__min__energy>  (16) 
-3.7599999999999998

>  <m_primary>  (16) 
energy

$$$$
17:0
     RDKit          3D

 54 56  0  0  0  0  0  0  0  0999 V2000
   55.4850   23.9760   44.4070 C   0  0  0  0  0  0  0  0  0  0  0  0
   54.8370   24.5980   45.6340 C   0  0  0  0  0  0  0  0  0  0  0  0
   55.5370   25.7750   45.9810 O   0  0  0  0  0  0  0  0  0  0  0  0
   56.7920   25.4390   46.5310 C   0  0  0  0  0  0  0  0  0  0  0  0
   57.8860   25.7680   45.5080 C   0  0  0  0  0  0  0  0  0  0  0  0
   57.3900   26.6200   44.4070 N   0  0  0  0  0  0  0  0  0  0  0  0
   58.3700   27.6420   43.9800 C   0  0  0  0  0  0  0  0  0  0  0  0
   57.7690   29.0590   43.9420 C   0  0  0  0  0  0  0  0  0  0  0  0
   57.3370   29.4850   45.2740 N   0  0  0  0  0  0  0  0  0  0  0  0
   58.1440   30.3370   46.1080 C   0  0  0  0  0  0  0  0  0  0  0  0
   58.9520   29.7880   47.1220 C   0  0  0  0  0  0  0  0  0  0  0  0
   58.9640   28.3980   47.3760 C   0  0  0  0  0  0  0  0  0  0  0  0
   59.7830   27.8630   48.3700 C   0  0  0  0  0  0  0  0  0  0  0  0
   60.5940   28.6980   49.1300 C   0  0  0  0  0  0  0  0  0  0  0  0
   60.5650   30.0770   48.9260 C   0  0  0  0  0  0  0  0  0  0  0  0
   59.7220   30.6520   47.9410 C   0  0  0  0  0  0  0  0  0  0  0  0
   59.6260   32.0200   47.7900 N   0  0  0  0  0  0  0  0  0  0  0  0
   59.9720   32.8820   48.9400 C   0  0  0  0  0  0  0  0  0  0  0  0
   59.0190   32.5540   46.6670 C   0  0  0  0  0  0  0  0  0  0  0  0
   59.2160   33.9110   46.2420 C   0  0  0  0  0  0  0  0  0  0  0  0
   60.3840   34.7630   46.6820 C   0  0  0  0  0  0  0  0  0  0  0  0
   58.3770   34.4560   45.2600 C   0  0  0  0  0  0  0  0  0  0  0  0
   57.4450   33.6660   44.6000 C   0  0  0  0  0  0  0  0  0  0  0  0
   57.3620   32.3070   44.8790 C   0  0  0  0  0  0  0  0  0  0  0  0
   58.1630   31.7290   45.8850 C   0  0  0  0  0  0  0  0  0  0  0  0
   56.2450   23.2465   44.7237 H   0  0  0  0  0  0  0  0  0  0  0  0
   54.7174   23.4678   43.8048 H   0  0  0  0  0  0  0  0  0  0  0  0
   55.9613   24.7637   43.8048 H   0  0  0  0  0  0  0  0  0  0  0  0
   53.7886   24.8453   45.4112 H   0  0  0  0  0  0  0  0  0  0  0  0
   54.8715   23.8861   46.4719 H   0  0  0  0  0  0  0  0  0  0  0  0
   56.9596   26.0191   47.4505 H   0  0  0  0  0  0  0  0  0  0  0  0
   56.8180   24.3663   46.7730 H   0  0  0  0  0  0  0  0  0  0  0  0
   58.7032   26.2952   46.0220 H   0  0  0  0  0  0  0  0  0  0  0  0
   58.2309   24.8201   45.0693 H   0  0  0  0  0  0  0  0  0  0  0  0
   57.1460   26.0050   43.5990 H   0  0  0  0  0  0  0  0  0  0  0  0
   56.5050   27.0980   44.6990 H   0  0  0  0  0  0  0  0  0  0  0  0
   59.2147   27.6363   44.6846 H   0  0  0  0  0  0  0  0  0  0  0  0
   58.6918   27.3890   42.9590 H   0  0  0  0  0  0  0  0  0  0  0  0
   58.5290   29.7615   43.5692 H   0  0  0  0  0  0  0  0  0  0  0  0
   56.8924   29.0486   43.2776 H   0  0  0  0  0  0  0  0  0  0  0  0
   56.3470   29.3060   45.5550 H   0  0  0  0  0  0  0  0  0  0  0  0
   58.3206   27.7309   46.7835 H   0  0  0  0  0  0  0  0  0  0  0  0
   59.7873   26.7783   48.5530 H   0  0  0  0  0  0  0  0  0  0  0  0
   61.2599   28.2700   49.8938 H   0  0  0  0  0  0  0  0  0  0  0  0
   61.2056   30.7288   49.5382 H   0  0  0  0  0  0  0  0  0  0  0  0
   59.7573   32.3471   49.8769 H   0  0  0  0  0  0  0  0  0  0  0  0
   61.0416   33.1356   48.8994 H   0  0  0  0  0  0  0  0  0  0  0  0
   59.3746   33.8047   48.8994 H   0  0  0  0  0  0  0  0  0  0  0  0
   60.4234   34.7918   47.7809 H   0  0  0  0  0  0  0  0  0  0  0  0
   61.3187   34.3331   46.2927 H   0  0  0  0  0  0  0  0  0  0  0  0
   60.2601   35.7843   46.2927 H   0  0  0  0  0  0  0  0  0  0  0  0
   58.4580   35.5239   45.0089 H   0  0  0  0  0  0  0  0  0  0  0  0
   56.7718   34.1162   43.8557 H   0  0  0  0  0  0  0  0  0  0  0  0
   56.6642   31.6759   44.3091 H   0  0  0  0  0  0  0  0  0  0  0  0
  1  2  1  0
  2  3  1  0
  3  4  1  0
  4  5  1  0
  5  6  1  0
  6  7  1  0
  7  8  1  0
  8  9  1  0
  9 10  1  0
 10 11  2  0
 11 12  1  0
 12 13  2  0
 13 14  1  0
 14 15  2  0
 15 16  1  0
 16 17  2  0
 17 18  1  0
 17 19  1  0
 19 20  2  0
 20 21  1  0
 20 22  1  0
 22 23  2  0
 23 24  1  0
 24 25  2  0
 25 10  1  0
 16 11  1  0
 25 19  1  0
  1 26  1  0
  1 27  1  0
  1 28  1  0
  2 29  1  0
  2 30  1  0
  4 31  1  0
  4 32  1  0
  5 33  1  0
  5 34  1  0
  6 35  1  0
  6 36  1  0
  7 37  1  0
  7 38  1  0
  8 39  1  0
  8 40  1  0
  9 41  1  0
 12 42  1  0
 13 43  1  0
 14 44  1  0
 15 45  1  0
 18 46  1  0
 18 47  1  0
 18 48  1  0
 21 49  1  0
 21 50  1  0
 21 51  1  0
 22 52  1  0
 23 53  1  0
 24 54  1  0
M  CHG  2   6   1  17   1
M  END
>  <UniqueID>  (17) 
17

>  <SMILES>  (17) 
CCOCC[NH2+]CCNc1c2ccccc2[n+](C)c2c(C)cccc12

>  <Energy>  (17) 
88.20014781354433

>  <Genealogy>  (17) 
CCOCC[NH2+]CCNc1c2ccccc2[n+](C)c2c(C)cccc12 (protonated)
CCOCC[NH2+]CCNc1c2ccccc2[n+](C)c2c(C)cccc12 (3D coordinates assigned)
CCOCC[NH2+]CCNc1c2ccccc2[n+](C)c2c(C)cccc12 (optimized conformer: 88.20014781354433 kcal/mol)

>  <smiles>  (17) 
CCOCCNCCNc1c2ccccc2[n+](C)c2c(C)cccc12

>  <score_type>  (17) 
oracle

>  <origin>  (17) 
adg

>  <m_score__min__energy>  (17) 
-4.3799999999999999

>  <m_primary>  (17) 
energy

$$$$
18:0
     RDKit          3D

 44 46  0  0  0  0  0  0  0  0999 V2000
   59.0070   28.2810   46.1540 C   0  0  0  0  0  0  0  0  0  0  0  0
   57.6710   28.5710   45.4650 C   0  0  0  0  0  0  0  0  0  0  0  0
   57.8650   29.1870   44.1200 N   0  0  0  0  0  0  0  0  0  0  0  0
   57.3820   28.3140   43.0270 C   0  0  0  0  0  0  0  0  0  0  0  0
   58.1470   26.9890   42.9580 C   0  0  0  0  0  0  0  0  0  0  0  0
   57.0290   30.7210   44.0350 S   0  0  0  0  0  0  0  0  0  0  0  0
   57.0350   31.2370   42.6210 O   0  0  0  0  0  0  0  0  0  0  0  0
   55.6030   30.5490   44.4800 O   0  0  0  0  0  0  0  0  0  0  0  0
   57.8470   31.8990   45.0600 C   0  0  0  0  0  0  0  0  0  0  0  0
   57.2510   33.1640   45.2780 C   0  0  0  0  0  0  0  0  0  0  0  0
   57.8920   34.1320   46.0730 C   0  0  0  0  0  0  0  0  0  0  0  0
   59.1240   33.8050   46.6330 C   0  0  0  0  0  0  0  0  0  0  0  0
   59.8920   34.5780   47.4250 N   0  0  0  0  0  0  0  0  0  0  0  0
   60.9720   33.8210   47.7240 C   0  0  0  0  0  0  0  0  0  0  0  0
   60.9060   32.5880   47.0950 C   0  0  0  0  0  0  0  0  0  0  0  0
   59.7080   32.5790   46.4160 C   0  0  0  0  0  0  0  0  0  0  0  0
   59.0980   31.5970   45.6380 C   0  0  0  0  0  0  0  0  0  0  0  0
   61.9110   31.4910   47.2760 C   0  0  0  0  0  0  0  0  0  0  0  0
   63.2310   32.0630   47.8300 C   0  0  0  0  0  0  0  0  0  0  0  0
   62.9850   33.0520   48.9900 C   0  0  0  0  0  0  0  0  0  0  0  0
   62.1490   34.2650   48.5380 C   0  0  0  0  0  0  0  0  0  0  0  0
   58.8709   28.3106   47.2451 H   0  0  0  0  0  0  0  0  0  0  0  0
   59.3645   27.2843   45.8560 H   0  0  0  0  0  0  0  0  0  0  0  0
   59.7456   29.0397   45.8560 H   0  0  0  0  0  0  0  0  0  0  0  0
   57.1180   27.6273   45.3483 H   0  0  0  0  0  0  0  0  0  0  0  0
   57.1106   29.2821   46.0898 H   0  0  0  0  0  0  0  0  0  0  0  0
   58.8750   29.4020   43.9480 H   0  0  0  0  0  0  0  0  0  0  0  0
   56.3160   28.0985   43.1917 H   0  0  0  0  0  0  0  0  0  0  0  0
   57.5434   28.8448   42.0771 H   0  0  0  0  0  0  0  0  0  0  0  0
   58.3535   26.6313   43.9775 H   0  0  0  0  0  0  0  0  0  0  0  0
   57.5407   26.2429   42.4235 H   0  0  0  0  0  0  0  0  0  0  0  0
   59.0963   27.1411   42.4235 H   0  0  0  0  0  0  0  0  0  0  0  0
   56.2768   33.3928   44.8213 H   0  0  0  0  0  0  0  0  0  0  0  0
   57.4338   35.1168   46.2467 H   0  0  0  0  0  0  0  0  0  0  0  0
   59.6960   35.5530   47.7430 H   0  0  0  0  0  0  0  0  0  0  0  0
   59.5759   30.6190   45.4798 H   0  0  0  0  0  0  0  0  0  0  0  0
   61.5132   30.7468   47.9816 H   0  0  0  0  0  0  0  0  0  0  0  0
   62.1058   31.0189   46.3017 H   0  0  0  0  0  0  0  0  0  0  0  0
   63.8531   31.2328   48.1957 H   0  0  0  0  0  0  0  0  0  0  0  0
   63.7355   32.6070   47.0179 H   0  0  0  0  0  0  0  0  0  0  0  0
   62.4484   32.5298   49.7958 H   0  0  0  0  0  0  0  0  0  0  0  0
   63.9610   33.4197   49.3396 H   0  0  0  0  0  0  0  0  0  0  0  0
   61.7908   34.8078   49.4251 H   0  0  0  0  0  0  0  0  0  0  0  0
   62.7805   34.9202   47.9200 H   0  0  0  0  0  0  0  0  0  0  0  0
  1  2  1  0
  2  3  1  0
  3  4  1  0
  4  5  1  0
  3  6  1  0
  6  7  2  0
  6  8  2  0
  6  9  1  0
  9 10  2  0
 10 11  1  0
 11 12  2  0
 12 13  1  0
 13 14  1  0
 14 15  2  0
 15 16  1  0
 16 17  2  0
 15 18  1  0
 18 19  1  0
 19 20  1  0
 20 21  1  0
 17  9  1  0
 16 12  1  0
 21 14  1  0
  1 22  1  0
  1 23  1  0
  1 24  1  0
  2 25  1  0
  2 26  1  0
  3 27  1  0
  4 28  1  0
  4 29  1  0
  5 30  1  0
  5 31  1  0
  5 32  1  0
 10 33  1  0
 11 34  1  0
 13 35  1  0
 17 36  1  0
 18 37  1  0
 18 38  1  0
 19 39  1  0
 19 40  1  0
 20 41  1  0
 20 42  1  0
 21 43  1  0
 21 44  1  0
M  CHG  1   3   1
M  END
>  <UniqueID>  (18) 
18

>  <SMILES>  (18) 
CC[NH+](CC)S(=O)(=O)c1ccc2[nH]c3c(c2c1)CCCC3

>  <Energy>  (18) 
75.75801476404548

>  <Genealogy>  (18) 
CC[NH+](CC)S(=O)(=O)c1ccc2[nH]c3c(c2c1)CCCC3 (protonated)
CC[NH+](CC)S(=O)(=O)c1ccc2[nH]c3c(c2c1)CCCC3 (3D coordinates assigned)
CC[NH+](CC)S(=O)(=O)c1ccc2[nH]c3c(c2c1)CCCC3 (nonaromatic ring conformer: 75.75801476404548 kcal/mol)

>  <smiles>  (18) 
CCN(CC)S(=O)(=O)c1ccc2[nH]c3c(c2c1)CCCC3

>  <score_type>  (18) 
oracle

>  <origin>  (18) 
adg

>  <m_score__min__energy>  (18) 
-7.04

>  <m_primary>  (18) 
energy

$$$$
19:0
     RDKit          3D

 55 58  0  0  0  0  0  0  0  0999 V2000
   58.3520   27.7750   44.0870 C   0  0  0  0  0  0  0  0  0  0  0  0
   57.3540   27.5460   45.2310 C   0  0  0  0  0  0  0  0  0  0  0  0
   57.9030   26.7620   46.3620 N   0  0  0  0  0  0  0  0  0  0  0  0
   57.0790   25.5790   46.6680 C   0  0  0  0  0  0  0  0  0  0  0  0
   59.3290   26.4170   46.1750 C   0  0  0  0  0  0  0  0  0  0  0  0
   60.1990   27.1440   47.2030 C   0  0  0  0  0  0  0  0  0  0  0  0
   59.3830   27.9940   48.0680 N   0  0  0  0  0  0  0  0  0  0  0  0
   59.8140   29.3210   48.3890 C   0  0  0  0  0  0  0  0  0  0  0  0
   59.4210   30.3840   47.5900 C   0  0  0  0  0  0  0  0  0  0  0  0
   59.8530   31.6640   47.8450 C   0  0  0  0  0  0  0  0  0  0  0  0
   60.5870   31.9760   48.9630 N   0  0  0  0  0  0  0  0  0  0  0  0
   60.7510   33.3810   49.3710 C   0  0  0  0  0  0  0  0  0  0  0  0
   61.0900   30.9350   49.7310 C   0  0  0  0  0  0  0  0  0  0  0  0
   62.0220   31.1600   50.7720 C   0  0  0  0  0  0  0  0  0  0  0  0
   62.4790   30.1060   51.5660 C   0  0  0  0  0  0  0  0  0  0  0  0
   63.7320   30.4440   52.9680 Br  0  0  0  0  0  0  0  0  0  0  0  0
   62.0280   28.8080   51.3410 C   0  0  0  0  0  0  0  0  0  0  0  0
   61.1380   28.5460   50.3000 C   0  0  0  0  0  0  0  0  0  0  0  0
   60.6820   29.5860   49.4690 C   0  0  0  0  0  0  0  0  0  0  0  0
   59.3390   32.4990   46.7520 C   0  0  0  0  0  0  0  0  0  0  0  0
   59.6370   33.8260   46.4150 C   0  0  0  0  0  0  0  0  0  0  0  0
   59.0400   34.3730   45.2710 C   0  0  0  0  0  0  0  0  0  0  0  0
   59.2690   35.5700   44.9540 O   0  0  0  0  0  0  0  0  0  0  0  0
   58.2010   33.5870   44.4690 C   0  0  0  0  0  0  0  0  0  0  0  0
   57.9930   32.2420   44.7990 C   0  0  0  0  0  0  0  0  0  0  0  0
   56.9720   31.2090   43.7390 S   0  0  0  0  0  0  0  0  0  0  0  0
   57.6110   31.9420   42.2000 C   0  0  0  0  0  0  0  0  0  0  0  0
   58.5780   31.7400   45.9250 N   0  0  0  0  0  0  0  0  0  0  0  0
   58.5480   30.3490   46.3750 C   0  0  0  0  0  0  0  0  0  0  0  0
   59.3435   28.0025   44.5055 H   0  0  0  0  0  0  0  0  0  0  0  0
   58.4146   26.8679   43.4680 H   0  0  0  0  0  0  0  0  0  0  0  0
   58.0129   28.6187   43.4680 H   0  0  0  0  0  0  0  0  0  0  0  0
   57.0346   28.5269   45.6129 H   0  0  0  0  0  0  0  0  0  0  0  0
   56.5204   26.9619   44.8139 H   0  0  0  0  0  0  0  0  0  0  0  0
   56.9971   25.4614   47.7586 H   0  0  0  0  0  0  0  0  0  0  0  0
   56.0755   25.7097   46.2369 H   0  0  0  0  0  0  0  0  0  0  0  0
   57.5494   24.6830   46.2369 H   0  0  0  0  0  0  0  0  0  0  0  0
   59.4571   25.3312   46.2964 H   0  0  0  0  0  0  0  0  0  0  0  0
   59.6391   26.7266   45.1660 H   0  0  0  0  0  0  0  0  0  0  0  0
   60.7244   26.4006   47.8204 H   0  0  0  0  0  0  0  0  0  0  0  0
   60.9213   27.7776   46.6673 H   0  0  0  0  0  0  0  0  0  0  0  0
   58.3860   27.7430   48.2640 H   0  0  0  0  0  0  0  0  0  0  0  0
   60.7585   33.4455   50.4691 H   0  0  0  0  0  0  0  0  0  0  0  0
   61.7006   33.7695   48.9744 H   0  0  0  0  0  0  0  0  0  0  0  0
   59.9164   33.9778   48.9744 H   0  0  0  0  0  0  0  0  0  0  0  0
   62.3915   32.1792   50.9583 H   0  0  0  0  0  0  0  0  0  0  0  0
   62.3747   27.9872   51.9861 H   0  0  0  0  0  0  0  0  0  0  0  0
   60.7893   27.5172   50.1269 H   0  0  0  0  0  0  0  0  0  0  0  0
   60.3228   34.4239   47.0332 H   0  0  0  0  0  0  0  0  0  0  0  0
   57.7096   34.0235   43.5869 H   0  0  0  0  0  0  0  0  0  0  0  0
   58.3158   32.7505   42.4440 H   0  0  0  0  0  0  0  0  0  0  0  0
   58.1287   31.1690   41.6130 H   0  0  0  0  0  0  0  0  0  0  0  0
   56.7746   32.3494   41.6130 H   0  0  0  0  0  0  0  0  0  0  0  0
   57.5248   30.0352   46.6293 H   0  0  0  0  0  0  0  0  0  0  0  0
   58.8868   29.6332   45.6115 H   0  0  0  0  0  0  0  0  0  0  0  0
  1  2  1  0
  2  3  1  0
  3  4  1  0
  3  5  1  0
  5  6  1  0
  6  7  1  0
  7  8  1  0
  8  9  2  0
  9 10  1  0
 10 11  2  0
 11 12  1  0
 11 13  1  0
 13 14  2  0
 14 15  1  0
 15 16  1  0
 15 17  2  0
 17 18  1  0
 18 19  2  0
 10 20  1  0
 20 21  2  0
 21 22  1  0
 22 23  2  0
 22 24  1  0
 24 25  2  0
 25 26  1  0
 26 27  1  0
 25 28  1  0
 28 29  1  0
 19  8  1  0
 28 20  1  0
 29  9  1  0
 19 13  1  0
  1 30  1  0
  1 31  1  0
  1 32  1  0
  2 33  1  0
  2 34  1  0
  4 35  1  0
  4 36  1  0
  4 37  1  0
  5 38  1  0
  5 39  1  0
  6 40  1  0
  6 41  1  0
  7 42  1  0
 12 43  1  0
 12 44  1  0
 12 45  1  0
 14 46  1  0
 17 47  1  0
 18 48  1  0
 21 49  1  0
 24 50  1  0
 27 51  1  0
 27 52  1  0
 27 53  1  0
 29 54  1  0
 29 55  1  0
M  CHG  1  11   1
M  END
>  <UniqueID>  (19) 
19

>  <SMILES>  (19) 
CCN(C)CCNc1c2c([n+](C)c3cc(Br)ccc13)-c1cc(=O)cc(SC)n1C2

>  <Energy>  (19) 
99.62441600536575

>  <Genealogy>  (19) 
CCN(C)CCNc1c2c([n+](C)c3cc(Br)ccc13)-c1cc(=O)cc(SC)n1C2 (3D coordinates assigned)
CCN(C)CCNc1c2c([n+](C)c3cc(Br)ccc13)-c1cc(=O)cc(SC)n1C2 (nonaromatic ring conformer: 99.62441600536575 kcal/mol)

>  <smiles>  (19) 
CCN(C)CCNc1c2c([n+](C)c3cc(Br)ccc13)-c1cc(=O)cc(SC)n1C2

>  <score_type>  (19) 
oracle

>  <origin>  (19) 
adg

>  <m_score__min__energy>  (19) 
-6.0099999999999998

>  <m_primary>  (19) 
energy

$$$$
20:0
     RDKit          3D

 81 84  0  0  0  0  0  0  0  0999 V2000
   57.4390   32.4870   52.0390 C   0  0  0  0  0  0  0  0  0  0  0  0
   56.8340   31.1430   51.6550 C   0  0  0  0  0  0  0  0  0  0  0  0
   57.7590   30.4000   50.8820 O   0  0  0  0  0  0  0  0  0  0  0  0
   59.0790   30.8200   51.1560 C   0  0  0  0  0  0  0  0  0  0  0  0
   59.9840   29.5970   51.3400 C   0  0  0  0  0  0  0  0  0  0  0  0
   59.7460   28.5900   50.3670 O   0  0  0  0  0  0  0  0  0  0  0  0
   60.8120   28.4700   49.4400 C   0  0  0  0  0  0  0  0  0  0  0  0
   60.5790   29.2890   48.1560 C   0  0  0  0  0  0  0  0  0  0  0  0
   59.2390   29.8780   48.1290 N   0  0  0  0  0  0  0  0  0  0  0  0
   58.8690   30.7830   47.0790 C   0  0  0  0  0  0  0  0  0  0  0  0
   58.1130   30.3320   45.9870 C   0  0  0  0  0  0  0  0  0  0  0  0
   57.6380   29.0040   45.9390 C   0  0  0  0  0  0  0  0  0  0  0  0
   56.8470   28.5710   44.8780 C   0  0  0  0  0  0  0  0  0  0  0  0
   56.5080   29.4520   43.8570 C   0  0  0  0  0  0  0  0  0  0  0  0
   56.9690   30.7690   43.8830 C   0  0  0  0  0  0  0  0  0  0  0  0
   57.8030   31.2330   44.9330 C   0  0  0  0  0  0  0  0  0  0  0  0
   58.2950   32.5260   44.9580 N   0  0  0  0  0  0  0  0  0  0  0  0
   58.2130   33.3700   43.7450 C   0  0  0  0  0  0  0  0  0  0  0  0
   58.8820   33.0200   46.1090 C   0  0  0  0  0  0  0  0  0  0  0  0
   59.1710   34.3980   46.2740 C   0  0  0  0  0  0  0  0  0  0  0  0
   59.8340   34.8690   47.4080 C   0  0  0  0  0  0  0  0  0  0  0  0
   60.2120   33.9810   48.4230 C   0  0  0  0  0  0  0  0  0  0  0  0
   60.9210   34.3800   49.5670 O   0  0  0  0  0  0  0  0  0  0  0  0
   62.3360   34.3530   49.7290 C   0  0  0  0  0  0  0  0  0  0  0  0
   62.8070   33.4090   50.8670 C   0  0  0  0  0  0  0  0  0  0  0  0
   63.6280   32.2030   50.4900 N   0  0  0  0  0  0  0  0  0  0  0  0
   62.9590   31.6070   49.2980 C   0  0  0  0  0  0  0  0  0  0  0  0
   65.0330   32.5580   50.0950 C   0  0  0  0  0  0  0  0  0  0  0  0
   66.0530   32.3410   51.2350 C   0  0  0  0  0  0  0  0  0  0  0  0
   66.1080   30.9140   51.6910 N   0  0  0  0  0  0  0  0  0  0  0  0
   67.1460   30.1850   50.9170 C   0  0  0  0  0  0  0  0  0  0  0  0
   66.5020   30.8780   53.1220 C   0  0  0  0  0  0  0  0  0  0  0  0
   64.7940   30.2140   51.5190 C   0  0  0  0  0  0  0  0  0  0  0  0
   63.6000   31.1830   51.5860 C   0  0  0  0  0  0  0  0  0  0  0  0
   59.8790   32.6340   48.3080 C   0  0  0  0  0  0  0  0  0  0  0  0
   59.2090   32.1410   47.1730 C   0  0  0  0  0  0  0  0  0  0  0  0
   57.4773   32.5721   53.1350 H   0  0  0  0  0  0  0  0  0  0  0  0
   58.4573   32.5611   51.6297 H   0  0  0  0  0  0  0  0  0  0  0  0
   56.8193   33.2984   51.6297 H   0  0  0  0  0  0  0  0  0  0  0  0
   56.5867   30.5806   52.5674 H   0  0  0  0  0  0  0  0  0  0  0  0
   55.9223   31.3126   51.0634 H   0  0  0  0  0  0  0  0  0  0  0  0
   59.4509   31.4269   50.3173 H   0  0  0  0  0  0  0  0  0  0  0  0
   59.0859   31.4195   52.0782 H   0  0  0  0  0  0  0  0  0  0  0  0
   61.0327   29.9200   51.2634 H   0  0  0  0  0  0  0  0  0  0  0  0
   59.7636   29.1650   52.3273 H   0  0  0  0  0  0  0  0  0  0  0  0
   61.7368   28.8232   49.9196 H   0  0  0  0  0  0  0  0  0  0  0  0
   60.8825   27.4112   49.1503 H   0  0  0  0  0  0  0  0  0  0  0  0
   61.3249   30.0960   48.1069 H   0  0  0  0  0  0  0  0  0  0  0  0
   60.6753   28.6126   47.2939 H   0  0  0  0  0  0  0  0  0  0  0  0
   58.6270   29.8450   48.9770 H   0  0  0  0  0  0  0  0  0  0  0  0
   57.8951   28.3041   46.7477 H   0  0  0  0  0  0  0  0  0  0  0  0
   56.4900   27.5310   44.8475 H   0  0  0  0  0  0  0  0  0  0  0  0
   55.8741   29.1096   43.0257 H   0  0  0  0  0  0  0  0  0  0  0  0
   56.6810   31.4588   43.0760 H   0  0  0  0  0  0  0  0  0  0  0  0
   58.1105   34.4251   44.0387 H   0  0  0  0  0  0  0  0  0  0  0  0
   59.1277   33.2429   43.1474 H   0  0  0  0  0  0  0  0  0  0  0  0
   57.3398   33.0692   43.1474 H   0  0  0  0  0  0  0  0  0  0  0  0
   58.8666   35.1100   45.4927 H   0  0  0  0  0  0  0  0  0  0  0  0
   60.0604   35.9411   47.5050 H   0  0  0  0  0  0  0  0  0  0  0  0
   62.7888   34.0148   48.7853 H   0  0  0  0  0  0  0  0  0  0  0  0
   62.6518   35.3713   49.9996 H   0  0  0  0  0  0  0  0  0  0  0  0
   63.4099   34.0108   51.5630 H   0  0  0  0  0  0  0  0  0  0  0  0
   61.8773   32.9908   51.2802 H   0  0  0  0  0  0  0  0  0  0  0  0
   62.1755   30.9090   49.6280 H   0  0  0  0  0  0  0  0  0  0  0  0
   62.5066   32.4068   48.6933 H   0  0  0  0  0  0  0  0  0  0  0  0
   63.7014   31.0656   48.6933 H   0  0  0  0  0  0  0  0  0  0  0  0
   65.3254   31.9320   49.2390 H   0  0  0  0  0  0  0  0  0  0  0  0
   65.0437   33.6287   49.8429 H   0  0  0  0  0  0  0  0  0  0  0  0
   67.0505   32.6358   50.8770 H   0  0  0  0  0  0  0  0  0  0  0  0
   65.7336   32.9537   52.0909 H   0  0  0  0  0  0  0  0  0  0  0  0
   67.8442   29.6946   51.6113 H   0  0  0  0  0  0  0  0  0  0  0  0
   66.6649   29.4254   50.2834 H   0  0  0  0  0  0  0  0  0  0  0  0
   67.6973   30.8953   50.2834 H   0  0  0  0  0  0  0  0  0  0  0  0
   65.6039   30.9601   53.7518 H   0  0  0  0  0  0  0  0  0  0  0  0
   67.0153   29.9292   53.3372 H   0  0  0  0  0  0  0  0  0  0  0  0
   67.1787   31.7181   53.3372 H   0  0  0  0  0  0  0  0  0  0  0  0
   64.7868   29.7116   50.5405 H   0  0  0  0  0  0  0  0  0  0  0  0
   64.6876   29.4930   52.3430 H   0  0  0  0  0  0  0  0  0  0  0  0
   62.6693   30.6024   51.5041 H   0  0  0  0  0  0  0  0  0  0  0  0
   63.6582   31.7199   52.5443 H   0  0  0  0  0  0  0  0  0  0  0  0
   60.1449   31.9416   49.1203 H   0  0  0  0  0  0  0  0  0  0  0  0
  1  2  1  0
  2  3  1  0
  3  4  1  0
  4  5  1  0
  5  6  1  0
  6  7  1  0
  7  8  1  0
  8  9  1  0
  9 10  1  0
 10 11  2  0
 11 12  1  0
 12 13  2  0
 13 14  1  0
 14 15  2  0
 15 16  1  0
 16 17  2  0
 17 18  1  0
 17 19  1  0
 19 20  2  0
 20 21  1  0
 21 22  2  0
 22 23  1  0
 23 24  1  0
 24 25  1  0
 25 26  1  0
 26 27  1  0
 26 28  1  0
 28 29  1  0
 29 30  1  0
 30 31  1  0
 30 32  1  0
 30 33  1  0
 33 34  1  0
 22 35  1  0
 35 36  2  0
 36 10  1  0
 16 11  1  0
 36 19  1  0
 34 26  1  0
  1 37  1  0
  1 38  1  0
  1 39  1  0
  2 40  1  0
  2 41  1  0
  4 42  1  0
  4 43  1  0
  5 44  1  0
  5 45  1  0
  7 46  1  0
  7 47  1  0
  8 48  1  0
  8 49  1  0
  9 50  1  0
 12 51  1  0
 13 52  1  0
 14 53  1  0
 15 54  1  0
 18 55  1  0
 18 56  1  0
 18 57  1  0
 20 58  1  0
 21 59  1  0
 24 60  1  0
 24 61  1  0
 25 62  1  0
 25 63  1  0
 27 64  1  0
 27 65  1  0
 27 66  1  0
 28 67  1  0
 28 68  1  0
 29 69  1  0
 29 70  1  0
 31 71  1  0
 31 72  1  0
 31 73  1  0
 32 74  1  0
 32 75  1  0
 32 76  1  0
 33 77  1  0
 33 78  1  0
 34 79  1  0
 34 80  1  0
 35 81  1  0
M  CHG  3  17   1  26   1  30   1
M  END
>  <UniqueID>  (20) 
20

>  <SMILES>  (20) 
CCOCCOCCNc1c2ccccc2[n+](C)c2ccc(OCC[N+]3(C)CC[N+](C)(C)CC3)cc12

>  <Energy>  (20) 
138.23710592907986

>  <Genealogy>  (20) 
CCOCCOCCNc1c2ccccc2[n+](C)c2ccc(OCC[N+]3(C)CC[N+](C)(C)CC3)cc12 (3D coordinates assigned)
CCOCCOCCNc1c2ccccc2[n+](C)c2ccc(OCC[N+]3(C)CC[N+](C)(C)CC3)cc12 (nonaromatic ring conformer: 138.23710592907986 kcal/mol)

>  <smiles>  (20) 
CCOCCOCCNc1c2ccccc2[n+](C)c2ccc(OCC[N+]3(C)CC[N+](C)(C)CC3)cc12

>  <score_type>  (20) 
oracle

>  <origin>  (20) 
adg

>  <m_score__min__energy>  (20) 
-4.3200000000000003

>  <m_primary>  (20) 
energy

$$$$
21:0
     RDKit          3D

 47 50  0  0  0  0  0  0  0  0999 V2000
   52.4380   24.2280   45.2460 C   0  0  0  0  0  0  0  0  0  0  0  0
   53.8750   24.4530   45.5740 C   0  0  0  0  0  0  0  0  0  0  0  0
   54.8060   23.4660   45.8300 C   0  0  0  0  0  0  0  0  0  0  0  0
   55.9900   24.1250   46.0850 C   0  0  0  0  0  0  0  0  0  0  0  0
   55.7000   25.4720   45.9700 C   0  0  0  0  0  0  0  0  0  0  0  0
   56.6780   26.5990   46.1400 C   0  0  0  0  0  0  0  0  0  0  0  0
   56.1460   27.8650   45.6150 N   0  0  0  0  0  0  0  0  0  0  0  0
   57.0180   28.4260   44.5750 C   0  0  0  0  0  0  0  0  0  0  0  0
   57.4000   29.8310   44.9380 C   0  0  0  0  0  0  0  0  0  0  0  0
   56.5520   30.8790   44.7680 N   0  0  0  0  0  0  0  0  0  0  0  0
   57.2810   31.9300   45.1820 C   0  0  0  0  0  0  0  0  0  0  0  0
   56.8870   33.2650   45.2390 C   0  0  0  0  0  0  0  0  0  0  0  0
   57.8160   34.2020   45.7250 C   0  0  0  0  0  0  0  0  0  0  0  0
   59.1030   33.7870   46.1410 C   0  0  0  0  0  0  0  0  0  0  0  0
   60.2800   34.9970   46.7470 S   0  0  0  0  0  0  0  0  0  0  0  0
   61.3640   33.7370   47.4180 C   0  0  0  0  0  0  0  0  0  0  0  0
   61.0360   33.0950   48.6200 C   0  0  0  0  0  0  0  0  0  0  0  0
   61.8900   32.1230   49.1500 C   0  0  0  0  0  0  0  0  0  0  0  0
   63.0700   31.7870   48.4780 C   0  0  0  0  0  0  0  0  0  0  0  0
   63.3960   32.4200   47.2750 C   0  0  0  0  0  0  0  0  0  0  0  0
   62.5430   33.3930   46.7440 C   0  0  0  0  0  0  0  0  0  0  0  0
   59.4680   32.4280   46.0770 C   0  0  0  0  0  0  0  0  0  0  0  0
   58.5230   31.5270   45.5790 C   0  0  0  0  0  0  0  0  0  0  0  0
   58.6250   30.1980   45.4090 N   0  0  0  0  0  0  0  0  0  0  0  0
   59.7500   29.3370   45.7700 C   0  0  0  0  0  0  0  0  0  0  0  0
   54.4340   25.6380   45.6660 O   0  0  0  0  0  0  0  0  0  0  0  0
   51.8592   24.1374   46.1770 H   0  0  0  0  0  0  0  0  0  0  0  0
   52.0584   25.0776   44.6595 H   0  0  0  0  0  0  0  0  0  0  0  0
   52.3363   23.3030   44.6595 H   0  0  0  0  0  0  0  0  0  0  0  0
   54.6379   22.3789   45.8304 H   0  0  0  0  0  0  0  0  0  0  0  0
   56.9628   23.6732   46.3291 H   0  0  0  0  0  0  0  0  0  0  0  0
   56.8979   26.7216   47.2108 H   0  0  0  0  0  0  0  0  0  0  0  0
   57.5891   26.3501   45.5762 H   0  0  0  0  0  0  0  0  0  0  0  0
   55.1930   27.6950   45.2160 H   0  0  0  0  0  0  0  0  0  0  0  0
   57.9260   27.8111   44.4885 H   0  0  0  0  0  0  0  0  0  0  0  0
   56.4820   28.4312   43.6144 H   0  0  0  0  0  0  0  0  0  0  0  0
   55.8829   33.5757   44.9147 H   0  0  0  0  0  0  0  0  0  0  0  0
   57.5401   35.2653   45.7822 H   0  0  0  0  0  0  0  0  0  0  0  0
   60.1062   33.3560   49.1467 H   0  0  0  0  0  0  0  0  0  0  0  0
   61.6340   31.6225   50.0955 H   0  0  0  0  0  0  0  0  0  0  0  0
   63.7423   31.0237   48.8968 H   0  0  0  0  0  0  0  0  0  0  0  0
   64.3229   32.1530   46.7463 H   0  0  0  0  0  0  0  0  0  0  0  0
   62.7982   33.8888   45.7958 H   0  0  0  0  0  0  0  0  0  0  0  0
   60.4608   32.0883   46.4070 H   0  0  0  0  0  0  0  0  0  0  0  0
   59.8288   29.2767   46.8655 H   0  0  0  0  0  0  0  0  0  0  0  0
   59.5880   28.3300   45.3581 H   0  0  0  0  0  0  0  0  0  0  0  0
   60.6797   29.7565   45.3581 H   0  0  0  0  0  0  0  0  0  0  0  0
  1  2  1  0
  2  3  2  0
  3  4  1  0
  4  5  2  0
  5  6  1  0
  6  7  1  0
  7  8  1  0
  8  9  1  0
  9 10  2  0
 10 11  1  0
 11 12  2  0
 12 13  1  0
 13 14  2  0
 14 15  1  0
 15 16  1  0
 16 17  2  0
 17 18  1  0
 18 19  2  0
 19 20  1  0
 20 21  2  0
 14 22  1  0
 22 23  2  0
 23 24  1  0
 24 25  1  0
  5 26  1  0
 26  2  1  0
 24  9  1  0
 23 11  1  0
 21 16  1  0
  1 27  1  0
  1 28  1  0
  1 29  1  0
  3 30  1  0
  4 31  1  0
  6 32  1  0
  6 33  1  0
  7 34  1  0
  8 35  1  0
  8 36  1  0
 12 37  1  0
 13 38  1  0
 17 39  1  0
 18 40  1  0
 19 41  1  0
 20 42  1  0
 21 43  1  0
 22 44  1  0
 25 45  1  0
 25 46  1  0
 25 47  1  0
M  END
>  <UniqueID>  (21) 
21

>  <SMILES>  (21) 
Cc1ccc(CNCc2nc3ccc(Sc4ccccc4)cc3n2C)o1

>  <Energy>  (21) 
105.5683807114361

>  <Genealogy>  (21) 
Cc1ccc(CNCc2nc3ccc(Sc4ccccc4)cc3n2C)o1 (3D coordinates assigned)
Cc1ccc(CNCc2nc3ccc(Sc4ccccc4)cc3n2C)o1 (optimized conformer: 105.5683807114361 kcal/mol)

>  <smiles>  (21) 
Cc1ccc(CNCc2nc3ccc(Sc4ccccc4)cc3n2C)o1

>  <score_type>  (21) 
oracle

>  <origin>  (21) 
adg

>  <m_score__min__energy>  (21) 
-9.4399999999999995

>  <m_primary>  (21) 
energy

$$$$
22:0
     RDKit          3D

 37 40  0  0  0  0  0  0  0  0999 V2000
   60.9870   32.7620   51.3960 C   0  0  0  0  0  0  0  0  0  0  0  0
   60.9400   33.3620   50.0660 N   0  0  0  0  0  0  0  0  0  0  0  0
   59.9500   34.1420   49.5750 C   0  0  0  0  0  0  0  0  0  0  0  0
   60.2210   34.4870   48.2540 C   0  0  0  0  0  0  0  0  0  0  0  0
   59.3290   35.2640   47.3370 C   0  0  0  0  0  0  0  0  0  0  0  0
   58.8980   34.4020   46.1950 C   0  0  0  0  0  0  0  0  0  0  0  0
   59.3370   34.5630   44.9280 N   0  0  0  0  0  0  0  0  0  0  0  0
   58.8780   33.6330   44.0930 N   0  0  0  0  0  0  0  0  0  0  0  0
   58.0790   32.7060   44.6790 C   0  0  0  0  0  0  0  0  0  0  0  0
   57.4520   31.5590   43.9750 C   0  0  0  0  0  0  0  0  0  0  0  0
   57.0550   30.4140   44.6860 C   0  0  0  0  0  0  0  0  0  0  0  0
   56.4660   29.3390   44.0180 C   0  0  0  0  0  0  0  0  0  0  0  0
   56.2710   29.4150   42.6400 C   0  0  0  0  0  0  0  0  0  0  0  0
   56.6490   30.5290   41.9610 N   0  0  0  0  0  0  0  0  0  0  0  0
   57.2280   31.5890   42.5860 C   0  0  0  0  0  0  0  0  0  0  0  0
   57.9230   33.0370   46.3290 S   0  0  0  0  0  0  0  0  0  0  0  0
   61.4130   33.8610   47.9380 C   0  0  0  0  0  0  0  0  0  0  0  0
   62.1380   33.8160   46.7470 C   0  0  0  0  0  0  0  0  0  0  0  0
   63.3230   33.0590   46.7280 C   0  0  0  0  0  0  0  0  0  0  0  0
   63.7490   32.3670   47.8820 C   0  0  0  0  0  0  0  0  0  0  0  0
   62.9940   32.4230   49.0670 C   0  0  0  0  0  0  0  0  0  0  0  0
   61.8240   33.1870   49.0620 C   0  0  0  0  0  0  0  0  0  0  0  0
   60.9250   33.5533   52.1576 H   0  0  0  0  0  0  0  0  0  0  0  0
   60.1403   32.0702   51.5163 H   0  0  0  0  0  0  0  0  0  0  0  0
   61.9311   32.2105   51.5163 H   0  0  0  0  0  0  0  0  0  0  0  0
   59.0595   34.4580   50.1382 H   0  0  0  0  0  0  0  0  0  0  0  0
   58.4423   35.6038   47.8923 H   0  0  0  0  0  0  0  0  0  0  0  0
   59.8794   36.1329   46.9470 H   0  0  0  0  0  0  0  0  0  0  0  0
   59.1510   33.6270   43.0870 H   0  0  0  0  0  0  0  0  0  0  0  0
   57.2090   30.3644   45.7740 H   0  0  0  0  0  0  0  0  0  0  0  0
   56.1588   28.4408   44.5737 H   0  0  0  0  0  0  0  0  0  0  0  0
   55.8110   28.5728   42.1023 H   0  0  0  0  0  0  0  0  0  0  0  0
   57.5226   32.4741   42.0030 H   0  0  0  0  0  0  0  0  0  0  0  0
   61.7940   34.3551   45.8520 H   0  0  0  0  0  0  0  0  0  0  0  0
   63.9222   33.0058   45.8071 H   0  0  0  0  0  0  0  0  0  0  0  0
   64.6785   31.7795   47.8542 H   0  0  0  0  0  0  0  0  0  0  0  0
   63.3144   31.8823   49.9697 H   0  0  0  0  0  0  0  0  0  0  0  0
  1  2  1  0
  2  3  1  0
  3  4  2  0
  4  5  1  0
  5  6  1  0
  6  7  2  0
  7  8  1  0
  8  9  2  0
  9 10  1  0
 10 11  2  0
 11 12  1  0
 12 13  2  0
 13 14  1  0
 14 15  2  0
  9 16  1  0
  4 17  1  0
 17 18  2  0
 18 19  1  0
 19 20  2  0
 20 21  1  0
 21 22  2  0
 22  2  1  0
 16  6  1  0
 22 17  1  0
 15 10  1  0
  1 23  1  0
  1 24  1  0
  1 25  1  0
  3 26  1  0
  5 27  1  0
  5 28  1  0
  8 29  1  0
 11 30  1  0
 12 31  1  0
 13 32  1  0
 15 33  1  0
 18 34  1  0
 19 35  1  0
 20 36  1  0
 21 37  1  0
M  CHG  1   8   1
M  END
>  <UniqueID>  (22) 
22

>  <SMILES>  (22) 
Cn1cc(Cc2n[nH+]c(-c3cccnc3)s2)c2ccccc21

>  <Energy>  (22) 
108.00886999924548

>  <Genealogy>  (22) 
Cn1cc(Cc2n[nH+]c(-c3cccnc3)s2)c2ccccc21 (protonated)
Cn1cc(Cc2n[nH+]c(-c3cccnc3)s2)c2ccccc21 (3D coordinates assigned)
Cn1cc(Cc2n[nH+]c(-c3cccnc3)s2)c2ccccc21 (optimized conformer: 108.00886999924548 kcal/mol)

>  <smiles>  (22) 
Cn1cc(Cc2nnc(-c3cccnc3)s2)c2ccccc21

>  <score_type>  (22) 
oracle

>  <origin>  (22) 
adg

>  <m_score__min__energy>  (22) 
-6.8499999999999996

>  <m_primary>  (22) 
energy

$$$$
23:0
     RDKit          3D

 38 40  0  0  0  0  0  0  0  0999 V2000
   59.1630   33.8100   51.9730 C   0  0  0  0  0  0  0  0  0  0  0  0
   58.8920   33.0930   50.6460 C   0  0  0  0  0  0  0  0  0  0  0  0
   58.4770   31.6330   50.8490 C   0  0  0  0  0  0  0  0  0  0  0  0
   60.0440   33.2430   49.6740 C   0  0  0  0  0  0  0  0  0  0  0  0
   61.2980   32.8350   49.9840 N   0  0  0  0  0  0  0  0  0  0  0  0
   62.0300   33.0690   48.8820 C   0  0  0  0  0  0  0  0  0  0  0  0
   63.3880   32.7980   48.7230 C   0  0  0  0  0  0  0  0  0  0  0  0
   63.9730   33.1030   47.4850 C   0  0  0  0  0  0  0  0  0  0  0  0
   63.1960   33.6580   46.4510 C   0  0  0  0  0  0  0  0  0  0  0  0
   61.8330   33.9070   46.6670 C   0  0  0  0  0  0  0  0  0  0  0  0
   61.3060   33.6050   47.8840 N   0  0  0  0  0  0  0  0  0  0  0  0
   60.0470   33.7340   48.3580 C   0  0  0  0  0  0  0  0  0  0  0  0
   58.9030   34.3130   47.5610 C   0  0  0  0  0  0  0  0  0  0  0  0
   58.4880   33.3970   46.4360 C   0  0  0  0  0  0  0  0  0  0  0  0
   58.1540   33.9280   45.1780 C   0  0  0  0  0  0  0  0  0  0  0  0
   57.7900   33.0810   44.1260 C   0  0  0  0  0  0  0  0  0  0  0  0
   57.7690   31.6970   44.3170 C   0  0  0  0  0  0  0  0  0  0  0  0
   58.1130   31.1580   45.5580 C   0  0  0  0  0  0  0  0  0  0  0  0
   58.4770   32.0000   46.6120 C   0  0  0  0  0  0  0  0  0  0  0  0
   58.9103   33.1415   52.8092 H   0  0  0  0  0  0  0  0  0  0  0  0
   60.2267   34.0840   52.0311 H   0  0  0  0  0  0  0  0  0  0  0  0
   58.5465   34.7191   52.0311 H   0  0  0  0  0  0  0  0  0  0  0  0
   58.0286   33.5938   50.1837 H   0  0  0  0  0  0  0  0  0  0  0  0
   58.4152   31.4157   51.9255 H   0  0  0  0  0  0  0  0  0  0  0  0
   57.4949   31.4629   50.3836 H   0  0  0  0  0  0  0  0  0  0  0  0
   59.2228   30.9717   50.3836 H   0  0  0  0  0  0  0  0  0  0  0  0
   61.6270   32.4130   50.8810 H   0  0  0  0  0  0  0  0  0  0  0  0
   63.9804   32.3602   49.5399 H   0  0  0  0  0  0  0  0  0  0  0  0
   65.0431   32.9076   47.3217 H   0  0  0  0  0  0  0  0  0  0  0  0
   63.6549   33.8949   45.4798 H   0  0  0  0  0  0  0  0  0  0  0  0
   61.2055   34.3360   45.8719 H   0  0  0  0  0  0  0  0  0  0  0  0
   58.0440   34.4674   48.2305 H   0  0  0  0  0  0  0  0  0  0  0  0
   59.2369   35.2652   47.1230 H   0  0  0  0  0  0  0  0  0  0  0  0
   58.1790   35.0163   45.0199 H   0  0  0  0  0  0  0  0  0  0  0  0
   57.5201   33.5048   43.1475 H   0  0  0  0  0  0  0  0  0  0  0  0
   57.4814   31.0320   43.4893 H   0  0  0  0  0  0  0  0  0  0  0  0
   58.0975   30.0682   45.7064 H   0  0  0  0  0  0  0  0  0  0  0  0
   58.7565   31.5691   47.5847 H   0  0  0  0  0  0  0  0  0  0  0  0
  1  2  1  0
  2  3  1  0
  2  4  1  0
  4  5  1  0
  5  6  2  0
  6  7  1  0
  7  8  2  0
  8  9  1  0
  9 10  2  0
 10 11  1  0
 11 12  1  0
 12 13  1  0
 13 14  1  0
 14 15  2  0
 15 16  1  0
 16 17  2  0
 17 18  1  0
 18 19  2  0
 12  4  2  0
 19 14  1  0
 11  6  1  0
  1 20  1  0
  1 21  1  0
  1 22  1  0
  2 23  1  0
  3 24  1  0
  3 25  1  0
  3 26  1  0
  5 27  1  0
  7 28  1  0
  8 29  1  0
  9 30  1  0
 10 31  1  0
 13 32  1  0
 13 33  1  0
 15 34  1  0
 16 35  1  0
 17 36  1  0
 18 37  1  0
 19 38  1  0
M  CHG  1   5   1
M  END
>  <UniqueID>  (23) 
23

>  <SMILES>  (23) 
CC(C)c1[nH+]c2ccccn2c1Cc1ccccc1

>  <Energy>  (23) 
73.03225669835726

>  <Genealogy>  (23) 
CC(C)c1[nH+]c2ccccn2c1Cc1ccccc1 (protonated)
CC(C)c1[nH+]c2ccccn2c1Cc1ccccc1 (3D coordinates assigned)
CC(C)c1[nH+]c2ccccn2c1Cc1ccccc1 (optimized conformer: 73.03225669835726 kcal/mol)

>  <smiles>  (23) 
CC(C)c1nc2ccccn2c1Cc1ccccc1

>  <score_type>  (23) 
oracle

>  <origin>  (23) 
adg

>  <m_score__min__energy>  (23) 
-5.4400000000000004

>  <m_primary>  (23) 
energy

$$$$
