0:0
     RDKit          3D

 40 42  0  0  0  0  0  0  0  0999 V2000
   65.3960   32.1240   50.4010 C   0  0  0  0  0  0  0  0  0  0  0  0
   65.2470   33.0570   49.3350 O   0  0  0  0  0  0  0  0  0  0  0  0
   64.0160   33.4220   48.7710 C   0  0  0  0  0  0  0  0  0  0  0  0
   63.0050   33.8850   49.6220 C   0  0  0  0  0  0  0  0  0  0  0  0
   61.7610   34.2610   49.1060 C   0  0  0  0  0  0  0  0  0  0  0  0
   61.5160   34.1840   47.7300 C   0  0  0  0  0  0  0  0  0  0  0  0
   59.9410   34.6320   47.0850 S   0  0  0  0  0  0  0  0  0  0  0  0
   60.0800   35.8170   46.1710 O   0  0  0  0  0  0  0  0  0  0  0  0
   59.0170   35.0140   48.2080 O   0  0  0  0  0  0  0  0  0  0  0  0
   59.2750   33.2650   46.2000 C   0  0  0  0  0  0  0  0  0  0  0  0
   59.3960   31.9680   46.7140 C   0  0  0  0  0  0  0  0  0  0  0  0
   58.8470   30.8840   46.0240 C   0  0  0  0  0  0  0  0  0  0  0  0
   58.1650   31.0830   44.8090 C   0  0  0  0  0  0  0  0  0  0  0  0
   57.5650   29.9120   44.0530 C   0  0  2  0  0  0  0  0  0  0  0  0
   56.0570   30.1280   43.7540 C   0  0  0  0  0  0  0  0  0  0  0  0
   55.3530   29.0880   44.4740 N   0  0  0  0  0  0  0  0  0  0  0  0
   56.2740   28.2120   45.0830 C   0  0  0  0  0  0  0  0  0  0  0  0
   55.9180   27.2020   45.7440 O   0  0  0  0  0  0  0  0  0  0  0  0
   57.6820   28.5920   44.8510 C   0  0  0  0  0  0  0  0  0  0  0  0
   58.0410   32.3890   44.3040 C   0  0  0  0  0  0  0  0  0  0  0  0
   58.5890   33.4710   44.9970 C   0  0  0  0  0  0  0  0  0  0  0  0
   62.5180   33.7130   46.8740 C   0  0  0  0  0  0  0  0  0  0  0  0
   63.7640   33.3360   47.3880 C   0  0  0  0  0  0  0  0  0  0  0  0
   65.3120   32.6502   51.3633 H   0  0  0  0  0  0  0  0  0  0  0  0
   64.6087   31.3590   50.3315 H   0  0  0  0  0  0  0  0  0  0  0  0
   66.3825   31.6423   50.3315 H   0  0  0  0  0  0  0  0  0  0  0  0
   63.1907   33.9534   50.7041 H   0  0  0  0  0  0  0  0  0  0  0  0
   60.9720   34.6186   49.7839 H   0  0  0  0  0  0  0  0  0  0  0  0
   59.9250   31.8020   47.6641 H   0  0  0  0  0  0  0  0  0  0  0  0
   58.9485   29.8680   46.4333 H   0  0  0  0  0  0  0  0  0  0  0  0
   58.1362   29.8464   43.1152 H   0  0  0  0  0  0  0  0  0  0  0  0
   55.7362   31.1199   44.1052 H   0  0  0  0  0  0  0  0  0  0  0  0
   55.8501   30.0808   42.6747 H   0  0  0  0  0  0  0  0  0  0  0  0
   54.3160   28.9650   44.4830 H   0  0  0  0  0  0  0  0  0  0  0  0
   58.2094   28.7520   45.8030 H   0  0  0  0  0  0  0  0  0  0  0  0
   58.2563   27.8174   44.3217 H   0  0  0  0  0  0  0  0  0  0  0  0
   57.5088   32.5601   43.3566 H   0  0  0  0  0  0  0  0  0  0  0  0
   58.4811   34.4895   44.5957 H   0  0  0  0  0  0  0  0  0  0  0  0
   62.3256   33.6388   45.7935 H   0  0  0  0  0  0  0  0  0  0  0  0
   64.5492   32.9713   46.7095 H   0  0  0  0  0  0  0  0  0  0  0  0
  1  2  1  0
  2  3  1  0
  3  4  2  0
  4  5  1  0
  5  6  2  0
  6  7  1  0
  7  8  2  0
  7  9  2  0
  7 10  1  0
 10 11  2  0
 11 12  1  0
 12 13  2  0
 13 14  1  0
 14 15  1  0
 15 16  1  0
 16 17  1  0
 17 18  2  0
 17 19  1  0
 13 20  1  0
 20 21  2  0
  6 22  1  0
 22 23  2  0
 23  3  1  0
 21 10  1  0
 19 14  1  0
  1 24  1  0
  1 25  1  0
  1 26  1  0
  4 27  1  0
  5 28  1  0
 11 29  1  0
 12 30  1  0
 14 31  1  6
 15 32  1  0
 15 33  1  0
 16 34  1  0
 19 35  1  0
 19 36  1  0
 20 37  1  0
 21 38  1  0
 22 39  1  0
 23 40  1  0
M  END
>  <UniqueID>  (1) 
1

>  <SMILES>  (1) 
COc1ccc(S(=O)(=O)c2ccc([C@@H]3CNC(=O)C3)cc2)cc1

>  <Energy>  (1) 
50.87042437226966

>  <Genealogy>  (1) 
COc1ccc(S(=O)(=O)c2ccc([C@@H]3CNC(=O)C3)cc2)cc1 (chirality)
COc1ccc(S(=O)(=O)c2ccc([C@@H]3CNC(=O)C3)cc2)cc1 (3D coordinates assigned)
COc1ccc(S(=O)(=O)c2ccc([C@@H]3CNC(=O)C3)cc2)cc1 (nonaromatic ring conformer: 50.87042437226966 kcal/mol)

>  <smiles>  (1) 
COc1ccc(S(=O)(=O)c2ccc(C3CNC(=O)C3)cc2)cc1

>  <score_type>  (1) 
oracle

>  <origin>  (1) 
adg

>  <m_score__min__energy>  (1) 
-8.7100000000000009

>  <m_primary>  (1) 
energy

$$$$
1:0
     RDKit          3D

 40 41  0  0  0  0  0  0  0  0999 V2000
   63.4000   33.7950   46.3610 C   0  0  0  0  0  0  0  0  0  0  0  0
   63.7130   32.8120   47.4160 N   0  0  0  0  0  0  0  0  0  0  0  0
   62.7960   31.6640   47.3020 C   0  0  0  0  0  0  0  0  0  0  0  0
   63.6050   33.4200   48.7660 C   0  0  0  0  0  0  0  0  0  0  0  0
   62.2870   33.0670   49.4780 C   0  0  0  0  0  0  0  0  0  0  0  0
   61.2500   34.0550   49.1700 N   0  0  0  0  0  0  0  0  0  0  0  0
   60.2200   33.9080   48.1710 C   0  0  0  0  0  0  0  0  0  0  0  0
   60.3660   34.5760   46.9430 C   0  0  0  0  0  0  0  0  0  0  0  0
   59.4000   34.4470   45.9430 C   0  0  0  0  0  0  0  0  0  0  0  0
   58.2790   33.6380   46.1500 C   0  0  0  0  0  0  0  0  0  0  0  0
   57.0480   33.4590   44.8590 S   0  0  0  0  0  0  0  0  0  0  0  0
   57.3940   31.7130   44.6440 C   0  0  0  0  0  0  0  0  0  0  0  0
   58.6580   31.2030   44.9660 C   0  0  0  0  0  0  0  0  0  0  0  0
   58.9260   29.8410   44.8060 C   0  0  0  0  0  0  0  0  0  0  0  0
   57.9310   28.9830   44.3210 C   0  0  0  0  0  0  0  0  0  0  0  0
   58.2660   27.2730   44.1220 Cl  0  0  0  0  0  0  0  0  0  0  0  0
   56.6690   29.4930   43.9950 C   0  0  0  0  0  0  0  0  0  0  0  0
   56.4010   30.8550   44.1540 C   0  0  0  0  0  0  0  0  0  0  0  0
   58.1250   32.9640   47.3650 C   0  0  0  0  0  0  0  0  0  0  0  0
   59.0890   33.0910   48.3680 C   0  0  0  0  0  0  0  0  0  0  0  0
   63.0972   34.7458   46.8239 H   0  0  0  0  0  0  0  0  0  0  0  0
   64.2905   33.9585   45.7363 H   0  0  0  0  0  0  0  0  0  0  0  0
   62.5789   33.4135   45.7363 H   0  0  0  0  0  0  0  0  0  0  0  0
   64.6820   32.4510   47.2600 H   0  0  0  0  0  0  0  0  0  0  0  0
   62.5178   31.3157   48.3076 H   0  0  0  0  0  0  0  0  0  0  0  0
   61.8911   31.9703   46.7566 H   0  0  0  0  0  0  0  0  0  0  0  0
   63.2946   30.8492   46.7566 H   0  0  0  0  0  0  0  0  0  0  0  0
   64.4433   33.0606   49.3809 H   0  0  0  0  0  0  0  0  0  0  0  0
   63.6294   34.5124   48.6390 H   0  0  0  0  0  0  0  0  0  0  0  0
   61.9507   32.0746   49.1434 H   0  0  0  0  0  0  0  0  0  0  0  0
   62.4618   33.0653   50.5640 H   0  0  0  0  0  0  0  0  0  0  0  0
   61.2410   34.9180   49.7600 H   0  0  0  0  0  0  0  0  0  0  0  0
   61.2501   35.2067   46.7680 H   0  0  0  0  0  0  0  0  0  0  0  0
   59.5214   34.9832   44.9902 H   0  0  0  0  0  0  0  0  0  0  0  0
   59.4411   31.8758   45.3455 H   0  0  0  0  0  0  0  0  0  0  0  0
   59.9190   29.4425   45.0611 H   0  0  0  0  0  0  0  0  0  0  0  0
   55.8869   28.8204   43.6130 H   0  0  0  0  0  0  0  0  0  0  0  0
   55.4094   31.2539   43.8942 H   0  0  0  0  0  0  0  0  0  0  0  0
   57.2410   32.3310   47.5320 H   0  0  0  0  0  0  0  0  0  0  0  0
   58.9644   32.5498   49.3175 H   0  0  0  0  0  0  0  0  0  0  0  0
  1  2  1  0
  2  3  1  0
  2  4  1  0
  4  5  1  0
  5  6  1  0
  6  7  1  0
  7  8  2  0
  8  9  1  0
  9 10  2  0
 10 11  1  0
 11 12  1  0
 12 13  2  0
 13 14  1  0
 14 15  2  0
 15 16  1  0
 15 17  1  0
 17 18  2  0
 10 19  1  0
 19 20  2  0
 20  7  1  0
 18 12  1  0
  1 21  1  0
  1 22  1  0
  1 23  1  0
  2 24  1  0
  3 25  1  0
  3 26  1  0
  3 27  1  0
  4 28  1  0
  4 29  1  0
  5 30  1  0
  5 31  1  0
  6 32  1  0
  8 33  1  0
  9 34  1  0
 13 35  1  0
 14 36  1  0
 17 37  1  0
 18 38  1  0
 19 39  1  0
 20 40  1  0
M  CHG  1   2   1
M  END
>  <UniqueID>  (2) 
2

>  <SMILES>  (2) 
C[NH+](C)CCNc1ccc(Sc2ccc(Cl)cc2)cc1

>  <Energy>  (2) 
36.35914493784681

>  <Genealogy>  (2) 
C[NH+](C)CCNc1ccc(Sc2ccc(Cl)cc2)cc1 (protonated)
C[NH+](C)CCNc1ccc(Sc2ccc(Cl)cc2)cc1 (3D coordinates assigned)
C[NH+](C)CCNc1ccc(Sc2ccc(Cl)cc2)cc1 (optimized conformer: 36.35914493784681 kcal/mol)

>  <smiles>  (2) 
CN(C)CCNc1ccc(Sc2ccc(Cl)cc2)cc1

>  <score_type>  (2) 
oracle

>  <origin>  (2) 
adg

>  <m_score__min__energy>  (2) 
-6.04

>  <m_primary>  (2) 
energy

$$$$
2:0
     RDKit          3D

 50 52  0  0  0  0  0  0  0  0999 V2000
   56.8490   23.6430   46.7200 C   0  0  0  0  0  0  0  0  0  0  0  0
   57.1220   25.0130   46.3030 N   0  0  0  0  0  0  0  0  0  0  0  0
   57.2470   25.4620   45.0400 C   0  0  0  0  0  0  0  0  0  0  0  0
   57.6070   26.7630   44.9870 N   0  0  0  0  0  0  0  0  0  0  0  0
   57.7130   27.1230   46.2830 C   0  0  0  0  0  0  0  0  0  0  0  0
   58.1470   28.4890   46.7420 C   0  0  0  0  0  0  0  0  0  0  0  0
   58.5250   29.3730   45.6080 N   0  0  2  0  0  0  0  0  0  0  0  0
   59.9910   29.5920   45.5250 C   0  0  0  0  0  0  0  0  0  0  0  0
   60.5410   30.4120   46.7110 C   0  0  0  0  0  0  0  0  0  0  0  0
   59.4980   31.2670   47.3130 N   0  0  0  0  0  0  0  0  0  0  0  0
   60.0310   32.2780   48.2530 C   0  0  0  0  0  0  0  0  0  0  0  0
   61.4660   32.6840   47.9800 C   0  0  0  0  0  0  0  0  0  0  0  0
   62.4970   32.2450   48.8320 C   0  0  0  0  0  0  0  0  0  0  0  0
   63.8240   32.6140   48.5870 C   0  0  0  0  0  0  0  0  0  0  0  0
   64.1360   33.4130   47.4860 C   0  0  0  0  0  0  0  0  0  0  0  0
   63.1240   33.8410   46.6230 C   0  0  0  0  0  0  0  0  0  0  0  0
   61.7960   33.4760   46.8620 C   0  0  0  0  0  0  0  0  0  0  0  0
   60.8330   33.8910   45.9990 F   0  0  0  0  0  0  0  0  0  0  0  0
   58.6000   31.8190   46.2900 C   0  0  0  0  0  0  0  0  0  0  0  0
   57.7680   30.6710   45.6580 C   0  0  1  0  0  0  0  0  0  0  0  0
   57.2660   31.1030   44.2540 C   0  0  0  0  0  0  0  0  0  0  0  0
   56.3170   30.0790   43.6100 C   0  0  0  0  0  0  0  0  0  0  0  0
   56.0460   29.0220   44.4900 O   0  0  0  0  0  0  0  0  0  0  0  0
   57.4310   26.0480   47.0980 C   0  0  0  0  0  0  0  0  0  0  0  0
   56.8383   23.5894   47.8186 H   0  0  0  0  0  0  0  0  0  0  0  0
   55.8705   23.3285   46.3280 H   0  0  0  0  0  0  0  0  0  0  0  0
   57.6322   22.9774   46.3280 H   0  0  0  0  0  0  0  0  0  0  0  0
   57.0751   24.8388   44.1500 H   0  0  0  0  0  0  0  0  0  0  0  0
   57.3180   28.9565   47.2936 H   0  0  0  0  0  0  0  0  0  0  0  0
   59.0343   28.3629   47.3799 H   0  0  0  0  0  0  0  0  0  0  0  0
   58.2620   28.8550   44.7370 H   0  0  0  0  0  0  0  0  0  0  0  0
   60.4925   28.6130   45.5119 H   0  0  0  0  0  0  0  0  0  0  0  0
   60.1890   30.1641   44.6066 H   0  0  0  0  0  0  0  0  0  0  0  0
   60.9212   29.7202   47.4771 H   0  0  0  0  0  0  0  0  0  0  0  0
   61.3440   31.0631   46.3352 H   0  0  0  0  0  0  0  0  0  0  0  0
   59.3998   33.1765   48.1878 H   0  0  0  0  0  0  0  0  0  0  0  0
   60.0167   31.8192   49.2526 H   0  0  0  0  0  0  0  0  0  0  0  0
   62.2577   31.6077   49.6960 H   0  0  0  0  0  0  0  0  0  0  0  0
   64.6225   32.2740   49.2629 H   0  0  0  0  0  0  0  0  0  0  0  0
   65.1794   33.7060   47.2976 H   0  0  0  0  0  0  0  0  0  0  0  0
   63.3729   34.4668   45.7533 H   0  0  0  0  0  0  0  0  0  0  0  0
   57.9221   32.5509   46.7535 H   0  0  0  0  0  0  0  0  0  0  0  0
   59.1950   32.3140   45.5083 H   0  0  0  0  0  0  0  0  0  0  0  0
   56.8971   30.4831   46.3032 H   0  0  0  0  0  0  0  0  0  0  0  0
   56.7332   32.0603   44.3523 H   0  0  0  0  0  0  0  0  0  0  0  0
   58.1482   31.1869   43.6023 H   0  0  0  0  0  0  0  0  0  0  0  0
   55.3732   30.5791   43.3470 H   0  0  0  0  0  0  0  0  0  0  0  0
   56.8006   29.6706   42.7104 H   0  0  0  0  0  0  0  0  0  0  0  0
   56.3080   28.1870   44.0210 H   0  0  0  0  0  0  0  0  0  0  0  0
   57.4549   26.0403   48.1977 H   0  0  0  0  0  0  0  0  0  0  0  0
  1  2  1  0
  2  3  1  0
  3  4  2  0
  4  5  1  0
  5  6  1  0
  6  7  1  0
  7  8  1  0
  8  9  1  0
  9 10  1  0
 10 11  1  0
 11 12  1  0
 12 13  2  0
 13 14  1  0
 14 15  2  0
 15 16  1  0
 16 17  2  0
 17 18  1  0
 10 19  1  0
 19 20  1  0
 20 21  1  0
 21 22  1  0
 22 23  1  0
  5 24  2  0
 24  2  1  0
 20  7  1  0
 17 12  1  0
  1 25  1  0
  1 26  1  0
  1 27  1  0
  3 28  1  0
  6 29  1  0
  6 30  1  0
  7 31  1  6
  8 32  1  0
  8 33  1  0
  9 34  1  0
  9 35  1  0
 11 36  1  0
 11 37  1  0
 13 38  1  0
 14 39  1  0
 15 40  1  0
 16 41  1  0
 19 42  1  0
 19 43  1  0
 20 44  1  1
 21 45  1  0
 21 46  1  0
 22 47  1  0
 22 48  1  0
 23 49  1  0
 24 50  1  0
M  CHG  1   7   1
M  END
>  <UniqueID>  (3) 
3

>  <SMILES>  (3) 
Cn1cnc(C[N@@H+]2CCN(Cc3ccccc3F)C[C@H]2CCO)c1

>  <Energy>  (3) 
93.74511011137336

>  <Genealogy>  (3) 
Cn1cnc(C[NH+]2CCN(Cc3ccccc3F)CC2CCO)c1 (protonated)
Cn1cnc(C[N@@H+]2CCN(Cc3ccccc3F)C[C@H]2CCO)c1 (chirality)
Cn1cnc(C[N@@H+]2CCN(Cc3ccccc3F)C[C@H]2CCO)c1 (3D coordinates assigned)
Cn1cnc(C[N@@H+]2CCN(Cc3ccccc3F)C[C@H]2CCO)c1 (nonaromatic ring conformer: 93.74511011137336 kcal/mol)

>  <smiles>  (3) 
Cn1cnc(CN2CCN(Cc3ccccc3F)CC2CCO)c1

>  <score_type>  (3) 
oracle

>  <origin>  (3) 
adg

>  <m_score__min__energy>  (3) 
-5.9500000000000002

>  <m_primary>  (3) 
energy

$$$$
3:0
     RDKit          3D

 63 67  0  0  1  0  0  0  0  0999 V2000
   59.6400   35.3900   46.3760 Cl  0  0  0  0  0  0  0  0  0  0  0  0
   58.9130   33.8630   45.9200 C   0  0  0  0  0  0  0  0  0  0  0  0
   58.7680   32.9180   46.8830 C   0  0  0  0  0  0  0  0  0  0  0  0
   58.1830   31.6730   46.5420 C   0  0  0  0  0  0  0  0  0  0  0  0
   57.7950   31.5010   45.2520 C   0  0  0  0  0  0  0  0  0  0  0  0
   57.2240   30.3240   44.8360 C   0  0  0  0  0  0  0  0  0  0  0  0
   56.9140   29.3930   45.6030 N   0  0  0  0  0  0  0  0  0  0  0  0
   56.8830   28.0240   45.2480 C   0  0  0  0  0  0  0  0  0  0  0  0
   58.3950   27.6360   45.1730 C   0  0  0  0  0  0  0  0  0  0  0  0
   58.9120   27.2240   46.5590 C   0  0  0  0  0  0  0  0  0  0  0  0
   59.1140   28.2070   47.4360 N   0  0  0  0  0  0  0  0  0  0  0  0
   59.5930   29.0790   48.1260 C   0  0  0  0  0  0  0  0  0  0  0  0
   58.9270   29.3960   49.2910 N   0  0  0  0  0  0  0  0  0  0  0  0
   59.3330   30.3550   50.1300 C   0  0  0  0  0  0  0  0  0  0  0  0
   58.5450   30.5750   51.2960 N   0  0  0  0  0  0  0  0  0  0  0  0
   57.6430   31.6890   51.4660 C   0  0  0  0  0  0  0  0  0  0  0  0
   56.2750   31.1830   51.9540 C   0  0  0  0  0  0  0  0  0  0  0  0
   56.2790   29.7870   52.0110 O   0  0  0  0  0  0  0  0  0  0  0  0
   57.2270   29.4040   52.9600 C   0  0  0  0  0  0  0  0  0  0  0  0
   58.6190   29.6390   52.4280 C   0  0  0  0  0  0  0  0  0  0  0  0
   60.4310   31.0250   49.8180 N   0  0  0  0  0  0  0  0  0  0  0  0
   61.1470   30.7850   48.7050 C   0  0  0  0  0  0  0  0  0  0  0  0
   62.3030   31.5780   48.4850 N   0  0  0  0  0  0  0  0  0  0  0  0
   63.2940   31.8980   49.4590 C   0  0  0  0  0  0  0  0  0  0  0  0
   64.1660   33.0470   49.1410 C   0  0  0  0  0  0  0  0  0  0  0  0
   64.0710   33.5800   47.8830 O   0  0  0  0  0  0  0  0  0  0  0  0
   62.8020   33.5920   47.3630 C   0  0  0  0  0  0  0  0  0  0  0  0
   62.4420   32.1190   47.1240 C   0  0  0  0  0  0  0  0  0  0  0  0
   60.7160   29.8200   47.8820 N   0  0  0  0  0  0  0  0  0  0  0  0
   56.8610   30.1920   43.4930 C   0  0  0  0  0  0  0  0  0  0  0  0
   57.0430   31.1890   42.5650 C   0  0  0  0  0  0  0  0  0  0  0  0
   57.5980   32.3310   43.0030 N   0  0  0  0  0  0  0  0  0  0  0  0
   57.9570   32.4790   44.2930 C   0  0  0  0  0  0  0  0  0  0  0  0
   58.5320   33.7060   44.6110 C   0  0  0  0  0  0  0  0  0  0  0  0
   59.0996   33.1154   47.9131 H   0  0  0  0  0  0  0  0  0  0  0  0
   58.0488   30.8789   47.2912 H   0  0  0  0  0  0  0  0  0  0  0  0
   56.3616   27.4304   46.0134 H   0  0  0  0  0  0  0  0  0  0  0  0
   56.3438   27.8359   44.3078 H   0  0  0  0  0  0  0  0  0  0  0  0
   58.5190   26.7947   44.4752 H   0  0  0  0  0  0  0  0  0  0  0  0
   58.9694   28.5061   44.8224 H   0  0  0  0  0  0  0  0  0  0  0  0
   58.1781   26.5314   46.9969 H   0  0  0  0  0  0  0  0  0  0  0  0
   59.9049   26.7857   46.3802 H   0  0  0  0  0  0  0  0  0  0  0  0
   58.0599   32.3864   52.2075 H   0  0  0  0  0  0  0  0  0  0  0  0
   57.5167   32.2039   50.5022 H   0  0  0  0  0  0  0  0  0  0  0  0
   56.0719   31.5887   52.9561 H   0  0  0  0  0  0  0  0  0  0  0  0
   55.4943   31.5154   51.2540 H   0  0  0  0  0  0  0  0  0  0  0  0
   57.0834   29.9951   53.8765 H   0  0  0  0  0  0  0  0  0  0  0  0
   57.1025   28.3336   53.1809 H   0  0  0  0  0  0  0  0  0  0  0  0
   59.2498   30.0676   53.2208 H   0  0  0  0  0  0  0  0  0  0  0  0
   59.0566   28.6861   52.0955 H   0  0  0  0  0  0  0  0  0  0  0  0
   60.7650   31.7710   50.4570 H   0  0  0  0  0  0  0  0  0  0  0  0
   62.7776   32.1188   50.4048 H   0  0  0  0  0  0  0  0  0  0  0  0
   63.9597   31.0234   49.5037 H   0  0  0  0  0  0  0  0  0  0  0  0
   63.9312   33.8479   49.8575 H   0  0  0  0  0  0  0  0  0  0  0  0
   65.1897   32.6491   49.2018 H   0  0  0  0  0  0  0  0  0  0  0  0
   62.0991   34.0487   48.0753 H   0  0  0  0  0  0  0  0  0  0  0  0
   62.7469   34.1809   46.4356 H   0  0  0  0  0  0  0  0  0  0  0  0
   61.4980   32.0298   46.5664 H   0  0  0  0  0  0  0  0  0  0  0  0
   63.1932   31.5848   46.5237 H   0  0  0  0  0  0  0  0  0  0  0  0
   56.4082   29.2453   43.1631 H   0  0  0  0  0  0  0  0  0  0  0  0
   56.7482   31.0580   41.5134 H   0  0  0  0  0  0  0  0  0  0  0  0
   57.7390   33.0890   42.3040 H   0  0  0  0  0  0  0  0  0  0  0  0
   58.6720   34.4988   43.8614 H   0  0  0  0  0  0  0  0  0  0  0  0
  1  2  1  0
  2  3  2  0
  3  4  1  0
  4  5  2  0
  5  6  1  0
  6  7  2  0
  7  8  1  0
  8  9  1  0
  9 10  1  0
 10 11  1  0
 11 12  2  3
 12 13  1  0
 13 14  2  0
 14 15  1  0
 15 16  1  0
 16 17  1  0
 17 18  1  0
 18 19  1  0
 19 20  1  0
 14 21  1  0
 21 22  1  0
 22 23  1  0
 23 24  1  0
 24 25  1  0
 25 26  1  0
 26 27  1  0
 27 28  1  0
 22 29  2  0
  6 30  1  0
 30 31  2  0
 31 32  1  0
 32 33  1  0
 33 34  2  0
 34  2  1  0
 33  5  1  0
 29 12  1  0
 20 15  1  0
 28 23  1  0
  3 35  1  0
  4 36  1  0
  8 37  1  0
  8 38  1  0
  9 39  1  0
  9 40  1  0
 10 41  1  0
 10 42  1  0
 16 43  1  0
 16 44  1  0
 17 45  1  0
 17 46  1  0
 19 47  1  0
 19 48  1  0
 20 49  1  0
 20 50  1  0
 21 51  1  0
 24 52  1  0
 24 53  1  0
 25 54  1  0
 25 55  1  0
 27 56  1  0
 27 57  1  0
 28 58  1  0
 28 59  1  0
 30 60  1  0
 31 61  1  0
 32 62  1  0
 34 63  1  0
M  END
>  <smiles>  (4) 
Clc1ccc2c(=NCCCN=c3nc(N4CCOCC4)[nH]c(N4CCOCC4)n3)cc[nH]c2c1

>  <score_type>  (4) 
oracle

>  <origin>  (4) 
adg

>  <m_score__min__energy>  (4) 
-9.1400000000000006

>  <m_primary>  (4) 
energy

$$$$
4:0
     RDKit          3D

 35 37  0  0  0  0  0  0  0  0999 V2000
   57.0430   24.5270   43.6900 C   0  0  0  0  0  0  0  0  0  0  0  0
   57.3060   25.0620   44.9830 O   0  0  0  0  0  0  0  0  0  0  0  0
   57.6770   26.3920   45.2300 C   0  0  0  0  0  0  0  0  0  0  0  0
   57.6570   26.9560   46.5190 C   0  0  0  0  0  0  0  0  0  0  0  0
   58.0370   28.2870   46.7140 C   0  0  0  0  0  0  0  0  0  0  0  0
   58.4420   29.0820   45.6270 C   0  0  0  0  0  0  0  0  0  0  0  0
   58.8440   30.4960   45.8340 C   0  0  0  0  0  0  0  0  0  0  0  0
   57.9710   31.5440   45.4920 C   0  0  0  0  0  0  0  0  0  0  0  0
   58.3520   32.8740   45.6860 C   0  0  0  0  0  0  0  0  0  0  0  0
   57.2460   34.1690   45.2650 Cl  0  0  0  0  0  0  0  0  0  0  0  0
   59.6060   33.1740   46.2220 C   0  0  0  0  0  0  0  0  0  0  0  0
   60.4970   32.1440   46.5720 C   0  0  0  0  0  0  0  0  0  0  0  0
   61.8320   32.4630   47.1400 C   0  0  0  0  0  0  0  0  0  0  0  0
   62.4140   31.6430   48.1180 C   0  0  0  0  0  0  0  0  0  0  0  0
   63.6670   31.9690   48.6320 C   0  0  0  0  0  0  0  0  0  0  0  0
   64.3110   33.0770   48.1810 N   0  0  0  0  0  0  0  0  0  0  0  0
   63.7660   33.8630   47.2500 N   0  0  0  0  0  0  0  0  0  0  0  0
   62.5460   33.5930   46.7160 C   0  0  0  0  0  0  0  0  0  0  0  0
   60.1060   30.8080   46.3730 C   0  0  0  0  0  0  0  0  0  0  0  0
   58.4590   28.5140   44.3410 C   0  0  0  0  0  0  0  0  0  0  0  0
   58.0800   27.1820   44.1480 C   0  0  0  0  0  0  0  0  0  0  0  0
   56.5598   23.5440   43.7913 H   0  0  0  0  0  0  0  0  0  0  0  0
   56.3770   25.2081   43.1399 H   0  0  0  0  0  0  0  0  0  0  0  0
   57.9890   24.4156   43.1399 H   0  0  0  0  0  0  0  0  0  0  0  0
   57.3406   26.3461   47.3780 H   0  0  0  0  0  0  0  0  0  0  0  0
   58.0191   28.7163   47.7266 H   0  0  0  0  0  0  0  0  0  0  0  0
   56.9817   31.3151   45.0690 H   0  0  0  0  0  0  0  0  0  0  0  0
   59.8990   34.2237   46.3715 H   0  0  0  0  0  0  0  0  0  0  0  0
   61.8843   30.7482   48.4768 H   0  0  0  0  0  0  0  0  0  0  0  0
   64.1326   31.3327   49.3990 H   0  0  0  0  0  0  0  0  0  0  0  0
   65.2500   33.3200   48.5670 H   0  0  0  0  0  0  0  0  0  0  0  0
   62.1191   34.2598   45.9523 H   0  0  0  0  0  0  0  0  0  0  0  0
   60.7964   29.9952   46.6425 H   0  0  0  0  0  0  0  0  0  0  0  0
   58.7729   29.1223   43.4799 H   0  0  0  0  0  0  0  0  0  0  0  0
   58.0989   26.7513   43.1360 H   0  0  0  0  0  0  0  0  0  0  0  0
  1  2  1  0
  2  3  1  0
  3  4  2  0
  4  5  1  0
  5  6  2  0
  6  7  1  0
  7  8  2  0
  8  9  1  0
  9 10  1  0
  9 11  2  0
 11 12  1  0
 12 13  1  0
 13 14  2  0
 14 15  1  0
 15 16  2  0
 16 17  1  0
 17 18  2  0
 12 19  2  0
  6 20  1  0
 20 21  2  0
 21  3  1  0
 19  7  1  0
 18 13  1  0
  1 22  1  0
  1 23  1  0
  1 24  1  0
  4 25  1  0
  5 26  1  0
  8 27  1  0
 11 28  1  0
 14 29  1  0
 15 30  1  0
 16 31  1  0
 18 32  1  0
 19 33  1  0
 20 34  1  0
 21 35  1  0
M  CHG  1  16   1
M  END
>  <UniqueID>  (5) 
4

>  <SMILES>  (5) 
COc1ccc(-c2cc(Cl)cc(-c3cc[nH+]nc3)c2)cc1

>  <Energy>  (5) 
47.828997714597726

>  <Genealogy>  (5) 
COc1ccc(-c2cc(Cl)cc(-c3cc[nH+]nc3)c2)cc1 (protonated)
COc1ccc(-c2cc(Cl)cc(-c3cc[nH+]nc3)c2)cc1 (3D coordinates assigned)
COc1ccc(-c2cc(Cl)cc(-c3cc[nH+]nc3)c2)cc1 (optimized conformer: 47.828997714597726 kcal/mol)

>  <smiles>  (5) 
COc1ccc(-c2cc(Cl)cc(-c3ccnnc3)c2)cc1

>  <score_type>  (5) 
oracle

>  <origin>  (5) 
adg

>  <m_score__min__energy>  (5) 
-5.9800000000000004

>  <m_primary>  (5) 
energy

$$$$
5:0
     RDKit          3D

 49 52  0  0  0  0  0  0  0  0999 V2000
   58.4880   35.6552   45.1618 H   0  0  0  0  0  0  0  0  0  0  0  0
   58.4120   34.5840   45.4000 C   0  0  0  0  0  0  0  0  0  0  0  0
   58.1170   34.1780   46.7020 C   0  0  0  0  0  0  0  0  0  0  0  0
   57.9519   34.9298   47.4878 H   0  0  0  0  0  0  0  0  0  0  0  0
   58.0310   32.8160   47.0090 C   0  0  0  0  0  0  0  0  0  0  0  0
   57.7877   32.4998   48.0341 H   0  0  0  0  0  0  0  0  0  0  0  0
   58.2540   31.8510   46.0140 C   0  0  0  0  0  0  0  0  0  0  0  0
   58.1300   30.4180   46.3420 C   0  0  0  0  0  0  0  0  0  0  0  0
   57.4060   29.5960   45.5330 N   0  0  0  0  0  0  0  0  0  0  0  0
   57.4290   28.3130   45.9500 C   0  0  0  0  0  0  0  0  0  0  0  0
   56.7800   27.3750   45.3250 N   0  0  0  0  0  0  0  0  0  0  0  0
   56.0390   26.2900   45.9060 C   0  0  0  0  0  0  0  0  0  0  0  0
   54.7840   26.3400   46.0290 O   0  0  0  0  0  0  0  0  0  0  0  0
   56.7710   25.0640   46.3550 C   0  0  0  0  0  0  0  0  0  0  0  0
   57.7869   25.3448   46.6699 H   0  0  0  0  0  0  0  0  0  0  0  0
   56.2228   24.6120   47.1948 H   0  0  0  0  0  0  0  0  0  0  0  0
   56.8600   24.0570   45.2350 C   0  0  0  0  0  0  0  0  0  0  0  0
   57.8510   23.0560   45.2580 C   0  0  0  0  0  0  0  0  0  0  0  0
   58.5770   23.0232   46.0837 H   0  0  0  0  0  0  0  0  0  0  0  0
   57.9160   22.1030   44.2350 C   0  0  0  0  0  0  0  0  0  0  0  0
   58.6910   21.3227   44.2578 H   0  0  0  0  0  0  0  0  0  0  0  0
   56.9930   22.1440   43.1820 C   0  0  0  0  0  0  0  0  0  0  0  0
   57.0527   21.4040   42.3703 H   0  0  0  0  0  0  0  0  0  0  0  0
   55.9930   23.1270   43.1610 C   0  0  0  0  0  0  0  0  0  0  0  0
   55.2637   23.1505   42.3379 H   0  0  0  0  0  0  0  0  0  0  0  0
   55.9210   24.0780   44.1850 C   0  0  0  0  0  0  0  0  0  0  0  0
   55.1304   24.8427   44.1701 H   0  0  0  0  0  0  0  0  0  0  0  0
   58.3500   28.1410   47.3460 S   0  0  0  0  0  0  0  0  0  0  0  0
   58.7270   29.7830   47.4500 C   0  0  0  0  0  0  0  0  0  0  0  0
   59.4890   30.4110   48.5620 C   0  0  0  0  0  0  0  0  0  0  0  0
   59.1940   30.1320   49.7580 O   0  0  0  0  0  0  0  0  0  0  0  0
   60.5890   31.3700   48.3160 C   0  0  0  0  0  0  0  0  0  0  0  0
   60.5830   32.6510   48.8980 C   0  0  0  0  0  0  0  0  0  0  0  0
   59.7552   32.9468   49.5592 H   0  0  0  0  0  0  0  0  0  0  0  0
   61.6240   33.5520   48.6410 C   0  0  0  0  0  0  0  0  0  0  0  0
   61.6115   34.5495   49.1046 H   0  0  0  0  0  0  0  0  0  0  0  0
   62.6840   33.1880   47.7940 C   0  0  0  0  0  0  0  0  0  0  0  0
   63.7850   34.1640   47.4950 C   0  0  0  0  0  0  0  0  0  0  0  0
   64.2084   34.5394   48.4383 H   0  0  0  0  0  0  0  0  0  0  0  0
   64.5724   33.6618   46.9138 H   0  0  0  0  0  0  0  0  0  0  0  0
   63.3808   35.0059   46.9138 H   0  0  0  0  0  0  0  0  0  0  0  0
   62.6690   31.9260   47.1760 C   0  0  0  0  0  0  0  0  0  0  0  0
   63.4775   31.6451   46.4850 H   0  0  0  0  0  0  0  0  0  0  0  0
   61.6290   31.0240   47.4360 C   0  0  0  0  0  0  0  0  0  0  0  0
   61.6263   30.0381   46.9481 H   0  0  0  0  0  0  0  0  0  0  0  0
   58.5190   32.2670   44.6990 C   0  0  0  0  0  0  0  0  0  0  0  0
   58.6545   31.5191   43.9038 H   0  0  0  0  0  0  0  0  0  0  0  0
   58.6110   33.6290   44.3980 C   0  0  0  0  0  0  0  0  0  0  0  0
   58.8403   33.9501   43.3712 H   0  0  0  0  0  0  0  0  0  0  0  0
  1  2  1  0
  2  3  2  0
  3  4  1  0
  3  5  1  0
  5  6  1  0
  5  7  2  0
  7  8  1  0
  8  9  1  0
  9 10  1  0
 10 11  2  0
 11 12  1  0
 12 13  2  0
 12 14  1  0
 14 15  1  0
 14 16  1  0
 14 17  1  0
 17 18  2  0
 18 19  1  0
 18 20  1  0
 20 21  1  0
 20 22  2  0
 22 23  1  0
 22 24  1  0
 24 25  1  0
 24 26  2  0
 26 27  1  0
 10 28  1  0
 28 29  1  0
 29 30  1  0
 30 31  2  0
 30 32  1  0
 32 33  2  0
 33 34  1  0
 33 35  1  0
 35 36  1  0
 35 37  2  0
 37 38  1  0
 38 39  1  0
 38 40  1  0
 38 41  1  0
 37 42  1  0
 42 43  1  0
 42 44  2  0
 44 45  1  0
  7 46  1  0
 46 47  1  0
 46 48  2  0
 48 49  1  0
 48  2  1  0
 29  8  2  0
 44 32  1  0
 26 17  1  0
M  CHG  1   9  -1
M  END
>  <UniqueID>  (6) 
5

>  <SMILES>  (6) 
Cc1ccc(C(=O)c2s/c(=N\C(=O)Cc3ccccc3)[n-]c2-c2ccccc2)cc1

>  <Energy>  (6) 
98.40340689716149

>  <Genealogy>  (6) 
Cc1ccc(C(=O)c2sc(=NC(=O)Cc3ccccc3)[n-]c2-c2ccccc2)cc1 (protonated)
Cc1ccc(C(=O)c2s/c(=N\C(=O)Cc3ccccc3)[n-]c2-c2ccccc2)cc1 (cis-trans isomerization)
Cc1ccc(C(=O)c2s/c(=N\C(=O)Cc3ccccc3)[n-]c2-c2ccccc2)cc1 (3D coordinates assigned)
Cc1ccc(C(=O)c2s/c(=N\C(=O)Cc3ccccc3)[n-]c2-c2ccccc2)cc1 (optimized conformer: 98.40340689716149 kcal/mol)

>  <smiles>  (6) 
Cc1ccc(C(=O)c2sc(=NC(=O)Cc3ccccc3)[nH]c2-c2ccccc2)cc1

>  <score_type>  (6) 
oracle

>  <origin>  (6) 
adg

>  <m_score__min__energy>  (6) 
-11.73

>  <m_primary>  (6) 
energy

$$$$
6:0
     RDKit          3D

 31 33  0  0  0  0  0  0  0  0999 V2000
   59.6350   35.3030   46.5600 C   0  0  0  0  0  0  0  0  0  0  0  0
   58.8970   34.0940   46.0660 C   0  0  0  0  0  0  0  0  0  0  0  0
   57.5410   34.2030   45.6650 C   0  0  0  0  0  0  0  0  0  0  0  0
   56.8270   33.0690   45.2340 C   0  0  0  0  0  0  0  0  0  0  0  0
   57.4920   31.8460   45.2290 C   0  0  0  0  0  0  0  0  0  0  0  0
   57.0180   30.6780   44.8740 O   0  0  0  0  0  0  0  0  0  0  0  0
   57.9840   29.7870   45.0280 C   0  0  0  0  0  0  0  0  0  0  0  0
   57.8150   28.3470   44.7230 C   0  0  0  0  0  0  0  0  0  0  0  0
   57.9160   27.8510   43.4120 C   0  0  0  0  0  0  0  0  0  0  0  0
   57.7680   26.5220   43.1670 N   0  0  0  0  0  0  0  0  0  0  0  0
   57.5140   25.6330   44.1630 C   0  0  0  0  0  0  0  0  0  0  0  0
   57.3760   26.0740   45.4880 C   0  0  0  0  0  0  0  0  0  0  0  0
   57.1430   25.0910   46.6080 C   0  0  0  0  0  0  0  0  0  0  0  0
   57.6180   25.5930   47.8070 F   0  0  0  0  0  0  0  0  0  0  0  0
   57.7940   23.8970   46.3510 F   0  0  0  0  0  0  0  0  0  0  0  0
   55.7870   24.8500   46.7260 F   0  0  0  0  0  0  0  0  0  0  0  0
   57.5520   27.4390   45.7610 C   0  0  0  0  0  0  0  0  0  0  0  0
   59.1410   30.4080   45.5090 C   0  0  0  0  0  0  0  0  0  0  0  0
   58.7940   31.7330   45.6290 C   0  0  0  0  0  0  0  0  0  0  0  0
   59.5330   32.8320   46.0600 C   0  0  0  0  0  0  0  0  0  0  0  0
   59.6374   35.3070   47.6600 H   0  0  0  0  0  0  0  0  0  0  0  0
   60.6710   35.2763   46.1911 H   0  0  0  0  0  0  0  0  0  0  0  0
   59.1377   36.2122   46.1911 H   0  0  0  0  0  0  0  0  0  0  0  0
   57.0424   35.1832   45.6910 H   0  0  0  0  0  0  0  0  0  0  0  0
   55.7781   33.1467   44.9118 H   0  0  0  0  0  0  0  0  0  0  0  0
   58.1159   28.5418   42.5796 H   0  0  0  0  0  0  0  0  0  0  0  0
   57.8590   26.1730   42.1860 H   0  0  0  0  0  0  0  0  0  0  0  0
   57.4161   24.5626   43.9294 H   0  0  0  0  0  0  0  0  0  0  0  0
   57.4833   27.8009   46.7975 H   0  0  0  0  0  0  0  0  0  0  0  0
   60.1102   29.9416   45.7394 H   0  0  0  0  0  0  0  0  0  0  0  0
   60.5780   32.7213   46.3852 H   0  0  0  0  0  0  0  0  0  0  0  0
  1  2  1  0
  2  3  2  0
  3  4  1  0
  4  5  2  0
  5  6  1  0
  6  7  1  0
  7  8  1  0
  8  9  2  0
  9 10  1  0
 10 11  2  0
 11 12  1  0
 12 13  1  0
 13 14  1  0
 13 15  1  0
 13 16  1  0
 12 17  2  0
  7 18  2  0
 18 19  1  0
 19 20  2  0
 20  2  1  0
 19  5  1  0
 17  8  1  0
  1 21  1  0
  1 22  1  0
  1 23  1  0
  3 24  1  0
  4 25  1  0
  9 26  1  0
 10 27  1  0
 11 28  1  0
 17 29  1  0
 18 30  1  0
 20 31  1  0
M  CHG  1  10   1
M  END
>  <UniqueID>  (7) 
6

>  <SMILES>  (7) 
Cc1ccc2oc(-c3c[nH+]cc(C(F)(F)F)c3)cc2c1

>  <Energy>  (7) 
67.77833553640126

>  <Genealogy>  (7) 
Cc1ccc2oc(-c3c[nH+]cc(C(F)(F)F)c3)cc2c1 (protonated)
Cc1ccc2oc(-c3c[nH+]cc(C(F)(F)F)c3)cc2c1 (3D coordinates assigned)
Cc1ccc2oc(-c3c[nH+]cc(C(F)(F)F)c3)cc2c1 (optimized conformer: 67.77833553640126 kcal/mol)

>  <smiles>  (7) 
Cc1ccc2oc(-c3cncc(C(F)(F)F)c3)cc2c1

>  <score_type>  (7) 
oracle

>  <origin>  (7) 
adg

>  <m_score__min__energy>  (7) 
-4.9199999999999999

>  <m_primary>  (7) 
energy

$$$$
7:0
     RDKit          3D

 36 38  0  0  0  0  0  0  0  0999 V2000
   57.1580   27.7200   45.9380 C   0  0  0  0  0  0  0  0  0  0  0  0
   57.5490   28.2550   44.6280 N   0  0  0  0  0  0  0  0  0  0  0  0
   59.0100   28.3670   44.4290 C   0  0  0  0  0  0  0  0  0  0  0  0
   59.7660   28.8830   45.6260 C   0  0  0  0  0  0  0  0  0  0  0  0
   60.0160   28.2140   46.8100 C   0  0  0  0  0  0  0  0  0  0  0  0
   60.7510   29.0410   47.5710 N   0  0  0  0  0  0  0  0  0  0  0  0
   60.9470   30.1470   46.8730 N   0  0  0  0  0  0  0  0  0  0  0  0
   61.7140   31.2880   47.3480 C   0  0  0  0  0  0  0  0  0  0  0  0
   60.3770   30.0830   45.6780 N   0  0  0  0  0  0  0  0  0  0  0  0
   56.6690   29.7120   44.2210 S   0  0  0  0  0  0  0  0  0  0  0  0
   56.5180   29.7740   42.7260 O   0  0  0  0  0  0  0  0  0  0  0  0
   55.2940   29.6560   44.8270 O   0  0  0  0  0  0  0  0  0  0  0  0
   57.4540   31.1900   44.7620 C   0  0  0  0  0  0  0  0  0  0  0  0
   57.7710   31.5090   46.0810 C   0  0  0  0  0  0  0  0  0  0  0  0
   58.3990   32.7540   46.1850 C   0  0  0  0  0  0  0  0  0  0  0  0
   58.8690   33.3450   47.3600 C   0  0  0  0  0  0  0  0  0  0  0  0
   59.4890   34.6040   47.2840 C   0  0  0  0  0  0  0  0  0  0  0  0
   59.6300   35.2560   46.0430 C   0  0  0  0  0  0  0  0  0  0  0  0
   59.1520   34.6550   44.8680 C   0  0  0  0  0  0  0  0  0  0  0  0
   58.5440   33.4070   44.9690 C   0  0  0  0  0  0  0  0  0  0  0  0
   57.9040   32.4610   43.7390 S   0  0  0  0  0  0  0  0  0  0  0  0
   57.6064   28.3335   46.7333 H   0  0  0  0  0  0  0  0  0  0  0  0
   56.0622   27.7427   46.0311 H   0  0  0  0  0  0  0  0  0  0  0  0
   57.5124   26.6828   46.0311 H   0  0  0  0  0  0  0  0  0  0  0  0
   59.4003   27.3691   44.1801 H   0  0  0  0  0  0  0  0  0  0  0  0
   59.1606   29.1010   43.6237 H   0  0  0  0  0  0  0  0  0  0  0  0
   59.6785   27.2016   47.0766 H   0  0  0  0  0  0  0  0  0  0  0  0
   61.1160   28.8550   48.5310 H   0  0  0  0  0  0  0  0  0  0  0  0
   61.7184   31.2946   48.4480 H   0  0  0  0  0  0  0  0  0  0  0  0
   62.7472   31.2151   46.9776 H   0  0  0  0  0  0  0  0  0  0  0  0
   61.2564   32.2172   46.9776 H   0  0  0  0  0  0  0  0  0  0  0  0
   57.5527   30.8575   46.9400 H   0  0  0  0  0  0  0  0  0  0  0  0
   58.7559   32.8342   48.3276 H   0  0  0  0  0  0  0  0  0  0  0  0
   59.8666   35.0834   48.1992 H   0  0  0  0  0  0  0  0  0  0  0  0
   60.1172   36.2411   45.9947 H   0  0  0  0  0  0  0  0  0  0  0  0
   59.2551   35.1564   43.8944 H   0  0  0  0  0  0  0  0  0  0  0  0
  1  2  1  0
  2  3  1  0
  3  4  1  0
  4  5  1  0
  5  6  2  0
  6  7  1  0
  7  8  1  0
  7  9  1  0
  2 10  1  0
 10 11  2  0
 10 12  2  0
 10 13  1  0
 13 14  2  0
 14 15  1  0
 15 16  2  0
 16 17  1  0
 17 18  2  0
 18 19  1  0
 19 20  2  0
 20 21  1  0
  9  4  2  0
 21 13  1  0
 20 15  1  0
  1 22  1  0
  1 23  1  0
  1 24  1  0
  3 25  1  0
  3 26  1  0
  5 27  1  0
  6 28  1  0
  8 29  1  0
  8 30  1  0
  8 31  1  0
 14 32  1  0
 16 33  1  0
 17 34  1  0
 18 35  1  0
 19 36  1  0
M  CHG  1   6   1
M  END
>  <UniqueID>  (8) 
7

>  <SMILES>  (8) 
CN(Cc1c[nH+]n(C)n1)S(=O)(=O)c1cc2ccccc2s1

>  <Energy>  (8) 
101.83025858868318

>  <Genealogy>  (8) 
CN(Cc1c[nH+]n(C)n1)S(=O)(=O)c1cc2ccccc2s1 (protonated)
CN(Cc1c[nH+]n(C)n1)S(=O)(=O)c1cc2ccccc2s1 (3D coordinates assigned)
CN(Cc1c[nH+]n(C)n1)S(=O)(=O)c1cc2ccccc2s1 (optimized conformer: 101.83025858868318 kcal/mol)

>  <smiles>  (8) 
CN(Cc1cnn(C)n1)S(=O)(=O)c1cc2ccccc2s1

>  <score_type>  (8) 
oracle

>  <origin>  (8) 
adg

>  <m_score__min__energy>  (8) 
-6.8499999999999996

>  <m_primary>  (8) 
energy

$$$$
8:0
     RDKit          3D

 39 41  0  0  0  0  0  0  0  0999 V2000
   60.0380   28.2600   48.9570 C   0  0  0  0  0  0  0  0  0  0  0  0
   59.3970   27.5470   47.8000 C   0  0  0  0  0  0  0  0  0  0  0  0
   59.9650   26.3670   47.2950 C   0  0  0  0  0  0  0  0  0  0  0  0
   59.3620   25.6920   46.2300 C   0  0  0  0  0  0  0  0  0  0  0  0
   58.1670   26.1750   45.6670 C   0  0  0  0  0  0  0  0  0  0  0  0
   57.5260   25.4370   44.5220 C   0  0  0  0  0  0  0  0  0  0  0  0
   57.5630   27.3330   46.2010 C   0  0  0  0  0  0  0  0  0  0  0  0
   56.3510   27.8410   45.6220 N   0  0  0  0  0  0  0  0  0  0  0  0
   56.2290   29.0330   44.8370 C   0  0  0  0  0  0  0  0  0  0  0  0
   55.1480   29.6780   44.8780 O   0  0  0  0  0  0  0  0  0  0  0  0
   57.3980   29.6190   44.0930 C   0  0  0  0  0  0  0  0  0  0  0  0
   57.8080   30.8860   44.7210 N   0  0  0  0  0  0  0  0  0  0  0  0
   57.0200   31.9920   44.5570 C   0  0  0  0  0  0  0  0  0  0  0  0
   57.3450   33.1700   45.1480 N   0  0  0  0  0  0  0  0  0  0  0  0
   58.4510   33.2850   45.9230 C   0  0  0  0  0  0  0  0  0  0  0  0
   58.7620   34.5130   46.5220 C   0  0  0  0  0  0  0  0  0  0  0  0
   59.8990   34.6290   47.3280 C   0  0  0  0  0  0  0  0  0  0  0  0
   60.7280   33.5200   47.5390 C   0  0  0  0  0  0  0  0  0  0  0  0
   60.4240   32.2910   46.9440 C   0  0  0  0  0  0  0  0  0  0  0  0
   59.2830   32.1650   46.1300 C   0  0  0  0  0  0  0  0  0  0  0  0
   58.9320   30.9530   45.5070 C   0  0  0  0  0  0  0  0  0  0  0  0
   59.6550   29.9290   45.6740 O   0  0  0  0  0  0  0  0  0  0  0  0
   58.1930   28.0220   47.2550 C   0  0  0  0  0  0  0  0  0  0  0  0
   59.6605   27.8401   49.9011 H   0  0  0  0  0  0  0  0  0  0  0  0
   61.1293   28.1304   48.9085 H   0  0  0  0  0  0  0  0  0  0  0  0
   59.7934   29.3314   48.9085 H   0  0  0  0  0  0  0  0  0  0  0  0
   60.8899   25.9713   47.7399 H   0  0  0  0  0  0  0  0  0  0  0  0
   59.8247   24.7778   45.8298 H   0  0  0  0  0  0  0  0  0  0  0  0
   56.8527   24.6618   44.9165 H   0  0  0  0  0  0  0  0  0  0  0  0
   56.9504   26.1440   43.9064 H   0  0  0  0  0  0  0  0  0  0  0  0
   58.3066   24.9660   43.9064 H   0  0  0  0  0  0  0  0  0  0  0  0
   58.2389   28.9104   44.1187 H   0  0  0  0  0  0  0  0  0  0  0  0
   57.1044   29.8102   43.0503 H   0  0  0  0  0  0  0  0  0  0  0  0
   56.1124   31.9260   43.9390 H   0  0  0  0  0  0  0  0  0  0  0  0
   58.1122   35.3853   46.3583 H   0  0  0  0  0  0  0  0  0  0  0  0
   60.1428   35.5935   47.7973 H   0  0  0  0  0  0  0  0  0  0  0  0
   61.6208   33.6157   48.1745 H   0  0  0  0  0  0  0  0  0  0  0  0
   61.0774   31.4223   47.1126 H   0  0  0  0  0  0  0  0  0  0  0  0
   57.7382   28.9402   47.6550 H   0  0  0  0  0  0  0  0  0  0  0  0
  1  2  1  0
  2  3  2  0
  3  4  1  0
  4  5  2  0
  5  6  1  0
  5  7  1  0
  7  8  1  0
  8  9  1  0
  9 10  2  0
  9 11  1  0
 11 12  1  0
 12 13  1  0
 13 14  2  0
 14 15  1  0
 15 16  2  0
 16 17  1  0
 17 18  2  0
 18 19  1  0
 19 20  2  0
 20 21  1  0
 21 22  2  0
  7 23  2  0
 23  2  1  0
 21 12  1  0
 20 15  1  0
  1 24  1  0
  1 25  1  0
  1 26  1  0
  3 27  1  0
  4 28  1  0
  6 29  1  0
  6 30  1  0
  6 31  1  0
 11 32  1  0
 11 33  1  0
 13 34  1  0
 16 35  1  0
 17 36  1  0
 18 37  1  0
 19 38  1  0
 23 39  1  0
M  CHG  1   8  -1
M  END
>  <UniqueID>  (9) 
8

>  <SMILES>  (9) 
Cc1ccc(C)c([N-]C(=O)Cn2cnc3ccccc3c2=O)c1

>  <Energy>  (9) 
50.91160363285959

>  <Genealogy>  (9) 
Cc1ccc(C)c([N-]C(=O)Cn2cnc3ccccc3c2=O)c1 (protonated)
Cc1ccc(C)c([N-]C(=O)Cn2cnc3ccccc3c2=O)c1 (3D coordinates assigned)
Cc1ccc(C)c([N-]C(=O)Cn2cnc3ccccc3c2=O)c1 (optimized conformer: 50.91160363285959 kcal/mol)

>  <smiles>  (9) 
Cc1ccc(C)c(NC(=O)Cn2cnc3ccccc3c2=O)c1

>  <score_type>  (9) 
oracle

>  <origin>  (9) 
adg

>  <m_score__min__energy>  (9) 
-10.18

>  <m_primary>  (9) 
energy

$$$$
9:0
     RDKit          3D

 38 40  0  0  0  0  0  0  0  0999 V2000
   58.8340   27.0580   47.8290 C   0  0  0  0  0  0  0  0  0  0  0  0
   58.7270   25.6980   47.4230 O   0  0  0  0  0  0  0  0  0  0  0  0
   57.5220   25.0500   47.1010 C   0  0  0  0  0  0  0  0  0  0  0  0
   57.0690   23.9360   47.8390 C   0  0  0  0  0  0  0  0  0  0  0  0
   55.8700   23.3050   47.5060 C   0  0  0  0  0  0  0  0  0  0  0  0
   55.1070   23.7720   46.4370 C   0  0  0  0  0  0  0  0  0  0  0  0
   55.5400   24.8720   45.6960 C   0  0  0  0  0  0  0  0  0  0  0  0
   56.7470   25.5230   46.0160 C   0  0  0  0  0  0  0  0  0  0  0  0
   57.1790   26.6910   45.2090 C   0  0  0  0  0  0  0  0  0  0  0  0
   56.6070   27.9120   45.2970 N   0  0  0  0  0  0  0  0  0  0  0  0
   57.2980   28.6480   44.4050 C   0  0  0  0  0  0  0  0  0  0  0  0
   57.0330   30.0750   44.1500 C   0  0  0  0  0  0  0  0  0  0  0  0
   55.9620   30.5810   44.5810 O   0  0  0  0  0  0  0  0  0  0  0  0
   57.9660   30.8890   43.4210 N   0  0  0  0  0  0  0  0  0  0  0  0
   57.7620   32.3220   43.2240 C   0  0  0  0  0  0  0  0  0  0  0  0
   58.0700   33.0660   44.4900 C   0  0  0  0  0  0  0  0  0  0  0  0
   59.0630   34.0560   44.5230 C   0  0  0  0  0  0  0  0  0  0  0  0
   59.3040   34.7440   45.7140 C   0  0  0  0  0  0  0  0  0  0  0  0
   58.5550   34.4460   46.8530 C   0  0  0  0  0  0  0  0  0  0  0  0
   57.5700   33.4580   46.7830 C   0  0  0  0  0  0  0  0  0  0  0  0
   57.3490   32.7990   45.6150 N   0  0  0  0  0  0  0  0  0  0  0  0
   58.2600   27.8580   43.8110 C   0  0  0  0  0  0  0  0  0  0  0  0
   58.1570   26.6600   44.3290 O   0  0  0  0  0  0  0  0  0  0  0  0
   58.8384   27.1134   48.9276 H   0  0  0  0  0  0  0  0  0  0  0  0
   59.7685   27.4854   47.4366 H   0  0  0  0  0  0  0  0  0  0  0  0
   57.9778   27.6263   47.4366 H   0  0  0  0  0  0  0  0  0  0  0  0
   57.6660   23.5620   48.6838 H   0  0  0  0  0  0  0  0  0  0  0  0
   55.5262   22.4373   48.0882 H   0  0  0  0  0  0  0  0  0  0  0  0
   54.1620   23.2725   46.1772 H   0  0  0  0  0  0  0  0  0  0  0  0
   54.9326   25.2343   44.8535 H   0  0  0  0  0  0  0  0  0  0  0  0
   58.8160   30.4560   42.9990 H   0  0  0  0  0  0  0  0  0  0  0  0
   58.4265   32.6772   42.4225 H   0  0  0  0  0  0  0  0  0  0  0  0
   56.7125   32.5014   42.9475 H   0  0  0  0  0  0  0  0  0  0  0  0
   59.6461   34.2882   43.6196 H   0  0  0  0  0  0  0  0  0  0  0  0
   60.0830   35.5196   45.7543 H   0  0  0  0  0  0  0  0  0  0  0  0
   58.7381   34.9830   47.7954 H   0  0  0  0  0  0  0  0  0  0  0  0
   56.9728   33.2132   47.6737 H   0  0  0  0  0  0  0  0  0  0  0  0
   58.9810   28.1759   43.0434 H   0  0  0  0  0  0  0  0  0  0  0  0
  1  2  1  0
  2  3  1  0
  3  4  2  0
  4  5  1  0
  5  6  2  0
  6  7  1  0
  7  8  2  0
  8  9  1  0
  9 10  2  0
 10 11  1  0
 11 12  1  0
 12 13  2  0
 12 14  1  0
 14 15  1  0
 15 16  1  0
 16 17  2  0
 17 18  1  0
 18 19  2  0
 19 20  1  0
 20 21  2  0
 11 22  2  0
 22 23  1  0
  8  3  1  0
 23  9  1  0
 21 16  1  0
  1 24  1  0
  1 25  1  0
  1 26  1  0
  4 27  1  0
  5 28  1  0
  6 29  1  0
  7 30  1  0
 14 31  1  0
 15 32  1  0
 15 33  1  0
 17 34  1  0
 18 35  1  0
 19 36  1  0
 20 37  1  0
 22 38  1  0
M  END
>  <UniqueID>  (10) 
9

>  <SMILES>  (10) 
COc1ccccc1-c1nc(C(=O)NCc2ccccn2)co1

>  <Energy>  (10) 
68.73902038375704

>  <Genealogy>  (10) 
COc1ccccc1-c1nc(C(=O)NCc2ccccn2)co1 (3D coordinates assigned)
COc1ccccc1-c1nc(C(=O)NCc2ccccn2)co1 (optimized conformer: 68.73902038375704 kcal/mol)

>  <smiles>  (10) 
COc1ccccc1-c1nc(C(=O)NCc2ccccn2)co1

>  <score_type>  (10) 
oracle

>  <origin>  (10) 
adg

>  <m_score__min__energy>  (10) 
-7.0300000000000002

>  <m_primary>  (10) 
energy

$$$$
10:0
     RDKit          3D

 41 43  0  0  0  0  0  0  0  0999 V2000
   55.7430   23.0490   43.0050 C   0  0  0  0  0  0  0  0  0  0  0  0
   56.2740   23.6120   44.2890 C   0  0  0  0  0  0  0  0  0  0  0  0
   55.4080   24.1700   45.2380 C   0  0  0  0  0  0  0  0  0  0  0  0
   55.9030   24.7070   46.3830 N   0  0  0  0  0  0  0  0  0  0  0  0
   57.2370   24.7380   46.6430 C   0  0  0  0  0  0  0  0  0  0  0  0
   58.1520   24.2240   45.7100 C   0  0  0  0  0  0  0  0  0  0  0  0
   59.6090   24.2710   45.9860 C   0  0  0  0  0  0  0  0  0  0  0  0
   60.3210   23.2700   45.7120 O   0  0  0  0  0  0  0  0  0  0  0  0
   60.2470   25.4440   46.5110 N   0  0  0  0  0  0  0  0  0  0  0  0
   59.8020   26.7980   46.3400 C   0  0  0  0  0  0  0  0  0  0  0  0
   60.3550   27.5670   45.3090 C   0  0  0  0  0  0  0  0  0  0  0  0
   59.9480   28.8900   45.1170 C   0  0  0  0  0  0  0  0  0  0  0  0
   59.0000   29.4680   45.9750 C   0  0  0  0  0  0  0  0  0  0  0  0
   58.5650   30.8620   45.7630 C   0  0  0  0  0  0  0  0  0  0  0  0
   59.2420   31.8810   46.4540 C   0  0  0  0  0  0  0  0  0  0  0  0
   58.8860   33.2180   46.2700 C   0  0  0  0  0  0  0  0  0  0  0  0
   57.8510   33.5520   45.3980 C   0  0  0  0  0  0  0  0  0  0  0  0
   57.1610   32.5490   44.7130 C   0  0  0  0  0  0  0  0  0  0  0  0
   57.5000   31.1970   44.8920 C   0  0  0  0  0  0  0  0  0  0  0  0
   56.5540   29.9600   44.0440 S   0  0  0  0  0  0  0  0  0  0  0  0
   55.3120   29.3430   45.0780 N   0  0  0  0  0  0  0  0  0  0  0  0
   57.4570   28.8450   43.6000 O   0  0  0  0  0  0  0  0  0  0  0  0
   55.8960   30.5610   42.8330 O   0  0  0  0  0  0  0  0  0  0  0  0
   58.4520   28.7030   47.0130 C   0  0  0  0  0  0  0  0  0  0  0  0
   58.8590   27.3800   47.2050 C   0  0  0  0  0  0  0  0  0  0  0  0
   57.6540   23.6490   44.5310 C   0  0  0  0  0  0  0  0  0  0  0  0
   55.0037   22.2651   43.2263 H   0  0  0  0  0  0  0  0  0  0  0  0
   55.2645   23.8506   42.4233 H   0  0  0  0  0  0  0  0  0  0  0  0
   56.5712   22.6181   42.4233 H   0  0  0  0  0  0  0  0  0  0  0  0
   54.3233   24.1733   45.0553 H   0  0  0  0  0  0  0  0  0  0  0  0
   57.6011   25.1674   47.5880 H   0  0  0  0  0  0  0  0  0  0  0  0
   61.1145   27.1271   44.6460 H   0  0  0  0  0  0  0  0  0  0  0  0
   60.3720   29.4799   44.2910 H   0  0  0  0  0  0  0  0  0  0  0  0
   60.0583   31.6233   47.1448 H   0  0  0  0  0  0  0  0  0  0  0  0
   59.4229   34.0092   46.8138 H   0  0  0  0  0  0  0  0  0  0  0  0
   57.5772   34.6069   45.2491 H   0  0  0  0  0  0  0  0  0  0  0  0
   56.3448   32.8200   44.0272 H   0  0  0  0  0  0  0  0  0  0  0  0
   54.4040   29.4390   44.5700 H   0  0  0  0  0  0  0  0  0  0  0  0
   57.6978   29.1459   47.6800 H   0  0  0  0  0  0  0  0  0  0  0  0
   58.4403   26.7924   48.0353 H   0  0  0  0  0  0  0  0  0  0  0  0
   58.3504   23.2250   43.7926 H   0  0  0  0  0  0  0  0  0  0  0  0
  1  2  1  0
  2  3  2  0
  3  4  1  0
  4  5  2  0
  5  6  1  0
  6  7  1  0
  7  8  2  0
  7  9  1  0
  9 10  1  0
 10 11  2  0
 11 12  1  0
 12 13  2  0
 13 14  1  0
 14 15  2  0
 15 16  1  0
 16 17  2  0
 17 18  1  0
 18 19  2  0
 19 20  1  0
 20 21  1  0
 20 22  2  0
 20 23  2  0
 13 24  1  0
 24 25  2  0
  6 26  2  0
 26  2  1  0
 25 10  1  0
 19 14  1  0
  1 27  1  0
  1 28  1  0
  1 29  1  0
  3 30  1  0
  5 31  1  0
 11 32  1  0
 12 33  1  0
 15 34  1  0
 16 35  1  0
 17 36  1  0
 18 37  1  0
 21 38  1  0
 24 39  1  0
 25 40  1  0
 26 41  1  0
M  CHG  2   9  -1  21  -1
M  END
>  <UniqueID>  (11) 
10

>  <SMILES>  (11) 
Cc1cncc(C(=O)[N-]c2ccc(-c3ccccc3S([NH-])(=O)=O)cc2)c1

>  <Energy>  (11) 
58.90650008578952

>  <Genealogy>  (11) 
Cc1cncc(C(=O)[N-]c2ccc(-c3ccccc3S([NH-])(=O)=O)cc2)c1 (protonated)
Cc1cncc(C(=O)[N-]c2ccc(-c3ccccc3S([NH-])(=O)=O)cc2)c1 (3D coordinates assigned)
Cc1cncc(C(=O)[N-]c2ccc(-c3ccccc3S([NH-])(=O)=O)cc2)c1 (optimized conformer: 58.90650008578952 kcal/mol)

>  <smiles>  (11) 
Cc1cncc(C(=O)Nc2ccc(-c3ccccc3S(N)(=O)=O)cc2)c1

>  <score_type>  (11) 
oracle

>  <origin>  (11) 
adg

>  <m_score__min__energy>  (11) 
-12.24

>  <m_primary>  (11) 
energy

$$$$
11:0
     RDKit          3D

 49 52  0  0  0  0  0  0  0  0999 V2000
   62.0520   32.6930   47.2200 C   0  0  0  0  0  0  0  0  0  0  0  0
   62.4600   31.2580   47.5480 C   0  0  0  0  0  0  0  0  0  0  0  0
   61.3200   30.3090   47.2820 C   0  0  0  0  0  0  0  0  0  0  0  0
   61.1420   29.7700   46.0370 N   0  0  0  0  0  0  0  0  0  0  0  0
   60.1110   28.9510   45.7810 N   0  0  0  0  0  0  0  0  0  0  0  0
   59.1930   28.6320   46.7350 C   0  0  0  0  0  0  0  0  0  0  0  0
   58.0970   27.7560   46.4200 N   0  0  0  0  0  0  0  0  0  0  0  0
   57.9890   26.4280   47.0390 C   0  0  0  0  0  0  0  0  0  0  0  0
   57.1400   25.4890   46.1720 C   0  0  0  0  0  0  0  0  0  0  0  0
   55.7520   25.6740   46.3940 O   0  0  0  0  0  0  0  0  0  0  0  0
   54.9940   24.7660   45.6130 C   0  0  0  0  0  0  0  0  0  0  0  0
   57.0310   28.2430   45.5390 C   0  0  0  0  0  0  0  0  0  0  0  0
   57.2920   29.6670   45.1600 C   0  0  0  0  0  0  0  0  0  0  0  0
   57.2480   30.0440   43.8520 N   0  0  0  0  0  0  0  0  0  0  0  0
   57.4490   31.3330   43.4800 C   0  0  0  0  0  0  0  0  0  0  0  0
   57.4010   31.6370   42.2580 O   0  0  0  0  0  0  0  0  0  0  0  0
   57.7020   32.3090   44.4600 C   0  0  0  0  0  0  0  0  0  0  0  0
   57.9120   33.6640   44.1430 C   0  0  0  0  0  0  0  0  0  0  0  0
   58.1530   34.5920   45.1640 C   0  0  0  0  0  0  0  0  0  0  0  0
   58.1840   34.1800   46.5000 C   0  0  0  0  0  0  0  0  0  0  0  0
   57.9760   32.8360   46.8250 C   0  0  0  0  0  0  0  0  0  0  0  0
   57.7370   31.8990   45.8110 C   0  0  0  0  0  0  0  0  0  0  0  0
   57.5350   30.5930   46.1260 N   0  0  0  0  0  0  0  0  0  0  0  0
   59.3510   29.2100   47.9960 C   0  0  0  0  0  0  0  0  0  0  0  0
   58.5150   29.0930   49.0500 N   0  0  0  0  0  0  0  0  0  0  0  0
   59.0980   29.8650   49.9970 C   0  0  0  0  0  0  0  0  0  0  0  0
   60.2570   30.4410   49.5020 C   0  0  0  0  0  0  0  0  0  0  0  0
   60.3940   30.0190   48.2340 N   0  0  0  0  0  0  0  0  0  0  0  0
   61.8932   33.2517   48.1542 H   0  0  0  0  0  0  0  0  0  0  0  0
   62.8484   33.1760   46.6348 H   0  0  0  0  0  0  0  0  0  0  0  0
   61.1206   32.6847   46.6348 H   0  0  0  0  0  0  0  0  0  0  0  0
   63.3197   30.9747   46.9230 H   0  0  0  0  0  0  0  0  0  0  0  0
   62.7287   31.2001   48.6131 H   0  0  0  0  0  0  0  0  0  0  0  0
   61.8140   29.9850   45.2680 H   0  0  0  0  0  0  0  0  0  0  0  0
   58.9961   26.0007   47.1535 H   0  0  0  0  0  0  0  0  0  0  0  0
   57.5042   26.5354   48.0206 H   0  0  0  0  0  0  0  0  0  0  0  0
   57.3601   25.6873   45.1126 H   0  0  0  0  0  0  0  0  0  0  0  0
   57.3932   24.4534   46.4429 H   0  0  0  0  0  0  0  0  0  0  0  0
   54.4317   24.0924   46.2764 H   0  0  0  0  0  0  0  0  0  0  0  0
   54.2915   25.3260   44.9782 H   0  0  0  0  0  0  0  0  0  0  0  0
   55.6705   24.1749   44.9782 H   0  0  0  0  0  0  0  0  0  0  0  0
   56.9981   27.6242   44.6302 H   0  0  0  0  0  0  0  0  0  0  0  0
   56.0684   28.1803   46.0676 H   0  0  0  0  0  0  0  0  0  0  0  0
   57.8869   33.9941   43.0940 H   0  0  0  0  0  0  0  0  0  0  0  0
   58.3187   35.6502   44.9137 H   0  0  0  0  0  0  0  0  0  0  0  0
   58.3724   34.9146   47.2968 H   0  0  0  0  0  0  0  0  0  0  0  0
   58.0000   32.5143   47.8766 H   0  0  0  0  0  0  0  0  0  0  0  0
   58.7073   30.0138   51.0145 H   0  0  0  0  0  0  0  0  0  0  0  0
   60.9359   31.1156   50.0443 H   0  0  0  0  0  0  0  0  0  0  0  0
  1  2  1  0
  2  3  1  0
  3  4  2  0
  4  5  1  0
  5  6  2  0
  6  7  1  0
  7  8  1  0
  8  9  1  0
  9 10  1  0
 10 11  1  0
  7 12  1  0
 12 13  1  0
 13 14  2  0
 14 15  1  0
 15 16  2  0
 15 17  1  0
 17 18  2  0
 18 19  1  0
 19 20  2  0
 20 21  1  0
 21 22  2  0
 22 23  1  0
  6 24  1  0
 24 25  2  0
 25 26  1  0
 26 27  2  0
 27 28  1  0
 28  3  1  0
 23 13  1  0
 28 24  1  0
 22 17  1  0
  1 29  1  0
  1 30  1  0
  1 31  1  0
  2 32  1  0
  2 33  1  0
  4 34  1  0
  8 35  1  0
  8 36  1  0
  9 37  1  0
  9 38  1  0
 11 39  1  0
 11 40  1  0
 11 41  1  0
 12 42  1  0
 12 43  1  0
 18 44  1  0
 19 45  1  0
 20 46  1  0
 21 47  1  0
 26 48  1  0
 27 49  1  0
M  CHG  2   4   1  23  -1
M  END
>  <UniqueID>  (12) 
11

>  <SMILES>  (12) 
CCc1[nH+]nc(N(CCOC)Cc2nc(=O)c3ccccc3[n-]2)c2nccn12

>  <Energy>  (12) 
91.76908831014354

>  <Genealogy>  (12) 
CCc1[nH+]nc(N(CCOC)Cc2nc(=O)c3ccccc3[n-]2)c2nccn12 (protonated)
CCc1[nH+]nc(N(CCOC)Cc2nc(=O)c3ccccc3[n-]2)c2nccn12 (3D coordinates assigned)
CCc1[nH+]nc(N(CCOC)Cc2nc(=O)c3ccccc3[n-]2)c2nccn12 (optimized conformer: 91.76908831014354 kcal/mol)

>  <smiles>  (12) 
CCc1nnc(N(CCOC)Cc2nc(=O)c3ccccc3[nH]2)c2nccn12

>  <score_type>  (12) 
oracle

>  <origin>  (12) 
adg

>  <m_score__min__energy>  (12) 
-8.4000000000000004

>  <m_primary>  (12) 
energy

$$$$
12:0
     RDKit          3D

 41 42  0  0  0  0  0  0  0  0999 V2000
   57.7240   31.9670   42.6590 C   0  0  0  0  0  0  0  0  0  0  0  0
   57.2500   31.8490   44.0420 N   0  0  0  0  0  0  0  0  0  0  0  0
   57.0430   33.0440   44.8710 C   0  0  0  0  0  0  0  0  0  0  0  0
   58.2620   33.3050   45.7080 C   0  0  0  0  0  0  0  0  0  0  0  0
   58.3970   32.7070   46.9700 C   0  0  0  0  0  0  0  0  0  0  0  0
   59.5630   32.8930   47.7190 C   0  0  0  0  0  0  0  0  0  0  0  0
   60.6160   33.6820   47.2150 C   0  0  0  0  0  0  0  0  0  0  0  0
   61.8120   33.8960   47.9870 N   0  0  0  0  0  0  0  0  0  0  0  0
   61.7650   34.4980   49.0790 O   0  0  0  0  0  0  0  0  0  0  0  0
   63.0390   33.4990   47.5000 O   0  0  0  0  0  0  0  0  0  0  0  0
   60.4800   34.2660   45.9430 C   0  0  0  0  0  0  0  0  0  0  0  0
   59.3160   34.0730   45.1940 C   0  0  0  0  0  0  0  0  0  0  0  0
   56.9160   30.5440   44.5550 C   0  0  0  0  0  0  0  0  0  0  0  0
   55.6650   30.2200   44.7020 N   0  0  0  0  0  0  0  0  0  0  0  0
   57.9640   29.5980   44.8740 N   0  0  0  0  0  0  0  0  0  0  0  0
   59.2920   30.0680   45.2950 C   0  0  0  0  0  0  0  0  0  0  0  0
   59.8130   29.1920   46.4380 C   0  0  0  0  0  0  0  0  0  0  0  0
   59.8270   27.6900   46.0760 C   0  0  0  0  0  0  0  0  0  0  0  0
   59.0400   27.3560   44.7970 C   0  0  0  0  0  0  0  0  0  0  0  0
   57.7290   28.1500   44.7160 C   0  0  0  0  0  0  0  0  0  0  0  0
   58.7914   32.2327   42.6587 H   0  0  0  0  0  0  0  0  0  0  0  0
   57.5850   31.0068   42.1406 H   0  0  0  0  0  0  0  0  0  0  0  0
   57.1511   32.7499   42.1406 H   0  0  0  0  0  0  0  0  0  0  0  0
   56.8553   33.9108   44.2203 H   0  0  0  0  0  0  0  0  0  0  0  0
   56.1791   32.8801   45.5320 H   0  0  0  0  0  0  0  0  0  0  0  0
   57.5812   32.0885   47.3724 H   0  0  0  0  0  0  0  0  0  0  0  0
   59.6588   32.4205   48.7077 H   0  0  0  0  0  0  0  0  0  0  0  0
   61.2963   34.8796   45.5343 H   0  0  0  0  0  0  0  0  0  0  0  0
   59.2264   34.5262   44.1957 H   0  0  0  0  0  0  0  0  0  0  0  0
   55.0520   30.0600   43.8710 H   0  0  0  0  0  0  0  0  0  0  0  0
   55.2300   30.1040   45.6410 H   0  0  0  0  0  0  0  0  0  0  0  0
   59.9868   30.0098   44.4442 H   0  0  0  0  0  0  0  0  0  0  0  0
   59.2163   31.1096   45.6406 H   0  0  0  0  0  0  0  0  0  0  0  0
   60.8388   29.5051   46.6825 H   0  0  0  0  0  0  0  0  0  0  0  0
   59.1343   29.3223   47.2938 H   0  0  0  0  0  0  0  0  0  0  0  0
   60.8717   27.3767   45.9330 H   0  0  0  0  0  0  0  0  0  0  0  0
   59.3386   27.1548   46.9036 H   0  0  0  0  0  0  0  0  0  0  0  0
   59.6602   27.6010   43.9222 H   0  0  0  0  0  0  0  0  0  0  0  0
   58.7923   26.2844   44.8157 H   0  0  0  0  0  0  0  0  0  0  0  0
   57.2609   27.9684   43.7373 H   0  0  0  0  0  0  0  0  0  0  0  0
   57.0716   27.8156   45.5321 H   0  0  0  0  0  0  0  0  0  0  0  0
  1  2  1  0
  2  3  1  0
  3  4  1  0
  4  5  2  0
  5  6  1  0
  6  7  2  0
  7  8  1  0
  8  9  2  0
  8 10  1  0
  7 11  1  0
 11 12  2  0
  2 13  1  0
 13 14  2  0
 13 15  1  0
 15 16  1  0
 16 17  1  0
 17 18  1  0
 18 19  1  0
 19 20  1  0
 12  4  1  0
 20 15  1  0
  1 21  1  0
  1 22  1  0
  1 23  1  0
  3 24  1  0
  3 25  1  0
  5 26  1  0
  6 27  1  0
 11 28  1  0
 12 29  1  0
 14 30  1  0
 14 31  1  0
 16 32  1  0
 16 33  1  0
 17 34  1  0
 17 35  1  0
 18 36  1  0
 18 37  1  0
 19 38  1  0
 19 39  1  0
 20 40  1  0
 20 41  1  0
M  CHG  3   8   1  10  -1  14   1
M  END
>  <UniqueID>  (13) 
12

>  <SMILES>  (13) 
CN(Cc1ccc([N+](=O)[O-])cc1)C(=[NH2+])N1CCCCC1

>  <Energy>  (13) 
43.12493741350597

>  <Genealogy>  (13) 
CN(Cc1ccc([N+](=O)[O-])cc1)C(=[NH2+])N1CCCCC1 (protonated)
CN(Cc1ccc([N+](=O)[O-])cc1)C(=[NH2+])N1CCCCC1 (3D coordinates assigned)
CN(Cc1ccc([N+](=O)[O-])cc1)C(=[NH2+])N1CCCCC1 (nonaromatic ring conformer: 43.12493741350597 kcal/mol)

>  <smiles>  (13) 
CN(Cc1ccc([N+](=O)[O-])cc1)C(=N)N1CCCCC1

>  <score_type>  (13) 
oracle

>  <origin>  (13) 
adg

>  <m_score__min__energy>  (13) 
-5.21

>  <m_primary>  (13) 
energy

$$$$
13:0
     RDKit          3D

 45 46  0  0  0  0  0  0  0  0999 V2000
   58.9320   34.6050   44.9030 C   0  0  0  0  0  0  0  0  0  0  0  0
   57.9340   34.0840   45.9340 C   0  0  0  0  0  0  0  0  0  0  0  0
   58.6270   33.7910   47.2720 C   0  0  0  0  0  0  0  0  0  0  0  0
   58.4790   32.3320   47.7990 C   0  0  2  0  0  0  0  0  0  0  0  0
   58.5790   32.2080   49.3500 C   0  0  0  0  0  0  0  0  0  0  0  0
   59.4510   33.2910   49.9880 C   0  0  0  0  0  0  0  0  0  0  0  0
   59.3460   31.3550   47.0460 N   0  0  1  0  0  0  0  0  0  0  0  0
   60.5730   30.9500   47.7900 C   0  0  0  0  0  0  0  0  0  0  0  0
   61.6990   31.9400   47.6150 C   0  0  0  0  0  0  0  0  0  0  0  0
   62.8480   31.8720   48.4190 C   0  0  0  0  0  0  0  0  0  0  0  0
   63.8660   32.8110   48.2400 C   0  0  0  0  0  0  0  0  0  0  0  0
   63.7340   33.8030   47.2680 C   0  0  0  0  0  0  0  0  0  0  0  0
   62.5780   33.8400   46.4840 C   0  0  0  0  0  0  0  0  0  0  0  0
   61.5970   32.9180   46.6730 N   0  0  0  0  0  0  0  0  0  0  0  0
   58.5710   30.1460   46.6540 C   0  0  0  0  0  0  0  0  0  0  0  0
   57.8470   30.3390   45.3490 C   0  0  0  0  0  0  0  0  0  0  0  0
   58.1850   31.2440   44.3520 C   0  0  0  0  0  0  0  0  0  0  0  0
   57.3340   31.1860   43.2430 C   0  0  0  0  0  0  0  0  0  0  0  0
   56.3250   30.2390   43.3640 C   0  0  0  0  0  0  0  0  0  0  0  0
   56.4930   29.4720   44.8520 S   0  0  0  0  0  0  0  0  0  0  0  0
   59.7926   35.0543   45.4202 H   0  0  0  0  0  0  0  0  0  0  0  0
   59.2769   33.7719   44.2729 H   0  0  0  0  0  0  0  0  0  0  0  0
   58.4456   35.3643   44.2729 H   0  0  0  0  0  0  0  0  0  0  0  0
   57.1520   34.8413   46.0922 H   0  0  0  0  0  0  0  0  0  0  0  0
   57.4947   33.1494   45.5551 H   0  0  0  0  0  0  0  0  0  0  0  0
   59.7001   34.0003   47.1508 H   0  0  0  0  0  0  0  0  0  0  0  0
   58.1313   34.4323   48.0156 H   0  0  0  0  0  0  0  0  0  0  0  0
   57.4427   32.0373   47.5772 H   0  0  0  0  0  0  0  0  0  0  0  0
   57.5660   32.2815   49.7723 H   0  0  0  0  0  0  0  0  0  0  0  0
   59.0500   31.2386   49.5699 H   0  0  0  0  0  0  0  0  0  0  0  0
   59.3887   33.2137   51.0835 H   0  0  0  0  0  0  0  0  0  0  0  0
   60.4952   33.1557   49.6696 H   0  0  0  0  0  0  0  0  0  0  0  0
   59.0961   34.2823   49.6696 H   0  0  0  0  0  0  0  0  0  0  0  0
   59.6620   31.8180   46.1610 H   0  0  0  0  0  0  0  0  0  0  0  0
   60.3299   30.8756   48.8602 H   0  0  0  0  0  0  0  0  0  0  0  0
   60.9082   29.9828   47.3873 H   0  0  0  0  0  0  0  0  0  0  0  0
   62.9454   31.0864   49.1828 H   0  0  0  0  0  0  0  0  0  0  0  0
   64.7706   32.7686   48.8644 H   0  0  0  0  0  0  0  0  0  0  0  0
   64.5305   34.5472   47.1206 H   0  0  0  0  0  0  0  0  0  0  0  0
   62.4616   34.6160   45.7131 H   0  0  0  0  0  0  0  0  0  0  0  0
   59.2636   29.2973   46.5537 H   0  0  0  0  0  0  0  0  0  0  0  0
   57.8195   29.9563   47.4346 H   0  0  0  0  0  0  0  0  0  0  0  0
   59.0361   31.9369   44.4264 H   0  0  0  0  0  0  0  0  0  0  0  0
   57.4527   31.8295   42.3588 H   0  0  0  0  0  0  0  0  0  0  0  0
   55.5483   30.0267   42.6145 H   0  0  0  0  0  0  0  0  0  0  0  0
  1  2  1  0
  2  3  1  0
  3  4  1  0
  4  5  1  0
  5  6  1  0
  4  7  1  0
  7  8  1  0
  8  9  1  0
  9 10  2  0
 10 11  1  0
 11 12  2  0
 12 13  1  0
 13 14  2  0
  7 15  1  0
 15 16  1  0
 16 17  2  0
 17 18  1  0
 18 19  2  0
 19 20  1  0
 14  9  1  0
 20 16  1  0
  1 21  1  0
  1 22  1  0
  1 23  1  0
  2 24  1  0
  2 25  1  0
  3 26  1  0
  3 27  1  0
  4 28  1  6
  5 29  1  0
  5 30  1  0
  6 31  1  0
  6 32  1  0
  6 33  1  0
  7 34  1  6
  8 35  1  0
  8 36  1  0
 10 37  1  0
 11 38  1  0
 12 39  1  0
 13 40  1  0
 15 41  1  0
 15 42  1  0
 17 43  1  0
 18 44  1  0
 19 45  1  0
M  CHG  1   7   1
M  END
>  <UniqueID>  (14) 
13

>  <SMILES>  (14) 
CCC[C@H](CC)[N@@H+](Cc1ccccn1)Cc1cccs1

>  <Energy>  (14) 
74.13455331875778

>  <Genealogy>  (14) 
CCCC(CC)[NH+](Cc1ccccn1)Cc1cccs1 (protonated)
CCC[C@H](CC)[N@@H+](Cc1ccccn1)Cc1cccs1 (chirality)
CCC[C@H](CC)[N@@H+](Cc1ccccn1)Cc1cccs1 (3D coordinates assigned)
CCC[C@H](CC)[N@@H+](Cc1ccccn1)Cc1cccs1 (optimized conformer: 74.13455331875778 kcal/mol)

>  <smiles>  (14) 
CCCC(CC)N(Cc1ccccn1)Cc1cccs1

>  <score_type>  (14) 
oracle

>  <origin>  (14) 
adg

>  <m_score__min__energy>  (14) 
-4.6200000000000001

>  <m_primary>  (14) 
energy

$$$$
14:0
     RDKit          3D

 34 36  0  0  0  0  0  0  0  0999 V2000
   56.9320   23.3670   43.6500 C   0  0  0  0  0  0  0  0  0  0  0  0
   57.7370   24.1190   44.5520 O   0  0  0  0  0  0  0  0  0  0  0  0
   57.7380   25.5190   44.6330 C   0  0  0  0  0  0  0  0  0  0  0  0
   58.1410   26.3380   43.5600 C   0  0  0  0  0  0  0  0  0  0  0  0
   58.1220   27.7300   43.6910 C   0  0  0  0  0  0  0  0  0  0  0  0
   57.7010   28.3210   44.8900 C   0  0  0  0  0  0  0  0  0  0  0  0
   57.6860   29.7540   45.0230 N   0  0  0  0  0  0  0  0  0  0  0  0
   56.6560   30.4930   44.4890 C   0  0  0  0  0  0  0  0  0  0  0  0
   55.5210   29.8470   43.7450 C   0  0  0  0  0  0  0  0  0  0  0  0
   56.6460   31.8450   44.6290 N   0  0  0  0  0  0  0  0  0  0  0  0
   57.6370   32.5000   45.2800 C   0  0  0  0  0  0  0  0  0  0  0  0
   57.5910   33.8940   45.4010 C   0  0  0  0  0  0  0  0  0  0  0  0
   58.6150   34.5710   46.0710 C   0  0  0  0  0  0  0  0  0  0  0  0
   59.6850   33.8590   46.6200 C   0  0  0  0  0  0  0  0  0  0  0  0
   59.7370   32.4670   46.5030 C   0  0  0  0  0  0  0  0  0  0  0  0
   58.7110   31.7760   45.8300 C   0  0  0  0  0  0  0  0  0  0  0  0
   58.7120   30.3790   45.6860 C   0  0  0  0  0  0  0  0  0  0  0  0
   59.6580   29.6970   46.1730 O   0  0  0  0  0  0  0  0  0  0  0  0
   57.3040   27.5080   45.9600 C   0  0  0  0  0  0  0  0  0  0  0  0
   57.3230   26.1160   45.8290 C   0  0  0  0  0  0  0  0  0  0  0  0
   56.2446   22.7248   44.2201 H   0  0  0  0  0  0  0  0  0  0  0  0
   56.3516   24.0539   43.0165 H   0  0  0  0  0  0  0  0  0  0  0  0
   57.5779   22.7413   43.0165 H   0  0  0  0  0  0  0  0  0  0  0  0
   58.4718   25.8808   42.6158 H   0  0  0  0  0  0  0  0  0  0  0  0
   58.4388   28.3638   42.8496 H   0  0  0  0  0  0  0  0  0  0  0  0
   54.7980   29.4355   44.4646 H   0  0  0  0  0  0  0  0  0  0  0  0
   55.0229   30.5969   43.1129 H   0  0  0  0  0  0  0  0  0  0  0  0
   55.9115   29.0358   43.1129 H   0  0  0  0  0  0  0  0  0  0  0  0
   56.7500   34.4564   44.9694 H   0  0  0  0  0  0  0  0  0  0  0  0
   58.5782   35.6663   46.1661 H   0  0  0  0  0  0  0  0  0  0  0  0
   60.4886   34.3955   47.1457 H   0  0  0  0  0  0  0  0  0  0  0  0
   60.5806   31.9105   46.9373 H   0  0  0  0  0  0  0  0  0  0  0  0
   56.9767   27.9658   46.9051 H   0  0  0  0  0  0  0  0  0  0  0  0
   57.0091   25.4846   46.6733 H   0  0  0  0  0  0  0  0  0  0  0  0
  1  2  1  0
  2  3  1  0
  3  4  2  0
  4  5  1  0
  5  6  2  0
  6  7  1  0
  7  8  1  0
  8  9  1  0
  8 10  2  0
 10 11  1  0
 11 12  2  0
 12 13  1  0
 13 14  2  0
 14 15  1  0
 15 16  2  0
 16 17  1  0
 17 18  2  0
  6 19  1  0
 19 20  2  0
 20  3  1  0
 17  7  1  0
 16 11  1  0
  1 21  1  0
  1 22  1  0
  1 23  1  0
  4 24  1  0
  5 25  1  0
  9 26  1  0
  9 27  1  0
  9 28  1  0
 12 29  1  0
 13 30  1  0
 14 31  1  0
 15 32  1  0
 19 33  1  0
 20 34  1  0
M  END
>  <UniqueID>  (15) 
14

>  <SMILES>  (15) 
COc1ccc(-n2c(C)nc3ccccc3c2=O)cc1

>  <Energy>  (15) 
49.70321062187744

>  <Genealogy>  (15) 
COc1ccc(-n2c(C)nc3ccccc3c2=O)cc1 (3D coordinates assigned)
COc1ccc(-n2c(C)nc3ccccc3c2=O)cc1 (optimized conformer: 49.70321062187744 kcal/mol)

>  <smiles>  (15) 
COc1ccc(-n2c(C)nc3ccccc3c2=O)cc1

>  <score_type>  (15) 
oracle

>  <origin>  (15) 
adg

>  <m_score__min__energy>  (15) 
-6.5999999999999996

>  <m_primary>  (15) 
energy

$$$$
15:0
     RDKit          3D

 36 39  0  0  0  0  0  0  0  0999 V2000
   57.9210   28.2680   45.8510 C   0  0  0  0  0  0  0  0  0  0  0  0
   57.5770   29.0820   44.6450 C   0  0  0  0  0  0  0  0  0  0  0  0
   56.9810   28.5900   43.5340 N   0  0  0  0  0  0  0  0  0  0  0  0
   56.8450   29.6370   42.6890 C   0  0  0  0  0  0  0  0  0  0  0  0
   57.3370   30.7640   43.2350 N   0  0  0  0  0  0  0  0  0  0  0  0
   57.4010   32.0240   42.7400 C   0  0  0  0  0  0  0  0  0  0  0  0
   57.9570   33.0000   43.5130 N   0  0  0  0  0  0  0  0  0  0  0  0
   58.4410   32.7170   44.7620 C   0  0  0  0  0  0  0  0  0  0  0  0
   59.0120   33.7100   45.5650 C   0  0  0  0  0  0  0  0  0  0  0  0
   59.0800   34.8940   45.1330 O   0  0  0  0  0  0  0  0  0  0  0  0
   59.4920   33.3920   46.8120 N   0  0  0  0  0  0  0  0  0  0  0  0
   60.0660   34.4260   47.6890 C   0  0  0  0  0  0  0  0  0  0  0  0
   61.4940   34.0910   48.0270 C   0  0  0  0  0  0  0  0  0  0  0  0
   62.3680   33.6390   47.0250 C   0  0  0  0  0  0  0  0  0  0  0  0
   63.6850   33.2940   47.3420 C   0  0  0  0  0  0  0  0  0  0  0  0
   64.1370   33.3910   48.6610 C   0  0  0  0  0  0  0  0  0  0  0  0
   63.2710   33.8310   49.6670 C   0  0  0  0  0  0  0  0  0  0  0  0
   63.8370   33.9460   51.3240 Cl  0  0  0  0  0  0  0  0  0  0  0  0
   61.9520   34.1780   49.3530 C   0  0  0  0  0  0  0  0  0  0  0  0
   59.3980   32.1070   47.2750 C   0  0  0  0  0  0  0  0  0  0  0  0
   58.8460   31.1300   46.5100 N   0  0  0  0  0  0  0  0  0  0  0  0
   58.3710   31.4070   45.2720 C   0  0  0  0  0  0  0  0  0  0  0  0
   57.7950   30.4360   44.4520 C   0  0  0  0  0  0  0  0  0  0  0  0
   57.6797   28.8389   46.7597 H   0  0  0  0  0  0  0  0  0  0  0  0
   57.3409   27.3335   45.8403 H   0  0  0  0  0  0  0  0  0  0  0  0
   58.9955   28.0327   45.8403 H   0  0  0  0  0  0  0  0  0  0  0  0
   56.6830   27.6040   43.3600 H   0  0  0  0  0  0  0  0  0  0  0  0
   56.3923   29.5755   41.6883 H   0  0  0  0  0  0  0  0  0  0  0  0
   57.0130   32.2542   41.7368 H   0  0  0  0  0  0  0  0  0  0  0  0
   60.0334   35.3975   47.1740 H   0  0  0  0  0  0  0  0  0  0  0  0
   59.4798   34.4722   48.6186 H   0  0  0  0  0  0  0  0  0  0  0  0
   62.0148   33.5561   45.9865 H   0  0  0  0  0  0  0  0  0  0  0  0
   64.3667   32.9456   46.5521 H   0  0  0  0  0  0  0  0  0  0  0  0
   65.1744   33.1211   48.9079 H   0  0  0  0  0  0  0  0  0  0  0  0
   61.2714   34.5200   50.1466 H   0  0  0  0  0  0  0  0  0  0  0  0
   59.7743   31.8628   48.2794 H   0  0  0  0  0  0  0  0  0  0  0  0
  1  2  1  0
  2  3  1  0
  3  4  2  0
  4  5  1  0
  5  6  1  0
  6  7  2  0
  7  8  1  0
  8  9  1  0
  9 10  2  0
  9 11  1  0
 11 12  1  0
 12 13  1  0
 13 14  2  0
 14 15  1  0
 15 16  2  0
 16 17  1  0
 17 18  1  0
 17 19  2  0
 11 20  1  0
 20 21  2  0
 21 22  1  0
 22 23  1  0
 23  2  2  0
 23  5  1  0
 22  8  2  0
 19 13  1  0
  1 24  1  0
  1 25  1  0
  1 26  1  0
  3 27  1  0
  4 28  1  0
  6 29  1  0
 12 30  1  0
 12 31  1  0
 14 32  1  0
 15 33  1  0
 16 34  1  0
 19 35  1  0
 20 36  1  0
M  CHG  1   3   1
M  END
>  <UniqueID>  (16) 
15

>  <SMILES>  (16) 
Cc1[nH+]cn2cnc3c(=O)n(Cc4cccc(Cl)c4)cnc3c12

>  <Energy>  (16) 
82.38398730326024

>  <Genealogy>  (16) 
Cc1[nH+]cn2cnc3c(=O)n(Cc4cccc(Cl)c4)cnc3c12 (protonated)
Cc1[nH+]cn2cnc3c(=O)n(Cc4cccc(Cl)c4)cnc3c12 (3D coordinates assigned)
Cc1[nH+]cn2cnc3c(=O)n(Cc4cccc(Cl)c4)cnc3c12 (optimized conformer: 82.38398730326024 kcal/mol)

>  <smiles>  (16) 
Cc1ncn2cnc3c(=O)n(Cc4cccc(Cl)c4)cnc3c12

>  <score_type>  (16) 
oracle

>  <origin>  (16) 
adg

>  <m_score__min__energy>  (16) 
-6.2800000000000002

>  <m_primary>  (16) 
energy

$$$$
16:0
     RDKit          3D

 46 48  0  0  0  0  0  0  0  0999 V2000
   63.2170   32.8530   47.5620 C   0  0  0  0  0  0  0  0  0  0  0  0
   62.5170   32.9900   48.9190 C   0  0  0  0  0  0  0  0  0  0  0  0
   61.3350   32.0960   49.0480 N   0  0  2  0  0  0  0  0  0  0  0  0
   61.3970   30.8880   48.1930 C   0  0  0  0  0  0  0  0  0  0  0  0
   60.0730   30.5000   47.6090 C   0  0  0  0  0  0  0  0  0  0  0  0
   59.3620   29.6440   48.1980 O   0  0  0  0  0  0  0  0  0  0  0  0
   59.5760   31.1580   46.4360 N   0  0  0  0  0  0  0  0  0  0  0  0
   59.1130   30.3480   45.2990 C   0  0  0  0  0  0  0  0  0  0  0  0
   57.7860   29.6190   45.5670 C   0  0  0  0  0  0  0  0  0  0  0  0
   56.6270   30.4260   45.1060 N   0  0  0  0  0  0  0  0  0  0  0  0
   55.7320   29.6370   44.2440 C   0  0  0  0  0  0  0  0  0  0  0  0
   56.2050   29.8040   42.8060 C   0  0  0  0  0  0  0  0  0  0  0  0
   57.1010   31.0300   42.8190 C   0  0  0  0  0  0  0  0  0  0  0  0
   57.0440   31.5440   44.2490 C   0  0  0  0  0  0  0  0  0  0  0  0
   59.5530   32.5960   46.3650 C   0  0  0  0  0  0  0  0  0  0  0  0
   59.2570   33.1940   45.1760 N   0  0  0  0  0  0  0  0  0  0  0  0
   59.2600   34.5400   45.0130 C   0  0  0  0  0  0  0  0  0  0  0  0
   59.5780   35.3690   46.0850 C   0  0  0  0  0  0  0  0  0  0  0  0
   59.8670   34.7990   47.3230 C   0  0  0  0  0  0  0  0  0  0  0  0
   59.8510   33.4030   47.4860 C   0  0  0  0  0  0  0  0  0  0  0  0
   60.0540   32.8220   48.8730 C   0  0  0  0  0  0  0  0  0  0  0  0
   64.2853   32.6439   47.7200 H   0  0  0  0  0  0  0  0  0  0  0  0
   62.7615   32.0270   46.9962 H   0  0  0  0  0  0  0  0  0  0  0  0
   63.1065   33.7898   46.9962 H   0  0  0  0  0  0  0  0  0  0  0  0
   63.2361   32.7394   49.7128 H   0  0  0  0  0  0  0  0  0  0  0  0
   62.1604   34.0270   49.0057 H   0  0  0  0  0  0  0  0  0  0  0  0
   61.3230   31.7440   50.0350 H   0  0  0  0  0  0  0  0  0  0  0  0
   62.0982   31.0812   47.3678 H   0  0  0  0  0  0  0  0  0  0  0  0
   61.7246   30.0554   48.8329 H   0  0  0  0  0  0  0  0  0  0  0  0
   58.9775   31.0106   44.4315 H   0  0  0  0  0  0  0  0  0  0  0  0
   59.8760   29.5764   45.1187 H   0  0  0  0  0  0  0  0  0  0  0  0
   57.7899   28.6582   45.0314 H   0  0  0  0  0  0  0  0  0  0  0  0
   57.6895   29.4585   46.6509 H   0  0  0  0  0  0  0  0  0  0  0  0
   55.7750   28.5761   44.5313 H   0  0  0  0  0  0  0  0  0  0  0  0
   54.6931   29.9828   44.3496 H   0  0  0  0  0  0  0  0  0  0  0  0
   56.7694   28.9177   42.4806 H   0  0  0  0  0  0  0  0  0  0  0  0
   55.3627   29.9188   42.1078 H   0  0  0  0  0  0  0  0  0  0  0  0
   58.1316   30.7586   42.5465 H   0  0  0  0  0  0  0  0  0  0  0  0
   56.7730   31.7892   42.0937 H   0  0  0  0  0  0  0  0  0  0  0  0
   58.0364   31.9039   44.5582 H   0  0  0  0  0  0  0  0  0  0  0  0
   56.3337   32.3799   44.3313 H   0  0  0  0  0  0  0  0  0  0  0  0
   59.0113   34.9765   44.0344 H   0  0  0  0  0  0  0  0  0  0  0  0
   59.6009   36.4612   45.9562 H   0  0  0  0  0  0  0  0  0  0  0  0
   60.1094   35.4460   48.1789 H   0  0  0  0  0  0  0  0  0  0  0  0
   60.0232   33.6468   49.6001 H   0  0  0  0  0  0  0  0  0  0  0  0
   59.2509   32.0864   49.0275 H   0  0  0  0  0  0  0  0  0  0  0  0
  1  2  1  0
  2  3  1  0
  3  4  1  0
  4  5  1  0
  5  6  2  0
  5  7  1  0
  7  8  1  0
  8  9  1  0
  9 10  1  0
 10 11  1  0
 11 12  1  0
 12 13  1  0
 13 14  1  0
  7 15  1  0
 15 16  2  0
 16 17  1  0
 17 18  2  0
 18 19  1  0
 19 20  2  0
 20 21  1  0
 21  3  1  0
 14 10  1  0
 20 15  1  0
  1 22  1  0
  1 23  1  0
  1 24  1  0
  2 25  1  0
  2 26  1  0
  3 27  1  1
  4 28  1  0
  4 29  1  0
  8 30  1  0
  8 31  1  0
  9 32  1  0
  9 33  1  0
 11 34  1  0
 11 35  1  0
 12 36  1  0
 12 37  1  0
 13 38  1  0
 13 39  1  0
 14 40  1  0
 14 41  1  0
 17 42  1  0
 18 43  1  0
 19 44  1  0
 21 45  1  0
 21 46  1  0
M  CHG  1   3   1
M  END
>  <UniqueID>  (17) 
16

>  <SMILES>  (17) 
CC[N@@H+]1CC(=O)N(CCN2CCCC2)c2ncccc2C1

>  <Energy>  (17) 
69.50704349240361

>  <Genealogy>  (17) 
CC[NH+]1CC(=O)N(CCN2CCCC2)c2ncccc2C1 (protonated)
CC[N@@H+]1CC(=O)N(CCN2CCCC2)c2ncccc2C1 (chirality)
CC[N@@H+]1CC(=O)N(CCN2CCCC2)c2ncccc2C1 (3D coordinates assigned)
CC[N@@H+]1CC(=O)N(CCN2CCCC2)c2ncccc2C1 (nonaromatic ring conformer: 69.50704349240361 kcal/mol)

>  <smiles>  (17) 
CCN1CC(=O)N(CCN2CCCC2)c2ncccc2C1

>  <score_type>  (17) 
oracle

>  <origin>  (17) 
adg

>  <m_score__min__energy>  (17) 
-3.8599999999999999

>  <m_primary>  (17) 
energy

$$$$
17:0
     RDKit          3D

 38 39  0  0  0  0  0  0  0  0999 V2000
   55.7107   24.6606   46.6417 H   0  0  0  0  0  0  0  0  0  0  0  0
   56.2040   25.5650   46.2560 C   0  0  0  0  0  0  0  0  0  0  0  0
   55.5290   26.7190   46.0090 N   0  0  0  0  0  0  0  0  0  0  0  0
   56.3440   27.6890   45.5370 C   0  0  0  0  0  0  0  0  0  0  0  0
   55.8940   28.8730   45.2360 N   0  0  0  0  0  0  0  0  0  0  0  0
   56.5190   29.8670   44.4050 C   0  0  0  0  0  0  0  0  0  0  0  0
   56.2910   29.9090   43.1660 O   0  0  0  0  0  0  0  0  0  0  0  0
   57.4440   30.8560   45.0120 C   0  0  0  0  0  0  0  0  0  0  0  0
   57.3300   32.2240   44.7080 C   0  0  0  0  0  0  0  0  0  0  0  0
   56.5463   32.5653   44.0157 H   0  0  0  0  0  0  0  0  0  0  0  0
   58.2040   33.1540   45.2780 C   0  0  0  0  0  0  0  0  0  0  0  0
   58.1018   34.2215   45.0330 H   0  0  0  0  0  0  0  0  0  0  0  0
   59.2100   32.7350   46.1600 C   0  0  0  0  0  0  0  0  0  0  0  0
   60.1130   33.6940   46.7460 N   0  0  0  0  0  0  0  0  0  0  0  0
   61.5470   33.6360   46.4270 C   0  0  0  0  0  0  0  0  0  0  0  0
   61.9493   34.6587   46.3806 H   0  0  0  0  0  0  0  0  0  0  0  0
   61.6759   33.1338   45.4569 H   0  0  0  0  0  0  0  0  0  0  0  0
   62.3000   32.8480   47.4950 C   0  0  0  0  0  0  0  0  0  0  0  0
   61.9795   33.1834   48.4924 H   0  0  0  0  0  0  0  0  0  0  0  0
   62.0823   31.7758   47.3812 H   0  0  0  0  0  0  0  0  0  0  0  0
   63.3810   33.0168   47.3812 H   0  0  0  0  0  0  0  0  0  0  0  0
   59.5960   34.7220   47.6600 C   0  0  0  0  0  0  0  0  0  0  0  0
   60.2078   35.6312   47.5649 H   0  0  0  0  0  0  0  0  0  0  0  0
   58.5502   34.9382   47.3961 H   0  0  0  0  0  0  0  0  0  0  0  0
   59.6480   34.2320   49.1010 C   0  0  0  0  0  0  0  0  0  0  0  0
   59.5570   35.0898   49.7835 H   0  0  0  0  0  0  0  0  0  0  0  0
   58.8192   33.5313   49.2802 H   0  0  0  0  0  0  0  0  0  0  0  0
   60.6054   33.7209   49.2802 H   0  0  0  0  0  0  0  0  0  0  0  0
   59.3270   31.3710   46.4680 C   0  0  0  0  0  0  0  0  0  0  0  0
   60.1115   31.0324   47.1608 H   0  0  0  0  0  0  0  0  0  0  0  0
   58.4530   30.4400   45.9000 C   0  0  0  0  0  0  0  0  0  0  0  0
   58.5548   29.3734   46.1492 H   0  0  0  0  0  0  0  0  0  0  0  0
   57.9410   27.1510   45.4040 S   0  0  0  0  0  0  0  0  0  0  0  0
   57.5670   25.6170   45.9830 C   0  0  0  0  0  0  0  0  0  0  0  0
   58.5290   24.4890   46.1350 C   0  0  0  0  0  0  0  0  0  0  0  0
   58.6970   24.2920   47.2041 H   0  0  0  0  0  0  0  0  0  0  0  0
   58.1166   23.5884   45.6566 H   0  0  0  0  0  0  0  0  0  0  0  0
   59.4834   24.7540   45.6566 H   0  0  0  0  0  0  0  0  0  0  0  0
  1  2  1  0
  2  3  1  0
  3  4  1  0
  4  5  2  0
  5  6  1  0
  6  7  2  0
  6  8  1  0
  8  9  2  0
  9 10  1  0
  9 11  1  0
 11 12  1  0
 11 13  2  0
 13 14  1  0
 14 15  1  0
 15 16  1  0
 15 17  1  0
 15 18  1  0
 18 19  1  0
 18 20  1  0
 18 21  1  0
 14 22  1  0
 22 23  1  0
 22 24  1  0
 22 25  1  0
 25 26  1  0
 25 27  1  0
 25 28  1  0
 13 29  1  0
 29 30  1  0
 29 31  2  0
 31 32  1  0
  4 33  1  0
 33 34  1  0
 34 35  1  0
 35 36  1  0
 35 37  1  0
 35 38  1  0
 34  2  2  0
 31  8  1  0
M  CHG  1   3  -1
M  END
>  <UniqueID>  (18) 
17

>  <SMILES>  (18) 
CCN(CC)c1ccc(C(=O)/N=c2/[n-]cc(C)s2)cc1

>  <Energy>  (18) 
68.56719147526536

>  <Genealogy>  (18) 
CCN(CC)c1ccc(C(=O)N=c2[n-]cc(C)s2)cc1 (protonated)
CCN(CC)c1ccc(C(=O)/N=c2/[n-]cc(C)s2)cc1 (cis-trans isomerization)
CCN(CC)c1ccc(C(=O)/N=c2/[n-]cc(C)s2)cc1 (3D coordinates assigned)
CCN(CC)c1ccc(C(=O)/N=c2/[n-]cc(C)s2)cc1 (optimized conformer: 68.56719147526536 kcal/mol)

>  <smiles>  (18) 
CCN(CC)c1ccc(C(=O)N=c2[nH]cc(C)s2)cc1

>  <score_type>  (18) 
oracle

>  <origin>  (18) 
adg

>  <m_score__min__energy>  (18) 
-8.5

>  <m_primary>  (18) 
energy

$$$$
18:0
     RDKit          3D

 33 35  0  0  0  0  0  0  0  0999 V2000
   64.3730   33.4690   50.5150 C   0  0  0  0  0  0  0  0  0  0  0  0
   63.3990   34.3970   50.0480 O   0  0  0  0  0  0  0  0  0  0  0  0
   62.4570   34.1200   49.0460 C   0  0  0  0  0  0  0  0  0  0  0  0
   62.8310   33.7970   47.7280 C   0  0  0  0  0  0  0  0  0  0  0  0
   61.8540   33.5270   46.7650 C   0  0  0  0  0  0  0  0  0  0  0  0
   60.4890   33.5780   47.0970 C   0  0  0  0  0  0  0  0  0  0  0  0
   59.4800   33.3010   46.1040 N   0  0  0  0  0  0  0  0  0  0  0  0
   58.9240   32.0990   45.8400 C   0  0  0  0  0  0  0  0  0  0  0  0
   58.0020   32.2630   44.8220 C   0  0  0  0  0  0  0  0  0  0  0  0
   57.1590   31.2230   44.2160 C   0  0  0  0  0  0  0  0  0  0  0  0
   56.1320   30.7270   44.8130 N   0  0  0  0  0  0  0  0  0  0  0  0
   55.5050   29.7230   43.9600 C   0  0  0  0  0  0  0  0  0  0  0  0
   56.3610   29.6880   42.6860 C   0  0  0  0  0  0  0  0  0  0  0  0
   57.3930   30.6750   42.9330 N   0  0  0  0  0  0  0  0  0  0  0  0
   58.0420   33.6050   44.5000 C   0  0  0  0  0  0  0  0  0  0  0  0
   58.9460   34.2070   45.2950 N   0  0  0  0  0  0  0  0  0  0  0  0
   60.1220   33.9010   48.4140 C   0  0  0  0  0  0  0  0  0  0  0  0
   61.1000   34.1690   49.3770 C   0  0  0  0  0  0  0  0  0  0  0  0
   64.3776   33.4647   51.6150 H   0  0  0  0  0  0  0  0  0  0  0  0
   64.1274   32.4625   50.1454 H   0  0  0  0  0  0  0  0  0  0  0  0
   65.3664   33.7630   50.1454 H   0  0  0  0  0  0  0  0  0  0  0  0
   63.8957   33.7569   47.4547 H   0  0  0  0  0  0  0  0  0  0  0  0
   62.1562   33.2724   45.7384 H   0  0  0  0  0  0  0  0  0  0  0  0
   59.1631   31.1526   46.3471 H   0  0  0  0  0  0  0  0  0  0  0  0
   55.5081   28.7403   44.4542 H   0  0  0  0  0  0  0  0  0  0  0  0
   54.4541   29.9651   43.7434 H   0  0  0  0  0  0  0  0  0  0  0  0
   56.8007   28.6908   42.5371 H   0  0  0  0  0  0  0  0  0  0  0  0
   55.7787   29.9010   41.7774 H   0  0  0  0  0  0  0  0  0  0  0  0
   58.1650   30.9280   42.2790 H   0  0  0  0  0  0  0  0  0  0  0  0
   57.4374   34.0987   43.7249 H   0  0  0  0  0  0  0  0  0  0  0  0
   59.2060   35.2170   45.2610 H   0  0  0  0  0  0  0  0  0  0  0  0
   59.0580   33.9434   48.6897 H   0  0  0  0  0  0  0  0  0  0  0  0
   60.7985   34.4207   50.4045 H   0  0  0  0  0  0  0  0  0  0  0  0
  1  2  1  0
  2  3  1  0
  3  4  2  0
  4  5  1  0
  5  6  2  0
  6  7  1  0
  7  8  1  0
  8  9  2  0
  9 10  1  0
 10 11  2  0
 11 12  1  0
 12 13  1  0
 13 14  1  0
  9 15  1  0
 15 16  2  0
  6 17  1  0
 17 18  2  0
 18  3  1  0
 16  7  1  0
 14 10  1  0
  1 19  1  0
  1 20  1  0
  1 21  1  0
  4 22  1  0
  5 23  1  0
  8 24  1  0
 12 25  1  0
 12 26  1  0
 13 27  1  0
 13 28  1  0
 14 29  1  0
 15 30  1  0
 16 31  1  0
 17 32  1  0
 18 33  1  0
M  CHG  1  16   1
M  END
>  <UniqueID>  (19) 
18

>  <SMILES>  (19) 
COc1ccc(-n2cc(C3=NCCN3)c[nH+]2)cc1

>  <Energy>  (19) 
78.98352197233017

>  <Genealogy>  (19) 
COc1ccc(-n2cc(C3=NCCN3)c[nH+]2)cc1 (protonated)
COc1ccc(-n2cc(C3=NCCN3)c[nH+]2)cc1 (3D coordinates assigned)
COc1ccc(-n2cc(C3=NCCN3)c[nH+]2)cc1 (nonaromatic ring conformer: 78.98352197233017 kcal/mol)

>  <smiles>  (19) 
COc1ccc(-n2cc(C3=NCCN3)cn2)cc1

>  <score_type>  (19) 
oracle

>  <origin>  (19) 
adg

>  <m_score__min__energy>  (19) 
-4.8399999999999999

>  <m_primary>  (19) 
energy

$$$$
19:0
     RDKit          3D

 64 68  0  0  0  0  0  0  0  0999 V2000
   59.7277   35.2159   45.7932 H   0  0  0  0  0  0  0  0  0  0  0  0
   59.6400   34.4420   46.5700 C   0  0  0  0  0  0  0  0  0  0  0  0
   58.4240   33.9030   46.7530 C   0  0  0  0  0  0  0  0  0  0  0  0
   57.7840   34.3685   47.5170 H   0  0  0  0  0  0  0  0  0  0  0  0
   57.8630   32.7460   46.0280 C   0  0  0  0  0  0  0  0  0  0  0  0
   56.6540   32.7800   45.4210 N   0  0  0  0  0  0  0  0  0  0  0  0
   56.4500   31.6280   44.7870 N   0  0  0  0  0  0  0  0  0  0  0  0
   57.5400   30.8670   44.9800 C   0  0  0  0  0  0  0  0  0  0  0  0
   57.7800   29.5930   44.4730 C   0  0  0  0  0  0  0  0  0  0  0  0
   57.0391   29.0887   43.8352 H   0  0  0  0  0  0  0  0  0  0  0  0
   59.0120   28.9620   44.8040 C   0  0  0  0  0  0  0  0  0  0  0  0
   59.3600   27.6260   44.3620 N   0  0  0  0  0  0  0  0  0  0  0  0
   60.3850   27.4650   44.4810 H   0  0  0  0  0  0  0  0  0  0  0  0
   59.1890   27.5920   43.3300 H   0  0  0  0  0  0  0  0  0  0  0  0
   58.6450   26.5500   45.0240 C   0  0  0  0  0  0  0  0  0  0  0  0
   57.4220   26.1170   44.4710 C   0  0  0  0  0  0  0  0  0  0  0  0
   57.0317   26.6110   43.5690 H   0  0  0  0  0  0  0  0  0  0  0  0
   56.7000   25.0750   45.0470 C   0  0  0  0  0  0  0  0  0  0  0  0
   55.7483   24.7528   44.5993 H   0  0  0  0  0  0  0  0  0  0  0  0
   57.1810   24.4410   46.1880 C   0  0  0  0  0  0  0  0  0  0  0  0
   56.6126   23.6132   46.6371 H   0  0  0  0  0  0  0  0  0  0  0  0
   58.3820   24.8530   46.7630 C   0  0  0  0  0  0  0  0  0  0  0  0
   58.7494   24.3468   47.6678 H   0  0  0  0  0  0  0  0  0  0  0  0
   59.1350   25.9080   46.2050 C   0  0  0  0  0  0  0  0  0  0  0  0
   60.3670   26.3390   46.9250 C   0  0  0  0  0  0  0  0  0  0  0  0
   61.4900   26.3450   46.3550 O   0  0  0  0  0  0  0  0  0  0  0  0
   60.2790   26.7210   48.3040 N   0  0  0  0  0  0  0  0  0  0  0  0
   60.0050   28.0410   48.7910 C   0  0  0  0  0  0  0  0  0  0  0  0
   60.9420   28.7520   49.5600 C   0  0  0  0  0  0  0  0  0  0  0  0
   61.8872   28.2727   49.8547 H   0  0  0  0  0  0  0  0  0  0  0  0
   60.6750   30.0670   49.9510 C   0  0  0  0  0  0  0  0  0  0  0  0
   61.4138   30.6185   50.5510 H   0  0  0  0  0  0  0  0  0  0  0  0
   59.4710   30.6900   49.5840 C   0  0  0  0  0  0  0  0  0  0  0  0
   59.1830   32.1140   50.0120 C   0  0  0  0  0  0  0  0  0  0  0  0
   58.4110   32.5263   49.3457 H   0  0  0  0  0  0  0  0  0  0  0  0
   60.1334   32.6642   49.9493 H   0  0  0  0  0  0  0  0  0  0  0  0
   58.7070   32.2370   51.4090 N   0  0  0  0  0  0  0  0  0  0  0  0
   58.8560   33.6000   51.9430 C   0  0  0  0  0  0  0  0  0  0  0  0
   58.8522   33.5655   53.0425 H   0  0  0  0  0  0  0  0  0  0  0  0
   59.8064   34.0291   51.5929 H   0  0  0  0  0  0  0  0  0  0  0  0
   58.0208   34.2243   51.5929 H   0  0  0  0  0  0  0  0  0  0  0  0
   57.3290   31.7500   51.5820 C   0  0  0  0  0  0  0  0  0  0  0  0
   57.1006   31.6693   52.6550 H   0  0  0  0  0  0  0  0  0  0  0  0
   56.6289   32.4552   51.1102 H   0  0  0  0  0  0  0  0  0  0  0  0
   57.2275   30.7615   51.1102 H   0  0  0  0  0  0  0  0  0  0  0  0
   58.5390   29.9760   48.8150 C   0  0  0  0  0  0  0  0  0  0  0  0
   57.5880   30.4494   48.5294 H   0  0  0  0  0  0  0  0  0  0  0  0
   58.8130   28.6660   48.4100 C   0  0  0  0  0  0  0  0  0  0  0  0
   58.0863   28.1233   47.7876 H   0  0  0  0  0  0  0  0  0  0  0  0
   59.9740   29.6890   45.5560 C   0  0  0  0  0  0  0  0  0  0  0  0
   60.9441   29.2232   45.7839 H   0  0  0  0  0  0  0  0  0  0  0  0
   59.7110   30.9900   46.0140 C   0  0  0  0  0  0  0  0  0  0  0  0
   60.4688   31.5614   46.5701 H   0  0  0  0  0  0  0  0  0  0  0  0
   58.4580   31.5320   45.7400 C   0  0  0  0  0  0  0  0  0  0  0  0
   60.8710   34.0980   47.3090 C   0  0  0  0  0  0  0  0  0  0  0  0
   60.9090   34.3400   48.6490 N   0  0  0  0  0  0  0  0  0  0  0  0
   61.9980   34.0410   49.4070 C   0  0  0  0  0  0  0  0  0  0  0  0
   61.9945   34.2604   50.4849 H   0  0  0  0  0  0  0  0  0  0  0  0
   63.1200   33.4560   48.8180 C   0  0  0  0  0  0  0  0  0  0  0  0
   64.0091   33.2241   49.4227 H   0  0  0  0  0  0  0  0  0  0  0  0
   63.1000   33.1690   47.4530 C   0  0  0  0  0  0  0  0  0  0  0  0
   63.9739   32.7011   46.9763 H   0  0  0  0  0  0  0  0  0  0  0  0
   61.9700   33.4760   46.6920 C   0  0  0  0  0  0  0  0  0  0  0  0
   61.9403   33.2332   45.6195 H   0  0  0  0  0  0  0  0  0  0  0  0
  1  2  1  0
  2  3  2  0
  3  4  1  0
  3  5  1  0
  5  6  1  0
  6  7  1  0
  7  8  2  0
  8  9  1  0
  9 10  1  0
  9 11  2  0
 11 12  1  0
 12 13  1  0
 12 14  1  0
 12 15  1  0
 15 16  2  0
 16 17  1  0
 16 18  1  0
 18 19  1  0
 18 20  2  0
 20 21  1  0
 20 22  1  0
 22 23  1  0
 22 24  2  0
 24 25  1  0
 25 26  2  0
 25 27  1  0
 27 28  1  0
 28 29  2  0
 29 30  1  0
 29 31  1  0
 31 32  1  0
 31 33  2  0
 33 34  1  0
 34 35  1  0
 34 36  1  0
 34 37  1  0
 37 38  1  0
 38 39  1  0
 38 40  1  0
 38 41  1  0
 37 42  1  0
 42 43  1  0
 42 44  1  0
 42 45  1  0
 33 46  1  0
 46 47  1  0
 46 48  2  0
 48 49  1  0
 11 50  1  0
 50 51  1  0
 50 52  2  0
 52 53  1  0
 52 54  1  0
  2 55  1  0
 55 56  2  0
 56 57  1  0
 57 58  1  0
 57 59  2  0
 59 60  1  0
 59 61  1  0
 61 62  1  0
 61 63  2  0
 63 64  1  0
 54  5  2  0
 63 55  1  0
 54  8  1  0
 24 15  1  0
 48 28  1  0
M  CHG  3   6  -1  12   1  27  -1
M  END
>  <UniqueID>  (20) 
19

>  <SMILES>  (20) 
CN(C)Cc1ccc([N-]C(=O)c2ccccc2[NH2+]c2ccc3c(/C=C\c4ccccn4)[n-]nc3c2)cc1

>  <Energy>  (20) 
133.2780742929554

>  <Genealogy>  (20) 
CN(C)Cc1ccc([N-]C(=O)c2ccccc2[NH2+]c2ccc3c(C=Cc4ccccn4)[n-]nc3c2)cc1 (protonated)
CN(C)Cc1ccc([N-]C(=O)c2ccccc2[NH2+]c2ccc3c(/C=C\c4ccccn4)[n-]nc3c2)cc1 (cis-trans isomerization)
CN(C)Cc1ccc([N-]C(=O)c2ccccc2[NH2+]c2ccc3c(/C=C\c4ccccn4)[n-]nc3c2)cc1 (3D coordinates assigned)
CN(C)Cc1ccc([N-]C(=O)c2ccccc2[NH2+]c2ccc3c(/C=C\c4ccccn4)[n-]nc3c2)cc1 (optimized conformer: 133.2780742929554 kcal/mol)

>  <smiles>  (20) 
CN(C)Cc1ccc(NC(=O)c2ccccc2Nc2ccc3c(C=Cc4ccccn4)[nH]nc3c2)cc1

>  <score_type>  (20) 
oracle

>  <origin>  (20) 
adg

>  <m_score__min__energy>  (20) 
-11.279999999999999

>  <m_primary>  (20) 
energy

$$$$
20:0
     RDKit          3D

 55 58  0  0  0  0  0  0  0  0999 V2000
   67.3680   32.8010   50.8980 C   0  0  0  0  0  0  0  0  0  0  0  0
   66.3400   33.4540   50.1600 O   0  0  0  0  0  0  0  0  0  0  0  0
   65.1090   32.8690   49.8280 C   0  0  0  0  0  0  0  0  0  0  0  0
   64.4990   31.8870   50.6310 C   0  0  0  0  0  0  0  0  0  0  0  0
   63.2700   31.3350   50.2580 C   0  0  0  0  0  0  0  0  0  0  0  0
   62.6280   31.7560   49.0820 C   0  0  0  0  0  0  0  0  0  0  0  0
   61.3680   31.1780   48.6930 N   0  0  0  0  0  0  0  0  0  0  0  0
   60.7740   30.0860   49.4720 C   0  0  0  0  0  0  0  0  0  0  0  0
   60.4420   28.9210   48.5400 C   0  0  0  0  0  0  0  0  0  0  0  0
   59.6880   29.3740   47.3590 N   0  0  0  0  0  0  0  0  0  0  0  0
   59.0320   28.3970   46.5230 C   0  0  0  0  0  0  0  0  0  0  0  0
   58.9600   27.0510   46.9200 C   0  0  0  0  0  0  0  0  0  0  0  0
   58.3180   26.1060   46.1160 C   0  0  0  0  0  0  0  0  0  0  0  0
   57.7250   26.4890   44.9000 C   0  0  0  0  0  0  0  0  0  0  0  0
   57.0560   25.5370   44.0510 N   0  0  0  0  0  0  0  0  0  0  0  0
   56.6930   24.2130   44.4720 C   0  0  0  0  0  0  0  0  0  0  0  0
   57.5160   23.1430   44.0930 C   0  0  0  0  0  0  0  0  0  0  0  0
   57.2410   21.8470   44.5280 C   0  0  0  0  0  0  0  0  0  0  0  0
   56.1340   21.6040   45.3400 C   0  0  0  0  0  0  0  0  0  0  0  0
   55.2890   22.6530   45.7050 C   0  0  0  0  0  0  0  0  0  0  0  0
   55.5400   23.9660   45.2640 C   0  0  0  0  0  0  0  0  0  0  0  0
   54.5720   25.0370   45.6070 C   0  0  0  0  0  0  0  0  0  0  0  0
   55.0370   26.3250   46.0080 N   0  0  0  0  0  0  0  0  0  0  0  0
   53.3320   24.8170   45.5730 O   0  0  0  0  0  0  0  0  0  0  0  0
   57.8040   27.8290   44.4980 C   0  0  0  0  0  0  0  0  0  0  0  0
   58.4460   28.7750   45.3010 C   0  0  0  0  0  0  0  0  0  0  0  0
   59.4540   30.8110   47.1410 C   0  0  0  0  0  0  0  0  0  0  0  0
   60.7180   31.6260   47.4510 C   0  0  0  0  0  0  0  0  0  0  0  0
   63.2410   32.7320   48.2800 C   0  0  0  0  0  0  0  0  0  0  0  0
   64.4700   33.2840   48.6540 C   0  0  0  0  0  0  0  0  0  0  0  0
   67.1790   32.9210   51.9750 H   0  0  0  0  0  0  0  0  0  0  0  0
   67.3780   31.7306   50.6445 H   0  0  0  0  0  0  0  0  0  0  0  0
   68.3411   33.2469   50.6445 H   0  0  0  0  0  0  0  0  0  0  0  0
   64.9914   31.5525   51.5560 H   0  0  0  0  0  0  0  0  0  0  0  0
   62.8025   30.5655   50.8900 H   0  0  0  0  0  0  0  0  0  0  0  0
   61.4883   29.7510   50.2385 H   0  0  0  0  0  0  0  0  0  0  0  0
   59.8540   30.4404   49.9600 H   0  0  0  0  0  0  0  0  0  0  0  0
   61.3792   28.4509   48.2073 H   0  0  0  0  0  0  0  0  0  0  0  0
   59.8191   28.2027   49.0931 H   0  0  0  0  0  0  0  0  0  0  0  0
   59.4132   26.7386   47.8724 H   0  0  0  0  0  0  0  0  0  0  0  0
   58.2761   25.0546   46.4366 H   0  0  0  0  0  0  0  0  0  0  0  0
   56.9500   25.7640   43.0360 H   0  0  0  0  0  0  0  0  0  0  0  0
   58.3866   23.3276   43.4465 H   0  0  0  0  0  0  0  0  0  0  0  0
   57.8976   21.0162   44.2304 H   0  0  0  0  0  0  0  0  0  0  0  0
   55.9262   20.5833   45.6937 H   0  0  0  0  0  0  0  0  0  0  0  0
   54.4170   22.4515   46.3445 H   0  0  0  0  0  0  0  0  0  0  0  0
   55.1600   27.0920   45.3090 H   0  0  0  0  0  0  0  0  0  0  0  0
   57.3567   28.1388   43.5420 H   0  0  0  0  0  0  0  0  0  0  0  0
   58.4937   29.8245   44.9750 H   0  0  0  0  0  0  0  0  0  0  0  0
   59.1689   30.9741   46.0912 H   0  0  0  0  0  0  0  0  0  0  0  0
   58.6491   31.1417   47.8139 H   0  0  0  0  0  0  0  0  0  0  0  0
   61.4272   31.5134   46.6177 H   0  0  0  0  0  0  0  0  0  0  0  0
   60.4227   32.6777   47.5805 H   0  0  0  0  0  0  0  0  0  0  0  0
   62.7517   33.0641   47.3525 H   0  0  0  0  0  0  0  0  0  0  0  0
   64.9387   34.0511   48.0200 H   0  0  0  0  0  0  0  0  0  0  0  0
  1  2  1  0
  2  3  1  0
  3  4  2  0
  4  5  1  0
  5  6  2  0
  6  7  1  0
  7  8  1  0
  8  9  1  0
  9 10  1  0
 10 11  1  0
 11 12  2  0
 12 13  1  0
 13 14  2  0
 14 15  1  0
 15 16  1  0
 16 17  2  0
 17 18  1  0
 18 19  2  0
 19 20  1  0
 20 21  2  0
 21 22  1  0
 22 23  1  0
 22 24  2  0
 14 25  1  0
 25 26  2  0
 10 27  1  0
 27 28  1  0
  6 29  1  0
 29 30  2  0
 30  3  1  0
 28  7  1  0
 26 11  1  0
 21 16  1  0
  1 31  1  0
  1 32  1  0
  1 33  1  0
  4 34  1  0
  5 35  1  0
  8 36  1  0
  8 37  1  0
  9 38  1  0
  9 39  1  0
 12 40  1  0
 13 41  1  0
 15 42  1  0
 17 43  1  0
 18 44  1  0
 19 45  1  0
 20 46  1  0
 23 47  1  0
 25 48  1  0
 26 49  1  0
 27 50  1  0
 27 51  1  0
 28 52  1  0
 28 53  1  0
 29 54  1  0
 30 55  1  0
M  CHG  1  23  -1
M  END
>  <UniqueID>  (21) 
20

>  <SMILES>  (21) 
COc1ccc(N2CCN(c3ccc(Nc4ccccc4C([NH-])=O)cc3)CC2)cc1

>  <Energy>  (21) 
75.8008894373444

>  <Genealogy>  (21) 
COc1ccc(N2CCN(c3ccc(Nc4ccccc4C([NH-])=O)cc3)CC2)cc1 (protonated)
COc1ccc(N2CCN(c3ccc(Nc4ccccc4C([NH-])=O)cc3)CC2)cc1 (3D coordinates assigned)
COc1ccc(N2CCN(c3ccc(Nc4ccccc4C([NH-])=O)cc3)CC2)cc1 (nonaromatic ring conformer: 75.8008894373444 kcal/mol)

>  <smiles>  (21) 
COc1ccc(N2CCN(c3ccc(Nc4ccccc4C(N)=O)cc3)CC2)cc1

>  <score_type>  (21) 
oracle

>  <origin>  (21) 
adg

>  <m_score__min__energy>  (21) 
-10.83

>  <m_primary>  (21) 
energy

$$$$
21:0
     RDKit          3D

 46 48  0  0  0  0  0  0  0  0999 V2000
   58.8920   31.7090   49.3410 C   0  0  0  0  0  0  0  0  0  0  0  0
   59.7160   32.3580   48.2340 C   0  0  0  0  0  0  0  0  0  0  0  0
   59.5660   33.8310   48.2650 N   0  0  0  0  0  0  0  0  0  0  0  0
   60.7880   34.5740   48.6540 C   0  0  0  0  0  0  0  0  0  0  0  0
   62.0700   33.8520   48.3300 C   0  0  0  0  0  0  0  0  0  0  0  0
   62.6260   33.4660   46.8000 S   0  0  0  0  0  0  0  0  0  0  0  0
   64.0860   32.8360   47.2610 N   0  0  0  0  0  0  0  0  0  0  0  0
   64.2000   32.9320   48.5810 N   0  0  0  0  0  0  0  0  0  0  0  0
   63.1130   33.4900   49.1980 C   0  0  0  0  0  0  0  0  0  0  0  0
   63.1140   33.7580   50.6700 C   0  0  0  0  0  0  0  0  0  0  0  0
   58.7950   34.4480   47.1500 C   0  0  1  0  0  0  0  0  0  0  0  0
   59.6480   35.2140   46.1280 C   0  0  0  0  0  0  0  0  0  0  0  0
   59.4790   34.4670   44.8100 C   0  0  0  0  0  0  0  0  0  0  0  0
   58.8770   33.1640   45.1200 N   0  0  0  0  0  0  0  0  0  0  0  0
   58.0570   32.6360   44.0140 C   0  0  0  0  0  0  0  0  0  0  0  0
   57.4930   31.2900   44.3810 C   0  0  0  0  0  0  0  0  0  0  0  0
   58.1870   30.4540   45.2680 C   0  0  0  0  0  0  0  0  0  0  0  0
   57.6670   29.1940   45.5750 C   0  0  0  0  0  0  0  0  0  0  0  0
   56.5010   28.7800   45.0110 N   0  0  0  0  0  0  0  0  0  0  0  0
   55.8140   29.5660   44.1400 C   0  0  0  0  0  0  0  0  0  0  0  0
   56.2980   30.8340   43.8060 C   0  0  0  0  0  0  0  0  0  0  0  0
   58.0800   33.3740   46.3310 C   0  0  0  0  0  0  0  0  0  0  0  0
   59.2853   32.0188   50.3205 H   0  0  0  0  0  0  0  0  0  0  0  0
   57.8424   32.0256   49.2505 H   0  0  0  0  0  0  0  0  0  0  0  0
   58.9539   30.6145   49.2505 H   0  0  0  0  0  0  0  0  0  0  0  0
   60.7761   32.0999   48.3743 H   0  0  0  0  0  0  0  0  0  0  0  0
   59.3581   31.9864   47.2625 H   0  0  0  0  0  0  0  0  0  0  0  0
   60.7903   35.5384   48.1248 H   0  0  0  0  0  0  0  0  0  0  0  0
   60.7555   34.6924   49.7471 H   0  0  0  0  0  0  0  0  0  0  0  0
   64.8220   32.4440   46.6330 H   0  0  0  0  0  0  0  0  0  0  0  0
   63.1104   32.8034   51.2165 H   0  0  0  0  0  0  0  0  0  0  0  0
   64.0143   34.3305   50.9379 H   0  0  0  0  0  0  0  0  0  0  0  0
   62.2180   34.3372   50.9379 H   0  0  0  0  0  0  0  0  0  0  0  0
   58.1133   35.1445   47.6600 H   0  0  0  0  0  0  0  0  0  0  0  0
   59.2918   36.2501   46.0304 H   0  0  0  0  0  0  0  0  0  0  0  0
   60.7032   35.2639   46.4348 H   0  0  0  0  0  0  0  0  0  0  0  0
   58.8201   35.0354   44.1371 H   0  0  0  0  0  0  0  0  0  0  0  0
   60.4495   34.3379   44.3086 H   0  0  0  0  0  0  0  0  0  0  0  0
   57.2306   33.3327   43.8098 H   0  0  0  0  0  0  0  0  0  0  0  0
   58.6879   32.5287   43.1193 H   0  0  0  0  0  0  0  0  0  0  0  0
   59.1334   30.7878   45.7185 H   0  0  0  0  0  0  0  0  0  0  0  0
   58.2022   28.5353   46.2747 H   0  0  0  0  0  0  0  0  0  0  0  0
   54.8748   29.2031   43.6970 H   0  0  0  0  0  0  0  0  0  0  0  0
   55.7459   31.4692   43.0977 H   0  0  0  0  0  0  0  0  0  0  0  0
   57.0679   33.7125   46.0642 H   0  0  0  0  0  0  0  0  0  0  0  0
   57.9811   32.4408   46.9049 H   0  0  0  0  0  0  0  0  0  0  0  0
  1  2  1  0
  2  3  1  0
  3  4  1  0
  4  5  1  0
  5  6  1  0
  6  7  1  0
  7  8  2  0
  8  9  1  0
  9 10  1  0
  3 11  1  0
 11 12  1  0
 12 13  1  0
 13 14  1  0
 14 15  1  0
 15 16  1  0
 16 17  2  0
 17 18  1  0
 18 19  2  0
 19 20  1  0
 20 21  2  0
 14 22  1  0
  9  5  2  0
 22 11  1  0
 21 16  1  0
  1 23  1  0
  1 24  1  0
  1 25  1  0
  2 26  1  0
  2 27  1  0
  4 28  1  0
  4 29  1  0
  7 30  1  0
 10 31  1  0
 10 32  1  0
 10 33  1  0
 11 34  1  1
 12 35  1  0
 12 36  1  0
 13 37  1  0
 13 38  1  0
 15 39  1  0
 15 40  1  0
 17 41  1  0
 18 42  1  0
 20 43  1  0
 21 44  1  0
 22 45  1  0
 22 46  1  0
M  CHG  1   7   1
M  END
>  <UniqueID>  (22) 
21

>  <SMILES>  (22) 
CCN(Cc1s[nH+]nc1C)[C@H]1CCN(Cc2ccncc2)C1

>  <Energy>  (22) 
94.1791007923535

>  <Genealogy>  (22) 
CCN(Cc1s[nH+]nc1C)C1CCN(Cc2ccncc2)C1 (protonated)
CCN(Cc1s[nH+]nc1C)[C@H]1CCN(Cc2ccncc2)C1 (chirality)
CCN(Cc1s[nH+]nc1C)[C@H]1CCN(Cc2ccncc2)C1 (3D coordinates assigned)
CCN(Cc1s[nH+]nc1C)[C@H]1CCN(Cc2ccncc2)C1 (nonaromatic ring conformer: 94.1791007923535 kcal/mol)

>  <smiles>  (22) 
CCN(Cc1snnc1C)C1CCN(Cc2ccncc2)C1

>  <score_type>  (22) 
oracle

>  <origin>  (22) 
adg

>  <m_score__min__energy>  (22) 
-6.9699999999999998

>  <m_primary>  (22) 
energy

$$$$
22:0
     RDKit          3D

 42 44  0  0  0  0  0  0  0  0999 V2000
   56.7620   30.7700   43.4130 C   0  0  0  0  0  0  0  0  0  0  0  0
   56.7300   30.5340   44.8660 N   0  0  0  0  0  0  0  0  0  0  0  0
   56.8450   29.0870   45.1250 C   0  0  0  0  0  0  0  0  0  0  0  0
   57.8160   31.2950   45.5220 C   0  0  0  0  0  0  0  0  0  0  0  0
   57.6430   32.8180   45.3810 C   0  0  0  0  0  0  0  0  0  0  0  0
   57.9210   33.6180   46.6700 C   0  0  0  0  0  0  0  0  0  0  0  0
   59.2730   33.3510   47.2230 N   0  0  0  0  0  0  0  0  0  0  0  0
   60.3520   33.7110   46.4420 C   0  0  0  0  0  0  0  0  0  0  0  0
   60.1920   34.2360   45.3040 O   0  0  0  0  0  0  0  0  0  0  0  0
   61.6350   33.4960   46.9100 C   0  0  0  0  0  0  0  0  0  0  0  0
   62.7880   33.7780   46.2810 N   0  0  0  0  0  0  0  0  0  0  0  0
   63.7460   33.3810   47.1410 C   0  0  0  0  0  0  0  0  0  0  0  0
   63.2340   32.8620   48.2830 N   0  0  0  0  0  0  0  0  0  0  0  0
   64.0460   32.3460   49.3810 C   0  0  0  0  0  0  0  0  0  0  0  0
   61.8830   32.9400   48.1310 C   0  0  0  0  0  0  0  0  0  0  0  0
   60.8150   32.5550   48.9700 C   0  0  0  0  0  0  0  0  0  0  0  0
   61.0010   31.9760   50.2430 C   0  0  0  0  0  0  0  0  0  0  0  0
   59.9120   31.5880   51.0150 C   0  0  0  0  0  0  0  0  0  0  0  0
   58.6200   31.7600   50.5400 C   0  0  0  0  0  0  0  0  0  0  0  0
   58.4000   32.3360   49.2910 C   0  0  0  0  0  0  0  0  0  0  0  0
   59.4800   32.7650   48.4750 C   0  0  0  0  0  0  0  0  0  0  0  0
   56.9075   31.8429   43.2189 H   0  0  0  0  0  0  0  0  0  0  0  0
   57.5912   30.2010   42.9673 H   0  0  0  0  0  0  0  0  0  0  0  0
   55.8112   30.4424   42.9673 H   0  0  0  0  0  0  0  0  0  0  0  0
   56.8592   28.9088   46.2104 H   0  0  0  0  0  0  0  0  0  0  0  0
   55.9855   28.5652   44.6789 H   0  0  0  0  0  0  0  0  0  0  0  0
   57.7761   28.7075   44.6789 H   0  0  0  0  0  0  0  0  0  0  0  0
   57.8281   31.0397   46.5919 H   0  0  0  0  0  0  0  0  0  0  0  0
   58.7596   31.0206   45.0277 H   0  0  0  0  0  0  0  0  0  0  0  0
   58.3348   33.1712   44.6021 H   0  0  0  0  0  0  0  0  0  0  0  0
   56.5860   32.9897   45.1295 H   0  0  0  0  0  0  0  0  0  0  0  0
   57.8376   34.6913   46.4442 H   0  0  0  0  0  0  0  0  0  0  0  0
   57.1833   33.3054   47.4237 H   0  0  0  0  0  0  0  0  0  0  0  0
   62.9200   34.2050   45.3370 H   0  0  0  0  0  0  0  0  0  0  0  0
   64.8237   33.4685   46.9386 H   0  0  0  0  0  0  0  0  0  0  0  0
   63.5916   32.6348   50.3402 H   0  0  0  0  0  0  0  0  0  0  0  0
   64.0974   31.2492   49.3150 H   0  0  0  0  0  0  0  0  0  0  0  0
   65.0608   32.7653   49.3150 H   0  0  0  0  0  0  0  0  0  0  0  0
   62.0204   31.8298   50.6295 H   0  0  0  0  0  0  0  0  0  0  0  0
   60.0755   31.1424   52.0073 H   0  0  0  0  0  0  0  0  0  0  0  0
   57.7646   31.4398   51.1530 H   0  0  0  0  0  0  0  0  0  0  0  0
   57.3687   32.4611   48.9294 H   0  0  0  0  0  0  0  0  0  0  0  0
  1  2  1  0
  2  3  1  0
  2  4  1  0
  4  5  1  0
  5  6  1  0
  6  7  1  0
  7  8  1  0
  8  9  2  0
  8 10  1  0
 10 11  1  0
 11 12  2  0
 12 13  1  0
 13 14  1  0
 13 15  1  0
 15 16  1  0
 16 17  2  0
 17 18  1  0
 18 19  2  0
 19 20  1  0
 20 21  2  0
 21  7  1  0
 15 10  2  0
 21 16  1  0
  1 22  1  0
  1 23  1  0
  1 24  1  0
  3 25  1  0
  3 26  1  0
  3 27  1  0
  4 28  1  0
  4 29  1  0
  5 30  1  0
  5 31  1  0
  6 32  1  0
  6 33  1  0
 11 34  1  0
 12 35  1  0
 14 36  1  0
 14 37  1  0
 14 38  1  0
 17 39  1  0
 18 40  1  0
 19 41  1  0
 20 42  1  0
M  CHG  1  11   1
M  END
>  <UniqueID>  (23) 
22

>  <SMILES>  (23) 
CN(C)CCCn1c(=O)c2[nH+]cn(C)c2c2ccccc21

>  <Energy>  (23) 
95.94065077424003

>  <Genealogy>  (23) 
CN(C)CCCn1c(=O)c2[nH+]cn(C)c2c2ccccc21 (protonated)
CN(C)CCCn1c(=O)c2[nH+]cn(C)c2c2ccccc21 (3D coordinates assigned)
CN(C)CCCn1c(=O)c2[nH+]cn(C)c2c2ccccc21 (optimized conformer: 95.94065077424003 kcal/mol)

>  <smiles>  (23) 
CN(C)CCCn1c(=O)c2ncn(C)c2c2ccccc21

>  <score_type>  (23) 
oracle

>  <origin>  (23) 
adg

>  <m_score__min__energy>  (23) 
-5.5

>  <m_primary>  (23) 
energy

$$$$
23:0
     RDKit          3D

 54 55  0  0  0  0  0  0  0  0999 V2000
   58.0550   24.4420   45.2740 C   0  0  0  0  0  0  0  0  0  0  0  0
   57.7500   25.6780   44.4330 C   0  0  0  0  0  0  0  0  0  0  0  0
   57.1350   26.8160   45.2630 C   0  0  0  0  0  0  0  0  0  0  0  0
   57.7050   28.1260   44.9040 N   0  0  0  0  0  0  0  0  0  0  0  0
   58.9570   28.1730   44.1270 C   0  0  0  0  0  0  0  0  0  0  0  0
   60.1550   28.5860   44.9940 C   0  0  0  0  0  0  0  0  0  0  0  0
   60.3800   27.5880   46.1250 C   0  0  0  0  0  0  0  0  0  0  0  0
   56.8620   29.2990   44.9710 C   0  0  0  0  0  0  0  0  0  0  0  0
   55.6100   29.1730   44.8610 O   0  0  0  0  0  0  0  0  0  0  0  0
   57.4250   30.6550   45.1520 C   0  0  0  0  0  0  0  0  0  0  0  0
   58.1450   30.9840   46.3110 C   0  0  0  0  0  0  0  0  0  0  0  0
   58.7020   32.2570   46.4600 C   0  0  0  0  0  0  0  0  0  0  0  0
   58.5350   33.2250   45.4590 C   0  0  0  0  0  0  0  0  0  0  0  0
   59.1980   34.5750   45.5840 C   0  0  0  0  0  0  0  0  0  0  0  0
   59.5110   34.9010   46.9850 N   0  0  0  0  0  0  0  0  0  0  0  0
   60.7790   34.3400   47.3870 C   0  0  0  0  0  0  0  0  0  0  0  0
   61.6950   33.8790   46.4240 C   0  0  0  0  0  0  0  0  0  0  0  0
   62.9140   33.3180   46.8160 C   0  0  0  0  0  0  0  0  0  0  0  0
   63.2360   33.2050   48.1810 C   0  0  0  0  0  0  0  0  0  0  0  0
   64.4500   32.6580   48.6260 O   0  0  0  0  0  0  0  0  0  0  0  0
   64.9670   32.8100   49.9430 C   0  0  0  0  0  0  0  0  0  0  0  0
   62.3200   33.6540   49.1380 C   0  0  0  0  0  0  0  0  0  0  0  0
   61.1010   34.2130   48.7480 C   0  0  0  0  0  0  0  0  0  0  0  0
   57.7970   32.9050   44.3090 C   0  0  0  0  0  0  0  0  0  0  0  0
   57.2390   31.6320   44.1610 C   0  0  0  0  0  0  0  0  0  0  0  0
   57.9913   24.7000   46.3414 H   0  0  0  0  0  0  0  0  0  0  0  0
   57.3248   23.6523   45.0434 H   0  0  0  0  0  0  0  0  0  0  0  0
   59.0688   24.0826   45.0434 H   0  0  0  0  0  0  0  0  0  0  0  0
   58.6862   26.0371   43.9808 H   0  0  0  0  0  0  0  0  0  0  0  0
   57.0163   25.3885   43.6663 H   0  0  0  0  0  0  0  0  0  0  0  0
   56.0497   26.8395   45.0856 H   0  0  0  0  0  0  0  0  0  0  0  0
   57.3588   26.6251   46.3229 H   0  0  0  0  0  0  0  0  0  0  0  0
   59.1508   27.1760   43.7047 H   0  0  0  0  0  0  0  0  0  0  0  0
   58.8366   28.9242   43.3326 H   0  0  0  0  0  0  0  0  0  0  0  0
   61.0569   28.6270   44.3656 H   0  0  0  0  0  0  0  0  0  0  0  0
   59.9466   29.5728   45.4332 H   0  0  0  0  0  0  0  0  0  0  0  0
   60.2649   28.0983   47.0926 H   0  0  0  0  0  0  0  0  0  0  0  0
   59.6425   26.7754   46.0491 H   0  0  0  0  0  0  0  0  0  0  0  0
   61.3948   27.1704   46.0491 H   0  0  0  0  0  0  0  0  0  0  0  0
   58.2716   30.2353   47.1069 H   0  0  0  0  0  0  0  0  0  0  0  0
   59.2744   32.5010   47.3671 H   0  0  0  0  0  0  0  0  0  0  0  0
   60.1317   34.5687   45.0024 H   0  0  0  0  0  0  0  0  0  0  0  0
   58.5008   35.3357   45.2028 H   0  0  0  0  0  0  0  0  0  0  0  0
   59.5080   35.9390   47.1220 H   0  0  0  0  0  0  0  0  0  0  0  0
   58.7560   34.5100   47.5960 H   0  0  0  0  0  0  0  0  0  0  0  0
   61.4503   33.9605   45.3547 H   0  0  0  0  0  0  0  0  0  0  0  0
   63.6241   32.9636   46.0544 H   0  0  0  0  0  0  0  0  0  0  0  0
   64.1793   32.5784   50.6751 H   0  0  0  0  0  0  0  0  0  0  0  0
   65.8140   32.1229   50.0860 H   0  0  0  0  0  0  0  0  0  0  0  0
   65.3073   33.8462   50.0860 H   0  0  0  0  0  0  0  0  0  0  0  0
   62.5619   33.5660   50.2075 H   0  0  0  0  0  0  0  0  0  0  0  0
   60.3881   34.5562   49.5122 H   0  0  0  0  0  0  0  0  0  0  0  0
   57.6571   33.6593   43.5206 H   0  0  0  0  0  0  0  0  0  0  0  0
   56.6505   31.3942   43.2626 H   0  0  0  0  0  0  0  0  0  0  0  0
  1  2  1  0
  2  3  1  0
  3  4  1  0
  4  5  1  0
  5  6  1  0
  6  7  1  0
  4  8  1  0
  8  9  2  0
  8 10  1  0
 10 11  2  0
 11 12  1  0
 12 13  2  0
 13 14  1  0
 14 15  1  0
 15 16  1  0
 16 17  2  0
 17 18  1  0
 18 19  2  0
 19 20  1  0
 20 21  1  0
 19 22  1  0
 22 23  2  0
 13 24  1  0
 24 25  2  0
 25 10  1  0
 23 16  1  0
  1 26  1  0
  1 27  1  0
  1 28  1  0
  2 29  1  0
  2 30  1  0
  3 31  1  0
  3 32  1  0
  5 33  1  0
  5 34  1  0
  6 35  1  0
  6 36  1  0
  7 37  1  0
  7 38  1  0
  7 39  1  0
 11 40  1  0
 12 41  1  0
 14 42  1  0
 14 43  1  0
 15 44  1  0
 15 45  1  0
 17 46  1  0
 18 47  1  0
 21 48  1  0
 21 49  1  0
 21 50  1  0
 22 51  1  0
 23 52  1  0
 24 53  1  0
 25 54  1  0
M  CHG  1  15   1
M  END
>  <UniqueID>  (24) 
23

>  <SMILES>  (24) 
CCCN(CCC)C(=O)c1ccc(C[NH2+]c2ccc(OC)cc2)cc1

>  <Energy>  (24) 
45.94715839242506

>  <Genealogy>  (24) 
CCCN(CCC)C(=O)c1ccc(C[NH2+]c2ccc(OC)cc2)cc1 (protonated)
CCCN(CCC)C(=O)c1ccc(C[NH2+]c2ccc(OC)cc2)cc1 (3D coordinates assigned)
CCCN(CCC)C(=O)c1ccc(C[NH2+]c2ccc(OC)cc2)cc1 (optimized conformer: 45.94715839242506 kcal/mol)

>  <smiles>  (24) 
CCCN(CCC)C(=O)c1ccc(CNc2ccc(OC)cc2)cc1

>  <score_type>  (24) 
oracle

>  <origin>  (24) 
adg

>  <m_score__min__energy>  (24) 
-6.1500000000000004

>  <m_primary>  (24) 
energy

$$$$
24:0
     RDKit          3D

 42 44  0  0  0  0  0  0  0  0999 V2000
   55.4420   24.1420   44.5550 C   0  0  0  0  0  0  0  0  0  0  0  0
   54.5260   24.8300   45.5610 C   0  0  0  0  0  0  0  0  0  0  0  0
   54.9420   26.1780   45.7860 O   0  0  0  0  0  0  0  0  0  0  0  0
   56.2560   26.5980   46.0540 C   0  0  0  0  0  0  0  0  0  0  0  0
   57.1800   25.7900   46.7450 C   0  0  0  0  0  0  0  0  0  0  0  0
   58.4770   26.2460   46.9860 C   0  0  0  0  0  0  0  0  0  0  0  0
   58.8680   27.5240   46.5650 C   0  0  0  0  0  0  0  0  0  0  0  0
   60.2790   27.9960   46.7770 C   0  0  0  0  0  0  0  0  0  0  0  0
   60.2820   29.4570   47.0960 C   0  0  0  0  0  0  0  0  0  0  0  0
   60.8600   29.9860   48.1930 N   0  0  0  0  0  0  0  0  0  0  0  0
   60.7180   31.2740   48.0610 O   0  0  0  0  0  0  0  0  0  0  0  0
   60.0950   31.5410   46.9380 C   0  0  0  0  0  0  0  0  0  0  0  0
   59.7840   32.8970   46.4670 C   0  0  0  0  0  0  0  0  0  0  0  0
   58.8300   33.2420   45.5160 C   0  0  0  0  0  0  0  0  0  0  0  0
   58.7690   34.6190   45.2740 C   0  0  0  0  0  0  0  0  0  0  0  0
   59.6710   35.3600   46.0280 C   0  0  0  0  0  0  0  0  0  0  0  0
   60.5450   34.2990   46.9980 S   0  0  0  0  0  0  0  0  0  0  0  0
   59.7950   30.4080   46.2790 N   0  0  0  0  0  0  0  0  0  0  0  0
   57.9510   28.3320   45.8780 C   0  0  0  0  0  0  0  0  0  0  0  0
   56.6460   27.8730   45.6120 C   0  0  0  0  0  0  0  0  0  0  0  0
   55.7040   28.6470   44.9130 O   0  0  0  0  0  0  0  0  0  0  0  0
   55.9850   29.4910   43.7950 C   0  0  0  0  0  0  0  0  0  0  0  0
   56.6430   30.7910   44.2480 C   0  0  0  0  0  0  0  0  0  0  0  0
   56.2095   23.5656   45.0923 H   0  0  0  0  0  0  0  0  0  0  0  0
   54.8493   23.4639   43.9234 H   0  0  0  0  0  0  0  0  0  0  0  0
   55.9281   24.9002   43.9234 H   0  0  0  0  0  0  0  0  0  0  0  0
   53.4975   24.8302   45.1710 H   0  0  0  0  0  0  0  0  0  0  0  0
   54.5738   24.2823   46.5138 H   0  0  0  0  0  0  0  0  0  0  0  0
   56.8773   24.7928   47.0971 H   0  0  0  0  0  0  0  0  0  0  0  0
   59.1961   25.5986   47.5093 H   0  0  0  0  0  0  0  0  0  0  0  0
   60.7288   27.4390   47.6121 H   0  0  0  0  0  0  0  0  0  0  0  0
   60.8613   27.8233   45.8599 H   0  0  0  0  0  0  0  0  0  0  0  0
   58.1889   32.5078   45.0061 H   0  0  0  0  0  0  0  0  0  0  0  0
   58.0720   35.0726   44.5540 H   0  0  0  0  0  0  0  0  0  0  0  0
   59.7927   36.4528   45.9961 H   0  0  0  0  0  0  0  0  0  0  0  0
   59.3220   30.2890   45.3560 H   0  0  0  0  0  0  0  0  0  0  0  0
   58.2538   29.3351   45.5431 H   0  0  0  0  0  0  0  0  0  0  0  0
   56.6630   28.9644   43.1073 H   0  0  0  0  0  0  0  0  0  0  0  0
   55.0383   29.7329   43.2897 H   0  0  0  0  0  0  0  0  0  0  0  0
   56.6621   30.8287   45.3472 H   0  0  0  0  0  0  0  0  0  0  0  0
   57.6720   30.8352   43.8617 H   0  0  0  0  0  0  0  0  0  0  0  0
   56.0693   31.6464   43.8617 H   0  0  0  0  0  0  0  0  0  0  0  0
  1  2  1  0
  2  3  1  0
  3  4  1  0
  4  5  2  0
  5  6  1  0
  6  7  2  0
  7  8  1  0
  8  9  1  0
  9 10  2  0
 10 11  1  0
 11 12  1  0
 12 13  1  0
 13 14  2  0
 14 15  1  0
 15 16  2  0
 16 17  1  0
 12 18  2  0
  7 19  1  0
 19 20  2  0
 20 21  1  0
 21 22  1  0
 22 23  1  0
 20  4  1  0
 18  9  1  0
 17 13  1  0
  1 24  1  0
  1 25  1  0
  1 26  1  0
  2 27  1  0
  2 28  1  0
  5 29  1  0
  6 30  1  0
  8 31  1  0
  8 32  1  0
 14 33  1  0
 15 34  1  0
 16 35  1  0
 18 36  1  0
 19 37  1  0
 22 38  1  0
 22 39  1  0
 23 40  1  0
 23 41  1  0
 23 42  1  0
M  CHG  1  18   1
M  END
>  <UniqueID>  (25) 
24

>  <SMILES>  (25) 
CCOc1ccc(Cc2noc(-c3cccs3)[nH+]2)cc1OCC

>  <Energy>  (25) 
97.32160077942328

>  <Genealogy>  (25) 
CCOc1ccc(Cc2noc(-c3cccs3)[nH+]2)cc1OCC (protonated)
CCOc1ccc(Cc2noc(-c3cccs3)[nH+]2)cc1OCC (3D coordinates assigned)
CCOc1ccc(Cc2noc(-c3cccs3)[nH+]2)cc1OCC (optimized conformer: 97.32160077942328 kcal/mol)

>  <smiles>  (25) 
CCOc1ccc(Cc2noc(-c3cccs3)n2)cc1OCC

>  <score_type>  (25) 
oracle

>  <origin>  (25) 
adg

>  <m_score__min__energy>  (25) 
-6.3899999999999997

>  <m_primary>  (25) 
energy

$$$$
25:0
     RDKit          3D

 49 50  0  0  0  0  0  0  0  0999 V2000
   57.1780   25.2300   45.0960 C   0  0  0  0  0  0  0  0  0  0  0  0
   56.7810   26.2380   46.1730 C   0  0  0  0  0  0  0  0  0  0  0  0
   57.2170   27.6160   45.8380 N   0  0  0  0  0  0  0  0  0  0  0  0
   58.1810   28.0890   46.8620 C   0  0  0  0  0  0  0  0  0  0  0  0
   59.5610   27.4680   46.6560 C   0  0  0  0  0  0  0  0  0  0  0  0
   57.8030   27.6950   44.4710 C   0  0  0  0  0  0  0  0  0  0  0  0
   58.0630   29.1520   44.0610 C   0  0  0  0  0  0  0  0  0  0  0  0
   56.7710   29.9090   43.7400 C   0  0  0  0  0  0  0  0  0  0  0  0
   56.4890   30.8730   44.7550 O   0  0  0  0  0  0  0  0  0  0  0  0
   57.3930   31.8270   45.2510 C   0  0  0  0  0  0  0  0  0  0  0  0
   57.4710   33.0620   44.5970 C   0  0  0  0  0  0  0  0  0  0  0  0
   58.3520   34.0500   45.0450 C   0  0  0  0  0  0  0  0  0  0  0  0
   59.1640   33.8190   46.1660 C   0  0  0  0  0  0  0  0  0  0  0  0
   60.1420   34.8650   46.6240 C   0  0  0  0  0  0  0  0  0  0  0  0
   61.3690   34.2130   47.2010 C   0  0  0  0  0  0  0  0  0  0  0  0
   62.4340   33.8380   46.3640 C   0  0  0  0  0  0  0  0  0  0  0  0
   63.5890   33.2660   46.9060 C   0  0  0  0  0  0  0  0  0  0  0  0
   63.6930   33.0730   48.2860 C   0  0  0  0  0  0  0  0  0  0  0  0
   62.6440   33.4530   49.1270 C   0  0  0  0  0  0  0  0  0  0  0  0
   61.4870   34.0270   48.5890 C   0  0  0  0  0  0  0  0  0  0  0  0
   59.0940   32.5800   46.8210 C   0  0  0  0  0  0  0  0  0  0  0  0
   58.2120   31.5920   46.3720 C   0  0  0  0  0  0  0  0  0  0  0  0
   57.5412   24.3077   45.5730 H   0  0  0  0  0  0  0  0  0  0  0  0
   56.3037   24.9991   44.4697 H   0  0  0  0  0  0  0  0  0  0  0  0
   57.9750   25.6573   44.4697 H   0  0  0  0  0  0  0  0  0  0  0  0
   55.6863   26.2290   46.2806 H   0  0  0  0  0  0  0  0  0  0  0  0
   57.2774   25.9448   47.1098 H   0  0  0  0  0  0  0  0  0  0  0  0
   58.2672   29.1835   46.7941 H   0  0  0  0  0  0  0  0  0  0  0  0
   57.8098   27.7878   47.8527 H   0  0  0  0  0  0  0  0  0  0  0  0
   60.0199   27.2615   47.6342 H   0  0  0  0  0  0  0  0  0  0  0  0
   59.4600   26.5286   46.0927 H   0  0  0  0  0  0  0  0  0  0  0  0
   60.1971   28.1666   46.0927 H   0  0  0  0  0  0  0  0  0  0  0  0
   58.7543   27.1429   44.4561 H   0  0  0  0  0  0  0  0  0  0  0  0
   57.0881   27.2555   43.7599 H   0  0  0  0  0  0  0  0  0  0  0  0
   58.5767   29.6650   44.8874 H   0  0  0  0  0  0  0  0  0  0  0  0
   58.6785   29.1385   43.1494 H   0  0  0  0  0  0  0  0  0  0  0  0
   56.8835   30.4232   42.7741 H   0  0  0  0  0  0  0  0  0  0  0  0
   55.9403   29.1895   43.6930 H   0  0  0  0  0  0  0  0  0  0  0  0
   56.8330   33.2567   43.7223 H   0  0  0  0  0  0  0  0  0  0  0  0
   58.4092   35.0131   44.5166 H   0  0  0  0  0  0  0  0  0  0  0  0
   60.4321   35.4909   45.7672 H   0  0  0  0  0  0  0  0  0  0  0  0
   59.6674   35.4850   47.3988 H   0  0  0  0  0  0  0  0  0  0  0  0
   62.3585   33.9952   45.2779 H   0  0  0  0  0  0  0  0  0  0  0  0
   64.4165   32.9677   46.2455 H   0  0  0  0  0  0  0  0  0  0  0  0
   64.6017   32.6214   48.7107 H   0  0  0  0  0  0  0  0  0  0  0  0
   62.7278   33.3007   50.2132 H   0  0  0  0  0  0  0  0  0  0  0  0
   60.6668   34.3338   49.2548 H   0  0  0  0  0  0  0  0  0  0  0  0
   59.7364   32.3848   47.6924 H   0  0  0  0  0  0  0  0  0  0  0  0
   58.1578   30.6269   46.8970 H   0  0  0  0  0  0  0  0  0  0  0  0
  1  2  1  0
  2  3  1  0
  3  4  1  0
  4  5  1  0
  3  6  1  0
  6  7  1  0
  7  8  1  0
  8  9  1  0
  9 10  1  0
 10 11  2  0
 11 12  1  0
 12 13  2  0
 13 14  1  0
 14 15  1  0
 15 16  2  0
 16 17  1  0
 17 18  2  0
 18 19  1  0
 19 20  2  0
 13 21  1  0
 21 22  2  0
 22 10  1  0
 20 15  1  0
  1 23  1  0
  1 24  1  0
  1 25  1  0
  2 26  1  0
  2 27  1  0
  4 28  1  0
  4 29  1  0
  5 30  1  0
  5 31  1  0
  5 32  1  0
  6 33  1  0
  6 34  1  0
  7 35  1  0
  7 36  1  0
  8 37  1  0
  8 38  1  0
 11 39  1  0
 12 40  1  0
 14 41  1  0
 14 42  1  0
 16 43  1  0
 17 44  1  0
 18 45  1  0
 19 46  1  0
 20 47  1  0
 21 48  1  0
 22 49  1  0
M  END
>  <UniqueID>  (26) 
25

>  <SMILES>  (26) 
CCN(CC)CCCOc1ccc(Cc2ccccc2)cc1

>  <Energy>  (26) 
44.334519464278856

>  <Genealogy>  (26) 
CCN(CC)CCCOc1ccc(Cc2ccccc2)cc1 (3D coordinates assigned)
CCN(CC)CCCOc1ccc(Cc2ccccc2)cc1 (optimized conformer: 44.334519464278856 kcal/mol)

>  <smiles>  (26) 
CCN(CC)CCCOc1ccc(Cc2ccccc2)cc1

>  <score_type>  (26) 
oracle

>  <origin>  (26) 
adg

>  <m_score__min__energy>  (26) 
-7.0599999999999996

>  <m_primary>  (26) 
energy

$$$$
26:0
     RDKit          3D

 29 31  0  0  0  0  0  0  0  0999 V2000
   64.3030   33.8500   50.5490 C   0  0  0  0  0  0  0  0  0  0  0  0
   63.2210   33.7910   49.5120 C   0  0  0  0  0  0  0  0  0  0  0  0
   63.5340   33.4880   48.1800 C   0  0  0  0  0  0  0  0  0  0  0  0
   62.5320   33.4690   47.2060 C   0  0  0  0  0  0  0  0  0  0  0  0
   61.2000   33.7680   47.5440 C   0  0  0  0  0  0  0  0  0  0  0  0
   60.1670   33.7480   46.5390 N   0  0  0  0  0  0  0  0  0  0  0  0
   59.4890   34.8010   46.0390 C   0  0  0  0  0  0  0  0  0  0  0  0
   58.5900   34.4160   45.1080 N   0  0  0  0  0  0  0  0  0  0  0  0
   58.7580   33.0760   45.0740 C   0  0  0  0  0  0  0  0  0  0  0  0
   57.9870   32.1770   44.2030 C   0  0  0  0  0  0  0  0  0  0  0  0
   57.8050   32.3320   42.8340 C   0  0  0  0  0  0  0  0  0  0  0  0
   57.0210   31.3200   42.2660 C   0  0  0  0  0  0  0  0  0  0  0  0
   56.5870   30.3700   43.1810 C   0  0  0  0  0  0  0  0  0  0  0  0
   57.1770   30.7890   44.6990 S   0  0  0  0  0  0  0  0  0  0  0  0
   59.7090   32.6660   45.9330 N   0  0  0  0  0  0  0  0  0  0  0  0
   60.8950   34.0900   48.8790 C   0  0  0  0  0  0  0  0  0  0  0  0
   61.8980   34.1070   49.8530 C   0  0  0  0  0  0  0  0  0  0  0  0
   63.8515   33.8254   51.5518 H   0  0  0  0  0  0  0  0  0  0  0  0
   64.9744   32.9871   50.4279 H   0  0  0  0  0  0  0  0  0  0  0  0
   64.8766   34.7808   50.4279 H   0  0  0  0  0  0  0  0  0  0  0  0
   64.5738   33.2639   47.8997 H   0  0  0  0  0  0  0  0  0  0  0  0
   62.7874   33.2180   46.1659 H   0  0  0  0  0  0  0  0  0  0  0  0
   59.6485   35.8438   46.3508 H   0  0  0  0  0  0  0  0  0  0  0  0
   58.2329   33.1642   42.2558 H   0  0  0  0  0  0  0  0  0  0  0  0
   56.7723   31.2813   41.1952 H   0  0  0  0  0  0  0  0  0  0  0  0
   55.9637   29.4931   42.9520 H   0  0  0  0  0  0  0  0  0  0  0  0
   60.0130   31.6840   46.1160 H   0  0  0  0  0  0  0  0  0  0  0  0
   59.8588   34.3304   49.1590 H   0  0  0  0  0  0  0  0  0  0  0  0
   61.6481   34.3695   50.8916 H   0  0  0  0  0  0  0  0  0  0  0  0
  1  2  1  0
  2  3  2  0
  3  4  1  0
  4  5  2  0
  5  6  1  0
  6  7  1  0
  7  8  2  0
  8  9  1  0
  9 10  1  0
 10 11  2  0
 11 12  1  0
 12 13  2  0
 13 14  1  0
  9 15  2  0
  5 16  1  0
 16 17  2  0
 17  2  1  0
 15  6  1  0
 14 10  1  0
  1 18  1  0
  1 19  1  0
  1 20  1  0
  3 21  1  0
  4 22  1  0
  7 23  1  0
 11 24  1  0
 12 25  1  0
 13 26  1  0
 15 27  1  0
 16 28  1  0
 17 29  1  0
M  CHG  1  15   1
M  END
>  <UniqueID>  (27) 
26

>  <SMILES>  (27) 
Cc1ccc(-n2cnc(-c3cccs3)[nH+]2)cc1

>  <Energy>  (27) 
93.14743288136505

>  <Genealogy>  (27) 
Cc1ccc(-n2cnc(-c3cccs3)[nH+]2)cc1 (protonated)
Cc1ccc(-n2cnc(-c3cccs3)[nH+]2)cc1 (3D coordinates assigned)
Cc1ccc(-n2cnc(-c3cccs3)[nH+]2)cc1 (optimized conformer: 93.14743288136505 kcal/mol)

>  <smiles>  (27) 
Cc1ccc(-n2cnc(-c3cccs3)n2)cc1

>  <score_type>  (27) 
oracle

>  <origin>  (27) 
adg

>  <m_score__min__energy>  (27) 
-5.1200000000000001

>  <m_primary>  (27) 
energy

$$$$
27:0
     RDKit          3D

 40 42  0  0  0  0  0  0  0  0999 V2000
   55.9770   29.7690   43.1170 C   0  0  0  0  0  0  0  0  0  0  0  0
   56.1140   30.0990   44.4950 O   0  0  0  0  0  0  0  0  0  0  0  0
   57.3300   30.4180   45.1190 C   0  0  0  0  0  0  0  0  0  0  0  0
   57.7240   31.7510   45.3520 C   0  0  0  0  0  0  0  0  0  0  0  0
   58.9470   32.0310   45.9760 C   0  0  0  0  0  0  0  0  0  0  0  0
   59.4110   33.6990   46.2870 S   0  0  0  0  0  0  0  0  0  0  0  0
   60.0360   34.3020   45.0600 O   0  0  0  0  0  0  0  0  0  0  0  0
   58.1930   34.5080   46.6370 O   0  0  0  0  0  0  0  0  0  0  0  0
   60.5610   33.7340   47.6190 C   0  0  0  0  0  0  0  0  0  0  0  0
   60.1440   34.1190   48.8970 C   0  0  0  0  0  0  0  0  0  0  0  0
   61.0490   34.1290   49.9620 C   0  0  0  0  0  0  0  0  0  0  0  0
   62.3890   33.7440   49.7610 C   0  0  0  0  0  0  0  0  0  0  0  0
   62.7970   33.3310   48.4760 C   0  0  0  0  0  0  0  0  0  0  0  0
   61.8860   33.3340   47.4110 C   0  0  0  0  0  0  0  0  0  0  0  0
   64.1510   32.9050   48.2690 N   0  0  0  0  0  0  0  0  0  0  0  0
   65.0360   32.6630   49.4050 C   0  0  0  0  0  0  0  0  0  0  0  0
   64.7910   33.7140   50.4890 C   0  0  0  0  0  0  0  0  0  0  0  0
   63.3620   33.7620   50.8330 N   0  0  0  0  0  0  0  0  0  0  0  0
   62.9450   33.8060   52.2380 C   0  0  0  0  0  0  0  0  0  0  0  0
   59.7750   30.9780   46.3840 C   0  0  0  0  0  0  0  0  0  0  0  0
   59.3920   29.6560   46.1550 C   0  0  0  0  0  0  0  0  0  0  0  0
   58.1770   29.3740   45.5240 C   0  0  0  0  0  0  0  0  0  0  0  0
   57.6830   27.5490   45.2280 Br  0  0  0  0  0  0  0  0  0  0  0  0
   55.5568   28.7568   43.0224 H   0  0  0  0  0  0  0  0  0  0  0  0
   55.3047   30.4919   42.6319 H   0  0  0  0  0  0  0  0  0  0  0  0
   56.9637   29.8032   42.6319 H   0  0  0  0  0  0  0  0  0  0  0  0
   57.0671   32.5770   45.0420 H   0  0  0  0  0  0  0  0  0  0  0  0
   59.0981   34.4156   49.0650 H   0  0  0  0  0  0  0  0  0  0  0  0
   60.7131   34.4392   50.9625 H   0  0  0  0  0  0  0  0  0  0  0  0
   62.2133   33.0210   46.4086 H   0  0  0  0  0  0  0  0  0  0  0  0
   64.4990   32.7100   47.3030 H   0  0  0  0  0  0  0  0  0  0  0  0
   64.8369   31.6622   49.8157 H   0  0  0  0  0  0  0  0  0  0  0  0
   66.0816   32.7259   49.0693 H   0  0  0  0  0  0  0  0  0  0  0  0
   65.3725   33.4540   51.3858 H   0  0  0  0  0  0  0  0  0  0  0  0
   65.1038   34.6991   50.1125 H   0  0  0  0  0  0  0  0  0  0  0  0
   63.8290   33.7127   52.8859 H   0  0  0  0  0  0  0  0  0  0  0  0
   62.4408   34.7623   52.4411 H   0  0  0  0  0  0  0  0  0  0  0  0
   62.2523   32.9760   52.4411 H   0  0  0  0  0  0  0  0  0  0  0  0
   60.7296   31.1936   46.8862 H   0  0  0  0  0  0  0  0  0  0  0  0
   60.0487   28.8325   46.4722 H   0  0  0  0  0  0  0  0  0  0  0  0
  1  2  1  0
  2  3  1  0
  3  4  2  0
  4  5  1  0
  5  6  1  0
  6  7  2  0
  6  8  2  0
  6  9  1  0
  9 10  2  0
 10 11  1  0
 11 12  2  0
 12 13  1  0
 13 14  2  0
 13 15  1  0
 15 16  1  0
 16 17  1  0
 17 18  1  0
 18 19  1  0
  5 20  2  0
 20 21  1  0
 21 22  2  0
 22 23  1  0
 22  3  1  0
 14  9  1  0
 18 12  1  0
  1 24  1  0
  1 25  1  0
  1 26  1  0
  4 27  1  0
 10 28  1  0
 11 29  1  0
 14 30  1  0
 15 31  1  0
 16 32  1  0
 16 33  1  0
 17 34  1  0
 17 35  1  0
 19 36  1  0
 19 37  1  0
 19 38  1  0
 20 39  1  0
 21 40  1  0
M  END
>  <UniqueID>  (28) 
27

>  <SMILES>  (28) 
COc1cc(S(=O)(=O)c2ccc3c(c2)NCCN3C)ccc1Br

>  <Energy>  (28) 
42.8052182868422

>  <Genealogy>  (28) 
COc1cc(S(=O)(=O)c2ccc3c(c2)NCCN3C)ccc1Br (3D coordinates assigned)
COc1cc(S(=O)(=O)c2ccc3c(c2)NCCN3C)ccc1Br (nonaromatic ring conformer: 42.8052182868422 kcal/mol)

>  <smiles>  (28) 
COc1cc(S(=O)(=O)c2ccc3c(c2)NCCN3C)ccc1Br

>  <score_type>  (28) 
oracle

>  <origin>  (28) 
adg

>  <m_score__min__energy>  (28) 
-8.0899999999999999

>  <m_primary>  (28) 
energy

$$$$
28:0
     RDKit          3D

 47 49  0  0  0  0  0  0  0  0999 V2000
   60.4050   26.7320   48.9080 C   0  0  0  0  0  0  0  0  0  0  0  0
   60.4170   28.1930   48.4390 C   0  0  0  0  0  0  0  0  0  0  0  0
   59.3360   28.9950   49.1750 C   0  0  0  0  0  0  0  0  0  0  0  0
   60.2090   28.2950   46.9130 C   0  0  0  0  0  0  0  0  0  0  0  0
   59.7640   29.6360   46.5180 N   0  0  0  0  0  0  0  0  0  0  0  0
   60.4890   30.7620   46.7170 C   0  0  0  0  0  0  0  0  0  0  0  0
   59.7480   31.8490   46.2990 C   0  0  0  0  0  0  0  0  0  0  0  0
   58.5500   31.3900   45.8420 C   0  0  0  0  0  0  0  0  0  0  0  0
   58.5640   30.0050   45.9860 C   0  0  0  0  0  0  0  0  0  0  0  0
   57.4500   29.0820   45.6820 C   0  0  0  0  0  0  0  0  0  0  0  0
   56.5250   29.4510   44.9100 O   0  0  0  0  0  0  0  0  0  0  0  0
   57.3840   27.8030   46.3260 N   0  0  0  0  0  0  0  0  0  0  0  0
   57.0420   26.5520   45.7150 C   0  0  0  0  0  0  0  0  0  0  0  0
   55.9830   25.7530   46.1880 C   0  0  0  0  0  0  0  0  0  0  0  0
   55.6700   24.5500   45.5480 C   0  0  0  0  0  0  0  0  0  0  0  0
   56.4000   24.1410   44.4290 C   0  0  0  0  0  0  0  0  0  0  0  0
   57.4370   24.9410   43.9410 C   0  0  0  0  0  0  0  0  0  0  0  0
   57.7510   26.1460   44.5780 C   0  0  0  0  0  0  0  0  0  0  0  0
   57.6160   32.2920   45.3370 C   0  0  0  0  0  0  0  0  0  0  0  0
   56.5150   31.8820   44.8790 O   0  0  0  0  0  0  0  0  0  0  0  0
   57.9250   33.6330   45.3400 N   0  0  0  0  0  0  0  0  0  0  0  0
   56.9370   34.6120   44.8560 C   0  0  0  0  0  0  0  0  0  0  0  0
   59.1300   34.0710   45.8600 C   0  0  0  0  0  0  0  0  0  0  0  0
   59.3710   35.3110   45.9180 O   0  0  0  0  0  0  0  0  0  0  0  0
   60.0700   33.1730   46.3180 N   0  0  0  0  0  0  0  0  0  0  0  0
   61.3620   33.6110   46.8660 C   0  0  0  0  0  0  0  0  0  0  0  0
   60.4047   26.6999   50.0075 H   0  0  0  0  0  0  0  0  0  0  0  0
   59.5027   26.2318   48.5263 H   0  0  0  0  0  0  0  0  0  0  0  0
   61.2989   26.2170   48.5263 H   0  0  0  0  0  0  0  0  0  0  0  0
   61.4043   28.6163   48.6759 H   0  0  0  0  0  0  0  0  0  0  0  0
   59.4772   28.8902   50.2609 H   0  0  0  0  0  0  0  0  0  0  0  0
   59.4130   30.0562   48.8959 H   0  0  0  0  0  0  0  0  0  0  0  0
   58.3427   28.6136   48.8959 H   0  0  0  0  0  0  0  0  0  0  0  0
   61.1597   28.0708   46.4072 H   0  0  0  0  0  0  0  0  0  0  0  0
   59.4305   27.5742   46.6225 H   0  0  0  0  0  0  0  0  0  0  0  0
   61.5026   30.8038   47.1422 H   0  0  0  0  0  0  0  0  0  0  0  0
   55.4006   26.0763   47.0633 H   0  0  0  0  0  0  0  0  0  0  0  0
   54.8478   23.9246   45.9260 H   0  0  0  0  0  0  0  0  0  0  0  0
   56.1586   23.1897   43.9323 H   0  0  0  0  0  0  0  0  0  0  0  0
   58.0066   24.6227   43.0554 H   0  0  0  0  0  0  0  0  0  0  0  0
   58.5598   26.7785   44.1833 H   0  0  0  0  0  0  0  0  0  0  0  0
   56.4489   35.0956   45.7150 H   0  0  0  0  0  0  0  0  0  0  0  0
   57.4442   35.3738   44.2458 H   0  0  0  0  0  0  0  0  0  0  0  0
   56.1799   34.0978   44.2458 H   0  0  0  0  0  0  0  0  0  0  0  0
   61.3181   33.5961   47.9650 H   0  0  0  0  0  0  0  0  0  0  0  0
   62.1556   32.9317   46.5215 H   0  0  0  0  0  0  0  0  0  0  0  0
   61.5789   34.6329   46.5215 H   0  0  0  0  0  0  0  0  0  0  0  0
  1  2  1  0
  2  3  1  0
  2  4  1  0
  4  5  1  0
  5  6  1  0
  6  7  2  0
  7  8  1  0
  8  9  2  0
  9 10  1  0
 10 11  2  0
 10 12  1  0
 12 13  1  0
 13 14  2  0
 14 15  1  0
 15 16  2  0
 16 17  1  0
 17 18  2  0
  8 19  1  0
 19 20  2  0
 19 21  1  0
 21 22  1  0
 21 23  1  0
 23 24  2  0
 23 25  1  0
 25 26  1  0
  9  5  1  0
 18 13  1  0
 25  7  1  0
  1 27  1  0
  1 28  1  0
  1 29  1  0
  2 30  1  0
  3 31  1  0
  3 32  1  0
  3 33  1  0
  4 34  1  0
  4 35  1  0
  6 36  1  0
 14 37  1  0
 15 38  1  0
 16 39  1  0
 17 40  1  0
 18 41  1  0
 22 42  1  0
 22 43  1  0
 22 44  1  0
 26 45  1  0
 26 46  1  0
 26 47  1  0
M  CHG  1  12  -1
M  END
>  <UniqueID>  (29) 
28

>  <SMILES>  (29) 
CC(C)Cn1cc2c(c1C(=O)[N-]c1ccccc1)c(=O)n(C)c(=O)n2C

>  <Energy>  (29) 
92.54288207436252

>  <Genealogy>  (29) 
CC(C)Cn1cc2c(c1C(=O)[N-]c1ccccc1)c(=O)n(C)c(=O)n2C (protonated)
CC(C)Cn1cc2c(c1C(=O)[N-]c1ccccc1)c(=O)n(C)c(=O)n2C (3D coordinates assigned)
CC(C)Cn1cc2c(c1C(=O)[N-]c1ccccc1)c(=O)n(C)c(=O)n2C (optimized conformer: 92.54288207436252 kcal/mol)

>  <smiles>  (29) 
CC(C)Cn1cc2c(c1C(=O)Nc1ccccc1)c(=O)n(C)c(=O)n2C

>  <score_type>  (29) 
oracle

>  <origin>  (29) 
adg

>  <m_score__min__energy>  (29) 
-9.0600000000000005

>  <m_primary>  (29) 
energy

$$$$
29:0
     RDKit          3D

 31 33  0  0  0  0  0  0  0  0999 V2000
   55.8180   24.6450   45.2750 C   0  0  0  0  0  0  0  0  0  0  0  0
   55.7870   25.6920   46.2400 O   0  0  0  0  0  0  0  0  0  0  0  0
   56.8270   26.6120   46.4480 C   0  0  0  0  0  0  0  0  0  0  0  0
   57.9970   26.2700   47.1520 C   0  0  0  0  0  0  0  0  0  0  0  0
   59.0090   27.2120   47.3370 C   0  0  0  0  0  0  0  0  0  0  0  0
   58.8750   28.5040   46.8270 C   0  0  0  0  0  0  0  0  0  0  0  0
   59.8540   29.3820   47.0170 O   0  0  0  0  0  0  0  0  0  0  0  0
   59.8110   30.6330   46.5630 C   0  0  0  0  0  0  0  0  0  0  0  0
   60.9640   31.5290   46.8330 C   0  0  0  0  0  0  0  0  0  0  0  0
   60.8040   32.9210   46.7030 C   0  0  0  0  0  0  0  0  0  0  0  0
   61.8720   33.7870   46.9600 C   0  0  0  0  0  0  0  0  0  0  0  0
   63.1080   33.2740   47.3590 C   0  0  0  0  0  0  0  0  0  0  0  0
   63.2770   31.8970   47.5070 C   0  0  0  0  0  0  0  0  0  0  0  0
   62.2140   31.0260   47.2500 C   0  0  0  0  0  0  0  0  0  0  0  0
   58.6800   31.0730   45.8570 C   0  0  0  0  0  0  0  0  0  0  0  0
   57.6250   30.1890   45.6320 C   0  0  0  0  0  0  0  0  0  0  0  0
   56.6120   30.5940   44.9980 O   0  0  0  0  0  0  0  0  0  0  0  0
   57.7070   28.8690   46.1180 C   0  0  0  0  0  0  0  0  0  0  0  0
   56.6840   27.9100   45.9320 C   0  0  0  0  0  0  0  0  0  0  0  0
   55.5200   28.2280   45.2390 O   0  0  0  0  0  0  0  0  0  0  0  0
   55.8468   23.6731   45.7893 H   0  0  0  0  0  0  0  0  0  0  0  0
   54.9178   24.7001   44.6452 H   0  0  0  0  0  0  0  0  0  0  0  0
   56.7133   24.7532   44.6452 H   0  0  0  0  0  0  0  0  0  0  0  0
   58.1139   25.2545   47.5584 H   0  0  0  0  0  0  0  0  0  0  0  0
   59.9192   26.9344   47.8888 H   0  0  0  0  0  0  0  0  0  0  0  0
   59.8306   33.3317   46.3966 H   0  0  0  0  0  0  0  0  0  0  0  0
   61.7381   34.8730   46.8477 H   0  0  0  0  0  0  0  0  0  0  0  0
   63.9484   33.9556   47.5566 H   0  0  0  0  0  0  0  0  0  0  0  0
   64.2498   31.4953   47.8269 H   0  0  0  0  0  0  0  0  0  0  0  0
   62.3533   29.9419   47.3738 H   0  0  0  0  0  0  0  0  0  0  0  0
   58.6264   32.1066   45.4843 H   0  0  0  0  0  0  0  0  0  0  0  0
  1  2  1  0
  2  3  1  0
  3  4  2  0
  4  5  1  0
  5  6  2  0
  6  7  1  0
  7  8  1  0
  8  9  1  0
  9 10  2  0
 10 11  1  0
 11 12  2  0
 12 13  1  0
 13 14  2  0
  8 15  2  0
 15 16  1  0
 16 17  2  0
 16 18  1  0
 18 19  2  0
 19 20  1  0
 19  3  1  0
 18  6  1  0
 14  9  1  0
  1 21  1  0
  1 22  1  0
  1 23  1  0
  4 24  1  0
  5 25  1  0
 10 26  1  0
 11 27  1  0
 12 28  1  0
 13 29  1  0
 14 30  1  0
 15 31  1  0
M  CHG  1  20  -1
M  END
>  <UniqueID>  (30) 
29

>  <SMILES>  (30) 
COc1ccc2oc(-c3ccccc3)cc(=O)c2c1[O-]

>  <Energy>  (30) 
43.952458020386814

>  <Genealogy>  (30) 
COc1ccc2oc(-c3ccccc3)cc(=O)c2c1[O-] (protonated)
COc1ccc2oc(-c3ccccc3)cc(=O)c2c1[O-] (3D coordinates assigned)
COc1ccc2oc(-c3ccccc3)cc(=O)c2c1[O-] (optimized conformer: 43.952458020386814 kcal/mol)

>  <smiles>  (30) 
COc1ccc2oc(-c3ccccc3)cc(=O)c2c1O

>  <score_type>  (30) 
oracle

>  <origin>  (30) 
adg

>  <m_score__min__energy>  (30) 
-10.390000000000001

>  <m_primary>  (30) 
energy

$$$$
30:0
     RDKit          3D

 62 64  0  0  0  0  0  0  0  0999 V2000
   58.1120   34.5488   46.3005 H   0  0  0  0  0  0  0  0  0  0  0  0
   58.7420   33.7040   46.6160 C   0  0  0  0  0  0  0  0  0  0  0  0
   59.2680   32.9280   45.6550 C   0  0  0  0  0  0  0  0  0  0  0  0
   59.7828   33.4257   44.8199 H   0  0  0  0  0  0  0  0  0  0  0  0
   59.2030   31.4420   45.6410 C   0  0  0  0  0  0  0  0  0  0  0  0
   59.9920   30.6780   46.5400 C   0  0  0  0  0  0  0  0  0  0  0  0
   60.9370   31.3220   47.4190 N   0  0  0  0  0  0  0  0  0  0  0  0
   61.1510   32.3310   47.2620 H   0  0  0  0  0  0  0  0  0  0  0  0
   61.4780   30.6570   48.6090 C   0  0  0  0  0  0  0  0  0  0  0  0
   61.8487   29.6620   48.3219 H   0  0  0  0  0  0  0  0  0  0  0  0
   60.6707   30.5821   49.3524 H   0  0  0  0  0  0  0  0  0  0  0  0
   62.6330   31.4540   49.2410 C   0  0  0  0  0  0  0  0  0  0  0  0
   63.5662   30.8835   49.1239 H   0  0  0  0  0  0  0  0  0  0  0  0
   62.3996   31.6126   50.3042 H   0  0  0  0  0  0  0  0  0  0  0  0
   62.7970   32.7810   48.6000 N   0  0  0  0  0  0  0  0  0  0  0  0
   63.2690   33.8380   49.5250 C   0  0  0  0  0  0  0  0  0  0  0  0
   62.5032   34.0173   50.2940 H   0  0  0  0  0  0  0  0  0  0  0  0
   63.4497   34.7614   48.9551 H   0  0  0  0  0  0  0  0  0  0  0  0
   64.5650   33.4040   50.1960 C   0  0  0  0  0  0  0  0  0  0  0  0
   64.4437   33.4446   51.2885 H   0  0  0  0  0  0  0  0  0  0  0  0
   64.8086   32.3753   49.8921 H   0  0  0  0  0  0  0  0  0  0  0  0
   65.3790   34.0786   49.8921 H   0  0  0  0  0  0  0  0  0  0  0  0
   63.6080   32.7070   47.3620 C   0  0  0  0  0  0  0  0  0  0  0  0
   64.6717   32.7017   47.6424 H   0  0  0  0  0  0  0  0  0  0  0  0
   63.3109   31.7883   46.8350 H   0  0  0  0  0  0  0  0  0  0  0  0
   63.3650   33.8780   46.4000 C   0  0  0  0  0  0  0  0  0  0  0  0
   63.1749   34.7942   46.9783 H   0  0  0  0  0  0  0  0  0  0  0  0
   64.2524   34.0220   45.7661 H   0  0  0  0  0  0  0  0  0  0  0  0
   62.4936   33.6570   45.7661 H   0  0  0  0  0  0  0  0  0  0  0  0
   59.8760   29.2780   46.5420 C   0  0  0  0  0  0  0  0  0  0  0  0
   60.4726   28.6860   47.2517 H   0  0  0  0  0  0  0  0  0  0  0  0
   59.0180   28.6290   45.6600 C   0  0  0  0  0  0  0  0  0  0  0  0
   58.9408   27.5319   45.6802 H   0  0  0  0  0  0  0  0  0  0  0  0
   58.2540   29.3620   44.7490 C   0  0  0  0  0  0  0  0  0  0  0  0
   57.3970   28.6940   43.8580 C   0  0  0  0  0  0  0  0  0  0  0  0
   57.3378   27.5957   43.8752 H   0  0  0  0  0  0  0  0  0  0  0  0
   56.6220   29.4160   42.9530 C   0  0  0  0  0  0  0  0  0  0  0  0
   55.9564   28.8862   42.2557 H   0  0  0  0  0  0  0  0  0  0  0  0
   56.6880   30.8080   42.9290 C   0  0  0  0  0  0  0  0  0  0  0  0
   56.0712   31.3731   42.2147 H   0  0  0  0  0  0  0  0  0  0  0  0
   57.5340   31.4890   43.8080 C   0  0  0  0  0  0  0  0  0  0  0  0
   57.5741   32.5880   43.7839 H   0  0  0  0  0  0  0  0  0  0  0  0
   58.3390   30.7790   44.7280 C   0  0  0  0  0  0  0  0  0  0  0  0
   58.9470   33.5070   48.0690 C   0  0  0  0  0  0  0  0  0  0  0  0
   58.3110   32.4740   48.7730 C   0  0  0  0  0  0  0  0  0  0  0  0
   57.6143   31.8039   48.2481 H   0  0  0  0  0  0  0  0  0  0  0  0
   58.5560   32.2900   50.1360 C   0  0  0  0  0  0  0  0  0  0  0  0
   58.0584   31.4672   50.6703 H   0  0  0  0  0  0  0  0  0  0  0  0
   59.4330   33.1450   50.8370 C   0  0  0  0  0  0  0  0  0  0  0  0
   59.7050   32.9440   52.2510 N   0  0  0  0  0  0  0  0  0  0  0  0
   60.7980   32.0620   52.6850 C   0  0  0  0  0  0  0  0  0  0  0  0
   60.8323   32.0343   53.7841 H   0  0  0  0  0  0  0  0  0  0  0  0
   60.6257   31.0469   52.2978 H   0  0  0  0  0  0  0  0  0  0  0  0
   61.7538   32.4448   52.2978 H   0  0  0  0  0  0  0  0  0  0  0  0
   58.8890   33.6090   53.2750 C   0  0  0  0  0  0  0  0  0  0  0  0
   59.2458   33.3182   54.2741 H   0  0  0  0  0  0  0  0  0  0  0  0
   58.9724   34.6997   53.1590 H   0  0  0  0  0  0  0  0  0  0  0  0
   57.8376   33.3072   53.1590 H   0  0  0  0  0  0  0  0  0  0  0  0
   60.0330   34.2060   50.1240 C   0  0  0  0  0  0  0  0  0  0  0  0
   60.7100   34.8968   50.6479 H   0  0  0  0  0  0  0  0  0  0  0  0
   59.7790   34.3910   48.7620 C   0  0  0  0  0  0  0  0  0  0  0  0
   60.2373   35.2386   48.2315 H   0  0  0  0  0  0  0  0  0  0  0  0
  1  2  1  0
  2  3  2  0
  3  4  1  0
  3  5  1  0
  5  6  2  0
  6  7  1  0
  7  8  1  0
  7  9  1  0
  9 10  1  0
  9 11  1  0
  9 12  1  0
 12 13  1  0
 12 14  1  0
 12 15  1  0
 15 16  1  0
 16 17  1  0
 16 18  1  0
 16 19  1  0
 19 20  1  0
 19 21  1  0
 19 22  1  0
 15 23  1  0
 23 24  1  0
 23 25  1  0
 23 26  1  0
 26 27  1  0
 26 28  1  0
 26 29  1  0
  6 30  1  0
 30 31  1  0
 30 32  2  0
 32 33  1  0
 32 34  1  0
 34 35  2  0
 35 36  1  0
 35 37  1  0
 37 38  1  0
 37 39  2  0
 39 40  1  0
 39 41  1  0
 41 42  1  0
 41 43  2  0
  2 44  1  0
 44 45  2  0
 45 46  1  0
 45 47  1  0
 47 48  1  0
 47 49  2  0
 49 50  1  0
 50 51  1  0
 51 52  1  0
 51 53  1  0
 51 54  1  0
 50 55  1  0
 55 56  1  0
 55 57  1  0
 55 58  1  0
 49 59  1  0
 59 60  1  0
 59 61  2  0
 61 62  1  0
 43  5  1  0
 61 44  1  0
 43 34  1  0
M  END
>  <UniqueID>  (31) 
30

>  <SMILES>  (31) 
CCN(CC)CCNc1ccc2ccccc2c1/C=C\c1ccc(N(C)C)cc1

>  <Energy>  (31) 
80.97912632669777

>  <Genealogy>  (31) 
CCN(CC)CCNc1ccc2ccccc2c1/C=C\c1ccc(N(C)C)cc1 (cis-trans isomerization)
CCN(CC)CCNc1ccc2ccccc2c1/C=C\c1ccc(N(C)C)cc1 (3D coordinates assigned)
CCN(CC)CCNc1ccc2ccccc2c1/C=C\c1ccc(N(C)C)cc1 (optimized conformer: 80.97912632669777 kcal/mol)

>  <smiles>  (31) 
CCN(CC)CCNc1ccc2ccccc2c1C=Cc1ccc(N(C)C)cc1

>  <score_type>  (31) 
oracle

>  <origin>  (31) 
adg

>  <m_score__min__energy>  (31) 
-7.6500000000000004

>  <m_primary>  (31) 
energy

$$$$
31:0
     RDKit          3D

 68 70  0  0  0  0  0  0  0  0999 V2000
   59.5140   35.3100   45.3190 C   0  0  0  0  0  0  0  0  0  0  0  0
   59.2220   34.4000   46.4830 C   0  0  0  0  0  0  0  0  0  0  0  0
   59.9050   34.6010   47.6970 C   0  0  0  0  0  0  0  0  0  0  0  0
   59.6680   33.7680   48.7920 C   0  0  0  0  0  0  0  0  0  0  0  0
   58.7530   32.7220   48.6890 C   0  0  0  0  0  0  0  0  0  0  0  0
   58.0700   32.5040   47.4920 C   0  0  0  0  0  0  0  0  0  0  0  0
   58.2950   33.3320   46.3780 C   0  0  0  0  0  0  0  0  0  0  0  0
   57.5140   33.0760   45.1070 C   0  0  0  0  0  0  0  0  0  0  0  0
   57.1750   31.6500   44.9890 N   0  0  0  0  0  0  0  0  0  0  0  0
   57.4220   31.1130   43.6390 C   0  0  0  0  0  0  0  0  0  0  0  0
   56.7290   29.7560   43.4200 C   0  0  0  0  0  0  0  0  0  0  0  0
   57.0120   28.7100   44.5280 C   0  0  0  0  0  0  0  0  0  0  0  0
   58.2780   28.8640   45.3000 N   0  0  0  0  0  0  0  0  0  0  0  0
   58.2540   28.1220   46.5860 C   0  0  0  0  0  0  0  0  0  0  0  0
   59.6650   27.9060   47.1800 C   0  0  0  0  0  0  0  0  0  0  0  0
   60.6220   28.9480   46.7580 N   0  0  0  0  0  0  0  0  0  0  0  0
   60.3840   30.2520   47.4250 C   0  0  0  0  0  0  0  0  0  0  0  0
   61.2770   31.3370   46.8080 C   0  0  0  0  0  0  0  0  0  0  0  0
   62.6410   31.4580   47.5050 C   0  0  0  0  0  0  0  0  0  0  0  0
   63.5550   32.3410   46.7620 N   0  0  0  0  0  0  0  0  0  0  0  0
   63.6710   33.6830   47.3550 C   0  0  0  0  0  0  0  0  0  0  0  0
   63.8160   33.6330   48.8580 C   0  0  0  0  0  0  0  0  0  0  0  0
   62.8370   34.2080   49.6880 C   0  0  0  0  0  0  0  0  0  0  0  0
   62.9700   34.1480   51.0790 C   0  0  0  0  0  0  0  0  0  0  0  0
   64.0800   33.5180   51.6500 C   0  0  0  0  0  0  0  0  0  0  0  0
   65.0570   32.9460   50.8330 C   0  0  0  0  0  0  0  0  0  0  0  0
   64.9270   33.0010   49.4420 C   0  0  0  0  0  0  0  0  0  0  0  0
   60.7630   29.0280   45.2820 C   0  0  0  0  0  0  0  0  0  0  0  0
   59.4980   28.5790   44.5190 C   0  0  0  0  0  0  0  0  0  0  0  0
   59.8300   36.2948   45.6937 H   0  0  0  0  0  0  0  0  0  0  0  0
   60.3178   34.8755   44.7066 H   0  0  0  0  0  0  0  0  0  0  0  0
   58.6074   35.4244   44.7066 H   0  0  0  0  0  0  0  0  0  0  0  0
   60.6321   35.4218   47.7839 H   0  0  0  0  0  0  0  0  0  0  0  0
   60.2043   33.9376   49.7373 H   0  0  0  0  0  0  0  0  0  0  0  0
   58.5688   32.0668   49.5532 H   0  0  0  0  0  0  0  0  0  0  0  0
   57.3488   31.6766   47.4191 H   0  0  0  0  0  0  0  0  0  0  0  0
   56.5871   33.6680   45.1263 H   0  0  0  0  0  0  0  0  0  0  0  0
   58.1322   33.3671   44.2450 H   0  0  0  0  0  0  0  0  0  0  0  0
   56.1680   31.5150   45.2440 H   0  0  0  0  0  0  0  0  0  0  0  0
   57.0407   31.8299   42.8969 H   0  0  0  0  0  0  0  0  0  0  0  0
   58.5058   30.9618   43.5276 H   0  0  0  0  0  0  0  0  0  0  0  0
   55.6432   29.9266   43.3763 H   0  0  0  0  0  0  0  0  0  0  0  0
   57.1343   29.3422   42.4848 H   0  0  0  0  0  0  0  0  0  0  0  0
   56.1791   28.7535   45.2453 H   0  0  0  0  0  0  0  0  0  0  0  0
   57.1179   27.7532   43.9957 H   0  0  0  0  0  0  0  0  0  0  0  0
   58.3200   29.8820   45.5490 H   0  0  0  0  0  0  0  0  0  0  0  0
   57.6518   28.6916   47.3091 H   0  0  0  0  0  0  0  0  0  0  0  0
   57.8229   27.1296   46.3876 H   0  0  0  0  0  0  0  0  0  0  0  0
   59.5914   27.9184   48.2775 H   0  0  0  0  0  0  0  0  0  0  0  0
   60.0387   26.9397   46.8104 H   0  0  0  0  0  0  0  0  0  0  0  0
   59.3287   30.5362   47.3000 H   0  0  0  0  0  0  0  0  0  0  0  0
   60.6245   30.1561   48.4941 H   0  0  0  0  0  0  0  0  0  0  0  0
   61.4448   31.0927   45.7487 H   0  0  0  0  0  0  0  0  0  0  0  0
   60.7582   32.2993   46.9295 H   0  0  0  0  0  0  0  0  0  0  0  0
   62.4905   31.8686   48.5143 H   0  0  0  0  0  0  0  0  0  0  0  0
   63.0931   30.4563   47.5506 H   0  0  0  0  0  0  0  0  0  0  0  0
   64.5020   31.8950   46.7280 H   0  0  0  0  0  0  0  0  0  0  0  0
   64.5543   34.1826   46.9305 H   0  0  0  0  0  0  0  0  0  0  0  0
   62.7483   34.2351   47.1233 H   0  0  0  0  0  0  0  0  0  0  0  0
   61.9639   34.7065   49.2417 H   0  0  0  0  0  0  0  0  0  0  0  0
   62.2006   34.5969   51.7244 H   0  0  0  0  0  0  0  0  0  0  0  0
   64.1836   33.4730   52.7442 H   0  0  0  0  0  0  0  0  0  0  0  0
   65.9299   32.4516   51.2841 H   0  0  0  0  0  0  0  0  0  0  0  0
   65.6980   32.5474   48.8018 H   0  0  0  0  0  0  0  0  0  0  0  0
   60.9830   30.0706   45.0089 H   0  0  0  0  0  0  0  0  0  0  0  0
   61.5745   28.3427   44.9961 H   0  0  0  0  0  0  0  0  0  0  0  0
   59.4457   29.1177   43.5614 H   0  0  0  0  0  0  0  0  0  0  0  0
   59.5589   27.4939   44.3489 H   0  0  0  0  0  0  0  0  0  0  0  0
  1  2  1  0
  2  3  2  0
  3  4  1  0
  4  5  2  0
  5  6  1  0
  6  7  2  0
  7  8  1  0
  8  9  1  0
  9 10  1  0
 10 11  1  0
 11 12  1  0
 12 13  1  0
 13 14  1  0
 14 15  1  0
 15 16  1  0
 16 17  1  0
 17 18  1  0
 18 19  1  0
 19 20  1  0
 20 21  1  0
 21 22  1  0
 22 23  2  0
 23 24  1  0
 24 25  2  0
 25 26  1  0
 26 27  2  0
 16 28  1  0
 28 29  1  0
  7  2  1  0
 29 13  1  0
 27 22  1  0
  1 30  1  0
  1 31  1  0
  1 32  1  0
  3 33  1  0
  4 34  1  0
  5 35  1  0
  6 36  1  0
  8 37  1  0
  8 38  1  0
  9 39  1  0
 10 40  1  0
 10 41  1  0
 11 42  1  0
 11 43  1  0
 12 44  1  0
 12 45  1  0
 13 46  1  0
 14 47  1  0
 14 48  1  0
 15 49  1  0
 15 50  1  0
 17 51  1  0
 17 52  1  0
 18 53  1  0
 18 54  1  0
 19 55  1  0
 19 56  1  0
 20 57  1  0
 21 58  1  0
 21 59  1  0
 23 60  1  0
 24 61  1  0
 25 62  1  0
 26 63  1  0
 27 64  1  0
 28 65  1  0
 28 66  1  0
 29 67  1  0
 29 68  1  0
M  CHG  1  13   1
M  END
>  <UniqueID>  (32) 
31

>  <SMILES>  (32) 
Cc1ccccc1CNCCC[NH+]1CCN(CCCNCc2ccccc2)CC1

>  <Energy>  (32) 
86.54178557674499

>  <Genealogy>  (32) 
Cc1ccccc1CNCCC[NH+]1CCN(CCCNCc2ccccc2)CC1 (protonated)
Cc1ccccc1CNCCC[NH+]1CCN(CCCNCc2ccccc2)CC1 (3D coordinates assigned)
Cc1ccccc1CNCCC[NH+]1CCN(CCCNCc2ccccc2)CC1 (nonaromatic ring conformer: 86.54178557674499 kcal/mol)

>  <smiles>  (32) 
Cc1ccccc1CNCCCN1CCN(CCCNCc2ccccc2)CC1

>  <score_type>  (32) 
oracle

>  <origin>  (32) 
adg

>  <m_score__min__energy>  (32) 
-7.1500000000000004

>  <m_primary>  (32) 
energy

$$$$
32:0
     RDKit          3D

 24 25  0  0  0  0  0  0  0  0999 V2000
   54.7680   28.9630   45.5620 H   0  0  0  0  0  0  0  0  0  0  0  0
   55.6210   29.3760   45.1270 N   0  0  0  0  0  0  0  0  0  0  0  0
   56.8180   28.9460   45.3810 C   0  0  0  0  0  0  0  0  0  0  0  0
   57.1610   27.6630   45.7350 C   0  0  0  0  0  0  0  0  0  0  0  0
   56.2770   26.5480   45.9480 C   0  0  0  0  0  0  0  0  0  0  0  0
   55.5660   25.6520   46.1210 N   0  0  0  0  0  0  0  0  0  0  0  0
   58.5050   27.5990   45.8140 N   0  0  0  0  0  0  0  0  0  0  0  0
   58.9530   28.8140   45.5190 N   0  0  0  0  0  0  0  0  0  0  0  0
   59.9660   29.0720   45.5110 H   0  0  0  0  0  0  0  0  0  0  0  0
   57.9600   29.6540   45.2580 N   0  0  0  0  0  0  0  0  0  0  0  0
   58.1360   31.0420   44.9300 C   0  0  0  0  0  0  0  0  0  0  0  0
   57.9710   31.4740   43.6060 C   0  0  0  0  0  0  0  0  0  0  0  0
   57.6984   30.7499   42.8241 H   0  0  0  0  0  0  0  0  0  0  0  0
   58.1510   32.8190   43.2750 C   0  0  0  0  0  0  0  0  0  0  0  0
   58.0035   33.1533   42.2374 H   0  0  0  0  0  0  0  0  0  0  0  0
   58.5180   33.7410   44.2590 C   0  0  0  0  0  0  0  0  0  0  0  0
   58.6457   34.8016   43.9968 H   0  0  0  0  0  0  0  0  0  0  0  0
   58.7240   33.3170   45.5810 C   0  0  0  0  0  0  0  0  0  0  0  0
   59.0940   34.3090   46.6430 C   0  0  0  0  0  0  0  0  0  0  0  0
   58.9278   33.8634   47.6349 H   0  0  0  0  0  0  0  0  0  0  0  0
   60.1543   34.5818   46.5366 H   0  0  0  0  0  0  0  0  0  0  0  0
   58.4713   35.2095   46.5366 H   0  0  0  0  0  0  0  0  0  0  0  0
   58.5230   31.9690   45.9130 C   0  0  0  0  0  0  0  0  0  0  0  0
   58.6694   31.6349   46.9507 H   0  0  0  0  0  0  0  0  0  0  0  0
  1  2  1  0
  2  3  2  0
  3  4  1  0
  4  5  1  0
  5  6  3  0
  4  7  2  0
  7  8  1  0
  8  9  1  0
  8 10  1  0
 10 11  1  0
 11 12  2  0
 12 13  1  0
 12 14  1  0
 14 15  1  0
 14 16  2  0
 16 17  1  0
 16 18  1  0
 18 19  1  0
 19 20  1  0
 19 21  1  0
 19 22  1  0
 18 23  2  0
 23 24  1  0
 10  3  1  0
 23 11  1  0
M  END
>  <UniqueID>  (33) 
32

>  <SMILES>  (33) 
[H]/N=c1/c(C#N)n[nH]n1-c1cccc(C)c1

>  <Energy>  (33) 
67.25837879135857

>  <Genealogy>  (33) 
[H]/N=c1/c(C#N)n[nH]n1-c1cccc(C)c1 (cis-trans isomerization)
[H]/N=c1/c(C#N)n[nH]n1-c1cccc(C)c1 (3D coordinates assigned)
[H]/N=c1/c(C#N)n[nH]n1-c1cccc(C)c1 (optimized conformer: 67.25837879135857 kcal/mol)

>  <smiles>  (33) 
Cc1cccc(-n2[nH]nc(C#N)c2=N)c1

>  <score_type>  (33) 
oracle

>  <origin>  (33) 
adg

>  <m_score__min__energy>  (33) 
-6.0199999999999996

>  <m_primary>  (33) 
energy

$$$$
33:0
     RDKit          3D

 31 32  0  0  0  0  0  0  0  0999 V2000
   58.9940   32.7000   46.6030 C   0  0  0  0  0  0  0  0  0  0  0  0
   58.4810   34.0620   46.3660 N   0  0  0  0  0  0  0  0  0  0  0  0
   59.5910   34.9390   45.9610 C   0  0  0  0  0  0  0  0  0  0  0  0
   57.4390   34.0550   45.3210 C   0  0  0  0  0  0  0  0  0  0  0  0
   57.4280   32.7440   44.6010 C   0  0  0  0  0  0  0  0  0  0  0  0
   56.6430   31.7000   44.9450 N   0  0  0  0  0  0  0  0  0  0  0  0
   56.9750   30.7920   44.0010 C   0  0  0  0  0  0  0  0  0  0  0  0
   56.4000   29.3970   43.9260 C   0  0  1  0  0  0  0  0  0  0  0  0
   57.4340   28.4080   43.4130 C   0  0  0  0  0  0  0  0  0  0  0  0
   58.0680   27.8420   44.6640 C   0  0  0  0  0  0  0  0  0  0  0  0
   57.0370   28.0570   45.7650 C   0  0  0  0  0  0  0  0  0  0  0  0
   55.9720   28.9170   45.2440 N   0  0  0  0  0  0  0  0  0  0  0  0
   57.9050   31.2700   43.1540 N   0  0  0  0  0  0  0  0  0  0  0  0
   58.1610   32.4780   43.5460 O   0  0  0  0  0  0  0  0  0  0  0  0
   59.0628   32.5173   47.6855 H   0  0  0  0  0  0  0  0  0  0  0  0
   58.3104   31.9668   46.1501 H   0  0  0  0  0  0  0  0  0  0  0  0
   59.9914   32.5999   46.1501 H   0  0  0  0  0  0  0  0  0  0  0  0
   60.0916   35.3345   46.8571 H   0  0  0  0  0  0  0  0  0  0  0  0
   60.3124   34.3643   45.3616 H   0  0  0  0  0  0  0  0  0  0  0  0
   59.1988   35.7738   45.3616 H   0  0  0  0  0  0  0  0  0  0  0  0
   56.4568   34.2197   45.7881 H   0  0  0  0  0  0  0  0  0  0  0  0
   57.6544   34.8559   44.5984 H   0  0  0  0  0  0  0  0  0  0  0  0
   55.5400   29.4580   43.2429 H   0  0  0  0  0  0  0  0  0  0  0  0
   56.9530   27.6116   42.8261 H   0  0  0  0  0  0  0  0  0  0  0  0
   58.1710   28.8804   42.7469 H   0  0  0  0  0  0  0  0  0  0  0  0
   58.2803   26.7701   44.5380 H   0  0  0  0  0  0  0  0  0  0  0  0
   59.0263   28.3293   44.8965 H   0  0  0  0  0  0  0  0  0  0  0  0
   56.6150   27.0887   46.0721 H   0  0  0  0  0  0  0  0  0  0  0  0
   57.5109   28.5309   46.6373 H   0  0  0  0  0  0  0  0  0  0  0  0
   55.7950   29.7100   45.9070 H   0  0  0  0  0  0  0  0  0  0  0  0
   58.3450   30.7860   42.3410 H   0  0  0  0  0  0  0  0  0  0  0  0
  1  2  1  0
  2  3  1  0
  2  4  1  0
  4  5  1  0
  5  6  2  0
  6  7  1  0
  7  8  1  0
  8  9  1  0
  9 10  1  0
 10 11  1  0
 11 12  1  0
  7 13  2  0
 13 14  1  0
 14  5  1  0
 12  8  1  0
  1 15  1  0
  1 16  1  0
  1 17  1  0
  3 18  1  0
  3 19  1  0
  3 20  1  0
  4 21  1  0
  4 22  1  0
  8 23  1  6
  9 24  1  0
  9 25  1  0
 10 26  1  0
 10 27  1  0
 11 28  1  0
 11 29  1  0
 12 30  1  0
 13 31  1  0
M  CHG  1  13   1
M  END
>  <UniqueID>  (34) 
33

>  <SMILES>  (34) 
CN(C)Cc1nc([C@H]2CCCN2)[nH+]o1

>  <Energy>  (34) 
63.45713194351866

>  <Genealogy>  (34) 
CN(C)Cc1nc(C2CCCN2)[nH+]o1 (protonated)
CN(C)Cc1nc([C@H]2CCCN2)[nH+]o1 (chirality)
CN(C)Cc1nc([C@H]2CCCN2)[nH+]o1 (3D coordinates assigned)
CN(C)Cc1nc([C@H]2CCCN2)[nH+]o1 (nonaromatic ring conformer: 63.45713194351866 kcal/mol)

>  <smiles>  (34) 
CN(C)Cc1nc(C2CCCN2)no1

>  <score_type>  (34) 
oracle

>  <origin>  (34) 
adg

>  <m_score__min__energy>  (34) 
-5.0999999999999996

>  <m_primary>  (34) 
energy

$$$$
34:0
     RDKit          3D

 52 53  0  0  0  0  0  0  0  0999 V2000
   59.0922   32.7797   49.4158 H   0  0  0  0  0  0  0  0  0  0  0  0
   59.5440   33.5690   48.7970 C   0  0  0  0  0  0  0  0  0  0  0  0
   60.5750   34.2550   49.3060 C   0  0  0  0  0  0  0  0  0  0  0  0
   60.3558   35.0483   50.0359 H   0  0  0  0  0  0  0  0  0  0  0  0
   62.0180   34.0090   48.9420 C   0  0  0  0  0  0  0  0  0  0  0  0
   62.6362   34.0890   49.8484 H   0  0  0  0  0  0  0  0  0  0  0  0
   62.3245   34.7596   48.1986 H   0  0  0  0  0  0  0  0  0  0  0  0
   62.1950   32.6630   48.3530 N   0  0  0  0  0  0  0  0  0  0  0  0
   63.3690   32.6270   47.4510 C   0  0  0  0  0  0  0  0  0  0  0  0
   63.3530   31.6897   46.8754 H   0  0  0  0  0  0  0  0  0  0  0  0
   64.2834   32.6869   48.0596 H   0  0  0  0  0  0  0  0  0  0  0  0
   63.3460   33.8090   46.4840 C   0  0  0  0  0  0  0  0  0  0  0  0
   63.3277   34.7492   47.0546 H   0  0  0  0  0  0  0  0  0  0  0  0
   64.2448   33.7820   45.8505 H   0  0  0  0  0  0  0  0  0  0  0  0
   62.4489   33.7470   45.8505 H   0  0  0  0  0  0  0  0  0  0  0  0
   62.3100   31.6250   49.4050 C   0  0  0  0  0  0  0  0  0  0  0  0
   63.3557   31.2909   49.4755 H   0  0  0  0  0  0  0  0  0  0  0  0
   61.9900   32.0478   50.3687 H   0  0  0  0  0  0  0  0  0  0  0  0
   61.4130   30.4250   49.0540 C   0  0  0  0  0  0  0  0  0  0  0  0
   62.0443   29.6171   48.6557 H   0  0  0  0  0  0  0  0  0  0  0  0
   60.8931   30.1159   49.9728 H   0  0  0  0  0  0  0  0  0  0  0  0
   60.3880   30.7620   48.0510 N   0  0  0  0  0  0  0  0  0  0  0  0
   60.7200   31.5650   47.4670 H   0  0  0  0  0  0  0  0  0  0  0  0
   59.5270   31.0670   48.5640 H   0  0  0  0  0  0  0  0  0  0  0  0
   60.0440   29.6130   47.1930 C   0  0  0  0  0  0  0  0  0  0  0  0
   60.7439   28.7903   47.4012 H   0  0  0  0  0  0  0  0  0  0  0  0
   59.0088   29.3155   47.4165 H   0  0  0  0  0  0  0  0  0  0  0  0
   60.1280   29.9730   45.7020 C   0  0  0  0  0  0  0  0  0  0  0  0
   60.6004   30.9612   45.6002 H   0  0  0  0  0  0  0  0  0  0  0  0
   60.7214   29.1975   45.1955 H   0  0  0  0  0  0  0  0  0  0  0  0
   58.7660   30.0150   45.0600 C   0  0  0  0  0  0  0  0  0  0  0  0
   58.4710   30.9920   44.0950 C   0  0  0  0  0  0  0  0  0  0  0  0
   59.2440   31.7128   43.7902 H   0  0  0  0  0  0  0  0  0  0  0  0
   57.1960   31.0510   43.5200 C   0  0  0  0  0  0  0  0  0  0  0  0
   56.9713   31.8147   42.7609 H   0  0  0  0  0  0  0  0  0  0  0  0
   56.2080   30.1420   43.9080 C   0  0  0  0  0  0  0  0  0  0  0  0
   55.2071   30.1904   43.4544 H   0  0  0  0  0  0  0  0  0  0  0  0
   56.4920   29.1720   44.8720 C   0  0  0  0  0  0  0  0  0  0  0  0
   55.5340   28.2910   45.2490 F   0  0  0  0  0  0  0  0  0  0  0  0
   57.7650   29.1090   45.4500 C   0  0  0  0  0  0  0  0  0  0  0  0
   57.9830   28.3471   46.2128 H   0  0  0  0  0  0  0  0  0  0  0  0
   58.9780   33.8080   47.4570 C   0  0  0  0  0  0  0  0  0  0  0  0
   57.7130   33.3100   47.1100 C   0  0  0  0  0  0  0  0  0  0  0  0
   57.1190   32.7571   47.8526 H   0  0  0  0  0  0  0  0  0  0  0  0
   57.2050   33.5140   45.8240 C   0  0  0  0  0  0  0  0  0  0  0  0
   56.2105   33.1266   45.5579 H   0  0  0  0  0  0  0  0  0  0  0  0
   57.9600   34.2100   44.8760 C   0  0  0  0  0  0  0  0  0  0  0  0
   57.5563   34.3783   43.8667 H   0  0  0  0  0  0  0  0  0  0  0  0
   59.2280   34.6920   45.2110 C   0  0  0  0  0  0  0  0  0  0  0  0
   59.8237   35.2361   44.4633 H   0  0  0  0  0  0  0  0  0  0  0  0
   59.7410   34.4840   46.4950 C   0  0  0  0  0  0  0  0  0  0  0  0
   60.7457   34.8517   46.7507 H   0  0  0  0  0  0  0  0  0  0  0  0
  1  2  1  0
  2  3  2  0
  3  4  1  0
  3  5  1  0
  5  6  1  0
  5  7  1  0
  5  8  1  0
  8  9  1  0
  9 10  1  0
  9 11  1  0
  9 12  1  0
 12 13  1  0
 12 14  1  0
 12 15  1  0
  8 16  1  0
 16 17  1  0
 16 18  1  0
 16 19  1  0
 19 20  1  0
 19 21  1  0
 19 22  1  0
 22 23  1  0
 22 24  1  0
 22 25  1  0
 25 26  1  0
 25 27  1  0
 25 28  1  0
 28 29  1  0
 28 30  1  0
 28 31  1  0
 31 32  2  0
 32 33  1  0
 32 34  1  0
 34 35  1  0
 34 36  2  0
 36 37  1  0
 36 38  1  0
 38 39  1  0
 38 40  2  0
 40 41  1  0
  2 42  1  0
 42 43  2  0
 43 44  1  0
 43 45  1  0
 45 46  1  0
 45 47  2  0
 47 48  1  0
 47 49  1  0
 49 50  1  0
 49 51  2  0
 51 52  1  0
 40 31  1  0
 51 42  1  0
M  CHG  1  22   1
M  END
>  <UniqueID>  (35) 
34

>  <SMILES>  (35) 
CCN(C/C=C\c1ccccc1)CC[NH2+]CCc1cccc(F)c1

>  <Energy>  (35) 
51.585463395949816

>  <Genealogy>  (35) 
CCN(CC=Cc1ccccc1)CC[NH2+]CCc1cccc(F)c1 (protonated)
CCN(C/C=C\c1ccccc1)CC[NH2+]CCc1cccc(F)c1 (cis-trans isomerization)
CCN(C/C=C\c1ccccc1)CC[NH2+]CCc1cccc(F)c1 (3D coordinates assigned)
CCN(C/C=C\c1ccccc1)CC[NH2+]CCc1cccc(F)c1 (optimized conformer: 51.585463395949816 kcal/mol)

>  <smiles>  (35) 
CCN(CC=Cc1ccccc1)CCNCCc1cccc(F)c1

>  <score_type>  (35) 
oracle

>  <origin>  (35) 
adg

>  <m_score__min__energy>  (35) 
-5.5599999999999996

>  <m_primary>  (35) 
energy

$$$$
35:0
     RDKit          3D

 28 29  0  0  0  0  0  0  0  0999 V2000
   58.7980   33.0740   45.2360 C   0  0  0  0  0  0  0  0  0  0  0  0
   58.0460   32.0150   44.4840 C   0  0  0  0  0  0  0  0  0  0  0  0
   57.7060   32.2120   43.1380 C   0  0  0  0  0  0  0  0  0  0  0  0
   57.0310   31.2150   42.4300 C   0  0  0  0  0  0  0  0  0  0  0  0
   56.7060   30.0080   43.0530 C   0  0  0  0  0  0  0  0  0  0  0  0
   57.0680   29.7810   44.3930 C   0  0  0  0  0  0  0  0  0  0  0  0
   56.7140   28.5440   45.0440 N   0  0  0  0  0  0  0  0  0  0  0  0
   57.9170   27.8930   45.5770 C   0  0  0  0  0  0  0  0  0  0  0  0
   57.5550   26.6400   46.2400 N   0  0  0  0  0  0  0  0  0  0  0  0
   56.3290   26.1100   46.3880 C   0  0  0  0  0  0  0  0  0  0  0  0
   55.1470   26.7210   45.9870 O   0  0  0  0  0  0  0  0  0  0  0  0
   56.4380   24.8750   46.9870 C   0  0  0  0  0  0  0  0  0  0  0  0
   57.7180   24.6440   47.1870 O   0  0  0  0  0  0  0  0  0  0  0  0
   58.3750   25.6920   46.7350 C   0  0  0  0  0  0  0  0  0  0  0  0
   59.6300   25.7890   46.7550 O   0  0  0  0  0  0  0  0  0  0  0  0
   57.7350   30.7940   45.1040 C   0  0  0  0  0  0  0  0  0  0  0  0
   58.6809   32.9090   46.3172 H   0  0  0  0  0  0  0  0  0  0  0  0
   59.8644   33.0246   44.9710 H   0  0  0  0  0  0  0  0  0  0  0  0
   58.3999   34.0646   44.9710 H   0  0  0  0  0  0  0  0  0  0  0  0
   57.9718   33.1550   42.6379 H   0  0  0  0  0  0  0  0  0  0  0  0
   56.7545   31.3810   41.3783 H   0  0  0  0  0  0  0  0  0  0  0  0
   56.1644   29.2313   42.4931 H   0  0  0  0  0  0  0  0  0  0  0  0
   56.0420   28.7310   45.8240 H   0  0  0  0  0  0  0  0  0  0  0  0
   56.2430   27.9050   44.3610 H   0  0  0  0  0  0  0  0  0  0  0  0
   58.6125   27.6808   44.7517 H   0  0  0  0  0  0  0  0  0  0  0  0
   58.3970   28.5622   46.3063 H   0  0  0  0  0  0  0  0  0  0  0  0
   55.6070   24.2041   47.2502 H   0  0  0  0  0  0  0  0  0  0  0  0
   58.0156   30.6288   46.1547 H   0  0  0  0  0  0  0  0  0  0  0  0
  1  2  1  0
  2  3  2  0
  3  4  1  0
  4  5  2  0
  5  6  1  0
  6  7  1  0
  7  8  1  0
  8  9  1  0
  9 10  1  0
 10 11  1  0
 10 12  2  0
 12 13  1  0
 13 14  1  0
 14 15  2  0
  6 16  2  0
 16  2  1  0
 14  9  1  0
  1 17  1  0
  1 18  1  0
  1 19  1  0
  3 20  1  0
  4 21  1  0
  5 22  1  0
  7 23  1  0
  7 24  1  0
  8 25  1  0
  8 26  1  0
 12 27  1  0
 16 28  1  0
M  CHG  2   7   1  11  -1
M  END
>  <UniqueID>  (36) 
35

>  <SMILES>  (36) 
Cc1cccc([NH2+]Cn2c([O-])coc2=O)c1

>  <Energy>  (36) 
61.59566210130483

>  <Genealogy>  (36) 
Cc1cccc([NH2+]Cn2c([O-])coc2=O)c1 (protonated)
Cc1cccc([NH2+]Cn2c([O-])coc2=O)c1 (3D coordinates assigned)
Cc1cccc([NH2+]Cn2c([O-])coc2=O)c1 (optimized conformer: 61.59566210130483 kcal/mol)

>  <smiles>  (36) 
Cc1cccc(NCn2c(O)coc2=O)c1

>  <score_type>  (36) 
oracle

>  <origin>  (36) 
adg

>  <m_score__min__energy>  (36) 
-7.3799999999999999

>  <m_primary>  (36) 
energy

$$$$
36:0
     RDKit          3D

 47 48  0  0  0  0  0  0  0  0999 V2000
   58.1380   26.9060   42.9020 C   0  0  0  0  0  0  0  0  0  0  0  0
   57.7530   26.0200   44.0910 C   0  0  0  0  0  0  0  0  0  0  0  0
   57.3890   26.7890   45.2950 N   0  0  0  0  0  0  0  0  0  0  0  0
   56.6290   26.0890   46.3440 C   0  0  0  0  0  0  0  0  0  0  0  0
   57.4880   25.0490   47.0510 C   0  0  0  0  0  0  0  0  0  0  0  0
   58.1930   27.9120   45.7000 C   0  0  0  0  0  0  0  0  0  0  0  0
   59.4430   27.6660   46.2850 C   0  0  0  0  0  0  0  0  0  0  0  0
   60.2440   28.7180   46.7250 C   0  0  0  0  0  0  0  0  0  0  0  0
   59.8120   30.0440   46.5850 C   0  0  0  0  0  0  0  0  0  0  0  0
   60.6540   31.1650   47.0650 C   0  0  0  0  0  0  0  0  0  0  0  0
   61.8560   30.9450   47.3780 O   0  0  0  0  0  0  0  0  0  0  0  0
   60.1370   32.5050   47.1580 N   0  0  0  0  0  0  0  0  0  0  0  0
   61.0220   33.6350   46.8570 C   0  0  0  0  0  0  0  0  0  0  0  0
   60.2540   34.9650   46.9130 C   0  0  0  0  0  0  0  0  0  0  0  0
   58.9000   34.8440   46.3340 N   0  0  0  0  0  0  0  0  0  0  0  0
   58.9430   34.6250   44.8780 C   0  0  0  0  0  0  0  0  0  0  0  0
   58.0530   33.8350   47.0230 C   0  0  0  0  0  0  0  0  0  0  0  0
   58.8480   32.7700   47.8040 C   0  0  0  0  0  0  0  0  0  0  0  0
   58.5550   30.2970   46.0140 C   0  0  0  0  0  0  0  0  0  0  0  0
   57.7380   29.2470   45.5530 C   0  0  0  0  0  0  0  0  0  0  0  0
   56.4660   29.5550   44.9470 N   0  0  0  0  0  0  0  0  0  0  0  0
   55.5650   28.6920   44.9020 O   0  0  0  0  0  0  0  0  0  0  0  0
   56.1860   30.8190   44.4850 O   0  0  0  0  0  0  0  0  0  0  0  0
   58.5509   27.8563   43.2714 H   0  0  0  0  0  0  0  0  0  0  0  0
   58.8935   26.3910   42.2904 H   0  0  0  0  0  0  0  0  0  0  0  0
   57.2460   27.1069   42.2904 H   0  0  0  0  0  0  0  0  0  0  0  0
   56.8932   25.3987   43.7999 H   0  0  0  0  0  0  0  0  0  0  0  0
   58.6345   25.4131   44.3451 H   0  0  0  0  0  0  0  0  0  0  0  0
   56.2770   26.8245   47.0823 H   0  0  0  0  0  0  0  0  0  0  0  0
   55.7797   25.5738   45.8714 H   0  0  0  0  0  0  0  0  0  0  0  0
   57.3882   25.1698   48.1398 H   0  0  0  0  0  0  0  0  0  0  0  0
   57.1556   24.0410   46.7619 H   0  0  0  0  0  0  0  0  0  0  0  0
   58.5406   25.1850   46.7619 H   0  0  0  0  0  0  0  0  0  0  0  0
   59.7957   26.6302   46.3981 H   0  0  0  0  0  0  0  0  0  0  0  0
   61.2207   28.5066   47.1847 H   0  0  0  0  0  0  0  0  0  0  0  0
   61.8380   33.6593   47.5942 H   0  0  0  0  0  0  0  0  0  0  0  0
   61.4244   33.5047   45.8416 H   0  0  0  0  0  0  0  0  0  0  0  0
   60.1649   35.2803   47.9631 H   0  0  0  0  0  0  0  0  0  0  0  0
   60.8124   35.7063   46.3225 H   0  0  0  0  0  0  0  0  0  0  0  0
   59.1512   33.5646   44.6727 H   0  0  0  0  0  0  0  0  0  0  0  0
   57.9736   34.9004   44.4370 H   0  0  0  0  0  0  0  0  0  0  0  0
   59.7363   35.2465   44.4370 H   0  0  0  0  0  0  0  0  0  0  0  0
   57.3951   34.3617   47.7300 H   0  0  0  0  0  0  0  0  0  0  0  0
   57.4958   33.3015   46.2388 H   0  0  0  0  0  0  0  0  0  0  0  0
   59.0252   33.1311   48.8278 H   0  0  0  0  0  0  0  0  0  0  0  0
   58.2646   31.8377   47.8224 H   0  0  0  0  0  0  0  0  0  0  0  0
   58.2016   31.3349   45.9250 H   0  0  0  0  0  0  0  0  0  0  0  0
  1  2  1  0
  2  3  1  0
  3  4  1  0
  4  5  1  0
  3  6  1  0
  6  7  2  0
  7  8  1  0
  8  9  2  0
  9 10  1  0
 10 11  2  0
 10 12  1  0
 12 13  1  0
 13 14  1  0
 14 15  1  0
 15 16  1  0
 15 17  1  0
 17 18  1  0
  9 19  1  0
 19 20  2  0
 20 21  1  0
 21 22  2  0
 21 23  1  0
 20  6  1  0
 18 12  1  0
  1 24  1  0
  1 25  1  0
  1 26  1  0
  2 27  1  0
  2 28  1  0
  4 29  1  0
  4 30  1  0
  5 31  1  0
  5 32  1  0
  5 33  1  0
  7 34  1  0
  8 35  1  0
 13 36  1  0
 13 37  1  0
 14 38  1  0
 14 39  1  0
 16 40  1  0
 16 41  1  0
 16 42  1  0
 17 43  1  0
 17 44  1  0
 18 45  1  0
 18 46  1  0
 19 47  1  0
M  CHG  2  21   1  23  -1
M  END
>  <UniqueID>  (37) 
36

>  <SMILES>  (37) 
CCN(CC)c1ccc(C(=O)N2CCN(C)CC2)cc1[N+](=O)[O-]

>  <Energy>  (37) 
62.41160063090494

>  <Genealogy>  (37) 
CCN(CC)c1ccc(C(=O)N2CCN(C)CC2)cc1[N+](=O)[O-] (3D coordinates assigned)
CCN(CC)c1ccc(C(=O)N2CCN(C)CC2)cc1[N+](=O)[O-] (nonaromatic ring conformer: 62.41160063090494 kcal/mol)

>  <smiles>  (37) 
CCN(CC)c1ccc(C(=O)N2CCN(C)CC2)cc1[N+](=O)[O-]

>  <score_type>  (37) 
oracle

>  <origin>  (37) 
adg

>  <m_score__min__energy>  (37) 
-7.4699999999999998

>  <m_primary>  (37) 
energy

$$$$
37:0
     RDKit          3D

 54 58  0  0  0  0  0  0  0  0999 V2000
   59.6070   34.4200   46.5720 C   0  0  0  0  0  0  0  0  0  0  0  0
   59.0810   33.8070   45.4000 O   0  0  0  0  0  0  0  0  0  0  0  0
   58.4790   32.5350   45.3730 C   0  0  0  0  0  0  0  0  0  0  0  0
   57.1960   32.3240   44.8080 C   0  0  0  0  0  0  0  0  0  0  0  0
   56.6830   31.0320   44.8090 C   0  0  0  0  0  0  0  0  0  0  0  0
   55.5170   30.6180   44.2910 N   0  0  0  0  0  0  0  0  0  0  0  0
   55.4410   29.3060   44.4900 N   0  0  0  0  0  0  0  0  0  0  0  0
   56.5540   28.8890   45.1350 C   0  0  0  0  0  0  0  0  0  0  0  0
   56.7890   27.4900   45.5210 C   0  0  0  0  0  0  0  0  0  0  0  0
   55.8470   26.7070   46.1130 N   0  0  0  0  0  0  0  0  0  0  0  0
   56.4870   25.5370   46.2520 C   0  0  0  0  0  0  0  0  0  0  0  0
   55.9930   24.3540   46.7990 C   0  0  0  0  0  0  0  0  0  0  0  0
   56.8550   23.2360   46.8370 C   0  0  0  0  0  0  0  0  0  0  0  0
   56.3940   21.9880   47.3850 N   0  0  0  0  0  0  0  0  0  0  0  0
   55.2040   21.9610   48.2440 C   0  0  0  0  0  0  0  0  0  0  0  0
   54.1410   20.9910   47.7100 C   0  0  0  0  0  0  0  0  0  0  0  0
   54.0780   20.9910   46.1700 C   0  0  0  0  0  0  0  0  0  0  0  0
   55.2450   20.3620   45.5040 N   0  0  0  0  0  0  0  0  0  0  0  0
   55.8950   21.3010   44.5730 C   0  0  0  0  0  0  0  0  0  0  0  0
   56.2530   19.7400   46.3940 C   0  0  0  0  0  0  0  0  0  0  0  0
   57.1450   20.7540   47.1230 C   0  0  0  0  0  0  0  0  0  0  0  0
   58.1810   23.3520   46.3460 C   0  0  0  0  0  0  0  0  0  0  0  0
   58.6390   24.5620   45.7980 C   0  0  0  0  0  0  0  0  0  0  0  0
   57.7520   25.6320   45.7630 C   0  0  0  0  0  0  0  0  0  0  0  0
   57.9740   26.8650   45.2870 N   0  0  0  0  0  0  0  0  0  0  0  0
   57.3680   29.9830   45.3470 C   0  0  0  0  0  0  0  0  0  0  0  0
   58.6290   30.1410   45.9150 C   0  0  0  0  0  0  0  0  0  0  0  0
   59.2010   31.4400   45.9170 C   0  0  0  0  0  0  0  0  0  0  0  0
   60.4810   31.6830   46.4310 O   0  0  0  0  0  0  0  0  0  0  0  0
   61.2750   30.7160   47.1110 C   0  0  0  0  0  0  0  0  0  0  0  0
   59.1864   33.9299   47.4624 H   0  0  0  0  0  0  0  0  0  0  0  0
   60.7021   34.3171   46.5796 H   0  0  0  0  0  0  0  0  0  0  0  0
   59.3389   35.4868   46.5796 H   0  0  0  0  0  0  0  0  0  0  0  0
   56.6223   33.1596   44.3806 H   0  0  0  0  0  0  0  0  0  0  0  0
   54.9659   24.2932   47.1881 H   0  0  0  0  0  0  0  0  0  0  0  0
   55.5008   21.6437   49.2546 H   0  0  0  0  0  0  0  0  0  0  0  0
   54.7694   22.9714   48.2601 H   0  0  0  0  0  0  0  0  0  0  0  0
   54.3826   19.9749   48.0552 H   0  0  0  0  0  0  0  0  0  0  0  0
   53.1619   21.3189   48.0892 H   0  0  0  0  0  0  0  0  0  0  0  0
   53.1731   20.4457   45.8637 H   0  0  0  0  0  0  0  0  0  0  0  0
   54.0724   22.0459   45.8583 H   0  0  0  0  0  0  0  0  0  0  0  0
   56.4297   22.0735   45.1452 H   0  0  0  0  0  0  0  0  0  0  0  0
   56.6087   20.7541   43.9394 H   0  0  0  0  0  0  0  0  0  0  0  0
   55.1318   21.7765   43.9394 H   0  0  0  0  0  0  0  0  0  0  0  0
   55.7253   19.1373   47.1478 H   0  0  0  0  0  0  0  0  0  0  0  0
   56.9126   19.1331   45.7563 H   0  0  0  0  0  0  0  0  0  0  0  0
   57.4813   20.3229   48.0775 H   0  0  0  0  0  0  0  0  0  0  0  0
   58.0148   20.9884   46.4917 H   0  0  0  0  0  0  0  0  0  0  0  0
   58.8574   22.4859   46.3948 H   0  0  0  0  0  0  0  0  0  0  0  0
   59.6637   24.6593   45.4101 H   0  0  0  0  0  0  0  0  0  0  0  0
   59.1660   29.2848   46.3493 H   0  0  0  0  0  0  0  0  0  0  0  0
   61.1652   30.8498   48.1973 H   0  0  0  0  0  0  0  0  0  0  0  0
   60.9424   29.7057   46.8305 H   0  0  0  0  0  0  0  0  0  0  0  0
   62.3307   30.8456   46.8305 H   0  0  0  0  0  0  0  0  0  0  0  0
  1  2  1  0
  2  3  1  0
  3  4  2  0
  4  5  1  0
  5  6  2  0
  6  7  1  0
  7  8  1  0
  8  9  1  0
  9 10  2  0
 10 11  1  0
 11 12  2  0
 12 13  1  0
 13 14  1  0
 14 15  1  0
 15 16  1  0
 16 17  1  0
 17 18  1  0
 18 19  1  0
 18 20  1  0
 20 21  1  0
 13 22  2  0
 22 23  1  0
 23 24  2  0
 24 25  1  0
  8 26  2  0
 26 27  1  0
 27 28  2  0
 28 29  1  0
 29 30  1  0
 28  3  1  0
 26  5  1  0
 25  9  1  0
 24 11  1  0
 21 14  1  0
  1 31  1  0
  1 32  1  0
  1 33  1  0
  4 34  1  0
 12 35  1  0
 15 36  1  0
 15 37  1  0
 16 38  1  0
 16 39  1  0
 17 40  1  0
 17 41  1  0
 19 42  1  0
 19 43  1  0
 19 44  1  0
 20 45  1  0
 20 46  1  0
 21 47  1  0
 21 48  1  0
 22 49  1  0
 23 50  1  0
 27 51  1  0
 30 52  1  0
 30 53  1  0
 30 54  1  0
M  CHG  2   7  -1  25  -1
M  END
>  <UniqueID>  (38) 
37

>  <SMILES>  (38) 
COc1cc2n[n-]c(-c3nc4cc(N5CCCN(C)CC5)ccc4[n-]3)c2cc1OC

>  <Energy>  (38) 
144.09221416579436

>  <Genealogy>  (38) 
COc1cc2n[n-]c(-c3nc4cc(N5CCCN(C)CC5)ccc4[n-]3)c2cc1OC (protonated)
COc1cc2n[n-]c(-c3nc4cc(N5CCCN(C)CC5)ccc4[n-]3)c2cc1OC (3D coordinates assigned)
COc1cc2n[n-]c(-c3nc4cc(N5CCCN(C)CC5)ccc4[n-]3)c2cc1OC (nonaromatic ring conformer: 144.09221416579436 kcal/mol)

>  <smiles>  (38) 
COc1cc2n[nH]c(-c3nc4cc(N5CCCN(C)CC5)ccc4[nH]3)c2cc1OC

>  <score_type>  (38) 
oracle

>  <origin>  (38) 
adg

>  <m_score__min__energy>  (38) 
-10.039999999999999

>  <m_primary>  (38) 
energy

$$$$
38:0
     RDKit          3D

 44 45  0  0  0  0  0  0  0  0999 V2000
   57.3450   31.5670   42.8960 C   0  0  0  0  0  0  0  0  0  0  0  0
   56.4680   30.3650   42.5590 C   0  0  0  0  0  0  0  0  0  0  0  0
   55.7910   29.8050   43.8150 C   0  0  0  0  0  0  0  0  0  0  0  0
   56.7270   28.9770   44.5780 N   0  0  0  0  0  0  0  0  0  0  0  0
   57.7740   29.4880   45.4230 C   0  0  0  0  0  0  0  0  0  0  0  0
   58.8330   28.6880   45.8750 C   0  0  0  0  0  0  0  0  0  0  0  0
   59.8130   29.2480   46.6890 C   0  0  0  0  0  0  0  0  0  0  0  0
   59.7240   30.5990   47.0420 C   0  0  0  0  0  0  0  0  0  0  0  0
   60.7090   31.1960   47.9050 N   0  0  0  0  0  0  0  0  0  0  0  0
   62.1240   31.2310   47.4970 C   0  0  0  0  0  0  0  0  0  0  0  0
   62.7600   32.6200   47.6810 C   0  0  0  0  0  0  0  0  0  0  0  0
   61.8760   33.7690   47.1510 C   0  0  0  0  0  0  0  0  0  0  0  0
   60.5470   33.8330   47.7940 N   0  0  0  0  0  0  0  0  0  0  0  0
   59.4370   34.4550   47.1080 C   0  0  0  0  0  0  0  0  0  0  0  0
   59.6520   35.4460   46.0050 C   0  0  0  0  0  0  0  0  0  0  0  0
   58.2540   34.1940   47.4590 O   0  0  0  0  0  0  0  0  0  0  0  0
   60.3560   33.3190   49.1630 C   0  0  0  0  0  0  0  0  0  0  0  0
   60.2880   31.7800   49.1870 C   0  0  0  0  0  0  0  0  0  0  0  0
   58.6800   31.3370   46.5720 N   0  0  0  0  0  0  0  0  0  0  0  0
   57.7430   30.7970   45.7900 N   0  0  0  0  0  0  0  0  0  0  0  0
   57.4208   31.6708   43.9885 H   0  0  0  0  0  0  0  0  0  0  0  0
   58.3488   31.4190   42.4713 H   0  0  0  0  0  0  0  0  0  0  0  0
   56.8977   32.4778   42.4713 H   0  0  0  0  0  0  0  0  0  0  0  0
   55.6938   30.6752   41.8418 H   0  0  0  0  0  0  0  0  0  0  0  0
   57.1044   29.5792   42.1259 H   0  0  0  0  0  0  0  0  0  0  0  0
   55.4502   30.6399   44.4450 H   0  0  0  0  0  0  0  0  0  0  0  0
   54.9351   29.1848   43.5105 H   0  0  0  0  0  0  0  0  0  0  0  0
   56.6180   27.9400   44.5110 H   0  0  0  0  0  0  0  0  0  0  0  0
   58.8887   27.6273   45.5888 H   0  0  0  0  0  0  0  0  0  0  0  0
   60.6504   28.6338   47.0518 H   0  0  0  0  0  0  0  0  0  0  0  0
   62.6836   30.5043   48.1043 H   0  0  0  0  0  0  0  0  0  0  0  0
   62.1675   30.9845   46.4259 H   0  0  0  0  0  0  0  0  0  0  0  0
   62.9390   32.7831   48.7540 H   0  0  0  0  0  0  0  0  0  0  0  0
   63.6938   32.6314   47.0997 H   0  0  0  0  0  0  0  0  0  0  0  0
   62.3967   34.7210   47.3316 H   0  0  0  0  0  0  0  0  0  0  0  0
   61.7093   33.5822   46.0799 H   0  0  0  0  0  0  0  0  0  0  0  0
   59.8665   36.4346   46.4370 H   0  0  0  0  0  0  0  0  0  0  0  0
   60.5014   35.1250   45.3841 H   0  0  0  0  0  0  0  0  0  0  0  0
   58.7460   35.5059   45.3841 H   0  0  0  0  0  0  0  0  0  0  0  0
   61.1983   33.6488   49.7888 H   0  0  0  0  0  0  0  0  0  0  0  0
   59.4032   33.7114   49.5479 H   0  0  0  0  0  0  0  0  0  0  0  0
   60.9491   31.4065   49.9829 H   0  0  0  0  0  0  0  0  0  0  0  0
   59.2440   31.4862   49.3708 H   0  0  0  0  0  0  0  0  0  0  0  0
   58.6090   32.3510   46.8110 H   0  0  0  0  0  0  0  0  0  0  0  0
  1  2  1  0
  2  3  1  0
  3  4  1  0
  4  5  1  0
  5  6  2  0
  6  7  1  0
  7  8  2  0
  8  9  1  0
  9 10  1  0
 10 11  1  0
 11 12  1  0
 12 13  1  0
 13 14  1  0
 14 15  1  0
 14 16  2  0
 13 17  1  0
 17 18  1  0
  8 19  1  0
 19 20  2  0
 20  5  1  0
 18  9  1  0
  1 21  1  0
  1 22  1  0
  1 23  1  0
  2 24  1  0
  2 25  1  0
  3 26  1  0
  3 27  1  0
  4 28  1  0
  6 29  1  0
  7 30  1  0
 10 31  1  0
 10 32  1  0
 11 33  1  0
 11 34  1  0
 12 35  1  0
 12 36  1  0
 15 37  1  0
 15 38  1  0
 15 39  1  0
 17 40  1  0
 17 41  1  0
 18 42  1  0
 18 43  1  0
 19 44  1  0
M  CHG  1  19   1
M  END
>  <UniqueID>  (39) 
38

>  <SMILES>  (39) 
CCCNc1ccc(N2CCCN(C(C)=O)CC2)[nH+]n1

>  <Energy>  (39) 
45.58635100324664

>  <Genealogy>  (39) 
CCCNc1ccc(N2CCCN(C(C)=O)CC2)[nH+]n1 (protonated)
CCCNc1ccc(N2CCCN(C(C)=O)CC2)[nH+]n1 (3D coordinates assigned)
CCCNc1ccc(N2CCCN(C(C)=O)CC2)[nH+]n1 (nonaromatic ring conformer: 45.58635100324664 kcal/mol)

>  <smiles>  (39) 
CCCNc1ccc(N2CCCN(C(C)=O)CC2)nn1

>  <score_type>  (39) 
oracle

>  <origin>  (39) 
adg

>  <m_score__min__energy>  (39) 
-3.5899999999999999

>  <m_primary>  (39) 
energy

$$$$
39:0
     RDKit          3D

 49 52  0  0  0  0  0  0  0  0999 V2000
   56.6380   31.1800   45.6230 H   0  0  0  0  0  0  0  0  0  0  0  0
   56.2260   30.9040   44.7620 O   0  0  0  0  0  0  0  0  0  0  0  0
   57.0900   31.3310   43.7430 C   0  0  0  0  0  0  0  0  0  0  0  0
   56.5184   31.4477   42.8105 H   0  0  0  0  0  0  0  0  0  0  0  0
   57.8826   30.5792   43.6138 H   0  0  0  0  0  0  0  0  0  0  0  0
   57.7380   32.6720   44.1070 C   0  0  0  0  0  0  0  0  0  0  0  0
   57.7167   33.3237   43.2211 H   0  0  0  0  0  0  0  0  0  0  0  0
   58.7660   32.4622   44.4373 H   0  0  0  0  0  0  0  0  0  0  0  0
   57.0240   33.3880   45.2570 C   0  0  0  0  0  0  0  0  0  0  0  0
   55.9483   33.1621   45.2133 H   0  0  0  0  0  0  0  0  0  0  0  0
   57.1850   34.4718   45.1594 H   0  0  0  0  0  0  0  0  0  0  0  0
   57.5590   32.9410   46.5410 N   0  0  0  0  0  0  0  0  0  0  0  0
   58.4880   32.0420   46.6680 C   0  0  0  0  0  0  0  0  0  0  0  0
   58.2100   30.7100   46.5170 N   0  0  0  0  0  0  0  0  0  0  0  0
   59.1650   29.7310   46.6410 C   0  0  0  0  0  0  0  0  0  0  0  0
   58.7690   28.3100   46.4600 C   0  0  0  0  0  0  0  0  0  0  0  0
   57.5330   28.0000   45.8670 C   0  0  0  0  0  0  0  0  0  0  0  0
   56.8617   28.8123   45.5515 H   0  0  0  0  0  0  0  0  0  0  0  0
   57.1480   26.6710   45.6740 C   0  0  0  0  0  0  0  0  0  0  0  0
   56.1716   26.4473   45.2194 H   0  0  0  0  0  0  0  0  0  0  0  0
   57.9960   25.6170   46.0550 C   0  0  0  0  0  0  0  0  0  0  0  0
   57.5760   24.2110   45.8410 C   0  0  0  0  0  0  0  0  0  0  0  0
   57.7930   23.3570   46.7430 O   0  0  0  0  0  0  0  0  0  0  0  0
   56.9110   23.8090   44.6350 N   0  0  0  0  0  0  0  0  0  0  0  0
   56.5240   24.5300   43.9860 H   0  0  0  0  0  0  0  0  0  0  0  0
   56.5770   22.4110   44.3800 C   0  0  0  0  0  0  0  0  0  0  0  0
   55.8206   22.2992   45.1708 H   0  0  0  0  0  0  0  0  0  0  0  0
   56.6680   22.0170   42.9150 C   0  0  0  0  0  0  0  0  0  0  0  0
   55.9742   21.2699   42.5021 H   0  0  0  0  0  0  0  0  0  0  0  0
   56.6488   22.5623   41.9599 H   0  0  0  0  0  0  0  0  0  0  0  0
   57.7560   21.5890   43.8880 C   0  0  0  0  0  0  0  0  0  0  0  0
   57.8493   20.5322   44.1787 H   0  0  0  0  0  0  0  0  0  0  0  0
   58.8500   21.6965   43.9281 H   0  0  0  0  0  0  0  0  0  0  0  0
   59.2300   25.9250   46.6530 C   0  0  0  0  0  0  0  0  0  0  0  0
   59.8994   25.1120   46.9707 H   0  0  0  0  0  0  0  0  0  0  0  0
   59.6150   27.2550   46.8480 C   0  0  0  0  0  0  0  0  0  0  0  0
   60.5884   27.4785   47.3091 H   0  0  0  0  0  0  0  0  0  0  0  0
   60.4970   30.0960   46.9540 C   0  0  0  0  0  0  0  0  0  0  0  0
   61.2845   29.3374   47.0745 H   0  0  0  0  0  0  0  0  0  0  0  0
   60.7700   31.4510   47.1030 C   0  0  0  0  0  0  0  0  0  0  0  0
   61.9540   32.0190   47.4050 N   0  0  0  0  0  0  0  0  0  0  0  0
   61.6590   33.3450   47.4370 C   0  0  0  0  0  0  0  0  0  0  0  0
   62.4023   34.1255   47.6566 H   0  0  0  0  0  0  0  0  0  0  0  0
   60.3560   33.6090   47.1710 N   0  0  0  0  0  0  0  0  0  0  0  0
   59.7160   34.9200   47.1550 C   0  0  0  0  0  0  0  0  0  0  0  0
   59.5502   35.2597   48.1880 H   0  0  0  0  0  0  0  0  0  0  0  0
   60.3648   35.6384   46.6325 H   0  0  0  0  0  0  0  0  0  0  0  0
   58.7505   34.8504   46.6325 H   0  0  0  0  0  0  0  0  0  0  0  0
   59.8050   32.4000   46.9640 C   0  0  0  0  0  0  0  0  0  0  0  0
  1  2  1  0
  2  3  1  0
  3  4  1  0
  3  5  1  0
  3  6  1  0
  6  7  1  0
  6  8  1  0
  6  9  1  0
  9 10  1  0
  9 11  1  0
  9 12  1  0
 12 13  2  0
 13 14  1  0
 14 15  1  0
 15 16  1  0
 16 17  2  0
 17 18  1  0
 17 19  1  0
 19 20  1  0
 19 21  2  0
 21 22  1  0
 22 23  2  0
 22 24  1  0
 24 25  1  0
 24 26  1  0
 26 27  1  0
 26 28  1  0
 28 29  1  0
 28 30  1  0
 28 31  1  0
 31 32  1  0
 31 33  1  0
 21 34  1  0
 34 35  1  0
 34 36  2  0
 36 37  1  0
 15 38  2  0
 38 39  1  0
 38 40  1  0
 40 41  1  0
 41 42  2  0
 42 43  1  0
 42 44  1  0
 44 45  1  0
 45 46  1  0
 45 47  1  0
 45 48  1  0
 44 49  1  0
 49 13  1  0
 36 16  1  0
 49 40  2  0
 31 26  1  0
M  CHG  1  14  -1
M  END
>  <UniqueID>  (40) 
39

>  <SMILES>  (40) 
Cn1cnc2cc(-c3ccc(C(=O)NC4CC4)cc3)[n-]/c(=N\CCCO)c21

>  <Energy>  (40) 
354.08740977349026

>  <Genealogy>  (40) 
Cn1cnc2cc(-c3ccc(C(=O)NC4CC4)cc3)[n-]c(=NCCCO)c21 (protonated)
Cn1cnc2cc(-c3ccc(C(=O)NC4CC4)cc3)[n-]/c(=N\CCCO)c21 (cis-trans isomerization)
Cn1cnc2cc(-c3ccc(C(=O)NC4CC4)cc3)[n-]/c(=N\CCCO)c21 (3D coordinates assigned)
Cn1cnc2cc(-c3ccc(C(=O)NC4CC4)cc3)[n-]/c(=N\CCCO)c21 (nonaromatic ring conformer: 354.08740977349026 kcal/mol)

>  <smiles>  (40) 
Cn1cnc2cc(-c3ccc(C(=O)NC4CC4)cc3)[nH]c(=NCCCO)c21

>  <score_type>  (40) 
oracle

>  <origin>  (40) 
adg

>  <m_score__min__energy>  (40) 
-8.9199999999999999

>  <m_primary>  (40) 
energy

$$$$
40:0
     RDKit          3D

 38 39  0  0  0  0  0  0  0  0999 V2000
   61.0850   33.8480   46.6000 C   0  0  0  0  0  0  0  0  0  0  0  0
   59.7520   34.5160   46.9330 C   0  0  0  0  0  0  0  0  0  0  0  0
   58.6460   33.4920   47.2530 C   0  0  0  0  0  0  0  0  0  0  0  0
   58.1330   32.8760   46.0100 N   0  0  0  0  0  0  0  0  0  0  0  0
   57.0960   33.6870   45.3520 C   0  0  0  0  0  0  0  0  0  0  0  0
   57.7750   31.4430   46.1390 C   0  0  0  0  0  0  0  0  0  0  0  0
   57.5280   30.6870   44.8010 C   0  0  1  0  0  0  0  0  0  0  0  0
   58.8570   30.3660   44.0910 C   0  0  0  0  0  0  0  0  0  0  0  0
   59.7060   29.3420   44.8640 C   0  0  0  0  0  0  0  0  0  0  0  0
   58.9100   28.1420   45.3280 C   0  0  0  0  0  0  0  0  0  0  0  0
   59.6000   26.9890   45.7330 C   0  0  0  0  0  0  0  0  0  0  0  0
   58.9030   25.8740   46.2000 C   0  0  0  0  0  0  0  0  0  0  0  0
   57.5110   25.9000   46.2790 C   0  0  0  0  0  0  0  0  0  0  0  0
   56.8420   24.8140   46.7380 F   0  0  0  0  0  0  0  0  0  0  0  0
   56.8060   27.0450   45.8940 C   0  0  0  0  0  0  0  0  0  0  0  0
   55.4520   27.0470   46.0010 F   0  0  0  0  0  0  0  0  0  0  0  0
   57.4980   28.1790   45.4210 C   0  0  0  0  0  0  0  0  0  0  0  0
   56.7740   29.4000   44.9970 C   0  0  0  0  0  0  0  0  0  0  0  0
   55.5350   29.3670   44.7650 O   0  0  0  0  0  0  0  0  0  0  0  0
   61.6070   33.5864   47.5322 H   0  0  0  0  0  0  0  0  0  0  0  0
   60.9015   32.9353   46.0140 H   0  0  0  0  0  0  0  0  0  0  0  0
   61.7063   34.5413   46.0140 H   0  0  0  0  0  0  0  0  0  0  0  0
   59.8926   35.1689   47.8070 H   0  0  0  0  0  0  0  0  0  0  0  0
   59.4337   35.0886   46.0494 H   0  0  0  0  0  0  0  0  0  0  0  0
   59.0579   32.7059   47.9030 H   0  0  0  0  0  0  0  0  0  0  0  0
   57.8187   34.0098   47.7604 H   0  0  0  0  0  0  0  0  0  0  0  0
   56.4724   34.1747   46.1157 H   0  0  0  0  0  0  0  0  0  0  0  0
   57.5736   34.4537   44.7242 H   0  0  0  0  0  0  0  0  0  0  0  0
   56.4670   33.0388   44.7242 H   0  0  0  0  0  0  0  0  0  0  0  0
   58.5955   30.9357   46.6676 H   0  0  0  0  0  0  0  0  0  0  0  0
   56.8165   31.4203   46.6781 H   0  0  0  0  0  0  0  0  0  0  0  0
   56.9197   31.3631   44.1823 H   0  0  0  0  0  0  0  0  0  0  0  0
   58.6347   29.9587   43.0937 H   0  0  0  0  0  0  0  0  0  0  0  0
   59.4356   31.2994   44.0271 H   0  0  0  0  0  0  0  0  0  0  0  0
   60.5164   28.9922   44.2076 H   0  0  0  0  0  0  0  0  0  0  0  0
   60.0925   29.8467   45.7617 H   0  0  0  0  0  0  0  0  0  0  0  0
   60.6985   26.9640   45.6819 H   0  0  0  0  0  0  0  0  0  0  0  0
   59.4531   24.9721   46.5066 H   0  0  0  0  0  0  0  0  0  0  0  0
  1  2  1  0
  2  3  1  0
  3  4  1  0
  4  5  1  0
  4  6  1  0
  6  7  1  0
  7  8  1  0
  8  9  1  0
  9 10  1  0
 10 11  2  0
 11 12  1  0
 12 13  2  0
 13 14  1  0
 13 15  1  0
 15 16  1  0
 15 17  2  0
 17 18  1  0
 18 19  2  0
 18  7  1  0
 17 10  1  0
  1 20  1  0
  1 21  1  0
  1 22  1  0
  2 23  1  0
  2 24  1  0
  3 25  1  0
  3 26  1  0
  5 27  1  0
  5 28  1  0
  5 29  1  0
  6 30  1  0
  6 31  1  0
  7 32  1  6
  8 33  1  0
  8 34  1  0
  9 35  1  0
  9 36  1  0
 11 37  1  0
 12 38  1  0
M  END
>  <UniqueID>  (41) 
40

>  <SMILES>  (41) 
CCCN(C)C[C@H]1CCc2ccc(F)c(F)c2C1=O

>  <Energy>  (41) 
43.86059942816999

>  <Genealogy>  (41) 
CCCN(C)C[C@H]1CCc2ccc(F)c(F)c2C1=O (chirality)
CCCN(C)C[C@H]1CCc2ccc(F)c(F)c2C1=O (3D coordinates assigned)
CCCN(C)C[C@H]1CCc2ccc(F)c(F)c2C1=O (nonaromatic ring conformer: 43.86059942816999 kcal/mol)

>  <smiles>  (41) 
CCCN(C)CC1CCc2ccc(F)c(F)c2C1=O

>  <score_type>  (41) 
oracle

>  <origin>  (41) 
adg

>  <m_score__min__energy>  (41) 
-6.8499999999999996

>  <m_primary>  (41) 
energy

$$$$
41:0
     RDKit          3D

 36 38  0  0  0  0  0  0  0  0999 V2000
   63.0420   33.8240   49.3990 C   0  0  0  0  0  0  0  0  0  0  0  0
   61.8450   34.5560   49.1560 O   0  0  0  0  0  0  0  0  0  0  0  0
   60.8830   34.2040   48.1960 C   0  0  0  0  0  0  0  0  0  0  0  0
   59.5630   33.8640   48.5410 C   0  0  0  0  0  0  0  0  0  0  0  0
   58.6410   33.5190   47.5480 C   0  0  0  0  0  0  0  0  0  0  0  0
   59.0210   33.5080   46.1920 C   0  0  0  0  0  0  0  0  0  0  0  0
   58.0320   33.1330   45.1060 C   0  0  2  0  0  0  0  0  0  0  0  0
   56.7130   33.9000   45.2630 C   0  0  0  0  0  0  0  0  0  0  0  0
   57.8210   31.6410   45.0770 C   0  0  0  0  0  0  0  0  0  0  0  0
   56.5830   31.1160   44.8590 N   0  0  0  0  0  0  0  0  0  0  0  0
   56.3670   29.7760   44.8720 C   0  0  0  0  0  0  0  0  0  0  0  0
   55.2050   29.3370   44.6580 O   0  0  0  0  0  0  0  0  0  0  0  0
   57.4350   28.9010   45.1250 C   0  0  0  0  0  0  0  0  0  0  0  0
   57.2790   27.5040   45.1520 C   0  0  0  0  0  0  0  0  0  0  0  0
   58.3790   26.6830   45.4140 C   0  0  0  0  0  0  0  0  0  0  0  0
   59.6380   27.2440   45.6500 C   0  0  0  0  0  0  0  0  0  0  0  0
   59.8030   28.6330   45.6250 C   0  0  0  0  0  0  0  0  0  0  0  0
   58.7080   29.4630   45.3620 C   0  0  0  0  0  0  0  0  0  0  0  0
   58.8670   30.8120   45.3370 N   0  0  0  0  0  0  0  0  0  0  0  0
   60.3410   33.8490   45.8560 C   0  0  0  0  0  0  0  0  0  0  0  0
   61.2610   34.1940   46.8490 C   0  0  0  0  0  0  0  0  0  0  0  0
   63.1992   33.7278   50.4834 H   0  0  0  0  0  0  0  0  0  0  0  0
   62.9571   32.8231   48.9506 H   0  0  0  0  0  0  0  0  0  0  0  0
   63.8943   34.3556   48.9506 H   0  0  0  0  0  0  0  0  0  0  0  0
   59.2543   33.8694   49.5968 H   0  0  0  0  0  0  0  0  0  0  0  0
   57.6108   33.2541   47.8282 H   0  0  0  0  0  0  0  0  0  0  0  0
   58.4545   33.4278   44.1341 H   0  0  0  0  0  0  0  0  0  0  0  0
   56.4895   34.0300   46.3322 H   0  0  0  0  0  0  0  0  0  0  0  0
   56.8033   34.8865   44.7847 H   0  0  0  0  0  0  0  0  0  0  0  0
   55.9003   33.3336   44.7847 H   0  0  0  0  0  0  0  0  0  0  0  0
   56.2910   27.0573   44.9669 H   0  0  0  0  0  0  0  0  0  0  0  0
   58.2540   25.5903   45.4347 H   0  0  0  0  0  0  0  0  0  0  0  0
   60.4999   26.5922   45.8556 H   0  0  0  0  0  0  0  0  0  0  0  0
   60.7938   29.0726   45.8122 H   0  0  0  0  0  0  0  0  0  0  0  0
   60.6535   33.8444   44.8013 H   0  0  0  0  0  0  0  0  0  0  0  0
   62.2911   34.4600   46.5696 H   0  0  0  0  0  0  0  0  0  0  0  0
  1  2  1  0
  2  3  1  0
  3  4  2  0
  4  5  1  0
  5  6  2  0
  6  7  1  0
  7  8  1  0
  7  9  1  0
  9 10  2  0
 10 11  1  0
 11 12  2  0
 11 13  1  0
 13 14  2  0
 14 15  1  0
 15 16  2  0
 16 17  1  0
 17 18  2  0
 18 19  1  0
  6 20  1  0
 20 21  2  0
 21  3  1  0
 19  9  1  0
 18 13  1  0
  1 22  1  0
  1 23  1  0
  1 24  1  0
  4 25  1  0
  5 26  1  0
  7 27  1  6
  8 28  1  0
  8 29  1  0
  8 30  1  0
 14 31  1  0
 15 32  1  0
 16 33  1  0
 17 34  1  0
 20 35  1  0
 21 36  1  0
M  CHG  1  19  -1
M  END
>  <UniqueID>  (42) 
41

>  <SMILES>  (42) 
COc1ccc([C@H](C)c2nc(=O)c3ccccc3[n-]2)cc1

>  <Energy>  (42) 
41.03152761352863

>  <Genealogy>  (42) 
COc1ccc(C(C)c2nc(=O)c3ccccc3[n-]2)cc1 (protonated)
COc1ccc([C@H](C)c2nc(=O)c3ccccc3[n-]2)cc1 (chirality)
COc1ccc([C@H](C)c2nc(=O)c3ccccc3[n-]2)cc1 (3D coordinates assigned)
COc1ccc([C@H](C)c2nc(=O)c3ccccc3[n-]2)cc1 (optimized conformer: 41.03152761352863 kcal/mol)

>  <smiles>  (42) 
COc1ccc(C(C)c2nc(=O)c3ccccc3[nH]2)cc1

>  <score_type>  (42) 
oracle

>  <origin>  (42) 
adg

>  <m_score__min__energy>  (42) 
-8.9399999999999995

>  <m_primary>  (42) 
energy

$$$$
42:0
     RDKit          3D

 35 37  0  0  0  0  0  0  0  0999 V2000
   63.4617   32.9321   46.4553 H   0  0  0  0  0  0  0  0  0  0  0  0
   62.6070   33.2950   47.0450 C   0  0  0  0  0  0  0  0  0  0  0  0
   61.4920   33.8370   46.3990 C   0  0  0  0  0  0  0  0  0  0  0  0
   61.4766   33.9092   45.3015 H   0  0  0  0  0  0  0  0  0  0  0  0
   60.3910   34.2900   47.1450 C   0  0  0  0  0  0  0  0  0  0  0  0
   59.2120   34.9100   46.4540 C   0  0  0  0  0  0  0  0  0  0  0  0
   59.5165   35.2743   45.4617 H   0  0  0  0  0  0  0  0  0  0  0  0
   58.8352   35.7541   47.0502 H   0  0  0  0  0  0  0  0  0  0  0  0
   58.1610   33.9050   46.3050 N   0  0  0  0  0  0  0  0  0  0  0  0
   58.1470   32.9110   45.4580 C   0  0  0  0  0  0  0  0  0  0  0  0
   57.7810   33.0930   44.1100 C   0  0  0  0  0  0  0  0  0  0  0  0
   57.5061   34.0943   43.7470 H   0  0  0  0  0  0  0  0  0  0  0  0
   57.7660   32.0040   43.2310 C   0  0  0  0  0  0  0  0  0  0  0  0
   57.4090   32.2130   41.7880 C   0  0  0  0  0  0  0  0  0  0  0  0
   56.4615   32.7677   41.7213 H   0  0  0  0  0  0  0  0  0  0  0  0
   58.2057   32.7873   41.2926 H   0  0  0  0  0  0  0  0  0  0  0  0
   57.2982   31.2371   41.2926 H   0  0  0  0  0  0  0  0  0  0  0  0
   58.1370   30.7690   43.6710 N   0  0  0  0  0  0  0  0  0  0  0  0
   58.1430   29.9720   42.9940 H   0  0  0  0  0  0  0  0  0  0  0  0
   58.4980   30.5470   44.9670 C   0  0  0  0  0  0  0  0  0  0  0  0
   58.8630   29.2570   45.3860 C   0  0  0  0  0  0  0  0  0  0  0  0
   58.8569   28.4261   44.6652 H   0  0  0  0  0  0  0  0  0  0  0  0
   59.2330   29.0230   46.7100 C   0  0  0  0  0  0  0  0  0  0  0  0
   59.5163   28.0092   47.0292 H   0  0  0  0  0  0  0  0  0  0  0  0
   59.2450   30.0720   47.6320 C   0  0  0  0  0  0  0  0  0  0  0  0
   59.7120   29.7680   49.2960 Cl  0  0  0  0  0  0  0  0  0  0  0  0
   58.8860   31.3620   47.2310 C   0  0  0  0  0  0  0  0  0  0  0  0
   58.8976   32.1839   47.9620 H   0  0  0  0  0  0  0  0  0  0  0  0
   58.5090   31.6180   45.8960 C   0  0  0  0  0  0  0  0  0  0  0  0
   60.4350   34.2200   48.5470 C   0  0  0  0  0  0  0  0  0  0  0  0
   59.5882   34.5939   49.1412 H   0  0  0  0  0  0  0  0  0  0  0  0
   61.5510   33.6770   49.1900 C   0  0  0  0  0  0  0  0  0  0  0  0
   61.5752   33.6140   50.2879 H   0  0  0  0  0  0  0  0  0  0  0  0
   62.6360   33.2140   48.4410 C   0  0  0  0  0  0  0  0  0  0  0  0
   63.7190   32.6900   49.0670 F   0  0  0  0  0  0  0  0  0  0  0  0
  1  2  1  0
  2  3  2  0
  3  4  1  0
  3  5  1  0
  5  6  1  0
  6  7  1  0
  6  8  1  0
  6  9  1  0
  9 10  2  0
 10 11  1  0
 11 12  1  0
 11 13  2  0
 13 14  1  0
 14 15  1  0
 14 16  1  0
 14 17  1  0
 13 18  1  0
 18 19  1  0
 18 20  1  0
 20 21  2  0
 21 22  1  0
 21 23  1  0
 23 24  1  0
 23 25  2  0
 25 26  1  0
 25 27  1  0
 27 28  1  0
 27 29  2  0
  5 30  2  0
 30 31  1  0
 30 32  1  0
 32 33  1  0
 32 34  2  0
 34 35  1  0
 34  2  1  0
 29 10  1  0
 29 20  1  0
M  END
>  <UniqueID>  (43) 
42

>  <SMILES>  (43) 
Cc1c/c(=N\Cc2ccc(F)cc2)c2cc(Cl)ccc2[nH]1

>  <Energy>  (43) 
42.196030642368605

>  <Genealogy>  (43) 
Cc1c/c(=N\Cc2ccc(F)cc2)c2cc(Cl)ccc2[nH]1 (cis-trans isomerization)
Cc1c/c(=N\Cc2ccc(F)cc2)c2cc(Cl)ccc2[nH]1 (3D coordinates assigned)
Cc1c/c(=N\Cc2ccc(F)cc2)c2cc(Cl)ccc2[nH]1 (optimized conformer: 42.196030642368605 kcal/mol)

>  <smiles>  (43) 
Cc1cc(=NCc2ccc(F)cc2)c2cc(Cl)ccc2[nH]1

>  <score_type>  (43) 
oracle

>  <origin>  (43) 
adg

>  <m_score__min__energy>  (43) 
-7.4000000000000004

>  <m_primary>  (43) 
energy

$$$$
43:0
     RDKit          3D

 42 45  0  0  0  0  0  0  0  0999 V2000
   60.4570   26.4470   48.3400 O   0  0  0  0  0  0  0  0  0  0  0  0
   60.0110   27.4160   47.6680 C   0  0  0  0  0  0  0  0  0  0  0  0
   60.5000   28.7770   47.9680 C   0  0  0  0  0  0  0  0  0  0  0  0
   60.6740   29.2190   49.2880 C   0  0  0  0  0  0  0  0  0  0  0  0
   61.1110   30.4840   49.5190 N   0  0  0  0  0  0  0  0  0  0  0  0
   61.3760   31.3360   48.4940 C   0  0  0  0  0  0  0  0  0  0  0  0
   61.1870   30.9070   47.1800 C   0  0  0  0  0  0  0  0  0  0  0  0
   60.7500   29.6420   46.9470 N   0  0  0  0  0  0  0  0  0  0  0  0
   59.0460   27.1750   46.6290 N   0  0  0  0  0  0  0  0  0  0  0  0
   59.3260   26.1150   45.6480 C   0  0  0  0  0  0  0  0  0  0  0  0
   58.2300   26.0190   44.5800 C   0  0  0  0  0  0  0  0  0  0  0  0
   57.7560   27.4190   44.1940 C   0  0  0  0  0  0  0  0  0  0  0  0
   57.0770   28.1220   45.3920 C   0  0  2  0  0  0  0  0  0  0  0  0
   57.0730   29.6190   45.2280 C   0  0  0  0  0  0  0  0  0  0  0  0
   57.9860   30.4300   45.7950 N   0  0  0  0  0  0  0  0  0  0  0  0
   57.5980   31.6390   45.3340 C   0  0  0  0  0  0  0  0  0  0  0  0
   58.2840   32.9050   45.6660 C   0  0  0  0  0  0  0  0  0  0  0  0
   58.6110   33.8270   44.6520 C   0  0  0  0  0  0  0  0  0  0  0  0
   59.2630   35.0220   44.9670 C   0  0  0  0  0  0  0  0  0  0  0  0
   59.5950   35.3110   46.2930 C   0  0  0  0  0  0  0  0  0  0  0  0
   59.2730   34.4050   47.3070 C   0  0  0  0  0  0  0  0  0  0  0  0
   58.6220   33.2080   46.9970 C   0  0  0  0  0  0  0  0  0  0  0  0
   56.5140   31.5590   44.5360 N   0  0  0  0  0  0  0  0  0  0  0  0
   56.2220   30.2960   44.4950 O   0  0  0  0  0  0  0  0  0  0  0  0
   57.6830   27.7110   46.7620 C   0  0  0  0  0  0  0  0  0  0  0  0
   60.4579   28.5454   50.1304 H   0  0  0  0  0  0  0  0  0  0  0  0
   61.7364   32.3550   48.6986 H   0  0  0  0  0  0  0  0  0  0  0  0
   61.3901   31.5873   46.3398 H   0  0  0  0  0  0  0  0  0  0  0  0
   60.2850   26.3316   45.1547 H   0  0  0  0  0  0  0  0  0  0  0  0
   59.3634   25.1556   46.1847 H   0  0  0  0  0  0  0  0  0  0  0  0
   58.6312   25.5116   43.6903 H   0  0  0  0  0  0  0  0  0  0  0  0
   57.3809   25.4475   44.9829 H   0  0  0  0  0  0  0  0  0  0  0  0
   58.6215   28.0155   43.8698 H   0  0  0  0  0  0  0  0  0  0  0  0
   57.0236   27.3293   43.3782 H   0  0  0  0  0  0  0  0  0  0  0  0
   56.0332   27.7750   45.3943 H   0  0  0  0  0  0  0  0  0  0  0  0
   58.3515   33.6048   43.6064 H   0  0  0  0  0  0  0  0  0  0  0  0
   59.5153   35.7365   44.1696 H   0  0  0  0  0  0  0  0  0  0  0  0
   60.1098   36.2515   46.5387 H   0  0  0  0  0  0  0  0  0  0  0  0
   59.5324   34.6345   48.3510 H   0  0  0  0  0  0  0  0  0  0  0  0
   58.3723   32.4981   47.7993 H   0  0  0  0  0  0  0  0  0  0  0  0
   57.7124   28.5952   47.4157 H   0  0  0  0  0  0  0  0  0  0  0  0
   57.0491   26.9190   47.1874 H   0  0  0  0  0  0  0  0  0  0  0  0
  1  2  2  0
  2  3  1  0
  3  4  2  0
  4  5  1  0
  5  6  2  0
  6  7  1  0
  7  8  2  0
  2  9  1  0
  9 10  1  0
 10 11  1  0
 11 12  1  0
 12 13  1  0
 13 14  1  0
 14 15  2  0
 15 16  1  0
 16 17  1  0
 17 18  2  0
 18 19  1  0
 19 20  2  0
 20 21  1  0
 21 22  2  0
 16 23  2  0
 23 24  1  0
 13 25  1  0
  8  3  1  0
 25  9  1  0
 24 14  1  0
 22 17  1  0
  4 26  1  0
  6 27  1  0
  7 28  1  0
 10 29  1  0
 10 30  1  0
 11 31  1  0
 11 32  1  0
 12 33  1  0
 12 34  1  0
 13 35  1  1
 18 36  1  0
 19 37  1  0
 20 38  1  0
 21 39  1  0
 22 40  1  0
 25 41  1  0
 25 42  1  0
M  END
>  <UniqueID>  (44) 
43

>  <SMILES>  (44) 
O=C(c1cnccn1)N1CCC[C@H](c2nc(-c3ccccc3)no2)C1

>  <Energy>  (44) 
87.00724143662971

>  <Genealogy>  (44) 
O=C(c1cnccn1)N1CCC[C@H](c2nc(-c3ccccc3)no2)C1 (chirality)
O=C(c1cnccn1)N1CCC[C@H](c2nc(-c3ccccc3)no2)C1 (3D coordinates assigned)
O=C(c1cnccn1)N1CCC[C@H](c2nc(-c3ccccc3)no2)C1 (nonaromatic ring conformer: 87.00724143662971 kcal/mol)

>  <smiles>  (44) 
O=C(c1cnccn1)N1CCCC(c2nc(-c3ccccc3)no2)C1

>  <score_type>  (44) 
oracle

>  <origin>  (44) 
adg

>  <m_score__min__energy>  (44) 
-8.6600000000000001

>  <m_primary>  (44) 
energy

$$$$
44:0
     RDKit          3D

 38 40  0  0  0  0  0  0  0  0999 V2000
   58.9430   31.2820   48.4440 C   0  0  0  0  0  0  0  0  0  0  0  0
   59.2800   30.2690   47.4370 N   0  0  0  0  0  0  0  0  0  0  0  0
   58.8970   28.8910   47.8150 C   0  0  0  0  0  0  0  0  0  0  0  0
   59.3990   27.7990   46.8520 C   0  0  0  0  0  0  0  0  0  0  0  0
   58.5510   27.7410   45.6600 N   0  0  0  0  0  0  0  0  0  0  0  0
   57.7410   26.6150   45.2810 C   0  0  0  0  0  0  0  0  0  0  0  0
   56.5930   26.2410   46.0060 C   0  0  0  0  0  0  0  0  0  0  0  0
   55.8490   25.1330   45.5940 C   0  0  0  0  0  0  0  0  0  0  0  0
   54.7380   24.7610   46.2830 N   0  0  0  0  0  0  0  0  0  0  0  0
   54.0030   23.6870   45.8960 C   0  0  0  0  0  0  0  0  0  0  0  0
   54.3720   22.9640   44.8060 N   0  0  0  0  0  0  0  0  0  0  0  0
   55.4730   23.2930   44.0820 C   0  0  0  0  0  0  0  0  0  0  0  0
   55.7830   22.5990   43.0760 O   0  0  0  0  0  0  0  0  0  0  0  0
   56.2490   24.4000   44.4630 C   0  0  0  0  0  0  0  0  0  0  0  0
   57.3990   24.8020   43.7670 C   0  0  0  0  0  0  0  0  0  0  0  0
   58.1050   25.8830   44.1910 N   0  0  0  0  0  0  0  0  0  0  0  0
   58.7430   30.7370   45.8370 S   0  0  0  0  0  0  0  0  0  0  0  0
   57.3400   30.2470   45.6100 O   0  0  0  0  0  0  0  0  0  0  0  0
   59.6330   30.0820   44.8190 O   0  0  0  0  0  0  0  0  0  0  0  0
   58.7890   32.4740   45.5640 C   0  0  0  0  0  0  0  0  0  0  0  0
   57.8270   33.2160   44.8950 C   0  0  0  0  0  0  0  0  0  0  0  0
   58.0970   34.5890   44.8950 C   0  0  0  0  0  0  0  0  0  0  0  0
   59.2580   34.9300   45.5780 C   0  0  0  0  0  0  0  0  0  0  0  0
   59.9480   33.5210   46.1860 S   0  0  0  0  0  0  0  0  0  0  0  0
   59.0834   30.8599   49.4500 H   0  0  0  0  0  0  0  0  0  0  0  0
   59.5987   32.1562   48.3184 H   0  0  0  0  0  0  0  0  0  0  0  0
   57.8943   31.5892   48.3184 H   0  0  0  0  0  0  0  0  0  0  0  0
   59.3076   28.6826   48.8140 H   0  0  0  0  0  0  0  0  0  0  0  0
   57.7981   28.8532   47.7836 H   0  0  0  0  0  0  0  0  0  0  0  0
   60.4320   28.0279   46.5512 H   0  0  0  0  0  0  0  0  0  0  0  0
   59.3614   26.8264   47.3645 H   0  0  0  0  0  0  0  0  0  0  0  0
   58.5680   28.5650   45.0170 H   0  0  0  0  0  0  0  0  0  0  0  0
   56.2844   26.8175   46.8906 H   0  0  0  0  0  0  0  0  0  0  0  0
   53.1067   23.4014   46.4661 H   0  0  0  0  0  0  0  0  0  0  0  0
   57.7288   24.2427   42.8790 H   0  0  0  0  0  0  0  0  0  0  0  0
   56.9433   32.7712   44.4142 H   0  0  0  0  0  0  0  0  0  0  0  0
   57.4506   35.3291   44.4006 H   0  0  0  0  0  0  0  0  0  0  0  0
   59.6578   35.9475   45.7003 H   0  0  0  0  0  0  0  0  0  0  0  0
  1  2  1  0
  2  3  1  0
  3  4  1  0
  4  5  1  0
  5  6  1  0
  6  7  2  0
  7  8  1  0
  8  9  1  0
  9 10  2  0
 10 11  1  0
 11 12  1  0
 12 13  2  0
 12 14  1  0
 14 15  1  0
 15 16  2  0
  2 17  1  0
 17 18  2  0
 17 19  2  0
 17 20  1  0
 20 21  2  0
 21 22  1  0
 22 23  2  0
 23 24  1  0
 16  6  1  0
 24 20  1  0
 14  8  2  0
  1 25  1  0
  1 26  1  0
  1 27  1  0
  3 28  1  0
  3 29  1  0
  4 30  1  0
  4 31  1  0
  5 32  1  0
  7 33  1  0
 10 34  1  0
 15 35  1  0
 21 36  1  0
 22 37  1  0
 23 38  1  0
M  CHG  1  11  -1
M  END
>  <UniqueID>  (45) 
44

>  <SMILES>  (45) 
CN(CCNc1cc2nc[n-]c(=O)c2cn1)S(=O)(=O)c1cccs1

>  <Energy>  (45) 
72.41544916713976

>  <Genealogy>  (45) 
CN(CCNc1cc2nc[n-]c(=O)c2cn1)S(=O)(=O)c1cccs1 (protonated)
CN(CCNc1cc2nc[n-]c(=O)c2cn1)S(=O)(=O)c1cccs1 (3D coordinates assigned)
CN(CCNc1cc2nc[n-]c(=O)c2cn1)S(=O)(=O)c1cccs1 (optimized conformer: 72.41544916713976 kcal/mol)

>  <smiles>  (45) 
CN(CCNc1cc2nc[nH]c(=O)c2cn1)S(=O)(=O)c1cccs1

>  <score_type>  (45) 
oracle

>  <origin>  (45) 
adg

>  <m_score__min__energy>  (45) 
-9.9900000000000002

>  <m_primary>  (45) 
energy

$$$$
45:0
     RDKit          3D

 34 36  0  0  0  0  0  0  0  0999 V2000
   57.7350   27.9940   42.8770 F   0  0  0  0  0  0  0  0  0  0  0  0
   57.9140   27.7450   44.2000 C   0  0  0  0  0  0  0  0  0  0  0  0
   58.0440   26.4170   44.6210 C   0  0  0  0  0  0  0  0  0  0  0  0
   58.2350   26.1240   45.9720 C   0  0  0  0  0  0  0  0  0  0  0  0
   58.2960   27.1560   46.9080 C   0  0  0  0  0  0  0  0  0  0  0  0
   58.1680   28.4860   46.4970 C   0  0  0  0  0  0  0  0  0  0  0  0
   57.9760   28.7990   45.1360 C   0  0  0  0  0  0  0  0  0  0  0  0
   57.8370   30.2070   44.6880 C   0  0  0  0  0  0  0  0  0  0  0  0
   58.1200   30.6740   43.4540 N   0  0  0  0  0  0  0  0  0  0  0  0
   57.8620   31.9710   43.4460 N   0  0  0  0  0  0  0  0  0  0  0  0
   57.4300   32.2560   44.6900 C   0  0  0  0  0  0  0  0  0  0  0  0
   57.0020   33.6180   45.1370 C   0  0  0  0  0  0  0  0  0  0  0  0
   57.9980   34.1880   46.0660 N   0  0  0  0  0  0  0  0  0  0  0  0
   58.1660   33.3610   47.2880 C   0  0  0  0  0  0  0  0  0  0  0  0
   59.4910   32.5780   47.2850 C   0  0  0  0  0  0  0  0  0  0  0  0
   60.6330   33.4150   47.1820 O   0  0  0  0  0  0  0  0  0  0  0  0
   60.4310   34.5660   46.3720 C   0  0  0  0  0  0  0  0  0  0  0  0
   59.2760   34.4330   45.3650 C   0  0  0  0  0  0  0  0  0  0  0  0
   57.4100   31.1860   45.4520 O   0  0  0  0  0  0  0  0  0  0  0  0
   57.9955   25.6012   43.8847 H   0  0  0  0  0  0  0  0  0  0  0  0
   58.3375   25.0787   46.2987 H   0  0  0  0  0  0  0  0  0  0  0  0
   58.4452   26.9228   47.9726 H   0  0  0  0  0  0  0  0  0  0  0  0
   58.2175   29.2945   47.2413 H   0  0  0  0  0  0  0  0  0  0  0  0
   58.4650   30.1440   42.6260 H   0  0  0  0  0  0  0  0  0  0  0  0
   56.9064   34.2746   44.2597 H   0  0  0  0  0  0  0  0  0  0  0  0
   56.0345   33.5376   45.6543 H   0  0  0  0  0  0  0  0  0  0  0  0
   58.1472   34.0214   48.1675 H   0  0  0  0  0  0  0  0  0  0  0  0
   57.3435   32.6311   47.3164 H   0  0  0  0  0  0  0  0  0  0  0  0
   59.5607   32.0045   48.2211 H   0  0  0  0  0  0  0  0  0  0  0  0
   59.4832   31.9240   46.4005 H   0  0  0  0  0  0  0  0  0  0  0  0
   60.2166   35.4193   47.0323 H   0  0  0  0  0  0  0  0  0  0  0  0
   61.3498   34.7035   45.7831 H   0  0  0  0  0  0  0  0  0  0  0  0
   59.1959   35.3626   44.7824 H   0  0  0  0  0  0  0  0  0  0  0  0
   59.4832   33.5822   44.6992 H   0  0  0  0  0  0  0  0  0  0  0  0
  1  2  1  0
  2  3  2  0
  3  4  1  0
  4  5  2  0
  5  6  1  0
  6  7  2  0
  7  8  1  0
  8  9  2  0
  9 10  1  0
 10 11  2  0
 11 12  1  0
 12 13  1  0
 13 14  1  0
 14 15  1  0
 15 16  1  0
 16 17  1  0
 17 18  1  0
 11 19  1  0
  7  2  1  0
 19  8  1  0
 18 13  1  0
  3 20  1  0
  4 21  1  0
  5 22  1  0
  6 23  1  0
  9 24  1  0
 12 25  1  0
 12 26  1  0
 14 27  1  0
 14 28  1  0
 15 29  1  0
 15 30  1  0
 17 31  1  0
 17 32  1  0
 18 33  1  0
 18 34  1  0
M  CHG  1   9   1
M  END
>  <UniqueID>  (46) 
45

>  <SMILES>  (46) 
Fc1ccccc1-c1[nH+]nc(CN2CCOCC2)o1

>  <Energy>  (46) 
85.72714440216726

>  <Genealogy>  (46) 
Fc1ccccc1-c1[nH+]nc(CN2CCOCC2)o1 (protonated)
Fc1ccccc1-c1[nH+]nc(CN2CCOCC2)o1 (3D coordinates assigned)
Fc1ccccc1-c1[nH+]nc(CN2CCOCC2)o1 (nonaromatic ring conformer: 85.72714440216726 kcal/mol)

>  <smiles>  (46) 
Fc1ccccc1-c1nnc(CN2CCOCC2)o1

>  <score_type>  (46) 
oracle

>  <origin>  (46) 
adg

>  <m_score__min__energy>  (46) 
-5.71

>  <m_primary>  (46) 
energy

$$$$
46:0
     RDKit          3D

 49 51  0  0  1  0  0  0  0  0999 V2000
   56.2450   23.2990   43.0110 C   0  0  0  0  0  0  0  0  0  0  0  0
   55.8840   24.0840   44.2670 C   0  0  0  0  0  0  0  0  0  0  0  0
   57.0240   24.2640   45.1820 C   0  0  0  0  0  0  0  0  0  0  0  0
   56.7620   25.5820   46.3270 S   0  0  0  0  0  0  0  0  0  0  0  0
   55.4570   26.2920   46.0090 O   0  0  0  0  0  0  0  0  0  0  0  0
   56.4910   24.9090   47.6680 O   0  0  0  0  0  0  0  0  0  0  0  0
   58.0640   26.6780   46.5280 C   0  0  0  0  0  0  0  0  0  0  0  0
   58.6660   26.7220   47.7990 C   0  0  0  0  0  0  0  0  0  0  0  0
   59.7630   27.4920   48.0800 C   0  0  0  0  0  0  0  0  0  0  0  0
   60.3110   27.4860   49.3730 O   0  0  0  0  0  0  0  0  0  0  0  0
   60.3410   28.2770   47.1100 C   0  0  0  0  0  0  0  0  0  0  0  0
   59.7730   28.2530   45.8620 C   0  0  0  0  0  0  0  0  0  0  0  0
   58.6430   27.4610   45.5740 C   0  0  0  0  0  0  0  0  0  0  0  0
   58.1420   27.6230   44.2580 N   0  0  0  0  0  0  0  0  0  0  0  0
   58.4420   26.9220   43.1840 N   0  0  0  0  0  0  0  0  0  0  0  0
   57.7760   27.4010   42.1630 N   0  0  0  0  0  0  0  0  0  0  0  0
   57.0480   28.4140   42.5840 N   0  0  0  0  0  0  0  0  0  0  0  0
   57.2610   28.5840   43.9310 C   0  0  0  0  0  0  0  0  0  0  0  0
   56.6270   29.6690   44.6940 C   0  0  2  0  0  0  0  0  0  0  0  0
   55.3450   30.1540   44.0970 C   0  0  0  0  0  0  0  0  0  0  0  0
   57.4070   30.4390   45.5640 N   0  0  0  0  0  0  0  0  0  0  0  0
   57.8740   31.6100   45.4490 C   0  0  0  0  0  0  0  0  0  0  0  0
   57.9360   32.1690   44.1940 C   0  0  0  0  0  0  0  0  0  0  0  0
   58.4390   33.4440   44.0940 C   0  0  0  0  0  0  0  0  0  0  0  0
   58.8570   34.1230   45.1940 N   0  0  0  0  0  0  0  0  0  0  0  0
   58.7880   33.5620   46.4070 C   0  0  0  0  0  0  0  0  0  0  0  0
   59.2560   34.3400   47.5830 C   0  0  0  0  0  0  0  0  0  0  0  0
   58.2950   32.3110   46.5010 N   0  0  0  0  0  0  0  0  0  0  0  0
   56.6888   22.3339   43.2967 H   0  0  0  0  0  0  0  0  0  0  0  0
   55.3373   23.1231   42.4150 H   0  0  0  0  0  0  0  0  0  0  0  0
   56.9693   23.8736   42.4150 H   0  0  0  0  0  0  0  0  0  0  0  0
   55.5160   25.0761   43.9664 H   0  0  0  0  0  0  0  0  0  0  0  0
   55.1180   23.5073   44.8060 H   0  0  0  0  0  0  0  0  0  0  0  0
   57.1765   23.3314   45.7449 H   0  0  0  0  0  0  0  0  0  0  0  0
   57.9063   24.5156   44.5752 H   0  0  0  0  0  0  0  0  0  0  0  0
   58.2353   26.1092   48.6046 H   0  0  0  0  0  0  0  0  0  0  0  0
   60.6030   28.4170   49.6970 H   0  0  0  0  0  0  0  0  0  0  0  0
   61.2225   28.8985   47.3262 H   0  0  0  0  0  0  0  0  0  0  0  0
   60.2115   28.8691   45.0632 H   0  0  0  0  0  0  0  0  0  0  0  0
   56.2171   29.2419   45.6211 H   0  0  0  0  0  0  0  0  0  0  0  0
   54.6432   30.4195   44.9014 H   0  0  0  0  0  0  0  0  0  0  0  0
   55.5421   31.0397   43.4752 H   0  0  0  0  0  0  0  0  0  0  0  0
   54.9065   29.3596   43.4752 H   0  0  0  0  0  0  0  0  0  0  0  0
   57.5963   31.6172   43.3051 H   0  0  0  0  0  0  0  0  0  0  0  0
   58.5043   33.9232   43.1060 H   0  0  0  0  0  0  0  0  0  0  0  0
   59.2330   35.0900   45.0810 H   0  0  0  0  0  0  0  0  0  0  0  0
   58.9483   33.8286   48.5070 H   0  0  0  0  0  0  0  0  0  0  0  0
   60.3527   34.4208   47.5564 H   0  0  0  0  0  0  0  0  0  0  0  0
   58.8135   35.3467   47.5564 H   0  0  0  0  0  0  0  0  0  0  0  0
  1  2  1  0
  2  3  1  0
  3  4  1  0
  4  5  2  0
  4  6  2  0
  4  7  1  0
  7  8  2  0
  8  9  1  0
  9 10  1  0
  9 11  2  0
 11 12  1  0
 12 13  2  0
 13 14  1  0
 14 15  1  0
 15 16  2  0
 16 17  1  0
 17 18  2  0
 18 19  1  0
 19 20  1  0
 19 21  1  0
 21 22  2  0
 22 23  1  0
 23 24  2  0
 24 25  1  0
 25 26  1  0
 26 27  1  0
 26 28  2  0
 13  7  1  0
 18 14  1  0
 28 22  1  0
  1 29  1  0
  1 30  1  0
  1 31  1  0
  2 32  1  0
  2 33  1  0
  3 34  1  0
  3 35  1  0
  8 36  1  0
 10 37  1  0
 11 38  1  0
 12 39  1  0
 19 40  1  1
 20 41  1  0
 20 42  1  0
 20 43  1  0
 23 44  1  0
 24 45  1  0
 25 46  1  0
 27 47  1  0
 27 48  1  0
 27 49  1  0
M  END
>  <smiles>  (47) 
CCCS(=O)(=O)c1cc(O)ccc1-n1nnnc1C(C)N=c1cc[nH]c(C)n1

>  <score_type>  (47) 
oracle

>  <origin>  (47) 
adg

>  <m_score__min__energy>  (47) 
-8.4700000000000006

>  <m_primary>  (47) 
energy

$$$$
47:0
     RDKit          3D

 48 50  0  0  0  0  0  0  0  0999 V2000
   57.4130   31.6060   43.5610 C   0  0  0  0  0  0  0  0  0  0  0  0
   56.9110   30.3510   44.1980 C   0  0  0  0  0  0  0  0  0  0  0  0
   55.6130   30.1230   44.4740 N   0  0  0  0  0  0  0  0  0  0  0  0
   55.5180   28.9670   45.1150 N   0  0  0  0  0  0  0  0  0  0  0  0
   56.7540   28.4450   45.2460 C   0  0  0  0  0  0  0  0  0  0  0  0
   57.0280   27.2010   45.9930 C   0  0  0  0  0  0  0  0  0  0  0  0
   56.1190   26.1290   45.9690 C   0  0  0  0  0  0  0  0  0  0  0  0
   56.3990   24.9540   46.6740 C   0  0  0  0  0  0  0  0  0  0  0  0
   57.5770   24.8470   47.4170 C   0  0  0  0  0  0  0  0  0  0  0  0
   58.4730   25.9170   47.4650 C   0  0  0  0  0  0  0  0  0  0  0  0
   58.1980   27.0940   46.7620 C   0  0  0  0  0  0  0  0  0  0  0  0
   57.6800   29.3030   44.6710 C   0  0  0  0  0  0  0  0  0  0  0  0
   59.1830   29.2590   44.7810 C   0  0  0  0  0  0  0  0  0  0  0  0
   59.6560   30.2650   45.7450 N   0  0  0  0  0  0  0  0  0  0  0  0
   60.6430   29.7100   46.6890 C   0  0  0  0  0  0  0  0  0  0  0  0
   61.3730   30.8130   47.4840 C   0  0  0  0  0  0  0  0  0  0  0  0
   60.4580   31.9820   47.8820 C   0  0  0  0  0  0  0  0  0  0  0  0
   59.7930   32.5770   46.7010 N   0  0  0  0  0  0  0  0  0  0  0  0
   58.3490   32.8060   46.8900 C   0  0  0  0  0  0  0  0  0  0  0  0
   58.0250   34.2200   46.4180 C   0  0  0  0  0  0  0  0  0  0  0  0
   59.2760   34.6950   45.7180 C   0  0  0  0  0  0  0  0  0  0  0  0
   60.3770   33.8800   46.3570 C   0  0  0  0  0  0  0  0  0  0  0  0
   57.7004   32.3244   44.3428 H   0  0  0  0  0  0  0  0  0  0  0  0
   58.2880   31.3752   42.9356 H   0  0  0  0  0  0  0  0  0  0  0  0
   56.6202   32.0423   42.9356 H   0  0  0  0  0  0  0  0  0  0  0  0
   55.1850   26.2145   45.3942 H   0  0  0  0  0  0  0  0  0  0  0  0
   55.6906   24.1130   46.6433 H   0  0  0  0  0  0  0  0  0  0  0  0
   57.7990   23.9192   47.9647 H   0  0  0  0  0  0  0  0  0  0  0  0
   59.3965   25.8338   48.0567 H   0  0  0  0  0  0  0  0  0  0  0  0
   58.9006   27.9389   46.8115 H   0  0  0  0  0  0  0  0  0  0  0  0
   59.4926   28.2591   45.1192 H   0  0  0  0  0  0  0  0  0  0  0  0
   59.6196   29.4763   43.7950 H   0  0  0  0  0  0  0  0  0  0  0  0
   60.1180   31.0410   45.2130 H   0  0  0  0  0  0  0  0  0  0  0  0
   58.8480   30.6710   46.2720 H   0  0  0  0  0  0  0  0  0  0  0  0
   60.1228   29.0482   47.3971 H   0  0  0  0  0  0  0  0  0  0  0  0
   61.3958   29.1594   46.1058 H   0  0  0  0  0  0  0  0  0  0  0  0
   61.7879   30.3668   48.3999 H   0  0  0  0  0  0  0  0  0  0  0  0
   62.1575   31.2213   46.8298 H   0  0  0  0  0  0  0  0  0  0  0  0
   59.6893   31.6135   48.5772 H   0  0  0  0  0  0  0  0  0  0  0  0
   61.0763   32.7578   48.3572 H   0  0  0  0  0  0  0  0  0  0  0  0
   57.7758   32.0759   46.2998 H   0  0  0  0  0  0  0  0  0  0  0  0
   58.0812   32.6886   47.9504 H   0  0  0  0  0  0  0  0  0  0  0  0
   57.1730   34.2096   45.7223 H   0  0  0  0  0  0  0  0  0  0  0  0
   57.7427   34.8793   47.2520 H   0  0  0  0  0  0  0  0  0  0  0  0
   59.2193   34.4981   44.6372 H   0  0  0  0  0  0  0  0  0  0  0  0
   59.4350   35.7787   45.8190 H   0  0  0  0  0  0  0  0  0  0  0  0
   61.2094   33.7475   45.6503 H   0  0  0  0  0  0  0  0  0  0  0  0
   60.7741   34.3837   47.2507 H   0  0  0  0  0  0  0  0  0  0  0  0
  1  2  1  0
  2  3  2  0
  3  4  1  0
  4  5  1  0
  5  6  1  0
  6  7  2  0
  7  8  1  0
  8  9  2  0
  9 10  1  0
 10 11  2  0
  5 12  2  0
 12 13  1  0
 13 14  1  0
 14 15  1  0
 15 16  1  0
 16 17  1  0
 17 18  1  0
 18 19  1  0
 19 20  1  0
 20 21  1  0
 21 22  1  0
 12  2  1  0
 22 18  1  0
 11  6  1  0
  1 23  1  0
  1 24  1  0
  1 25  1  0
  7 26  1  0
  8 27  1  0
  9 28  1  0
 10 29  1  0
 11 30  1  0
 13 31  1  0
 13 32  1  0
 14 33  1  0
 14 34  1  0
 15 35  1  0
 15 36  1  0
 16 37  1  0
 16 38  1  0
 17 39  1  0
 17 40  1  0
 19 41  1  0
 19 42  1  0
 20 43  1  0
 20 44  1  0
 21 45  1  0
 21 46  1  0
 22 47  1  0
 22 48  1  0
M  CHG  2   4  -1  14   1
M  END
>  <UniqueID>  (48) 
46

>  <SMILES>  (48) 
Cc1n[n-]c(-c2ccccc2)c1C[NH2+]CCCN1CCCC1

>  <Energy>  (48) 
82.14370613413163

>  <Genealogy>  (48) 
Cc1n[n-]c(-c2ccccc2)c1C[NH2+]CCCN1CCCC1 (protonated)
Cc1n[n-]c(-c2ccccc2)c1C[NH2+]CCCN1CCCC1 (3D coordinates assigned)
Cc1n[n-]c(-c2ccccc2)c1C[NH2+]CCCN1CCCC1 (nonaromatic ring conformer: 82.14370613413163 kcal/mol)

>  <smiles>  (48) 
Cc1n[nH]c(-c2ccccc2)c1CNCCCN1CCCC1

>  <score_type>  (48) 
oracle

>  <origin>  (48) 
adg

>  <m_score__min__energy>  (48) 
-7.9699999999999998

>  <m_primary>  (48) 
energy

$$$$
