0:0
     RDKit          3D

 49 50  0  0  0  0  0  0  0  0999 V2000
   57.0640   33.6170   45.9060 C   0  0  0  0  0  0  0  0  0  0  0  0
   58.3020   33.1740   45.2320 N   0  0  1  0  0  0  0  0  0  0  0  0
   58.1550   33.2490   43.7540 C   0  0  0  0  0  0  0  0  0  0  0  0
   57.9190   31.8850   43.0720 C   0  0  0  0  0  0  0  0  0  0  0  0
   58.5230   30.7730   43.8140 N   0  0  0  0  0  0  0  0  0  0  0  0
   57.3980   30.0440   44.9260 S   0  0  0  0  0  0  0  0  0  0  0  0
   56.0150   30.5360   44.6070 O   0  0  0  0  0  0  0  0  0  0  0  0
   57.7290   30.4570   46.3340 O   0  0  0  0  0  0  0  0  0  0  0  0
   57.4160   28.2880   44.7830 C   0  0  0  0  0  0  0  0  0  0  0  0
   57.8430   27.6920   43.5880 C   0  0  0  0  0  0  0  0  0  0  0  0
   57.8820   26.2990   43.4710 C   0  0  0  0  0  0  0  0  0  0  0  0
   57.4990   25.4950   44.5500 C   0  0  0  0  0  0  0  0  0  0  0  0
   57.5580   23.5930   44.3910 Br  0  0  0  0  0  0  0  0  0  0  0  0
   57.0780   26.0850   45.7470 C   0  0  0  0  0  0  0  0  0  0  0  0
   57.0370   27.4780   45.8660 C   0  0  0  0  0  0  0  0  0  0  0  0
   59.4570   34.0080   45.6500 C   0  0  0  0  0  0  0  0  0  0  0  0
   60.4460   33.2530   46.5680 C   0  0  0  0  0  0  0  0  0  0  0  0
   59.8710   31.9750   47.0440 N   0  0  0  0  0  0  0  0  0  0  0  0
   59.1990   32.1400   48.3610 C   0  0  0  0  0  0  0  0  0  0  0  0
   60.1010   31.7400   49.5370 C   0  0  0  0  0  0  0  0  0  0  0  0
   60.5100   30.2610   49.4430 C   0  0  0  0  0  0  0  0  0  0  0  0
   60.5390   29.7470   47.9930 C   0  0  0  0  0  0  0  0  0  0  0  0
   60.8790   30.8780   47.0160 C   0  0  0  0  0  0  0  0  0  0  0  0
   57.2022   33.5675   46.9962 H   0  0  0  0  0  0  0  0  0  0  0  0
   56.8367   34.6523   45.6118 H   0  0  0  0  0  0  0  0  0  0  0  0
   56.2315   32.9610   45.6118 H   0  0  0  0  0  0  0  0  0  0  0  0
   58.4960   32.1810   45.5010 H   0  0  0  0  0  0  0  0  0  0  0  0
   57.2998   33.9018   43.5250 H   0  0  0  0  0  0  0  0  0  0  0  0
   59.1056   33.6387   43.3611 H   0  0  0  0  0  0  0  0  0  0  0  0
   56.8354   31.7113   42.9966 H   0  0  0  0  0  0  0  0  0  0  0  0
   58.3932   31.9212   42.0801 H   0  0  0  0  0  0  0  0  0  0  0  0
   58.1483   28.3221   42.7397 H   0  0  0  0  0  0  0  0  0  0  0  0
   58.2139   25.8353   42.5303 H   0  0  0  0  0  0  0  0  0  0  0  0
   56.7788   25.4523   46.5956 H   0  0  0  0  0  0  0  0  0  0  0  0
   56.7076   27.9395   46.8086 H   0  0  0  0  0  0  0  0  0  0  0  0
   59.9960   34.3371   44.7494 H   0  0  0  0  0  0  0  0  0  0  0  0
   59.0588   34.8580   46.2235 H   0  0  0  0  0  0  0  0  0  0  0  0
   61.3679   33.0435   46.0057 H   0  0  0  0  0  0  0  0  0  0  0  0
   60.6583   33.8849   47.4430 H   0  0  0  0  0  0  0  0  0  0  0  0
   58.9114   33.1950   48.4803 H   0  0  0  0  0  0  0  0  0  0  0  0
   58.3214   31.4770   48.3731 H   0  0  0  0  0  0  0  0  0  0  0  0
   61.0064   32.3646   49.5239 H   0  0  0  0  0  0  0  0  0  0  0  0
   59.5419   31.8890   50.4725 H   0  0  0  0  0  0  0  0  0  0  0  0
   61.5134   30.1444   49.8784 H   0  0  0  0  0  0  0  0  0  0  0  0
   59.7596   29.6720   49.9907 H   0  0  0  0  0  0  0  0  0  0  0  0
   61.2990   28.9565   47.9067 H   0  0  0  0  0  0  0  0  0  0  0  0
   59.5433   29.3535   47.7407 H   0  0  0  0  0  0  0  0  0  0  0  0
   61.8612   31.2938   47.2850 H   0  0  0  0  0  0  0  0  0  0  0  0
   60.8851   30.4539   46.0010 H   0  0  0  0  0  0  0  0  0  0  0  0
  1  2  1  0
  2  3  1  0
  3  4  1  0
  4  5  1  0
  5  6  1  0
  6  7  2  0
  6  8  2  0
  6  9  1  0
  9 10  2  0
 10 11  1  0
 11 12  2  0
 12 13  1  0
 12 14  1  0
 14 15  2  0
  2 16  1  0
 16 17  1  0
 17 18  1  0
 18 19  1  0
 19 20  1  0
 20 21  1  0
 21 22  1  0
 22 23  1  0
 15  9  1  0
 23 18  1  0
  1 24  1  0
  1 25  1  0
  1 26  1  0
  2 27  1  6
  3 28  1  0
  3 29  1  0
  4 30  1  0
  4 31  1  0
 10 32  1  0
 11 33  1  0
 14 34  1  0
 15 35  1  0
 16 36  1  0
 16 37  1  0
 17 38  1  0
 17 39  1  0
 19 40  1  0
 19 41  1  0
 20 42  1  0
 20 43  1  0
 21 44  1  0
 21 45  1  0
 22 46  1  0
 22 47  1  0
 23 48  1  0
 23 49  1  0
M  CHG  2   2   1   5  -1
M  END
>  <UniqueID>  (1) 
1

>  <SMILES>  (1) 
C[N@@H+](CC[N-]S(=O)(=O)c1ccc(Br)cc1)CCN1CCCCC1

>  <Energy>  (1) 
56.869910886572114

>  <Genealogy>  (1) 
C[NH+](CC[N-]S(=O)(=O)c1ccc(Br)cc1)CCN1CCCCC1 (protonated)
C[N@@H+](CC[N-]S(=O)(=O)c1ccc(Br)cc1)CCN1CCCCC1 (chirality)
C[N@@H+](CC[N-]S(=O)(=O)c1ccc(Br)cc1)CCN1CCCCC1 (3D coordinates assigned)
C[N@@H+](CC[N-]S(=O)(=O)c1ccc(Br)cc1)CCN1CCCCC1 (nonaromatic ring conformer: 56.869910886572114 kcal/mol)

>  <smiles>  (1) 
CN(CCNS(=O)(=O)c1ccc(Br)cc1)CCN1CCCCC1

>  <score_type>  (1) 
oracle

>  <origin>  (1) 
adg

>  <m_score__min__energy>  (1) 
-7.1900000000000004

>  <m_primary>  (1) 
energy

$$$$
1:0
     RDKit          3D

 48 51  0  0  1  0  0  0  0  0999 V2000
   57.0270   34.1770   44.9690 C   0  0  0  0  0  0  0  0  0  0  0  0
   57.3000   33.5660   46.3230 C   0  0  0  0  0  0  0  0  0  0  0  0
   58.7480   33.4760   46.4730 C   0  0  0  0  0  0  0  0  0  0  0  0
   59.5340   32.4050   46.9470 C   0  0  0  0  0  0  0  0  0  0  0  0
   60.8370   32.5740   46.9850 C   0  0  0  0  0  0  0  0  0  0  0  0
   61.8560   31.6940   47.4050 C   0  0  0  0  0  0  0  0  0  0  0  0
   61.5910   30.5500   47.8240 N   0  0  0  0  0  0  0  0  0  0  0  0
   60.7850   29.5480   47.3990 C   0  0  0  0  0  0  0  0  0  0  0  0
   60.0860   28.7520   48.3270 C   0  0  0  0  0  0  0  0  0  0  0  0
   59.3150   27.7020   47.8480 C   0  0  0  0  0  0  0  0  0  0  0  0
   59.2100   27.4120   46.5060 C   0  0  0  0  0  0  0  0  0  0  0  0
   58.3970   26.3180   46.1310 N   0  0  0  0  0  0  0  0  0  0  0  0
   57.7610   26.3370   44.8270 C   0  0  0  0  0  0  0  0  0  0  0  0
   56.7240   25.2340   44.8370 C   0  0  0  0  0  0  0  0  0  0  0  0
   55.9340   25.2600   46.0290 N   0  0  0  0  0  0  0  0  0  0  0  0
   54.8290   24.3550   45.9460 C   0  0  0  0  0  0  0  0  0  0  0  0
   56.6540   25.1880   47.2590 C   0  0  0  0  0  0  0  0  0  0  0  0
   58.1490   25.1610   46.9660 C   0  0  0  0  0  0  0  0  0  0  0  0
   59.9030   28.2040   45.6180 C   0  0  0  0  0  0  0  0  0  0  0  0
   60.6870   29.2630   46.0260 C   0  0  0  0  0  0  0  0  0  0  0  0
   63.1560   32.0670   47.3650 N   0  0  0  0  0  0  0  0  0  0  0  0
   63.5940   33.2500   46.9440 C   0  0  0  0  0  0  0  0  0  0  0  0
   62.6490   34.1220   46.5330 N   0  0  0  0  0  0  0  0  0  0  0  0
   61.3500   33.8030   46.5540 C   0  0  0  0  0  0  0  0  0  0  0  0
   59.8920   34.7900   46.0570 S   0  0  0  0  0  0  0  0  0  0  0  0
   56.5815   35.1742   45.0998 H   0  0  0  0  0  0  0  0  0  0  0  0
   57.9704   34.2673   44.4105 H   0  0  0  0  0  0  0  0  0  0  0  0
   56.3303   33.5345   44.4105 H   0  0  0  0  0  0  0  0  0  0  0  0
   56.8781   34.2020   47.1152 H   0  0  0  0  0  0  0  0  0  0  0  0
   56.8372   32.5713   46.4024 H   0  0  0  0  0  0  0  0  0  0  0  0
   59.0727   31.4613   47.2735 H   0  0  0  0  0  0  0  0  0  0  0  0
   60.1496   28.9575   49.4058 H   0  0  0  0  0  0  0  0  0  0  0  0
   58.7666   27.0773   48.5684 H   0  0  0  0  0  0  0  0  0  0  0  0
   57.2786   27.3103   44.6539 H   0  0  0  0  0  0  0  0  0  0  0  0
   58.4968   26.1833   44.0239 H   0  0  0  0  0  0  0  0  0  0  0  0
   56.0617   25.3598   43.9678 H   0  0  0  0  0  0  0  0  0  0  0  0
   57.2502   24.2689   44.7959 H   0  0  0  0  0  0  0  0  0  0  0  0
   54.4993   24.0849   46.9601 H   0  0  0  0  0  0  0  0  0  0  0  0
   54.0000   24.8370   45.4071 H   0  0  0  0  0  0  0  0  0  0  0  0
   55.1382   23.4473   45.4071 H   0  0  0  0  0  0  0  0  0  0  0  0
   56.4162   26.0670   47.8761 H   0  0  0  0  0  0  0  0  0  0  0  0
   56.3679   24.2744   47.8007 H   0  0  0  0  0  0  0  0  0  0  0  0
   58.7258   25.2295   47.9001 H   0  0  0  0  0  0  0  0  0  0  0  0
   58.4527   24.2265   46.4716 H   0  0  0  0  0  0  0  0  0  0  0  0
   59.8286   27.9839   44.5428 H   0  0  0  0  0  0  0  0  0  0  0  0
   61.2271   29.8749   45.2885 H   0  0  0  0  0  0  0  0  0  0  0  0
   63.9110   31.3890   47.6850 H   0  0  0  0  0  0  0  0  0  0  0  0
   64.6644   33.5033   46.9314 H   0  0  0  0  0  0  0  0  0  0  0  0
  1  2  1  0
  2  3  1  0
  3  4  2  0
  4  5  1  0
  5  6  1  0
  6  7  2  0
  7  8  1  0
  8  9  2  0
  9 10  1  0
 10 11  2  0
 11 12  1  0
 12 13  1  0
 13 14  1  0
 14 15  1  0
 15 16  1  0
 15 17  1  0
 17 18  1  0
 11 19  1  0
 19 20  2  0
  6 21  1  0
 21 22  1  0
 22 23  2  0
 23 24  1  0
 24 25  1  0
 25  3  1  0
 24  5  2  0
 20  8  1  0
 18 12  1  0
  1 26  1  0
  1 27  1  0
  1 28  1  0
  2 29  1  0
  2 30  1  0
  4 31  1  0
  9 32  1  0
 10 33  1  0
 13 34  1  0
 13 35  1  0
 14 36  1  0
 14 37  1  0
 16 38  1  0
 16 39  1  0
 16 40  1  0
 17 41  1  0
 17 42  1  0
 18 43  1  0
 18 44  1  0
 19 45  1  0
 20 46  1  0
 21 47  1  0
 22 48  1  0
M  END
>  <smiles>  (2) 
CCc1cc2c(=Nc3ccc(N4CCN(C)CC4)cc3)[nH]cnc2s1

>  <score_type>  (2) 
oracle

>  <origin>  (2) 
adg

>  <m_score__min__energy>  (2) 
-7.8499999999999996

>  <m_primary>  (2) 
energy

$$$$
2:0
     RDKit          3D

 44 48  0  0  0  0  0  0  0  0999 V2000
   60.1980   27.2340   47.6070 H   0  0  0  0  0  0  0  0  0  0  0  0
   55.5050   24.8390   46.2280 N   0  0  0  0  0  0  0  0  0  0  0  0
   56.2840   25.8780   46.1790 C   0  0  0  0  0  0  0  0  0  0  0  0
   57.5570   25.7790   46.6560 N   0  0  0  0  0  0  0  0  0  0  0  0
   58.4070   26.8420   46.6230 C   0  0  0  0  0  0  0  0  0  0  0  0
   59.6450   26.6490   46.9530 N   0  0  0  0  0  0  0  0  0  0  0  0
   55.9390   23.4840   46.5690 C   0  0  0  0  0  0  0  0  0  0  0  0
   56.7865   23.5412   47.2679 H   0  0  0  0  0  0  0  0  0  0  0  0
   55.0976   22.9489   47.0335 H   0  0  0  0  0  0  0  0  0  0  0  0
   56.3660   22.7370   45.3340 C   0  0  0  0  0  0  0  0  0  0  0  0
   56.2150   23.3050   44.0600 C   0  0  0  0  0  0  0  0  0  0  0  0
   55.7641   24.3025   43.9522 H   0  0  0  0  0  0  0  0  0  0  0  0
   56.6370   22.6040   42.9300 C   0  0  0  0  0  0  0  0  0  0  0  0
   56.5178   23.0422   41.9281 H   0  0  0  0  0  0  0  0  0  0  0  0
   57.2120   21.3410   43.0830 C   0  0  0  0  0  0  0  0  0  0  0  0
   57.5495   20.7810   42.1984 H   0  0  0  0  0  0  0  0  0  0  0  0
   57.3560   20.8010   44.3240 N   0  0  0  0  0  0  0  0  0  0  0  0
   57.7890   19.8560   44.4220 H   0  0  0  0  0  0  0  0  0  0  0  0
   56.9510   21.4670   45.4400 C   0  0  0  0  0  0  0  0  0  0  0  0
   57.0833   21.0065   46.4302 H   0  0  0  0  0  0  0  0  0  0  0  0
   55.8510   27.0530   45.6410 N   0  0  0  0  0  0  0  0  0  0  0  0
   56.6900   28.1150   45.6240 C   0  0  0  0  0  0  0  0  0  0  0  0
   56.3510   29.3290   45.1360 N   0  0  0  0  0  0  0  0  0  0  0  0
   57.4570   30.0540   45.3930 C   0  0  0  0  0  0  0  0  0  0  0  0
   57.6290   31.4100   45.1420 C   0  0  0  0  0  0  0  0  0  0  0  0
   56.8565   31.9911   44.6170 H   0  0  0  0  0  0  0  0  0  0  0  0
   58.8170   32.0160   45.5780 C   0  0  0  0  0  0  0  0  0  0  0  0
   58.9932   33.0810   45.3665 H   0  0  0  0  0  0  0  0  0  0  0  0
   59.7930   31.2720   46.2880 C   0  0  0  0  0  0  0  0  0  0  0  0
   61.0220   31.9390   46.7920 C   0  0  0  0  0  0  0  0  0  0  0  0
   61.2500   33.3060   46.5460 C   0  0  0  0  0  0  0  0  0  0  0  0
   60.5128   33.8883   45.9737 H   0  0  0  0  0  0  0  0  0  0  0  0
   62.4070   33.9290   47.0240 C   0  0  0  0  0  0  0  0  0  0  0  0
   62.5766   34.9978   46.8267 H   0  0  0  0  0  0  0  0  0  0  0  0
   63.3470   33.1970   47.7510 C   0  0  0  0  0  0  0  0  0  0  0  0
   64.2567   33.6890   48.1256 H   0  0  0  0  0  0  0  0  0  0  0  0
   63.1330   31.8400   48.0030 C   0  0  0  0  0  0  0  0  0  0  0  0
   63.8752   31.2642   48.5754 H   0  0  0  0  0  0  0  0  0  0  0  0
   61.9770   31.2120   47.5290 C   0  0  0  0  0  0  0  0  0  0  0  0
   61.8125   30.1437   47.7330 H   0  0  0  0  0  0  0  0  0  0  0  0
   59.5790   29.8950   46.5330 C   0  0  0  0  0  0  0  0  0  0  0  0
   60.3083   29.3064   47.1090 H   0  0  0  0  0  0  0  0  0  0  0  0
   58.4160   29.2970   46.0250 C   0  0  0  0  0  0  0  0  0  0  0  0
   57.9350   28.0350   46.1450 N   0  0  0  0  0  0  0  0  0  0  0  0
  1  2  1  0
  2  3  2  0
  3  4  1  0
  4  5  1  0
  5  6  2  0
  6  7  1  0
  7  8  1  0
  7  9  1  0
  7 10  1  0
 10 11  2  0
 11 12  1  0
 11 13  1  0
 13 14  1  0
 13 15  2  0
 15 16  1  0
 15 17  1  0
 17 18  1  0
 17 19  2  0
 19 20  1  0
  5 21  1  0
 21 22  2  0
 22 23  1  0
 23 24  1  0
 24 25  2  0
 25 26  1  0
 25 27  1  0
 27 28  1  0
 27 29  2  0
 29 30  1  0
 30 31  2  0
 31 32  1  0
 31 33  1  0
 33 34  1  0
 33 35  2  0
 35 36  1  0
 35 37  1  0
 37 38  1  0
 37 39  2  0
 39 40  1  0
 29 41  1  0
 41 42  1  0
 41 43  2  0
 43 44  1  0
 44  3  1  0
 19 10  1  0
 44 22  1  0
 43 24  1  0
 39 30  1  0
M  CHG  3   4  -1  17   1  23  -1
M  END
>  <UniqueID>  (3) 
2

>  <SMILES>  (3) 
[H]/N=c1/[n-]/c(=N/Cc2ccc[nH+]c2)nc2[n-]c3ccc(-c4ccccc4)cc3n12

>  <Energy>  (3) 
108.02537661977432

>  <Genealogy>  (3) 
N=c1[n-]c(=NCc2ccc[nH+]c2)nc2[n-]c3ccc(-c4ccccc4)cc3n12 (protonated)
[H]/N=c1/[n-]/c(=N/Cc2ccc[nH+]c2)nc2[n-]c3ccc(-c4ccccc4)cc3n12 (cis-trans isomerization)
[H]/N=c1/[n-]/c(=N/Cc2ccc[nH+]c2)nc2[n-]c3ccc(-c4ccccc4)cc3n12 (3D coordinates assigned)
[H]/N=c1/[n-]/c(=N/Cc2ccc[nH+]c2)nc2[n-]c3ccc(-c4ccccc4)cc3n12 (optimized conformer: 108.02537661977432 kcal/mol)

>  <smiles>  (3) 
N=c1[nH]c(=NCc2cccnc2)nc2[nH]c3ccc(-c4ccccc4)cc3n12

>  <score_type>  (3) 
oracle

>  <origin>  (3) 
adg

>  <m_score__min__energy>  (3) 
-10.630000000000001

>  <m_primary>  (3) 
energy

$$$$
3:0
     RDKit          3D

 47 51  0  0  0  0  0  0  0  0999 V2000
   58.8720   34.9370   47.0680 O   0  0  0  0  0  0  0  0  0  0  0  0
   58.7150   33.4510   47.2330 S   0  0  0  0  0  0  0  0  0  0  0  0
   57.3790   33.2030   47.8770 O   0  0  0  0  0  0  0  0  0  0  0  0
   60.0240   32.8590   48.2820 C   0  0  0  0  0  0  0  0  0  0  0  0
   59.6760   32.2720   49.5110 C   0  0  0  0  0  0  0  0  0  0  0  0
   60.6530   31.7470   50.3570 C   0  0  0  0  0  0  0  0  0  0  0  0
   61.9970   31.8030   49.9980 C   0  0  0  0  0  0  0  0  0  0  0  0
   62.3780   32.4020   48.7910 C   0  0  0  0  0  0  0  0  0  0  0  0
   63.7330   32.4730   48.4350 C   0  0  0  0  0  0  0  0  0  0  0  0
   64.1060   33.0710   47.2730 N   0  0  0  0  0  0  0  0  0  0  0  0
   63.1910   33.6210   46.4330 C   0  0  0  0  0  0  0  0  0  0  0  0
   61.8300   33.5760   46.7410 C   0  0  0  0  0  0  0  0  0  0  0  0
   61.3960   32.9500   47.9240 C   0  0  0  0  0  0  0  0  0  0  0  0
   58.7340   32.6460   45.6790 N   0  0  0  0  0  0  0  0  0  0  0  0
   58.8750   33.4450   44.4550 C   0  0  0  0  0  0  0  0  0  0  0  0
   57.7660   33.0850   43.4700 C   0  0  0  0  0  0  0  0  0  0  0  0
   57.8580   31.6050   43.0990 C   0  0  0  0  0  0  0  0  0  0  0  0
   57.9780   30.7180   44.3160 C   0  0  0  0  0  0  0  0  0  0  0  0
   57.6960   29.3490   44.1850 C   0  0  0  0  0  0  0  0  0  0  0  0
   57.8400   28.4750   45.2760 C   0  0  0  0  0  0  0  0  0  0  0  0
   57.5310   27.0300   45.1310 C   0  0  0  0  0  0  0  0  0  0  0  0
   56.9110   26.2590   46.1340 C   0  0  0  0  0  0  0  0  0  0  0  0
   56.7190   24.9310   45.7830 C   0  0  0  0  0  0  0  0  0  0  0  0
   57.3140   24.7100   44.2300 S   0  0  0  0  0  0  0  0  0  0  0  0
   57.8250   26.2900   43.9840 C   0  0  0  0  0  0  0  0  0  0  0  0
   58.2850   28.9930   46.5010 C   0  0  0  0  0  0  0  0  0  0  0  0
   58.5810   30.3490   46.6380 C   0  0  0  0  0  0  0  0  0  0  0  0
   58.4380   31.2320   45.5530 C   0  0  0  0  0  0  0  0  0  0  0  0
   58.6184   32.2260   49.8098 H   0  0  0  0  0  0  0  0  0  0  0  0
   60.3602   31.2866   51.3122 H   0  0  0  0  0  0  0  0  0  0  0  0
   62.7612   31.3758   50.6639 H   0  0  0  0  0  0  0  0  0  0  0  0
   64.4970   32.0428   49.0993 H   0  0  0  0  0  0  0  0  0  0  0  0
   65.1190   33.1160   47.0240 H   0  0  0  0  0  0  0  0  0  0  0  0
   63.5248   34.1053   45.5035 H   0  0  0  0  0  0  0  0  0  0  0  0
   61.0966   34.0302   46.0585 H   0  0  0  0  0  0  0  0  0  0  0  0
   58.8066   34.5136   44.7069 H   0  0  0  0  0  0  0  0  0  0  0  0
   59.8514   33.2337   43.9946 H   0  0  0  0  0  0  0  0  0  0  0  0
   56.7883   33.2846   43.9330 H   0  0  0  0  0  0  0  0  0  0  0  0
   57.8787   33.6934   42.5605 H   0  0  0  0  0  0  0  0  0  0  0  0
   56.9522   31.3223   42.5425 H   0  0  0  0  0  0  0  0  0  0  0  0
   58.7626   31.4654   42.4889 H   0  0  0  0  0  0  0  0  0  0  0  0
   57.3577   28.9551   43.2152 H   0  0  0  0  0  0  0  0  0  0  0  0
   56.6069   26.6726   47.1069 H   0  0  0  0  0  0  0  0  0  0  0  0
   56.2569   24.1570   46.4134 H   0  0  0  0  0  0  0  0  0  0  0  0
   58.3087   26.6763   43.0747 H   0  0  0  0  0  0  0  0  0  0  0  0
   58.4020   28.3215   47.3644 H   0  0  0  0  0  0  0  0  0  0  0  0
   58.9310   30.7328   47.6076 H   0  0  0  0  0  0  0  0  0  0  0  0
  1  2  2  0
  2  3  2  0
  2  4  1  0
  4  5  2  0
  5  6  1  0
  6  7  2  0
  7  8  1  0
  8  9  2  0
  9 10  1  0
 10 11  2  0
 11 12  1  0
 12 13  2  0
  2 14  1  0
 14 15  1  0
 15 16  1  0
 16 17  1  0
 17 18  1  0
 18 19  2  0
 19 20  1  0
 20 21  1  0
 21 22  1  0
 22 23  2  0
 23 24  1  0
 24 25  1  0
 20 26  2  0
 26 27  1  0
 27 28  2  0
 13  4  1  0
 28 14  1  0
 13  8  1  0
 28 18  1  0
 25 21  2  0
  5 29  1  0
  6 30  1  0
  7 31  1  0
  9 32  1  0
 10 33  1  0
 11 34  1  0
 12 35  1  0
 15 36  1  0
 15 37  1  0
 16 38  1  0
 16 39  1  0
 17 40  1  0
 17 41  1  0
 19 42  1  0
 22 43  1  0
 23 44  1  0
 25 45  1  0
 26 46  1  0
 27 47  1  0
M  CHG  1  10   1
M  END
>  <UniqueID>  (4) 
3

>  <SMILES>  (4) 
O=S(=O)(c1cccc2c[nH+]ccc12)N1CCCc2cc(-c3ccsc3)ccc21

>  <Energy>  (4) 
91.9641039195458

>  <Genealogy>  (4) 
O=S(=O)(c1cccc2c[nH+]ccc12)N1CCCc2cc(-c3ccsc3)ccc21 (protonated)
O=S(=O)(c1cccc2c[nH+]ccc12)N1CCCc2cc(-c3ccsc3)ccc21 (3D coordinates assigned)
O=S(=O)(c1cccc2c[nH+]ccc12)N1CCCc2cc(-c3ccsc3)ccc21 (nonaromatic ring conformer: 91.9641039195458 kcal/mol)

>  <smiles>  (4) 
O=S(=O)(c1cccc2cnccc12)N1CCCc2cc(-c3ccsc3)ccc21

>  <score_type>  (4) 
oracle

>  <origin>  (4) 
adg

>  <m_score__min__energy>  (4) 
-8.2400000000000002

>  <m_primary>  (4) 
energy

$$$$
4:0
     RDKit          3D

 35 36  0  0  0  0  0  0  0  0999 V2000
   56.2630   30.0980   43.3650 C   0  0  0  0  0  0  0  0  0  0  0  0
   56.2040   30.9720   44.4880 O   0  0  0  0  0  0  0  0  0  0  0  0
   57.3360   31.6300   44.9830 C   0  0  0  0  0  0  0  0  0  0  0  0
   57.3800   32.9910   44.9380 N   0  0  0  0  0  0  0  0  0  0  0  0
   58.4190   33.6850   45.4760 C   0  0  0  0  0  0  0  0  0  0  0  0
   59.4670   32.9920   46.0770 C   0  0  0  0  0  0  0  0  0  0  0  0
   59.4520   31.6350   46.0850 N   0  0  0  0  0  0  0  0  0  0  0  0
   58.4250   30.9280   45.5390 C   0  0  0  0  0  0  0  0  0  0  0  0
   58.5160   29.4970   45.4660 N   0  0  0  0  0  0  0  0  0  0  0  0
   59.6880   28.8770   44.8290 C   0  0  0  0  0  0  0  0  0  0  0  0
   60.0940   27.6030   45.5760 C   0  0  0  0  0  0  0  0  0  0  0  0
   58.9400   26.5860   45.6670 C   0  0  0  0  0  0  0  0  0  0  0  0
   57.5340   27.2420   45.7030 C   0  0  1  0  0  0  0  0  0  0  0  0
   56.5020   26.3660   46.4430 C   0  0  0  0  0  0  0  0  0  0  0  0
   55.1460   26.5880   45.9450 N   0  0  0  0  0  0  0  0  0  0  0  0
   57.5790   28.6820   46.2520 C   0  0  0  0  0  0  0  0  0  0  0  0
   56.3333   29.0571   43.7138 H   0  0  0  0  0  0  0  0  0  0  0  0
   55.3545   30.2204   42.7570 H   0  0  0  0  0  0  0  0  0  0  0  0
   57.1468   30.3414   42.7570 H   0  0  0  0  0  0  0  0  0  0  0  0
   56.5860   33.5180   44.5090 H   0  0  0  0  0  0  0  0  0  0  0  0
   58.4313   34.7842   45.4367 H   0  0  0  0  0  0  0  0  0  0  0  0
   60.3000   33.5401   46.5414 H   0  0  0  0  0  0  0  0  0  0  0  0
   59.4417   28.6229   43.7875 H   0  0  0  0  0  0  0  0  0  0  0  0
   60.5264   29.5886   44.8579 H   0  0  0  0  0  0  0  0  0  0  0  0
   60.9367   27.1353   45.0458 H   0  0  0  0  0  0  0  0  0  0  0  0
   60.3730   27.8882   46.6011 H   0  0  0  0  0  0  0  0  0  0  0  0
   58.9916   25.9224   44.7912 H   0  0  0  0  0  0  0  0  0  0  0  0
   59.0653   26.0404   46.6139 H   0  0  0  0  0  0  0  0  0  0  0  0
   57.1923   27.3146   44.6599 H   0  0  0  0  0  0  0  0  0  0  0  0
   56.7652   25.3076   46.2997 H   0  0  0  0  0  0  0  0  0  0  0  0
   56.5239   26.6378   47.5087 H   0  0  0  0  0  0  0  0  0  0  0  0
   55.1450   27.4920   45.4190 H   0  0  0  0  0  0  0  0  0  0  0  0
   54.5100   26.7280   46.7620 H   0  0  0  0  0  0  0  0  0  0  0  0
   56.5739   29.1250   46.1922 H   0  0  0  0  0  0  0  0  0  0  0  0
   57.9170   28.6562   47.2985 H   0  0  0  0  0  0  0  0  0  0  0  0
  1  2  1  0
  2  3  1  0
  3  4  2  0
  4  5  1  0
  5  6  2  0
  6  7  1  0
  7  8  2  0
  8  9  1  0
  9 10  1  0
 10 11  1  0
 11 12  1  0
 12 13  1  0
 13 14  1  0
 14 15  1  0
 13 16  1  0
  8  3  1  0
 16  9  1  0
  1 17  1  0
  1 18  1  0
  1 19  1  0
  4 20  1  0
  5 21  1  0
  6 22  1  0
 10 23  1  0
 10 24  1  0
 11 25  1  0
 11 26  1  0
 12 27  1  0
 12 28  1  0
 13 29  1  6
 14 30  1  0
 14 31  1  0
 15 32  1  0
 15 33  1  0
 16 34  1  0
 16 35  1  0
M  CHG  1   4   1
M  END
>  <UniqueID>  (5) 
4

>  <SMILES>  (5) 
COc1[nH+]ccnc1N1CCC[C@@H](CN)C1

>  <Energy>  (5) 
44.44637580561575

>  <Genealogy>  (5) 
COc1[nH+]ccnc1N1CCCC(CN)C1 (protonated)
COc1[nH+]ccnc1N1CCC[C@@H](CN)C1 (chirality)
COc1[nH+]ccnc1N1CCC[C@@H](CN)C1 (3D coordinates assigned)
COc1[nH+]ccnc1N1CCC[C@@H](CN)C1 (nonaromatic ring conformer: 44.44637580561575 kcal/mol)

>  <smiles>  (5) 
COc1nccnc1N1CCCC(CN)C1

>  <score_type>  (5) 
oracle

>  <origin>  (5) 
adg

>  <m_score__min__energy>  (5) 
-4.7800000000000002

>  <m_primary>  (5) 
energy

$$$$
5:0
     RDKit          3D

 38 40  0  0  0  0  0  0  0  0999 V2000
   65.2820   32.0780   50.1780 C   0  0  0  0  0  0  0  0  0  0  0  0
   64.8200   33.4530   49.7100 C   0  0  0  0  0  0  0  0  0  0  0  0
   63.5010   33.3580   48.9930 C   0  0  0  0  0  0  0  0  0  0  0  0
   62.3380   33.8840   49.5760 C   0  0  0  0  0  0  0  0  0  0  0  0
   61.1070   33.7680   48.9240 C   0  0  0  0  0  0  0  0  0  0  0  0
   61.0140   33.1030   47.6920 C   0  0  0  0  0  0  0  0  0  0  0  0
   59.7380   33.0160   47.0330 N   0  0  0  0  0  0  0  0  0  0  0  0
   58.8280   34.1170   46.8930 C   0  0  0  0  0  0  0  0  0  0  0  0
   59.2000   35.2960   47.1380 O   0  0  0  0  0  0  0  0  0  0  0  0
   57.4500   33.8820   46.3610 C   0  0  0  0  0  0  0  0  0  0  0  0
   57.5500   33.4670   44.5910 S   0  0  0  0  0  0  0  0  0  0  0  0
   57.7270   31.7140   44.8980 C   0  0  0  0  0  0  0  0  0  0  0  0
   58.9240   31.1390   45.1870 N   0  0  0  0  0  0  0  0  0  0  0  0
   58.5920   29.8500   45.3400 C   0  0  0  0  0  0  0  0  0  0  0  0
   59.4340   28.7840   45.6500 C   0  0  0  0  0  0  0  0  0  0  0  0
   58.8540   27.5060   45.7610 C   0  0  0  0  0  0  0  0  0  0  0  0
   57.4660   27.3290   45.5590 C   0  0  0  0  0  0  0  0  0  0  0  0
   56.6470   28.4310   45.2460 C   0  0  0  0  0  0  0  0  0  0  0  0
   57.2550   29.6810   45.1450 C   0  0  0  0  0  0  0  0  0  0  0  0
   56.6750   30.8550   44.8610 N   0  0  0  0  0  0  0  0  0  0  0  0
   62.1810   32.5840   47.1050 C   0  0  0  0  0  0  0  0  0  0  0  0
   63.4120   32.7000   47.7560 C   0  0  0  0  0  0  0  0  0  0  0  0
   65.2917   32.0491   51.2776 H   0  0  0  0  0  0  0  0  0  0  0  0
   64.5925   31.3102   49.7971 H   0  0  0  0  0  0  0  0  0  0  0  0
   66.2952   31.8823   49.7971 H   0  0  0  0  0  0  0  0  0  0  0  0
   64.7091   34.1127   50.5832 H   0  0  0  0  0  0  0  0  0  0  0  0
   65.5702   33.8596   49.0158 H   0  0  0  0  0  0  0  0  0  0  0  0
   62.3953   34.3901   50.5510 H   0  0  0  0  0  0  0  0  0  0  0  0
   60.2046   34.2012   49.3801 H   0  0  0  0  0  0  0  0  0  0  0  0
   59.4940   32.1210   46.5510 H   0  0  0  0  0  0  0  0  0  0  0  0
   56.9822   33.0498   46.9075 H   0  0  0  0  0  0  0  0  0  0  0  0
   56.8446   34.7910   46.4924 H   0  0  0  0  0  0  0  0  0  0  0  0
   60.5128   28.9355   45.8025 H   0  0  0  0  0  0  0  0  0  0  0  0
   59.4851   26.6392   46.0066 H   0  0  0  0  0  0  0  0  0  0  0  0
   57.0237   26.3257   45.6467 H   0  0  0  0  0  0  0  0  0  0  0  0
   55.5654   28.3095   45.0868 H   0  0  0  0  0  0  0  0  0  0  0  0
   62.1249   32.0834   46.1271 H   0  0  0  0  0  0  0  0  0  0  0  0
   64.3161   32.2735   47.2969 H   0  0  0  0  0  0  0  0  0  0  0  0
  1  2  1  0
  2  3  1  0
  3  4  2  0
  4  5  1  0
  5  6  2  0
  6  7  1  0
  7  8  1  0
  8  9  2  0
  8 10  1  0
 10 11  1  0
 11 12  1  0
 12 13  2  0
 13 14  1  0
 14 15  2  0
 15 16  1  0
 16 17  2  0
 17 18  1  0
 18 19  2  0
 19 20  1  0
  6 21  1  0
 21 22  2  0
 22  3  1  0
 20 12  1  0
 19 14  1  0
  1 23  1  0
  1 24  1  0
  1 25  1  0
  2 26  1  0
  2 27  1  0
  4 28  1  0
  5 29  1  0
  7 30  1  0
 10 31  1  0
 10 32  1  0
 15 33  1  0
 16 34  1  0
 17 35  1  0
 18 36  1  0
 21 37  1  0
 22 38  1  0
M  CHG  1  20  -1
M  END
>  <UniqueID>  (6) 
5

>  <SMILES>  (6) 
CCc1ccc(NC(=O)CSc2nc3ccccc3[n-]2)cc1

>  <Energy>  (6) 
69.68914357906105

>  <Genealogy>  (6) 
CCc1ccc(NC(=O)CSc2nc3ccccc3[n-]2)cc1 (protonated)
CCc1ccc(NC(=O)CSc2nc3ccccc3[n-]2)cc1 (3D coordinates assigned)
CCc1ccc(NC(=O)CSc2nc3ccccc3[n-]2)cc1 (optimized conformer: 69.68914357906105 kcal/mol)

>  <smiles>  (6) 
CCc1ccc(NC(=O)CSc2nc3ccccc3[nH]2)cc1

>  <score_type>  (6) 
oracle

>  <origin>  (6) 
adg

>  <m_score__min__energy>  (6) 
-8.7699999999999996

>  <m_primary>  (6) 
energy

$$$$
6:0
     RDKit          3D

 42 45  0  0  0  0  0  0  0  0999 V2000
   57.3010   22.2660   43.8330 C   0  0  0  0  0  0  0  0  0  0  0  0
   58.2320   22.3670   44.8670 C   0  0  0  0  0  0  0  0  0  0  0  0
   58.5350   23.6150   45.4200 C   0  0  0  0  0  0  0  0  0  0  0  0
   57.9130   24.7820   44.9360 C   0  0  0  0  0  0  0  0  0  0  0  0
   58.2410   26.0980   45.5410 C   0  0  0  0  0  0  0  0  0  0  0  0
   58.8880   26.2020   46.7830 C   0  0  0  0  0  0  0  0  0  0  0  0
   59.1670   27.4760   47.2990 C   0  0  0  0  0  0  0  0  0  0  0  0
   59.8460   27.6660   48.5990 C   0  0  0  0  0  0  0  0  0  0  0  0
   60.6380   26.7480   49.2880 C   0  0  0  0  0  0  0  0  0  0  0  0
   61.1390   27.2440   50.4990 C   0  0  0  0  0  0  0  0  0  0  0  0
   60.7510   28.5460   50.7730 C   0  0  0  0  0  0  0  0  0  0  0  0
   59.7830   29.0820   49.5090 S   0  0  0  0  0  0  0  0  0  0  0  0
   58.7960   28.5730   46.5870 N   0  0  0  0  0  0  0  0  0  0  0  0
   58.1610   28.4690   45.3900 C   0  0  0  0  0  0  0  0  0  0  0  0
   57.7740   29.6570   44.6690 N   0  0  0  0  0  0  0  0  0  0  0  0
   56.5180   29.7020   43.9030 C   0  0  0  0  0  0  0  0  0  0  0  0
   56.7310   30.4540   42.5860 C   0  0  0  0  0  0  0  0  0  0  0  0
   57.3840   31.8410   42.7740 C   0  0  0  0  0  0  0  0  0  0  0  0
   57.8990   32.0950   44.1980 C   0  0  0  0  0  0  0  0  0  0  0  0
   58.6130   30.8630   44.7670 C   0  0  0  0  0  0  0  0  0  0  0  0
   57.8900   27.2360   44.8840 N   0  0  0  0  0  0  0  0  0  0  0  0
   56.9650   24.6640   43.8990 C   0  0  0  0  0  0  0  0  0  0  0  0
   56.6660   23.4130   43.3510 C   0  0  0  0  0  0  0  0  0  0  0  0
   57.0670   21.2834   43.3974 H   0  0  0  0  0  0  0  0  0  0  0  0
   58.7289   21.4627   45.2482 H   0  0  0  0  0  0  0  0  0  0  0  0
   59.2651   23.6858   46.2397 H   0  0  0  0  0  0  0  0  0  0  0  0
   59.1716   25.2984   47.3425 H   0  0  0  0  0  0  0  0  0  0  0  0
   60.8488   25.7340   48.9172 H   0  0  0  0  0  0  0  0  0  0  0  0
   61.7809   26.6545   51.1701 H   0  0  0  0  0  0  0  0  0  0  0  0
   61.0289   29.1279   51.6642 H   0  0  0  0  0  0  0  0  0  0  0  0
   56.1871   28.6756   43.6864 H   0  0  0  0  0  0  0  0  0  0  0  0
   55.7532   30.2247   44.4962 H   0  0  0  0  0  0  0  0  0  0  0  0
   57.3807   29.8470   41.9383 H   0  0  0  0  0  0  0  0  0  0  0  0
   55.7389   30.6184   42.1402 H   0  0  0  0  0  0  0  0  0  0  0  0
   58.2325   31.9221   42.0786 H   0  0  0  0  0  0  0  0  0  0  0  0
   56.6047   32.5917   42.5762 H   0  0  0  0  0  0  0  0  0  0  0  0
   58.6043   32.9389   44.1775 H   0  0  0  0  0  0  0  0  0  0  0  0
   57.0358   32.3207   44.8414 H   0  0  0  0  0  0  0  0  0  0  0  0
   59.5432   30.6975   44.2036 H   0  0  0  0  0  0  0  0  0  0  0  0
   58.8255   31.0489   45.8302 H   0  0  0  0  0  0  0  0  0  0  0  0
   56.4571   25.5625   43.5185 H   0  0  0  0  0  0  0  0  0  0  0  0
   55.9290   23.3318   42.5384 H   0  0  0  0  0  0  0  0  0  0  0  0
  1  2  2  0
  2  3  1  0
  3  4  2  0
  4  5  1  0
  5  6  2  0
  6  7  1  0
  7  8  1  0
  8  9  2  0
  9 10  1  0
 10 11  2  0
 11 12  1  0
  7 13  2  0
 13 14  1  0
 14 15  1  0
 15 16  1  0
 16 17  1  0
 17 18  1  0
 18 19  1  0
 19 20  1  0
 14 21  2  0
  4 22  1  0
 22 23  2  0
 23  1  1  0
 21  5  1  0
 12  8  1  0
 20 15  1  0
  1 24  1  0
  2 25  1  0
  3 26  1  0
  6 27  1  0
  9 28  1  0
 10 29  1  0
 11 30  1  0
 16 31  1  0
 16 32  1  0
 17 33  1  0
 17 34  1  0
 18 35  1  0
 18 36  1  0
 19 37  1  0
 19 38  1  0
 20 39  1  0
 20 40  1  0
 22 41  1  0
 23 42  1  0
M  END
>  <UniqueID>  (7) 
6

>  <SMILES>  (7) 
c1ccc(-c2cc(-c3cccs3)nc(N3CCCCC3)n2)cc1

>  <Energy>  (7) 
77.56330595958956

>  <Genealogy>  (7) 
c1ccc(-c2cc(-c3cccs3)nc(N3CCCCC3)n2)cc1 (3D coordinates assigned)
c1ccc(-c2cc(-c3cccs3)nc(N3CCCCC3)n2)cc1 (nonaromatic ring conformer: 77.56330595958956 kcal/mol)

>  <smiles>  (7) 
c1ccc(-c2cc(-c3cccs3)nc(N3CCCCC3)n2)cc1

>  <score_type>  (7) 
oracle

>  <origin>  (7) 
adg

>  <m_score__min__energy>  (7) 
-6.7999999999999998

>  <m_primary>  (7) 
energy

$$$$
7:0
     RDKit          3D

 28 29  0  0  0  0  0  0  0  0999 V2000
   57.7522   32.5318   44.6676 H   0  0  0  0  0  0  0  0  0  0  0  0
   57.2850   31.6170   44.2740 C   0  0  0  0  0  0  0  0  0  0  0  0
   56.7030   30.6860   45.0780 N   0  0  0  0  0  0  0  0  0  0  0  0
   56.2000   29.6530   44.3690 C   0  0  0  0  0  0  0  0  0  0  0  0
   55.6000   28.6520   44.9470 N   0  0  0  0  0  0  0  0  0  0  0  0
   56.2040   27.5330   45.6110 C   0  0  0  0  0  0  0  0  0  0  0  0
   55.5180   26.5420   45.9840 O   0  0  0  0  0  0  0  0  0  0  0  0
   57.6120   27.5540   45.8490 N   0  0  0  0  0  0  0  0  0  0  0  0
   58.5790   26.9610   44.9320 C   0  0  0  0  0  0  0  0  0  0  0  0
   58.0427   26.4096   44.1457 H   0  0  0  0  0  0  0  0  0  0  0  0
   59.2318   26.2765   45.4935 H   0  0  0  0  0  0  0  0  0  0  0  0
   59.4360   28.0500   44.2890 C   0  0  0  0  0  0  0  0  0  0  0  0
   58.8695   28.5146   43.4685 H   0  0  0  0  0  0  0  0  0  0  0  0
   60.3595   27.5879   43.9100 H   0  0  0  0  0  0  0  0  0  0  0  0
   59.8090   29.1080   45.2870 C   0  0  0  0  0  0  0  0  0  0  0  0
   61.1290   29.4360   45.5900 C   0  0  0  0  0  0  0  0  0  0  0  0
   62.0274   28.9959   45.1326 H   0  0  0  0  0  0  0  0  0  0  0  0
   61.1040   30.6260   46.7810 S   0  0  0  0  0  0  0  0  0  0  0  0
   59.4260   30.6570   46.8800 C   0  0  0  0  0  0  0  0  0  0  0  0
   58.6380   31.5820   47.7470 C   0  0  0  0  0  0  0  0  0  0  0  0
   58.8351   31.3507   48.8042 H   0  0  0  0  0  0  0  0  0  0  0  0
   58.9328   32.6209   47.5379 H   0  0  0  0  0  0  0  0  0  0  0  0
   57.5654   31.4560   47.5379 H   0  0  0  0  0  0  0  0  0  0  0  0
   58.8740   29.7890   46.0060 N   0  0  0  0  0  0  0  0  0  0  0  0
   57.8440   29.6550   45.8930 H   0  0  0  0  0  0  0  0  0  0  0  0
   56.4550   29.8520   42.7090 S   0  0  0  0  0  0  0  0  0  0  0  0
   57.2430   31.3220   42.9190 C   0  0  0  0  0  0  0  0  0  0  0  0
   57.9550   32.3970   41.5150 Br  0  0  0  0  0  0  0  0  0  0  0  0
  1  2  1  0
  2  3  1  0
  3  4  1  0
  4  5  2  0
  5  6  1  0
  6  7  2  0
  6  8  1  0
  8  9  1  0
  9 10  1  0
  9 11  1  0
  9 12  1  0
 12 13  1  0
 12 14  1  0
 12 15  1  0
 15 16  2  0
 16 17  1  0
 16 18  1  0
 18 19  1  0
 19 20  1  0
 20 21  1  0
 20 22  1  0
 20 23  1  0
 19 24  2  0
 24 25  1  0
  4 26  1  0
 26 27  1  0
 27 28  1  0
 27  2  2  0
 24 15  1  0
M  CHG  3   3  -1   8  -1  24   1
M  END
>  <UniqueID>  (8) 
7

>  <SMILES>  (8) 
Cc1[nH+]c(CC[N-]C(=O)/N=c2/[n-]cc(Br)s2)cs1

>  <Energy>  (8) 
83.55840367198628

>  <Genealogy>  (8) 
Cc1[nH+]c(CC[N-]C(=O)N=c2[n-]cc(Br)s2)cs1 (protonated)
Cc1[nH+]c(CC[N-]C(=O)/N=c2/[n-]cc(Br)s2)cs1 (cis-trans isomerization)
Cc1[nH+]c(CC[N-]C(=O)/N=c2/[n-]cc(Br)s2)cs1 (3D coordinates assigned)
Cc1[nH+]c(CC[N-]C(=O)/N=c2/[n-]cc(Br)s2)cs1 (optimized conformer: 83.55840367198628 kcal/mol)

>  <smiles>  (8) 
Cc1nc(CCNC(=O)N=c2[nH]cc(Br)s2)cs1

>  <score_type>  (8) 
oracle

>  <origin>  (8) 
adg

>  <m_score__min__energy>  (8) 
-8.2100000000000009

>  <m_primary>  (8) 
energy

$$$$
8:0
     RDKit          3D

 29 30  0  0  0  0  0  0  0  0999 V2000
   58.3700   22.5400   44.6160 C   0  0  0  0  0  0  0  0  0  0  0  0
   58.0770   23.7940   45.4570 C   0  0  0  0  0  0  0  0  0  0  0  0
   57.0620   24.7090   44.8890 N   0  0  0  0  0  0  0  0  0  0  0  0
   57.3960   25.2110   43.5370 C   0  0  0  0  0  0  0  0  0  0  0  0
   57.9980   26.6430   43.5930 C   0  0  0  0  0  0  0  0  0  0  0  0
   57.5400   27.2870   44.8160 N   0  0  0  0  0  0  0  0  0  0  0  0
   58.0740   28.5230   45.3070 C   0  0  0  0  0  0  0  0  0  0  0  0
   59.1430   28.5110   46.2160 C   0  0  0  0  0  0  0  0  0  0  0  0
   59.6570   29.7080   46.7150 C   0  0  0  0  0  0  0  0  0  0  0  0
   59.1100   30.9270   46.3100 C   0  0  0  0  0  0  0  0  0  0  0  0
   58.0450   30.9550   45.4020 C   0  0  0  0  0  0  0  0  0  0  0  0
   57.3910   32.5130   44.9140 Cl  0  0  0  0  0  0  0  0  0  0  0  0
   57.5220   29.7510   44.8950 C   0  0  0  0  0  0  0  0  0  0  0  0
   56.2050   29.7780   43.7250 Cl  0  0  0  0  0  0  0  0  0  0  0  0
   56.8260   26.1310   45.8450 S   0  0  0  0  0  0  0  0  0  0  0  0
   55.3610   26.4030   46.0240 O   0  0  0  0  0  0  0  0  0  0  0  0
   57.5240   26.0660   47.1760 O   0  0  0  0  0  0  0  0  0  0  0  0
   58.5689   21.6889   45.2838 H   0  0  0  0  0  0  0  0  0  0  0  0
   57.5007   22.3128   43.9813 H   0  0  0  0  0  0  0  0  0  0  0  0
   59.2499   22.7215   43.9813 H   0  0  0  0  0  0  0  0  0  0  0  0
   57.7244   23.4660   46.4460 H   0  0  0  0  0  0  0  0  0  0  0  0
   59.0169   24.3644   45.4933 H   0  0  0  0  0  0  0  0  0  0  0  0
   58.1289   24.5331   43.0751 H   0  0  0  0  0  0  0  0  0  0  0  0
   56.4698   25.2492   42.9448 H   0  0  0  0  0  0  0  0  0  0  0  0
   59.0964   26.5844   43.5930 H   0  0  0  0  0  0  0  0  0  0  0  0
   57.6744   27.2234   42.7164 H   0  0  0  0  0  0  0  0  0  0  0  0
   59.5779   27.5529   46.5367 H   0  0  0  0  0  0  0  0  0  0  0  0
   60.4942   29.6914   47.4283 H   0  0  0  0  0  0  0  0  0  0  0  0
   59.5174   31.8689   46.7059 H   0  0  0  0  0  0  0  0  0  0  0  0
  1  2  1  0
  2  3  1  0
  3  4  1  0
  4  5  1  0
  5  6  1  0
  6  7  1  0
  7  8  2  0
  8  9  1  0
  9 10  2  0
 10 11  1  0
 11 12  1  0
 11 13  2  0
 13 14  1  0
  6 15  1  0
 15 16  2  0
 15 17  2  0
 15  3  1  0
 13  7  1  0
  1 18  1  0
  1 19  1  0
  1 20  1  0
  2 21  1  0
  2 22  1  0
  4 23  1  0
  4 24  1  0
  5 25  1  0
  5 26  1  0
  8 27  1  0
  9 28  1  0
 10 29  1  0
M  END
>  <UniqueID>  (9) 
8

>  <SMILES>  (9) 
CCN1CCN(c2cccc(Cl)c2Cl)S1(=O)=O

>  <Energy>  (9) 
45.72350902285938

>  <Genealogy>  (9) 
CCN1CCN(c2cccc(Cl)c2Cl)S1(=O)=O (3D coordinates assigned)
CCN1CCN(c2cccc(Cl)c2Cl)S1(=O)=O (nonaromatic ring conformer: 45.72350902285938 kcal/mol)

>  <smiles>  (9) 
CCN1CCN(c2cccc(Cl)c2Cl)S1(=O)=O

>  <score_type>  (9) 
oracle

>  <origin>  (9) 
adg

>  <m_score__min__energy>  (9) 
-7.0199999999999996

>  <m_primary>  (9) 
energy

$$$$
9:0
     RDKit          3D

 49 52  0  0  0  0  0  0  0  0999 V2000
   67.2750   33.0880   50.4580 C   0  0  0  0  0  0  0  0  0  0  0  0
   66.0760   32.7510   51.1470 O   0  0  0  0  0  0  0  0  0  0  0  0
   64.8730   32.3930   50.5170 C   0  0  0  0  0  0  0  0  0  0  0  0
   64.0130   31.4090   51.0350 C   0  0  0  0  0  0  0  0  0  0  0  0
   62.8250   31.0890   50.3740 C   0  0  0  0  0  0  0  0  0  0  0  0
   62.4720   31.7550   49.1870 C   0  0  0  0  0  0  0  0  0  0  0  0
   63.3360   32.7250   48.6570 C   0  0  0  0  0  0  0  0  0  0  0  0
   64.5300   33.0430   49.3270 C   0  0  0  0  0  0  0  0  0  0  0  0
   62.9640   33.3850   47.3820 C   0  0  0  0  0  0  0  0  0  0  0  0
   63.7330   34.2500   46.8770 O   0  0  0  0  0  0  0  0  0  0  0  0
   61.7110   33.0790   46.7230 N   0  0  2  0  0  0  0  0  0  0  0  0
   60.6780   34.0530   47.1290 C   0  0  0  0  0  0  0  0  0  0  0  0
   59.4120   33.8870   46.2770 C   0  0  0  0  0  0  0  0  0  0  0  0
   59.0270   32.4410   46.0760 C   0  0  0  0  0  0  0  0  0  0  0  0
   57.7770   32.1410   45.5190 C   0  0  0  0  0  0  0  0  0  0  0  0
   57.4080   30.8090   45.2520 C   0  0  0  0  0  0  0  0  0  0  0  0
   56.1600   30.4780   44.7020 O   0  0  0  0  0  0  0  0  0  0  0  0
   55.9640   29.9810   43.3830 C   0  0  0  0  0  0  0  0  0  0  0  0
   58.3060   29.7710   45.5380 C   0  0  0  0  0  0  0  0  0  0  0  0
   57.9070   28.4520   45.2660 O   0  0  0  0  0  0  0  0  0  0  0  0
   58.4020   27.6660   44.1870 C   0  0  0  0  0  0  0  0  0  0  0  0
   59.5670   30.0710   46.0850 C   0  0  0  0  0  0  0  0  0  0  0  0
   59.9350   31.3980   46.3510 C   0  0  0  0  0  0  0  0  0  0  0  0
   61.2710   31.6910   47.0130 C   0  0  2  0  0  0  0  0  0  0  0  0
   61.2560   31.4510   48.4760 N   0  0  0  0  0  0  0  0  0  0  0  0
   60.0750   30.9410   49.1930 C   0  0  0  0  0  0  0  0  0  0  0  0
   68.0672   33.3107   51.1880 H   0  0  0  0  0  0  0  0  0  0  0  0
   67.5853   32.2423   49.8268 H   0  0  0  0  0  0  0  0  0  0  0  0
   67.0992   33.9715   49.8268 H   0  0  0  0  0  0  0  0  0  0  0  0
   64.2774   30.8877   51.9669 H   0  0  0  0  0  0  0  0  0  0  0  0
   62.1625   30.3124   50.7839 H   0  0  0  0  0  0  0  0  0  0  0  0
   65.2005   33.8098   48.9118 H   0  0  0  0  0  0  0  0  0  0  0  0
   61.8690   33.1650   45.6900 H   0  0  0  0  0  0  0  0  0  0  0  0
   60.4250   33.8912   48.1872 H   0  0  0  0  0  0  0  0  0  0  0  0
   61.0726   35.0693   46.9823 H   0  0  0  0  0  0  0  0  0  0  0  0
   58.5810   34.4055   46.7776 H   0  0  0  0  0  0  0  0  0  0  0  0
   59.6219   34.3146   45.2855 H   0  0  0  0  0  0  0  0  0  0  0  0
   57.0755   32.9560   45.2875 H   0  0  0  0  0  0  0  0  0  0  0  0
   55.5609   28.9587   43.4325 H   0  0  0  0  0  0  0  0  0  0  0  0
   55.2543   30.6296   42.8485 H   0  0  0  0  0  0  0  0  0  0  0  0
   56.9253   29.9706   42.8485 H   0  0  0  0  0  0  0  0  0  0  0  0
   58.9483   26.7985   44.5857 H   0  0  0  0  0  0  0  0  0  0  0  0
   57.5601   27.3175   43.5708 H   0  0  0  0  0  0  0  0  0  0  0  0
   59.0801   28.2747   43.5708 H   0  0  0  0  0  0  0  0  0  0  0  0
   60.2719   29.2561   46.3064 H   0  0  0  0  0  0  0  0  0  0  0  0
   61.9936   30.9840   46.5795 H   0  0  0  0  0  0  0  0  0  0  0  0
   60.2445   31.0142   50.2774 H   0  0  0  0  0  0  0  0  0  0  0  0
   59.1931   31.5385   48.9186 H   0  0  0  0  0  0  0  0  0  0  0  0
   59.9053   29.8894   48.9186 H   0  0  0  0  0  0  0  0  0  0  0  0
  1  2  1  0
  2  3  1  0
  3  4  2  0
  4  5  1  0
  5  6  2  0
  6  7  1  0
  7  8  2  0
  7  9  1  0
  9 10  2  0
  9 11  1  0
 11 12  1  0
 12 13  1  0
 13 14  1  0
 14 15  2  0
 15 16  1  0
 16 17  1  0
 17 18  1  0
 16 19  2  0
 19 20  1  0
 20 21  1  0
 19 22  1  0
 22 23  2  0
 23 24  1  0
 24 25  1  0
 25 26  1  0
  8  3  1  0
 24 11  1  0
 25  6  1  0
 23 14  1  0
  1 27  1  0
  1 28  1  0
  1 29  1  0
  4 30  1  0
  5 31  1  0
  8 32  1  0
 11 33  1  6
 12 34  1  0
 12 35  1  0
 13 36  1  0
 13 37  1  0
 15 38  1  0
 18 39  1  0
 18 40  1  0
 18 41  1  0
 21 42  1  0
 21 43  1  0
 21 44  1  0
 22 45  1  0
 24 46  1  6
 26 47  1  0
 26 48  1  0
 26 49  1  0
M  CHG  1  11   1
M  END
>  <UniqueID>  (10) 
9

>  <SMILES>  (10) 
COc1ccc2c(c1)C(=O)[N@@H+]1CCc3cc(OC)c(OC)cc3[C@@H]1N2C

>  <Energy>  (10) 
63.69227495710535

>  <Genealogy>  (10) 
COc1ccc2c(c1)C(=O)[NH+]1CCc3cc(OC)c(OC)cc3C1N2C (protonated)
COc1ccc2c(c1)C(=O)[N@@H+]1CCc3cc(OC)c(OC)cc3[C@@H]1N2C (chirality)
COc1ccc2c(c1)C(=O)[N@@H+]1CCc3cc(OC)c(OC)cc3[C@@H]1N2C (3D coordinates assigned)
COc1ccc2c(c1)C(=O)[N@@H+]1CCc3cc(OC)c(OC)cc3[C@@H]1N2C (nonaromatic ring conformer: 63.69227495710535 kcal/mol)

>  <smiles>  (10) 
COc1ccc2c(c1)C(=O)N1CCc3cc(OC)c(OC)cc3C1N2C

>  <score_type>  (10) 
oracle

>  <origin>  (10) 
adg

>  <m_score__min__energy>  (10) 
-6.1900000000000004

>  <m_primary>  (10) 
energy

$$$$
10:0
     RDKit          3D

 40 41  0  0  0  0  0  0  0  0999 V2000
   64.2351   31.7480   47.3637 H   0  0  0  0  0  0  0  0  0  0  0  0
   63.2040   32.0900   47.1910 C   0  0  0  0  0  0  0  0  0  0  0  0
   62.1680   31.2300   47.3490 N   0  0  0  0  0  0  0  0  0  0  0  0
   60.8780   31.6070   47.1390 C   0  0  0  0  0  0  0  0  0  0  0  0
   60.0672   30.8785   47.2872 H   0  0  0  0  0  0  0  0  0  0  0  0
   60.5680   32.9260   46.7320 C   0  0  0  0  0  0  0  0  0  0  0  0
   59.1120   33.4150   46.5570 C   0  0  0  0  0  0  0  0  0  0  0  0
   58.9530   34.9200   46.9010 C   0  0  0  0  0  0  0  0  0  0  0  0
   58.9396   35.0470   47.9936 H   0  0  0  0  0  0  0  0  0  0  0  0
   59.7965   35.4842   46.4766 H   0  0  0  0  0  0  0  0  0  0  0  0
   58.0102   35.2955   46.4766 H   0  0  0  0  0  0  0  0  0  0  0  0
   58.1730   32.6450   47.5200 C   0  0  0  0  0  0  0  0  0  0  0  0
   58.4491   32.8714   48.5604 H   0  0  0  0  0  0  0  0  0  0  0  0
   57.1322   32.9530   47.3415 H   0  0  0  0  0  0  0  0  0  0  0  0
   58.2712   31.5640   47.3415 H   0  0  0  0  0  0  0  0  0  0  0  0
   58.6350   33.1690   45.0980 C   0  0  0  0  0  0  0  0  0  0  0  0
   59.2815   33.7364   44.4124 H   0  0  0  0  0  0  0  0  0  0  0  0
   57.5884   33.4991   45.0222 H   0  0  0  0  0  0  0  0  0  0  0  0
   58.6900   31.7470   44.7340 N   0  0  0  0  0  0  0  0  0  0  0  0
   57.7530   30.8420   44.8170 C   0  0  0  0  0  0  0  0  0  0  0  0
   56.5280   31.1010   44.1920 C   0  0  0  0  0  0  0  0  0  0  0  0
   56.3644   32.0581   43.6750 H   0  0  0  0  0  0  0  0  0  0  0  0
   55.5150   30.1430   44.2260 C   0  0  0  0  0  0  0  0  0  0  0  0
   54.5523   30.3449   43.7337 H   0  0  0  0  0  0  0  0  0  0  0  0
   55.7140   28.9620   44.8650 N   0  0  0  0  0  0  0  0  0  0  0  0
   56.8830   28.6720   45.4990 C   0  0  0  0  0  0  0  0  0  0  0  0
   57.0450   27.3640   46.1730 C   0  0  0  0  0  0  0  0  0  0  0  0
   57.9110   27.2280   47.0820 O   0  0  0  0  0  0  0  0  0  0  0  0
   56.2300   26.2440   45.7980 N   0  0  0  0  0  0  0  0  0  0  0  0
   55.5090   26.3470   45.0500 H   0  0  0  0  0  0  0  0  0  0  0  0
   56.3820   24.9420   46.4350 C   0  0  0  0  0  0  0  0  0  0  0  0
   56.3677   25.0647   47.5280 H   0  0  0  0  0  0  0  0  0  0  0  0
   55.5544   24.2852   46.1289 H   0  0  0  0  0  0  0  0  0  0  0  0
   57.3386   24.4935   46.1289 H   0  0  0  0  0  0  0  0  0  0  0  0
   57.9210   29.6200   45.4980 C   0  0  0  0  0  0  0  0  0  0  0  0
   58.8617   29.4084   46.0274 H   0  0  0  0  0  0  0  0  0  0  0  0
   61.6490   33.8240   46.5890 C   0  0  0  0  0  0  0  0  0  0  0  0
   61.4533   34.8670   46.2994 H   0  0  0  0  0  0  0  0  0  0  0  0
   62.9610   33.4060   46.8100 C   0  0  0  0  0  0  0  0  0  0  0  0
   63.7964   34.1105   46.6842 H   0  0  0  0  0  0  0  0  0  0  0  0
  1  2  1  0
  2  3  2  0
  3  4  1  0
  4  5  1  0
  4  6  2  0
  6  7  1  0
  7  8  1  0
  8  9  1  0
  8 10  1  0
  8 11  1  0
  7 12  1  0
 12 13  1  0
 12 14  1  0
 12 15  1  0
  7 16  1  0
 16 17  1  0
 16 18  1  0
 16 19  1  0
 19 20  2  0
 20 21  1  0
 21 22  1  0
 21 23  2  0
 23 24  1  0
 23 25  1  0
 25 26  1  0
 26 27  1  0
 27 28  2  0
 27 29  1  0
 29 30  1  0
 29 31  1  0
 31 32  1  0
 31 33  1  0
 31 34  1  0
 26 35  2  0
 35 36  1  0
  6 37  1  0
 37 38  1  0
 37 39  2  0
 39 40  1  0
 39  2  1  0
 35 20  1  0
M  CHG  1  25  -1
M  END
>  <UniqueID>  (11) 
10

>  <SMILES>  (11) 
CNC(=O)c1c/c(=N\CC(C)(C)c2cccnc2)cc[n-]1

>  <Energy>  (11) 
44.05305346993105

>  <Genealogy>  (11) 
CNC(=O)c1cc(=NCC(C)(C)c2cccnc2)cc[n-]1 (protonated)
CNC(=O)c1c/c(=N\CC(C)(C)c2cccnc2)cc[n-]1 (cis-trans isomerization)
CNC(=O)c1c/c(=N\CC(C)(C)c2cccnc2)cc[n-]1 (3D coordinates assigned)
CNC(=O)c1c/c(=N\CC(C)(C)c2cccnc2)cc[n-]1 (optimized conformer: 44.05305346993105 kcal/mol)

>  <smiles>  (11) 
CNC(=O)c1cc(=NCC(C)(C)c2cccnc2)cc[nH]1

>  <score_type>  (11) 
oracle

>  <origin>  (11) 
adg

>  <m_score__min__energy>  (11) 
-9.4800000000000004

>  <m_primary>  (11) 
energy

$$$$
11:0
     RDKit          3D

 50 52  0  0  0  0  0  0  0  0999 V2000
   57.3440   25.3060   45.1240 C   0  0  0  0  0  0  0  0  0  0  0  0
   56.3540   26.3440   46.2430 S   0  0  0  0  0  0  0  0  0  0  0  0
   57.2030   27.9120   45.8410 C   0  0  0  0  0  0  0  0  0  0  0  0
   58.0090   27.7580   44.5480 C   0  0  0  0  0  0  0  0  0  0  0  0
   58.7410   29.0560   44.1540 C   0  0  2  0  0  0  0  0  0  0  0  0
   60.1340   29.0960   44.6590 N   0  0  0  0  0  0  0  0  0  0  0  0
   60.4400   28.2630   45.8390 C   0  0  0  0  0  0  0  0  0  0  0  0
   60.0770   28.9540   47.1250 C   0  0  0  0  0  0  0  0  0  0  0  0
   60.2000   30.3460   47.2540 C   0  0  0  0  0  0  0  0  0  0  0  0
   59.8510   30.9690   48.4530 C   0  0  0  0  0  0  0  0  0  0  0  0
   59.3870   30.1940   49.5170 C   0  0  0  0  0  0  0  0  0  0  0  0
   59.2930   28.8450   49.3860 N   0  0  0  0  0  0  0  0  0  0  0  0
   59.6310   28.2140   48.2300 C   0  0  0  0  0  0  0  0  0  0  0  0
   57.9330   30.2670   44.5390 C   0  0  0  0  0  0  0  0  0  0  0  0
   56.5920   30.3550   44.4450 N   0  0  0  0  0  0  0  0  0  0  0  0
   56.2690   31.5720   44.8560 N   0  0  0  0  0  0  0  0  0  0  0  0
   57.4280   32.1790   45.1750 C   0  0  0  0  0  0  0  0  0  0  0  0
   57.5450   33.5740   45.7030 C   0  0  0  0  0  0  0  0  0  0  0  0
   58.9260   34.1790   45.4160 C   0  0  0  0  0  0  0  0  0  0  0  0
   59.8750   34.0260   46.5840 C   0  0  0  0  0  0  0  0  0  0  0  0
   59.4510   34.3350   47.8870 C   0  0  0  0  0  0  0  0  0  0  0  0
   60.3530   34.2660   48.9550 C   0  0  0  0  0  0  0  0  0  0  0  0
   61.6800   33.8880   48.7310 C   0  0  0  0  0  0  0  0  0  0  0  0
   62.1070   33.5630   47.4390 C   0  0  0  0  0  0  0  0  0  0  0  0
   63.7660   33.0680   47.1650 Cl  0  0  0  0  0  0  0  0  0  0  0  0
   61.2110   33.6400   46.3660 C   0  0  0  0  0  0  0  0  0  0  0  0
   58.4510   31.3850   44.9820 O   0  0  0  0  0  0  0  0  0  0  0  0
   57.9838   24.6352   45.7162 H   0  0  0  0  0  0  0  0  0  0  0  0
   56.6735   24.7077   44.4896 H   0  0  0  0  0  0  0  0  0  0  0  0
   57.9733   25.9475   44.4896 H   0  0  0  0  0  0  0  0  0  0  0  0
   56.4548   28.7077   45.7106 H   0  0  0  0  0  0  0  0  0  0  0  0
   57.8868   28.1719   46.6625 H   0  0  0  0  0  0  0  0  0  0  0  0
   58.7540   26.9611   44.6889 H   0  0  0  0  0  0  0  0  0  0  0  0
   57.3038   27.5122   43.7404 H   0  0  0  0  0  0  0  0  0  0  0  0
   58.8332   29.0701   43.0580 H   0  0  0  0  0  0  0  0  0  0  0  0
   60.3460   30.0880   44.9200 H   0  0  0  0  0  0  0  0  0  0  0  0
   59.8720   27.3237   45.7678 H   0  0  0  0  0  0  0  0  0  0  0  0
   61.5233   28.0726   45.8492 H   0  0  0  0  0  0  0  0  0  0  0  0
   60.5715   30.9459   46.4101 H   0  0  0  0  0  0  0  0  0  0  0  0
   59.9407   32.0602   48.5585 H   0  0  0  0  0  0  0  0  0  0  0  0
   59.0972   30.6758   50.4624 H   0  0  0  0  0  0  0  0  0  0  0  0
   59.5544   27.1188   48.1611 H   0  0  0  0  0  0  0  0  0  0  0  0
   56.7762   34.2004   45.2270 H   0  0  0  0  0  0  0  0  0  0  0  0
   57.4074   33.5390   46.7938 H   0  0  0  0  0  0  0  0  0  0  0  0
   59.3586   33.6730   44.5403 H   0  0  0  0  0  0  0  0  0  0  0  0
   58.7899   35.2550   45.2323 H   0  0  0  0  0  0  0  0  0  0  0  0
   58.4075   34.6319   48.0685 H   0  0  0  0  0  0  0  0  0  0  0  0
   60.0167   34.5099   49.9735 H   0  0  0  0  0  0  0  0  0  0  0  0
   62.3889   33.8461   49.5711 H   0  0  0  0  0  0  0  0  0  0  0  0
   61.5523   33.3979   45.3487 H   0  0  0  0  0  0  0  0  0  0  0  0
  1  2  1  0
  2  3  1  0
  3  4  1  0
  4  5  1  0
  5  6  1  0
  6  7  1  0
  7  8  1  0
  8  9  2  0
  9 10  1  0
 10 11  2  0
 11 12  1  0
 12 13  2  0
  5 14  1  0
 14 15  2  0
 15 16  1  0
 16 17  2  0
 17 18  1  0
 18 19  1  0
 19 20  1  0
 20 21  2  0
 21 22  1  0
 22 23  2  0
 23 24  1  0
 24 25  1  0
 24 26  2  0
 17 27  1  0
 13  8  1  0
 27 14  1  0
 26 20  1  0
  1 28  1  0
  1 29  1  0
  1 30  1  0
  3 31  1  0
  3 32  1  0
  4 33  1  0
  4 34  1  0
  5 35  1  6
  6 36  1  0
  7 37  1  0
  7 38  1  0
  9 39  1  0
 10 40  1  0
 11 41  1  0
 13 42  1  0
 18 43  1  0
 18 44  1  0
 19 45  1  0
 19 46  1  0
 21 47  1  0
 22 48  1  0
 23 49  1  0
 26 50  1  0
M  END
>  <UniqueID>  (12) 
11

>  <SMILES>  (12) 
CSCC[C@H](NCc1cccnc1)c1nnc(CCc2cccc(Cl)c2)o1

>  <Energy>  (12) 
75.17991739148187

>  <Genealogy>  (12) 
CSCC[C@H](NCc1cccnc1)c1nnc(CCc2cccc(Cl)c2)o1 (chirality)
CSCC[C@H](NCc1cccnc1)c1nnc(CCc2cccc(Cl)c2)o1 (3D coordinates assigned)
CSCC[C@H](NCc1cccnc1)c1nnc(CCc2cccc(Cl)c2)o1 (optimized conformer: 75.17991739148187 kcal/mol)

>  <smiles>  (12) 
CSCCC(NCc1cccnc1)c1nnc(CCc2cccc(Cl)c2)o1

>  <score_type>  (12) 
oracle

>  <origin>  (12) 
adg

>  <m_score__min__energy>  (12) 
-8.9299999999999997

>  <m_primary>  (12) 
energy

$$$$
12:0
     RDKit          3D

 42 44  0  0  0  0  0  0  0  0999 V2000
   53.0110   23.7990   44.9450 C   0  0  0  0  0  0  0  0  0  0  0  0
   54.1270   24.6550   45.4400 C   0  0  0  0  0  0  0  0  0  0  0  0
   55.3780   24.2200   45.8210 C   0  0  0  0  0  0  0  0  0  0  0  0
   56.0040   25.3900   46.2160 C   0  0  0  0  0  0  0  0  0  0  0  0
   57.2040   25.5140   46.7020 N   0  0  0  0  0  0  0  0  0  0  0  0
   58.2240   26.4140   46.2420 C   0  0  0  0  0  0  0  0  0  0  0  0
   59.4020   25.9810   46.1300 O   0  0  0  0  0  0  0  0  0  0  0  0
   57.9560   27.8930   46.0720 C   0  0  0  0  0  0  0  0  0  0  0  0
   59.2380   28.7010   46.3300 C   0  0  0  0  0  0  0  0  0  0  0  0
   58.9860   30.2200   46.1990 C   0  0  0  0  0  0  0  0  0  0  0  0
   57.7180   30.5260   45.5000 N   0  0  0  0  0  0  0  0  0  0  0  0
   57.6750   32.2160   45.0690 S   0  0  0  0  0  0  0  0  0  0  0  0
   56.2690   32.7330   45.1880 O   0  0  0  0  0  0  0  0  0  0  0  0
   58.1320   32.4000   43.6470 O   0  0  0  0  0  0  0  0  0  0  0  0
   58.7110   33.1380   46.1560 C   0  0  0  0  0  0  0  0  0  0  0  0
   58.4580   33.1250   47.5350 C   0  0  0  0  0  0  0  0  0  0  0  0
   59.2890   33.8360   48.4070 C   0  0  0  0  0  0  0  0  0  0  0  0
   60.3760   34.5580   47.9070 C   0  0  0  0  0  0  0  0  0  0  0  0
   60.6360   34.5660   46.5330 C   0  0  0  0  0  0  0  0  0  0  0  0
   59.8070   33.8570   45.6580 C   0  0  0  0  0  0  0  0  0  0  0  0
   57.5730   29.6980   44.2910 C   0  0  0  0  0  0  0  0  0  0  0  0
   57.3940   28.2140   44.6670 C   0  0  0  0  0  0  0  0  0  0  0  0
   55.1620   26.4320   46.0910 N   0  0  0  0  0  0  0  0  0  0  0  0
   54.0470   25.9530   45.6190 O   0  0  0  0  0  0  0  0  0  0  0  0
   52.4634   23.3790   45.8015 H   0  0  0  0  0  0  0  0  0  0  0  0
   52.3265   24.4059   44.3341 H   0  0  0  0  0  0  0  0  0  0  0  0
   53.4198   22.9806   44.3341 H   0  0  0  0  0  0  0  0  0  0  0  0
   55.7799   23.1961   45.8132 H   0  0  0  0  0  0  0  0  0  0  0  0
   57.1937   28.1808   46.8110 H   0  0  0  0  0  0  0  0  0  0  0  0
   59.5983   28.4848   47.3466 H   0  0  0  0  0  0  0  0  0  0  0  0
   59.9868   28.4093   45.5789 H   0  0  0  0  0  0  0  0  0  0  0  0
   58.9482   30.6595   47.2067 H   0  0  0  0  0  0  0  0  0  0  0  0
   59.8071   30.6448   45.6029 H   0  0  0  0  0  0  0  0  0  0  0  0
   57.6049   32.5549   47.9316 H   0  0  0  0  0  0  0  0  0  0  0  0
   59.0865   33.8268   49.4882 H   0  0  0  0  0  0  0  0  0  0  0  0
   61.0265   35.1195   48.5936 H   0  0  0  0  0  0  0  0  0  0  0  0
   61.4941   35.1309   46.1398 H   0  0  0  0  0  0  0  0  0  0  0  0
   60.0149   33.8633   44.5778 H   0  0  0  0  0  0  0  0  0  0  0  0
   56.6925   30.0361   43.7249 H   0  0  0  0  0  0  0  0  0  0  0  0
   58.4816   29.8015   43.6797 H   0  0  0  0  0  0  0  0  0  0  0  0
   56.3211   27.9719   44.6513 H   0  0  0  0  0  0  0  0  0  0  0  0
   57.9522   27.6115   43.9353 H   0  0  0  0  0  0  0  0  0  0  0  0
  1  2  1  0
  2  3  2  0
  3  4  1  0
  4  5  2  3
  5  6  1  0
  6  7  2  0
  6  8  1  0
  8  9  1  0
  9 10  1  0
 10 11  1  0
 11 12  1  0
 12 13  2  0
 12 14  2  0
 12 15  1  0
 15 16  2  0
 16 17  1  0
 17 18  2  0
 18 19  1  0
 19 20  2  0
 11 21  1  0
 21 22  1  0
  4 23  1  0
 23 24  1  0
 24  2  1  0
 22  8  1  0
 20 15  1  0
  1 25  1  0
  1 26  1  0
  1 27  1  0
  3 28  1  0
  8 29  1  0
  9 30  1  0
  9 31  1  0
 10 32  1  0
 10 33  1  0
 16 34  1  0
 17 35  1  0
 18 36  1  0
 19 37  1  0
 20 38  1  0
 21 39  1  0
 21 40  1  0
 22 41  1  0
 22 42  1  0
M  CHG  1  23  -1
M  END
>  <UniqueID>  (13) 
12

>  <SMILES>  (13) 
Cc1cc(=NC(=O)C2CCN(S(=O)(=O)c3ccccc3)CC2)[n-]o1

>  <Energy>  (13) 
83.55190884958073

>  <Genealogy>  (13) 
Cc1cc(=NC(=O)C2CCN(S(=O)(=O)c3ccccc3)CC2)[n-]o1 (protonated)
Cc1cc(=NC(=O)C2CCN(S(=O)(=O)c3ccccc3)CC2)[n-]o1 (3D coordinates assigned)
Cc1cc(=NC(=O)C2CCN(S(=O)(=O)c3ccccc3)CC2)[n-]o1 (nonaromatic ring conformer: 83.55190884958073 kcal/mol)

>  <smiles>  (13) 
Cc1cc(=NC(=O)C2CCN(S(=O)(=O)c3ccccc3)CC2)[nH]o1

>  <score_type>  (13) 
oracle

>  <origin>  (13) 
adg

>  <m_score__min__energy>  (13) 
-11.26

>  <m_primary>  (13) 
energy

$$$$
13:0
     RDKit          3D

 29 30  0  0  0  0  0  0  0  0999 V2000
   64.5170   33.0670   48.8070 C   0  0  0  0  0  0  0  0  0  0  0  0
   63.7660   32.5120   47.6680 N   0  0  0  0  0  0  0  0  0  0  0  0
   63.2670   33.6020   46.7790 C   0  0  0  0  0  0  0  0  0  0  0  0
   61.7690   33.8880   46.9500 C   0  0  0  0  0  0  0  0  0  0  0  0
   60.9970   32.6550   46.7470 N   0  0  0  0  0  0  0  0  0  0  0  0
   59.6470   32.7040   46.2310 C   0  0  0  0  0  0  0  0  0  0  0  0
   59.0640   33.9250   45.8490 C   0  0  0  0  0  0  0  0  0  0  0  0
   57.7590   33.9560   45.3550 C   0  0  0  0  0  0  0  0  0  0  0  0
   57.0400   32.7650   45.2450 C   0  0  0  0  0  0  0  0  0  0  0  0
   57.6110   31.5910   45.6170 N   0  0  0  0  0  0  0  0  0  0  0  0
   58.8800   31.5320   46.1030 C   0  0  0  0  0  0  0  0  0  0  0  0
   61.6040   31.3710   47.1210 C   0  0  0  0  0  0  0  0  0  0  0  0
   62.7080   31.5930   48.1600 C   0  0  0  0  0  0  0  0  0  0  0  0
   64.0590   32.7285   49.7481 H   0  0  0  0  0  0  0  0  0  0  0  0
   65.5602   32.7212   48.7618 H   0  0  0  0  0  0  0  0  0  0  0  0
   64.4927   34.1658   48.7618 H   0  0  0  0  0  0  0  0  0  0  0  0
   64.4440   31.9380   47.1110 H   0  0  0  0  0  0  0  0  0  0  0  0
   63.8261   34.5215   47.0068 H   0  0  0  0  0  0  0  0  0  0  0  0
   63.4186   33.2705   45.7411 H   0  0  0  0  0  0  0  0  0  0  0  0
   61.5845   34.2707   47.9646 H   0  0  0  0  0  0  0  0  0  0  0  0
   61.4567   34.6366   46.2070 H   0  0  0  0  0  0  0  0  0  0  0  0
   59.6382   34.8588   45.9397 H   0  0  0  0  0  0  0  0  0  0  0  0
   57.3015   34.9103   45.0552 H   0  0  0  0  0  0  0  0  0  0  0  0
   56.0108   32.7776   44.8569 H   0  0  0  0  0  0  0  0  0  0  0  0
   59.3086   30.5627   46.3975 H   0  0  0  0  0  0  0  0  0  0  0  0
   60.8314   30.7134   47.5460 H   0  0  0  0  0  0  0  0  0  0  0  0
   62.0410   30.9050   46.2255 H   0  0  0  0  0  0  0  0  0  0  0  0
   62.2590   32.0234   49.0673 H   0  0  0  0  0  0  0  0  0  0  0  0
   63.1765   30.6196   48.3676 H   0  0  0  0  0  0  0  0  0  0  0  0
  1  2  1  0
  2  3  1  0
  3  4  1  0
  4  5  1  0
  5  6  1  0
  6  7  2  0
  7  8  1  0
  8  9  2  0
  9 10  1  0
 10 11  2  0
  5 12  1  0
 12 13  1  0
 13  2  1  0
 11  6  1  0
  1 14  1  0
  1 15  1  0
  1 16  1  0
  2 17  1  0
  3 18  1  0
  3 19  1  0
  4 20  1  0
  4 21  1  0
  7 22  1  0
  8 23  1  0
  9 24  1  0
 11 25  1  0
 12 26  1  0
 12 27  1  0
 13 28  1  0
 13 29  1  0
M  CHG  1   2   1
M  END
>  <UniqueID>  (14) 
13

>  <SMILES>  (14) 
C[NH+]1CCN(c2cccnc2)CC1

>  <Energy>  (14) 
38.77413231730336

>  <Genealogy>  (14) 
C[NH+]1CCN(c2cccnc2)CC1 (protonated)
C[NH+]1CCN(c2cccnc2)CC1 (3D coordinates assigned)
C[NH+]1CCN(c2cccnc2)CC1 (nonaromatic ring conformer: 38.77413231730336 kcal/mol)

>  <smiles>  (14) 
CN1CCN(c2cccnc2)CC1

>  <score_type>  (14) 
oracle

>  <origin>  (14) 
adg

>  <m_score__min__energy>  (14) 
-3.98

>  <m_primary>  (14) 
energy

$$$$
14:0
     RDKit          3D

 39 41  0  0  0  0  0  0  0  0999 V2000
   57.8130   33.4710   47.0510 C   0  0  0  0  0  0  0  0  0  0  0  0
   57.7130   33.8790   45.6410 N   0  0  0  0  0  0  0  0  0  0  0  0
   58.9040   34.6330   45.2170 C   0  0  0  0  0  0  0  0  0  0  0  0
   57.3910   32.7540   44.7340 C   0  0  0  0  0  0  0  0  0  0  0  0
   57.9730   31.3950   45.1720 C   0  0  0  0  0  0  0  0  0  0  0  0
   57.3480   30.3060   44.4050 N   0  0  0  0  0  0  0  0  0  0  0  0
   56.7000   30.6210   43.1260 C   0  0  0  0  0  0  0  0  0  0  0  0
   57.3600   28.9300   44.8610 C   0  0  0  0  0  0  0  0  0  0  0  0
   58.5650   28.1670   44.9230 C   0  0  0  0  0  0  0  0  0  0  0  0
   58.5380   26.8330   45.3680 C   0  0  0  0  0  0  0  0  0  0  0  0
   57.3050   26.3130   45.7350 C   0  0  0  0  0  0  0  0  0  0  0  0
   56.8870   25.0880   46.1990 C   0  0  0  0  0  0  0  0  0  0  0  0
   57.7320   23.8670   46.4020 C   0  0  0  0  0  0  0  0  0  0  0  0
   58.5440   23.4460   45.1870 C   0  0  0  0  0  0  0  0  0  0  0  0
   57.3070   22.6590   45.5820 C   0  0  0  0  0  0  0  0  0  0  0  0
   55.5420   25.1290   46.3660 N   0  0  0  0  0  0  0  0  0  0  0  0
   55.1010   26.3420   46.0420 N   0  0  0  0  0  0  0  0  0  0  0  0
   56.1730   27.0550   45.6610 C   0  0  0  0  0  0  0  0  0  0  0  0
   56.1770   28.3400   45.2330 N   0  0  0  0  0  0  0  0  0  0  0  0
   57.6013   34.3347   47.6985 H   0  0  0  0  0  0  0  0  0  0  0  0
   57.0839   32.6728   47.2543 H   0  0  0  0  0  0  0  0  0  0  0  0
   58.8285   33.1004   47.2543 H   0  0  0  0  0  0  0  0  0  0  0  0
   59.4531   34.9806   46.1045 H   0  0  0  0  0  0  0  0  0  0  0  0
   59.5549   33.9821   44.6148 H   0  0  0  0  0  0  0  0  0  0  0  0
   58.5941   35.4998   44.6148 H   0  0  0  0  0  0  0  0  0  0  0  0
   56.2965   32.6581   44.6802 H   0  0  0  0  0  0  0  0  0  0  0  0
   57.8492   32.9930   43.7630 H   0  0  0  0  0  0  0  0  0  0  0  0
   59.0584   31.3895   44.9932 H   0  0  0  0  0  0  0  0  0  0  0  0
   57.7690   31.2444   46.2424 H   0  0  0  0  0  0  0  0  0  0  0  0
   55.7255   31.0947   43.3156 H   0  0  0  0  0  0  0  0  0  0  0  0
   57.3371   31.3099   42.5520 H   0  0  0  0  0  0  0  0  0  0  0  0
   56.5518   29.6944   42.5520 H   0  0  0  0  0  0  0  0  0  0  0  0
   59.5188   28.6244   44.6214 H   0  0  0  0  0  0  0  0  0  0  0  0
   59.4550   26.2279   45.4227 H   0  0  0  0  0  0  0  0  0  0  0  0
   57.9548   24.0517   47.4632 H   0  0  0  0  0  0  0  0  0  0  0  0
   58.5347   24.0653   44.2779 H   0  0  0  0  0  0  0  0  0  0  0  0
   59.5998   23.1959   45.0060 H   0  0  0  0  0  0  0  0  0  0  0  0
   56.4018   22.7082   44.9590 H   0  0  0  0  0  0  0  0  0  0  0  0
   57.0960   21.6028   45.8055 H   0  0  0  0  0  0  0  0  0  0  0  0
  1  2  1  0
  2  3  1  0
  2  4  1  0
  4  5  1  0
  5  6  1  0
  6  7  1  0
  6  8  1  0
  8  9  2  0
  9 10  1  0
 10 11  2  0
 11 12  1  0
 12 13  1  0
 13 14  1  0
 14 15  1  0
 12 16  2  0
 16 17  1  0
 17 18  1  0
 18 19  2  0
 19  8  1  0
 18 11  1  0
 15 13  1  0
  1 20  1  0
  1 21  1  0
  1 22  1  0
  3 23  1  0
  3 24  1  0
  3 25  1  0
  4 26  1  0
  4 27  1  0
  5 28  1  0
  5 29  1  0
  7 30  1  0
  7 31  1  0
  7 32  1  0
  9 33  1  0
 10 34  1  0
 13 35  1  0
 14 36  1  0
 14 37  1  0
 15 38  1  0
 15 39  1  0
M  CHG  1  17  -1
M  END
>  <UniqueID>  (15) 
14

>  <SMILES>  (15) 
CN(C)CCN(C)c1ccc2c(C3CC3)n[n-]c2n1

>  <Energy>  (15) 
344.1555071940015

>  <Genealogy>  (15) 
CN(C)CCN(C)c1ccc2c(C3CC3)n[n-]c2n1 (protonated)
CN(C)CCN(C)c1ccc2c(C3CC3)n[n-]c2n1 (3D coordinates assigned)
CN(C)CCN(C)c1ccc2c(C3CC3)n[n-]c2n1 (nonaromatic ring conformer: 344.1555071940015 kcal/mol)

>  <smiles>  (15) 
CN(C)CCN(C)c1ccc2c(C3CC3)n[nH]c2n1

>  <score_type>  (15) 
oracle

>  <origin>  (15) 
adg

>  <m_score__min__energy>  (15) 
-8.9199999999999999

>  <m_primary>  (15) 
energy

$$$$
15:0
     RDKit          3D

 36 38  0  0  0  0  0  0  0  0999 V2000
   58.2470   27.2346   44.9597 H   0  0  0  0  0  0  0  0  0  0  0  0
   57.7820   28.1980   45.2160 C   0  0  0  0  0  0  0  0  0  0  0  0
   56.2970   28.2430   45.2470 C   0  0  0  0  0  0  0  0  0  0  0  0
   55.6750   29.2930   44.9400 O   0  0  0  0  0  0  0  0  0  0  0  0
   55.5370   27.0990   45.6530 N   0  0  0  0  0  0  0  0  0  0  0  0
   56.0610   25.8060   45.9850 C   0  0  0  0  0  0  0  0  0  0  0  0
   56.9200   25.6830   47.1020 C   0  0  0  0  0  0  0  0  0  0  0  0
   57.1935   26.5781   47.6800 H   0  0  0  0  0  0  0  0  0  0  0  0
   57.4280   24.4270   47.4810 C   0  0  0  0  0  0  0  0  0  0  0  0
   58.1103   24.3246   48.3378 H   0  0  0  0  0  0  0  0  0  0  0  0
   57.0380   23.3180   46.7350 C   0  0  0  0  0  0  0  0  0  0  0  0
   56.1950   23.4240   45.6780 C   0  0  0  0  0  0  0  0  0  0  0  0
   55.6730   24.6480   45.2700 C   0  0  0  0  0  0  0  0  0  0  0  0
   54.9802   24.7133   44.4181 H   0  0  0  0  0  0  0  0  0  0  0  0
   55.9740   22.1710   45.1380 O   0  0  0  0  0  0  0  0  0  0  0  0
   56.7280   21.2200   45.9030 C   0  0  0  0  0  0  0  0  0  0  0  0
   56.0594   20.4777   46.3634 H   0  0  0  0  0  0  0  0  0  0  0  0
   57.4396   20.6601   45.2784 H   0  0  0  0  0  0  0  0  0  0  0  0
   57.3920   21.9940   46.9120 O   0  0  0  0  0  0  0  0  0  0  0  0
   58.6090   29.2250   45.4720 C   0  0  0  0  0  0  0  0  0  0  0  0
   59.5453   28.9976   46.0027 H   0  0  0  0  0  0  0  0  0  0  0  0
   58.3670   30.6330   45.1010 C   0  0  0  0  0  0  0  0  0  0  0  0
   58.0360   30.9820   43.7810 C   0  0  0  0  0  0  0  0  0  0  0  0
   57.9958   30.2068   43.0016 H   0  0  0  0  0  0  0  0  0  0  0  0
   57.7580   32.3110   43.4570 C   0  0  0  0  0  0  0  0  0  0  0  0
   57.5163   32.5837   42.4191 H   0  0  0  0  0  0  0  0  0  0  0  0
   57.7860   33.2960   44.4480 C   0  0  0  0  0  0  0  0  0  0  0  0
   57.5729   34.3424   44.1840 H   0  0  0  0  0  0  0  0  0  0  0  0
   58.0830   32.9610   45.7730 C   0  0  0  0  0  0  0  0  0  0  0  0
   58.0850   33.9840   46.7330 O   0  0  0  0  0  0  0  0  0  0  0  0
   59.2460   34.7000   47.1420 C   0  0  0  0  0  0  0  0  0  0  0  0
   59.2914   34.7280   48.2407 H   0  0  0  0  0  0  0  0  0  0  0  0
   60.1432   34.1981   46.7506 H   0  0  0  0  0  0  0  0  0  0  0  0
   59.2003   35.7270   46.7506 H   0  0  0  0  0  0  0  0  0  0  0  0
   58.3640   31.6190   46.0980 C   0  0  0  0  0  0  0  0  0  0  0  0
   58.5823   31.3432   47.1402 H   0  0  0  0  0  0  0  0  0  0  0  0
  1  2  1  0
  2  3  1  0
  3  4  2  0
  3  5  1  0
  5  6  1  0
  6  7  2  0
  7  8  1  0
  7  9  1  0
  9 10  1  0
  9 11  2  0
 11 12  1  0
 12 13  2  0
 13 14  1  0
 12 15  1  0
 15 16  1  0
 16 17  1  0
 16 18  1  0
 16 19  1  0
  2 20  2  0
 20 21  1  0
 20 22  1  0
 22 23  2  0
 23 24  1  0
 23 25  1  0
 25 26  1  0
 25 27  2  0
 27 28  1  0
 27 29  1  0
 29 30  1  0
 30 31  1  0
 31 32  1  0
 31 33  1  0
 31 34  1  0
 29 35  2  0
 35 36  1  0
 13  6  1  0
 35 22  1  0
 19 11  1  0
M  CHG  1   5  -1
M  END
>  <UniqueID>  (16) 
15

>  <SMILES>  (16) 
COc1cccc(/C=C\C(=O)[N-]c2ccc3c(c2)OCO3)c1

>  <Energy>  (16) 
78.74832607770233

>  <Genealogy>  (16) 
COc1cccc(C=CC(=O)[N-]c2ccc3c(c2)OCO3)c1 (protonated)
COc1cccc(/C=C\C(=O)[N-]c2ccc3c(c2)OCO3)c1 (cis-trans isomerization)
COc1cccc(/C=C\C(=O)[N-]c2ccc3c(c2)OCO3)c1 (3D coordinates assigned)
COc1cccc(/C=C\C(=O)[N-]c2ccc3c(c2)OCO3)c1 (nonaromatic ring conformer: 78.74832607770233 kcal/mol)

>  <smiles>  (16) 
COc1cccc(C=CC(=O)Nc2ccc3c(c2)OCO3)c1

>  <score_type>  (16) 
oracle

>  <origin>  (16) 
adg

>  <m_score__min__energy>  (16) 
-8.9700000000000006

>  <m_primary>  (16) 
energy

$$$$
16:0
     RDKit          3D

 40 41  0  0  0  0  0  0  0  0999 V2000
   61.0940   28.7020   44.8860 C   0  0  0  0  0  0  0  0  0  0  0  0
   60.2720   27.9250   45.8270 N   0  0  0  0  0  0  0  0  0  0  0  0
   59.7500   28.7600   46.9230 C   0  0  0  0  0  0  0  0  0  0  0  0
   59.2780   27.8730   48.0910 C   0  0  0  0  0  0  0  0  0  0  0  0
   58.9640   26.4340   47.6480 C   0  0  0  0  0  0  0  0  0  0  0  0
   58.3060   26.4270   46.2660 C   0  0  0  0  0  0  0  0  0  0  0  0
   59.2180   27.0840   45.1870 C   0  0  1  0  0  0  0  0  0  0  0  0
   58.3660   27.8460   44.1310 C   0  0  0  0  0  0  0  0  0  0  0  0
   57.0100   28.3010   44.6930 C   0  0  0  0  0  0  0  0  0  0  0  0
   57.0230   29.7750   44.9640 C   0  0  0  0  0  0  0  0  0  0  0  0
   55.9550   30.4370   44.8500 O   0  0  0  0  0  0  0  0  0  0  0  0
   58.2560   30.4360   45.2810 N   0  0  0  0  0  0  0  0  0  0  0  0
   58.3300   31.8430   45.5400 C   0  0  0  0  0  0  0  0  0  0  0  0
   58.5180   32.2860   46.8570 C   0  0  0  0  0  0  0  0  0  0  0  0
   58.5980   33.6520   47.1400 C   0  0  0  0  0  0  0  0  0  0  0  0
   58.4760   34.5880   46.1100 C   0  0  0  0  0  0  0  0  0  0  0  0
   58.2610   34.1580   44.7970 C   0  0  0  0  0  0  0  0  0  0  0  0
   58.1800   32.7910   44.5040 C   0  0  0  0  0  0  0  0  0  0  0  0
   57.7760   32.2690   42.7050 Br  0  0  0  0  0  0  0  0  0  0  0  0
   61.7809   29.3512   45.4488 H   0  0  0  0  0  0  0  0  0  0  0  0
   61.6748   28.0151   44.2529 H   0  0  0  0  0  0  0  0  0  0  0  0
   60.4409   29.3205   44.2529 H   0  0  0  0  0  0  0  0  0  0  0  0
   60.5447   29.4334   47.2766 H   0  0  0  0  0  0  0  0  0  0  0  0
   58.8972   29.3470   46.5514 H   0  0  0  0  0  0  0  0  0  0  0  0
   60.0704   27.8425   48.8534 H   0  0  0  0  0  0  0  0  0  0  0  0
   58.3504   28.3102   48.4891 H   0  0  0  0  0  0  0  0  0  0  0  0
   59.8993   25.8565   47.6060 H   0  0  0  0  0  0  0  0  0  0  0  0
   58.2705   25.9831   48.3731 H   0  0  0  0  0  0  0  0  0  0  0  0
   58.1022   25.3862   45.9740 H   0  0  0  0  0  0  0  0  0  0  0  0
   57.3753   27.0100   46.3277 H   0  0  0  0  0  0  0  0  0  0  0  0
   59.7505   26.2959   44.6344 H   0  0  0  0  0  0  0  0  0  0  0  0
   58.9259   28.7322   43.7976 H   0  0  0  0  0  0  0  0  0  0  0  0
   58.1699   27.1568   43.2964 H   0  0  0  0  0  0  0  0  0  0  0  0
   56.2203   28.0742   43.9616 H   0  0  0  0  0  0  0  0  0  0  0  0
   56.8179   27.7673   45.6355 H   0  0  0  0  0  0  0  0  0  0  0  0
   59.1490   29.9190   45.1200 H   0  0  0  0  0  0  0  0  0  0  0  0
   58.6031   31.5532   47.6729 H   0  0  0  0  0  0  0  0  0  0  0  0
   58.7571   33.9906   48.1744 H   0  0  0  0  0  0  0  0  0  0  0  0
   58.5491   35.6629   46.3319 H   0  0  0  0  0  0  0  0  0  0  0  0
   58.1549   34.8976   43.9897 H   0  0  0  0  0  0  0  0  0  0  0  0
  1  2  1  0
  2  3  1  0
  3  4  1  0
  4  5  1  0
  5  6  1  0
  6  7  1  0
  7  8  1  0
  8  9  1  0
  9 10  1  0
 10 11  2  0
 10 12  1  0
 12 13  1  0
 13 14  2  0
 14 15  1  0
 15 16  2  0
 16 17  1  0
 17 18  2  0
 18 19  1  0
  7  2  1  0
 18 13  1  0
  1 20  1  0
  1 21  1  0
  1 22  1  0
  3 23  1  0
  3 24  1  0
  4 25  1  0
  4 26  1  0
  5 27  1  0
  5 28  1  0
  6 29  1  0
  6 30  1  0
  7 31  1  6
  8 32  1  0
  8 33  1  0
  9 34  1  0
  9 35  1  0
 12 36  1  0
 14 37  1  0
 15 38  1  0
 16 39  1  0
 17 40  1  0
M  END
>  <UniqueID>  (17) 
16

>  <SMILES>  (17) 
CN1CCCC[C@H]1CCC(=O)Nc1ccccc1Br

>  <Energy>  (17) 
50.21449871392285

>  <Genealogy>  (17) 
CN1CCCC[C@H]1CCC(=O)Nc1ccccc1Br (chirality)
CN1CCCC[C@H]1CCC(=O)Nc1ccccc1Br (3D coordinates assigned)
CN1CCCC[C@H]1CCC(=O)Nc1ccccc1Br (nonaromatic ring conformer: 50.21449871392285 kcal/mol)

>  <smiles>  (17) 
CN1CCCCC1CCC(=O)Nc1ccccc1Br

>  <score_type>  (17) 
oracle

>  <origin>  (17) 
adg

>  <m_score__min__energy>  (17) 
-7.25

>  <m_primary>  (17) 
energy

$$$$
17:0
     RDKit          3D

 29 31  0  0  0  0  0  0  0  0999 V2000
   60.9290   32.7060   47.0580 C   0  0  0  0  0  0  0  0  0  0  0  0
   59.6540   32.9820   46.3960 N   0  0  0  0  0  0  0  0  0  0  0  0
   59.2050   34.3300   46.1520 C   0  0  0  0  0  0  0  0  0  0  0  0
   59.8190   35.3080   46.6580 O   0  0  0  0  0  0  0  0  0  0  0  0
   58.0440   34.5900   45.2170 C   0  0  0  0  0  0  0  0  0  0  0  0
   57.0070   33.4510   45.2460 C   0  0  0  0  0  0  0  0  0  0  0  0
   57.6780   32.1560   45.2720 N   0  0  0  0  0  0  0  0  0  0  0  0
   57.1640   30.9990   44.9030 N   0  0  0  0  0  0  0  0  0  0  0  0
   58.0950   30.0750   45.2410 C   0  0  0  0  0  0  0  0  0  0  0  0
   57.9340   28.6260   44.9960 C   0  0  0  0  0  0  0  0  0  0  0  0
   57.4250   27.7840   46.0020 C   0  0  0  0  0  0  0  0  0  0  0  0
   57.2740   26.4140   45.7680 C   0  0  0  0  0  0  0  0  0  0  0  0
   57.6280   25.8710   44.5300 C   0  0  0  0  0  0  0  0  0  0  0  0
   58.1340   26.6980   43.5240 C   0  0  0  0  0  0  0  0  0  0  0  0
   58.2880   28.0680   43.7530 C   0  0  0  0  0  0  0  0  0  0  0  0
   59.1830   30.6180   45.8440 N   0  0  0  0  0  0  0  0  0  0  0  0
   58.8610   31.9260   45.8440 C   0  0  0  0  0  0  0  0  0  0  0  0
   60.7899   32.7361   48.1488 H   0  0  0  0  0  0  0  0  0  0  0  0
   61.2879   31.7094   46.7615 H   0  0  0  0  0  0  0  0  0  0  0  0
   61.6679   33.4650   46.7615 H   0  0  0  0  0  0  0  0  0  0  0  0
   57.5504   35.5262   45.5169 H   0  0  0  0  0  0  0  0  0  0  0  0
   58.4428   34.6576   44.1941 H   0  0  0  0  0  0  0  0  0  0  0  0
   56.3807   33.5533   46.1445 H   0  0  0  0  0  0  0  0  0  0  0  0
   56.3827   33.5124   44.3424 H   0  0  0  0  0  0  0  0  0  0  0  0
   57.1443   28.2062   46.9782 H   0  0  0  0  0  0  0  0  0  0  0  0
   56.8759   25.7624   46.5597 H   0  0  0  0  0  0  0  0  0  0  0  0
   57.5083   24.7928   44.3476 H   0  0  0  0  0  0  0  0  0  0  0  0
   58.4118   26.2698   42.5496 H   0  0  0  0  0  0  0  0  0  0  0  0
   58.6881   28.7139   42.9575 H   0  0  0  0  0  0  0  0  0  0  0  0
  1  2  1  0
  2  3  1  0
  3  4  2  0
  3  5  1  0
  5  6  1  0
  6  7  1  0
  7  8  1  0
  8  9  2  0
  9 10  1  0
 10 11  2  0
 11 12  1  0
 12 13  2  0
 13 14  1  0
 14 15  2  0
  9 16  1  0
 16 17  2  0
 17  2  1  0
 17  7  1  0
 15 10  1  0
  1 18  1  0
  1 19  1  0
  1 20  1  0
  5 21  1  0
  5 22  1  0
  6 23  1  0
  6 24  1  0
 11 25  1  0
 12 26  1  0
 13 27  1  0
 14 28  1  0
 15 29  1  0
M  END
>  <UniqueID>  (18) 
17

>  <SMILES>  (18) 
CN1C(=O)CCn2nc(-c3ccccc3)nc21

>  <Energy>  (18) 
65.76178132196159

>  <Genealogy>  (18) 
CN1C(=O)CCn2nc(-c3ccccc3)nc21 (3D coordinates assigned)
CN1C(=O)CCn2nc(-c3ccccc3)nc21 (nonaromatic ring conformer: 65.76178132196159 kcal/mol)

>  <smiles>  (18) 
CN1C(=O)CCn2nc(-c3ccccc3)nc21

>  <score_type>  (18) 
oracle

>  <origin>  (18) 
adg

>  <m_score__min__energy>  (18) 
-6.1299999999999999

>  <m_primary>  (18) 
energy

$$$$
18:0
     RDKit          3D

 42 43  0  0  0  0  0  0  0  0999 V2000
   59.8050   25.6700   46.3090 C   0  0  0  0  0  0  0  0  0  0  0  0
   59.8860   27.4700   46.5600 S   0  0  0  0  0  0  0  0  0  0  0  0
   59.3630   27.8820   44.8580 C   0  0  0  0  0  0  0  0  0  0  0  0
   58.0060   27.2490   44.5060 C   0  0  0  0  0  0  0  0  0  0  0  0
   56.9250   27.3290   45.6060 C   0  0  1  0  0  0  0  0  0  0  0  0
   55.9160   28.3320   45.2620 N   0  0  0  0  0  0  0  0  0  0  0  0
   56.1120   29.4970   44.4480 C   0  0  0  0  0  0  0  0  0  0  0  0
   55.4350   29.6140   43.3920 O   0  0  0  0  0  0  0  0  0  0  0  0
   57.0410   30.5800   44.8230 C   0  0  0  0  0  0  0  0  0  0  0  0
   57.1450   31.7450   44.0470 C   0  0  0  0  0  0  0  0  0  0  0  0
   58.0280   32.7640   44.4190 C   0  0  0  0  0  0  0  0  0  0  0  0
   58.7920   32.6390   45.5830 C   0  0  0  0  0  0  0  0  0  0  0  0
   59.9010   33.9160   46.0480 Cl  0  0  0  0  0  0  0  0  0  0  0  0
   58.6640   31.5000   46.3820 C   0  0  0  0  0  0  0  0  0  0  0  0
   57.7920   30.4730   46.0050 C   0  0  0  0  0  0  0  0  0  0  0  0
   56.3040   25.9820   45.8830 C   0  0  0  0  0  0  0  0  0  0  0  0
   56.0150   25.6770   47.0720 O   0  0  0  0  0  0  0  0  0  0  0  0
   56.0860   25.0340   44.8260 N   0  0  0  0  0  0  0  0  0  0  0  0
   55.5890   23.6850   45.0780 C   0  0  0  0  0  0  0  0  0  0  0  0
   56.4410   22.6780   44.3750 C   0  0  0  0  0  0  0  0  0  0  0  0
   57.7890   22.4690   44.5920 C   0  0  0  0  0  0  0  0  0  0  0  0
   58.1520   21.4650   43.7200 C   0  0  0  0  0  0  0  0  0  0  0  0
   57.0090   21.1340   43.0190 C   0  0  0  0  0  0  0  0  0  0  0  0
   56.0070   21.8750   43.4310 O   0  0  0  0  0  0  0  0  0  0  0  0
   59.7822   25.1643   47.2856 H   0  0  0  0  0  0  0  0  0  0  0  0
   58.8947   25.4191   45.7448 H   0  0  0  0  0  0  0  0  0  0  0  0
   60.6891   25.3383   45.7448 H   0  0  0  0  0  0  0  0  0  0  0  0
   59.2801   28.9750   44.7662 H   0  0  0  0  0  0  0  0  0  0  0  0
   60.1163   27.4818   44.1635 H   0  0  0  0  0  0  0  0  0  0  0  0
   57.6170   27.7584   43.6120 H   0  0  0  0  0  0  0  0  0  0  0  0
   58.2043   26.1773   44.3574 H   0  0  0  0  0  0  0  0  0  0  0  0
   57.4146   27.6456   46.5387 H   0  0  0  0  0  0  0  0  0  0  0  0
   56.5294   31.8571   43.1423 H   0  0  0  0  0  0  0  0  0  0  0  0
   58.1214   33.6649   43.7948 H   0  0  0  0  0  0  0  0  0  0  0  0
   59.2497   31.4106   47.3088 H   0  0  0  0  0  0  0  0  0  0  0  0
   57.6942   29.5780   46.6370 H   0  0  0  0  0  0  0  0  0  0  0  0
   56.3530   25.2830   43.8470 H   0  0  0  0  0  0  0  0  0  0  0  0
   55.6106   23.4866   46.1597 H   0  0  0  0  0  0  0  0  0  0  0  0
   54.5586   23.6073   44.7009 H   0  0  0  0  0  0  0  0  0  0  0  0
   58.4368   22.9935   45.3098 H   0  0  0  0  0  0  0  0  0  0  0  0
   59.1504   21.0178   43.6056 H   0  0  0  0  0  0  0  0  0  0  0  0
   56.9476   20.3657   42.2342 H   0  0  0  0  0  0  0  0  0  0  0  0
  1  2  1  0
  2  3  1  0
  3  4  1  0
  4  5  1  0
  5  6  1  0
  6  7  1  0
  7  8  2  0
  7  9  1  0
  9 10  2  0
 10 11  1  0
 11 12  2  0
 12 13  1  0
 12 14  1  0
 14 15  2  0
  5 16  1  0
 16 17  2  0
 16 18  1  0
 18 19  1  0
 19 20  1  0
 20 21  2  0
 21 22  1  0
 22 23  2  0
 23 24  1  0
 15  9  1  0
 24 20  1  0
  1 25  1  0
  1 26  1  0
  1 27  1  0
  3 28  1  0
  3 29  1  0
  4 30  1  0
  4 31  1  0
  5 32  1  1
 10 33  1  0
 11 34  1  0
 14 35  1  0
 15 36  1  0
 18 37  1  0
 19 38  1  0
 19 39  1  0
 21 40  1  0
 22 41  1  0
 23 42  1  0
M  CHG  1   6  -1
M  END
>  <UniqueID>  (19) 
18

>  <SMILES>  (19) 
CSCC[C@@H]([N-]C(=O)c1ccc(Cl)cc1)C(=O)NCc1ccco1

>  <Energy>  (19) 
59.235862943222344

>  <Genealogy>  (19) 
CSCCC([N-]C(=O)c1ccc(Cl)cc1)C(=O)NCc1ccco1 (protonated)
CSCC[C@@H]([N-]C(=O)c1ccc(Cl)cc1)C(=O)NCc1ccco1 (chirality)
CSCC[C@@H]([N-]C(=O)c1ccc(Cl)cc1)C(=O)NCc1ccco1 (3D coordinates assigned)
CSCC[C@@H]([N-]C(=O)c1ccc(Cl)cc1)C(=O)NCc1ccco1 (optimized conformer: 59.235862943222344 kcal/mol)

>  <smiles>  (19) 
CSCCC(NC(=O)c1ccc(Cl)cc1)C(=O)NCc1ccco1

>  <score_type>  (19) 
oracle

>  <origin>  (19) 
adg

>  <m_score__min__energy>  (19) 
-9.6699999999999999

>  <m_primary>  (19) 
energy

$$$$
19:0
     RDKit          3D

 44 46  0  0  0  0  0  0  0  0999 V2000
   60.2390   33.8370   49.7830 C   0  0  0  0  0  0  0  0  0  0  0  0
   61.0340   34.2300   48.5390 C   0  0  0  0  0  0  0  0  0  0  0  0
   60.9280   33.2140   47.4590 N   0  0  0  0  0  0  0  0  0  0  0  0
   62.1050   32.3120   47.4930 C   0  0  0  0  0  0  0  0  0  0  0  0
   63.4110   33.0580   47.2050 C   0  0  0  0  0  0  0  0  0  0  0  0
   60.8100   33.8560   46.1200 C   0  0  0  0  0  0  0  0  0  0  0  0
   59.4120   34.4490   45.9020 C   0  0  0  0  0  0  0  0  0  0  0  0
   58.1810   33.8380   47.1110 S   0  0  0  0  0  0  0  0  0  0  0  0
   57.7950   32.3210   46.2340 C   0  0  0  0  0  0  0  0  0  0  0  0
   56.9300   32.3340   45.1780 N   0  0  0  0  0  0  0  0  0  0  0  0
   56.6280   31.2180   44.4970 N   0  0  0  0  0  0  0  0  0  0  0  0
   57.1760   30.0090   44.8140 C   0  0  0  0  0  0  0  0  0  0  0  0
   58.0840   29.9650   45.8690 C   0  0  0  0  0  0  0  0  0  0  0  0
   58.3910   31.1100   46.5670 C   0  0  0  0  0  0  0  0  0  0  0  0
   59.3120   30.8780   47.5250 N   0  0  0  0  0  0  0  0  0  0  0  0
   59.5740   29.5570   47.4400 C   0  0  0  0  0  0  0  0  0  0  0  0
   60.4530   28.8370   48.2440 C   0  0  0  0  0  0  0  0  0  0  0  0
   60.5840   27.4590   48.0110 C   0  0  0  0  0  0  0  0  0  0  0  0
   59.8420   26.8300   46.9900 C   0  0  0  0  0  0  0  0  0  0  0  0
   58.9510   27.5690   46.1800 C   0  0  0  0  0  0  0  0  0  0  0  0
   58.1620   26.8850   45.1030 C   0  0  0  0  0  0  0  0  0  0  0  0
   58.8400   28.9480   46.4350 C   0  0  0  0  0  0  0  0  0  0  0  0
   60.8052   34.1169   50.6836 H   0  0  0  0  0  0  0  0  0  0  0  0
   59.2717   34.3607   49.7806 H   0  0  0  0  0  0  0  0  0  0  0  0
   60.0677   32.7504   49.7806 H   0  0  0  0  0  0  0  0  0  0  0  0
   60.6497   35.1891   48.1617 H   0  0  0  0  0  0  0  0  0  0  0  0
   62.0930   34.3074   48.8263 H   0  0  0  0  0  0  0  0  0  0  0  0
   62.1713   31.8529   48.4904 H   0  0  0  0  0  0  0  0  0  0  0  0
   61.9706   31.5501   46.7110 H   0  0  0  0  0  0  0  0  0  0  0  0
   63.8931   33.3334   48.1546 H   0  0  0  0  0  0  0  0  0  0  0  0
   64.0845   32.4084   46.6268 H   0  0  0  0  0  0  0  0  0  0  0  0
   63.1936   33.9681   46.6268 H   0  0  0  0  0  0  0  0  0  0  0  0
   61.5557   34.6609   46.0426 H   0  0  0  0  0  0  0  0  0  0  0  0
   60.9824   33.0873   45.3523 H   0  0  0  0  0  0  0  0  0  0  0  0
   59.4775   35.5435   45.9908 H   0  0  0  0  0  0  0  0  0  0  0  0
   59.0744   34.1382   44.9023 H   0  0  0  0  0  0  0  0  0  0  0  0
   56.9095   29.0999   44.2550 H   0  0  0  0  0  0  0  0  0  0  0  0
   59.7330   31.5660   48.1890 H   0  0  0  0  0  0  0  0  0  0  0  0
   61.0285   29.3336   49.0391 H   0  0  0  0  0  0  0  0  0  0  0  0
   61.2716   26.8644   48.6304 H   0  0  0  0  0  0  0  0  0  0  0  0
   59.9585   25.7492   46.8219 H   0  0  0  0  0  0  0  0  0  0  0  0
   57.4065   26.2301   45.5617 H   0  0  0  0  0  0  0  0  0  0  0  0
   57.6621   27.6403   44.4788 H   0  0  0  0  0  0  0  0  0  0  0  0
   58.8388   26.2830   44.4788 H   0  0  0  0  0  0  0  0  0  0  0  0
  1  2  1  0
  2  3  1  0
  3  4  1  0
  4  5  1  0
  3  6  1  0
  6  7  1  0
  7  8  1  0
  8  9  1  0
  9 10  2  0
 10 11  1  0
 11 12  2  0
 12 13  1  0
 13 14  2  0
 14 15  1  0
 15 16  1  0
 16 17  2  0
 17 18  1  0
 18 19  2  0
 19 20  1  0
 20 21  1  0
 20 22  2  0
 14  9  1  0
 22 16  1  0
 22 13  1  0
  1 23  1  0
  1 24  1  0
  1 25  1  0
  2 26  1  0
  2 27  1  0
  4 28  1  0
  4 29  1  0
  5 30  1  0
  5 31  1  0
  5 32  1  0
  6 33  1  0
  6 34  1  0
  7 35  1  0
  7 36  1  0
 12 37  1  0
 15 38  1  0
 17 39  1  0
 18 40  1  0
 19 41  1  0
 21 42  1  0
 21 43  1  0
 21 44  1  0
M  END
>  <UniqueID>  (20) 
19

>  <SMILES>  (20) 
CCN(CC)CCSc1nncc2c1[nH]c1cccc(C)c12

>  <Energy>  (20) 
85.02913133313362

>  <Genealogy>  (20) 
CCN(CC)CCSc1nncc2c1[nH]c1cccc(C)c12 (3D coordinates assigned)
CCN(CC)CCSc1nncc2c1[nH]c1cccc(C)c12 (optimized conformer: 85.02913133313362 kcal/mol)

>  <smiles>  (20) 
CCN(CC)CCSc1nncc2c1[nH]c1cccc(C)c12

>  <score_type>  (20) 
oracle

>  <origin>  (20) 
adg

>  <m_score__min__energy>  (20) 
-7.3600000000000003

>  <m_primary>  (20) 
energy

$$$$
20:0
     RDKit          3D

 38 40  0  0  0  0  0  0  0  0999 V2000
   55.4620   29.4240   44.8690 O   0  0  0  0  0  0  0  0  0  0  0  0
   56.7790   29.5570   44.1550 S   0  0  0  0  0  0  0  0  0  0  0  0
   56.4920   29.6340   42.6810 O   0  0  0  0  0  0  0  0  0  0  0  0
   57.5600   31.0600   44.6550 C   0  0  0  0  0  0  0  0  0  0  0  0
   57.9150   32.0250   43.7020 C   0  0  0  0  0  0  0  0  0  0  0  0
   58.5310   33.2160   44.0990 C   0  0  0  0  0  0  0  0  0  0  0  0
   58.7930   33.4520   45.4520 C   0  0  0  0  0  0  0  0  0  0  0  0
   59.6620   35.0650   45.9900 Br  0  0  0  0  0  0  0  0  0  0  0  0
   58.4150   32.5070   46.4100 C   0  0  0  0  0  0  0  0  0  0  0  0
   57.7870   31.3220   46.0150 C   0  0  0  0  0  0  0  0  0  0  0  0
   57.7550   28.1340   44.4660 N   0  0  0  0  0  0  0  0  0  0  0  0
   57.4980   27.5300   45.7910 C   0  0  0  0  0  0  0  0  0  0  0  0
   58.2400   28.2470   46.9340 C   0  0  0  0  0  0  0  0  0  0  0  0
   59.5410   28.7600   46.4900 N   0  0  0  0  0  0  0  0  0  0  0  0
   60.1730   29.8600   47.1820 C   0  0  0  0  0  0  0  0  0  0  0  0
   59.7680   30.2160   48.4760 C   0  0  0  0  0  0  0  0  0  0  0  0
   60.3690   31.2970   49.1130 C   0  0  0  0  0  0  0  0  0  0  0  0
   61.3640   32.0080   48.4470 C   0  0  0  0  0  0  0  0  0  0  0  0
   62.1430   33.3790   49.2090 Cl  0  0  0  0  0  0  0  0  0  0  0  0
   61.7220   31.6360   47.1920 N   0  0  0  0  0  0  0  0  0  0  0  0
   61.1500   30.5990   46.5760 N   0  0  0  0  0  0  0  0  0  0  0  0
   60.1360   28.1460   45.3030 C   0  0  0  0  0  0  0  0  0  0  0  0
   59.1840   28.3210   44.1130 C   0  0  0  0  0  0  0  0  0  0  0  0
   57.7080   31.8444   42.6368 H   0  0  0  0  0  0  0  0  0  0  0  0
   58.8097   33.9679   43.3461 H   0  0  0  0  0  0  0  0  0  0  0  0
   58.6118   32.6958   47.4757 H   0  0  0  0  0  0  0  0  0  0  0  0
   57.4693   30.5916   46.7737 H   0  0  0  0  0  0  0  0  0  0  0  0
   56.4175   27.5742   45.9926 H   0  0  0  0  0  0  0  0  0  0  0  0
   57.8678   26.4946   45.7576 H   0  0  0  0  0  0  0  0  0  0  0  0
   57.6254   29.0881   47.2872 H   0  0  0  0  0  0  0  0  0  0  0  0
   58.4120   27.5219   47.7431 H   0  0  0  0  0  0  0  0  0  0  0  0
   58.9788   29.6434   48.9853 H   0  0  0  0  0  0  0  0  0  0  0  0
   60.0623   31.5862   50.1290 H   0  0  0  0  0  0  0  0  0  0  0  0
   61.4430   30.3910   45.5970 H   0  0  0  0  0  0  0  0  0  0  0  0
   61.0970   28.6324   45.0798 H   0  0  0  0  0  0  0  0  0  0  0  0
   60.3047   27.0746   45.4866 H   0  0  0  0  0  0  0  0  0  0  0  0
   59.3132   29.3364   43.7101 H   0  0  0  0  0  0  0  0  0  0  0  0
   59.4398   27.5446   43.3770 H   0  0  0  0  0  0  0  0  0  0  0  0
  1  2  2  0
  2  3  2  0
  2  4  1  0
  4  5  2  0
  5  6  1  0
  6  7  2  0
  7  8  1  0
  7  9  1  0
  9 10  2  0
  2 11  1  0
 11 12  1  0
 12 13  1  0
 13 14  1  0
 14 15  1  0
 15 16  2  0
 16 17  1  0
 17 18  2  0
 18 19  1  0
 18 20  1  0
 20 21  2  0
 14 22  1  0
 22 23  1  0
 10  4  1  0
 23 11  1  0
 21 15  1  0
  5 24  1  0
  6 25  1  0
  9 26  1  0
 10 27  1  0
 12 28  1  0
 12 29  1  0
 13 30  1  0
 13 31  1  0
 16 32  1  0
 17 33  1  0
 21 34  1  0
 22 35  1  0
 22 36  1  0
 23 37  1  0
 23 38  1  0
M  CHG  1  21   1
M  END
>  <UniqueID>  (21) 
20

>  <SMILES>  (21) 
O=S(=O)(c1ccc(Br)cc1)N1CCN(c2ccc(Cl)n[nH+]2)CC1

>  <Energy>  (21) 
47.873576451991134

>  <Genealogy>  (21) 
O=S(=O)(c1ccc(Br)cc1)N1CCN(c2ccc(Cl)n[nH+]2)CC1 (protonated)
O=S(=O)(c1ccc(Br)cc1)N1CCN(c2ccc(Cl)n[nH+]2)CC1 (3D coordinates assigned)
O=S(=O)(c1ccc(Br)cc1)N1CCN(c2ccc(Cl)n[nH+]2)CC1 (nonaromatic ring conformer: 47.873576451991134 kcal/mol)

>  <smiles>  (21) 
O=S(=O)(c1ccc(Br)cc1)N1CCN(c2ccc(Cl)nn2)CC1

>  <score_type>  (21) 
oracle

>  <origin>  (21) 
adg

>  <m_score__min__energy>  (21) 
-7.04

>  <m_primary>  (21) 
energy

$$$$
21:0
     RDKit          3D

 34 36  0  0  0  0  0  0  0  0999 V2000
   60.5720   33.2877   47.4540 H   0  0  0  0  0  0  0  0  0  0  0  0
   59.8940   33.5030   46.6150 C   0  0  0  0  0  0  0  0  0  0  0  0
   59.1500   32.5040   46.0690 N   0  0  0  0  0  0  0  0  0  0  0  0
   58.2940   32.7190   45.0290 C   0  0  0  0  0  0  0  0  0  0  0  0
   57.5230   31.5710   44.4990 C   0  0  0  0  0  0  0  0  0  0  0  0
   57.2300   30.5040   45.2930 N   0  0  0  0  0  0  0  0  0  0  0  0
   56.5260   29.5600   44.6370 C   0  0  0  0  0  0  0  0  0  0  0  0
   56.1390   28.4600   45.2100 N   0  0  0  0  0  0  0  0  0  0  0  0
   57.0270   27.4540   45.7940 C   0  0  0  0  0  0  0  0  0  0  0  0
   56.8991   26.5042   45.2540 H   0  0  0  0  0  0  0  0  0  0  0  0
   56.7675   27.3314   46.8559 H   0  0  0  0  0  0  0  0  0  0  0  0
   58.4740   27.8870   45.6980 C   0  0  0  0  0  0  0  0  0  0  0  0
   59.1940   28.3660   46.8200 C   0  0  0  0  0  0  0  0  0  0  0  0
   58.5580   28.4840   48.1800 C   0  0  0  0  0  0  0  0  0  0  0  0
   59.3240   28.3419   48.9566 H   0  0  0  0  0  0  0  0  0  0  0  0
   58.1066   29.4812   48.2884 H   0  0  0  0  0  0  0  0  0  0  0  0
   57.7789   27.7151   48.2884 H   0  0  0  0  0  0  0  0  0  0  0  0
   60.5250   28.7740   46.6520 C   0  0  0  0  0  0  0  0  0  0  0  0
   61.0940   29.1643   47.5087 H   0  0  0  0  0  0  0  0  0  0  0  0
   61.1260   28.6840   45.3970 C   0  0  0  0  0  0  0  0  0  0  0  0
   62.1712   29.0010   45.2664 H   0  0  0  0  0  0  0  0  0  0  0  0
   60.4270   28.2070   44.3360 N   0  0  0  0  0  0  0  0  0  0  0  0
   60.8930   28.1450   43.4030 H   0  0  0  0  0  0  0  0  0  0  0  0
   59.1320   27.8120   44.4580 C   0  0  0  0  0  0  0  0  0  0  0  0
   58.5938   27.4300   43.5780 H   0  0  0  0  0  0  0  0  0  0  0  0
   56.2290   30.0020   43.0390 S   0  0  0  0  0  0  0  0  0  0  0  0
   57.0400   31.4680   43.1890 C   0  0  0  0  0  0  0  0  0  0  0  0
   57.1688   32.2173   42.3941 H   0  0  0  0  0  0  0  0  0  0  0  0
   58.1750   34.0170   44.5000 C   0  0  0  0  0  0  0  0  0  0  0  0
   57.4915   34.2129   43.6607 H   0  0  0  0  0  0  0  0  0  0  0  0
   58.9320   35.0560   45.0490 C   0  0  0  0  0  0  0  0  0  0  0  0
   58.8448   36.0746   44.6430 H   0  0  0  0  0  0  0  0  0  0  0  0
   59.7980   34.8000   46.1120 C   0  0  0  0  0  0  0  0  0  0  0  0
   60.3983   35.6119   46.5485 H   0  0  0  0  0  0  0  0  0  0  0  0
  1  2  1  0
  2  3  2  0
  3  4  1  0
  4  5  1  0
  5  6  1  0
  6  7  1  0
  7  8  2  0
  8  9  1  0
  9 10  1  0
  9 11  1  0
  9 12  1  0
 12 13  2  0
 13 14  1  0
 14 15  1  0
 14 16  1  0
 14 17  1  0
 13 18  1  0
 18 19  1  0
 18 20  2  0
 20 21  1  0
 20 22  1  0
 22 23  1  0
 22 24  2  0
 24 25  1  0
  7 26  1  0
 26 27  1  0
 27 28  1  0
  4 29  2  0
 29 30  1  0
 29 31  1  0
 31 32  1  0
 31 33  2  0
 33 34  1  0
 33  2  1  0
 27  5  2  0
 24 12  1  0
M  CHG  2   6  -1  22   1
M  END
>  <UniqueID>  (22) 
21

>  <SMILES>  (22) 
Cc1cc[nH+]cc1C/N=c1/[n-]c(-c2ccccn2)cs1

>  <Energy>  (22) 
69.07856094553297

>  <Genealogy>  (22) 
Cc1cc[nH+]cc1CN=c1[n-]c(-c2ccccn2)cs1 (protonated)
Cc1cc[nH+]cc1C/N=c1/[n-]c(-c2ccccn2)cs1 (cis-trans isomerization)
Cc1cc[nH+]cc1C/N=c1/[n-]c(-c2ccccn2)cs1 (3D coordinates assigned)
Cc1cc[nH+]cc1C/N=c1/[n-]c(-c2ccccn2)cs1 (optimized conformer: 69.07856094553297 kcal/mol)

>  <smiles>  (22) 
Cc1ccncc1CN=c1[nH]c(-c2ccccn2)cs1

>  <score_type>  (22) 
oracle

>  <origin>  (22) 
adg

>  <m_score__min__energy>  (22) 
-8.0899999999999999

>  <m_primary>  (22) 
energy

$$$$
22:0
     RDKit          3D

 30 31  0  0  0  0  0  0  0  0999 V2000
   55.6850   29.4040   44.8920 O   0  0  0  0  0  0  0  0  0  0  0  0
   56.7580   29.7420   44.3230 C   0  0  0  0  0  0  0  0  0  0  0  0
   56.9060   31.1390   43.8110 C   0  0  0  0  0  0  0  0  0  0  0  0
   56.6410   32.0550   44.8690 O   0  0  0  0  0  0  0  0  0  0  0  0
   57.5790   32.9630   45.3830 C   0  0  0  0  0  0  0  0  0  0  0  0
   57.8390   33.0820   46.7630 C   0  0  0  0  0  0  0  0  0  0  0  0
   58.7840   34.0050   47.2240 C   0  0  0  0  0  0  0  0  0  0  0  0
   59.4750   34.8130   46.3170 C   0  0  0  0  0  0  0  0  0  0  0  0
   59.2220   34.7000   44.9480 C   0  0  0  0  0  0  0  0  0  0  0  0
   58.2770   33.7790   44.4830 C   0  0  0  0  0  0  0  0  0  0  0  0
   57.7950   28.7780   44.0800 N   0  0  0  0  0  0  0  0  0  0  0  0
   57.8360   27.4700   44.6760 C   0  0  0  0  0  0  0  0  0  0  0  0
   57.8800   27.3530   46.0740 C   0  0  0  0  0  0  0  0  0  0  0  0
   57.8990   26.0930   46.6790 C   0  0  0  0  0  0  0  0  0  0  0  0
   57.8580   24.9390   45.8930 C   0  0  0  0  0  0  0  0  0  0  0  0
   57.8740   23.7160   46.4810 F   0  0  0  0  0  0  0  0  0  0  0  0
   57.7910   25.0430   44.5010 C   0  0  0  0  0  0  0  0  0  0  0  0
   57.7740   26.3020   43.8930 C   0  0  0  0  0  0  0  0  0  0  0  0
   57.9314   31.2892   43.4422 H   0  0  0  0  0  0  0  0  0  0  0  0
   56.1960   31.3087   42.9881 H   0  0  0  0  0  0  0  0  0  0  0  0
   57.2974   32.4473   47.4798 H   0  0  0  0  0  0  0  0  0  0  0  0
   58.9834   34.0948   48.3020 H   0  0  0  0  0  0  0  0  0  0  0  0
   60.2180   35.5378   46.6811 H   0  0  0  0  0  0  0  0  0  0  0  0
   59.7665   35.3360   44.2345 H   0  0  0  0  0  0  0  0  0  0  0  0
   58.0808   33.6950   43.4039 H   0  0  0  0  0  0  0  0  0  0  0  0
   58.5170   29.0150   43.3620 H   0  0  0  0  0  0  0  0  0  0  0  0
   57.8997   28.2589   46.6977 H   0  0  0  0  0  0  0  0  0  0  0  0
   57.9463   26.0102   47.7749 H   0  0  0  0  0  0  0  0  0  0  0  0
   57.7516   24.1337   43.8832 H   0  0  0  0  0  0  0  0  0  0  0  0
   57.7119   26.3800   42.7975 H   0  0  0  0  0  0  0  0  0  0  0  0
  1  2  2  0
  2  3  1  0
  3  4  1  0
  4  5  1  0
  5  6  2  0
  6  7  1  0
  7  8  2  0
  8  9  1  0
  9 10  2  0
  2 11  1  0
 11 12  1  0
 12 13  2  0
 13 14  1  0
 14 15  2  0
 15 16  1  0
 15 17  1  0
 17 18  2  0
 10  5  1  0
 18 12  1  0
  3 19  1  0
  3 20  1  0
  6 21  1  0
  7 22  1  0
  8 23  1  0
  9 24  1  0
 10 25  1  0
 11 26  1  0
 13 27  1  0
 14 28  1  0
 17 29  1  0
 18 30  1  0
M  END
>  <UniqueID>  (23) 
22

>  <SMILES>  (23) 
O=C(COc1ccccc1)Nc1ccc(F)cc1

>  <Energy>  (23) 
32.19483708537217

>  <Genealogy>  (23) 
O=C(COc1ccccc1)Nc1ccc(F)cc1 (3D coordinates assigned)
O=C(COc1ccccc1)Nc1ccc(F)cc1 (optimized conformer: 32.19483708537217 kcal/mol)

>  <smiles>  (23) 
O=C(COc1ccccc1)Nc1ccc(F)cc1

>  <score_type>  (23) 
oracle

>  <origin>  (23) 
adg

>  <m_score__min__energy>  (23) 
-6.9100000000000001

>  <m_primary>  (23) 
energy

$$$$
23:0
     RDKit          3D

 56 58  0  0  0  0  0  0  0  0999 V2000
   63.7560   32.7330   47.0820 C   0  0  0  0  0  0  0  0  0  0  0  0
   62.9140   33.8560   47.2160 O   0  0  0  0  0  0  0  0  0  0  0  0
   62.7010   34.1210   48.5860 C   0  0  0  0  0  0  0  0  0  0  0  0
   61.4200   33.4750   49.0160 C   0  0  0  0  0  0  0  0  0  0  0  0
   60.8100   33.8410   50.2200 C   0  0  0  0  0  0  0  0  0  0  0  0
   59.6060   33.2260   50.5760 C   0  0  0  0  0  0  0  0  0  0  0  0
   58.9460   33.5680   51.8800 C   0  0  0  0  0  0  0  0  0  0  0  0
   59.0710   32.2690   49.7670 N   0  0  0  0  0  0  0  0  0  0  0  0
   59.6810   31.9190   48.5960 C   0  0  0  0  0  0  0  0  0  0  0  0
   59.0880   30.8630   47.6940 C   0  0  0  0  0  0  0  0  0  0  0  0
   59.1360   29.4780   48.3700 C   0  0  0  0  0  0  0  0  0  0  0  0
   58.4620   28.4260   47.4750 C   0  0  0  0  0  0  0  0  0  0  0  0
   58.8430   28.5920   46.0660 N   0  0  0  0  0  0  0  0  0  0  0  0
   58.1180   27.8690   45.0560 C   0  0  0  0  0  0  0  0  0  0  0  0
   57.7420   26.6890   45.2900 O   0  0  0  0  0  0  0  0  0  0  0  0
   57.7790   28.5000   43.7310 C   0  0  0  0  0  0  0  0  0  0  0  0
   56.7600   29.6360   43.9040 C   0  0  0  0  0  0  0  0  0  0  0  0
   57.1560   30.8990   43.1260 C   0  0  0  0  0  0  0  0  0  0  0  0
   57.5150   32.0320   44.0460 C   0  0  0  0  0  0  0  0  0  0  0  0
   58.5110   32.9560   43.6960 C   0  0  0  0  0  0  0  0  0  0  0  0
   58.8550   33.9670   44.5960 C   0  0  0  0  0  0  0  0  0  0  0  0
   58.2100   34.0460   45.8320 C   0  0  0  0  0  0  0  0  0  0  0  0
   57.2260   33.1070   46.1500 C   0  0  0  0  0  0  0  0  0  0  0  0
   56.9080   32.1270   45.2630 N   0  0  0  0  0  0  0  0  0  0  0  0
   59.9790   29.4600   45.7250 C   0  0  0  0  0  0  0  0  0  0  0  0
   59.7570   30.8700   46.2900 C   0  0  0  0  0  0  0  0  0  0  0  0
   60.8420   32.5270   48.2340 N   0  0  0  0  0  0  0  0  0  0  0  0
   64.0341   32.3621   48.0796 H   0  0  0  0  0  0  0  0  0  0  0  0
   63.2268   31.9416   46.5310 H   0  0  0  0  0  0  0  0  0  0  0  0
   64.6640   33.0192   46.5310 H   0  0  0  0  0  0  0  0  0  0  0  0
   63.5356   33.7121   49.1745 H   0  0  0  0  0  0  0  0  0  0  0  0
   62.6415   35.2073   48.7488 H   0  0  0  0  0  0  0  0  0  0  0  0
   61.2683   34.5976   50.8738 H   0  0  0  0  0  0  0  0  0  0  0  0
   59.5847   33.2370   52.7121 H   0  0  0  0  0  0  0  0  0  0  0  0
   58.7980   34.6563   51.9417 H   0  0  0  0  0  0  0  0  0  0  0  0
   57.9716   33.0614   51.9417 H   0  0  0  0  0  0  0  0  0  0  0  0
   58.1840   31.7950   50.0500 H   0  0  0  0  0  0  0  0  0  0  0  0
   58.0276   31.1044   47.5289 H   0  0  0  0  0  0  0  0  0  0  0  0
   60.1848   29.1926   48.5393 H   0  0  0  0  0  0  0  0  0  0  0  0
   58.6005   29.5286   49.3295 H   0  0  0  0  0  0  0  0  0  0  0  0
   58.7655   27.4236   47.8113 H   0  0  0  0  0  0  0  0  0  0  0  0
   57.3723   28.5533   47.5545 H   0  0  0  0  0  0  0  0  0  0  0  0
   58.6970   28.9063   43.2812 H   0  0  0  0  0  0  0  0  0  0  0  0
   57.3374   27.7307   43.0805 H   0  0  0  0  0  0  0  0  0  0  0  0
   55.7804   29.2904   43.5420 H   0  0  0  0  0  0  0  0  0  0  0  0
   56.7252   29.8964   44.9722 H   0  0  0  0  0  0  0  0  0  0  0  0
   58.0235   30.6681   42.4902 H   0  0  0  0  0  0  0  0  0  0  0  0
   56.2931   31.2115   42.5195 H   0  0  0  0  0  0  0  0  0  0  0  0
   59.0164   32.8848   42.7216 H   0  0  0  0  0  0  0  0  0  0  0  0
   59.6322   34.6993   44.3319 H   0  0  0  0  0  0  0  0  0  0  0  0
   58.4739   34.8389   46.5473 H   0  0  0  0  0  0  0  0  0  0  0  0
   56.7080   33.1605   47.1189 H   0  0  0  0  0  0  0  0  0  0  0  0
   60.9002   29.0379   46.1531 H   0  0  0  0  0  0  0  0  0  0  0  0
   60.0676   29.5218   44.6303 H   0  0  0  0  0  0  0  0  0  0  0  0
   60.7317   31.3738   46.3685 H   0  0  0  0  0  0  0  0  0  0  0  0
   59.0772   31.3964   45.6039 H   0  0  0  0  0  0  0  0  0  0  0  0
  1  2  1  0
  2  3  1  0
  3  4  1  0
  4  5  2  0
  5  6  1  0
  6  7  1  0
  6  8  2  0
  8  9  1  0
  9 10  1  0
 10 11  1  0
 11 12  1  0
 12 13  1  0
 13 14  1  0
 14 15  2  0
 14 16  1  0
 16 17  1  0
 17 18  1  0
 18 19  1  0
 19 20  2  0
 20 21  1  0
 21 22  2  0
 22 23  1  0
 23 24  2  0
 13 25  1  0
 25 26  1  0
  9 27  2  0
 27  4  1  0
 26 10  1  0
 24 19  1  0
  1 28  1  0
  1 29  1  0
  1 30  1  0
  3 31  1  0
  3 32  1  0
  5 33  1  0
  7 34  1  0
  7 35  1  0
  7 36  1  0
  8 37  1  0
 10 38  1  0
 11 39  1  0
 11 40  1  0
 12 41  1  0
 12 42  1  0
 16 43  1  0
 16 44  1  0
 17 45  1  0
 17 46  1  0
 18 47  1  0
 18 48  1  0
 20 49  1  0
 21 50  1  0
 22 51  1  0
 23 52  1  0
 25 53  1  0
 25 54  1  0
 26 55  1  0
 26 56  1  0
M  CHG  1   8   1
M  END
>  <UniqueID>  (24) 
23

>  <SMILES>  (24) 
COCc1cc(C)[nH+]c(C2CCN(C(=O)CCCc3ccccn3)CC2)n1

>  <Energy>  (24) 
55.5590058203496

>  <Genealogy>  (24) 
COCc1cc(C)[nH+]c(C2CCN(C(=O)CCCc3ccccn3)CC2)n1 (protonated)
COCc1cc(C)[nH+]c(C2CCN(C(=O)CCCc3ccccn3)CC2)n1 (3D coordinates assigned)
COCc1cc(C)[nH+]c(C2CCN(C(=O)CCCc3ccccn3)CC2)n1 (nonaromatic ring conformer: 55.5590058203496 kcal/mol)

>  <smiles>  (24) 
COCc1cc(C)nc(C2CCN(C(=O)CCCc3ccccn3)CC2)n1

>  <score_type>  (24) 
oracle

>  <origin>  (24) 
adg

>  <m_score__min__energy>  (24) 
-7.2000000000000002

>  <m_primary>  (24) 
energy

$$$$
24:0
     RDKit          3D

 37 39  0  0  0  0  0  0  0  0999 V2000
   58.5823   34.7029   47.9344 H   0  0  0  0  0  0  0  0  0  0  0  0
   58.5410   34.2240   46.9450 C   0  0  0  0  0  0  0  0  0  0  0  0
   57.8120   33.1430   46.6180 N   0  0  0  0  0  0  0  0  0  0  0  0
   58.0580   32.9070   45.3380 N   0  0  0  0  0  0  0  0  0  0  0  0
   57.4770   31.8330   44.5860 C   0  0  0  0  0  0  0  0  0  0  0  0
   56.9550   30.7590   45.2400 N   0  0  0  0  0  0  0  0  0  0  0  0
   56.3940   29.7060   44.5800 C   0  0  0  0  0  0  0  0  0  0  0  0
   55.9050   28.6910   45.2330 N   0  0  0  0  0  0  0  0  0  0  0  0
   56.6620   27.5000   45.6220 C   0  0  0  0  0  0  0  0  0  0  0  0
   56.8052   27.5070   46.7126 H   0  0  0  0  0  0  0  0  0  0  0  0
   56.0947   26.6110   45.3093 H   0  0  0  0  0  0  0  0  0  0  0  0
   58.0370   27.4630   44.9370 C   0  0  0  0  0  0  0  0  0  0  0  0
   58.1811   26.4718   44.4822 H   0  0  0  0  0  0  0  0  0  0  0  0
   58.0596   28.2562   44.1752 H   0  0  0  0  0  0  0  0  0  0  0  0
   59.1380   27.7150   45.8940 N   0  0  0  0  0  0  0  0  0  0  0  0
   60.1450   28.6480   45.3310 C   0  0  0  0  0  0  0  0  0  0  0  0
   61.1504   28.2859   45.5920 H   0  0  0  0  0  0  0  0  0  0  0  0
   60.0063   28.6815   44.2403 H   0  0  0  0  0  0  0  0  0  0  0  0
   59.9730   30.0770   45.8780 C   0  0  0  0  0  0  0  0  0  0  0  0
   60.7463   30.7169   45.4280 H   0  0  0  0  0  0  0  0  0  0  0  0
   58.9555   30.4023   45.6156 H   0  0  0  0  0  0  0  0  0  0  0  0
   60.0860   30.1630   47.2930 O   0  0  0  0  0  0  0  0  0  0  0  0
   59.6850   28.9790   47.9700 C   0  0  0  0  0  0  0  0  0  0  0  0
   60.5722   28.3454   48.1169 H   0  0  0  0  0  0  0  0  0  0  0  0
   59.2302   29.2910   48.9217 H   0  0  0  0  0  0  0  0  0  0  0  0
   58.6260   28.1630   47.2120 C   0  0  0  0  0  0  0  0  0  0  0  0
   58.3560   27.2808   47.8110 H   0  0  0  0  0  0  0  0  0  0  0  0
   57.7463   28.8021   47.0456 H   0  0  0  0  0  0  0  0  0  0  0  0
   56.3410   29.7160   43.1830 C   0  0  0  0  0  0  0  0  0  0  0  0
   55.8893   28.8734   42.6389 H   0  0  0  0  0  0  0  0  0  0  0  0
   56.8660   30.8040   42.4850 C   0  0  0  0  0  0  0  0  0  0  0  0
   56.8292   30.8226   41.3858 H   0  0  0  0  0  0  0  0  0  0  0  0
   57.4380   31.8690   43.1830 C   0  0  0  0  0  0  0  0  0  0  0  0
   57.8547   32.7291   42.6384 H   0  0  0  0  0  0  0  0  0  0  0  0
   58.9090   33.7820   44.8210 N   0  0  0  0  0  0  0  0  0  0  0  0
   59.2270   34.6250   45.8200 C   0  0  0  0  0  0  0  0  0  0  0  0
   59.9129   35.4821   45.7507 H   0  0  0  0  0  0  0  0  0  0  0  0
  1  2  1  0
  2  3  2  0
  3  4  1  0
  4  5  1  0
  5  6  1  0
  6  7  1  0
  7  8  2  0
  8  9  1  0
  9 10  1  0
  9 11  1  0
  9 12  1  0
 12 13  1  0
 12 14  1  0
 12 15  1  0
 15 16  1  0
 16 17  1  0
 16 18  1  0
 16 19  1  0
 19 20  1  0
 19 21  1  0
 19 22  1  0
 22 23  1  0
 23 24  1  0
 23 25  1  0
 23 26  1  0
 26 27  1  0
 26 28  1  0
  7 29  1  0
 29 30  1  0
 29 31  2  0
 31 32  1  0
 31 33  1  0
 33 34  1  0
  4 35  1  0
 35 36  2  0
 36 37  1  0
 36  2  1  0
 33  5  2  0
 26 15  1  0
M  CHG  1   6  -1
M  END
>  <UniqueID>  (25) 
24

>  <SMILES>  (25) 
c1cc(-n2nccn2)[n-]/c(=N\CCN2CCOCC2)c1

>  <Energy>  (25) 
85.15343386539641

>  <Genealogy>  (25) 
c1cc(-n2nccn2)[n-]c(=NCCN2CCOCC2)c1 (protonated)
c1cc(-n2nccn2)[n-]/c(=N\CCN2CCOCC2)c1 (cis-trans isomerization)
c1cc(-n2nccn2)[n-]/c(=N\CCN2CCOCC2)c1 (3D coordinates assigned)
c1cc(-n2nccn2)[n-]/c(=N\CCN2CCOCC2)c1 (nonaromatic ring conformer: 85.15343386539641 kcal/mol)

>  <smiles>  (25) 
c1cc(-n2nccn2)[nH]c(=NCCN2CCOCC2)c1

>  <score_type>  (25) 
oracle

>  <origin>  (25) 
adg

>  <m_score__min__energy>  (25) 
-8.7599999999999998

>  <m_primary>  (25) 
energy

$$$$
25:0
     RDKit          3D

 32 33  0  0  0  0  0  0  0  0999 V2000
   55.9070   29.7220   43.0980 C   0  0  0  0  0  0  0  0  0  0  0  0
   56.7860   29.8940   44.2880 C   0  0  0  0  0  0  0  0  0  0  0  0
   57.3810   28.8660   44.9330 N   0  0  0  0  0  0  0  0  0  0  0  0
   58.0120   29.4960   45.9430 C   0  0  0  0  0  0  0  0  0  0  0  0
   58.8430   28.7830   46.9610 C   0  0  0  0  0  0  0  0  0  0  0  0
   57.7840   30.8270   45.9200 N   0  0  0  0  0  0  0  0  0  0  0  0
   58.3490   31.8470   46.8150 C   0  0  1  0  0  0  0  0  0  0  0  0
   59.7750   32.2090   46.3710 C   0  0  0  0  0  0  0  0  0  0  0  0
   60.1810   33.5610   46.9470 C   0  0  0  0  0  0  0  0  0  0  0  0
   59.2680   34.6850   46.4240 C   0  0  0  0  0  0  0  0  0  0  0  0
   57.8670   34.2640   46.1640 N   0  0  0  0  0  0  0  0  0  0  0  0
   57.5570   34.1680   44.7290 C   0  0  0  0  0  0  0  0  0  0  0  0
   57.4190   33.0870   46.9410 C   0  0  0  0  0  0  0  0  0  0  0  0
   57.0190   31.0840   44.8740 N   0  0  0  0  0  0  0  0  0  0  0  0
   54.8774   29.5205   43.4287 H   0  0  0  0  0  0  0  0  0  0  0  0
   55.9247   30.6406   42.4932 H   0  0  0  0  0  0  0  0  0  0  0  0
   56.2697   28.8778   42.4932 H   0  0  0  0  0  0  0  0  0  0  0  0
   58.5109   29.0680   47.9702 H   0  0  0  0  0  0  0  0  0  0  0  0
   58.7299   27.6966   46.8309 H   0  0  0  0  0  0  0  0  0  0  0  0
   59.8996   29.0599   46.8309 H   0  0  0  0  0  0  0  0  0  0  0  0
   58.4166   31.4261   47.8290 H   0  0  0  0  0  0  0  0  0  0  0  0
   60.4732   31.4378   46.7284 H   0  0  0  0  0  0  0  0  0  0  0  0
   59.8048   32.2643   45.2728 H   0  0  0  0  0  0  0  0  0  0  0  0
   60.1080   33.5204   48.0438 H   0  0  0  0  0  0  0  0  0  0  0  0
   61.2135   33.7770   46.6351 H   0  0  0  0  0  0  0  0  0  0  0  0
   59.2521   35.4918   47.1716 H   0  0  0  0  0  0  0  0  0  0  0  0
   59.6849   35.0054   45.4578 H   0  0  0  0  0  0  0  0  0  0  0  0
   56.5135   33.8448   44.6001 H   0  0  0  0  0  0  0  0  0  0  0  0
   57.6972   35.1516   44.2570 H   0  0  0  0  0  0  0  0  0  0  0  0
   58.2286   33.4357   44.2570 H   0  0  0  0  0  0  0  0  0  0  0  0
   57.3680   33.3733   48.0019 H   0  0  0  0  0  0  0  0  0  0  0  0
   56.4419   32.7916   46.5312 H   0  0  0  0  0  0  0  0  0  0  0  0
  1  2  1  0
  2  3  1  0
  3  4  2  0
  4  5  1  0
  4  6  1  0
  6  7  1  0
  7  8  1  0
  8  9  1  0
  9 10  1  0
 10 11  1  0
 11 12  1  0
 11 13  1  0
  6 14  1  0
 14  2  2  0
 13  7  1  0
  1 15  1  0
  1 16  1  0
  1 17  1  0
  5 18  1  0
  5 19  1  0
  5 20  1  0
  7 21  1  1
  8 22  1  0
  8 23  1  0
  9 24  1  0
  9 25  1  0
 10 26  1  0
 10 27  1  0
 12 28  1  0
 12 29  1  0
 12 30  1  0
 13 31  1  0
 13 32  1  0
M  END
>  <UniqueID>  (26) 
25

>  <SMILES>  (26) 
Cc1nc(C)n([C@H]2CCCN(C)C2)n1

>  <Energy>  (26) 
70.48670681409715

>  <Genealogy>  (26) 
Cc1nc(C)n([C@H]2CCCN(C)C2)n1 (chirality)
Cc1nc(C)n([C@H]2CCCN(C)C2)n1 (3D coordinates assigned)
Cc1nc(C)n([C@H]2CCCN(C)C2)n1 (nonaromatic ring conformer: 70.48670681409715 kcal/mol)

>  <smiles>  (26) 
Cc1nc(C)n(C2CCCN(C)C2)n1

>  <score_type>  (26) 
oracle

>  <origin>  (26) 
adg

>  <m_score__min__energy>  (26) 
-5.7300000000000004

>  <m_primary>  (26) 
energy

$$$$
26:0
     RDKit          3D

 46 48  0  0  0  0  0  0  0  0999 V2000
   60.4040   34.5930   48.2570 C   0  0  0  0  0  0  0  0  0  0  0  0
   61.3700   33.4120   48.4420 C   0  0  0  0  0  0  0  0  0  0  0  0
   60.8760   32.4610   49.5540 C   0  0  0  0  0  0  0  0  0  0  0  0
   59.7450   31.5460   49.0660 C   0  0  0  0  0  0  0  0  0  0  0  0
   60.0920   30.8970   47.7970 N   0  0  0  0  0  0  0  0  0  0  0  0
   59.2350   29.8530   47.2930 C   0  0  0  0  0  0  0  0  0  0  0  0
   58.2320   30.1730   46.3650 C   0  0  0  0  0  0  0  0  0  0  0  0
   58.0770   31.5530   45.8550 C   0  0  0  0  0  0  0  0  0  0  0  0
   58.2220   31.8200   44.4860 C   0  0  0  0  0  0  0  0  0  0  0  0
   58.0860   33.1250   44.0060 C   0  0  0  0  0  0  0  0  0  0  0  0
   57.7970   34.1700   44.8900 C   0  0  0  0  0  0  0  0  0  0  0  0
   57.6390   33.9070   46.2540 C   0  0  0  0  0  0  0  0  0  0  0  0
   57.7730   32.6020   46.7370 C   0  0  0  0  0  0  0  0  0  0  0  0
   57.3910   29.1540   45.9060 C   0  0  0  0  0  0  0  0  0  0  0  0
   56.4950   29.4250   45.0580 O   0  0  0  0  0  0  0  0  0  0  0  0
   57.5500   27.8720   46.3580 N   0  0  0  0  0  0  0  0  0  0  0  0
   56.6870   26.7980   45.8330 C   0  0  0  0  0  0  0  0  0  0  0  0
   58.5620   27.5720   47.2320 C   0  0  0  0  0  0  0  0  0  0  0  0
   58.7510   26.3710   47.5780 O   0  0  0  0  0  0  0  0  0  0  0  0
   59.3730   28.5600   47.7330 N   0  0  0  0  0  0  0  0  0  0  0  0
   60.4310   28.2170   48.7010 C   0  0  0  0  0  0  0  0  0  0  0  0
   61.3730   31.1750   47.1370 C   0  0  0  0  0  0  0  0  0  0  0  0
   61.6320   32.6870   47.0880 C   0  0  0  0  0  0  0  0  0  0  0  0
   60.0945   34.9714   49.2424 H   0  0  0  0  0  0  0  0  0  0  0  0
   60.9083   35.3951   47.6981 H   0  0  0  0  0  0  0  0  0  0  0  0
   59.5179   34.2578   47.6981 H   0  0  0  0  0  0  0  0  0  0  0  0
   62.3424   33.8017   48.7777 H   0  0  0  0  0  0  0  0  0  0  0  0
   61.7183   31.8375   49.8884 H   0  0  0  0  0  0  0  0  0  0  0  0
   60.4848   33.0755   50.3782 H   0  0  0  0  0  0  0  0  0  0  0  0
   59.5583   30.7717   49.8247 H   0  0  0  0  0  0  0  0  0  0  0  0
   58.8467   32.1605   48.9065 H   0  0  0  0  0  0  0  0  0  0  0  0
   58.4435   30.9993   43.7878 H   0  0  0  0  0  0  0  0  0  0  0  0
   58.2063   33.3309   42.9322 H   0  0  0  0  0  0  0  0  0  0  0  0
   57.6941   35.1979   44.5122 H   0  0  0  0  0  0  0  0  0  0  0  0
   57.4088   34.7285   46.9484 H   0  0  0  0  0  0  0  0  0  0  0  0
   57.6401   32.3969   47.8095 H   0  0  0  0  0  0  0  0  0  0  0  0
   56.2411   26.2430   46.6716 H   0  0  0  0  0  0  0  0  0  0  0  0
   55.8879   27.2374   45.2179 H   0  0  0  0  0  0  0  0  0  0  0  0
   57.2882   26.1123   45.2179 H   0  0  0  0  0  0  0  0  0  0  0  0
   60.0464   28.3417   49.7240 H   0  0  0  0  0  0  0  0  0  0  0  0
   60.7410   27.1723   48.5506 H   0  0  0  0  0  0  0  0  0  0  0  0
   61.2949   28.8811   48.5506 H   0  0  0  0  0  0  0  0  0  0  0  0
   62.1834   30.6864   47.6979 H   0  0  0  0  0  0  0  0  0  0  0  0
   61.3369   30.7854   46.1089 H   0  0  0  0  0  0  0  0  0  0  0  0
   62.6821   32.8503   46.8042 H   0  0  0  0  0  0  0  0  0  0  0  0
   60.9285   33.1099   46.3557 H   0  0  0  0  0  0  0  0  0  0  0  0
  1  2  1  0
  2  3  1  0
  3  4  1  0
  4  5  1  0
  5  6  1  0
  6  7  2  0
  7  8  1  0
  8  9  2  0
  9 10  1  0
 10 11  2  0
 11 12  1  0
 12 13  2  0
  7 14  1  0
 14 15  2  0
 14 16  1  0
 16 17  1  0
 16 18  1  0
 18 19  2  0
 18 20  1  0
 20 21  1  0
  5 22  1  0
 22 23  1  0
 23  2  1  0
 20  6  1  0
 13  8  1  0
  1 24  1  0
  1 25  1  0
  1 26  1  0
  2 27  1  0
  3 28  1  0
  3 29  1  0
  4 30  1  0
  4 31  1  0
  9 32  1  0
 10 33  1  0
 11 34  1  0
 12 35  1  0
 13 36  1  0
 17 37  1  0
 17 38  1  0
 17 39  1  0
 21 40  1  0
 21 41  1  0
 21 42  1  0
 22 43  1  0
 22 44  1  0
 23 45  1  0
 23 46  1  0
M  END
>  <UniqueID>  (27) 
26

>  <SMILES>  (27) 
CC1CCN(c2c(-c3ccccc3)c(=O)n(C)c(=O)n2C)CC1

>  <Energy>  (27) 
65.67563483863613

>  <Genealogy>  (27) 
CC1CCN(c2c(-c3ccccc3)c(=O)n(C)c(=O)n2C)CC1 (3D coordinates assigned)
CC1CCN(c2c(-c3ccccc3)c(=O)n(C)c(=O)n2C)CC1 (nonaromatic ring conformer: 65.67563483863613 kcal/mol)

>  <smiles>  (27) 
CC1CCN(c2c(-c3ccccc3)c(=O)n(C)c(=O)n2C)CC1

>  <score_type>  (27) 
oracle

>  <origin>  (27) 
adg

>  <m_score__min__energy>  (27) 
-7.3300000000000001

>  <m_primary>  (27) 
energy

$$$$
27:0
     RDKit          3D

 44 47  0  0  0  0  0  0  0  0999 V2000
   55.6850   27.9010   44.7010 H   0  0  0  0  0  0  0  0  0  0  0  0
   55.6390   28.9300   44.8730 N   0  0  0  0  0  0  0  0  0  0  0  0
   56.6940   29.6140   45.1900 C   0  0  0  0  0  0  0  0  0  0  0  0
   56.6690   30.9690   45.0670 N   0  0  0  0  0  0  0  0  0  0  0  0
   57.7230   31.7480   45.4220 C   0  0  0  0  0  0  0  0  0  0  0  0
   57.6617   32.8394   45.2989 H   0  0  0  0  0  0  0  0  0  0  0  0
   58.8880   31.1710   45.9440 C   0  0  0  0  0  0  0  0  0  0  0  0
   60.0560   32.0440   46.3640 C   0  0  0  0  0  0  0  0  0  0  0  0
   60.6235   32.3011   45.4575 H   0  0  0  0  0  0  0  0  0  0  0  0
   59.5540   33.3610   46.9920 C   0  0  0  0  0  0  0  0  0  0  0  0
   59.1453   34.0073   46.2012 H   0  0  0  0  0  0  0  0  0  0  0  0
   58.7730   33.1296   47.7313 H   0  0  0  0  0  0  0  0  0  0  0  0
   60.7070   34.0900   47.6960 C   0  0  0  0  0  0  0  0  0  0  0  0
   61.4672   34.3480   46.9440 H   0  0  0  0  0  0  0  0  0  0  0  0
   60.2805   34.9815   48.1791 H   0  0  0  0  0  0  0  0  0  0  0  0
   61.3550   33.2800   48.7630 N   0  0  0  0  0  0  0  0  0  0  0  0
   61.0710   33.8260   50.0990 C   0  0  0  0  0  0  0  0  0  0  0  0
   61.4349   33.1264   50.8659 H   0  0  0  0  0  0  0  0  0  0  0  0
   61.5797   34.7944   50.2151 H   0  0  0  0  0  0  0  0  0  0  0  0
   59.9861   33.9655   50.2151 H   0  0  0  0  0  0  0  0  0  0  0  0
   61.0310   31.8350   48.7240 C   0  0  0  0  0  0  0  0  0  0  0  0
   61.7723   31.2864   49.3235 H   0  0  0  0  0  0  0  0  0  0  0  0
   60.0183   31.6978   49.1310 H   0  0  0  0  0  0  0  0  0  0  0  0
   61.0500   31.2920   47.2900 C   0  0  0  0  0  0  0  0  0  0  0  0
   62.0659   31.4025   46.8830 H   0  0  0  0  0  0  0  0  0  0  0  0
   60.7451   30.2357   47.3252 H   0  0  0  0  0  0  0  0  0  0  0  0
   58.9330   29.7740   46.0850 C   0  0  0  0  0  0  0  0  0  0  0  0
   59.8312   29.3001   46.5077 H   0  0  0  0  0  0  0  0  0  0  0  0
   57.8480   28.9750   45.6940 C   0  0  0  0  0  0  0  0  0  0  0  0
   57.9460   27.5040   45.8530 C   0  0  0  0  0  0  0  0  0  0  0  0
   57.4800   26.6920   44.8630 N   0  0  0  0  0  0  0  0  0  0  0  0
   57.5290   25.3390   44.9740 C   0  0  0  0  0  0  0  0  0  0  0  0
   57.0560   24.5140   43.9530 C   0  0  0  0  0  0  0  0  0  0  0  0
   56.6326   24.9527   43.0374 H   0  0  0  0  0  0  0  0  0  0  0  0
   57.1240   23.1280   44.1020 C   0  0  0  0  0  0  0  0  0  0  0  0
   56.7565   22.4664   43.3038 H   0  0  0  0  0  0  0  0  0  0  0  0
   57.6630   22.5860   45.2740 C   0  0  0  0  0  0  0  0  0  0  0  0
   57.7188   21.4943   45.3966 H   0  0  0  0  0  0  0  0  0  0  0  0
   58.1190   23.4030   46.2640 N   0  0  0  0  0  0  0  0  0  0  0  0
   58.5160   22.9770   47.1320 H   0  0  0  0  0  0  0  0  0  0  0  0
   58.0640   24.7590   46.1390 C   0  0  0  0  0  0  0  0  0  0  0  0
   58.5150   25.5650   47.1350 N   0  0  0  0  0  0  0  0  0  0  0  0
   58.4670   26.9190   47.0220 C   0  0  0  0  0  0  0  0  0  0  0  0
   58.8340   27.5548   47.8412 H   0  0  0  0  0  0  0  0  0  0  0  0
  1  2  1  0
  2  3  2  0
  3  4  1  0
  4  5  1  0
  5  6  1  0
  5  7  2  0
  7  8  1  0
  8  9  1  0
  8 10  1  0
 10 11  1  0
 10 12  1  0
 10 13  1  0
 13 14  1  0
 13 15  1  0
 13 16  1  0
 16 17  1  0
 17 18  1  0
 17 19  1  0
 17 20  1  0
 16 21  1  0
 21 22  1  0
 21 23  1  0
 21 24  1  0
 24 25  1  0
 24 26  1  0
  7 27  1  0
 27 28  1  0
 27 29  2  0
 29 30  1  0
 30 31  2  0
 31 32  1  0
 32 33  2  0
 33 34  1  0
 33 35  1  0
 35 36  1  0
 35 37  2  0
 37 38  1  0
 37 39  1  0
 39 40  1  0
 39 41  2  0
 41 42  1  0
 42 43  2  0
 43 44  1  0
 29  3  1  0
 43 30  1  0
 24  8  1  0
 41 32  1  0
M  CHG  2   4  -1  39   1
M  END
>  <UniqueID>  (28) 
27

>  <SMILES>  (28) 
[H]/N=c1\[n-]cc(C2CCN(C)CC2)cc1-c1cnc2[nH+]cccc2n1

>  <Energy>  (28) 
67.01086709999079

>  <Genealogy>  (28) 
CN1CCC(c2c[n-]c(=N)c(-c3cnc4[nH+]cccc4n3)c2)CC1 (protonated)
[H]/N=c1\[n-]cc(C2CCN(C)CC2)cc1-c1cnc2[nH+]cccc2n1 (cis-trans isomerization)
[H]/N=c1\[n-]cc(C2CCN(C)CC2)cc1-c1cnc2[nH+]cccc2n1 (3D coordinates assigned)
[H]/N=c1\[n-]cc(C2CCN(C)CC2)cc1-c1cnc2[nH+]cccc2n1 (nonaromatic ring conformer: 67.01086709999079 kcal/mol)

>  <smiles>  (28) 
CN1CCC(c2c[nH]c(=N)c(-c3cnc4ncccc4n3)c2)CC1

>  <score_type>  (28) 
oracle

>  <origin>  (28) 
adg

>  <m_score__min__energy>  (28) 
-8.1300000000000008

>  <m_primary>  (28) 
energy

$$$$
28:0
     RDKit          3D

 44 46  0  0  0  0  0  0  0  0999 V2000
   60.8200   26.0320   46.4940 C   0  0  0  0  0  0  0  0  0  0  0  0
   60.1230   26.7610   47.4990 O   0  0  0  0  0  0  0  0  0  0  0  0
   60.3620   28.1050   47.8220 C   0  0  0  0  0  0  0  0  0  0  0  0
   60.6060   28.5150   49.1470 C   0  0  0  0  0  0  0  0  0  0  0  0
   60.8390   29.8590   49.4430 C   0  0  0  0  0  0  0  0  0  0  0  0
   60.8380   30.8240   48.4230 C   0  0  0  0  0  0  0  0  0  0  0  0
   61.0790   32.2180   48.6930 N   0  0  0  0  0  0  0  0  0  0  0  0
   59.8220   33.4000   48.8790 S   0  0  0  0  0  0  0  0  0  0  0  0
   60.4180   34.6720   49.4160 O   0  0  0  0  0  0  0  0  0  0  0  0
   58.8010   32.8880   49.8550 O   0  0  0  0  0  0  0  0  0  0  0  0
   59.0310   33.6880   47.3330 C   0  0  0  0  0  0  0  0  0  0  0  0
   59.7100   34.3480   46.2980 C   0  0  0  0  0  0  0  0  0  0  0  0
   59.0770   34.5630   45.0690 C   0  0  0  0  0  0  0  0  0  0  0  0
   57.7660   34.1210   44.8680 C   0  0  0  0  0  0  0  0  0  0  0  0
   57.0840   33.4660   45.8980 C   0  0  0  0  0  0  0  0  0  0  0  0
   57.7130   33.2510   47.1290 C   0  0  0  0  0  0  0  0  0  0  0  0
   60.5890   30.4180   47.1040 C   0  0  0  0  0  0  0  0  0  0  0  0
   60.3560   29.0680   46.7940 C   0  0  0  0  0  0  0  0  0  0  0  0
   60.0680   28.6700   45.3620 C   0  0  0  0  0  0  0  0  0  0  0  0
   58.8260   29.3090   44.8780 N   0  0  0  0  0  0  0  0  0  0  0  0
   58.9630   30.4690   44.1600 C   0  0  0  0  0  0  0  0  0  0  0  0
   57.8510   31.1560   43.6770 C   0  0  0  0  0  0  0  0  0  0  0  0
   56.5790   30.6530   43.9160 C   0  0  0  0  0  0  0  0  0  0  0  0
   56.4270   29.4650   44.6250 C   0  0  0  0  0  0  0  0  0  0  0  0
   55.1460   28.9670   44.8460 O   0  0  0  0  0  0  0  0  0  0  0  0
   57.5640   28.7850   45.1040 C   0  0  0  0  0  0  0  0  0  0  0  0
   57.3340   27.3600   45.9010 S   0  0  0  0  0  0  0  0  0  0  0  0
   61.5054   25.3152   46.9698 H   0  0  0  0  0  0  0  0  0  0  0  0
   60.0974   25.4881   45.8679 H   0  0  0  0  0  0  0  0  0  0  0  0
   61.3957   26.7295   45.8679 H   0  0  0  0  0  0  0  0  0  0  0  0
   60.6130   27.7695   49.9558 H   0  0  0  0  0  0  0  0  0  0  0  0
   61.0248   30.1645   50.4833 H   0  0  0  0  0  0  0  0  0  0  0  0
   62.0570   32.5390   48.8670 H   0  0  0  0  0  0  0  0  0  0  0  0
   60.7416   34.6970   46.4529 H   0  0  0  0  0  0  0  0  0  0  0  0
   59.6119   35.0809   44.2592 H   0  0  0  0  0  0  0  0  0  0  0  0
   57.2712   34.2884   43.8999 H   0  0  0  0  0  0  0  0  0  0  0  0
   56.0520   33.1195   45.7403 H   0  0  0  0  0  0  0  0  0  0  0  0
   57.1733   32.7383   47.9389 H   0  0  0  0  0  0  0  0  0  0  0  0
   60.5760   31.1683   46.2998 H   0  0  0  0  0  0  0  0  0  0  0  0
   60.9074   28.9849   44.7246 H   0  0  0  0  0  0  0  0  0  0  0  0
   59.9422   27.5781   45.3186 H   0  0  0  0  0  0  0  0  0  0  0  0
   59.9699   30.8649   43.9615 H   0  0  0  0  0  0  0  0  0  0  0  0
   57.9799   32.0900   43.1105 H   0  0  0  0  0  0  0  0  0  0  0  0
   55.6942   31.1918   43.5461 H   0  0  0  0  0  0  0  0  0  0  0  0
  1  2  1  0
  2  3  1  0
  3  4  2  0
  4  5  1  0
  5  6  2  0
  6  7  1  0
  7  8  1  0
  8  9  2  0
  8 10  2  0
  8 11  1  0
 11 12  2  0
 12 13  1  0
 13 14  2  0
 14 15  1  0
 15 16  2  0
  6 17  1  0
 17 18  2  0
 18 19  1  0
 19 20  1  0
 20 21  1  0
 21 22  2  0
 22 23  1  0
 23 24  2  0
 24 25  1  0
 24 26  1  0
 26 27  2  0
 18  3  1  0
 26 20  1  0
 16 11  1  0
  1 28  1  0
  1 29  1  0
  1 30  1  0
  4 31  1  0
  5 32  1  0
  7 33  1  0
 12 34  1  0
 13 35  1  0
 14 36  1  0
 15 37  1  0
 16 38  1  0
 17 39  1  0
 19 40  1  0
 19 41  1  0
 21 42  1  0
 22 43  1  0
 23 44  1  0
M  CHG  1  25  -1
M  END
>  <UniqueID>  (29) 
28

>  <SMILES>  (29) 
COc1ccc(NS(=O)(=O)c2ccccc2)cc1Cn1cccc([O-])c1=S

>  <Energy>  (29) 
55.4282768025863

>  <Genealogy>  (29) 
COc1ccc(NS(=O)(=O)c2ccccc2)cc1Cn1cccc([O-])c1=S (protonated)
COc1ccc(NS(=O)(=O)c2ccccc2)cc1Cn1cccc([O-])c1=S (3D coordinates assigned)
COc1ccc(NS(=O)(=O)c2ccccc2)cc1Cn1cccc([O-])c1=S (optimized conformer: 55.4282768025863 kcal/mol)

>  <smiles>  (29) 
COc1ccc(NS(=O)(=O)c2ccccc2)cc1Cn1cccc(O)c1=S

>  <score_type>  (29) 
oracle

>  <origin>  (29) 
adg

>  <m_score__min__energy>  (29) 
-12.35

>  <m_primary>  (29) 
energy

$$$$
29:0
     RDKit          3D

 62 65  0  0  0  0  0  0  0  0999 V2000
   55.3970   30.8200   52.0800 C   0  0  0  0  0  0  0  0  0  0  0  0
   56.5820   30.0800   51.8040 O   0  0  0  0  0  0  0  0  0  0  0  0
   57.7850   30.2080   52.5150 C   0  0  0  0  0  0  0  0  0  0  0  0
   57.8780   29.8700   53.8800 C   0  0  0  0  0  0  0  0  0  0  0  0
   59.0970   29.9760   54.5540 C   0  0  0  0  0  0  0  0  0  0  0  0
   60.2330   30.4210   53.8780 C   0  0  0  0  0  0  0  0  0  0  0  0
   60.1540   30.7640   52.5280 C   0  0  0  0  0  0  0  0  0  0  0  0
   58.9340   30.6700   51.8380 C   0  0  0  0  0  0  0  0  0  0  0  0
   58.8700   31.0380   50.4470 N   0  0  0  0  0  0  0  0  0  0  0  0
   58.2600   32.3200   50.0640 C   0  0  0  0  0  0  0  0  0  0  0  0
   58.7320   32.7800   48.6800 C   0  0  0  0  0  0  0  0  0  0  0  0
   58.6130   31.6910   47.6980 N   0  0  0  0  0  0  0  0  0  0  0  0
   58.3540   31.9860   46.3070 C   0  0  0  0  0  0  0  0  0  0  0  0
   58.6760   33.2380   45.7700 C   0  0  0  0  0  0  0  0  0  0  0  0
   58.4430   33.4830   44.4230 C   0  0  0  0  0  0  0  0  0  0  0  0
   57.8920   32.4810   43.6300 C   0  0  0  0  0  0  0  0  0  0  0  0
   57.6950   32.7040   42.4040 O   0  0  0  0  0  0  0  0  0  0  0  0
   57.5720   31.2700   44.1870 N   0  0  0  0  0  0  0  0  0  0  0  0
   57.0160   30.1890   43.3620 C   0  0  0  0  0  0  0  0  0  0  0  0
   55.9650   29.4450   44.1400 C   0  0  0  0  0  0  0  0  0  0  0  0
   54.7680   29.5040   43.7550 O   0  0  0  0  0  0  0  0  0  0  0  0
   56.2620   28.7940   45.3810 N   0  0  0  0  0  0  0  0  0  0  0  0
   57.3170   27.8470   45.6040 C   0  0  0  0  0  0  0  0  0  0  0  0
   58.6570   28.2490   45.4810 C   0  0  0  0  0  0  0  0  0  0  0  0
   59.6900   27.3370   45.6820 C   0  0  0  0  0  0  0  0  0  0  0  0
   59.4020   26.0120   46.0010 C   0  0  0  0  0  0  0  0  0  0  0  0
   58.0720   25.5770   46.1140 C   0  0  0  0  0  0  0  0  0  0  0  0
   57.8040   24.1340   46.4600 C   0  0  0  0  0  0  0  0  0  0  0  0
   57.0120   26.4920   45.8740 C   0  0  0  0  0  0  0  0  0  0  0  0
   55.5730   26.0460   45.9950 C   0  0  0  0  0  0  0  0  0  0  0  0
   57.8150   31.0350   45.4870 N   0  0  0  0  0  0  0  0  0  0  0  0
   58.8870   30.3020   48.1010 C   0  0  0  0  0  0  0  0  0  0  0  0
   59.5990   30.2420   49.4540 C   0  0  0  0  0  0  0  0  0  0  0  0
   55.2624   30.9041   53.1685 H   0  0  0  0  0  0  0  0  0  0  0  0
   55.4824   31.8256   51.6424 H   0  0  0  0  0  0  0  0  0  0  0  0
   54.5309   30.3020   51.6424 H   0  0  0  0  0  0  0  0  0  0  0  0
   56.9847   29.5204   54.4183 H   0  0  0  0  0  0  0  0  0  0  0  0
   59.1611   29.7082   55.6190 H   0  0  0  0  0  0  0  0  0  0  0  0
   61.1924   30.5016   54.4100 H   0  0  0  0  0  0  0  0  0  0  0  0
   61.0543   31.1108   51.9996 H   0  0  0  0  0  0  0  0  0  0  0  0
   57.1663   32.2038   50.0475 H   0  0  0  0  0  0  0  0  0  0  0  0
   58.5641   33.0786   50.8002 H   0  0  0  0  0  0  0  0  0  0  0  0
   58.1148   33.6296   48.3526 H   0  0  0  0  0  0  0  0  0  0  0  0
   59.7886   33.0780   48.7492 H   0  0  0  0  0  0  0  0  0  0  0  0
   59.1098   34.0210   46.4094 H   0  0  0  0  0  0  0  0  0  0  0  0
   58.6921   34.4614   43.9864 H   0  0  0  0  0  0  0  0  0  0  0  0
   56.5646   30.6170   42.4548 H   0  0  0  0  0  0  0  0  0  0  0  0
   57.8214   29.4941   43.0820 H   0  0  0  0  0  0  0  0  0  0  0  0
   58.8924   29.2923   45.2239 H   0  0  0  0  0  0  0  0  0  0  0  0
   60.7362   27.6638   45.5886 H   0  0  0  0  0  0  0  0  0  0  0  0
   60.2241   25.3000   46.1659 H   0  0  0  0  0  0  0  0  0  0  0  0
   57.7823   24.0171   47.5536 H   0  0  0  0  0  0  0  0  0  0  0  0
   56.8341   23.8301   46.0394 H   0  0  0  0  0  0  0  0  0  0  0  0
   58.6002   23.5021   46.0394 H   0  0  0  0  0  0  0  0  0  0  0  0
   55.3032   25.9624   47.0581 H   0  0  0  0  0  0  0  0  0  0  0  0
   54.9183   26.7834   45.5075 H   0  0  0  0  0  0  0  0  0  0  0  0
   55.4501   25.0676   45.5075 H   0  0  0  0  0  0  0  0  0  0  0  0
   57.5730   30.1030   45.8890 H   0  0  0  0  0  0  0  0  0  0  0  0
   57.9347   29.7561   48.1734 H   0  0  0  0  0  0  0  0  0  0  0  0
   59.5427   29.8457   47.3448 H   0  0  0  0  0  0  0  0  0  0  0  0
   59.6486   29.1965   49.7922 H   0  0  0  0  0  0  0  0  0  0  0  0
   60.6145   30.6500   49.3430 H   0  0  0  0  0  0  0  0  0  0  0  0
  1  2  1  0
  2  3  1  0
  3  4  2  0
  4  5  1  0
  5  6  2  0
  6  7  1  0
  7  8  2  0
  8  9  1  0
  9 10  1  0
 10 11  1  0
 11 12  1  0
 12 13  1  0
 13 14  1  0
 14 15  2  0
 15 16  1  0
 16 17  2  0
 16 18  1  0
 18 19  1  0
 19 20  1  0
 20 21  2  0
 20 22  1  0
 22 23  1  0
 23 24  2  0
 24 25  1  0
 25 26  2  0
 26 27  1  0
 27 28  1  0
 27 29  2  0
 29 30  1  0
 18 31  1  0
 12 32  1  0
 32 33  1  0
  8  3  1  0
 33  9  1  0
 31 13  2  0
 29 23  1  0
  1 34  1  0
  1 35  1  0
  1 36  1  0
  4 37  1  0
  5 38  1  0
  6 39  1  0
  7 40  1  0
 10 41  1  0
 10 42  1  0
 11 43  1  0
 11 44  1  0
 14 45  1  0
 15 46  1  0
 19 47  1  0
 19 48  1  0
 24 49  1  0
 25 50  1  0
 26 51  1  0
 28 52  1  0
 28 53  1  0
 28 54  1  0
 30 55  1  0
 30 56  1  0
 30 57  1  0
 31 58  1  0
 32 59  1  0
 32 60  1  0
 33 61  1  0
 33 62  1  0
M  CHG  2  22  -1  31   1
M  END
>  <UniqueID>  (30) 
29

>  <SMILES>  (30) 
COc1ccccc1N1CCN(c2ccc(=O)n(CC(=O)[N-]c3cccc(C)c3C)[nH+]2)CC1

>  <Energy>  (30) 
79.92762797377341

>  <Genealogy>  (30) 
COc1ccccc1N1CCN(c2ccc(=O)n(CC(=O)[N-]c3cccc(C)c3C)[nH+]2)CC1 (protonated)
COc1ccccc1N1CCN(c2ccc(=O)n(CC(=O)[N-]c3cccc(C)c3C)[nH+]2)CC1 (3D coordinates assigned)
COc1ccccc1N1CCN(c2ccc(=O)n(CC(=O)[N-]c3cccc(C)c3C)[nH+]2)CC1 (nonaromatic ring conformer: 79.92762797377341 kcal/mol)

>  <smiles>  (30) 
COc1ccccc1N1CCN(c2ccc(=O)n(CC(=O)Nc3cccc(C)c3C)n2)CC1

>  <score_type>  (30) 
oracle

>  <origin>  (30) 
adg

>  <m_score__min__energy>  (30) 
-8.2100000000000009

>  <m_primary>  (30) 
energy

$$$$
30:0
     RDKit          3D

 24 25  0  0  0  0  0  0  0  0999 V2000
   58.8630   34.8130   44.5220 F   0  0  0  0  0  0  0  0  0  0  0  0
   58.5010   33.5540   44.8760 C   0  0  0  0  0  0  0  0  0  0  0  0
   57.8640   32.7310   43.9460 C   0  0  0  0  0  0  0  0  0  0  0  0
   57.4840   31.4290   44.2910 C   0  0  0  0  0  0  0  0  0  0  0  0
   56.6410   30.3620   42.9370 Br  0  0  0  0  0  0  0  0  0  0  0  0
   57.7450   30.9340   45.5900 C   0  0  0  0  0  0  0  0  0  0  0  0
   57.3550   29.5910   45.9540 N   0  0  0  0  0  0  0  0  0  0  0  0
   58.2770   28.4590   46.0320 C   0  0  0  0  0  0  0  0  0  0  0  0
   57.5180   27.1680   46.0150 C   0  0  0  0  0  0  0  0  0  0  0  0
   58.0720   25.9040   46.0330 C   0  0  0  0  0  0  0  0  0  0  0  0
   57.0040   25.0330   46.0090 C   0  0  0  0  0  0  0  0  0  0  0  0
   55.8690   25.8190   45.9830 C   0  0  0  0  0  0  0  0  0  0  0  0
   56.2080   27.0870   45.9890 O   0  0  0  0  0  0  0  0  0  0  0  0
   58.3870   31.7800   46.5190 C   0  0  0  0  0  0  0  0  0  0  0  0
   58.7630   33.0780   46.1630 C   0  0  0  0  0  0  0  0  0  0  0  0
   59.5630   34.1060   47.3410 Cl  0  0  0  0  0  0  0  0  0  0  0  0
   57.6589   33.1089   42.9335 H   0  0  0  0  0  0  0  0  0  0  0  0
   56.3520   29.3860   46.1580 H   0  0  0  0  0  0  0  0  0  0  0  0
   58.9617   28.4887   45.1716 H   0  0  0  0  0  0  0  0  0  0  0  0
   58.8474   28.5263   46.9701 H   0  0  0  0  0  0  0  0  0  0  0  0
   59.1410   25.6460   46.0607 H   0  0  0  0  0  0  0  0  0  0  0  0
   57.0471   23.9338   46.0103 H   0  0  0  0  0  0  0  0  0  0  0  0
   54.8367   25.4398   45.9606 H   0  0  0  0  0  0  0  0  0  0  0  0
   58.5939   31.4136   47.5353 H   0  0  0  0  0  0  0  0  0  0  0  0
  1  2  1  0
  2  3  2  0
  3  4  1  0
  4  5  1  0
  4  6  2  0
  6  7  1  0
  7  8  1  0
  8  9  1  0
  9 10  2  0
 10 11  1  0
 11 12  2  0
 12 13  1  0
  6 14  1  0
 14 15  2  0
 15 16  1  0
 15  2  1  0
 13  9  1  0
  3 17  1  0
  7 18  1  0
  8 19  1  0
  8 20  1  0
 10 21  1  0
 11 22  1  0
 12 23  1  0
 14 24  1  0
M  END
>  <UniqueID>  (31) 
30

>  <SMILES>  (31) 
Fc1cc(Br)c(NCc2ccco2)cc1Cl

>  <Energy>  (31) 
50.77172007293526

>  <Genealogy>  (31) 
Fc1cc(Br)c(NCc2ccco2)cc1Cl (3D coordinates assigned)
Fc1cc(Br)c(NCc2ccco2)cc1Cl (optimized conformer: 50.77172007293526 kcal/mol)

>  <smiles>  (31) 
Fc1cc(Br)c(NCc2ccco2)cc1Cl

>  <score_type>  (31) 
oracle

>  <origin>  (31) 
adg

>  <m_score__min__energy>  (31) 
-6.2599999999999998

>  <m_primary>  (31) 
energy

$$$$
31:0
     RDKit          3D

 45 48  0  0  0  0  0  0  0  0999 V2000
   62.5520   33.8340   46.3690 C   0  0  0  0  0  0  0  0  0  0  0  0
   63.4000   32.9060   47.1430 N   0  0  0  0  0  0  0  0  0  0  0  0
   62.8140   31.5440   47.2300 C   0  0  0  0  0  0  0  0  0  0  0  0
   61.9850   31.3160   48.5130 C   0  0  0  0  0  0  0  0  0  0  0  0
   61.4830   32.6040   49.0050 N   0  0  0  0  0  0  0  0  0  0  0  0
   60.3230   32.5180   49.9140 C   0  0  0  0  0  0  0  0  0  0  0  0
   59.0700   31.8890   49.3270 C   0  0  0  0  0  0  0  0  0  0  0  0
   58.1250   31.5630   50.0970 O   0  0  0  0  0  0  0  0  0  0  0  0
   58.8980   31.7300   47.9000 N   0  0  0  0  0  0  0  0  0  0  0  0
   58.8970   32.9120   47.0370 C   0  0  0  0  0  0  0  0  0  0  0  0
   59.0640   34.2200   47.5580 C   0  0  0  0  0  0  0  0  0  0  0  0
   59.2840   35.3090   46.7110 C   0  0  0  0  0  0  0  0  0  0  0  0
   59.3020   35.1280   45.3290 C   0  0  0  0  0  0  0  0  0  0  0  0
   59.0280   33.8700   44.7900 C   0  0  0  0  0  0  0  0  0  0  0  0
   58.7770   32.7800   45.6340 C   0  0  0  0  0  0  0  0  0  0  0  0
   57.9810   31.3500   44.9250 S   0  0  0  0  0  0  0  0  0  0  0  0
   58.8450   30.1750   45.9450 C   0  0  0  0  0  0  0  0  0  0  0  0
   59.1790   28.9390   45.3770 C   0  0  0  0  0  0  0  0  0  0  0  0
   59.5480   27.8680   46.1880 C   0  0  0  0  0  0  0  0  0  0  0  0
   59.5500   28.0210   47.5740 C   0  0  0  0  0  0  0  0  0  0  0  0
   59.2440   29.2590   48.1450 C   0  0  0  0  0  0  0  0  0  0  0  0
   58.9610   30.3840   47.3360 C   0  0  0  0  0  0  0  0  0  0  0  0
   62.5680   33.5010   49.4440 C   0  0  0  0  0  0  0  0  0  0  0  0
   63.7640   33.4530   48.4670 C   0  0  0  0  0  0  0  0  0  0  0  0
   61.9746   34.4659   47.0599 H   0  0  0  0  0  0  0  0  0  0  0  0
   63.1878   34.4697   45.7352 H   0  0  0  0  0  0  0  0  0  0  0  0
   61.8618   33.2579   45.7352 H   0  0  0  0  0  0  0  0  0  0  0  0
   62.1596   31.3893   46.3595 H   0  0  0  0  0  0  0  0  0  0  0  0
   63.6507   30.8303   47.2518 H   0  0  0  0  0  0  0  0  0  0  0  0
   61.1364   30.6531   48.2885 H   0  0  0  0  0  0  0  0  0  0  0  0
   62.6193   30.8511   49.2822 H   0  0  0  0  0  0  0  0  0  0  0  0
   60.6225   31.9216   50.7884 H   0  0  0  0  0  0  0  0  0  0  0  0
   60.0525   33.5570   50.1536 H   0  0  0  0  0  0  0  0  0  0  0  0
   59.0197   34.3797   48.6454 H   0  0  0  0  0  0  0  0  0  0  0  0
   59.4433   36.3112   47.1355 H   0  0  0  0  0  0  0  0  0  0  0  0
   59.5315   35.9744   44.6649 H   0  0  0  0  0  0  0  0  0  0  0  0
   59.0090   33.7337   43.6986 H   0  0  0  0  0  0  0  0  0  0  0  0
   59.1498   28.8133   44.2846 H   0  0  0  0  0  0  0  0  0  0  0  0
   59.8362   26.9068   45.7374 H   0  0  0  0  0  0  0  0  0  0  0  0
   59.7932   27.1644   48.2198 H   0  0  0  0  0  0  0  0  0  0  0  0
   59.2229   29.3601   49.2401 H   0  0  0  0  0  0  0  0  0  0  0  0
   62.1847   34.5310   49.4913 H   0  0  0  0  0  0  0  0  0  0  0  0
   62.9142   33.1695   50.4341 H   0  0  0  0  0  0  0  0  0  0  0  0
   64.1485   34.4747   48.3316 H   0  0  0  0  0  0  0  0  0  0  0  0
   64.5222   32.7864   48.9039 H   0  0  0  0  0  0  0  0  0  0  0  0
  1  2  1  0
  2  3  1  0
  3  4  1  0
  4  5  1  0
  5  6  1  0
  6  7  1  0
  7  8  2  0
  7  9  1  0
  9 10  1  0
 10 11  2  0
 11 12  1  0
 12 13  2  0
 13 14  1  0
 14 15  2  0
 15 16  1  0
 16 17  1  0
 17 18  2  0
 18 19  1  0
 19 20  2  0
 20 21  1  0
 21 22  2  0
  5 23  1  0
 23 24  1  0
 24  2  1  0
 22  9  1  0
 15 10  1  0
 22 17  1  0
  1 25  1  0
  1 26  1  0
  1 27  1  0
  3 28  1  0
  3 29  1  0
  4 30  1  0
  4 31  1  0
  6 32  1  0
  6 33  1  0
 11 34  1  0
 12 35  1  0
 13 36  1  0
 14 37  1  0
 18 38  1  0
 19 39  1  0
 20 40  1  0
 21 41  1  0
 23 42  1  0
 23 43  1  0
 24 44  1  0
 24 45  1  0
M  END
>  <UniqueID>  (32) 
31

>  <SMILES>  (32) 
CN1CCN(CC(=O)N2c3ccccc3Sc3ccccc32)CC1

>  <Energy>  (32) 
96.02756869957496

>  <Genealogy>  (32) 
CN1CCN(CC(=O)N2c3ccccc3Sc3ccccc32)CC1 (3D coordinates assigned)
CN1CCN(CC(=O)N2c3ccccc3Sc3ccccc32)CC1 (nonaromatic ring conformer: 96.02756869957496 kcal/mol)

>  <smiles>  (32) 
CN1CCN(CC(=O)N2c3ccccc3Sc3ccccc32)CC1

>  <score_type>  (32) 
oracle

>  <origin>  (32) 
adg

>  <m_score__min__energy>  (32) 
-7.8799999999999999

>  <m_primary>  (32) 
energy

$$$$
32:0
     RDKit          3D

 42 44  0  0  0  0  0  0  0  0999 V2000
   59.6210   33.9200   48.8310 C   0  0  0  0  0  0  0  0  0  0  0  0
   59.1040   33.9480   47.4230 C   0  0  0  0  0  0  0  0  0  0  0  0
   59.5680   34.9130   46.5170 C   0  0  0  0  0  0  0  0  0  0  0  0
   59.1120   34.9120   45.1960 C   0  0  0  0  0  0  0  0  0  0  0  0
   58.2090   33.9370   44.7640 C   0  0  0  0  0  0  0  0  0  0  0  0
   57.7590   32.9470   45.6560 C   0  0  0  0  0  0  0  0  0  0  0  0
   56.8550   31.9120   45.2510 N   0  0  0  0  0  0  0  0  0  0  0  0
   57.1480   30.7650   43.9830 S   0  0  0  0  0  0  0  0  0  0  0  0
   58.1580   31.3170   43.0180 O   0  0  0  0  0  0  0  0  0  0  0  0
   55.8570   30.4750   43.2710 O   0  0  0  0  0  0  0  0  0  0  0  0
   57.7930   29.2830   44.6760 C   0  0  0  0  0  0  0  0  0  0  0  0
   59.1760   29.0640   44.7090 C   0  0  0  0  0  0  0  0  0  0  0  0
   59.6880   27.9010   45.2930 C   0  0  0  0  0  0  0  0  0  0  0  0
   58.8230   26.9630   45.8640 C   0  0  0  0  0  0  0  0  0  0  0  0
   57.4390   27.1880   45.8610 C   0  0  0  0  0  0  0  0  0  0  0  0
   56.5290   26.2060   46.4780 C   0  0  0  0  0  0  0  0  0  0  0  0
   56.9660   25.4590   47.3920 O   0  0  0  0  0  0  0  0  0  0  0  0
   55.1510   26.0980   46.0940 N   0  0  0  0  0  0  0  0  0  0  0  0
   54.5240   24.9130   45.5100 C   0  0  0  0  0  0  0  0  0  0  0  0
   55.5520   23.9550   44.9980 C   0  0  0  0  0  0  0  0  0  0  0  0
   56.2340   24.0540   43.8020 C   0  0  0  0  0  0  0  0  0  0  0  0
   57.0770   22.9640   43.7640 C   0  0  0  0  0  0  0  0  0  0  0  0
   56.8620   22.2730   44.9400 C   0  0  0  0  0  0  0  0  0  0  0  0
   55.9500   22.8890   45.6560 O   0  0  0  0  0  0  0  0  0  0  0  0
   56.9280   28.3340   45.2380 C   0  0  0  0  0  0  0  0  0  0  0  0
   58.2060   32.9630   46.9820 C   0  0  0  0  0  0  0  0  0  0  0  0
   58.7754   33.9658   49.5331 H   0  0  0  0  0  0  0  0  0  0  0  0
   60.1848   32.9900   48.9962 H   0  0  0  0  0  0  0  0  0  0  0  0
   60.2819   34.7837   48.9962 H   0  0  0  0  0  0  0  0  0  0  0  0
   60.2924   35.6722   46.8470 H   0  0  0  0  0  0  0  0  0  0  0  0
   59.4652   35.6815   44.4937 H   0  0  0  0  0  0  0  0  0  0  0  0
   57.8495   33.9438   43.7244 H   0  0  0  0  0  0  0  0  0  0  0  0
   59.8604   29.8078   44.2750 H   0  0  0  0  0  0  0  0  0  0  0  0
   60.7736   27.7240   45.3031 H   0  0  0  0  0  0  0  0  0  0  0  0
   59.2290   26.0463   46.3167 H   0  0  0  0  0  0  0  0  0  0  0  0
   53.9177   24.4119   46.2790 H   0  0  0  0  0  0  0  0  0  0  0  0
   53.8938   25.2318   44.6667 H   0  0  0  0  0  0  0  0  0  0  0  0
   56.1271   24.8388   43.0387 H   0  0  0  0  0  0  0  0  0  0  0  0
   57.7789   22.6984   42.9597 H   0  0  0  0  0  0  0  0  0  0  0  0
   57.3771   21.3462   45.2328 H   0  0  0  0  0  0  0  0  0  0  0  0
   55.8402   28.4902   45.1895 H   0  0  0  0  0  0  0  0  0  0  0  0
   57.8502   32.1962   47.6858 H   0  0  0  0  0  0  0  0  0  0  0  0
  1  2  1  0
  2  3  2  0
  3  4  1  0
  4  5  2  0
  5  6  1  0
  6  7  1  0
  7  8  1  0
  8  9  2  0
  8 10  2  0
  8 11  1  0
 11 12  2  0
 12 13  1  0
 13 14  2  0
 14 15  1  0
 15 16  1  0
 16 17  2  0
 16 18  1  0
 18 19  1  0
 19 20  1  0
 20 21  2  0
 21 22  1  0
 22 23  2  0
 23 24  1  0
 15 25  2  0
  6 26  2  0
 26  2  1  0
 25 11  1  0
 24 20  1  0
  1 27  1  0
  1 28  1  0
  1 29  1  0
  3 30  1  0
  4 31  1  0
  5 32  1  0
 12 33  1  0
 13 34  1  0
 14 35  1  0
 19 36  1  0
 19 37  1  0
 21 38  1  0
 22 39  1  0
 23 40  1  0
 25 41  1  0
 26 42  1  0
M  CHG  2   7  -1  18  -1
M  END
>  <UniqueID>  (33) 
32

>  <SMILES>  (33) 
Cc1cccc([N-]S(=O)(=O)c2cccc(C(=O)[N-]Cc3ccco3)c2)c1

>  <Energy>  (33) 
74.43728497630381

>  <Genealogy>  (33) 
Cc1cccc([N-]S(=O)(=O)c2cccc(C(=O)[N-]Cc3ccco3)c2)c1 (protonated)
Cc1cccc([N-]S(=O)(=O)c2cccc(C(=O)[N-]Cc3ccco3)c2)c1 (3D coordinates assigned)
Cc1cccc([N-]S(=O)(=O)c2cccc(C(=O)[N-]Cc3ccco3)c2)c1 (optimized conformer: 74.43728497630381 kcal/mol)

>  <smiles>  (33) 
Cc1cccc(NS(=O)(=O)c2cccc(C(=O)NCc3ccco3)c2)c1

>  <score_type>  (33) 
oracle

>  <origin>  (33) 
adg

>  <m_score__min__energy>  (33) 
-12.369999999999999

>  <m_primary>  (33) 
energy

$$$$
33:0
     RDKit          3D

 30 31  0  0  1  0  0  0  0  0999 V2000
   60.2690   27.7190   46.0850 C   0  0  0  0  0  0  0  0  0  0  0  0
   58.8050   27.9610   45.8430 C   0  0  0  0  0  0  0  0  0  0  0  0
   58.4030   29.1880   45.4100 C   0  0  0  0  0  0  0  0  0  0  0  0
   57.0580   29.4210   45.1820 C   0  0  0  0  0  0  0  0  0  0  0  0
   56.6740   30.5790   44.7730 N   0  0  0  0  0  0  0  0  0  0  0  0
   57.4670   31.7310   45.0320 C   0  0  0  0  0  0  0  0  0  0  0  0
   57.7500   32.1520   46.3230 C   0  0  0  0  0  0  0  0  0  0  0  0
   58.5260   33.2800   46.4680 C   0  0  0  0  0  0  0  0  0  0  0  0
   59.0210   33.9880   45.3740 C   0  0  0  0  0  0  0  0  0  0  0  0
   58.7380   33.5660   44.1000 C   0  0  0  0  0  0  0  0  0  0  0  0
   57.9540   32.4270   43.9260 C   0  0  0  0  0  0  0  0  0  0  0  0
   57.6220   31.9330   42.5450 C   0  0  0  0  0  0  0  0  0  0  0  0
   56.1930   28.4260   45.3960 N   0  0  0  0  0  0  0  0  0  0  0  0
   56.6030   27.2090   45.8270 C   0  0  0  0  0  0  0  0  0  0  0  0
   55.7860   26.2320   46.0410 N   0  0  0  0  0  0  0  0  0  0  0  0
   57.9140   26.9760   46.0510 N   0  0  0  0  0  0  0  0  0  0  0  0
   60.4613   27.6872   47.1676 H   0  0  0  0  0  0  0  0  0  0  0  0
   60.5619   26.7602   45.6322 H   0  0  0  0  0  0  0  0  0  0  0  0
   60.8549   28.5325   45.6322 H   0  0  0  0  0  0  0  0  0  0  0  0
   59.1407   29.9867   45.2430 H   0  0  0  0  0  0  0  0  0  0  0  0
   57.3688   31.6052   47.1980 H   0  0  0  0  0  0  0  0  0  0  0  0
   58.7635   33.6346   47.4818 H   0  0  0  0  0  0  0  0  0  0  0  0
   59.6382   34.8846   45.5324 H   0  0  0  0  0  0  0  0  0  0  0  0
   59.1235   34.1175   43.2298 H   0  0  0  0  0  0  0  0  0  0  0  0
   57.0098   31.0221   42.6188 H   0  0  0  0  0  0  0  0  0  0  0  0
   57.0612   32.7088   42.0030 H   0  0  0  0  0  0  0  0  0  0  0  0
   58.5521   31.7068   42.0030 H   0  0  0  0  0  0  0  0  0  0  0  0
   55.1530   28.5600   45.2350 H   0  0  0  0  0  0  0  0  0  0  0  0
   55.1130   26.3050   46.8250 H   0  0  0  0  0  0  0  0  0  0  0  0
   58.2180   26.0350   46.3810 H   0  0  0  0  0  0  0  0  0  0  0  0
  1  2  1  0
  2  3  2  0
  3  4  1  0
  4  5  2  0
  5  6  1  0
  6  7  2  0
  7  8  1  0
  8  9  2  0
  9 10  1  0
 10 11  2  0
 11 12  1  0
  4 13  1  0
 13 14  1  0
 14 15  2  3
 14 16  1  0
 16  2  1  0
 11  6  1  0
  1 17  1  0
  1 18  1  0
  1 19  1  0
  3 20  1  0
  7 21  1  0
  8 22  1  0
  9 23  1  0
 10 24  1  0
 12 25  1  0
 12 26  1  0
 12 27  1  0
 13 28  1  0
 15 29  1  0
 16 30  1  0
M  END
>  <smiles>  (34) 
Cc1cc(=Nc2ccccc2C)[nH]c(=N)[nH]1

>  <score_type>  (34) 
oracle

>  <origin>  (34) 
adg

>  <m_score__min__energy>  (34) 
-7.1200000000000001

>  <m_primary>  (34) 
energy

$$$$
34:0
     RDKit          3D

 57 60  0  0  0  0  0  0  0  0999 V2000
   59.7562   34.0776   52.2143 H   0  0  0  0  0  0  0  0  0  0  0  0
   60.0260   33.2940   51.4910 C   0  0  0  0  0  0  0  0  0  0  0  0
   60.7330   32.2880   51.9260 N   0  0  0  0  0  0  0  0  0  0  0  0
   60.7270   30.9330   51.4550 C   0  0  0  0  0  0  0  0  0  0  0  0
   59.8690   30.1350   51.9180 O   0  0  0  0  0  0  0  0  0  0  0  0
   61.8200   30.3950   50.5670 C   0  0  0  0  0  0  0  0  0  0  0  0
   62.7981   30.6837   50.9793 H   0  0  0  0  0  0  0  0  0  0  0  0
   61.7393   29.2988   50.5230 H   0  0  0  0  0  0  0  0  0  0  0  0
   61.6850   30.9440   49.1990 N   0  0  0  0  0  0  0  0  0  0  0  0
   62.4800   31.9850   48.7660 C   0  0  0  0  0  0  0  0  0  0  0  0
   63.5380   32.5720   49.6270 C   0  0  0  0  0  0  0  0  0  0  0  0
   64.8130   31.9890   49.6770 C   0  0  0  0  0  0  0  0  0  0  0  0
   65.0343   31.0985   49.0703 H   0  0  0  0  0  0  0  0  0  0  0  0
   65.8010   32.5380   50.4960 C   0  0  0  0  0  0  0  0  0  0  0  0
   66.8015   32.0822   50.5309 H   0  0  0  0  0  0  0  0  0  0  0  0
   65.5200   33.6680   51.2730 C   0  0  0  0  0  0  0  0  0  0  0  0
   66.3029   34.1044   51.9107 H   0  0  0  0  0  0  0  0  0  0  0  0
   64.2480   34.2420   51.2400 C   0  0  0  0  0  0  0  0  0  0  0  0
   64.0269   35.1249   51.8578 H   0  0  0  0  0  0  0  0  0  0  0  0
   63.2550   33.6950   50.4220 C   0  0  0  0  0  0  0  0  0  0  0  0
   62.2512   34.1444   50.4009 H   0  0  0  0  0  0  0  0  0  0  0  0
   62.2870   32.5090   47.4770 C   0  0  0  0  0  0  0  0  0  0  0  0
   63.2900   33.8130   46.8390 Cl  0  0  0  0  0  0  0  0  0  0  0  0
   61.3170   31.9980   46.6840 N   0  0  0  0  0  0  0  0  0  0  0  0
   60.5090   30.9860   47.0810 C   0  0  0  0  0  0  0  0  0  0  0  0
   59.5990   30.5730   46.2380 N   0  0  0  0  0  0  0  0  0  0  0  0
   59.0560   29.2240   46.0630 C   0  0  0  0  0  0  0  0  0  0  0  0
   59.2154   28.7830   47.0580 H   0  0  0  0  0  0  0  0  0  0  0  0
   59.6110   28.5640   44.8070 C   0  0  0  0  0  0  0  0  0  0  0  0
   60.3477   29.1761   44.2660 H   0  0  0  0  0  0  0  0  0  0  0  0
   60.1831   27.6270   44.8764 H   0  0  0  0  0  0  0  0  0  0  0  0
   58.2170   28.5740   44.1870 C   0  0  0  0  0  0  0  0  0  0  0  0
   58.1336   29.1921   43.2809 H   0  0  0  0  0  0  0  0  0  0  0  0
   57.7728   27.6434   43.8041 H   0  0  0  0  0  0  0  0  0  0  0  0
   57.6600   29.2320   45.4400 C   0  0  0  0  0  0  0  0  0  0  0  0
   57.2480   30.2383   45.2738 H   0  0  0  0  0  0  0  0  0  0  0  0
   56.8091   28.7835   45.9736 H   0  0  0  0  0  0  0  0  0  0  0  0
   60.6980   30.4410   48.3760 C   0  0  0  0  0  0  0  0  0  0  0  0
   59.9650   29.4980   48.7840 O   0  0  0  0  0  0  0  0  0  0  0  0
   59.5600   33.4590   50.0960 C   0  0  0  0  0  0  0  0  0  0  0  0
   60.1150   34.4270   49.2390 C   0  0  0  0  0  0  0  0  0  0  0  0
   60.9114   35.0907   49.6067 H   0  0  0  0  0  0  0  0  0  0  0  0
   59.6610   34.5500   47.9250 C   0  0  0  0  0  0  0  0  0  0  0  0
   60.0741   35.3365   47.2763 H   0  0  0  0  0  0  0  0  0  0  0  0
   58.6780   33.6750   47.4230 C   0  0  0  0  0  0  0  0  0  0  0  0
   58.1250   33.8200   46.0160 C   0  0  0  0  0  0  0  0  0  0  0  0
   58.4584   34.7935   45.6272 H   0  0  0  0  0  0  0  0  0  0  0  0
   58.6450   32.7630   45.1390 N   0  0  0  0  0  0  0  0  0  0  0  0
   59.6450   32.5770   45.4010 H   0  0  0  0  0  0  0  0  0  0  0  0
   58.1100   31.8760   45.3050 H   0  0  0  0  0  0  0  0  0  0  0  0
   56.6580   33.8090   46.0150 N   0  0  0  0  0  0  0  0  0  0  0  0
   56.3310   33.8200   47.0080 H   0  0  0  0  0  0  0  0  0  0  0  0
   56.3040   34.6940   45.5800 H   0  0  0  0  0  0  0  0  0  0  0  0
   58.1450   32.6920   48.2760 C   0  0  0  0  0  0  0  0  0  0  0  0
   57.3702   32.0072   47.9008 H   0  0  0  0  0  0  0  0  0  0  0  0
   58.5900   32.5770   49.5950 C   0  0  0  0  0  0  0  0  0  0  0  0
   58.1779   31.7908   50.2447 H   0  0  0  0  0  0  0  0  0  0  0  0
  1  2  1  0
  2  3  2  3
  3  4  1  0
  4  5  2  0
  4  6  1  0
  6  7  1  0
  6  8  1  0
  6  9  1  0
  9 10  1  0
 10 11  1  0
 11 12  2  0
 12 13  1  0
 12 14  1  0
 14 15  1  0
 14 16  2  0
 16 17  1  0
 16 18  1  0
 18 19  1  0
 18 20  2  0
 20 21  1  0
 10 22  2  0
 22 23  1  0
 22 24  1  0
 24 25  1  0
 25 26  2  0
 26 27  1  0
 27 28  1  0
 27 29  1  0
 29 30  1  0
 29 31  1  0
 29 32  1  0
 32 33  1  0
 32 34  1  0
 32 35  1  0
 35 36  1  0
 35 37  1  0
 25 38  1  0
 38 39  2  0
  2 40  1  0
 40 41  2  0
 41 42  1  0
 41 43  1  0
 43 44  1  0
 43 45  2  0
 45 46  1  0
 46 47  1  0
 46 48  1  0
 48 49  1  0
 48 50  1  0
 46 51  1  0
 51 52  1  0
 51 53  1  0
 45 54  1  0
 54 55  1  0
 54 56  2  0
 56 57  1  0
 38  9  1  0
 56 40  1  0
 20 11  1  0
 35 27  1  0
M  CHG  1  24  -1
M  END
>  <UniqueID>  (35) 
33

>  <SMILES>  (35) 
NC(N)c1ccc(C=NC(=O)Cn2c(-c3ccccc3)c(Cl)[n-]/c(=N/C3CCC3)c2=O)cc1

>  <Energy>  (35) 
149.2571116938472

>  <Genealogy>  (35) 
NC(N)c1ccc(C=NC(=O)Cn2c(-c3ccccc3)c(Cl)[n-]c(=NC3CCC3)c2=O)cc1 (protonated)
NC(N)c1ccc(C=NC(=O)Cn2c(-c3ccccc3)c(Cl)[n-]/c(=N/C3CCC3)c2=O)cc1 (cis-trans isomerization)
NC(N)c1ccc(C=NC(=O)Cn2c(-c3ccccc3)c(Cl)[n-]/c(=N/C3CCC3)c2=O)cc1 (3D coordinates assigned)
NC(N)c1ccc(C=NC(=O)Cn2c(-c3ccccc3)c(Cl)[n-]/c(=N/C3CCC3)c2=O)cc1 (nonaromatic ring conformer: 149.2571116938472 kcal/mol)

>  <smiles>  (35) 
NC(N)c1ccc(C=NC(=O)Cn2c(-c3ccccc3)c(Cl)[nH]c(=NC3CCC3)c2=O)cc1

>  <score_type>  (35) 
oracle

>  <origin>  (35) 
adg

>  <m_score__min__energy>  (35) 
-10.91

>  <m_primary>  (35) 
energy

$$$$
35:0
     RDKit          3D

 53 57  0  0  0  0  0  0  0  0999 V2000
   55.1470   29.1010   44.4960 N   0  0  0  0  0  0  0  0  0  0  0  0
   56.4060   29.7570   44.3580 C   0  0  0  0  0  0  0  0  0  0  0  0
   56.7210   30.2520   43.2420 O   0  0  0  0  0  0  0  0  0  0  0  0
   57.3460   29.8150   45.5030 C   0  0  0  0  0  0  0  0  0  0  0  0
   57.5600   28.6460   46.2550 C   0  0  0  0  0  0  0  0  0  0  0  0
   58.4990   28.6200   47.2860 C   0  0  0  0  0  0  0  0  0  0  0  0
   59.2470   29.7620   47.5890 C   0  0  0  0  0  0  0  0  0  0  0  0
   60.2210   29.7310   48.6450 N   0  0  0  0  0  0  0  0  0  0  0  0
   60.2780   28.8440   49.6700 C   0  0  0  0  0  0  0  0  0  0  0  0
   61.2910   29.0930   50.5400 N   0  0  0  0  0  0  0  0  0  0  0  0
   61.8850   30.1800   50.0140 C   0  0  0  0  0  0  0  0  0  0  0  0
   63.0020   30.8530   50.5020 C   0  0  0  0  0  0  0  0  0  0  0  0
   63.4850   31.9660   49.7730 C   0  0  0  0  0  0  0  0  0  0  0  0
   64.6680   32.7220   50.2540 C   0  0  0  0  0  0  0  0  0  0  0  0
   65.9620   32.3890   49.8090 C   0  0  0  0  0  0  0  0  0  0  0  0
   67.0740   33.1030   50.2650 C   0  0  0  0  0  0  0  0  0  0  0  0
   66.9100   34.1560   51.1690 C   0  0  0  0  0  0  0  0  0  0  0  0
   65.6310   34.4950   51.6180 C   0  0  0  0  0  0  0  0  0  0  0  0
   64.5160   33.7860   51.1640 C   0  0  0  0  0  0  0  0  0  0  0  0
   62.8310   32.3470   48.5690 C   0  0  0  0  0  0  0  0  0  0  0  0
   61.7090   31.6390   48.1030 C   0  0  0  0  0  0  0  0  0  0  0  0
   61.2490   30.5680   48.8720 C   0  0  0  0  0  0  0  0  0  0  0  0
   59.0070   30.9450   46.8800 C   0  0  0  0  0  0  0  0  0  0  0  0
   58.0690   30.9920   45.8320 C   0  0  0  0  0  0  0  0  0  0  0  0
   57.7930   32.2380   45.1560 N   0  0  0  0  0  0  0  0  0  0  0  0
   58.1750   33.5840   45.6180 C   0  0  0  0  0  0  0  0  0  0  0  0
   57.9210   33.7880   47.1160 C   0  0  0  0  0  0  0  0  0  0  0  0
   59.2160   34.3450   47.7040 C   0  0  0  0  0  0  0  0  0  0  0  0
   60.0620   34.8030   46.5260 C   0  0  0  0  0  0  0  0  0  0  0  0
   59.6410   33.9370   45.3510 C   0  0  0  0  0  0  0  0  0  0  0  0
   54.4930   29.3500   45.2710 H   0  0  0  0  0  0  0  0  0  0  0  0
   56.9791   27.7401   46.0270 H   0  0  0  0  0  0  0  0  0  0  0  0
   58.6519   27.6965   47.8637 H   0  0  0  0  0  0  0  0  0  0  0  0
   59.5740   28.0066   49.7850 H   0  0  0  0  0  0  0  0  0  0  0  0
   63.4961   30.5283   51.4296 H   0  0  0  0  0  0  0  0  0  0  0  0
   66.0987   31.5612   49.0976 H   0  0  0  0  0  0  0  0  0  0  0  0
   68.0806   32.8353   49.9113 H   0  0  0  0  0  0  0  0  0  0  0  0
   67.7861   34.7169   51.5264 H   0  0  0  0  0  0  0  0  0  0  0  0
   65.5016   35.3225   52.3310 H   0  0  0  0  0  0  0  0  0  0  0  0
   63.5121   34.0609   51.5199 H   0  0  0  0  0  0  0  0  0  0  0  0
   63.2076   33.2064   47.9950 H   0  0  0  0  0  0  0  0  0  0  0  0
   61.2101   31.9196   47.1637 H   0  0  0  0  0  0  0  0  0  0  0  0
   59.5627   31.8559   47.1474 H   0  0  0  0  0  0  0  0  0  0  0  0
   57.3480   32.1900   44.2120 H   0  0  0  0  0  0  0  0  0  0  0  0
   57.5303   34.2499   45.0256 H   0  0  0  0  0  0  0  0  0  0  0  0
   57.0972   34.5009   47.2680 H   0  0  0  0  0  0  0  0  0  0  0  0
   57.6369   32.8436   47.6033 H   0  0  0  0  0  0  0  0  0  0  0  0
   58.9976   35.1942   48.3682 H   0  0  0  0  0  0  0  0  0  0  0  0
   59.7419   33.5848   48.3003 H   0  0  0  0  0  0  0  0  0  0  0  0
   59.8713   35.8640   46.3073 H   0  0  0  0  0  0  0  0  0  0  0  0
   61.1369   34.7033   46.7371 H   0  0  0  0  0  0  0  0  0  0  0  0
   59.7381   34.4936   44.4072 H   0  0  0  0  0  0  0  0  0  0  0  0
   60.2695   33.0393   45.2557 H   0  0  0  0  0  0  0  0  0  0  0  0
  1  2  1  0
  2  3  2  0
  2  4  1  0
  4  5  2  0
  5  6  1  0
  6  7  2  0
  7  8  1  0
  8  9  1  0
  9 10  2  0
 10 11  1  0
 11 12  2  0
 12 13  1  0
 13 14  1  0
 14 15  2  0
 15 16  1  0
 16 17  2  0
 17 18  1  0
 18 19  2  0
 13 20  2  0
 20 21  1  0
 21 22  2  0
  7 23  1  0
 23 24  2  0
 24 25  1  0
 25 26  1  0
 26 27  1  0
 27 28  1  0
 28 29  1  0
 29 30  1  0
 24  4  1  0
 30 26  1  0
 22  8  1  0
 22 11  1  0
 19 14  1  0
  1 31  1  0
  5 32  1  0
  6 33  1  0
  9 34  1  0
 12 35  1  0
 15 36  1  0
 16 37  1  0
 17 38  1  0
 18 39  1  0
 19 40  1  0
 20 41  1  0
 21 42  1  0
 23 43  1  0
 25 44  1  0
 26 45  1  0
 27 46  1  0
 27 47  1  0
 28 48  1  0
 28 49  1  0
 29 50  1  0
 29 51  1  0
 30 52  1  0
 30 53  1  0
M  CHG  1   1  -1
M  END
>  <UniqueID>  (36) 
34

>  <SMILES>  (36) 
[NH-]C(=O)c1ccc(-n2cnc3cc(-c4ccccc4)ccc32)cc1NC1CCCC1

>  <Energy>  (36) 
113.84499163476

>  <Genealogy>  (36) 
[NH-]C(=O)c1ccc(-n2cnc3cc(-c4ccccc4)ccc32)cc1NC1CCCC1 (protonated)
[NH-]C(=O)c1ccc(-n2cnc3cc(-c4ccccc4)ccc32)cc1NC1CCCC1 (3D coordinates assigned)
[NH-]C(=O)c1ccc(-n2cnc3cc(-c4ccccc4)ccc32)cc1NC1CCCC1 (nonaromatic ring conformer: 113.84499163476 kcal/mol)

>  <smiles>  (36) 
NC(=O)c1ccc(-n2cnc3cc(-c4ccccc4)ccc32)cc1NC1CCCC1

>  <score_type>  (36) 
oracle

>  <origin>  (36) 
adg

>  <m_score__min__energy>  (36) 
-12.029999999999999

>  <m_primary>  (36) 
energy

$$$$
36:0
     RDKit          3D

 40 42  0  0  0  0  0  0  0  0999 V2000
   58.1920   28.1140   46.9840 C   0  0  0  0  0  0  0  0  0  0  0  0
   58.1190   29.1350   45.8500 C   0  0  2  0  0  0  0  0  0  0  0  0
   58.1740   30.5680   46.3970 C   0  0  0  0  0  0  0  0  0  0  0  0
   57.7210   31.5160   45.3740 N   0  0  0  0  0  0  0  0  0  0  0  0
   57.7660   32.9240   45.6560 C   0  0  0  0  0  0  0  0  0  0  0  0
   56.8400   33.6720   45.2400 O   0  0  0  0  0  0  0  0  0  0  0  0
   58.8650   33.5080   46.4430 C   0  0  0  0  0  0  0  0  0  0  0  0
   59.9950   32.8540   46.8970 C   0  0  0  0  0  0  0  0  0  0  0  0
   60.6750   33.8250   47.6180 C   0  0  0  0  0  0  0  0  0  0  0  0
   61.9650   33.6780   48.3320 C   0  0  0  0  0  0  0  0  0  0  0  0
   63.0950   33.2170   47.6350 C   0  0  0  0  0  0  0  0  0  0  0  0
   64.3220   33.0720   48.2920 C   0  0  0  0  0  0  0  0  0  0  0  0
   64.4320   33.3810   49.6500 C   0  0  0  0  0  0  0  0  0  0  0  0
   65.9700   33.1970   50.4720 Cl  0  0  0  0  0  0  0  0  0  0  0  0
   63.3130   33.8390   50.3530 C   0  0  0  0  0  0  0  0  0  0  0  0
   62.0850   33.9870   49.7000 C   0  0  0  0  0  0  0  0  0  0  0  0
   59.9780   34.9390   47.5820 O   0  0  0  0  0  0  0  0  0  0  0  0
   58.8890   34.7760   46.8920 N   0  0  0  0  0  0  0  0  0  0  0  0
   57.5750   31.0720   43.9840 C   0  0  0  0  0  0  0  0  0  0  0  0
   56.9390   29.6510   43.9040 C   0  0  2  0  0  0  0  0  0  0  0  0
   55.5090   29.7300   43.3690 C   0  0  0  0  0  0  0  0  0  0  0  0
   56.9050   28.9660   45.1490 O   0  0  0  0  0  0  0  0  0  0  0  0
   58.1546   28.6368   47.9511 H   0  0  0  0  0  0  0  0  0  0  0  0
   57.3411   27.4209   46.9087 H   0  0  0  0  0  0  0  0  0  0  0  0
   59.1328   27.5490   46.9087 H   0  0  0  0  0  0  0  0  0  0  0  0
   58.9787   28.9737   45.1829 H   0  0  0  0  0  0  0  0  0  0  0  0
   57.5218   30.6458   47.2794 H   0  0  0  0  0  0  0  0  0  0  0  0
   59.2109   30.8073   46.6755 H   0  0  0  0  0  0  0  0  0  0  0  0
   60.2871   31.8073   46.7264 H   0  0  0  0  0  0  0  0  0  0  0  0
   63.0144   32.9686   46.5664 H   0  0  0  0  0  0  0  0  0  0  0  0
   65.2021   32.7138   47.7378 H   0  0  0  0  0  0  0  0  0  0  0  0
   63.3989   34.0834   51.4221 H   0  0  0  0  0  0  0  0  0  0  0  0
   61.2083   34.3468   50.2585 H   0  0  0  0  0  0  0  0  0  0  0  0
   58.1710   35.5160   46.7270 H   0  0  0  0  0  0  0  0  0  0  0  0
   56.9302   31.7833   43.4470 H   0  0  0  0  0  0  0  0  0  0  0  0
   58.5749   31.0297   43.5275 H   0  0  0  0  0  0  0  0  0  0  0  0
   57.5896   29.0830   43.2227 H   0  0  0  0  0  0  0  0  0  0  0  0
   54.8037   29.7690   44.2122 H   0  0  0  0  0  0  0  0  0  0  0  0
   55.3968   30.6357   42.7549 H   0  0  0  0  0  0  0  0  0  0  0  0
   55.2977   28.8422   42.7549 H   0  0  0  0  0  0  0  0  0  0  0  0
  1  2  1  0
  2  3  1  0
  3  4  1  0
  4  5  1  0
  5  6  2  0
  5  7  1  0
  7  8  1  0
  8  9  2  0
  9 10  1  0
 10 11  2  0
 11 12  1  0
 12 13  2  0
 13 14  1  0
 13 15  1  0
 15 16  2  0
  9 17  1  0
 17 18  1  0
  4 19  1  0
 19 20  1  0
 20 21  1  0
 20 22  1  0
 22  2  1  0
 18  7  2  0
 16 10  1  0
  1 23  1  0
  1 24  1  0
  1 25  1  0
  2 26  1  6
  3 27  1  0
  3 28  1  0
  8 29  1  0
 11 30  1  0
 12 31  1  0
 15 32  1  0
 16 33  1  0
 18 34  1  0
 19 35  1  0
 19 36  1  0
 20 37  1  6
 21 38  1  0
 21 39  1  0
 21 40  1  0
M  CHG  1  18   1
M  END
>  <UniqueID>  (37) 
35

>  <SMILES>  (37) 
C[C@@H]1CN(C(=O)c2cc(-c3ccc(Cl)cc3)o[nH+]2)C[C@H](C)O1

>  <Energy>  (37) 
78.76067391764593

>  <Genealogy>  (37) 
CC1CN(C(=O)c2cc(-c3ccc(Cl)cc3)o[nH+]2)CC(C)O1 (protonated)
C[C@@H]1CN(C(=O)c2cc(-c3ccc(Cl)cc3)o[nH+]2)C[C@H](C)O1 (chirality)
C[C@@H]1CN(C(=O)c2cc(-c3ccc(Cl)cc3)o[nH+]2)C[C@H](C)O1 (3D coordinates assigned)
C[C@@H]1CN(C(=O)c2cc(-c3ccc(Cl)cc3)o[nH+]2)C[C@H](C)O1 (nonaromatic ring conformer: 78.76067391764593 kcal/mol)

>  <smiles>  (37) 
CC1CN(C(=O)c2cc(-c3ccc(Cl)cc3)on2)CC(C)O1

>  <score_type>  (37) 
oracle

>  <origin>  (37) 
adg

>  <m_score__min__energy>  (37) 
-6.3700000000000001

>  <m_primary>  (37) 
energy

$$$$
37:0
     RDKit          3D

 39 40  0  0  0  0  0  0  0  0999 V2000
   55.5230   29.6950   44.5080 C   0  0  0  0  0  0  0  0  0  0  0  0
   56.1240   30.1530   43.1820 C   0  0  0  0  0  0  0  0  0  0  0  0
   57.5520   30.4400   43.3300 N   0  0  0  0  0  0  0  0  0  0  0  0
   58.0990   31.4700   44.1850 C   0  0  0  0  0  0  0  0  0  0  0  0
   58.1650   32.8110   43.7560 C   0  0  0  0  0  0  0  0  0  0  0  0
   58.6860   33.8020   44.5890 C   0  0  0  0  0  0  0  0  0  0  0  0
   59.1450   33.4790   45.8700 C   0  0  0  0  0  0  0  0  0  0  0  0
   59.8340   34.7190   46.9150 S   0  0  0  0  0  0  0  0  0  0  0  0
   59.9580   36.0150   46.1600 O   0  0  0  0  0  0  0  0  0  0  0  0
   58.9110   34.9340   48.0820 O   0  0  0  0  0  0  0  0  0  0  0  0
   61.4000   34.2060   47.4900 N   0  0  0  0  0  0  0  0  0  0  0  0
   61.2350   33.1630   48.5270 C   0  0  0  0  0  0  0  0  0  0  0  0
   62.5540   32.4200   48.8360 C   0  0  0  0  0  0  0  0  0  0  0  0
   63.7710   33.1940   48.3230 C   0  0  0  0  0  0  0  0  0  0  0  0
   63.6600   33.4590   46.8130 C   0  0  0  0  0  0  0  0  0  0  0  0
   62.2060   33.7070   46.3650 C   0  0  0  0  0  0  0  0  0  0  0  0
   59.0880   32.1530   46.3090 C   0  0  0  0  0  0  0  0  0  0  0  0
   58.5660   31.1500   45.4810 C   0  0  0  0  0  0  0  0  0  0  0  0
   58.5440   29.7950   45.9760 C   0  0  0  0  0  0  0  0  0  0  0  0
   58.5260   28.7080   46.3730 N   0  0  0  0  0  0  0  0  0  0  0  0
   56.0953   30.1311   45.3400 H   0  0  0  0  0  0  0  0  0  0  0  0
   54.4759   30.0262   44.5698 H   0  0  0  0  0  0  0  0  0  0  0  0
   55.5647   28.5975   44.5698 H   0  0  0  0  0  0  0  0  0  0  0  0
   55.9916   29.3588   42.4326 H   0  0  0  0  0  0  0  0  0  0  0  0
   55.6111   31.0717   42.8610 H   0  0  0  0  0  0  0  0  0  0  0  0
   58.2020   29.8470   42.7670 H   0  0  0  0  0  0  0  0  0  0  0  0
   57.8017   33.0795   42.7531 H   0  0  0  0  0  0  0  0  0  0  0  0
   58.7359   34.8427   44.2362 H   0  0  0  0  0  0  0  0  0  0  0  0
   60.8735   33.6384   49.4507 H   0  0  0  0  0  0  0  0  0  0  0  0
   60.5168   32.4228   48.1444 H   0  0  0  0  0  0  0  0  0  0  0  0
   62.6452   32.2925   49.9248 H   0  0  0  0  0  0  0  0  0  0  0  0
   62.5269   31.4453   48.3269 H   0  0  0  0  0  0  0  0  0  0  0  0
   63.8350   34.1557   48.8531 H   0  0  0  0  0  0  0  0  0  0  0  0
   64.6724   32.5911   48.5073 H   0  0  0  0  0  0  0  0  0  0  0  0
   64.2622   34.3454   46.5647 H   0  0  0  0  0  0  0  0  0  0  0  0
   64.0246   32.5639   46.2878 H   0  0  0  0  0  0  0  0  0  0  0  0
   62.1983   34.4517   45.5554 H   0  0  0  0  0  0  0  0  0  0  0  0
   61.7754   32.7587   46.0109 H   0  0  0  0  0  0  0  0  0  0  0  0
   59.4560   31.8947   47.3129 H   0  0  0  0  0  0  0  0  0  0  0  0
  1  2  1  0
  2  3  1  0
  3  4  1  0
  4  5  2  0
  5  6  1  0
  6  7  2  0
  7  8  1  0
  8  9  2  0
  8 10  2  0
  8 11  1  0
 11 12  1  0
 12 13  1  0
 13 14  1  0
 14 15  1  0
 15 16  1  0
  7 17  1  0
 17 18  2  0
 18 19  1  0
 19 20  3  0
 18  4  1  0
 16 11  1  0
  1 21  1  0
  1 22  1  0
  1 23  1  0
  2 24  1  0
  2 25  1  0
  3 26  1  0
  5 27  1  0
  6 28  1  0
 12 29  1  0
 12 30  1  0
 13 31  1  0
 13 32  1  0
 14 33  1  0
 14 34  1  0
 15 35  1  0
 15 36  1  0
 16 37  1  0
 16 38  1  0
 17 39  1  0
M  END
>  <UniqueID>  (38) 
36

>  <SMILES>  (38) 
CCNc1ccc(S(=O)(=O)N2CCCCC2)cc1C#N

>  <Energy>  (38) 
38.41963787741575

>  <Genealogy>  (38) 
CCNc1ccc(S(=O)(=O)N2CCCCC2)cc1C#N (3D coordinates assigned)
CCNc1ccc(S(=O)(=O)N2CCCCC2)cc1C#N (nonaromatic ring conformer: 38.41963787741575 kcal/mol)

>  <smiles>  (38) 
CCNc1ccc(S(=O)(=O)N2CCCCC2)cc1C#N

>  <score_type>  (38) 
oracle

>  <origin>  (38) 
adg

>  <m_score__min__energy>  (38) 
-7.3899999999999997

>  <m_primary>  (38) 
energy

$$$$
38:0
     RDKit          3D

 28 29  0  0  0  0  0  0  0  0999 V2000
   59.0290   34.9240   44.8970 C   0  0  0  0  0  0  0  0  0  0  0  0
   58.6390   33.7840   44.9160 C   0  0  0  0  0  0  0  0  0  0  0  0
   58.1730   32.4220   44.9400 C   0  0  0  0  0  0  0  0  0  0  0  0
   57.4070   31.9230   43.8790 C   0  0  0  0  0  0  0  0  0  0  0  0
   56.9540   30.6000   43.9020 C   0  0  0  0  0  0  0  0  0  0  0  0
   57.2760   29.7580   44.9810 C   0  0  0  0  0  0  0  0  0  0  0  0
   56.8020   28.4020   45.0430 N   0  0  0  0  0  0  0  0  0  0  0  0
   57.5940   27.2890   45.4950 C   0  0  0  0  0  0  0  0  0  0  0  0
   58.7780   27.4700   45.8930 O   0  0  0  0  0  0  0  0  0  0  0  0
   57.0420   25.9180   45.4980 C   0  0  0  0  0  0  0  0  0  0  0  0
   57.9090   24.8290   45.3000 C   0  0  0  0  0  0  0  0  0  0  0  0
   57.4140   23.5210   45.2890 C   0  0  0  0  0  0  0  0  0  0  0  0
   58.5040   22.1720   45.0250 Cl  0  0  0  0  0  0  0  0  0  0  0  0
   56.0510   23.2880   45.4860 C   0  0  0  0  0  0  0  0  0  0  0  0
   55.1830   24.3600   45.7050 C   0  0  0  0  0  0  0  0  0  0  0  0
   55.6710   25.6710   45.7230 C   0  0  0  0  0  0  0  0  0  0  0  0
   54.7910   26.7130   45.9960 O   0  0  0  0  0  0  0  0  0  0  0  0
   58.0220   30.2730   46.0520 C   0  0  0  0  0  0  0  0  0  0  0  0
   58.4760   31.5950   46.0280 C   0  0  0  0  0  0  0  0  0  0  0  0
   59.3850   35.9647   44.8797 H   0  0  0  0  0  0  0  0  0  0  0  0
   57.1612   32.5727   43.0261 H   0  0  0  0  0  0  0  0  0  0  0  0
   56.3428   30.2163   43.0718 H   0  0  0  0  0  0  0  0  0  0  0  0
   55.8020   28.2350   44.7870 H   0  0  0  0  0  0  0  0  0  0  0  0
   58.9844   25.0071   45.1527 H   0  0  0  0  0  0  0  0  0  0  0  0
   55.6610   22.2596   45.4686 H   0  0  0  0  0  0  0  0  0  0  0  0
   54.1108   24.1727   45.8641 H   0  0  0  0  0  0  0  0  0  0  0  0
   58.2511   29.6323   46.9163 H   0  0  0  0  0  0  0  0  0  0  0  0
   59.0724   31.9860   46.8655 H   0  0  0  0  0  0  0  0  0  0  0  0
  1  2  3  0
  2  3  1  0
  3  4  2  0
  4  5  1  0
  5  6  2  0
  6  7  1  0
  7  8  1  0
  8  9  2  0
  8 10  1  0
 10 11  2  0
 11 12  1  0
 12 13  1  0
 12 14  2  0
 14 15  1  0
 15 16  2  0
 16 17  1  0
  6 18  1  0
 18 19  2  0
 19  3  1  0
 16 10  1  0
  1 20  1  0
  4 21  1  0
  5 22  1  0
  7 23  1  0
 11 24  1  0
 14 25  1  0
 15 26  1  0
 18 27  1  0
 19 28  1  0
M  CHG  1  17  -1
M  END
>  <UniqueID>  (39) 
37

>  <SMILES>  (39) 
C#Cc1ccc(NC(=O)c2cc(Cl)ccc2[O-])cc1

>  <Energy>  (39) 
35.87799632597673

>  <Genealogy>  (39) 
C#Cc1ccc(NC(=O)c2cc(Cl)ccc2[O-])cc1 (protonated)
C#Cc1ccc(NC(=O)c2cc(Cl)ccc2[O-])cc1 (3D coordinates assigned)
C#Cc1ccc(NC(=O)c2cc(Cl)ccc2[O-])cc1 (optimized conformer: 35.87799632597673 kcal/mol)

>  <smiles>  (39) 
C#Cc1ccc(NC(=O)c2cc(Cl)ccc2O)cc1

>  <score_type>  (39) 
oracle

>  <origin>  (39) 
adg

>  <m_score__min__energy>  (39) 
-10.91

>  <m_primary>  (39) 
energy

$$$$
39:0
     RDKit          3D

 44 46  0  0  0  0  0  0  0  0999 V2000
   55.6170   26.6710   45.9860 N   0  0  0  0  0  0  0  0  0  0  0  0
   56.6280   25.7500   46.5020 C   0  0  0  0  0  0  0  0  0  0  0  0
   57.9970   26.4400   46.6280 C   0  0  0  0  0  0  0  0  0  0  0  0
   58.7440   26.5300   45.2870 C   0  0  0  0  0  0  0  0  0  0  0  0
   58.0240   27.3930   44.2380 C   0  0  0  0  0  0  0  0  0  0  0  0
   57.1810   28.3690   44.8510 O   0  0  0  0  0  0  0  0  0  0  0  0
   57.5840   29.6420   45.2850 C   0  0  0  0  0  0  0  0  0  0  0  0
   58.1480   29.8720   46.5710 C   0  0  0  0  0  0  0  0  0  0  0  0
   58.5330   31.1650   46.9650 C   0  0  0  0  0  0  0  0  0  0  0  0
   58.3510   32.2100   46.0580 C   0  0  0  0  0  0  0  0  0  0  0  0
   57.8150   31.9890   44.8170 C   0  0  0  0  0  0  0  0  0  0  0  0
   57.7520   33.2040   44.1660 C   0  0  0  0  0  0  0  0  0  0  0  0
   58.2630   34.1300   45.0680 C   0  0  0  0  0  0  0  0  0  0  0  0
   58.6360   33.5190   46.2180 N   0  0  0  0  0  0  0  0  0  0  0  0
   59.1460   34.1870   47.4170 C   0  0  0  0  0  0  0  0  0  0  0  0
   60.6320   33.9830   47.5330 C   0  0  0  0  0  0  0  0  0  0  0  0
   61.4270   33.8330   46.3840 C   0  0  0  0  0  0  0  0  0  0  0  0
   62.8030   33.6150   46.5040 C   0  0  0  0  0  0  0  0  0  0  0  0
   63.3940   33.5430   47.7680 C   0  0  0  0  0  0  0  0  0  0  0  0
   62.6100   33.6890   48.9150 C   0  0  0  0  0  0  0  0  0  0  0  0
   61.2330   33.9070   48.8000 C   0  0  0  0  0  0  0  0  0  0  0  0
   57.4220   30.7210   44.3960 C   0  0  0  0  0  0  0  0  0  0  0  0
   55.7060   26.7220   44.9450 H   0  0  0  0  0  0  0  0  0  0  0  0
   55.8020   27.6260   46.3690 H   0  0  0  0  0  0  0  0  0  0  0  0
   56.3142   25.3917   47.4936 H   0  0  0  0  0  0  0  0  0  0  0  0
   56.7250   24.9098   45.7987 H   0  0  0  0  0  0  0  0  0  0  0  0
   57.8431   27.4586   47.0137 H   0  0  0  0  0  0  0  0  0  0  0  0
   58.6119   25.8343   47.3099 H   0  0  0  0  0  0  0  0  0  0  0  0
   59.7380   26.9636   45.4711 H   0  0  0  0  0  0  0  0  0  0  0  0
   58.8014   25.5094   44.8807 H   0  0  0  0  0  0  0  0  0  0  0  0
   58.7759   27.9071   43.6213 H   0  0  0  0  0  0  0  0  0  0  0  0
   57.3957   26.7333   43.6215 H   0  0  0  0  0  0  0  0  0  0  0  0
   58.2841   29.0288   47.2642 H   0  0  0  0  0  0  0  0  0  0  0  0
   58.9654   31.3481   47.9597 H   0  0  0  0  0  0  0  0  0  0  0  0
   57.3774   33.3983   43.1502 H   0  0  0  0  0  0  0  0  0  0  0  0
   58.3521   35.2092   44.8748 H   0  0  0  0  0  0  0  0  0  0  0  0
   58.9310   35.2638   47.3522 H   0  0  0  0  0  0  0  0  0  0  0  0
   58.6546   33.7586   48.3030 H   0  0  0  0  0  0  0  0  0  0  0  0
   60.9654   33.8872   45.3870 H   0  0  0  0  0  0  0  0  0  0  0  0
   63.4213   33.5000   45.6015 H   0  0  0  0  0  0  0  0  0  0  0  0
   64.4766   33.3713   47.8600 H   0  0  0  0  0  0  0  0  0  0  0  0
   63.0760   33.6325   49.9098 H   0  0  0  0  0  0  0  0  0  0  0  0
   60.6186   34.0193   49.7055 H   0  0  0  0  0  0  0  0  0  0  0  0
   56.9957   30.5667   43.3938 H   0  0  0  0  0  0  0  0  0  0  0  0
  1  2  1  0
  2  3  1  0
  3  4  1  0
  4  5  1  0
  5  6  1  0
  6  7  1  0
  7  8  2  0
  8  9  1  0
  9 10  2  0
 10 11  1  0
 11 12  1  0
 12 13  2  0
 13 14  1  0
 14 15  1  0
 15 16  1  0
 16 17  2  0
 17 18  1  0
 18 19  2  0
 19 20  1  0
 20 21  2  0
 11 22  2  0
 22  7  1  0
 14 10  1  0
 21 16  1  0
  1 23  1  0
  1 24  1  0
  2 25  1  0
  2 26  1  0
  3 27  1  0
  3 28  1  0
  4 29  1  0
  4 30  1  0
  5 31  1  0
  5 32  1  0
  8 33  1  0
  9 34  1  0
 12 35  1  0
 13 36  1  0
 15 37  1  0
 15 38  1  0
 17 39  1  0
 18 40  1  0
 19 41  1  0
 20 42  1  0
 21 43  1  0
 22 44  1  0
M  END
>  <UniqueID>  (40) 
38

>  <SMILES>  (40) 
NCCCCOc1ccc2c(ccn2Cc2ccccc2)c1

>  <Energy>  (40) 
72.25191207336957

>  <Genealogy>  (40) 
NCCCCOc1ccc2c(ccn2Cc2ccccc2)c1 (3D coordinates assigned)
NCCCCOc1ccc2c(ccn2Cc2ccccc2)c1 (optimized conformer: 72.25191207336957 kcal/mol)

>  <smiles>  (40) 
NCCCCOc1ccc2c(ccn2Cc2ccccc2)c1

>  <score_type>  (40) 
oracle

>  <origin>  (40) 
adg

>  <m_score__min__energy>  (40) 
-8.1999999999999993

>  <m_primary>  (40) 
energy

$$$$
40:0
     RDKit          3D

 52 56  0  0  1  0  0  0  0  0999 V2000
   62.8290   34.2180   49.2490 C   0  0  0  0  0  0  0  0  0  0  0  0
   62.1700   33.0840   48.6630 N   0  0  0  0  0  0  0  0  0  0  0  0
   61.2060   32.4780   49.5350 C   0  0  0  0  0  0  0  0  0  0  0  0
   60.9560   31.0140   49.2640 C   0  0  0  0  0  0  0  0  0  0  0  0
   61.0960   30.7300   47.8480 N   0  0  0  0  0  0  0  0  0  0  0  0
   60.1200   29.9490   47.1680 C   0  0  0  0  0  0  0  0  0  0  0  0
   59.0250   30.5690   46.6850 N   0  0  0  0  0  0  0  0  0  0  0  0
   58.1050   29.8000   46.0380 C   0  0  0  0  0  0  0  0  0  0  0  0
   57.0270   30.3390   45.5500 N   0  0  0  0  0  0  0  0  0  0  0  0
   57.0510   31.4970   44.7280 C   0  0  2  0  0  0  0  0  0  0  0  0
   57.7040   31.3190   43.3840 C   0  0  0  0  0  0  0  0  0  0  0  0
   58.1710   32.7100   42.9770 C   0  0  0  0  0  0  0  0  0  0  0  0
   58.3870   33.3610   44.2890 C   0  0  0  0  0  0  0  0  0  0  0  0
   59.0870   34.4940   44.6690 C   0  0  0  0  0  0  0  0  0  0  0  0
   59.1510   34.9200   45.9820 C   0  0  0  0  0  0  0  0  0  0  0  0
   58.5030   34.2120   46.9770 C   0  0  0  0  0  0  0  0  0  0  0  0
   57.7970   33.0800   46.6280 C   0  0  0  0  0  0  0  0  0  0  0  0
   57.7460   32.6690   45.2970 C   0  0  0  0  0  0  0  0  0  0  0  0
   58.2970   28.4380   45.8900 C   0  0  0  0  0  0  0  0  0  0  0  0
   57.3710   27.6630   45.2400 C   0  0  0  0  0  0  0  0  0  0  0  0
   57.6200   26.3080   45.1230 C   0  0  0  0  0  0  0  0  0  0  0  0
   58.7670   25.7240   45.6420 C   0  0  0  0  0  0  0  0  0  0  0  0
   59.6900   26.5050   46.2920 C   0  0  0  0  0  0  0  0  0  0  0  0
   59.4320   27.8460   46.4010 C   0  0  0  0  0  0  0  0  0  0  0  0
   60.3140   28.6250   47.0290 N   0  0  0  0  0  0  0  0  0  0  0  0
   62.2470   31.2540   47.1320 C   0  0  0  0  0  0  0  0  0  0  0  0
   63.0590   32.1560   48.0080 C   0  0  0  0  0  0  0  0  0  0  0  0
   62.7846   34.1417   50.3455 H   0  0  0  0  0  0  0  0  0  0  0  0
   63.8800   34.2391   48.9251 H   0  0  0  0  0  0  0  0  0  0  0  0
   62.3269   35.1416   48.9251 H   0  0  0  0  0  0  0  0  0  0  0  0
   61.5653   32.5803   50.5696 H   0  0  0  0  0  0  0  0  0  0  0  0
   60.2525   32.9978   49.3598 H   0  0  0  0  0  0  0  0  0  0  0  0
   61.6834   30.4117   49.8280 H   0  0  0  0  0  0  0  0  0  0  0  0
   59.9323   30.7629   49.5785 H   0  0  0  0  0  0  0  0  0  0  0  0
   55.9678   31.6677   44.6414 H   0  0  0  0  0  0  0  0  0  0  0  0
   58.5597   30.6319   43.4593 H   0  0  0  0  0  0  0  0  0  0  0  0
   57.0125   30.8863   42.6461 H   0  0  0  0  0  0  0  0  0  0  0  0
   59.1038   32.6638   42.3958 H   0  0  0  0  0  0  0  0  0  0  0  0
   57.4596   33.2439   42.3298 H   0  0  0  0  0  0  0  0  0  0  0  0
   59.6114   35.0763   43.8971 H   0  0  0  0  0  0  0  0  0  0  0  0
   59.7200   35.8263   46.2366 H   0  0  0  0  0  0  0  0  0  0  0  0
   58.5495   34.5445   48.0245 H   0  0  0  0  0  0  0  0  0  0  0  0
   57.2728   32.5000   47.4018 H   0  0  0  0  0  0  0  0  0  0  0  0
   56.4551   28.1072   44.8231 H   0  0  0  0  0  0  0  0  0  0  0  0
   56.8869   25.6738   44.6029 H   0  0  0  0  0  0  0  0  0  0  0  0
   58.9354   24.6424   45.5332 H   0  0  0  0  0  0  0  0  0  0  0  0
   60.6078   26.0679   46.7121 H   0  0  0  0  0  0  0  0  0  0  0  0
   61.1830   28.2060   47.4250 H   0  0  0  0  0  0  0  0  0  0  0  0
   62.8756   30.4151   46.7986 H   0  0  0  0  0  0  0  0  0  0  0  0
   61.8883   31.8339   46.2688 H   0  0  0  0  0  0  0  0  0  0  0  0
   63.5922   31.5585   48.7621 H   0  0  0  0  0  0  0  0  0  0  0  0
   63.7953   32.7048   47.4024 H   0  0  0  0  0  0  0  0  0  0  0  0
  1  2  1  0
  2  3  1  0
  3  4  1  0
  4  5  1  0
  5  6  1  0
  6  7  2  0
  7  8  1  0
  8  9  2  0
  9 10  1  0
 10 11  1  0
 11 12  1  0
 12 13  1  0
 13 14  2  0
 14 15  1  0
 15 16  2  0
 16 17  1  0
 17 18  2  0
  8 19  1  0
 19 20  2  0
 20 21  1  0
 21 22  2  0
 22 23  1  0
 23 24  2  0
 24 25  1  0
  5 26  1  0
 26 27  1  0
 27  2  1  0
 25  6  1  0
 18 10  1  0
 24 19  1  0
 18 13  1  0
  1 28  1  0
  1 29  1  0
  1 30  1  0
  3 31  1  0
  3 32  1  0
  4 33  1  0
  4 34  1  0
 10 35  1  6
 11 36  1  0
 11 37  1  0
 12 38  1  0
 12 39  1  0
 14 40  1  0
 15 41  1  0
 16 42  1  0
 17 43  1  0
 20 44  1  0
 21 45  1  0
 22 46  1  0
 23 47  1  0
 25 48  1  0
 26 49  1  0
 26 50  1  0
 27 51  1  0
 27 52  1  0
M  END
>  <smiles>  (41) 
CN1CCN(c2nc(=NC3CCc4ccccc43)c3ccccc3[nH]2)CC1

>  <score_type>  (41) 
oracle

>  <origin>  (41) 
adg

>  <m_score__min__energy>  (41) 
-8.7799999999999994

>  <m_primary>  (41) 
energy

$$$$
41:0
     RDKit          3D

 43 46  0  0  0  0  0  0  0  0999 V2000
   53.9640   25.1950   45.6260 C   0  0  0  0  0  0  0  0  0  0  0  0
   54.8970   26.2640   45.9550 N   0  0  0  0  0  0  0  0  0  0  0  0
   56.3120   26.1790   45.7590 C   0  0  0  0  0  0  0  0  0  0  0  0
   56.8100   25.1050   45.3330 O   0  0  0  0  0  0  0  0  0  0  0  0
   57.2060   27.3020   46.0830 C   0  0  0  0  0  0  0  0  0  0  0  0
   58.6270   27.1260   46.9790 S   0  0  0  0  0  0  0  0  0  0  0  0
   59.0380   28.7480   46.8950 C   0  0  0  0  0  0  0  0  0  0  0  0
   60.1270   29.3360   47.4390 N   0  0  0  0  0  0  0  0  0  0  0  0
   60.3130   30.6740   47.2710 C   0  0  0  0  0  0  0  0  0  0  0  0
   59.4130   31.4270   46.5540 N   0  0  0  0  0  0  0  0  0  0  0  0
   59.6380   32.8780   46.4240 C   0  0  0  0  0  0  0  0  0  0  0  0
   60.8960   33.2910   47.1670 C   0  0  0  0  0  0  0  0  0  0  0  0
   62.0540   33.4820   46.3900 C   0  0  0  0  0  0  0  0  0  0  0  0
   63.2690   33.8260   46.9780 C   0  0  0  0  0  0  0  0  0  0  0  0
   63.3600   33.9870   48.3550 C   0  0  0  0  0  0  0  0  0  0  0  0
   62.2300   33.8110   49.1650 C   0  0  0  0  0  0  0  0  0  0  0  0
   62.3440   33.9810   50.5540 C   0  0  0  0  0  0  0  0  0  0  0  0
   61.2320   33.8150   51.3760 C   0  0  0  0  0  0  0  0  0  0  0  0
   59.9980   33.4820   50.8230 C   0  0  0  0  0  0  0  0  0  0  0  0
   59.8650   33.3080   49.4430 C   0  0  0  0  0  0  0  0  0  0  0  0
   60.9780   33.4620   48.5820 C   0  0  0  0  0  0  0  0  0  0  0  0
   58.3030   30.8330   45.9950 C   0  0  0  0  0  0  0  0  0  0  0  0
   57.4740   31.5160   45.3370 O   0  0  0  0  0  0  0  0  0  0  0  0
   58.1030   29.4550   46.1680 C   0  0  0  0  0  0  0  0  0  0  0  0
   57.0530   28.6410   45.6870 C   0  0  0  0  0  0  0  0  0  0  0  0
   55.9470   29.1340   44.7950 C   0  0  0  0  0  0  0  0  0  0  0  0
   53.5751   24.7494   46.5535 H   0  0  0  0  0  0  0  0  0  0  0  0
   53.1295   25.6047   45.0380 H   0  0  0  0  0  0  0  0  0  0  0  0
   54.4828   24.4236   45.0380 H   0  0  0  0  0  0  0  0  0  0  0  0
   60.8170   28.7730   47.9840 H   0  0  0  0  0  0  0  0  0  0  0  0
   61.1949   31.1593   47.7146 H   0  0  0  0  0  0  0  0  0  0  0  0
   59.7463   33.1334   45.3595 H   0  0  0  0  0  0  0  0  0  0  0  0
   58.7786   33.4109   46.8570 H   0  0  0  0  0  0  0  0  0  0  0  0
   61.9985   33.3573   45.2985 H   0  0  0  0  0  0  0  0  0  0  0  0
   64.1601   33.9708   46.3495 H   0  0  0  0  0  0  0  0  0  0  0  0
   64.3243   34.2541   48.8119 H   0  0  0  0  0  0  0  0  0  0  0  0
   63.3161   34.2465   50.9951 H   0  0  0  0  0  0  0  0  0  0  0  0
   61.3286   33.9471   52.4638 H   0  0  0  0  0  0  0  0  0  0  0  0
   59.1225   33.3552   51.4767 H   0  0  0  0  0  0  0  0  0  0  0  0
   58.8832   33.0481   49.0204 H   0  0  0  0  0  0  0  0  0  0  0  0
   55.1156   29.5046   45.4125 H   0  0  0  0  0  0  0  0  0  0  0  0
   56.3239   29.9493   44.1600 H   0  0  0  0  0  0  0  0  0  0  0  0
   55.5926   28.3086   44.1600 H   0  0  0  0  0  0  0  0  0  0  0  0
  1  2  1  0
  2  3  1  0
  3  4  2  0
  3  5  1  0
  5  6  1  0
  6  7  1  0
  7  8  1  0
  8  9  2  0
  9 10  1  0
 10 11  1  0
 11 12  1  0
 12 13  2  0
 13 14  1  0
 14 15  2  0
 15 16  1  0
 16 17  2  0
 17 18  1  0
 18 19  2  0
 19 20  1  0
 20 21  2  0
 10 22  1  0
 22 23  2  0
 22 24  1  0
 24 25  1  0
 25 26  1  0
 25  5  2  0
 24  7  2  0
 21 12  1  0
 21 16  1  0
  1 27  1  0
  1 28  1  0
  1 29  1  0
  8 30  1  0
  9 31  1  0
 11 32  1  0
 11 33  1  0
 13 34  1  0
 14 35  1  0
 15 36  1  0
 17 37  1  0
 18 38  1  0
 19 39  1  0
 20 40  1  0
 26 41  1  0
 26 42  1  0
 26 43  1  0
M  CHG  2   2  -1   8   1
M  END
>  <UniqueID>  (42) 
39

>  <SMILES>  (42) 
C[N-]C(=O)c1sc2[nH+]cn(Cc3cccc4ccccc34)c(=O)c2c1C

>  <Energy>  (42) 
93.95023901864509

>  <Genealogy>  (42) 
C[N-]C(=O)c1sc2[nH+]cn(Cc3cccc4ccccc34)c(=O)c2c1C (protonated)
C[N-]C(=O)c1sc2[nH+]cn(Cc3cccc4ccccc34)c(=O)c2c1C (3D coordinates assigned)
C[N-]C(=O)c1sc2[nH+]cn(Cc3cccc4ccccc34)c(=O)c2c1C (optimized conformer: 93.95023901864509 kcal/mol)

>  <smiles>  (42) 
CNC(=O)c1sc2ncn(Cc3cccc4ccccc34)c(=O)c2c1C

>  <score_type>  (42) 
oracle

>  <origin>  (42) 
adg

>  <m_score__min__energy>  (42) 
-9.4000000000000004

>  <m_primary>  (42) 
energy

$$$$
42:0
     RDKit          3D

 51 54  0  0  0  0  0  0  0  0999 V2000
   61.1690   30.3800   51.0000 O   0  0  0  0  0  0  0  0  0  0  0  0
   60.4170   31.3890   51.0780 C   0  0  0  0  0  0  0  0  0  0  0  0
   59.5540   31.5630   52.2060 N   0  0  0  0  0  0  0  0  0  0  0  0
   58.2210   31.0500   52.3520 C   0  0  0  0  0  0  0  0  0  0  0  0
   57.1960   31.9250   52.7220 C   0  0  0  0  0  0  0  0  0  0  0  0
   55.8940   31.4520   52.8910 C   0  0  0  0  0  0  0  0  0  0  0  0
   55.6230   30.0890   52.6950 C   0  0  0  0  0  0  0  0  0  0  0  0
   54.2260   29.5450   52.9190 C   0  0  2  0  0  0  0  0  0  0  0  0
   53.5070   29.3260   51.5720 C   0  0  0  0  0  0  0  0  0  0  0  0
   53.0810   30.6420   50.8940 C   0  0  0  0  0  0  0  0  0  0  0  0
   52.5650   31.7180   51.8870 C   0  0  1  0  0  0  0  0  0  0  0  0
   51.4000   32.4690   51.3060 C   0  0  0  0  0  0  0  0  0  0  0  0
   50.7130   33.2340   52.0320 O   0  0  0  0  0  0  0  0  0  0  0  0
   51.0820   32.3400   49.9580 O   0  0  0  0  0  0  0  0  0  0  0  0
   52.1890   31.1160   53.2500 C   0  0  0  0  0  0  0  0  0  0  0  0
   53.3970   30.4210   53.9030 C   0  0  0  0  0  0  0  0  0  0  0  0
   56.6460   29.2470   52.3780 N   0  0  0  0  0  0  0  0  0  0  0  0
   57.9200   29.6860   52.2040 C   0  0  0  0  0  0  0  0  0  0  0  0
   60.3990   32.3530   49.9620 C   0  0  0  0  0  0  0  0  0  0  0  0
   59.4490   32.3430   49.0060 N   0  0  0  0  0  0  0  0  0  0  0  0
   59.7990   33.3640   48.1940 C   0  0  0  0  0  0  0  0  0  0  0  0
   59.0440   33.7480   46.9850 C   0  0  0  0  0  0  0  0  0  0  0  0
   57.7390   33.2680   46.7720 C   0  0  0  0  0  0  0  0  0  0  0  0
   57.0320   33.6350   45.6230 C   0  0  0  0  0  0  0  0  0  0  0  0
   57.6170   34.4820   44.6790 C   0  0  0  0  0  0  0  0  0  0  0  0
   58.9130   34.9640   44.8830 C   0  0  0  0  0  0  0  0  0  0  0  0
   59.6250   34.6000   46.0290 C   0  0  0  0  0  0  0  0  0  0  0  0
   60.8890   33.9790   48.5980 O   0  0  0  0  0  0  0  0  0  0  0  0
   61.2920   33.3800   49.6920 C   0  0  0  0  0  0  0  0  0  0  0  0
   62.5130   33.7880   50.4590 C   0  0  0  0  0  0  0  0  0  0  0  0
   63.5220   32.8620   50.2660 F   0  0  0  0  0  0  0  0  0  0  0  0
   62.9370   35.0360   50.0400 F   0  0  0  0  0  0  0  0  0  0  0  0
   62.2180   33.8510   51.8090 F   0  0  0  0  0  0  0  0  0  0  0  0
   57.4164   32.9909   52.8807 H   0  0  0  0  0  0  0  0  0  0  0  0
   55.0862   32.1423   53.1757 H   0  0  0  0  0  0  0  0  0  0  0  0
   54.3230   28.5645   53.4080 H   0  0  0  0  0  0  0  0  0  0  0  0
   54.1871   28.7877   50.8955 H   0  0  0  0  0  0  0  0  0  0  0  0
   52.5917   28.7517   51.7781 H   0  0  0  0  0  0  0  0  0  0  0  0
   53.9489   31.0527   50.3572 H   0  0  0  0  0  0  0  0  0  0  0  0
   52.2460   30.4003   50.2200 H   0  0  0  0  0  0  0  0  0  0  0  0
   53.3928   32.4227   52.0547 H   0  0  0  0  0  0  0  0  0  0  0  0
   51.8362   31.9201   53.9125 H   0  0  0  0  0  0  0  0  0  0  0  0
   51.3983   30.3673   53.0942 H   0  0  0  0  0  0  0  0  0  0  0  0
   54.0585   31.1947   54.3199 H   0  0  0  0  0  0  0  0  0  0  0  0
   52.9992   29.7460   54.6751 H   0  0  0  0  0  0  0  0  0  0  0  0
   58.7167   28.9724   51.9469 H   0  0  0  0  0  0  0  0  0  0  0  0
   57.2729   32.6012   47.5124 H   0  0  0  0  0  0  0  0  0  0  0  0
   56.0121   33.2556   45.4620 H   0  0  0  0  0  0  0  0  0  0  0  0
   57.0584   34.7694   43.7760 H   0  0  0  0  0  0  0  0  0  0  0  0
   59.3736   35.6314   44.1397 H   0  0  0  0  0  0  0  0  0  0  0  0
   60.6449   34.9818   46.1840 H   0  0  0  0  0  0  0  0  0  0  0  0
  1  2  2  0
  2  3  1  0
  3  4  1  0
  4  5  2  0
  5  6  1  0
  6  7  2  0
  7  8  1  0
  8  9  1  0
  9 10  1  0
 10 11  1  0
 11 12  1  0
 12 13  2  0
 12 14  1  0
 11 15  1  0
 15 16  1  0
  7 17  1  0
 17 18  2  0
  2 19  1  0
 19 20  1  0
 20 21  2  0
 21 22  1  0
 22 23  2  0
 23 24  1  0
 24 25  2  0
 25 26  1  0
 26 27  2  0
 21 28  1  0
 28 29  1  0
 29 30  1  0
 30 31  1  0
 30 32  1  0
 30 33  1  0
 18  4  1  0
 29 19  2  0
 16  8  1  0
 27 22  1  0
  5 34  1  0
  6 35  1  0
  8 36  1  1
  9 37  1  0
  9 38  1  0
 10 39  1  0
 10 40  1  0
 11 41  1  1
 15 42  1  0
 15 43  1  0
 16 44  1  0
 16 45  1  0
 18 46  1  0
 23 47  1  0
 24 48  1  0
 25 49  1  0
 26 50  1  0
 27 51  1  0
M  CHG  2   3  -1  14  -1
M  END
>  <UniqueID>  (43) 
40

>  <SMILES>  (43) 
O=C([N-]c1ccc(C2CCC(C(=O)[O-])CC2)nc1)c1nc(-c2ccccc2)oc1C(F)(F)F

>  <Energy>  (43) 
92.46775231919713

>  <Genealogy>  (43) 
O=C([N-]c1ccc(C2CCC(C(=O)[O-])CC2)nc1)c1nc(-c2ccccc2)oc1C(F)(F)F (protonated)
O=C([N-]c1ccc(C2CCC(C(=O)[O-])CC2)nc1)c1nc(-c2ccccc2)oc1C(F)(F)F (3D coordinates assigned)
O=C([N-]c1ccc(C2CCC(C(=O)[O-])CC2)nc1)c1nc(-c2ccccc2)oc1C(F)(F)F (nonaromatic ring conformer: 92.46775231919713 kcal/mol)

>  <smiles>  (43) 
O=C(Nc1ccc(C2CCC(C(=O)O)CC2)nc1)c1nc(-c2ccccc2)oc1C(F)(F)F

>  <score_type>  (43) 
oracle

>  <origin>  (43) 
adg

>  <m_score__min__energy>  (43) 
-13.42

>  <m_primary>  (43) 
energy

$$$$
43:0
     RDKit          3D

 27 29  0  0  0  0  0  0  0  0999 V2000
   55.6120   25.5940   45.8700 O   0  0  0  0  0  0  0  0  0  0  0  0
   56.4280   25.1930   44.9960 C   0  0  0  0  0  0  0  0  0  0  0  0
   57.5190   26.0350   44.5860 N   0  0  0  0  0  0  0  0  0  0  0  0
   57.5810   27.4480   44.8430 C   0  0  0  0  0  0  0  0  0  0  0  0
   57.8750   27.9000   46.1370 C   0  0  0  0  0  0  0  0  0  0  0  0
   57.9630   29.2690   46.4110 C   0  0  0  0  0  0  0  0  0  0  0  0
   57.7710   30.2150   45.3860 C   0  0  0  0  0  0  0  0  0  0  0  0
   57.8580   31.6300   45.6500 N   0  0  0  0  0  0  0  0  0  0  0  0
   58.8110   32.3140   46.3110 C   0  0  0  0  0  0  0  0  0  0  0  0
   58.5020   33.6240   46.3290 N   0  0  0  0  0  0  0  0  0  0  0  0
   57.3550   33.7230   45.6730 N   0  0  0  0  0  0  0  0  0  0  0  0
   56.9640   32.5260   45.2640 N   0  0  0  0  0  0  0  0  0  0  0  0
   57.5000   29.7580   44.0860 C   0  0  0  0  0  0  0  0  0  0  0  0
   57.4110   28.3890   43.8140 C   0  0  0  0  0  0  0  0  0  0  0  0
   56.2710   23.8400   44.4360 C   0  0  0  0  0  0  0  0  0  0  0  0
   56.4920   23.4480   43.1330 C   0  0  0  0  0  0  0  0  0  0  0  0
   56.2490   22.1270   43.0300 N   0  0  0  0  0  0  0  0  0  0  0  0
   55.8950   21.7080   44.2110 O   0  0  0  0  0  0  0  0  0  0  0  0
   55.8920   22.6850   45.0880 C   0  0  0  0  0  0  0  0  0  0  0  0
   58.3590   25.5810   44.1630 H   0  0  0  0  0  0  0  0  0  0  0  0
   58.0381   27.1712   46.9447 H   0  0  0  0  0  0  0  0  0  0  0  0
   58.1836   29.6086   47.4338 H   0  0  0  0  0  0  0  0  0  0  0  0
   59.7074   31.8691   46.7677 H   0  0  0  0  0  0  0  0  0  0  0  0
   57.3562   30.4847   43.2728 H   0  0  0  0  0  0  0  0  0  0  0  0
   57.2067   28.0473   42.7886 H   0  0  0  0  0  0  0  0  0  0  0  0
   56.8139   24.1058   42.3122 H   0  0  0  0  0  0  0  0  0  0  0  0
   55.6332   22.5980   46.1536 H   0  0  0  0  0  0  0  0  0  0  0  0
  1  2  2  0
  2  3  1  0
  3  4  1  0
  4  5  2  0
  5  6  1  0
  6  7  2  0
  7  8  1  0
  8  9  1  0
  9 10  2  0
 10 11  1  0
 11 12  2  0
  7 13  1  0
 13 14  2  0
  2 15  1  0
 15 16  1  0
 16 17  2  0
 17 18  1  0
 18 19  1  0
 14  4  1  0
 19 15  2  0
 12  8  1  0
  3 20  1  0
  5 21  1  0
  6 22  1  0
  9 23  1  0
 13 24  1  0
 14 25  1  0
 16 26  1  0
 19 27  1  0
M  END
>  <UniqueID>  (44) 
41

>  <SMILES>  (44) 
O=C(Nc1ccc(-n2cnnn2)cc1)c1cnoc1

>  <Energy>  (44) 
105.10581196348517

>  <Genealogy>  (44) 
O=C(Nc1ccc(-n2cnnn2)cc1)c1cnoc1 (3D coordinates assigned)
O=C(Nc1ccc(-n2cnnn2)cc1)c1cnoc1 (optimized conformer: 105.10581196348517 kcal/mol)

>  <smiles>  (44) 
O=C(Nc1ccc(-n2cnnn2)cc1)c1cnoc1

>  <score_type>  (44) 
oracle

>  <origin>  (44) 
adg

>  <m_score__min__energy>  (44) 
-7.0700000000000003

>  <m_primary>  (44) 
energy

$$$$
44:0
     RDKit          3D

 27 27  0  0  0  0  0  0  0  0999 V2000
   57.3900   31.5790   43.4660 C   0  0  0  0  0  0  0  0  0  0  0  0
   56.5730   31.0420   44.4990 O   0  0  0  0  0  0  0  0  0  0  0  0
   56.6760   29.7180   44.9340 C   0  0  0  0  0  0  0  0  0  0  0  0
   55.6760   28.9510   44.8670 O   0  0  0  0  0  0  0  0  0  0  0  0
   57.9720   29.1950   45.4280 C   0  0  0  0  0  0  0  0  0  0  0  0
   58.9650   30.1110   45.8210 C   0  0  0  0  0  0  0  0  0  0  0  0
   60.1670   29.6660   46.3730 C   0  0  0  0  0  0  0  0  0  0  0  0
   61.1080   30.5620   46.7590 F   0  0  0  0  0  0  0  0  0  0  0  0
   60.3950   28.3020   46.5400 C   0  0  0  0  0  0  0  0  0  0  0  0
   59.4310   27.3760   46.1390 C   0  0  0  0  0  0  0  0  0  0  0  0
   58.2180   27.8040   45.5680 C   0  0  0  0  0  0  0  0  0  0  0  0
   57.2790   26.8330   45.0680 N   0  0  0  0  0  0  0  0  0  0  0  0
   57.1260   25.5070   45.6690 C   0  0  0  0  0  0  0  0  0  0  0  0
   55.6570   25.2090   45.9820 C   0  0  0  0  0  0  0  0  0  0  0  0
   54.8460   26.3020   45.6440 O   0  0  0  0  0  0  0  0  0  0  0  0
   58.2301   32.1312   43.9126 H   0  0  0  0  0  0  0  0  0  0  0  0
   57.7792   30.7600   42.8432 H   0  0  0  0  0  0  0  0  0  0  0  0
   56.7926   32.2611   42.8432 H   0  0  0  0  0  0  0  0  0  0  0  0
   58.7920   31.1896   45.6918 H   0  0  0  0  0  0  0  0  0  0  0  0
   61.3370   27.9540   46.9890 H   0  0  0  0  0  0  0  0  0  0  0  0
   59.6212   26.3006   46.2706 H   0  0  0  0  0  0  0  0  0  0  0  0
   56.6710   27.0930   44.2580 H   0  0  0  0  0  0  0  0  0  0  0  0
   57.5047   24.7489   44.9676 H   0  0  0  0  0  0  0  0  0  0  0  0
   57.6953   25.4824   46.6099 H   0  0  0  0  0  0  0  0  0  0  0  0
   55.3362   24.3293   45.4048 H   0  0  0  0  0  0  0  0  0  0  0  0
   55.5577   25.0153   47.0602 H   0  0  0  0  0  0  0  0  0  0  0  0
   55.3040   26.7770   44.9020 H   0  0  0  0  0  0  0  0  0  0  0  0
  1  2  1  0
  2  3  1  0
  3  4  2  0
  3  5  1  0
  5  6  2  0
  6  7  1  0
  7  8  1  0
  7  9  2  0
  9 10  1  0
 10 11  2  0
 11 12  1  0
 12 13  1  0
 13 14  1  0
 14 15  1  0
 11  5  1  0
  1 16  1  0
  1 17  1  0
  1 18  1  0
  6 19  1  0
  9 20  1  0
 10 21  1  0
 12 22  1  0
 13 23  1  0
 13 24  1  0
 14 25  1  0
 14 26  1  0
 15 27  1  0
M  END
>  <UniqueID>  (45) 
42

>  <SMILES>  (45) 
COC(=O)c1cc(F)ccc1NCCO

>  <Energy>  (45) 
25.92693302253771

>  <Genealogy>  (45) 
COC(=O)c1cc(F)ccc1NCCO (3D coordinates assigned)
COC(=O)c1cc(F)ccc1NCCO (optimized conformer: 25.92693302253771 kcal/mol)

>  <smiles>  (45) 
COC(=O)c1cc(F)ccc1NCCO

>  <score_type>  (45) 
oracle

>  <origin>  (45) 
adg

>  <m_score__min__energy>  (45) 
-5.9800000000000004

>  <m_primary>  (45) 
energy

$$$$
45:0
     RDKit          3D

 43 45  0  0  0  0  0  0  0  0999 V2000
   59.5220   35.3370   46.6960 C   0  0  0  0  0  0  0  0  0  0  0  0
   59.9480   34.2150   45.9260 O   0  0  0  0  0  0  0  0  0  0  0  0
   59.1110   33.1650   45.5130 C   0  0  0  0  0  0  0  0  0  0  0  0
   58.4480   33.1920   44.2720 C   0  0  0  0  0  0  0  0  0  0  0  0
   57.6280   32.1310   43.8810 C   0  0  0  0  0  0  0  0  0  0  0  0
   57.4380   31.0300   44.7260 C   0  0  0  0  0  0  0  0  0  0  0  0
   56.6200   29.8790   44.2910 C   0  0  0  0  0  0  0  0  0  0  0  0
   55.5380   29.6110   44.8750 O   0  0  0  0  0  0  0  0  0  0  0  0
   57.0300   29.0860   43.1750 N   0  0  0  0  0  0  0  0  0  0  0  0
   57.7750   27.8490   43.3520 C   0  0  0  0  0  0  0  0  0  0  0  0
   58.6450   27.9730   44.5760 C   0  0  0  0  0  0  0  0  0  0  0  0
   59.8540   28.6870   44.4940 C   0  0  0  0  0  0  0  0  0  0  0  0
   60.6320   28.8990   45.6330 C   0  0  0  0  0  0  0  0  0  0  0  0
   60.2090   28.4060   46.8670 C   0  0  0  0  0  0  0  0  0  0  0  0
   59.0000   27.7150   46.9690 C   0  0  0  0  0  0  0  0  0  0  0  0
   58.2090   27.5030   45.8340 C   0  0  0  0  0  0  0  0  0  0  0  0
   56.6680   26.6750   46.0330 Cl  0  0  0  0  0  0  0  0  0  0  0  0
   58.0770   31.0140   45.9770 C   0  0  0  0  0  0  0  0  0  0  0  0
   58.9170   32.0650   46.3690 C   0  0  0  0  0  0  0  0  0  0  0  0
   59.7080   31.9840   47.9490 S   0  0  0  0  0  0  0  0  0  0  0  0
   59.4490   33.2590   48.6950 O   0  0  0  0  0  0  0  0  0  0  0  0
   59.1460   30.8480   48.7570 O   0  0  0  0  0  0  0  0  0  0  0  0
   61.4190   31.7810   47.7560 N   0  0  0  0  0  0  0  0  0  0  0  0
   62.0660   33.0780   47.9290 C   0  0  0  0  0  0  0  0  0  0  0  0
   62.9770   33.4670   46.7760 C   0  0  0  0  0  0  0  0  0  0  0  0
   63.5720   32.9650   48.0840 C   0  0  0  0  0  0  0  0  0  0  0  0
   59.6112   35.1020   47.7669 H   0  0  0  0  0  0  0  0  0  0  0  0
   60.1527   36.2061   46.4576 H   0  0  0  0  0  0  0  0  0  0  0  0
   58.4734   35.5685   46.4576 H   0  0  0  0  0  0  0  0  0  0  0  0
   58.5767   34.0564   43.6039 H   0  0  0  0  0  0  0  0  0  0  0  0
   57.1275   32.1602   42.9019 H   0  0  0  0  0  0  0  0  0  0  0  0
   57.0740   27.0112   43.4808 H   0  0  0  0  0  0  0  0  0  0  0  0
   58.4014   27.6618   42.4674 H   0  0  0  0  0  0  0  0  0  0  0  0
   60.1893   29.0818   43.5236 H   0  0  0  0  0  0  0  0  0  0  0  0
   61.5783   29.4546   45.5575 H   0  0  0  0  0  0  0  0  0  0  0  0
   60.8292   28.5619   47.7620 H   0  0  0  0  0  0  0  0  0  0  0  0
   58.6675   27.3353   47.9464 H   0  0  0  0  0  0  0  0  0  0  0  0
   57.9158   30.1652   46.6579 H   0  0  0  0  0  0  0  0  0  0  0  0
   61.2539   33.5781   48.4771 H   0  0  0  0  0  0  0  0  0  0  0  0
   63.0220   32.8389   45.8741 H   0  0  0  0  0  0  0  0  0  0  0  0
   63.1072   34.3661   46.1558 H   0  0  0  0  0  0  0  0  0  0  0  0
   64.0476   31.9741   48.1274 H   0  0  0  0  0  0  0  0  0  0  0  0
   64.3113   33.3513   48.8011 H   0  0  0  0  0  0  0  0  0  0  0  0
  1  2  1  0
  2  3  1  0
  3  4  2  0
  4  5  1  0
  5  6  2  0
  6  7  1  0
  7  8  2  0
  7  9  1  0
  9 10  1  0
 10 11  1  0
 11 12  2  0
 12 13  1  0
 13 14  2  0
 14 15  1  0
 15 16  2  0
 16 17  1  0
  6 18  1  0
 18 19  2  0
 19 20  1  0
 20 21  2  0
 20 22  2  0
 20 23  1  0
 23 24  1  0
 24 25  1  0
 25 26  1  0
 19  3  1  0
 26 24  1  0
 16 11  1  0
  1 27  1  0
  1 28  1  0
  1 29  1  0
  4 30  1  0
  5 31  1  0
 10 32  1  0
 10 33  1  0
 12 34  1  0
 13 35  1  0
 14 36  1  0
 15 37  1  0
 18 38  1  0
 24 39  1  0
 25 40  1  0
 25 41  1  0
 26 42  1  0
 26 43  1  0
M  CHG  2   9  -1  23  -1
M  END
>  <UniqueID>  (46) 
43

>  <SMILES>  (46) 
COc1ccc(C(=O)[N-]Cc2ccccc2Cl)cc1S(=O)(=O)[N-]C1CC1

>  <Energy>  (46) 
310.6497822593997

>  <Genealogy>  (46) 
COc1ccc(C(=O)[N-]Cc2ccccc2Cl)cc1S(=O)(=O)[N-]C1CC1 (protonated)
COc1ccc(C(=O)[N-]Cc2ccccc2Cl)cc1S(=O)(=O)[N-]C1CC1 (3D coordinates assigned)
COc1ccc(C(=O)[N-]Cc2ccccc2Cl)cc1S(=O)(=O)[N-]C1CC1 (nonaromatic ring conformer: 310.6497822593997 kcal/mol)

>  <smiles>  (46) 
COc1ccc(C(=O)NCc2ccccc2Cl)cc1S(=O)(=O)NC1CC1

>  <score_type>  (46) 
oracle

>  <origin>  (46) 
adg

>  <m_score__min__energy>  (46) 
-11.02

>  <m_primary>  (46) 
energy

$$$$
46:0
     RDKit          3D

 43 44  0  0  0  0  0  0  0  0999 V2000
   57.3880   31.4950   43.8660 C   0  0  0  0  0  0  0  0  0  0  0  0
   56.9630   30.7690   45.0130 O   0  0  0  0  0  0  0  0  0  0  0  0
   57.5640   29.5900   45.4860 C   0  0  0  0  0  0  0  0  0  0  0  0
   57.0440   28.3210   45.1640 C   0  0  0  0  0  0  0  0  0  0  0  0
   57.6270   27.1550   45.6830 C   0  0  0  0  0  0  0  0  0  0  0  0
   57.0970   25.8030   45.2930 C   0  0  0  0  0  0  0  0  0  0  0  0
   55.8580   25.4960   46.0740 C   0  0  0  0  0  0  0  0  0  0  0  0
   55.8250   24.5020   46.8460 O   0  0  0  0  0  0  0  0  0  0  0  0
   54.7600   26.3430   45.9930 O   0  0  0  0  0  0  0  0  0  0  0  0
   58.7420   27.2590   46.5240 C   0  0  0  0  0  0  0  0  0  0  0  0
   59.2680   28.5110   46.8450 C   0  0  0  0  0  0  0  0  0  0  0  0
   58.7070   29.6770   46.3130 C   0  0  0  0  0  0  0  0  0  0  0  0
   59.3150   30.9010   46.6410 O   0  0  0  0  0  0  0  0  0  0  0  0
   59.2190   31.5180   47.8920 C   0  0  0  0  0  0  0  0  0  0  0  0
   58.8920   30.7300   49.0030 C   0  0  0  0  0  0  0  0  0  0  0  0
   58.7710   31.3060   50.2690 C   0  0  0  0  0  0  0  0  0  0  0  0
   58.9970   32.6730   50.4390 C   0  0  0  0  0  0  0  0  0  0  0  0
   58.8440   33.4560   52.1740 Br  0  0  0  0  0  0  0  0  0  0  0  0
   59.3520   33.4640   49.3440 C   0  0  0  0  0  0  0  0  0  0  0  0
   59.4620   32.9030   48.0580 C   0  0  0  0  0  0  0  0  0  0  0  0
   59.9520   33.7730   46.9200 C   0  0  0  0  0  0  0  0  0  0  0  0
   58.8450   34.5370   46.3080 N   0  0  0  0  0  0  0  0  0  0  0  0
   57.5790   33.7890   46.3900 C   0  0  0  0  0  0  0  0  0  0  0  0
   59.1540   34.8270   44.8990 C   0  0  0  0  0  0  0  0  0  0  0  0
   57.9200   32.4039   44.1837 H   0  0  0  0  0  0  0  0  0  0  0  0
   58.0614   30.8676   43.2637 H   0  0  0  0  0  0  0  0  0  0  0  0
   56.5112   31.7750   43.2637 H   0  0  0  0  0  0  0  0  0  0  0  0
   56.1716   28.2433   44.4986 H   0  0  0  0  0  0  0  0  0  0  0  0
   56.8608   25.8000   44.2187 H   0  0  0  0  0  0  0  0  0  0  0  0
   57.8591   25.0397   45.5088 H   0  0  0  0  0  0  0  0  0  0  0  0
   59.2054   26.3493   46.9335 H   0  0  0  0  0  0  0  0  0  0  0  0
   60.1317   28.5818   47.5226 H   0  0  0  0  0  0  0  0  0  0  0  0
   58.7293   29.6494   48.8770 H   0  0  0  0  0  0  0  0  0  0  0  0
   58.4975   30.6824   51.1329 H   0  0  0  0  0  0  0  0  0  0  0  0
   59.5477   34.5368   49.4883 H   0  0  0  0  0  0  0  0  0  0  0  0
   60.7024   34.4783   47.3066 H   0  0  0  0  0  0  0  0  0  0  0  0
   60.3888   33.1205   46.1496 H   0  0  0  0  0  0  0  0  0  0  0  0
   57.3135   33.6321   47.4459 H   0  0  0  0  0  0  0  0  0  0  0  0
   56.7821   34.3613   45.8927 H   0  0  0  0  0  0  0  0  0  0  0  0
   57.6958   32.8148   45.8927 H   0  0  0  0  0  0  0  0  0  0  0  0
   59.9552   35.5789   44.8466 H   0  0  0  0  0  0  0  0  0  0  0  0
   59.4836   33.9045   44.3985 H   0  0  0  0  0  0  0  0  0  0  0  0
   58.2543   35.2143   44.3985 H   0  0  0  0  0  0  0  0  0  0  0  0
  1  2  1  0
  2  3  1  0
  3  4  2  0
  4  5  1  0
  5  6  1  0
  6  7  1  0
  7  8  2  0
  7  9  1  0
  5 10  2  0
 10 11  1  0
 11 12  2  0
 12 13  1  0
 13 14  1  0
 14 15  2  0
 15 16  1  0
 16 17  2  0
 17 18  1  0
 17 19  1  0
 19 20  2  0
 20 21  1  0
 21 22  1  0
 22 23  1  0
 22 24  1  0
 12  3  1  0
 20 14  1  0
  1 25  1  0
  1 26  1  0
  1 27  1  0
  4 28  1  0
  6 29  1  0
  6 30  1  0
 10 31  1  0
 11 32  1  0
 15 33  1  0
 16 34  1  0
 19 35  1  0
 21 36  1  0
 21 37  1  0
 23 38  1  0
 23 39  1  0
 23 40  1  0
 24 41  1  0
 24 42  1  0
 24 43  1  0
M  CHG  1   9  -1
M  END
>  <UniqueID>  (47) 
44

>  <SMILES>  (47) 
COc1cc(CC(=O)[O-])ccc1Oc1ccc(Br)cc1CN(C)C

>  <Energy>  (47) 
49.83590121236622

>  <Genealogy>  (47) 
COc1cc(CC(=O)[O-])ccc1Oc1ccc(Br)cc1CN(C)C (protonated)
COc1cc(CC(=O)[O-])ccc1Oc1ccc(Br)cc1CN(C)C (3D coordinates assigned)
COc1cc(CC(=O)[O-])ccc1Oc1ccc(Br)cc1CN(C)C (optimized conformer: 49.83590121236622 kcal/mol)

>  <smiles>  (47) 
COc1cc(CC(=O)O)ccc1Oc1ccc(Br)cc1CN(C)C

>  <score_type>  (47) 
oracle

>  <origin>  (47) 
adg

>  <m_score__min__energy>  (47) 
-10.81

>  <m_primary>  (47) 
energy

$$$$
47:0
     RDKit          3D

 39 42  0  0  0  0  0  0  0  0999 V2000
   60.5980   29.6530   47.6380 O   0  0  0  0  0  0  0  0  0  0  0  0
   59.8550   30.4660   47.0230 C   0  0  0  0  0  0  0  0  0  0  0  0
   58.6940   30.0070   46.3580 C   0  0  0  0  0  0  0  0  0  0  0  0
   58.2890   28.6200   46.3540 N   0  0  0  0  0  0  0  0  0  0  0  0
   58.5870   27.6420   47.3900 C   0  0  0  0  0  0  0  0  0  0  0  0
   57.7160   26.4330   47.0840 C   0  0  0  0  0  0  0  0  0  0  0  0
   57.2820   26.5920   45.6310 C   0  0  0  0  0  0  0  0  0  0  0  0
   57.4130   28.0770   45.3260 C   0  0  0  0  0  0  0  0  0  0  0  0
   57.9340   30.9100   45.6840 N   0  0  0  0  0  0  0  0  0  0  0  0
   58.2430   32.2260   45.6390 C   0  0  0  0  0  0  0  0  0  0  0  0
   57.4220   33.1090   44.9290 C   0  0  0  0  0  0  0  0  0  0  0  0
   57.7370   34.4680   44.8740 C   0  0  0  0  0  0  0  0  0  0  0  0
   58.8740   34.9490   45.5250 C   0  0  0  0  0  0  0  0  0  0  0  0
   59.7000   34.0750   46.2360 C   0  0  0  0  0  0  0  0  0  0  0  0
   59.3940   32.6970   46.3090 C   0  0  0  0  0  0  0  0  0  0  0  0
   60.1810   31.8000   46.9940 N   0  0  0  0  0  0  0  0  0  0  0  0
   61.3610   32.2380   47.6980 C   0  0  0  0  0  0  0  0  0  0  0  0
   61.2450   32.8460   48.9570 C   0  0  0  0  0  0  0  0  0  0  0  0
   62.3890   33.2720   49.6380 C   0  0  0  0  0  0  0  0  0  0  0  0
   63.6530   33.0930   49.0640 C   0  0  0  0  0  0  0  0  0  0  0  0
   64.7610   33.5060   49.7260 F   0  0  0  0  0  0  0  0  0  0  0  0
   63.7720   32.4900   47.8090 C   0  0  0  0  0  0  0  0  0  0  0  0
   62.6290   32.0630   47.1250 C   0  0  0  0  0  0  0  0  0  0  0  0
   59.6510   27.3646   47.3598 H   0  0  0  0  0  0  0  0  0  0  0  0
   58.3841   28.0425   48.3942 H   0  0  0  0  0  0  0  0  0  0  0  0
   58.2909   25.5041   47.2128 H   0  0  0  0  0  0  0  0  0  0  0  0
   56.8511   26.3748   47.7612 H   0  0  0  0  0  0  0  0  0  0  0  0
   57.9349   26.0047   44.9686 H   0  0  0  0  0  0  0  0  0  0  0  0
   56.2549   26.2322   45.4709 H   0  0  0  0  0  0  0  0  0  0  0  0
   57.8547   28.2254   44.3295 H   0  0  0  0  0  0  0  0  0  0  0  0
   56.4332   28.5770   45.3252 H   0  0  0  0  0  0  0  0  0  0  0  0
   56.5267   32.7317   44.4132 H   0  0  0  0  0  0  0  0  0  0  0  0
   57.0885   35.1603   44.3171 H   0  0  0  0  0  0  0  0  0  0  0  0
   59.1206   36.0200   45.4781 H   0  0  0  0  0  0  0  0  0  0  0  0
   60.5959   34.4624   46.7432 H   0  0  0  0  0  0  0  0  0  0  0  0
   60.2522   32.9877   49.4090 H   0  0  0  0  0  0  0  0  0  0  0  0
   62.2959   33.7480   50.6253 H   0  0  0  0  0  0  0  0  0  0  0  0
   64.7658   32.3510   47.3584 H   0  0  0  0  0  0  0  0  0  0  0  0
   62.7248   31.5895   46.1368 H   0  0  0  0  0  0  0  0  0  0  0  0
  1  2  2  0
  2  3  1  0
  3  4  1  0
  4  5  1  0
  5  6  1  0
  6  7  1  0
  7  8  1  0
  3  9  2  0
  9 10  1  0
 10 11  2  0
 11 12  1  0
 12 13  2  0
 13 14  1  0
 14 15  2  0
 15 16  1  0
 16 17  1  0
 17 18  2  0
 18 19  1  0
 19 20  2  0
 20 21  1  0
 20 22  1  0
 22 23  2  0
 16  2  1  0
 23 17  1  0
  8  4  1  0
 15 10  1  0
  5 24  1  0
  5 25  1  0
  6 26  1  0
  6 27  1  0
  7 28  1  0
  7 29  1  0
  8 30  1  0
  8 31  1  0
 11 32  1  0
 12 33  1  0
 13 34  1  0
 14 35  1  0
 18 36  1  0
 19 37  1  0
 22 38  1  0
 23 39  1  0
M  END
>  <UniqueID>  (48) 
45

>  <SMILES>  (48) 
O=c1c(N2CCCC2)nc2ccccc2n1-c1ccc(F)cc1

>  <Energy>  (48) 
60.7054415393194

>  <Genealogy>  (48) 
O=c1c(N2CCCC2)nc2ccccc2n1-c1ccc(F)cc1 (3D coordinates assigned)
O=c1c(N2CCCC2)nc2ccccc2n1-c1ccc(F)cc1 (nonaromatic ring conformer: 60.7054415393194 kcal/mol)

>  <smiles>  (48) 
O=c1c(N2CCCC2)nc2ccccc2n1-c1ccc(F)cc1

>  <score_type>  (48) 
oracle

>  <origin>  (48) 
adg

>  <m_score__min__energy>  (48) 
-7.0099999999999998

>  <m_primary>  (48) 
energy

$$$$
