0:0
     RDKit          3D

 31 33  0  0  0  0  0  0  0  0999 V2000
   58.4210   26.1100   46.2620 C   0  0  0  0  0  0  0  0  0  0  0  0
   57.6880   27.1160   47.1430 C   0  0  0  0  0  0  0  0  0  0  0  0
   58.0300   28.4880   46.7480 N   0  0  0  0  0  0  0  0  0  0  0  0
   59.1280   29.1830   47.1400 C   0  0  0  0  0  0  0  0  0  0  0  0
   59.2140   30.3930   46.4800 C   0  0  0  0  0  0  0  0  0  0  0  0
   58.0920   30.4720   45.6710 C   0  0  0  0  0  0  0  0  0  0  0  0
   57.6310   31.4740   44.8020 C   0  0  0  0  0  0  0  0  0  0  0  0
   58.5080   33.1600   44.5750 Br  0  0  0  0  0  0  0  0  0  0  0  0
   56.4480   31.2260   44.0850 C   0  0  0  0  0  0  0  0  0  0  0  0
   55.7550   30.0110   44.2380 C   0  0  0  0  0  0  0  0  0  0  0  0
   56.2250   29.0250   45.1190 C   0  0  0  0  0  0  0  0  0  0  0  0
   55.5220   27.8340   45.2490 O   0  0  0  0  0  0  0  0  0  0  0  0
   57.4010   29.2830   45.8440 C   0  0  0  0  0  0  0  0  0  0  0  0
   60.3390   31.3600   46.6880 C   0  0  0  0  0  0  0  0  0  0  0  0
   61.5140   30.6600   47.4020 C   0  0  0  0  0  0  0  0  0  0  0  0
   61.0530   29.8270   48.5270 N   0  0  0  0  0  0  0  0  0  0  0  0
   60.2140   28.7040   48.0680 C   0  0  0  0  0  0  0  0  0  0  0  0
   58.9501   25.3839   46.8967 H   0  0  0  0  0  0  0  0  0  0  0  0
   57.6949   25.5813   45.6269 H   0  0  0  0  0  0  0  0  0  0  0  0
   59.1467   26.6391   45.6269 H   0  0  0  0  0  0  0  0  0  0  0  0
   56.6032   26.9681   47.0365 H   0  0  0  0  0  0  0  0  0  0  0  0
   57.9902   26.9604   48.1892 H   0  0  0  0  0  0  0  0  0  0  0  0
   56.0593   31.9906   43.3962 H   0  0  0  0  0  0  0  0  0  0  0  0
   54.8356   29.8323   43.6612 H   0  0  0  0  0  0  0  0  0  0  0  0
   60.6791   31.7379   45.7125 H   0  0  0  0  0  0  0  0  0  0  0  0
   59.9856   32.1954   47.3102 H   0  0  0  0  0  0  0  0  0  0  0  0
   62.0406   30.0208   46.6781 H   0  0  0  0  0  0  0  0  0  0  0  0
   62.1819   31.4366   47.8029 H   0  0  0  0  0  0  0  0  0  0  0  0
   60.4910   30.4230   49.1800 H   0  0  0  0  0  0  0  0  0  0  0  0
   60.8459   27.9770   47.5367 H   0  0  0  0  0  0  0  0  0  0  0  0
   59.7431   28.2377   48.9460 H   0  0  0  0  0  0  0  0  0  0  0  0
  1  2  1  0
  2  3  1  0
  3  4  1  0
  4  5  2  0
  5  6  1  0
  6  7  2  0
  7  8  1  0
  7  9  1  0
  9 10  2  0
 10 11  1  0
 11 12  1  0
 11 13  2  0
  5 14  1  0
 14 15  1  0
 15 16  1  0
 16 17  1  0
 13  3  1  0
 17  4  1  0
 13  6  1  0
  1 18  1  0
  1 19  1  0
  1 20  1  0
  2 21  1  0
  2 22  1  0
  9 23  1  0
 10 24  1  0
 14 25  1  0
 14 26  1  0
 15 27  1  0
 15 28  1  0
 16 29  1  0
 17 30  1  0
 17 31  1  0
M  CHG  1  12  -1
M  END
>  <UniqueID>  (1) 
1

>  <SMILES>  (1) 
CCn1c2c(c3c(Br)ccc([O-])c31)CCNC2

>  <Energy>  (1) 
70.09933417436173

>  <Genealogy>  (1) 
CCn1c2c(c3c(Br)ccc([O-])c31)CCNC2 (protonated)
CCn1c2c(c3c(Br)ccc([O-])c31)CCNC2 (3D coordinates assigned)
CCn1c2c(c3c(Br)ccc([O-])c31)CCNC2 (nonaromatic ring conformer: 70.09933417436173 kcal/mol)

>  <smiles>  (1) 
CCn1c2c(c3c(Br)ccc(O)c31)CCNC2

>  <score_type>  (1) 
oracle

>  <origin>  (1) 
adg

>  <m_score__min__energy>  (1) 
-9.0899999999999999

>  <m_primary>  (1) 
energy

$$$$
1:0
     RDKit          3D

 41 41  0  0  0  0  0  0  0  0999 V2000
   58.5210   32.3400   48.7570 C   0  0  0  0  0  0  0  0  0  0  0  0
   58.1350   33.0140   47.4270 C   0  0  0  0  0  0  0  0  0  0  0  0
   59.2630   33.5890   46.6350 N   0  0  0  0  0  0  0  0  0  0  0  0
   58.9150   34.0510   45.2650 C   0  0  0  0  0  0  0  0  0  0  0  0
   57.4150   33.9190   44.9720 C   0  0  0  0  0  0  0  0  0  0  0  0
   60.0610   34.5940   47.3860 C   0  0  0  0  0  0  0  0  0  0  0  0
   61.4910   34.1530   47.7390 C   0  0  0  0  0  0  0  0  0  0  0  0
   61.9320   33.1790   46.8130 O   0  0  0  0  0  0  0  0  0  0  0  0
   62.5470   32.0960   47.4780 C   0  0  0  0  0  0  0  0  0  0  0  0
   61.6180   30.8830   47.4780 C   0  0  0  0  0  0  0  0  0  0  0  0
   60.4730   31.1130   46.6540 O   0  0  0  0  0  0  0  0  0  0  0  0
   59.8020   30.1500   45.8830 C   0  0  0  0  0  0  0  0  0  0  0  0
   60.3040   28.8500   45.6690 C   0  0  0  0  0  0  0  0  0  0  0  0
   59.5860   27.9370   44.8910 C   0  0  0  0  0  0  0  0  0  0  0  0
   58.3620   28.3040   44.3270 C   0  0  0  0  0  0  0  0  0  0  0  0
   57.8520   29.5870   44.5410 C   0  0  0  0  0  0  0  0  0  0  0  0
   56.1770   30.0900   43.7740 Br  0  0  0  0  0  0  0  0  0  0  0  0
   58.5700   30.5040   45.3190 C   0  0  0  0  0  0  0  0  0  0  0  0
   58.1678   32.9567   49.5966 H   0  0  0  0  0  0  0  0  0  0  0  0
   58.0560   31.3446   48.8121 H   0  0  0  0  0  0  0  0  0  0  0  0
   59.6148   32.2373   48.8121 H   0  0  0  0  0  0  0  0  0  0  0  0
   57.6331   32.2614   46.8011 H   0  0  0  0  0  0  0  0  0  0  0  0
   57.4978   33.8680   47.7003 H   0  0  0  0  0  0  0  0  0  0  0  0
   59.9370   32.7950   46.5030 H   0  0  0  0  0  0  0  0  0  0  0  0
   59.2041   35.1075   45.1634 H   0  0  0  0  0  0  0  0  0  0  0  0
   59.4561   33.4168   44.5474 H   0  0  0  0  0  0  0  0  0  0  0  0
   56.8592   33.8701   45.9200 H   0  0  0  0  0  0  0  0  0  0  0  0
   57.0764   34.7908   44.3930 H   0  0  0  0  0  0  0  0  0  0  0  0
   57.2339   33.0014   44.3930 H   0  0  0  0  0  0  0  0  0  0  0  0
   60.1259   35.5055   46.7736 H   0  0  0  0  0  0  0  0  0  0  0  0
   59.5408   34.7482   48.3429 H   0  0  0  0  0  0  0  0  0  0  0  0
   62.1620   35.0238   47.7011 H   0  0  0  0  0  0  0  0  0  0  0  0
   61.5001   33.7233   48.7516 H   0  0  0  0  0  0  0  0  0  0  0  0
   63.4834   31.8369   46.9622 H   0  0  0  0  0  0  0  0  0  0  0  0
   62.7597   32.3862   48.5175 H   0  0  0  0  0  0  0  0  0  0  0  0
   62.1668   30.0099   47.0952 H   0  0  0  0  0  0  0  0  0  0  0  0
   61.2771   30.7034   48.5083 H   0  0  0  0  0  0  0  0  0  0  0  0
   61.2643   28.5530   46.1159 H   0  0  0  0  0  0  0  0  0  0  0  0
   59.9863   26.9264   44.7225 H   0  0  0  0  0  0  0  0  0  0  0  0
   57.8000   27.5834   43.7148 H   0  0  0  0  0  0  0  0  0  0  0  0
   58.1624   31.5115   45.4886 H   0  0  0  0  0  0  0  0  0  0  0  0
  1  2  1  0
  2  3  1  0
  3  4  1  0
  4  5  1  0
  3  6  1  0
  6  7  1  0
  7  8  1  0
  8  9  1  0
  9 10  1  0
 10 11  1  0
 11 12  1  0
 12 13  2  0
 13 14  1  0
 14 15  2  0
 15 16  1  0
 16 17  1  0
 16 18  2  0
 18 12  1  0
  1 19  1  0
  1 20  1  0
  1 21  1  0
  2 22  1  0
  2 23  1  0
  3 24  1  0
  4 25  1  0
  4 26  1  0
  5 27  1  0
  5 28  1  0
  5 29  1  0
  6 30  1  0
  6 31  1  0
  7 32  1  0
  7 33  1  0
  9 34  1  0
  9 35  1  0
 10 36  1  0
 10 37  1  0
 13 38  1  0
 14 39  1  0
 15 40  1  0
 18 41  1  0
M  CHG  1   3   1
M  END
>  <UniqueID>  (2) 
2

>  <SMILES>  (2) 
CC[NH+](CC)CCOCCOc1cccc(Br)c1

>  <Energy>  (2) 
46.152794501369634

>  <Genealogy>  (2) 
CC[NH+](CC)CCOCCOc1cccc(Br)c1 (protonated)
CC[NH+](CC)CCOCCOc1cccc(Br)c1 (3D coordinates assigned)
CC[NH+](CC)CCOCCOc1cccc(Br)c1 (optimized conformer: 46.152794501369634 kcal/mol)

>  <smiles>  (2) 
CCN(CC)CCOCCOc1cccc(Br)c1

>  <score_type>  (2) 
oracle

>  <origin>  (2) 
adg

>  <m_score__min__energy>  (2) 
-3.7599999999999998

>  <m_primary>  (2) 
energy

$$$$
2:0
     RDKit          3D

 42 42  0  0  0  0  0  0  0  0999 V2000
   65.0640   32.6760   49.7540 C   0  0  0  0  0  0  0  0  0  0  0  0
   63.5670   32.8970   49.9340 C   0  0  0  0  0  0  0  0  0  0  0  0
   62.8710   32.8320   48.6230 N   0  0  0  0  0  0  0  0  0  0  0  0
   63.1010   34.0930   47.8740 C   0  0  0  0  0  0  0  0  0  0  0  0
   63.3510   33.8320   46.3890 C   0  0  0  0  0  0  0  0  0  0  0  0
   63.3450   31.6690   47.8350 C   0  0  0  0  0  0  0  0  0  0  0  0
   62.1800   30.8400   47.2490 C   0  0  0  0  0  0  0  0  0  0  0  0
   60.8480   31.1540   47.8180 N   0  0  0  0  0  0  0  0  0  0  0  0
   59.7160   30.9260   46.9290 C   0  0  0  0  0  0  0  0  0  0  0  0
   59.1790   29.6260   46.7460 C   0  0  0  0  0  0  0  0  0  0  0  0
   59.5010   28.3300   47.9030 Cl  0  0  0  0  0  0  0  0  0  0  0  0
   58.2870   29.3740   45.6900 C   0  0  0  0  0  0  0  0  0  0  0  0
   57.6990   27.7310   45.4020 Cl  0  0  0  0  0  0  0  0  0  0  0  0
   57.8700   30.4230   44.8590 C   0  0  0  0  0  0  0  0  0  0  0  0
   57.0130   30.1480   43.7280 C   0  0  0  0  0  0  0  0  0  0  0  0
   56.3260   29.9290   42.8210 N   0  0  0  0  0  0  0  0  0  0  0  0
   58.2330   31.7460   45.1630 C   0  0  0  0  0  0  0  0  0  0  0  0
   57.6550   33.0560   44.1210 Cl  0  0  0  0  0  0  0  0  0  0  0  0
   59.0790   32.0130   46.2640 C   0  0  0  0  0  0  0  0  0  0  0  0
   59.1800   33.6800   46.9010 S   0  0  0  0  0  0  0  0  0  0  0  0
   60.0230   34.7460   45.7580 C   0  0  0  0  0  0  0  0  0  0  0  0
   59.8950   33.6970   48.2240 O   0  0  0  0  0  0  0  0  0  0  0  0
   57.7980   34.2200   47.1410 O   0  0  0  0  0  0  0  0  0  0  0  0
   65.5454   32.6049   50.7405 H   0  0  0  0  0  0  0  0  0  0  0  0
   65.2324   31.7433   49.1958 H   0  0  0  0  0  0  0  0  0  0  0  0
   65.4948   33.5203   49.1958 H   0  0  0  0  0  0  0  0  0  0  0  0
   63.1631   32.1181   50.5975 H   0  0  0  0  0  0  0  0  0  0  0  0
   63.4043   33.8916   50.3747 H   0  0  0  0  0  0  0  0  0  0  0  0
   62.2148   34.7362   47.9785 H   0  0  0  0  0  0  0  0  0  0  0  0
   63.9942   34.5810   48.2911 H   0  0  0  0  0  0  0  0  0  0  0  0
   64.1080   33.0417   46.2780 H   0  0  0  0  0  0  0  0  0  0  0  0
   62.4139   33.5120   45.9101 H   0  0  0  0  0  0  0  0  0  0  0  0
   63.7111   34.7545   45.9101 H   0  0  0  0  0  0  0  0  0  0  0  0
   63.9700   32.0345   47.0069 H   0  0  0  0  0  0  0  0  0  0  0  0
   63.9146   31.0151   48.5118 H   0  0  0  0  0  0  0  0  0  0  0  0
   62.1411   31.0226   46.1650 H   0  0  0  0  0  0  0  0  0  0  0  0
   62.3869   29.7902   47.5043 H   0  0  0  0  0  0  0  0  0  0  0  0
   60.7090   30.5900   48.6880 H   0  0  0  0  0  0  0  0  0  0  0  0
   60.9070   32.1570   48.0940 H   0  0  0  0  0  0  0  0  0  0  0  0
   60.6111   35.4897   46.3157 H   0  0  0  0  0  0  0  0  0  0  0  0
   60.6945   34.1472   45.1251 H   0  0  0  0  0  0  0  0  0  0  0  0
   59.2856   35.2614   45.1251 H   0  0  0  0  0  0  0  0  0  0  0  0
  1  2  1  0
  2  3  1  0
  3  4  1  0
  4  5  1  0
  3  6  1  0
  6  7  1  0
  7  8  1  0
  8  9  1  0
  9 10  2  0
 10 11  1  0
 10 12  1  0
 12 13  1  0
 12 14  2  0
 14 15  1  0
 15 16  3  0
 14 17  1  0
 17 18  1  0
 17 19  2  0
 19 20  1  0
 20 21  1  0
 20 22  2  0
 20 23  2  0
 19  9  1  0
  1 24  1  0
  1 25  1  0
  1 26  1  0
  2 27  1  0
  2 28  1  0
  4 29  1  0
  4 30  1  0
  5 31  1  0
  5 32  1  0
  5 33  1  0
  6 34  1  0
  6 35  1  0
  7 36  1  0
  7 37  1  0
  8 38  1  0
  8 39  1  0
 21 40  1  0
 21 41  1  0
 21 42  1  0
M  CHG  1   8   1
M  END
>  <UniqueID>  (3) 
3

>  <SMILES>  (3) 
CCN(CC)CC[NH2+]c1c(Cl)c(Cl)c(C#N)c(Cl)c1S(C)(=O)=O

>  <Energy>  (3) 
54.78071259937374

>  <Genealogy>  (3) 
CCN(CC)CC[NH2+]c1c(Cl)c(Cl)c(C#N)c(Cl)c1S(C)(=O)=O (protonated)
CCN(CC)CC[NH2+]c1c(Cl)c(Cl)c(C#N)c(Cl)c1S(C)(=O)=O (3D coordinates assigned)
CCN(CC)CC[NH2+]c1c(Cl)c(Cl)c(C#N)c(Cl)c1S(C)(=O)=O (optimized conformer: 54.78071259937374 kcal/mol)

>  <smiles>  (3) 
CCN(CC)CCNc1c(Cl)c(Cl)c(C#N)c(Cl)c1S(C)(=O)=O

>  <score_type>  (3) 
oracle

>  <origin>  (3) 
adg

>  <m_score__min__energy>  (3) 
-5.6100000000000003

>  <m_primary>  (3) 
energy

$$$$
3:0
     RDKit          3D

 44 47  0  0  0  0  0  0  0  0999 V2000
   54.2386   30.4430   44.0297 H   0  0  0  0  0  0  0  0  0  0  0  0
   55.2580   30.1960   44.3610 C   0  0  0  0  0  0  0  0  0  0  0  0
   55.5290   28.9670   44.8510 N   0  0  0  0  0  0  0  0  0  0  0  0
   56.7640   28.6250   45.2980 C   0  0  0  0  0  0  0  0  0  0  0  0
   56.9530   27.3350   45.8040 C   0  0  0  0  0  0  0  0  0  0  0  0
   56.1191   26.6177   45.7974 H   0  0  0  0  0  0  0  0  0  0  0  0
   58.1900   26.9530   46.3160 C   0  0  0  0  0  0  0  0  0  0  0  0
   58.4170   25.3350   46.9540 Cl  0  0  0  0  0  0  0  0  0  0  0  0
   59.1330   30.4730   48.9340 C   0  0  0  0  0  0  0  0  0  0  0  0
   58.2369   29.9934   49.3547 H   0  0  0  0  0  0  0  0  0  0  0  0
   59.0310   31.7270   48.3280 C   0  0  0  0  0  0  0  0  0  0  0  0
   58.0549   32.2319   48.2792 H   0  0  0  0  0  0  0  0  0  0  0  0
   60.1700   32.3510   47.7780 C   0  0  0  0  0  0  0  0  0  0  0  0
   60.0970   33.6120   47.1440 C   0  0  0  0  0  0  0  0  0  0  0  0
   58.9400   34.2030   47.0170 N   0  0  0  0  0  0  0  0  0  0  0  0
   57.8060   33.7530   46.2090 C   0  0  0  0  0  0  0  0  0  0  0  0
   56.8742   34.1609   46.6276 H   0  0  0  0  0  0  0  0  0  0  0  0
   57.7655   32.6538   46.2187 H   0  0  0  0  0  0  0  0  0  0  0  0
   57.9730   34.2420   44.7650 C   0  0  0  0  0  0  0  0  0  0  0  0
   58.7336   35.0364   44.7484 H   0  0  0  0  0  0  0  0  0  0  0  0
   56.9938   34.6086   44.4234 H   0  0  0  0  0  0  0  0  0  0  0  0
   58.4110   33.1200   43.8030 C   0  0  0  0  0  0  0  0  0  0  0  0
   59.4173   33.3528   43.4246 H   0  0  0  0  0  0  0  0  0  0  0  0
   57.6734   33.0717   42.9884 H   0  0  0  0  0  0  0  0  0  0  0  0
   58.4450   31.8080   44.4500 N   0  0  0  0  0  0  0  0  0  0  0  0
   57.5750   30.8580   44.6860 C   0  0  0  0  0  0  0  0  0  0  0  0
   56.2650   31.1480   44.2750 C   0  0  0  0  0  0  0  0  0  0  0  0
   56.0319   32.1469   43.8778 H   0  0  0  0  0  0  0  0  0  0  0  0
   62.4940   33.5130   46.7760 C   0  0  0  0  0  0  0  0  0  0  0  0
   63.4174   33.9697   46.3903 H   0  0  0  0  0  0  0  0  0  0  0  0
   62.5430   32.2920   47.3680 N   0  0  0  0  0  0  0  0  0  0  0  0
   63.4700   31.8130   47.4370 H   0  0  0  0  0  0  0  0  0  0  0  0
   61.4240   31.6960   47.8710 C   0  0  0  0  0  0  0  0  0  0  0  0
   61.5100   30.4360   48.4830 C   0  0  0  0  0  0  0  0  0  0  0  0
   62.4821   29.9256   48.5499 H   0  0  0  0  0  0  0  0  0  0  0  0
   60.3670   29.8260   49.0080 C   0  0  0  0  0  0  0  0  0  0  0  0
   60.4850   28.2490   49.7680 Cl  0  0  0  0  0  0  0  0  0  0  0  0
   59.2380   27.8690   46.3430 C   0  0  0  0  0  0  0  0  0  0  0  0
   60.2095   27.5740   46.7662 H   0  0  0  0  0  0  0  0  0  0  0  0
   59.0660   29.1600   45.8370 C   0  0  0  0  0  0  0  0  0  0  0  0
   59.9013   29.8742   45.8848 H   0  0  0  0  0  0  0  0  0  0  0  0
   57.8370   29.5660   45.2640 C   0  0  0  0  0  0  0  0  0  0  0  0
   61.2820   34.1930   46.6530 C   0  0  0  0  0  0  0  0  0  0  0  0
   61.2521   35.1822   46.1728 H   0  0  0  0  0  0  0  0  0  0  0  0
  1  2  1  0
  2  3  1  0
  3  4  1  0
  4  5  2  0
  5  6  1  0
  5  7  1  0
  7  8  1  0
  7  9  2  0
  9 10  1  0
  9 11  1  0
 11 12  1  0
 11 13  2  0
 13 14  1  0
 14 15  2  0
 15 16  1  0
 16 17  1  0
 16 18  1  0
 16 19  1  0
 19 20  1  0
 19 21  1  0
 19 22  1  0
 22 23  1  0
 22 24  1  0
 22 25  1  0
 25 26  2  0
 26 27  1  0
 27 28  1  0
 27 29  2  0
 29 30  1  0
 29 31  1  0
 31 32  1  0
 31 33  1  0
 33 34  2  0
 34 35  1  0
 34 36  1  0
 36 37  1  0
 36 38  2  0
 38 39  1  0
 38 40  1  0
 40 41  1  0
 40 42  2  0
 14 43  1  0
 43 44  1  0
 43  2  2  0
 13  4  1  0
 42 26  1  0
 42 33  1  0
M  CHG  1   3  -1
M  END
>  <UniqueID>  (4) 
4

>  <SMILES>  (4) 
Clc1ccc2/c(=N\CCC/N=c3\cc[nH]c4cc(Cl)ccc34)cc[n-]c2c1

>  <Energy>  (4) 
69.47360595085351

>  <Genealogy>  (4) 
Clc1ccc2c(=NCCCN=c3cc[nH]c4cc(Cl)ccc34)cc[n-]c2c1 (protonated)
Clc1ccc2/c(=N\CCC/N=c3\cc[nH]c4cc(Cl)ccc34)cc[n-]c2c1 (cis-trans isomerization)
Clc1ccc2/c(=N\CCC/N=c3\cc[nH]c4cc(Cl)ccc34)cc[n-]c2c1 (3D coordinates assigned)
Clc1ccc2/c(=N\CCC/N=c3\cc[nH]c4cc(Cl)ccc34)cc[n-]c2c1 (optimized conformer: 69.47360595085351 kcal/mol)

>  <smiles>  (4) 
Clc1ccc2c(=NCCCN=c3cc[nH]c4cc(Cl)ccc34)cc[nH]c2c1

>  <score_type>  (4) 
oracle

>  <origin>  (4) 
adg

>  <m_score__min__energy>  (4) 
-10.19

>  <m_primary>  (4) 
energy

$$$$
4:0
     RDKit          3D

 72 75  0  0  0  0  0  0  0  0999 V2000
   57.4540   34.1800   44.9100 C   0  0  0  0  0  0  0  0  0  0  0  0
   58.1520   33.3550   45.9870 C   0  0  0  0  0  0  0  0  0  0  0  0
   57.7510   31.9290   45.9400 N   0  0  0  0  0  0  0  0  0  0  0  0
   57.0070   31.6810   44.6900 C   0  0  0  0  0  0  0  0  0  0  0  0
   58.9120   31.0060   46.0370 C   0  0  0  0  0  0  0  0  0  0  0  0
   59.2350   30.6660   47.4980 C   0  0  0  0  0  0  0  0  0  0  0  0
   58.8840   31.7670   48.3980 N   0  0  0  0  0  0  0  0  0  0  0  0
   59.5800   31.9980   49.6360 C   0  0  0  0  0  0  0  0  0  0  0  0
   58.8960   31.8120   50.8500 C   0  0  0  0  0  0  0  0  0  0  0  0
   57.4850   31.7550   50.8970 C   0  0  0  0  0  0  0  0  0  0  0  0
   56.8200   31.6140   52.1140 C   0  0  0  0  0  0  0  0  0  0  0  0
   57.5440   31.5350   53.3000 C   0  0  0  0  0  0  0  0  0  0  0  0
   58.9380   31.5550   53.2710 C   0  0  0  0  0  0  0  0  0  0  0  0
   59.6410   31.6500   52.0430 C   0  0  0  0  0  0  0  0  0  0  0  0
   61.0170   31.5560   51.9820 N   0  0  0  0  0  0  0  0  0  0  0  0
   61.7620   30.9760   53.1220 C   0  0  0  0  0  0  0  0  0  0  0  0
   61.6890   31.9750   50.8450 C   0  0  0  0  0  0  0  0  0  0  0  0
   63.0950   32.1030   50.8370 C   0  0  0  0  0  0  0  0  0  0  0  0
   63.8090   32.4710   49.6900 C   0  0  0  0  0  0  0  0  0  0  0  0
   65.2590   32.4770   49.7410 N   0  0  0  0  0  0  0  0  0  0  0  0
   65.7640   33.4520   50.7400 C   0  0  0  0  0  0  0  0  0  0  0  0
   66.6440   32.7990   51.8230 C   0  0  0  0  0  0  0  0  0  0  0  0
   67.4710   31.6280   51.2730 C   0  0  0  0  0  0  0  0  0  0  0  0
   66.6170   30.4340   51.0860 N   0  0  0  0  0  0  0  0  0  0  0  0
   67.4450   29.2280   50.9280 C   0  0  0  0  0  0  0  0  0  0  0  0
   65.7010   30.2510   52.2250 C   0  0  0  0  0  0  0  0  0  0  0  0
   63.0950   32.8620   48.5320 C   0  0  0  0  0  0  0  0  0  0  0  0
   63.7700   33.3090   47.3720 C   0  0  0  0  0  0  0  0  0  0  0  0
   63.0660   33.8420   46.2960 C   0  0  0  0  0  0  0  0  0  0  0  0
   61.6850   33.9690   46.3640 C   0  0  0  0  0  0  0  0  0  0  0  0
   60.9950   33.5050   47.4810 C   0  0  0  0  0  0  0  0  0  0  0  0
   61.6700   32.8570   48.5470 C   0  0  0  0  0  0  0  0  0  0  0  0
   60.9710   32.2850   49.6590 C   0  0  0  0  0  0  0  0  0  0  0  0
   56.8134   34.9372   45.3857 H   0  0  0  0  0  0  0  0  0  0  0  0
   58.2083   34.6789   44.2839 H   0  0  0  0  0  0  0  0  0  0  0  0
   56.8370   33.5187   44.2839 H   0  0  0  0  0  0  0  0  0  0  0  0
   59.2397   33.4233   45.8377 H   0  0  0  0  0  0  0  0  0  0  0  0
   57.8593   33.7585   46.9676 H   0  0  0  0  0  0  0  0  0  0  0  0
   55.9887   31.3416   44.9306 H   0  0  0  0  0  0  0  0  0  0  0  0
   56.9548   32.6103   44.1038 H   0  0  0  0  0  0  0  0  0  0  0  0
   57.5229   30.9062   44.1038 H   0  0  0  0  0  0  0  0  0  0  0  0
   58.6771   30.0771   45.4967 H   0  0  0  0  0  0  0  0  0  0  0  0
   59.7880   31.5032   45.5950 H   0  0  0  0  0  0  0  0  0  0  0  0
   58.6664   29.7709   47.7903 H   0  0  0  0  0  0  0  0  0  0  0  0
   60.3174   30.4875   47.5785 H   0  0  0  0  0  0  0  0  0  0  0  0
   58.0740   32.3750   48.1420 H   0  0  0  0  0  0  0  0  0  0  0  0
   56.9057   31.8225   49.9643 H   0  0  0  0  0  0  0  0  0  0  0  0
   55.7213   31.5651   52.1370 H   0  0  0  0  0  0  0  0  0  0  0  0
   57.0158   31.4567   54.2617 H   0  0  0  0  0  0  0  0  0  0  0  0
   59.5006   31.4962   54.2144 H   0  0  0  0  0  0  0  0  0  0  0  0
   61.3163   31.3230   54.0659 H   0  0  0  0  0  0  0  0  0  0  0  0
   61.7099   29.8783   53.0736 H   0  0  0  0  0  0  0  0  0  0  0  0
   62.8134   31.2957   53.0736 H   0  0  0  0  0  0  0  0  0  0  0  0
   63.6501   31.9064   51.7661 H   0  0  0  0  0  0  0  0  0  0  0  0
   65.6080   31.5170   49.9660 H   0  0  0  0  0  0  0  0  0  0  0  0
   65.6540   32.6730   48.7920 H   0  0  0  0  0  0  0  0  0  0  0  0
   66.3595   34.2144   50.2165 H   0  0  0  0  0  0  0  0  0  0  0  0
   64.8903   33.8904   51.2445 H   0  0  0  0  0  0  0  0  0  0  0  0
   67.3302   33.5581   52.2265 H   0  0  0  0  0  0  0  0  0  0  0  0
   65.9785   32.4036   52.6045 H   0  0  0  0  0  0  0  0  0  0  0  0
   67.9077   31.9160   50.3053 H   0  0  0  0  0  0  0  0  0  0  0  0
   68.2681   31.3866   51.9915 H   0  0  0  0  0  0  0  0  0  0  0  0
   67.7144   28.8357   51.9197 H   0  0  0  0  0  0  0  0  0  0  0  0
   66.8794   28.4650   50.3731 H   0  0  0  0  0  0  0  0  0  0  0  0
   68.3603   29.4817   50.3731 H   0  0  0  0  0  0  0  0  0  0  0  0
   66.2594   30.3626   53.1662 H   0  0  0  0  0  0  0  0  0  0  0  0
   64.9038   31.0076   52.1797 H   0  0  0  0  0  0  0  0  0  0  0  0
   65.2558   29.2462   52.1797 H   0  0  0  0  0  0  0  0  0  0  0  0
   64.8662   33.2344   47.3196 H   0  0  0  0  0  0  0  0  0  0  0  0
   63.6038   34.1627   45.3916 H   0  0  0  0  0  0  0  0  0  0  0  0
   61.1351   34.4369   45.5341 H   0  0  0  0  0  0  0  0  0  0  0  0
   59.9053   33.6437   47.5378 H   0  0  0  0  0  0  0  0  0  0  0  0
  1  2  1  0
  2  3  1  0
  3  4  1  0
  3  5  1  0
  5  6  1  0
  6  7  1  0
  7  8  1  0
  8  9  2  0
  9 10  1  0
 10 11  2  0
 11 12  1  0
 12 13  2  0
 13 14  1  0
 14 15  2  0
 15 16  1  0
 15 17  1  0
 17 18  2  0
 18 19  1  0
 19 20  1  0
 20 21  1  0
 21 22  1  0
 22 23  1  0
 23 24  1  0
 24 25  1  0
 24 26  1  0
 19 27  2  0
 27 28  1  0
 28 29  2  0
 29 30  1  0
 30 31  2  0
 31 32  1  0
 32 33  2  0
 33  8  1  0
 14  9  1  0
 33 17  1  0
 32 27  1  0
  1 34  1  0
  1 35  1  0
  1 36  1  0
  2 37  1  0
  2 38  1  0
  4 39  1  0
  4 40  1  0
  4 41  1  0
  5 42  1  0
  5 43  1  0
  6 44  1  0
  6 45  1  0
  7 46  1  0
 10 47  1  0
 11 48  1  0
 12 49  1  0
 13 50  1  0
 16 51  1  0
 16 52  1  0
 16 53  1  0
 18 54  1  0
 20 55  1  0
 20 56  1  0
 21 57  1  0
 21 58  1  0
 22 59  1  0
 22 60  1  0
 23 61  1  0
 23 62  1  0
 25 63  1  0
 25 64  1  0
 25 65  1  0
 26 66  1  0
 26 67  1  0
 26 68  1  0
 28 69  1  0
 29 70  1  0
 30 71  1  0
 31 72  1  0
M  CHG  2  15   1  20   1
M  END
>  <UniqueID>  (5) 
5

>  <SMILES>  (5) 
CCN(C)CCNc1c2ccccc2[n+](C)c2cc([NH2+]CCCN(C)C)c3ccccc3c12

>  <Energy>  (5) 
118.88348343599827

>  <Genealogy>  (5) 
CCN(C)CCNc1c2ccccc2[n+](C)c2cc([NH2+]CCCN(C)C)c3ccccc3c12 (protonated)
CCN(C)CCNc1c2ccccc2[n+](C)c2cc([NH2+]CCCN(C)C)c3ccccc3c12 (3D coordinates assigned)
CCN(C)CCNc1c2ccccc2[n+](C)c2cc([NH2+]CCCN(C)C)c3ccccc3c12 (optimized conformer: 118.88348343599827 kcal/mol)

>  <smiles>  (5) 
CCN(C)CCNc1c2ccccc2[n+](C)c2cc(NCCCN(C)C)c3ccccc3c12

>  <score_type>  (5) 
oracle

>  <origin>  (5) 
adg

>  <m_score__min__energy>  (5) 
-5.7400000000000002

>  <m_primary>  (5) 
energy

$$$$
5:0
     RDKit          3D

 54 56  0  0  0  0  0  0  0  0999 V2000
   59.6280   34.8730   45.6100 C   0  0  0  0  0  0  0  0  0  0  0  0
   58.6100   34.5730   46.7060 C   0  0  0  0  0  0  0  0  0  0  0  0
   58.0400   33.2310   46.5130 N   0  0  0  0  0  0  0  0  0  0  0  0
   57.3750   33.1040   45.2070 C   0  0  0  0  0  0  0  0  0  0  0  0
   57.3730   31.6550   44.7180 C   0  0  0  0  0  0  0  0  0  0  0  0
   57.6170   30.7890   45.8070 O   0  0  0  0  0  0  0  0  0  0  0  0
   58.5560   29.8050   45.4290 C   0  0  0  0  0  0  0  0  0  0  0  0
   58.8640   28.9170   46.6350 C   0  0  0  0  0  0  0  0  0  0  0  0
   59.4880   29.7160   47.8030 C   0  0  0  0  0  0  0  0  0  0  0  0
   59.2730   31.1710   47.6800 N   0  0  0  0  0  0  0  0  0  0  0  0
   60.0170   31.9200   48.6920 C   0  0  0  0  0  0  0  0  0  0  0  0
   61.2750   32.5320   48.4030 C   0  0  0  0  0  0  0  0  0  0  0  0
   61.8400   32.5440   47.0970 C   0  0  0  0  0  0  0  0  0  0  0  0
   63.0500   33.1800   46.8350 C   0  0  0  0  0  0  0  0  0  0  0  0
   63.7250   33.8380   47.8470 C   0  0  0  0  0  0  0  0  0  0  0  0
   63.2080   33.8450   49.1360 C   0  0  0  0  0  0  0  0  0  0  0  0
   62.0000   33.1720   49.4540 C   0  0  0  0  0  0  0  0  0  0  0  0
   61.5210   33.1510   50.7490 N   0  0  0  0  0  0  0  0  0  0  0  0
   62.4060   33.5510   51.8680 C   0  0  0  0  0  0  0  0  0  0  0  0
   60.2280   32.7470   51.0030 C   0  0  0  0  0  0  0  0  0  0  0  0
   59.6160   32.9990   52.2580 C   0  0  0  0  0  0  0  0  0  0  0  0
   58.3400   32.5270   52.5490 C   0  0  0  0  0  0  0  0  0  0  0  0
   57.6310   31.8130   51.5970 C   0  0  0  0  0  0  0  0  0  0  0  0
   56.0260   31.2110   51.9730 Cl  0  0  0  0  0  0  0  0  0  0  0  0
   58.1800   31.5980   50.3350 C   0  0  0  0  0  0  0  0  0  0  0  0
   59.4720   32.0800   50.0000 C   0  0  0  0  0  0  0  0  0  0  0  0
   60.5873   35.1557   46.0680 H   0  0  0  0  0  0  0  0  0  0  0  0
   59.7692   33.9783   44.9859 H   0  0  0  0  0  0  0  0  0  0  0  0
   59.2615   35.7013   44.9859 H   0  0  0  0  0  0  0  0  0  0  0  0
   59.1066   34.6198   47.6864 H   0  0  0  0  0  0  0  0  0  0  0  0
   57.8015   35.3175   46.6599 H   0  0  0  0  0  0  0  0  0  0  0  0
   58.8370   32.5510   46.5130 H   0  0  0  0  0  0  0  0  0  0  0  0
   56.3354   33.4514   45.2999 H   0  0  0  0  0  0  0  0  0  0  0  0
   57.9278   33.7139   44.4773 H   0  0  0  0  0  0  0  0  0  0  0  0
   56.3944   31.4193   44.2745 H   0  0  0  0  0  0  0  0  0  0  0  0
   58.1605   31.5228   43.9615 H   0  0  0  0  0  0  0  0  0  0  0  0
   58.1395   29.1913   44.6166 H   0  0  0  0  0  0  0  0  0  0  0  0
   59.4800   30.2894   45.0802 H   0  0  0  0  0  0  0  0  0  0  0  0
   57.9287   28.4538   46.9822 H   0  0  0  0  0  0  0  0  0  0  0  0
   59.5929   28.1567   46.3178 H   0  0  0  0  0  0  0  0  0  0  0  0
   59.0358   29.3723   48.7450 H   0  0  0  0  0  0  0  0  0  0  0  0
   60.5734   29.5388   47.7828 H   0  0  0  0  0  0  0  0  0  0  0  0
   58.2540   31.3800   47.7730 H   0  0  0  0  0  0  0  0  0  0  0  0
   59.4620   31.4630   46.7030 H   0  0  0  0  0  0  0  0  0  0  0  0
   61.3088   32.0395   46.2765 H   0  0  0  0  0  0  0  0  0  0  0  0
   63.4711   33.1592   45.8190 H   0  0  0  0  0  0  0  0  0  0  0  0
   64.6712   34.3557   47.6310 H   0  0  0  0  0  0  0  0  0  0  0  0
   63.7473   34.3846   49.9285 H   0  0  0  0  0  0  0  0  0  0  0  0
   61.9113   33.3274   52.8247 H   0  0  0  0  0  0  0  0  0  0  0  0
   63.3518   32.9928   51.8050 H   0  0  0  0  0  0  0  0  0  0  0  0
   62.6120   34.6297   51.8050 H   0  0  0  0  0  0  0  0  0  0  0  0
   60.1616   33.5795   53.0165 H   0  0  0  0  0  0  0  0  0  0  0  0
   57.8939   32.7209   53.5356 H   0  0  0  0  0  0  0  0  0  0  0  0
   57.6002   31.0432   49.5827 H   0  0  0  0  0  0  0  0  0  0  0  0
  1  2  1  0
  2  3  1  0
  3  4  1  0
  4  5  1  0
  5  6  1  0
  6  7  1  0
  7  8  1  0
  8  9  1  0
  9 10  1  0
 10 11  1  0
 11 12  2  0
 12 13  1  0
 13 14  2  0
 14 15  1  0
 15 16  2  0
 16 17  1  0
 17 18  2  0
 18 19  1  0
 18 20  1  0
 20 21  2  0
 21 22  1  0
 22 23  2  0
 23 24  1  0
 23 25  1  0
 25 26  2  0
 26 11  1  0
 17 12  1  0
 26 20  1  0
  1 27  1  0
  1 28  1  0
  1 29  1  0
  2 30  1  0
  2 31  1  0
  3 32  1  0
  4 33  1  0
  4 34  1  0
  5 35  1  0
  5 36  1  0
  7 37  1  0
  7 38  1  0
  8 39  1  0
  8 40  1  0
  9 41  1  0
  9 42  1  0
 10 43  1  0
 10 44  1  0
 13 45  1  0
 14 46  1  0
 15 47  1  0
 16 48  1  0
 19 49  1  0
 19 50  1  0
 19 51  1  0
 21 52  1  0
 22 53  1  0
 25 54  1  0
M  CHG  2  10   1  18   1
M  END
>  <UniqueID>  (6) 
6

>  <SMILES>  (6) 
CCNCCOCCC[NH2+]c1c2ccccc2[n+](C)c2ccc(Cl)cc12

>  <Energy>  (6) 
77.44643939530211

>  <Genealogy>  (6) 
CCNCCOCCC[NH2+]c1c2ccccc2[n+](C)c2ccc(Cl)cc12 (protonated)
CCNCCOCCC[NH2+]c1c2ccccc2[n+](C)c2ccc(Cl)cc12 (3D coordinates assigned)
CCNCCOCCC[NH2+]c1c2ccccc2[n+](C)c2ccc(Cl)cc12 (optimized conformer: 77.44643939530211 kcal/mol)

>  <smiles>  (6) 
CCNCCOCCCNc1c2ccccc2[n+](C)c2ccc(Cl)cc12

>  <score_type>  (6) 
oracle

>  <origin>  (6) 
adg

>  <m_score__min__energy>  (6) 
-3.5699999999999998

>  <m_primary>  (6) 
energy

$$$$
6:0
     RDKit          3D

 70 72  0  0  0  0  0  0  0  0999 V2000
   63.4120   33.4490   46.7370 C   0  0  0  0  0  0  0  0  0  0  0  0
   63.3900   32.2150   47.6330 C   0  0  0  0  0  0  0  0  0  0  0  0
   62.3830   32.3830   48.7060 N   0  0  0  0  0  0  0  0  0  0  0  0
   62.7650   33.4830   49.6080 C   0  0  0  0  0  0  0  0  0  0  0  0
   62.1890   31.1310   49.4700 C   0  0  0  0  0  0  0  0  0  0  0  0
   60.7000   30.9310   49.7790 C   0  0  0  0  0  0  0  0  0  0  0  0
   60.0240   30.0560   48.7090 C   0  0  0  0  0  0  0  0  0  0  0  0
   60.6100   30.2690   47.3710 N   0  0  0  0  0  0  0  0  0  0  0  0
   59.6170   30.7750   46.4270 C   0  0  0  0  0  0  0  0  0  0  0  0
   59.4090   32.1780   46.3000 C   0  0  0  0  0  0  0  0  0  0  0  0
   59.9470   33.1030   47.2320 C   0  0  0  0  0  0  0  0  0  0  0  0
   59.6900   34.4670   47.1240 C   0  0  0  0  0  0  0  0  0  0  0  0
   58.8890   34.9460   46.0980 C   0  0  0  0  0  0  0  0  0  0  0  0
   58.3690   34.0680   45.1520 C   0  0  0  0  0  0  0  0  0  0  0  0
   58.6470   32.6780   45.2090 C   0  0  0  0  0  0  0  0  0  0  0  0
   58.1960   31.8210   44.2300 N   0  0  0  0  0  0  0  0  0  0  0  0
   57.7480   32.3610   42.9260 C   0  0  0  0  0  0  0  0  0  0  0  0
   58.1740   30.4610   44.4610 C   0  0  0  0  0  0  0  0  0  0  0  0
   57.4350   29.5950   43.6200 C   0  0  0  0  0  0  0  0  0  0  0  0
   57.4120   28.2240   43.8340 C   0  0  0  0  0  0  0  0  0  0  0  0
   58.0880   27.6640   44.9090 C   0  0  0  0  0  0  0  0  0  0  0  0
   57.9790   26.2730   45.0920 O   0  0  0  0  0  0  0  0  0  0  0  0
   57.5730   25.3220   44.1070 C   0  0  0  0  0  0  0  0  0  0  0  0
   57.0640   24.0360   44.7670 C   0  0  0  0  0  0  0  0  0  0  0  0
   56.6620   22.9990   43.6910 C   0  0  0  0  0  0  0  0  0  0  0  0
   57.1380   21.6110   43.9380 N   0  0  0  0  0  0  0  0  0  0  0  0
   58.6020   21.4920   43.7450 C   0  0  0  0  0  0  0  0  0  0  0  0
   56.7460   21.1390   45.2860 C   0  0  0  0  0  0  0  0  0  0  0  0
   56.5110   20.8290   43.0040 O   0  0  0  0  0  0  0  0  0  0  0  0
   58.8160   28.4990   45.7710 C   0  0  0  0  0  0  0  0  0  0  0  0
   58.8840   29.9050   45.5640 C   0  0  0  0  0  0  0  0  0  0  0  0
   63.4281   34.3549   47.3608 H   0  0  0  0  0  0  0  0  0  0  0  0
   64.3099   33.4251   46.1020 H   0  0  0  0  0  0  0  0  0  0  0  0
   62.5139   33.4571   46.1020 H   0  0  0  0  0  0  0  0  0  0  0  0
   63.1345   31.3316   47.0294 H   0  0  0  0  0  0  0  0  0  0  0  0
   64.3826   32.0829   48.0883 H   0  0  0  0  0  0  0  0  0  0  0  0
   62.6517   33.1569   50.6524 H   0  0  0  0  0  0  0  0  0  0  0  0
   63.8127   33.7622   49.4226 H   0  0  0  0  0  0  0  0  0  0  0  0
   62.1158   34.3514   49.4226 H   0  0  0  0  0  0  0  0  0  0  0  0
   62.5552   30.2810   48.8756 H   0  0  0  0  0  0  0  0  0  0  0  0
   62.7488   31.1939   50.4148 H   0  0  0  0  0  0  0  0  0  0  0  0
   60.5992   30.4419   50.7591 H   0  0  0  0  0  0  0  0  0  0  0  0
   60.2096   31.9156   49.7855 H   0  0  0  0  0  0  0  0  0  0  0  0
   60.1457   28.9984   48.9860 H   0  0  0  0  0  0  0  0  0  0  0  0
   58.9609   30.3349   48.6632 H   0  0  0  0  0  0  0  0  0  0  0  0
   61.0160   29.3760   47.0170 H   0  0  0  0  0  0  0  0  0  0  0  0
   61.4480   30.8700   47.4830 H   0  0  0  0  0  0  0  0  0  0  0  0
   60.5784   32.7357   48.0545 H   0  0  0  0  0  0  0  0  0  0  0  0
   60.1232   35.1665   47.8541 H   0  0  0  0  0  0  0  0  0  0  0  0
   58.6646   36.0209   46.0321 H   0  0  0  0  0  0  0  0  0  0  0  0
   57.7310   34.4587   44.3456 H   0  0  0  0  0  0  0  0  0  0  0  0
   57.0539   33.1976   43.0945 H   0  0  0  0  0  0  0  0  0  0  0  0
   58.6199   32.7167   42.3574 H   0  0  0  0  0  0  0  0  0  0  0  0
   57.2374   31.5698   42.3574 H   0  0  0  0  0  0  0  0  0  0  0  0
   56.8666   30.0178   42.7785 H   0  0  0  0  0  0  0  0  0  0  0  0
   56.8524   27.5746   43.1447 H   0  0  0  0  0  0  0  0  0  0  0  0
   56.7678   25.7568   43.4966 H   0  0  0  0  0  0  0  0  0  0  0  0
   58.4407   25.0749   43.4777 H   0  0  0  0  0  0  0  0  0  0  0  0
   57.8596   23.6133   45.3982 H   0  0  0  0  0  0  0  0  0  0  0  0
   56.1818   24.2746   45.3793 H   0  0  0  0  0  0  0  0  0  0  0  0
   55.5637   22.9767   43.6337 H   0  0  0  0  0  0  0  0  0  0  0  0
   57.1448   23.3252   42.7580 H   0  0  0  0  0  0  0  0  0  0  0  0
   59.0990   21.4516   44.7255 H   0  0  0  0  0  0  0  0  0  0  0  0
   58.8243   20.5728   43.1831 H   0  0  0  0  0  0  0  0  0  0  0  0
   58.9698   22.3632   43.1831 H   0  0  0  0  0  0  0  0  0  0  0  0
   57.2520   21.7483   46.0494 H   0  0  0  0  0  0  0  0  0  0  0  0
   55.6565   21.2329   45.4049 H   0  0  0  0  0  0  0  0  0  0  0  0
   57.0383   20.0852   45.4049 H   0  0  0  0  0  0  0  0  0  0  0  0
   56.9340   19.9280   43.0030 H   0  0  0  0  0  0  0  0  0  0  0  0
   59.3464   28.0559   46.6267 H   0  0  0  0  0  0  0  0  0  0  0  0
  1  2  1  0
  2  3  1  0
  3  4  1  0
  3  5  1  0
  5  6  1  0
  6  7  1  0
  7  8  1  0
  8  9  1  0
  9 10  2  0
 10 11  1  0
 11 12  2  0
 12 13  1  0
 13 14  2  0
 14 15  1  0
 15 16  2  0
 16 17  1  0
 16 18  1  0
 18 19  2  0
 19 20  1  0
 20 21  2  0
 21 22  1  0
 22 23  1  0
 23 24  1  0
 24 25  1  0
 25 26  1  0
 26 27  1  0
 26 28  1  0
 26 29  1  0
 21 30  1  0
 30 31  2  0
 31  9  1  0
 15 10  1  0
 31 18  1  0
  1 32  1  0
  1 33  1  0
  1 34  1  0
  2 35  1  0
  2 36  1  0
  4 37  1  0
  4 38  1  0
  4 39  1  0
  5 40  1  0
  5 41  1  0
  6 42  1  0
  6 43  1  0
  7 44  1  0
  7 45  1  0
  8 46  1  0
  8 47  1  0
 11 48  1  0
 12 49  1  0
 13 50  1  0
 14 51  1  0
 17 52  1  0
 17 53  1  0
 17 54  1  0
 19 55  1  0
 20 56  1  0
 23 57  1  0
 23 58  1  0
 24 59  1  0
 24 60  1  0
 25 61  1  0
 25 62  1  0
 27 63  1  0
 27 64  1  0
 27 65  1  0
 28 66  1  0
 28 67  1  0
 28 68  1  0
 29 69  1  0
 30 70  1  0
M  CHG  3   8   1  16   1  26   1
M  END
>  <UniqueID>  (7) 
7

>  <SMILES>  (7) 
CCN(C)CCC[NH2+]c1c2ccccc2[n+](C)c2ccc(OCCC[N+](C)(C)O)cc12

>  <Energy>  (7) 
100.66861480164188

>  <Genealogy>  (7) 
CCN(C)CCC[NH2+]c1c2ccccc2[n+](C)c2ccc(OCCC[N+](C)(C)O)cc12 (protonated)
CCN(C)CCC[NH2+]c1c2ccccc2[n+](C)c2ccc(OCCC[N+](C)(C)O)cc12 (3D coordinates assigned)
CCN(C)CCC[NH2+]c1c2ccccc2[n+](C)c2ccc(OCCC[N+](C)(C)O)cc12 (optimized conformer: 100.66861480164188 kcal/mol)

>  <smiles>  (7) 
CCN(C)CCCNc1c2ccccc2[n+](C)c2ccc(OCCC[N+](C)(C)[O-])cc12

>  <score_type>  (7) 
oracle

>  <origin>  (7) 
adg

>  <m_score__min__energy>  (7) 
-4.2300000000000004

>  <m_primary>  (7) 
energy

$$$$
7:0
     RDKit          3D

 54 56  0  0  0  0  0  0  0  0999 V2000
   58.0830   27.0580   42.6570 C   0  0  0  0  0  0  0  0  0  0  0  0
   58.2720   27.4590   44.1260 C   0  0  0  0  0  0  0  0  0  0  0  0
   58.8150   28.8320   44.2850 N   0  0  2  0  0  0  0  0  0  0  0  0
   60.2140   28.7900   44.7620 C   0  0  0  0  0  0  0  0  0  0  0  0
   57.9640   29.6000   45.2310 C   0  0  0  0  0  0  0  0  0  0  0  0
   58.0230   31.0970   44.9800 C   0  0  0  0  0  0  0  0  0  0  0  0
   57.8240   31.5690   43.6730 C   0  0  0  0  0  0  0  0  0  0  0  0
   57.8400   32.8990   43.4080 N   0  0  0  0  0  0  0  0  0  0  0  0
   58.0590   33.8180   44.3790 C   0  0  0  0  0  0  0  0  0  0  0  0
   58.2930   33.4120   45.6970 C   0  0  0  0  0  0  0  0  0  0  0  0
   58.2610   32.0370   46.0170 C   0  0  0  0  0  0  0  0  0  0  0  0
   58.5940   31.5790   47.4250 C   0  0  0  0  0  0  0  0  0  0  0  0
   58.6710   32.7220   48.4530 C   0  0  0  0  0  0  0  0  0  0  0  0
   59.2660   33.9580   47.9050 N   0  0  0  0  0  0  0  0  0  0  0  0
   60.7110   33.8380   47.5910 C   0  0  0  0  0  0  0  0  0  0  0  0
   61.4250   32.9730   48.6550 C   0  0  0  0  0  0  0  0  0  0  0  0
   62.0770   31.7290   48.0120 C   0  0  0  0  0  0  0  0  0  0  0  0
   63.2930   32.0780   47.1300 C   0  0  0  0  0  0  0  0  0  0  0  0
   64.1360   33.2500   47.6740 C   0  0  0  0  0  0  0  0  0  0  0  0
   63.9220   33.4670   49.1740 C   0  0  0  0  0  0  0  0  0  0  0  0
   62.4520   33.8000   49.4860 C   0  0  0  0  0  0  0  0  0  0  0  0
   58.4690   34.4560   46.7700 C   0  0  0  0  0  0  0  0  0  0  0  0
   57.6145   26.0641   42.6056 H   0  0  0  0  0  0  0  0  0  0  0  0
   57.4371   27.7941   42.1562 H   0  0  0  0  0  0  0  0  0  0  0  0
   59.0619   27.0283   42.1562 H   0  0  0  0  0  0  0  0  0  0  0  0
   57.2969   27.4064   44.6324 H   0  0  0  0  0  0  0  0  0  0  0  0
   59.0005   26.7628   44.5671 H   0  0  0  0  0  0  0  0  0  0  0  0
   58.8040   29.3060   43.3520 H   0  0  0  0  0  0  0  0  0  0  0  0
   60.2265   28.7896   45.8619 H   0  0  0  0  0  0  0  0  0  0  0  0
   60.7012   27.8768   44.3895 H   0  0  0  0  0  0  0  0  0  0  0  0
   60.7551   29.6723   44.3895 H   0  0  0  0  0  0  0  0  0  0  0  0
   56.9222   29.2643   45.1211 H   0  0  0  0  0  0  0  0  0  0  0  0
   58.3423   29.4156   46.2473 H   0  0  0  0  0  0  0  0  0  0  0  0
   57.6534   30.8530   42.8556 H   0  0  0  0  0  0  0  0  0  0  0  0
   58.0528   34.8893   44.1296 H   0  0  0  0  0  0  0  0  0  0  0  0
   57.8173   30.8718   47.7515 H   0  0  0  0  0  0  0  0  0  0  0  0
   59.5932   31.1208   47.3828 H   0  0  0  0  0  0  0  0  0  0  0  0
   57.6524   32.9487   48.8008 H   0  0  0  0  0  0  0  0  0  0  0  0
   59.3211   32.3816   49.2725 H   0  0  0  0  0  0  0  0  0  0  0  0
   60.8293   33.3682   46.6034 H   0  0  0  0  0  0  0  0  0  0  0  0
   61.1597   34.8423   47.5887 H   0  0  0  0  0  0  0  0  0  0  0  0
   60.6591   32.6208   49.3617 H   0  0  0  0  0  0  0  0  0  0  0  0
   62.4073   31.0519   48.8135 H   0  0  0  0  0  0  0  0  0  0  0  0
   61.3229   31.2584   47.3640 H   0  0  0  0  0  0  0  0  0  0  0  0
   63.9377   31.1895   47.0596 H   0  0  0  0  0  0  0  0  0  0  0  0
   62.9015   32.3903   46.1506 H   0  0  0  0  0  0  0  0  0  0  0  0
   65.1998   33.0345   47.4952 H   0  0  0  0  0  0  0  0  0  0  0  0
   63.8203   34.1650   47.1514 H   0  0  0  0  0  0  0  0  0  0  0  0
   64.2040   32.5503   49.7126 H   0  0  0  0  0  0  0  0  0  0  0  0
   64.5459   34.3141   49.4951 H   0  0  0  0  0  0  0  0  0  0  0  0
   62.2717   33.6035   50.5532 H   0  0  0  0  0  0  0  0  0  0  0  0
   62.3011   34.8563   49.2186 H   0  0  0  0  0  0  0  0  0  0  0  0
   57.4770   34.7563   47.1383 H   0  0  0  0  0  0  0  0  0  0  0  0
   59.0063   35.3079   46.3278 H   0  0  0  0  0  0  0  0  0  0  0  0
  1  2  1  0
  2  3  1  0
  3  4  1  0
  3  5  1  0
  5  6  1  0
  6  7  2  0
  7  8  1  0
  8  9  2  0
  9 10  1  0
 10 11  2  0
 11 12  1  0
 12 13  1  0
 13 14  1  0
 14 15  1  0
 15 16  1  0
 16 17  1  0
 17 18  1  0
 18 19  1  0
 19 20  1  0
 20 21  1  0
 14 22  1  0
 11  6  1  0
 21 16  1  0
 22 10  1  0
  1 23  1  0
  1 24  1  0
  1 25  1  0
  2 26  1  0
  2 27  1  0
  3 28  1  6
  4 29  1  0
  4 30  1  0
  4 31  1  0
  5 32  1  0
  5 33  1  0
  7 34  1  0
  9 35  1  0
 12 36  1  0
 12 37  1  0
 13 38  1  0
 13 39  1  0
 15 40  1  0
 15 41  1  0
 16 42  1  0
 17 43  1  0
 17 44  1  0
 18 45  1  0
 18 46  1  0
 19 47  1  0
 19 48  1  0
 20 49  1  0
 20 50  1  0
 21 51  1  0
 21 52  1  0
 22 53  1  0
 22 54  1  0
M  CHG  1   3   1
M  END
>  <UniqueID>  (8) 
8

>  <SMILES>  (8) 
CC[N@H+](C)Cc1cncc2c1CCN(CC1CCCCC1)C2

>  <Energy>  (8) 
66.92788599320825

>  <Genealogy>  (8) 
CC[NH+](C)Cc1cncc2c1CCN(CC1CCCCC1)C2 (protonated)
CC[N@H+](C)Cc1cncc2c1CCN(CC1CCCCC1)C2 (chirality)
CC[N@H+](C)Cc1cncc2c1CCN(CC1CCCCC1)C2 (3D coordinates assigned)
CC[N@H+](C)Cc1cncc2c1CCN(CC1CCCCC1)C2 (nonaromatic ring conformer: 66.92788599320825 kcal/mol)

>  <smiles>  (8) 
CCN(C)Cc1cncc2c1CCN(CC1CCCCC1)C2

>  <score_type>  (8) 
oracle

>  <origin>  (8) 
adg

>  <m_score__min__energy>  (8) 
-6.4100000000000001

>  <m_primary>  (8) 
energy

$$$$
8:0
     RDKit          3D

 33 34  0  0  0  0  0  0  0  0999 V2000
   57.7740   26.1580   44.1930 C   0  0  0  0  0  0  0  0  0  0  0  0
   58.6020   27.3960   43.8480 C   0  0  0  0  0  0  0  0  0  0  0  0
   57.7400   28.5020   43.3990 N   0  0  0  0  0  0  0  0  0  0  0  0
   57.8450   29.6210   44.3200 C   0  0  0  0  0  0  0  0  0  0  0  0
   58.2220   29.3330   45.6410 C   0  0  0  0  0  0  0  0  0  0  0  0
   58.4970   30.3530   46.5350 C   0  0  0  0  0  0  0  0  0  0  0  0
   58.4550   31.6750   46.1080 C   0  0  0  0  0  0  0  0  0  0  0  0
   58.8080   32.7030   46.9960 C   0  0  0  0  0  0  0  0  0  0  0  0
   58.8100   34.0300   46.5690 C   0  0  0  0  0  0  0  0  0  0  0  0
   58.4730   34.3380   45.2550 C   0  0  0  0  0  0  0  0  0  0  0  0
   58.1120   33.3260   44.3620 C   0  0  0  0  0  0  0  0  0  0  0  0
   58.0660   31.9690   44.7730 C   0  0  0  0  0  0  0  0  0  0  0  0
   57.6770   30.9420   43.9210 N   0  0  0  0  0  0  0  0  0  0  0  0
   57.0150   31.2610   42.6330 C   0  0  0  0  0  0  0  0  0  0  0  0
   57.9670   31.9680   41.6710 C   0  0  0  0  0  0  0  0  0  0  0  0
   57.7055   26.0556   45.2861 H   0  0  0  0  0  0  0  0  0  0  0  0
   56.7638   26.2631   43.7706 H   0  0  0  0  0  0  0  0  0  0  0  0
   58.2569   25.2645   43.7706 H   0  0  0  0  0  0  0  0  0  0  0  0
   59.1601   27.7151   44.7406 H   0  0  0  0  0  0  0  0  0  0  0  0
   59.2928   27.1380   43.0318 H   0  0  0  0  0  0  0  0  0  0  0  0
   57.9830   28.7450   42.4190 H   0  0  0  0  0  0  0  0  0  0  0  0
   56.7460   28.1710   43.3830 H   0  0  0  0  0  0  0  0  0  0  0  0
   58.2997   28.2859   45.9690 H   0  0  0  0  0  0  0  0  0  0  0  0
   58.7480   30.1183   47.5799 H   0  0  0  0  0  0  0  0  0  0  0  0
   59.0841   32.4606   48.0328 H   0  0  0  0  0  0  0  0  0  0  0  0
   59.0780   34.8334   47.2710 H   0  0  0  0  0  0  0  0  0  0  0  0
   58.4908   35.3846   44.9170 H   0  0  0  0  0  0  0  0  0  0  0  0
   57.8593   33.5856   43.3234 H   0  0  0  0  0  0  0  0  0  0  0  0
   56.6680   30.3260   42.1689 H   0  0  0  0  0  0  0  0  0  0  0  0
   56.1703   31.9351   42.8383 H   0  0  0  0  0  0  0  0  0  0  0  0
   58.7201   32.5273   42.2454 H   0  0  0  0  0  0  0  0  0  0  0  0
   58.4688   31.2219   41.0373 H   0  0  0  0  0  0  0  0  0  0  0  0
   57.3978   32.6640   41.0373 H   0  0  0  0  0  0  0  0  0  0  0  0
  1  2  1  0
  2  3  1  0
  3  4  1  0
  4  5  2  0
  5  6  1  0
  6  7  2  0
  7  8  1  0
  8  9  2  0
  9 10  1  0
 10 11  2  0
 11 12  1  0
 12 13  2  0
 13 14  1  0
 14 15  1  0
 13  4  1  0
 12  7  1  0
  1 16  1  0
  1 17  1  0
  1 18  1  0
  2 19  1  0
  2 20  1  0
  3 21  1  0
  3 22  1  0
  5 23  1  0
  6 24  1  0
  8 25  1  0
  9 26  1  0
 10 27  1  0
 11 28  1  0
 14 29  1  0
 14 30  1  0
 15 31  1  0
 15 32  1  0
 15 33  1  0
M  CHG  2   3   1  13   1
M  END
>  <UniqueID>  (9) 
9

>  <SMILES>  (9) 
CC[NH2+]c1ccc2ccccc2[n+]1CC

>  <Energy>  (9) 
44.83678763104257

>  <Genealogy>  (9) 
CC[NH2+]c1ccc2ccccc2[n+]1CC (protonated)
CC[NH2+]c1ccc2ccccc2[n+]1CC (3D coordinates assigned)
CC[NH2+]c1ccc2ccccc2[n+]1CC (optimized conformer: 44.83678763104257 kcal/mol)

>  <smiles>  (9) 
CCNc1ccc2ccccc2[n+]1CC

>  <score_type>  (9) 
oracle

>  <origin>  (9) 
adg

>  <m_score__min__energy>  (9) 
-3.23

>  <m_primary>  (9) 
energy

$$$$
9:0
     RDKit          3D

 55 58  0  0  0  0  0  0  0  0999 V2000
   62.0090   34.2100   50.1690 C   0  0  0  0  0  0  0  0  0  0  0  0
   63.1020   33.5180   49.3530 C   0  0  0  0  0  0  0  0  0  0  0  0
   62.5390   32.5580   48.3730 N   0  0  0  0  0  0  0  0  0  0  0  0
   63.3650   32.4720   47.1410 C   0  0  0  0  0  0  0  0  0  0  0  0
   63.2970   33.7910   46.3750 C   0  0  0  0  0  0  0  0  0  0  0  0
   62.3350   31.2270   49.0040 C   0  0  0  0  0  0  0  0  0  0  0  0
   61.0150   30.5940   48.5400 C   0  0  0  0  0  0  0  0  0  0  0  0
   60.9430   30.4800   47.0840 N   0  0  0  0  0  0  0  0  0  0  0  0
   59.6880   30.1900   46.4490 C   0  0  0  0  0  0  0  0  0  0  0  0
   59.2310   28.8620   46.4070 C   0  0  0  0  0  0  0  0  0  0  0  0
   59.7910   27.8670   47.2390 C   0  0  0  0  0  0  0  0  0  0  0  0
   59.2820   26.5720   47.2420 C   0  0  0  0  0  0  0  0  0  0  0  0
   58.2080   26.2430   46.4210 C   0  0  0  0  0  0  0  0  0  0  0  0
   57.5380   24.6220   46.4650 Cl  0  0  0  0  0  0  0  0  0  0  0  0
   57.6690   27.1990   45.5590 C   0  0  0  0  0  0  0  0  0  0  0  0
   58.2020   28.5130   45.5000 C   0  0  0  0  0  0  0  0  0  0  0  0
   57.7670   29.4340   44.5690 N   0  0  0  0  0  0  0  0  0  0  0  0
   57.0110   28.9760   43.3810 C   0  0  0  0  0  0  0  0  0  0  0  0
   58.0650   30.7750   44.7310 C   0  0  0  0  0  0  0  0  0  0  0  0
   57.4740   31.7600   43.9040 C   0  0  0  0  0  0  0  0  0  0  0  0
   57.8040   33.1020   44.0240 C   0  0  0  0  0  0  0  0  0  0  0  0
   58.6400   33.5350   45.0500 C   0  0  0  0  0  0  0  0  0  0  0  0
   58.8840   34.9100   45.2040 C   0  0  0  0  0  0  0  0  0  0  0  0
   59.6030   35.3780   46.3000 C   0  0  0  0  0  0  0  0  0  0  0  0
   60.0470   34.4860   47.2700 C   0  0  0  0  0  0  0  0  0  0  0  0
   59.8190   33.1150   47.1230 C   0  0  0  0  0  0  0  0  0  0  0  0
   59.1830   32.5990   45.9670 C   0  0  0  0  0  0  0  0  0  0  0  0
   58.9850   31.1960   45.7380 C   0  0  0  0  0  0  0  0  0  0  0  0
   62.2145   34.0799   51.2418 H   0  0  0  0  0  0  0  0  0  0  0  0
   61.9937   35.2827   49.9260 H   0  0  0  0  0  0  0  0  0  0  0  0
   61.0328   33.7650   49.9260 H   0  0  0  0  0  0  0  0  0  0  0  0
   63.6783   34.2822   48.8109 H   0  0  0  0  0  0  0  0  0  0  0  0
   63.7425   32.9568   50.0494 H   0  0  0  0  0  0  0  0  0  0  0  0
   64.4095   32.2638   47.4162 H   0  0  0  0  0  0  0  0  0  0  0  0
   62.9795   31.6631   46.5030 H   0  0  0  0  0  0  0  0  0  0  0  0
   63.2539   34.6274   47.0882 H   0  0  0  0  0  0  0  0  0  0  0  0
   64.1910   33.8942   45.7425 H   0  0  0  0  0  0  0  0  0  0  0  0
   62.3971   33.8017   45.7425 H   0  0  0  0  0  0  0  0  0  0  0  0
   63.1685   30.5654   48.7256 H   0  0  0  0  0  0  0  0  0  0  0  0
   62.2956   31.3591   50.0953 H   0  0  0  0  0  0  0  0  0  0  0  0
   60.9295   29.5892   48.9794 H   0  0  0  0  0  0  0  0  0  0  0  0
   60.1920   31.2447   48.8705 H   0  0  0  0  0  0  0  0  0  0  0  0
   61.6870   30.9290   46.5070 H   0  0  0  0  0  0  0  0  0  0  0  0
   60.6395   28.1190   47.8922 H   0  0  0  0  0  0  0  0  0  0  0  0
   59.7293   25.8075   47.8942 H   0  0  0  0  0  0  0  0  0  0  0  0
   56.8183   26.9301   44.9156 H   0  0  0  0  0  0  0  0  0  0  0  0
   56.1122   28.4315   43.7059 H   0  0  0  0  0  0  0  0  0  0  0  0
   56.7142   29.8463   42.7773 H   0  0  0  0  0  0  0  0  0  0  0  0
   57.6450   28.3100   42.7773 H   0  0  0  0  0  0  0  0  0  0  0  0
   56.7356   31.4541   43.1483 H   0  0  0  0  0  0  0  0  0  0  0  0
   57.4023   33.8295   43.3033 H   0  0  0  0  0  0  0  0  0  0  0  0
   58.5049   35.6203   44.4545 H   0  0  0  0  0  0  0  0  0  0  0  0
   59.8197   36.4519   46.3987 H   0  0  0  0  0  0  0  0  0  0  0  0
   60.5797   34.8609   48.1564 H   0  0  0  0  0  0  0  0  0  0  0  0
   60.1386   32.4252   47.9180 H   0  0  0  0  0  0  0  0  0  0  0  0
  1  2  1  0
  2  3  1  0
  3  4  1  0
  4  5  1  0
  3  6  1  0
  6  7  1  0
  7  8  1  0
  8  9  1  0
  9 10  2  0
 10 11  1  0
 11 12  2  0
 12 13  1  0
 13 14  1  0
 13 15  2  0
 15 16  1  0
 16 17  2  0
 17 18  1  0
 17 19  1  0
 19 20  2  0
 20 21  1  0
 21 22  2  0
 22 23  1  0
 23 24  2  0
 24 25  1  0
 25 26  2  0
 26 27  1  0
 27 28  2  0
 28  9  1  0
 16 10  1  0
 28 19  1  0
 27 22  1  0
  1 29  1  0
  1 30  1  0
  1 31  1  0
  2 32  1  0
  2 33  1  0
  4 34  1  0
  4 35  1  0
  5 36  1  0
  5 37  1  0
  5 38  1  0
  6 39  1  0
  6 40  1  0
  7 41  1  0
  7 42  1  0
  8 43  1  0
 11 44  1  0
 12 45  1  0
 15 46  1  0
 18 47  1  0
 18 48  1  0
 18 49  1  0
 20 50  1  0
 21 51  1  0
 23 52  1  0
 24 53  1  0
 25 54  1  0
 26 55  1  0
M  CHG  1  17   1
M  END
>  <UniqueID>  (10) 
10

>  <SMILES>  (10) 
CCN(CC)CCNc1c2ccc(Cl)cc2[n+](C)c2ccc3ccccc3c12

>  <Energy>  (10) 
101.17754915558153

>  <Genealogy>  (10) 
CCN(CC)CCNc1c2ccc(Cl)cc2[n+](C)c2ccc3ccccc3c12 (3D coordinates assigned)
CCN(CC)CCNc1c2ccc(Cl)cc2[n+](C)c2ccc3ccccc3c12 (optimized conformer: 101.17754915558153 kcal/mol)

>  <smiles>  (10) 
CCN(CC)CCNc1c2ccc(Cl)cc2[n+](C)c2ccc3ccccc3c12

>  <score_type>  (10) 
oracle

>  <origin>  (10) 
adg

>  <m_score__min__energy>  (10) 
-7.0999999999999996

>  <m_primary>  (10) 
energy

$$$$
10:0
     RDKit          3D

 64 67  0  0  0  0  0  0  0  0999 V2000
   58.9610   34.0310   52.0550 C   0  0  0  0  0  0  0  0  0  0  0  0
   60.3140   33.4580   51.6410 C   0  0  0  0  0  0  0  0  0  0  0  0
   60.2930   33.0690   50.2110 N   0  0  0  0  0  0  0  0  0  0  0  0
   58.9100   32.8030   49.7520 C   0  0  0  0  0  0  0  0  0  0  0  0
   58.4870   31.3880   50.1350 C   0  0  0  0  0  0  0  0  0  0  0  0
   60.9460   34.0990   49.3680 C   0  0  0  0  0  0  0  0  0  0  0  0
   62.4520   34.1370   49.6460 C   0  0  0  0  0  0  0  0  0  0  0  0
   63.1470   33.4370   48.6290 O   0  0  0  0  0  0  0  0  0  0  0  0
   62.9360   32.0460   48.7490 C   0  0  0  0  0  0  0  0  0  0  0  0
   62.1780   31.5490   47.5230 C   0  0  0  0  0  0  0  0  0  0  0  0
   60.7710   31.3210   47.8470 N   0  0  0  0  0  0  0  0  0  0  0  0
   59.7970   31.0380   46.8270 C   0  0  0  0  0  0  0  0  0  0  0  0
   59.2550   32.1000   46.0840 C   0  0  0  0  0  0  0  0  0  0  0  0
   59.6680   33.4330   46.3090 C   0  0  0  0  0  0  0  0  0  0  0  0
   59.1280   34.4800   45.5660 C   0  0  0  0  0  0  0  0  0  0  0  0
   58.1770   34.2210   44.5890 C   0  0  0  0  0  0  0  0  0  0  0  0
   57.7730   32.9110   44.3350 C   0  0  0  0  0  0  0  0  0  0  0  0
   58.3200   31.8220   45.0620 C   0  0  0  0  0  0  0  0  0  0  0  0
   57.9530   30.5210   44.8050 N   0  0  0  0  0  0  0  0  0  0  0  0
   57.1990   30.2160   43.5650 C   0  0  0  0  0  0  0  0  0  0  0  0
   58.3400   29.4840   45.6410 C   0  0  0  0  0  0  0  0  0  0  0  0
   57.5130   28.3380   45.6990 C   0  0  0  0  0  0  0  0  0  0  0  0
   56.2690   28.5430   45.6100 O   0  0  0  0  0  0  0  0  0  0  0  0
   57.9560   26.9980   45.7060 C   0  0  0  0  0  0  0  0  0  0  0  0
   57.0760   26.0260   45.1580 C   0  0  0  0  0  0  0  0  0  0  0  0
   57.4560   24.6950   45.0120 C   0  0  0  0  0  0  0  0  0  0  0  0
   58.7150   24.2870   45.4200 C   0  0  0  0  0  0  0  0  0  0  0  0
   59.5820   25.2010   46.0090 C   0  0  0  0  0  0  0  0  0  0  0  0
   59.2200   26.5560   46.1820 C   0  0  0  0  0  0  0  0  0  0  0  0
   60.0830   27.3160   46.9770 C   0  0  0  0  0  0  0  0  0  0  0  0
   60.0480   28.6720   47.2690 C   0  0  0  0  0  0  0  0  0  0  0  0
   59.3860   29.7010   46.5740 C   0  0  0  0  0  0  0  0  0  0  0  0
   58.8950   34.0589   53.1527 H   0  0  0  0  0  0  0  0  0  0  0  0
   58.8568   35.0505   51.6553 H   0  0  0  0  0  0  0  0  0  0  0  0
   58.1563   33.3964   51.6553 H   0  0  0  0  0  0  0  0  0  0  0  0
   61.0934   34.2180   51.7987 H   0  0  0  0  0  0  0  0  0  0  0  0
   60.5267   32.5674   52.2506 H   0  0  0  0  0  0  0  0  0  0  0  0
   58.2266   33.5256   50.2219 H   0  0  0  0  0  0  0  0  0  0  0  0
   58.8711   32.9038   48.6573 H   0  0  0  0  0  0  0  0  0  0  0  0
   58.4599   31.2974   51.2309 H   0  0  0  0  0  0  0  0  0  0  0  0
   57.4875   31.1805   49.7251 H   0  0  0  0  0  0  0  0  0  0  0  0
   59.2086   30.6660   49.7251 H   0  0  0  0  0  0  0  0  0  0  0  0
   60.7787   33.8594   48.3075 H   0  0  0  0  0  0  0  0  0  0  0  0
   60.5135   35.0822   49.6050 H   0  0  0  0  0  0  0  0  0  0  0  0
   62.7928   35.1826   49.6675 H   0  0  0  0  0  0  0  0  0  0  0  0
   62.6536   33.6606   50.6168 H   0  0  0  0  0  0  0  0  0  0  0  0
   63.9055   31.5308   48.8165 H   0  0  0  0  0  0  0  0  0  0  0  0
   62.3508   31.8368   49.6566 H   0  0  0  0  0  0  0  0  0  0  0  0
   62.2479   32.3024   46.7245 H   0  0  0  0  0  0  0  0  0  0  0  0
   62.6241   30.6002   47.1902 H   0  0  0  0  0  0  0  0  0  0  0  0
   60.4560   31.3920   48.8410 H   0  0  0  0  0  0  0  0  0  0  0  0
   60.4240   33.6457   47.0792 H   0  0  0  0  0  0  0  0  0  0  0  0
   59.4556   35.5132   45.7538 H   0  0  0  0  0  0  0  0  0  0  0  0
   57.7410   35.0511   44.0138 H   0  0  0  0  0  0  0  0  0  0  0  0
   57.0180   32.7185   43.5585 H   0  0  0  0  0  0  0  0  0  0  0  0
   56.2087   29.8154   43.8272 H   0  0  0  0  0  0  0  0  0  0  0  0
   57.0777   31.1358   42.9740 H   0  0  0  0  0  0  0  0  0  0  0  0
   57.7513   29.4706   42.9740 H   0  0  0  0  0  0  0  0  0  0  0  0
   56.0685   26.3334   44.8410 H   0  0  0  0  0  0  0  0  0  0  0  0
   56.7570   23.9679   44.5730 H   0  0  0  0  0  0  0  0  0  0  0  0
   59.0286   23.2422   45.2785 H   0  0  0  0  0  0  0  0  0  0  0  0
   60.5719   24.8616   46.3479 H   0  0  0  0  0  0  0  0  0  0  0  0
   60.9107   26.7574   47.4384 H   0  0  0  0  0  0  0  0  0  0  0  0
   60.6117   28.9835   48.1608 H   0  0  0  0  0  0  0  0  0  0  0  0
  1  2  1  0
  2  3  1  0
  3  4  1  0
  4  5  1  0
  3  6  1  0
  6  7  1  0
  7  8  1  0
  8  9  1  0
  9 10  1  0
 10 11  1  0
 11 12  1  0
 12 13  2  0
 13 14  1  0
 14 15  2  0
 15 16  1  0
 16 17  2  0
 17 18  1  0
 18 19  2  0
 19 20  1  0
 19 21  1  0
 21 22  1  0
 22 23  2  0
 22 24  1  0
 24 25  2  0
 25 26  1  0
 26 27  2  0
 27 28  1  0
 28 29  2  0
 29 30  1  0
 30 31  2  0
 31 32  1  0
 32 12  1  0
 18 13  1  0
 32 21  2  0
 29 24  1  0
  1 33  1  0
  1 34  1  0
  1 35  1  0
  2 36  1  0
  2 37  1  0
  4 38  1  0
  4 39  1  0
  5 40  1  0
  5 41  1  0
  5 42  1  0
  6 43  1  0
  6 44  1  0
  7 45  1  0
  7 46  1  0
  9 47  1  0
  9 48  1  0
 10 49  1  0
 10 50  1  0
 11 51  1  0
 14 52  1  0
 15 53  1  0
 16 54  1  0
 17 55  1  0
 20 56  1  0
 20 57  1  0
 20 58  1  0
 25 59  1  0
 26 60  1  0
 27 61  1  0
 28 62  1  0
 30 63  1  0
 31 64  1  0
M  CHG  1  19   1
M  END
>  <UniqueID>  (11) 
11

>  <SMILES>  (11) 
CCN(CC)CCOCCNc1c2ccccc2[n+](C)c2c(=O)c3ccccc3ccc12

>  <Energy>  (11) 
138.7220531045533

>  <Genealogy>  (11) 
CCN(CC)CCOCCNc1c2ccccc2[n+](C)c2c(=O)c3ccccc3ccc12 (3D coordinates assigned)
CCN(CC)CCOCCNc1c2ccccc2[n+](C)c2c(=O)c3ccccc3ccc12 (optimized conformer: 138.7220531045533 kcal/mol)

>  <smiles>  (11) 
CCN(CC)CCOCCNc1c2ccccc2[n+](C)c2c(=O)c3ccccc3ccc12

>  <score_type>  (11) 
oracle

>  <origin>  (11) 
adg

>  <m_score__min__energy>  (11) 
-7.0199999999999996

>  <m_primary>  (11) 
energy

$$$$
11:0
     RDKit          3D

 39 41  0  0  0  0  0  0  0  0999 V2000
   62.2950   31.4930   47.4810 C   0  0  0  0  0  0  0  0  0  0  0  0
   60.8210   31.3170   47.8300 C   0  0  0  0  0  0  0  0  0  0  0  0
   60.1830   30.4650   46.8820 O   0  0  0  0  0  0  0  0  0  0  0  0
   60.0050   29.0910   47.0770 C   0  0  0  0  0  0  0  0  0  0  0  0
   60.1000   28.5860   48.2280 O   0  0  0  0  0  0  0  0  0  0  0  0
   59.7430   28.2140   45.8960 C   0  0  0  0  0  0  0  0  0  0  0  0
   58.2840   27.8640   45.8240 C   0  0  0  0  0  0  0  0  0  0  0  0
   57.2320   28.5610   45.1970 C   0  0  0  0  0  0  0  0  0  0  0  0
   57.3200   29.8700   44.5190 C   0  0  0  0  0  0  0  0  0  0  0  0
   56.9600   29.9850   43.1700 C   0  0  0  0  0  0  0  0  0  0  0  0
   57.0170   31.2300   42.5430 C   0  0  0  0  0  0  0  0  0  0  0  0
   57.4170   32.3290   43.2370 N   0  0  0  0  0  0  0  0  0  0  0  0
   57.7730   32.2530   44.5520 C   0  0  0  0  0  0  0  0  0  0  0  0
   58.1580   33.4930   45.3020 C   0  0  0  0  0  0  0  0  0  0  0  0
   57.7090   31.0210   45.2180 C   0  0  0  0  0  0  0  0  0  0  0  0
   56.0760   27.8490   45.2700 N   0  0  0  0  0  0  0  0  0  0  0  0
   56.3860   26.7300   45.9400 C   0  0  0  0  0  0  0  0  0  0  0  0
   55.5490   25.7090   46.2470 N   0  0  0  0  0  0  0  0  0  0  0  0
   56.0600   24.6360   46.9240 C   0  0  0  0  0  0  0  0  0  0  0  0
   57.4320   24.6070   47.2770 C   0  0  0  0  0  0  0  0  0  0  0  0
   58.2460   25.6530   46.9440 N   0  0  0  0  0  0  0  0  0  0  0  0
   57.7000   26.7040   46.2850 C   0  0  0  0  0  0  0  0  0  0  0  0
   62.8851   31.5635   48.4066 H   0  0  0  0  0  0  0  0  0  0  0  0
   62.6381   30.6294   46.8923 H   0  0  0  0  0  0  0  0  0  0  0  0
   62.4251   32.4131   46.8923 H   0  0  0  0  0  0  0  0  0  0  0  0
   60.7368   30.8711   48.8320 H   0  0  0  0  0  0  0  0  0  0  0  0
   60.3304   32.3014   47.8112 H   0  0  0  0  0  0  0  0  0  0  0  0
   60.0353   28.7442   44.9776 H   0  0  0  0  0  0  0  0  0  0  0  0
   60.3296   27.2891   45.9983 H   0  0  0  0  0  0  0  0  0  0  0  0
   56.6339   29.0976   42.6077 H   0  0  0  0  0  0  0  0  0  0  0  0
   56.7373   31.3230   41.4832 H   0  0  0  0  0  0  0  0  0  0  0  0
   57.4400   33.2510   42.7440 H   0  0  0  0  0  0  0  0  0  0  0  0
   58.0983   33.3008   46.3834 H   0  0  0  0  0  0  0  0  0  0  0  0
   59.1868   33.7776   45.0364 H   0  0  0  0  0  0  0  0  0  0  0  0
   57.4713   34.3102   45.0364 H   0  0  0  0  0  0  0  0  0  0  0  0
   57.9634   30.9578   46.2863 H   0  0  0  0  0  0  0  0  0  0  0  0
   55.1390   28.1160   44.8930 H   0  0  0  0  0  0  0  0  0  0  0  0
   55.4052   23.7946   47.1947 H   0  0  0  0  0  0  0  0  0  0  0  0
   57.8420   23.7422   47.8193 H   0  0  0  0  0  0  0  0  0  0  0  0
  1  2  1  0
  2  3  1  0
  3  4  1  0
  4  5  2  0
  4  6  1  0
  6  7  1  0
  7  8  2  0
  8  9  1  0
  9 10  2  0
 10 11  1  0
 11 12  2  0
 12 13  1  0
 13 14  1  0
 13 15  2  0
  8 16  1  0
 16 17  1  0
 17 18  2  0
 18 19  1  0
 19 20  2  0
 20 21  1  0
 21 22  2  0
 22  7  1  0
 15  9  1  0
 22 17  1  0
  1 23  1  0
  1 24  1  0
  1 25  1  0
  2 26  1  0
  2 27  1  0
  6 28  1  0
  6 29  1  0
 10 30  1  0
 11 31  1  0
 12 32  1  0
 14 33  1  0
 14 34  1  0
 14 35  1  0
 15 36  1  0
 16 37  1  0
 19 38  1  0
 20 39  1  0
M  CHG  1  12   1
M  END
>  <UniqueID>  (12) 
12

>  <SMILES>  (12) 
CCOC(=O)Cc1c(-c2cc[nH+]c(C)c2)[nH]c2nccnc12

>  <Energy>  (12) 
76.50445296804595

>  <Genealogy>  (12) 
CCOC(=O)Cc1c(-c2cc[nH+]c(C)c2)[nH]c2nccnc12 (protonated)
CCOC(=O)Cc1c(-c2cc[nH+]c(C)c2)[nH]c2nccnc12 (3D coordinates assigned)
CCOC(=O)Cc1c(-c2cc[nH+]c(C)c2)[nH]c2nccnc12 (optimized conformer: 76.50445296804595 kcal/mol)

>  <smiles>  (12) 
CCOC(=O)Cc1c(-c2ccnc(C)c2)[nH]c2nccnc12

>  <score_type>  (12) 
oracle

>  <origin>  (12) 
adg

>  <m_score__min__energy>  (12) 
-5.2400000000000002

>  <m_primary>  (12) 
energy

$$$$
12:0
     RDKit          3D

 54 57  0  0  0  0  0  0  0  0999 V2000
   67.8340   34.1760   51.7430 Br  0  0  0  0  0  0  0  0  0  0  0  0
   66.1580   33.6620   50.9830 C   0  0  0  0  0  0  0  0  0  0  0  0
   64.9720   34.2240   51.4610 C   0  0  0  0  0  0  0  0  0  0  0  0
   63.7440   33.8490   50.9070 C   0  0  0  0  0  0  0  0  0  0  0  0
   63.6860   32.9040   49.8640 C   0  0  0  0  0  0  0  0  0  0  0  0
   62.4110   32.5320   49.2980 N   0  0  0  0  0  0  0  0  0  0  0  0
   61.6400   31.4790   49.6420 C   0  0  0  0  0  0  0  0  0  0  0  0
   60.5010   31.4880   48.8610 C   0  0  0  0  0  0  0  0  0  0  0  0
   59.3060   30.5850   49.0410 C   0  0  0  0  0  0  0  0  0  0  0  0
   59.0870   29.6760   47.8970 N   0  0  0  0  0  0  0  0  0  0  0  0
   60.2750   29.4090   47.0600 C   0  0  0  0  0  0  0  0  0  0  0  0
   60.0030   29.5880   45.5530 C   0  0  0  0  0  0  0  0  0  0  0  0
   58.5950   29.9740   45.3110 N   0  0  0  0  0  0  0  0  0  0  0  0
   57.7200   28.7890   45.1480 C   0  0  0  0  0  0  0  0  0  0  0  0
   56.3760   29.1630   44.4970 C   0  0  0  0  0  0  0  0  0  0  0  0
   56.1130   30.5400   44.6670 O   0  0  0  0  0  0  0  0  0  0  0  0
   57.0390   31.3010   43.9110 C   0  0  0  0  0  0  0  0  0  0  0  0
   58.4990   30.8440   44.1240 C   0  0  0  0  0  0  0  0  0  0  0  0
   60.6370   32.6150   48.0550 C   0  0  0  0  0  0  0  0  0  0  0  0
   59.6640   33.1720   47.0890 C   0  0  0  0  0  0  0  0  0  0  0  0
   58.2870   32.9720   47.2970 C   0  0  0  0  0  0  0  0  0  0  0  0
   57.3510   33.4940   46.3990 C   0  0  0  0  0  0  0  0  0  0  0  0
   57.7790   34.2310   45.2910 C   0  0  0  0  0  0  0  0  0  0  0  0
   59.1440   34.4570   45.0880 C   0  0  0  0  0  0  0  0  0  0  0  0
   60.0820   33.9360   45.9850 C   0  0  0  0  0  0  0  0  0  0  0  0
   61.8020   33.2270   48.3490 N   0  0  0  0  0  0  0  0  0  0  0  0
   64.8930   32.3500   49.3870 C   0  0  0  0  0  0  0  0  0  0  0  0
   66.1170   32.7270   49.9470 C   0  0  0  0  0  0  0  0  0  0  0  0
   65.0040   34.9632   52.2750 H   0  0  0  0  0  0  0  0  0  0  0  0
   62.8146   34.2962   51.2893 H   0  0  0  0  0  0  0  0  0  0  0  0
   61.8794   30.7359   50.4169 H   0  0  0  0  0  0  0  0  0  0  0  0
   59.4592   29.9782   49.9456 H   0  0  0  0  0  0  0  0  0  0  0  0
   58.4181   31.2293   49.1218 H   0  0  0  0  0  0  0  0  0  0  0  0
   58.3460   30.0790   47.2790 H   0  0  0  0  0  0  0  0  0  0  0  0
   58.7220   28.7660   48.2620 H   0  0  0  0  0  0  0  0  0  0  0  0
   61.0757   30.1026   47.3564 H   0  0  0  0  0  0  0  0  0  0  0  0
   60.5610   28.3590   47.2202 H   0  0  0  0  0  0  0  0  0  0  0  0
   60.6643   30.3737   45.1588 H   0  0  0  0  0  0  0  0  0  0  0  0
   60.1966   28.6314   45.0456 H   0  0  0  0  0  0  0  0  0  0  0  0
   58.2320   28.0519   44.5120 H   0  0  0  0  0  0  0  0  0  0  0  0
   57.5154   28.3723   46.1452 H   0  0  0  0  0  0  0  0  0  0  0  0
   56.4170   28.9318   43.4224 H   0  0  0  0  0  0  0  0  0  0  0  0
   55.5734   28.5844   44.9777 H   0  0  0  0  0  0  0  0  0  0  0  0
   56.7903   31.1995   42.8443 H   0  0  0  0  0  0  0  0  0  0  0  0
   56.9648   32.3455   44.2479 H   0  0  0  0  0  0  0  0  0  0  0  0
   58.8380   30.2875   43.2378 H   0  0  0  0  0  0  0  0  0  0  0  0
   59.1325   31.7301   44.2776 H   0  0  0  0  0  0  0  0  0  0  0  0
   57.9443   32.4008   48.1724 H   0  0  0  0  0  0  0  0  0  0  0  0
   56.2768   33.3245   46.5646 H   0  0  0  0  0  0  0  0  0  0  0  0
   57.0427   34.6328   44.5794 H   0  0  0  0  0  0  0  0  0  0  0  0
   59.4804   35.0454   44.2216 H   0  0  0  0  0  0  0  0  0  0  0  0
   61.1539   34.1251   45.8258 H   0  0  0  0  0  0  0  0  0  0  0  0
   64.8705   31.6158   48.5682 H   0  0  0  0  0  0  0  0  0  0  0  0
   67.0513   32.2854   49.5701 H   0  0  0  0  0  0  0  0  0  0  0  0
  1  2  1  0
  2  3  2  0
  3  4  1  0
  4  5  2  0
  5  6  1  0
  6  7  1  0
  7  8  2  0
  8  9  1  0
  9 10  1  0
 10 11  1  0
 11 12  1  0
 12 13  1  0
 13 14  1  0
 14 15  1  0
 15 16  1  0
 16 17  1  0
 17 18  1  0
  8 19  1  0
 19 20  1  0
 20 21  2  0
 21 22  1  0
 22 23  2  0
 23 24  1  0
 24 25  2  0
 19 26  2  0
  5 27  1  0
 27 28  2  0
 28  2  1  0
 26  6  1  0
 18 13  1  0
 25 20  1  0
  3 29  1  0
  4 30  1  0
  7 31  1  0
  9 32  1  0
  9 33  1  0
 10 34  1  0
 10 35  1  0
 11 36  1  0
 11 37  1  0
 12 38  1  0
 12 39  1  0
 14 40  1  0
 14 41  1  0
 15 42  1  0
 15 43  1  0
 17 44  1  0
 17 45  1  0
 18 46  1  0
 18 47  1  0
 21 48  1  0
 22 49  1  0
 23 50  1  0
 24 51  1  0
 25 52  1  0
 27 53  1  0
 28 54  1  0
M  CHG  1  10   1
M  END
>  <UniqueID>  (13) 
13

>  <SMILES>  (13) 
Brc1ccc(-n2cc(C[NH2+]CCN3CCOCC3)c(-c3ccccc3)n2)cc1

>  <Energy>  (13) 
105.14973987637502

>  <Genealogy>  (13) 
Brc1ccc(-n2cc(C[NH2+]CCN3CCOCC3)c(-c3ccccc3)n2)cc1 (protonated)
Brc1ccc(-n2cc(C[NH2+]CCN3CCOCC3)c(-c3ccccc3)n2)cc1 (3D coordinates assigned)
Brc1ccc(-n2cc(C[NH2+]CCN3CCOCC3)c(-c3ccccc3)n2)cc1 (nonaromatic ring conformer: 105.14973987637502 kcal/mol)

>  <smiles>  (13) 
Brc1ccc(-n2cc(CNCCN3CCOCC3)c(-c3ccccc3)n2)cc1

>  <score_type>  (13) 
oracle

>  <origin>  (13) 
adg

>  <m_score__min__energy>  (13) 
-6.4800000000000004

>  <m_primary>  (13) 
energy

$$$$
13:0
     RDKit          3D

 39 41  0  0  0  0  0  0  0  0999 V2000
   55.1400   27.4730   45.2640 H   0  0  0  0  0  0  0  0  0  0  0  0
   55.8770   26.9850   45.8180 N   0  0  0  0  0  0  0  0  0  0  0  0
   56.9910   27.5640   46.1490 C   0  0  0  0  0  0  0  0  0  0  0  0
   57.2630   28.8780   45.7120 C   0  0  0  0  0  0  0  0  0  0  0  0
   56.2880   29.6410   44.9020 C   0  0  0  0  0  0  0  0  0  0  0  0
   55.2360   29.0710   44.5090 O   0  0  0  0  0  0  0  0  0  0  0  0
   56.5180   31.0030   44.5250 N   0  0  0  0  0  0  0  0  0  0  0  0
   57.6840   31.4750   43.7850 C   0  0  0  0  0  0  0  0  0  0  0  0
   58.5958   31.0661   44.2448 H   0  0  0  0  0  0  0  0  0  0  0  0
   57.6059   31.1386   42.7406 H   0  0  0  0  0  0  0  0  0  0  0  0
   57.7460   33.0020   43.8130 C   0  0  0  0  0  0  0  0  0  0  0  0
   58.3982   33.3492   42.9981 H   0  0  0  0  0  0  0  0  0  0  0  0
   56.7256   33.3933   43.6882 H   0  0  0  0  0  0  0  0  0  0  0  0
   58.2910   33.5040   45.1260 C   0  0  0  0  0  0  0  0  0  0  0  0
   59.2610   34.5200   45.1510 C   0  0  0  0  0  0  0  0  0  0  0  0
   59.6065   34.9711   44.2091 H   0  0  0  0  0  0  0  0  0  0  0  0
   59.7890   34.9600   46.3690 C   0  0  0  0  0  0  0  0  0  0  0  0
   60.5440   35.7599   46.3838 H   0  0  0  0  0  0  0  0  0  0  0  0
   59.3580   34.3840   47.5680 C   0  0  0  0  0  0  0  0  0  0  0  0
   59.7713   34.7329   48.5258 H   0  0  0  0  0  0  0  0  0  0  0  0
   58.4020   33.3650   47.5490 C   0  0  0  0  0  0  0  0  0  0  0  0
   58.0664   32.9096   48.4924 H   0  0  0  0  0  0  0  0  0  0  0  0
   57.8710   32.9230   46.3330 C   0  0  0  0  0  0  0  0  0  0  0  0
   57.1219   32.1176   46.3223 H   0  0  0  0  0  0  0  0  0  0  0  0
   58.4730   29.4760   46.0910 C   0  0  0  0  0  0  0  0  0  0  0  0
   58.6859   30.5138   45.7948 H   0  0  0  0  0  0  0  0  0  0  0  0
   59.4110   28.7620   46.8430 C   0  0  0  0  0  0  0  0  0  0  0  0
   60.6980   29.4120   47.2740 C   0  0  0  0  0  0  0  0  0  0  0  0
   61.2945   28.4878   47.2791 H   0  0  0  0  0  0  0  0  0  0  0  0
   60.5360   30.6000   48.2140 C   0  0  0  0  0  0  0  0  0  0  0  0
   59.5368   30.8803   48.5786 H   0  0  0  0  0  0  0  0  0  0  0  0
   60.9709   30.8905   49.1817 H   0  0  0  0  0  0  0  0  0  0  0  0
   60.9050   30.8300   46.7600 C   0  0  0  0  0  0  0  0  0  0  0  0
   60.1731   31.2773   46.0714 H   0  0  0  0  0  0  0  0  0  0  0  0
   61.7181   31.3565   46.2387 H   0  0  0  0  0  0  0  0  0  0  0  0
   59.0930   27.4650   47.2630 C   0  0  0  0  0  0  0  0  0  0  0  0
   59.8057   26.9007   47.8824 H   0  0  0  0  0  0  0  0  0  0  0  0
   57.9090   26.8990   46.9100 N   0  0  0  0  0  0  0  0  0  0  0  0
   57.7100   25.9250   47.2370 H   0  0  0  0  0  0  0  0  0  0  0  0
  1  2  1  0
  2  3  2  0
  3  4  1  0
  4  5  1  0
  5  6  2  0
  5  7  1  0
  7  8  1  0
  8  9  1  0
  8 10  1  0
  8 11  1  0
 11 12  1  0
 11 13  1  0
 11 14  1  0
 14 15  2  0
 15 16  1  0
 15 17  1  0
 17 18  1  0
 17 19  2  0
 19 20  1  0
 19 21  1  0
 21 22  1  0
 21 23  2  0
 23 24  1  0
  4 25  2  0
 25 26  1  0
 25 27  1  0
 27 28  1  0
 28 29  1  0
 28 30  1  0
 30 31  1  0
 30 32  1  0
 30 33  1  0
 33 34  1  0
 33 35  1  0
 27 36  2  0
 36 37  1  0
 36 38  1  0
 38 39  1  0
 38  3  1  0
 23 14  1  0
 33 28  1  0
M  CHG  1   7  -1
M  END
>  <UniqueID>  (14) 
14

>  <SMILES>  (14) 
[H]/N=c1\[nH]cc(C2CC2)cc1C(=O)[N-]CCc1ccccc1

>  <Energy>  (14) 
306.2218260476566

>  <Genealogy>  (14) 
N=c1[nH]cc(C2CC2)cc1C(=O)[N-]CCc1ccccc1 (protonated)
[H]/N=c1\[nH]cc(C2CC2)cc1C(=O)[N-]CCc1ccccc1 (cis-trans isomerization)
[H]/N=c1\[nH]cc(C2CC2)cc1C(=O)[N-]CCc1ccccc1 (3D coordinates assigned)
[H]/N=c1\[nH]cc(C2CC2)cc1C(=O)[N-]CCc1ccccc1 (nonaromatic ring conformer: 306.2218260476566 kcal/mol)

>  <smiles>  (14) 
N=c1[nH]cc(C2CC2)cc1C(=O)NCCc1ccccc1

>  <score_type>  (14) 
oracle

>  <origin>  (14) 
adg

>  <m_score__min__energy>  (14) 
-9.2599999999999998

>  <m_primary>  (14) 
energy

$$$$
14:0
     RDKit          3D

 40 42  0  0  0  0  0  0  0  0999 V2000
   60.2060   34.2340   47.8570 C   0  0  0  0  0  0  0  0  0  0  0  0
   59.1730   34.9610   46.9960 C   0  0  0  0  0  0  0  0  0  0  0  0
   59.2730   34.5700   45.5190 C   0  0  0  0  0  0  0  0  0  0  0  0
   57.6490   34.0490   44.8670 S   0  0  0  0  0  0  0  0  0  0  0  0
   57.8640   32.3480   45.3760 C   0  0  0  0  0  0  0  0  0  0  0  0
   58.9340   31.9960   46.1480 N   0  0  0  0  0  0  0  0  0  0  0  0
   59.1370   30.7080   46.5630 C   0  0  0  0  0  0  0  0  0  0  0  0
   60.2900   30.3860   47.3830 N   0  0  0  0  0  0  0  0  0  0  0  0
   60.1860   29.4810   48.5350 C   0  0  0  0  0  0  0  0  0  0  0  0
   61.5870   31.0190   47.0880 C   0  0  0  0  0  0  0  0  0  0  0  0
   62.2320   31.5350   48.3700 C   0  0  0  0  0  0  0  0  0  0  0  0
   58.1860   29.7630   46.1480 C   0  0  0  0  0  0  0  0  0  0  0  0
   58.1430   28.4410   46.3910 N   0  0  0  0  0  0  0  0  0  0  0  0
   57.0130   28.0790   45.7260 C   0  0  0  0  0  0  0  0  0  0  0  0
   56.5160   26.7010   45.6830 C   0  0  0  0  0  0  0  0  0  0  0  0
   57.2470   25.5850   45.3280 C   0  0  0  0  0  0  0  0  0  0  0  0
   56.3740   24.5230   45.4340 C   0  0  0  0  0  0  0  0  0  0  0  0
   55.1690   25.0560   45.8470 C   0  0  0  0  0  0  0  0  0  0  0  0
   55.2850   26.3570   45.9850 O   0  0  0  0  0  0  0  0  0  0  0  0
   56.3970   29.1150   45.1070 N   0  0  0  0  0  0  0  0  0  0  0  0
   57.1580   30.1500   45.3930 N   0  0  0  0  0  0  0  0  0  0  0  0
   56.9640   31.4020   44.9910 N   0  0  0  0  0  0  0  0  0  0  0  0
   59.9761   34.3958   48.9205 H   0  0  0  0  0  0  0  0  0  0  0  0
   60.1757   33.1571   47.6350 H   0  0  0  0  0  0  0  0  0  0  0  0
   61.2095   34.6260   47.6350 H   0  0  0  0  0  0  0  0  0  0  0  0
   58.1666   34.7091   47.3618 H   0  0  0  0  0  0  0  0  0  0  0  0
   59.3685   36.0407   47.0735 H   0  0  0  0  0  0  0  0  0  0  0  0
   59.6315   35.4350   44.9416 H   0  0  0  0  0  0  0  0  0  0  0  0
   59.9738   33.7271   45.4269 H   0  0  0  0  0  0  0  0  0  0  0  0
   60.2529   30.0632   49.4659 H   0  0  0  0  0  0  0  0  0  0  0  0
   59.2213   28.9535   48.5010 H   0  0  0  0  0  0  0  0  0  0  0  0
   61.0059   28.7484   48.5010 H   0  0  0  0  0  0  0  0  0  0  0  0
   62.2530   30.2792   46.6198 H   0  0  0  0  0  0  0  0  0  0  0  0
   61.4230   31.8661   46.4057 H   0  0  0  0  0  0  0  0  0  0  0  0
   61.7063   31.1144   49.2399 H   0  0  0  0  0  0  0  0  0  0  0  0
   63.2885   31.2300   48.3974 H   0  0  0  0  0  0  0  0  0  0  0  0
   62.1664   32.6327   48.3974 H   0  0  0  0  0  0  0  0  0  0  0  0
   58.3037   25.5503   45.0244 H   0  0  0  0  0  0  0  0  0  0  0  0
   56.5933   23.4645   45.2305 H   0  0  0  0  0  0  0  0  0  0  0  0
   54.2512   24.4786   46.0323 H   0  0  0  0  0  0  0  0  0  0  0  0
  1  2  1  0
  2  3  1  0
  3  4  1  0
  4  5  1  0
  5  6  1  0
  6  7  2  0
  7  8  1  0
  8  9  1  0
  8 10  1  0
 10 11  1  0
  7 12  1  0
 12 13  2  0
 13 14  1  0
 14 15  1  0
 15 16  2  0
 16 17  1  0
 17 18  2  0
 18 19  1  0
 14 20  2  0
 20 21  1  0
 21 22  1  0
 22  5  2  0
 21 12  1  0
 19 15  1  0
  1 23  1  0
  1 24  1  0
  1 25  1  0
  2 26  1  0
  2 27  1  0
  3 28  1  0
  3 29  1  0
  9 30  1  0
  9 31  1  0
  9 32  1  0
 10 33  1  0
 10 34  1  0
 11 35  1  0
 11 36  1  0
 11 37  1  0
 16 38  1  0
 17 39  1  0
 18 40  1  0
M  END
>  <UniqueID>  (15) 
15

>  <SMILES>  (15) 
CCCSc1nc(N(C)CC)c2nc(-c3ccco3)nn2n1

>  <Energy>  (15) 
97.6994493003717

>  <Genealogy>  (15) 
CCCSc1nc(N(C)CC)c2nc(-c3ccco3)nn2n1 (3D coordinates assigned)
CCCSc1nc(N(C)CC)c2nc(-c3ccco3)nn2n1 (optimized conformer: 97.6994493003717 kcal/mol)

>  <smiles>  (15) 
CCCSc1nc(N(C)CC)c2nc(-c3ccco3)nn2n1

>  <score_type>  (15) 
oracle

>  <origin>  (15) 
adg

>  <m_score__min__energy>  (15) 
-7.3399999999999999

>  <m_primary>  (15) 
energy

$$$$
15:0
     RDKit          3D

 57 58  0  0  0  0  0  0  0  0999 V2000
   56.9740   21.6770   43.0090 C   0  0  0  0  0  0  0  0  0  0  0  0
   56.4420   23.0400   43.4230 C   0  0  0  0  0  0  0  0  0  0  0  0
   55.3900   22.8660   44.3490 O   0  0  0  0  0  0  0  0  0  0  0  0
   54.6620   24.0700   44.5060 C   0  0  0  0  0  0  0  0  0  0  0  0
   54.7660   24.5640   45.9460 C   0  0  0  0  0  0  0  0  0  0  0  0
   55.1160   25.9460   45.9490 O   0  0  0  0  0  0  0  0  0  0  0  0
   56.4330   26.4340   45.9540 C   0  0  0  0  0  0  0  0  0  0  0  0
   57.5280   25.6230   46.3040 C   0  0  0  0  0  0  0  0  0  0  0  0
   58.8230   26.1440   46.2970 C   0  0  0  0  0  0  0  0  0  0  0  0
   59.0470   27.4810   45.9450 C   0  0  0  0  0  0  0  0  0  0  0  0
   60.4510   28.0360   45.9050 C   0  0  0  0  0  0  0  0  0  0  0  0
   60.4640   29.5070   45.8450 N   0  0  0  0  0  0  0  0  0  0  0  0
   60.6540   30.1070   47.1740 C   0  0  0  0  0  0  0  0  0  0  0  0
   59.3380   30.7000   47.6940 C   0  0  0  0  0  0  0  0  0  0  0  0
   59.0100   32.0580   47.0440 C   0  0  0  0  0  0  0  0  0  0  0  0
   57.8980   31.9970   46.0700 N   0  0  0  0  0  0  0  0  0  0  0  0
   57.0180   33.1850   46.0540 C   0  0  0  0  0  0  0  0  0  0  0  0
   57.4400   34.2420   45.0030 C   0  0  0  0  0  0  0  0  0  0  0  0
   58.4450   33.7890   44.1170 O   0  0  0  0  0  0  0  0  0  0  0  0
   58.1050   32.5140   43.6260 C   0  0  0  0  0  0  0  0  0  0  0  0
   58.2620   31.4670   44.7370 C   0  0  0  0  0  0  0  0  0  0  0  0
   57.9580   28.2920   45.5900 C   0  0  0  0  0  0  0  0  0  0  0  0
   56.6480   27.7740   45.5940 C   0  0  0  0  0  0  0  0  0  0  0  0
   55.5360   28.5570   45.2460 O   0  0  0  0  0  0  0  0  0  0  0  0
   55.5830   29.6810   44.3740 C   0  0  0  0  0  0  0  0  0  0  0  0
   57.2049   21.0853   43.9071 H   0  0  0  0  0  0  0  0  0  0  0  0
   56.2143   21.1533   42.4102 H   0  0  0  0  0  0  0  0  0  0  0  0
   57.8876   21.8064   42.4102 H   0  0  0  0  0  0  0  0  0  0  0  0
   57.2494   23.6241   43.8888 H   0  0  0  0  0  0  0  0  0  0  0  0
   56.0701   23.5762   42.5375 H   0  0  0  0  0  0  0  0  0  0  0  0
   55.0725   24.8338   43.8292 H   0  0  0  0  0  0  0  0  0  0  0  0
   53.6048   23.8845   44.2654 H   0  0  0  0  0  0  0  0  0  0  0  0
   53.7980   24.4296   46.4508 H   0  0  0  0  0  0  0  0  0  0  0  0
   55.5387   23.9884   46.4767 H   0  0  0  0  0  0  0  0  0  0  0  0
   57.3627   24.5724   46.5848 H   0  0  0  0  0  0  0  0  0  0  0  0
   59.6726   25.5007   46.5696 H   0  0  0  0  0  0  0  0  0  0  0  0
   60.9858   27.7133   46.8104 H   0  0  0  0  0  0  0  0  0  0  0  0
   60.9396   27.6558   44.9958 H   0  0  0  0  0  0  0  0  0  0  0  0
   61.2480   29.8060   45.2190 H   0  0  0  0  0  0  0  0  0  0  0  0
   61.0025   29.3327   47.8733 H   0  0  0  0  0  0  0  0  0  0  0  0
   61.3985   30.9129   47.0952 H   0  0  0  0  0  0  0  0  0  0  0  0
   58.5217   29.9963   47.4738 H   0  0  0  0  0  0  0  0  0  0  0  0
   59.4475   30.8632   48.7763 H   0  0  0  0  0  0  0  0  0  0  0  0
   58.7367   32.7670   47.8394 H   0  0  0  0  0  0  0  0  0  0  0  0
   59.9061   32.3745   46.4901 H   0  0  0  0  0  0  0  0  0  0  0  0
   55.9924   32.8575   45.8284 H   0  0  0  0  0  0  0  0  0  0  0  0
   57.0914   33.6600   47.0435 H   0  0  0  0  0  0  0  0  0  0  0  0
   56.5541   34.5181   44.4122 H   0  0  0  0  0  0  0  0  0  0  0  0
   57.8576   35.0970   45.5548 H   0  0  0  0  0  0  0  0  0  0  0  0
   57.0613   32.5234   43.2786 H   0  0  0  0  0  0  0  0  0  0  0  0
   58.7729   32.2580   42.7904 H   0  0  0  0  0  0  0  0  0  0  0  0
   57.6117   30.6098   44.5085 H   0  0  0  0  0  0  0  0  0  0  0  0
   59.3213   31.1726   44.7719 H   0  0  0  0  0  0  0  0  0  0  0  0
   58.1288   29.3410   45.3062 H   0  0  0  0  0  0  0  0  0  0  0  0
   55.6217   30.6053   44.9691 H   0  0  0  0  0  0  0  0  0  0  0  0
   56.4792   29.6156   43.7395 H   0  0  0  0  0  0  0  0  0  0  0  0
   54.6845   29.6907   43.7395 H   0  0  0  0  0  0  0  0  0  0  0  0
  1  2  1  0
  2  3  1  0
  3  4  1  0
  4  5  1  0
  5  6  1  0
  6  7  1  0
  7  8  2  0
  8  9  1  0
  9 10  2  0
 10 11  1  0
 11 12  1  0
 12 13  1  0
 13 14  1  0
 14 15  1  0
 15 16  1  0
 16 17  1  0
 17 18  1  0
 18 19  1  0
 19 20  1  0
 20 21  1  0
 10 22  1  0
 22 23  2  0
 23 24  1  0
 24 25  1  0
 23  7  1  0
 21 16  1  0
  1 26  1  0
  1 27  1  0
  1 28  1  0
  2 29  1  0
  2 30  1  0
  4 31  1  0
  4 32  1  0
  5 33  1  0
  5 34  1  0
  8 35  1  0
  9 36  1  0
 11 37  1  0
 11 38  1  0
 12 39  1  0
 13 40  1  0
 13 41  1  0
 14 42  1  0
 14 43  1  0
 15 44  1  0
 15 45  1  0
 17 46  1  0
 17 47  1  0
 18 48  1  0
 18 49  1  0
 20 50  1  0
 20 51  1  0
 21 52  1  0
 21 53  1  0
 22 54  1  0
 25 55  1  0
 25 56  1  0
 25 57  1  0
M  END
>  <UniqueID>  (16) 
16

>  <SMILES>  (16) 
CCOCCOc1ccc(CNCCCN2CCOCC2)cc1OC

>  <Energy>  (16) 
63.30770878174409

>  <Genealogy>  (16) 
CCOCCOc1ccc(CNCCCN2CCOCC2)cc1OC (3D coordinates assigned)
CCOCCOc1ccc(CNCCCN2CCOCC2)cc1OC (nonaromatic ring conformer: 63.30770878174409 kcal/mol)

>  <smiles>  (16) 
CCOCCOc1ccc(CNCCCN2CCOCC2)cc1OC

>  <score_type>  (16) 
oracle

>  <origin>  (16) 
adg

>  <m_score__min__energy>  (16) 
-6.4299999999999997

>  <m_primary>  (16) 
energy

$$$$
16:0
     RDKit          3D

 53 54  0  0  0  0  0  0  0  0999 V2000
   59.1067   30.9505   44.8787 H   0  0  0  0  0  0  0  0  0  0  0  0
   58.1720   31.0640   44.3100 C   0  0  0  0  0  0  0  0  0  0  0  0
   57.2440   30.0910   44.4270 C   0  0  0  0  0  0  0  0  0  0  0  0
   57.3970   29.0870   45.5390 C   0  0  0  0  0  0  0  0  0  0  0  0
   57.3189   29.5996   46.5091 H   0  0  0  0  0  0  0  0  0  0  0  0
   56.6040   28.3287   45.4601 H   0  0  0  0  0  0  0  0  0  0  0  0
   58.3798   28.5993   45.4601 H   0  0  0  0  0  0  0  0  0  0  0  0
   56.0570   29.9970   43.4950 C   0  0  0  0  0  0  0  0  0  0  0  0
   55.1319   29.9237   44.0857 H   0  0  0  0  0  0  0  0  0  0  0  0
   56.0169   30.8948   42.8607 H   0  0  0  0  0  0  0  0  0  0  0  0
   56.1587   29.1041   42.8607 H   0  0  0  0  0  0  0  0  0  0  0  0
   58.0170   32.2960   43.4540 C   0  0  0  0  0  0  0  0  0  0  0  0
   58.3512   32.0689   42.4309 H   0  0  0  0  0  0  0  0  0  0  0  0
   56.9582   32.5943   43.4529 H   0  0  0  0  0  0  0  0  0  0  0  0
   58.8550   33.4550   44.0120 C   0  0  0  0  0  0  0  0  0  0  0  0
   59.8531   33.0772   44.2785 H   0  0  0  0  0  0  0  0  0  0  0  0
   58.9220   34.2335   43.2378 H   0  0  0  0  0  0  0  0  0  0  0  0
   58.2180   34.0650   45.2400 C   0  0  0  0  0  0  0  0  0  0  0  0
   58.9040   34.4950   46.3300 C   0  0  0  0  0  0  0  0  0  0  0  0
   59.1479   35.5675   46.3444 H   0  0  0  0  0  0  0  0  0  0  0  0
   59.3860   33.6900   47.5450 C   0  0  1  0  0  0  0  0  0  0  0  0
   59.5234   34.4308   48.3465 H   0  0  0  0  0  0  0  0  0  0  0  0
   58.2890   32.7120   48.0380 C   0  0  0  0  0  0  0  0  0  0  0  0
   57.6221   33.2538   48.7248 H   0  0  0  0  0  0  0  0  0  0  0  0
   57.7590   32.3435   47.1473 H   0  0  0  0  0  0  0  0  0  0  0  0
   58.8440   31.4970   48.7640 C   0  0  0  0  0  0  0  0  0  0  0  0
   59.4015   31.8253   49.6536 H   0  0  0  0  0  0  0  0  0  0  0  0
   58.0136   30.8436   49.0699 H   0  0  0  0  0  0  0  0  0  0  0  0
   59.7750   30.7300   47.8380 C   0  0  0  0  0  0  0  0  0  0  0  0
   60.1719   29.8618   48.3845 H   0  0  0  0  0  0  0  0  0  0  0  0
   59.1848   30.4350   46.9579 H   0  0  0  0  0  0  0  0  0  0  0  0
   60.9640   31.5700   47.3260 C   0  0  0  0  0  0  0  0  0  0  0  0
   61.8652   31.2162   47.8482 H   0  0  0  0  0  0  0  0  0  0  0  0
   60.9597   31.4222   46.2360 H   0  0  0  0  0  0  0  0  0  0  0  0
   60.8930   33.1310   47.5160 C   0  0  2  0  0  0  0  0  0  0  0  0
   61.6130   33.4750   48.8370 C   0  0  0  0  0  0  0  0  0  0  0  0
   60.9740   33.6300   49.8720 O   0  0  0  0  0  0  0  0  0  0  0  0
   63.1160   33.6000   48.9280 C   0  0  0  0  0  0  0  0  0  0  0  0
   63.4685   32.9957   49.7769 H   0  0  0  0  0  0  0  0  0  0  0  0
   63.3530   34.6659   49.0607 H   0  0  0  0  0  0  0  0  0  0  0  0
   63.8260   33.1240   47.6610 C   0  0  0  0  0  0  0  0  0  0  0  0
   63.7182   32.0322   47.5810 H   0  0  0  0  0  0  0  0  0  0  0  0
   64.8852   33.4120   47.7334 H   0  0  0  0  0  0  0  0  0  0  0  0
   63.2410   33.7730   46.4050 C   0  0  0  0  0  0  0  0  0  0  0  0
   63.5770   33.1930   45.5328 H   0  0  0  0  0  0  0  0  0  0  0  0
   63.5985   34.8133   46.4009 H   0  0  0  0  0  0  0  0  0  0  0  0
   61.6900   33.8460   46.3670 C   0  0  0  0  0  0  0  0  0  0  0  0
   61.3641   33.4002   45.4156 H   0  0  0  0  0  0  0  0  0  0  0  0
   61.4606   34.9142   46.4951 H   0  0  0  0  0  0  0  0  0  0  0  0
   56.7190   34.2190   45.2540 C   0  0  0  0  0  0  0  0  0  0  0  0
   56.3639   34.2555   46.2945 H   0  0  0  0  0  0  0  0  0  0  0  0
   56.4413   35.1504   44.7389 H   0  0  0  0  0  0  0  0  0  0  0  0
   56.2577   33.3635   44.7389 H   0  0  0  0  0  0  0  0  0  0  0  0
  1  2  1  0
  2  3  2  3
  3  4  1  0
  4  5  1  0
  4  6  1  0
  4  7  1  0
  3  8  1  0
  8  9  1  0
  8 10  1  0
  8 11  1  0
  2 12  1  0
 12 13  1  0
 12 14  1  0
 12 15  1  0
 15 16  1  0
 15 17  1  0
 15 18  1  0
 18 19  2  0
 19 20  1  0
 19 21  1  0
 21 22  1  1
 21 23  1  0
 23 24  1  0
 23 25  1  0
 23 26  1  0
 26 27  1  0
 26 28  1  0
 26 29  1  0
 29 30  1  0
 29 31  1  0
 29 32  1  0
 32 33  1  0
 32 34  1  0
 35 32  1  6
 35 36  1  0
 36 37  2  0
 36 38  1  0
 38 39  1  0
 38 40  1  0
 38 41  1  0
 41 42  1  0
 41 43  1  0
 41 44  1  0
 44 45  1  0
 44 46  1  0
 44 47  1  0
 47 48  1  0
 47 49  1  0
 18 50  1  0
 50 51  1  0
 50 52  1  0
 50 53  1  0
 35 21  1  0
 47 35  1  0
M  END
>  <UniqueID>  (17) 
17

>  <SMILES>  (17) 
CC(C)=CCC/C(C)=C\[C@H]1CCCC[C@@]12CCCCC2=O

>  <Energy>  (17) 
69.74196217907152

>  <Genealogy>  (17) 
CC(C)=CCCC(C)=C[C@H]1CCCC[C@@]12CCCCC2=O (chirality)
CC(C)=CCC/C(C)=C\[C@H]1CCCC[C@@]12CCCCC2=O (cis-trans isomerization)
CC(C)=CCC/C(C)=C\[C@H]1CCCC[C@@]12CCCCC2=O (3D coordinates assigned)
CC(C)=CCC/C(C)=C\[C@H]1CCCC[C@@]12CCCCC2=O (nonaromatic ring conformer: 69.74196217907152 kcal/mol)

>  <smiles>  (17) 
CC(C)=CCCC(C)=CC1CCCCC12CCCCC2=O

>  <score_type>  (17) 
oracle

>  <origin>  (17) 
adg

>  <m_score__min__energy>  (17) 
-8.1400000000000006

>  <m_primary>  (17) 
energy

$$$$
17:0
     RDKit          3D

 46 48  0  0  0  0  0  0  0  0999 V2000
   55.4120   29.7110   43.6760 C   0  0  0  0  0  0  0  0  0  0  0  0
   56.5680   30.1920   44.4240 N   0  0  0  0  0  0  0  0  0  0  0  0
   56.7180   31.4520   44.7990 N   0  0  0  0  0  0  0  0  0  0  0  0
   57.9390   31.5720   45.3630 C   0  0  0  0  0  0  0  0  0  0  0  0
   58.4990   32.8570   45.8440 C   0  0  0  0  0  0  0  0  0  0  0  0
   58.8370   33.0470   47.1980 C   0  0  0  0  0  0  0  0  0  0  0  0
   59.3860   34.2590   47.6280 C   0  0  0  0  0  0  0  0  0  0  0  0
   59.5990   35.2950   46.7160 C   0  0  0  0  0  0  0  0  0  0  0  0
   59.2650   35.1210   45.3720 C   0  0  0  0  0  0  0  0  0  0  0  0
   58.7170   33.9100   44.9360 C   0  0  0  0  0  0  0  0  0  0  0  0
   58.5860   30.3430   45.3310 C   0  0  0  0  0  0  0  0  0  0  0  0
   57.6840   29.4960   44.7200 C   0  0  0  0  0  0  0  0  0  0  0  0
   57.9790   28.0920   44.2740 C   0  0  0  0  0  0  0  0  0  0  0  0
   58.4880   27.2790   45.3910 N   0  0  0  0  0  0  0  0  0  0  0  0
   57.5210   27.1660   46.4990 C   0  0  0  0  0  0  0  0  0  0  0  0
   56.1640   26.6980   45.9590 C   0  0  0  0  0  0  0  0  0  0  0  0
   55.9000   25.2990   46.3660 N   0  0  0  0  0  0  0  0  0  0  0  0
   57.1050   24.6320   46.9180 C   0  0  0  0  0  0  0  0  0  0  0  0
   57.9080   23.8700   45.8440 C   0  0  0  0  0  0  0  0  0  0  0  0
   57.7050   24.4450   44.5710 O   0  0  0  0  0  0  0  0  0  0  0  0
   56.3690   24.2330   44.1500 C   0  0  0  0  0  0  0  0  0  0  0  0
   55.3260   24.5040   45.2620 C   0  0  0  0  0  0  0  0  0  0  0  0
   54.6303   29.3858   44.3783 H   0  0  0  0  0  0  0  0  0  0  0  0
   55.0219   30.5215   43.0428 H   0  0  0  0  0  0  0  0  0  0  0  0
   55.7119   28.8630   43.0428 H   0  0  0  0  0  0  0  0  0  0  0  0
   58.6680   32.2364   47.9222 H   0  0  0  0  0  0  0  0  0  0  0  0
   59.6507   34.3967   48.6868 H   0  0  0  0  0  0  0  0  0  0  0  0
   60.0299   36.2480   47.0568 H   0  0  0  0  0  0  0  0  0  0  0  0
   59.4330   35.9376   44.6544 H   0  0  0  0  0  0  0  0  0  0  0  0
   58.4546   33.7798   43.8757 H   0  0  0  0  0  0  0  0  0  0  0  0
   59.5905   30.0999   45.7077 H   0  0  0  0  0  0  0  0  0  0  0  0
   57.0554   27.6355   43.8886 H   0  0  0  0  0  0  0  0  0  0  0  0
   58.7481   28.1284   43.4884 H   0  0  0  0  0  0  0  0  0  0  0  0
   58.6660   26.3180   45.0140 H   0  0  0  0  0  0  0  0  0  0  0  0
   57.8922   26.4373   47.2347 H   0  0  0  0  0  0  0  0  0  0  0  0
   57.4016   28.1489   46.9783 H   0  0  0  0  0  0  0  0  0  0  0  0
   55.3714   27.3474   46.3591 H   0  0  0  0  0  0  0  0  0  0  0  0
   56.1795   26.7527   44.8605 H   0  0  0  0  0  0  0  0  0  0  0  0
   57.7557   25.3966   47.3674 H   0  0  0  0  0  0  0  0  0  0  0  0
   56.7661   23.8972   47.6632 H   0  0  0  0  0  0  0  0  0  0  0  0
   58.9783   23.9138   46.0940 H   0  0  0  0  0  0  0  0  0  0  0  0
   57.5654   22.8250   45.8199 H   0  0  0  0  0  0  0  0  0  0  0  0
   56.1591   24.9035   43.3036 H   0  0  0  0  0  0  0  0  0  0  0  0
   56.2797   23.1727   43.8710 H   0  0  0  0  0  0  0  0  0  0  0  0
   54.4781   25.0550   44.8291 H   0  0  0  0  0  0  0  0  0  0  0  0
   54.9995   23.5359   45.6697 H   0  0  0  0  0  0  0  0  0  0  0  0
  1  2  1  0
  2  3  1  0
  3  4  2  0
  4  5  1  0
  5  6  2  0
  6  7  1  0
  7  8  2  0
  8  9  1  0
  9 10  2  0
  4 11  1  0
 11 12  2  0
 12 13  1  0
 13 14  1  0
 14 15  1  0
 15 16  1  0
 16 17  1  0
 17 18  1  0
 18 19  1  0
 19 20  1  0
 20 21  1  0
 21 22  1  0
 12  2  1  0
 22 17  1  0
 10  5  1  0
  1 23  1  0
  1 24  1  0
  1 25  1  0
  6 26  1  0
  7 27  1  0
  8 28  1  0
  9 29  1  0
 10 30  1  0
 11 31  1  0
 13 32  1  0
 13 33  1  0
 14 34  1  0
 15 35  1  0
 15 36  1  0
 16 37  1  0
 16 38  1  0
 18 39  1  0
 18 40  1  0
 19 41  1  0
 19 42  1  0
 21 43  1  0
 21 44  1  0
 22 45  1  0
 22 46  1  0
M  END
>  <UniqueID>  (18) 
18

>  <SMILES>  (18) 
Cn1nc(-c2ccccc2)cc1CNCCN1CCOCC1

>  <Energy>  (18) 
84.175048425657

>  <Genealogy>  (18) 
Cn1nc(-c2ccccc2)cc1CNCCN1CCOCC1 (3D coordinates assigned)
Cn1nc(-c2ccccc2)cc1CNCCN1CCOCC1 (nonaromatic ring conformer: 84.175048425657 kcal/mol)

>  <smiles>  (18) 
Cn1nc(-c2ccccc2)cc1CNCCN1CCOCC1

>  <score_type>  (18) 
oracle

>  <origin>  (18) 
adg

>  <m_score__min__energy>  (18) 
-7.5700000000000003

>  <m_primary>  (18) 
energy

$$$$
18:0
     RDKit          3D

 29 29  0  0  0  0  0  0  0  0999 V2000
   59.6490   28.2360   44.7890 C   0  0  0  0  0  0  0  0  0  0  0  0
   58.6380   27.4360   43.9620 C   0  0  0  0  0  0  0  0  0  0  0  0
   57.5000   28.2690   43.5120 N   0  0  0  0  0  0  0  0  0  0  0  0
   57.1690   29.3570   44.4490 C   0  0  0  0  0  0  0  0  0  0  0  0
   57.4760   30.7170   43.8810 C   0  0  0  0  0  0  0  0  0  0  0  0
   57.4030   30.9540   42.6170 N   0  0  0  0  0  0  0  0  0  0  0  0
   57.7730   32.3370   42.3460 C   0  0  0  0  0  0  0  0  0  0  0  0
   58.1180   32.9380   43.7170 C   0  0  0  0  0  0  0  0  0  0  0  0
   57.8990   31.8400   44.6430 N   0  0  0  0  0  0  0  0  0  0  0  0
   58.0810   31.9240   46.0930 C   0  0  0  0  0  0  0  0  0  0  0  0
   57.7590   33.3270   46.5970 C   0  0  0  0  0  0  0  0  0  0  0  0
   59.4519   28.0800   45.8599 H   0  0  0  0  0  0  0  0  0  0  0  0
   60.6679   27.8969   44.5505 H   0  0  0  0  0  0  0  0  0  0  0  0
   59.5533   29.3056   44.5505 H   0  0  0  0  0  0  0  0  0  0  0  0
   59.1486   27.0263   43.0780 H   0  0  0  0  0  0  0  0  0  0  0  0
   58.2382   26.6345   44.6005 H   0  0  0  0  0  0  0  0  0  0  0  0
   56.6530   27.6880   43.3190 H   0  0  0  0  0  0  0  0  0  0  0  0
   57.7660   28.7180   42.6040 H   0  0  0  0  0  0  0  0  0  0  0  0
   56.0956   29.3064   44.6840 H   0  0  0  0  0  0  0  0  0  0  0  0
   57.7857   29.2229   45.3499 H   0  0  0  0  0  0  0  0  0  0  0  0
   58.6445   32.3789   41.6762 H   0  0  0  0  0  0  0  0  0  0  0  0
   56.9627   32.8891   41.8474 H   0  0  0  0  0  0  0  0  0  0  0  0
   59.1658   33.2717   43.7459 H   0  0  0  0  0  0  0  0  0  0  0  0
   57.5118   33.8239   43.9573 H   0  0  0  0  0  0  0  0  0  0  0  0
   57.4116   31.2018   46.5833 H   0  0  0  0  0  0  0  0  0  0  0  0
   59.1302   31.6950   46.3313 H   0  0  0  0  0  0  0  0  0  0  0  0
   57.7582   33.3303   47.6970 H   0  0  0  0  0  0  0  0  0  0  0  0
   58.5186   34.0322   46.2288 H   0  0  0  0  0  0  0  0  0  0  0  0
   56.7679   33.6304   46.2288 H   0  0  0  0  0  0  0  0  0  0  0  0
  1  2  1  0
  2  3  1  0
  3  4  1  0
  4  5  1  0
  5  6  2  0
  6  7  1  0
  7  8  1  0
  8  9  1  0
  9 10  1  0
 10 11  1  0
  9  5  1  0
  1 12  1  0
  1 13  1  0
  1 14  1  0
  2 15  1  0
  2 16  1  0
  3 17  1  0
  3 18  1  0
  4 19  1  0
  4 20  1  0
  7 21  1  0
  7 22  1  0
  8 23  1  0
  8 24  1  0
 10 25  1  0
 10 26  1  0
 11 27  1  0
 11 28  1  0
 11 29  1  0
M  CHG  1   3   1
M  END
>  <UniqueID>  (19) 
19

>  <SMILES>  (19) 
CC[NH2+]CC1=NCCN1CC

>  <Energy>  (19) 
32.709958849924135

>  <Genealogy>  (19) 
CC[NH2+]CC1=NCCN1CC (protonated)
CC[NH2+]CC1=NCCN1CC (3D coordinates assigned)
CC[NH2+]CC1=NCCN1CC (nonaromatic ring conformer: 32.709958849924135 kcal/mol)

>  <smiles>  (19) 
CCNCC1=NCCN1CC

>  <score_type>  (19) 
oracle

>  <origin>  (19) 
adg

>  <m_score__min__energy>  (19) 
-3.4500000000000002

>  <m_primary>  (19) 
energy

$$$$
19:0
     RDKit          3D

 58 61  0  0  0  0  0  0  0  0999 V2000
   60.3250   28.9500   44.8880 C   0  0  0  0  0  0  0  0  0  0  0  0
   59.0000   28.2850   44.5420 C   0  0  0  0  0  0  0  0  0  0  0  0
   58.4000   27.6960   45.7650 N   0  0  0  0  0  0  0  0  0  0  0  0
   57.0410   27.1560   45.5340 C   0  0  0  0  0  0  0  0  0  0  0  0
   56.7310   25.8950   46.3580 C   0  0  0  0  0  0  0  0  0  0  0  0
   59.2850   26.7500   46.4870 C   0  0  0  0  0  0  0  0  0  0  0  0
   59.6550   27.2870   47.8770 C   0  0  0  0  0  0  0  0  0  0  0  0
   58.9450   28.5240   48.2030 N   0  0  0  0  0  0  0  0  0  0  0  0
   59.6670   29.6490   48.7260 C   0  0  0  0  0  0  0  0  0  0  0  0
   60.5810   29.5100   49.7830 C   0  0  0  0  0  0  0  0  0  0  0  0
   60.8130   28.2560   50.3850 C   0  0  0  0  0  0  0  0  0  0  0  0
   61.7600   28.1190   51.3970 C   0  0  0  0  0  0  0  0  0  0  0  0
   62.4910   29.2230   51.8200 C   0  0  0  0  0  0  0  0  0  0  0  0
   62.2570   30.4790   51.2600 C   0  0  0  0  0  0  0  0  0  0  0  0
   61.2690   30.6590   50.2590 C   0  0  0  0  0  0  0  0  0  0  0  0
   60.9740   31.9100   49.7450 N   0  0  0  0  0  0  0  0  0  0  0  0
   61.3880   33.1190   50.4890 C   0  0  0  0  0  0  0  0  0  0  0  0
   60.2130   32.0190   48.5910 C   0  0  0  0  0  0  0  0  0  0  0  0
   60.1110   33.2120   47.8200 C   0  0  0  0  0  0  0  0  0  0  0  0
   60.8390   34.2130   48.0660 O   0  0  0  0  0  0  0  0  0  0  0  0
   59.2290   33.2640   46.7250 C   0  0  0  0  0  0  0  0  0  0  0  0
   59.0530   34.4330   45.9640 C   0  0  0  0  0  0  0  0  0  0  0  0
   58.1670   34.4410   44.8840 C   0  0  0  0  0  0  0  0  0  0  0  0
   57.4560   33.2880   44.5480 C   0  0  0  0  0  0  0  0  0  0  0  0
   57.6270   32.1050   45.2930 C   0  0  0  0  0  0  0  0  0  0  0  0
   56.9390   30.9200   44.9850 O   0  0  0  0  0  0  0  0  0  0  0  0
   56.6560   30.4730   43.6630 C   0  0  0  0  0  0  0  0  0  0  0  0
   58.5150   32.1000   46.3780 C   0  0  0  0  0  0  0  0  0  0  0  0
   58.6940   30.9820   47.0650 O   0  0  0  0  0  0  0  0  0  0  0  0
   59.5060   30.8900   48.1140 C   0  0  0  0  0  0  0  0  0  0  0  0
   60.4335   29.0044   45.9813 H   0  0  0  0  0  0  0  0  0  0  0  0
   61.1523   28.3603   44.4664 H   0  0  0  0  0  0  0  0  0  0  0  0
   60.3466   29.9658   44.4664 H   0  0  0  0  0  0  0  0  0  0  0  0
   58.3132   29.0351   44.1229 H   0  0  0  0  0  0  0  0  0  0  0  0
   59.1745   27.4891   43.8030 H   0  0  0  0  0  0  0  0  0  0  0  0
   56.3086   27.9329   45.7984 H   0  0  0  0  0  0  0  0  0  0  0  0
   56.9835   26.8703   44.4733 H   0  0  0  0  0  0  0  0  0  0  0  0
   56.7897   26.1340   47.4301 H   0  0  0  0  0  0  0  0  0  0  0  0
   55.7186   25.5390   46.1166 H   0  0  0  0  0  0  0  0  0  0  0  0
   57.4629   25.1101   46.1166 H   0  0  0  0  0  0  0  0  0  0  0  0
   58.7646   25.7876   46.6009 H   0  0  0  0  0  0  0  0  0  0  0  0
   60.2096   26.6243   45.9046 H   0  0  0  0  0  0  0  0  0  0  0  0
   59.4017   26.5253   48.6291 H   0  0  0  0  0  0  0  0  0  0  0  0
   60.7325   27.5086   47.8756 H   0  0  0  0  0  0  0  0  0  0  0  0
   58.0270   28.7270   47.7490 H   0  0  0  0  0  0  0  0  0  0  0  0
   60.2405   27.3777   50.0521 H   0  0  0  0  0  0  0  0  0  0  0  0
   61.9296   27.1366   51.8618 H   0  0  0  0  0  0  0  0  0  0  0  0
   63.2577   29.1057   52.6000 H   0  0  0  0  0  0  0  0  0  0  0  0
   62.8476   31.3425   51.6000 H   0  0  0  0  0  0  0  0  0  0  0  0
   61.3216   32.9251   51.5697 H   0  0  0  0  0  0  0  0  0  0  0  0
   62.4249   33.3746   50.2254 H   0  0  0  0  0  0  0  0  0  0  0  0
   60.7255   33.9566   50.2254 H   0  0  0  0  0  0  0  0  0  0  0  0
   59.6144   35.3437   46.2197 H   0  0  0  0  0  0  0  0  0  0  0  0
   58.0291   35.3602   44.2957 H   0  0  0  0  0  0  0  0  0  0  0  0
   56.7588   33.3032   43.6973 H   0  0  0  0  0  0  0  0  0  0  0  0
   56.0681   29.5444   43.7079 H   0  0  0  0  0  0  0  0  0  0  0  0
   56.0818   31.2451   43.1299 H   0  0  0  0  0  0  0  0  0  0  0  0
   57.5995   30.2842   43.1299 H   0  0  0  0  0  0  0  0  0  0  0  0
  1  2  1  0
  2  3  1  0
  3  4  1  0
  4  5  1  0
  3  6  1  0
  6  7  1  0
  7  8  1  0
  8  9  1  0
  9 10  2  0
 10 11  1  0
 11 12  2  0
 12 13  1  0
 13 14  2  0
 14 15  1  0
 15 16  2  0
 16 17  1  0
 16 18  1  0
 18 19  1  0
 19 20  2  0
 19 21  1  0
 21 22  2  0
 22 23  1  0
 23 24  2  0
 24 25  1  0
 25 26  1  0
 26 27  1  0
 25 28  2  0
 28 29  1  0
 29 30  1  0
 30  9  1  0
 15 10  1  0
 30 18  2  0
 28 21  1  0
  1 31  1  0
  1 32  1  0
  1 33  1  0
  2 34  1  0
  2 35  1  0
  4 36  1  0
  4 37  1  0
  5 38  1  0
  5 39  1  0
  5 40  1  0
  6 41  1  0
  6 42  1  0
  7 43  1  0
  7 44  1  0
  8 45  1  0
 11 46  1  0
 12 47  1  0
 13 48  1  0
 14 49  1  0
 17 50  1  0
 17 51  1  0
 17 52  1  0
 22 53  1  0
 23 54  1  0
 24 55  1  0
 27 56  1  0
 27 57  1  0
 27 58  1  0
M  CHG  1  16   1
M  END
>  <UniqueID>  (20) 
20

>  <SMILES>  (20) 
CCN(CC)CCNc1c2ccccc2[n+](C)c2c(=O)c3cccc(OC)c3oc12

>  <Energy>  (20) 
96.6138779725547

>  <Genealogy>  (20) 
CCN(CC)CCNc1c2ccccc2[n+](C)c2c(=O)c3cccc(OC)c3oc12 (3D coordinates assigned)
CCN(CC)CCNc1c2ccccc2[n+](C)c2c(=O)c3cccc(OC)c3oc12 (optimized conformer: 96.6138779725547 kcal/mol)

>  <smiles>  (20) 
CCN(CC)CCNc1c2ccccc2[n+](C)c2c(=O)c3cccc(OC)c3oc12

>  <score_type>  (20) 
oracle

>  <origin>  (20) 
adg

>  <m_score__min__energy>  (20) 
-5.9199999999999999

>  <m_primary>  (20) 
energy

$$$$
20:0
     RDKit          3D

 42 44  0  0  0  0  0  0  0  0999 V2000
   59.0850   29.9990   49.8790 C   0  0  0  0  0  0  0  0  0  0  0  0
   58.5880   30.1130   48.5490 O   0  0  0  0  0  0  0  0  0  0  0  0
   58.9770   29.2930   47.4790 C   0  0  0  0  0  0  0  0  0  0  0  0
   58.6790   27.9150   47.4640 C   0  0  0  0  0  0  0  0  0  0  0  0
   59.0150   27.1290   46.3600 C   0  0  0  0  0  0  0  0  0  0  0  0
   59.6450   27.7040   45.2590 C   0  0  0  0  0  0  0  0  0  0  0  0
   59.9680   29.0620   45.2680 C   0  0  0  0  0  0  0  0  0  0  0  0
   59.6640   29.8650   46.3840 C   0  0  0  0  0  0  0  0  0  0  0  0
   60.0090   31.3420   46.3390 C   0  0  0  0  0  0  0  0  0  0  0  0
   59.0720   32.2600   47.0580 N   0  0  2  0  0  0  0  0  0  0  0  0
   57.8640   32.6870   46.2940 C   0  0  0  0  0  0  0  0  0  0  0  0
   57.7590   32.1780   44.8660 C   0  0  0  0  0  0  0  0  0  0  0  0
   57.0570   31.0050   44.5350 C   0  0  0  0  0  0  0  0  0  0  0  0
   57.0030   30.7420   43.1750 C   0  0  0  0  0  0  0  0  0  0  0  0
   57.7700   31.9990   42.3730 S   0  0  0  0  0  0  0  0  0  0  0  0
   58.1870   32.8820   43.7380 C   0  0  0  0  0  0  0  0  0  0  0  0
   59.7450   33.3780   47.7640 C   0  0  0  0  0  0  0  0  0  0  0  0
   61.2430   33.3270   47.6210 C   0  0  0  0  0  0  0  0  0  0  0  0
   61.9840   33.8460   46.5670 C   0  0  0  0  0  0  0  0  0  0  0  0
   63.3630   33.6410   46.7080 C   0  0  0  0  0  0  0  0  0  0  0  0
   63.7090   32.9610   47.8690 C   0  0  0  0  0  0  0  0  0  0  0  0
   62.3000   32.6170   48.7210 S   0  0  0  0  0  0  0  0  0  0  0  0
   58.2691   30.1862   50.5926 H   0  0  0  0  0  0  0  0  0  0  0  0
   59.4841   28.9860   50.0357 H   0  0  0  0  0  0  0  0  0  0  0  0
   59.8857   30.7368   50.0357 H   0  0  0  0  0  0  0  0  0  0  0  0
   58.1779   27.4556   48.3288 H   0  0  0  0  0  0  0  0  0  0  0  0
   58.7818   26.0540   46.3598 H   0  0  0  0  0  0  0  0  0  0  0  0
   59.8883   27.0873   44.3813 H   0  0  0  0  0  0  0  0  0  0  0  0
   60.4650   29.5093   44.3945 H   0  0  0  0  0  0  0  0  0  0  0  0
   61.0079   31.4672   46.7822 H   0  0  0  0  0  0  0  0  0  0  0  0
   59.9458   31.6275   45.2786 H   0  0  0  0  0  0  0  0  0  0  0  0
   58.6670   31.6680   47.8240 H   0  0  0  0  0  0  0  0  0  0  0  0
   56.9780   32.3340   46.8422 H   0  0  0  0  0  0  0  0  0  0  0  0
   57.9392   33.7813   46.2118 H   0  0  0  0  0  0  0  0  0  0  0  0
   56.5916   30.3534   45.2892 H   0  0  0  0  0  0  0  0  0  0  0  0
   56.5385   29.8629   42.7045 H   0  0  0  0  0  0  0  0  0  0  0  0
   58.7086   33.8504   43.7434 H   0  0  0  0  0  0  0  0  0  0  0  0
   59.3823   34.3289   47.3467 H   0  0  0  0  0  0  0  0  0  0  0  0
   59.5067   33.2912   48.8344 H   0  0  0  0  0  0  0  0  0  0  0  0
   61.5337   34.3655   45.7083 H   0  0  0  0  0  0  0  0  0  0  0  0
   64.1016   33.9858   45.9694 H   0  0  0  0  0  0  0  0  0  0  0  0
   64.7301   32.6932   48.1783 H   0  0  0  0  0  0  0  0  0  0  0  0
  1  2  1  0
  2  3  1  0
  3  4  2  0
  4  5  1  0
  5  6  2  0
  6  7  1  0
  7  8  2  0
  8  9  1  0
  9 10  1  0
 10 11  1  0
 11 12  1  0
 12 13  1  0
 13 14  2  0
 14 15  1  0
 15 16  1  0
 10 17  1  0
 17 18  1  0
 18 19  2  0
 19 20  1  0
 20 21  2  0
 21 22  1  0
  8  3  1  0
 16 12  2  0
 22 18  1  0
  1 23  1  0
  1 24  1  0
  1 25  1  0
  4 26  1  0
  5 27  1  0
  6 28  1  0
  7 29  1  0
  9 30  1  0
  9 31  1  0
 10 32  1  1
 11 33  1  0
 11 34  1  0
 13 35  1  0
 14 36  1  0
 16 37  1  0
 17 38  1  0
 17 39  1  0
 19 40  1  0
 20 41  1  0
 21 42  1  0
M  CHG  1  10   1
M  END
>  <UniqueID>  (21) 
21

>  <SMILES>  (21) 
COc1ccccc1C[N@H+](Cc1ccsc1)Cc1cccs1

>  <Energy>  (21) 
106.92904796692716

>  <Genealogy>  (21) 
COc1ccccc1C[NH+](Cc1ccsc1)Cc1cccs1 (protonated)
COc1ccccc1C[N@H+](Cc1ccsc1)Cc1cccs1 (chirality)
COc1ccccc1C[N@H+](Cc1ccsc1)Cc1cccs1 (3D coordinates assigned)
COc1ccccc1C[N@H+](Cc1ccsc1)Cc1cccs1 (optimized conformer: 106.92904796692716 kcal/mol)

>  <smiles>  (21) 
COc1ccccc1CN(Cc1ccsc1)Cc1cccs1

>  <score_type>  (21) 
oracle

>  <origin>  (21) 
adg

>  <m_score__min__energy>  (21) 
-5.29

>  <m_primary>  (21) 
energy

$$$$
21:0
     RDKit          3D

 70 73  0  0  0  0  0  0  0  0999 V2000
   58.2010   27.1460   43.6120 C   0  0  0  0  0  0  0  0  0  0  0  0
   59.0860   27.3640   44.8400 C   0  0  0  0  0  0  0  0  0  0  0  0
   60.0810   28.4220   44.5890 N   0  0  0  0  0  0  0  0  0  0  0  0
   60.4390   29.1650   45.8120 C   0  0  0  0  0  0  0  0  0  0  0  0
   59.5280   28.8500   47.0090 C   0  0  0  0  0  0  0  0  0  0  0  0
   58.3370   29.7010   47.0290 N   0  0  0  0  0  0  0  0  0  0  0  0
   58.3880   31.0200   46.4670 C   0  0  0  0  0  0  0  0  0  0  0  0
   57.9840   31.2340   45.1410 C   0  0  0  0  0  0  0  0  0  0  0  0
   57.4780   30.1710   44.3640 C   0  0  0  0  0  0  0  0  0  0  0  0
   57.1290   30.3690   43.0310 C   0  0  0  0  0  0  0  0  0  0  0  0
   57.2950   31.6190   42.4460 C   0  0  0  0  0  0  0  0  0  0  0  0
   57.7820   32.6880   43.1980 C   0  0  0  0  0  0  0  0  0  0  0  0
   58.0990   32.5310   44.5730 C   0  0  0  0  0  0  0  0  0  0  0  0
   58.5290   33.5920   45.3490 N   0  0  0  0  0  0  0  0  0  0  0  0
   58.3940   34.9800   44.8490 C   0  0  0  0  0  0  0  0  0  0  0  0
   59.0490   33.3620   46.6090 C   0  0  0  0  0  0  0  0  0  0  0  0
   59.7240   34.3740   47.3360 C   0  0  0  0  0  0  0  0  0  0  0  0
   60.1870   34.1470   48.6310 C   0  0  0  0  0  0  0  0  0  0  0  0
   60.0010   32.9140   49.2490 C   0  0  0  0  0  0  0  0  0  0  0  0
   60.4640   32.7590   50.5670 O   0  0  0  0  0  0  0  0  0  0  0  0
   61.5580   33.4630   51.1560 C   0  0  0  0  0  0  0  0  0  0  0  0
   62.8380   32.5940   51.2950 C   0  0  0  0  0  0  0  0  0  0  0  0
   63.6400   32.3350   50.0470 N   0  0  0  0  0  0  0  0  0  0  0  0
   64.7980   31.4960   50.4670 C   0  0  0  0  0  0  0  0  0  0  0  0
   62.8320   31.5390   49.0630 C   0  0  0  0  0  0  0  0  0  0  0  0
   63.3670   31.6430   47.6240 C   0  0  0  0  0  0  0  0  0  0  0  0
   63.3500   33.0960   47.1160 C   0  0  0  0  0  0  0  0  0  0  0  0
   63.3710   34.1220   48.2580 C   0  0  0  0  0  0  0  0  0  0  0  0
   64.1900   33.6030   49.4540 C   0  0  0  0  0  0  0  0  0  0  0  0
   59.3710   31.8830   48.5350 C   0  0  0  0  0  0  0  0  0  0  0  0
   58.9340   32.0810   47.2080 C   0  0  0  0  0  0  0  0  0  0  0  0
   57.1802   26.8946   43.9357 H   0  0  0  0  0  0  0  0  0  0  0  0
   58.1783   28.0654   43.0085 H   0  0  0  0  0  0  0  0  0  0  0  0
   58.6079   26.3212   43.0085 H   0  0  0  0  0  0  0  0  0  0  0  0
   58.4547   27.6578   45.6915 H   0  0  0  0  0  0  0  0  0  0  0  0
   59.6174   26.4267   45.0616 H   0  0  0  0  0  0  0  0  0  0  0  0
   59.6730   29.1110   43.9140 H   0  0  0  0  0  0  0  0  0  0  0  0
   60.9340   28.0070   44.1490 H   0  0  0  0  0  0  0  0  0  0  0  0
   61.4734   28.9090   46.0848 H   0  0  0  0  0  0  0  0  0  0  0  0
   60.3197   30.2352   45.5872 H   0  0  0  0  0  0  0  0  0  0  0  0
   59.2122   27.7981   46.9481 H   0  0  0  0  0  0  0  0  0  0  0  0
   60.0982   29.0409   47.9301 H   0  0  0  0  0  0  0  0  0  0  0  0
   57.4290   29.3590   47.4150 H   0  0  0  0  0  0  0  0  0  0  0  0
   57.3580   29.1754   44.8160 H   0  0  0  0  0  0  0  0  0  0  0  0
   56.7215   29.5355   42.4401 H   0  0  0  0  0  0  0  0  0  0  0  0
   57.0413   31.7657   41.3858 H   0  0  0  0  0  0  0  0  0  0  0  0
   57.9227   33.6679   42.7183 H   0  0  0  0  0  0  0  0  0  0  0  0
   58.3267   35.6719   45.7015 H   0  0  0  0  0  0  0  0  0  0  0  0
   59.2715   35.2363   44.2371 H   0  0  0  0  0  0  0  0  0  0  0  0
   57.4836   35.0624   44.2371 H   0  0  0  0  0  0  0  0  0  0  0  0
   59.8856   35.3570   46.8696 H   0  0  0  0  0  0  0  0  0  0  0  0
   60.7059   34.9525   49.1713 H   0  0  0  0  0  0  0  0  0  0  0  0
   61.7930   34.3342   50.5269 H   0  0  0  0  0  0  0  0  0  0  0  0
   61.2502   33.7581   52.1700 H   0  0  0  0  0  0  0  0  0  0  0  0
   63.5011   33.0964   52.0147 H   0  0  0  0  0  0  0  0  0  0  0  0
   62.4728   31.6037   51.6046 H   0  0  0  0  0  0  0  0  0  0  0  0
   64.8462   31.4611   51.5654 H   0  0  0  0  0  0  0  0  0  0  0  0
   64.6743   30.4765   50.0728 H   0  0  0  0  0  0  0  0  0  0  0  0
   65.7282   31.9312   50.0728 H   0  0  0  0  0  0  0  0  0  0  0  0
   62.8494   30.4823   49.3682 H   0  0  0  0  0  0  0  0  0  0  0  0
   61.8116   31.9497   49.0657 H   0  0  0  0  0  0  0  0  0  0  0  0
   64.4010   31.2686   47.5998 H   0  0  0  0  0  0  0  0  0  0  0  0
   62.7162   31.0429   46.9711 H   0  0  0  0  0  0  0  0  0  0  0  0
   64.2338   33.2575   46.4813 H   0  0  0  0  0  0  0  0  0  0  0  0
   62.4150   33.2415   46.5551 H   0  0  0  0  0  0  0  0  0  0  0  0
   63.8212   35.0569   47.8929 H   0  0  0  0  0  0  0  0  0  0  0  0
   62.3371   34.2953   48.5912 H   0  0  0  0  0  0  0  0  0  0  0  0
   65.2192   33.4124   49.1158 H   0  0  0  0  0  0  0  0  0  0  0  0
   64.1468   34.3741   50.2373 H   0  0  0  0  0  0  0  0  0  0  0  0
   59.2156   30.9064   49.0168 H   0  0  0  0  0  0  0  0  0  0  0  0
  1  2  1  0
  2  3  1  0
  3  4  1  0
  4  5  1  0
  5  6  1  0
  6  7  1  0
  7  8  2  0
  8  9  1  0
  9 10  2  0
 10 11  1  0
 11 12  2  0
 12 13  1  0
 13 14  2  0
 14 15  1  0
 14 16  1  0
 16 17  2  0
 17 18  1  0
 18 19  2  0
 19 20  1  0
 20 21  1  0
 21 22  1  0
 22 23  1  0
 23 24  1  0
 23 25  1  0
 25 26  1  0
 26 27  1  0
 27 28  1  0
 28 29  1  0
 19 30  1  0
 30 31  2  0
 31  7  1  0
 13  8  1  0
 31 16  1  0
 29 23  1  0
  1 32  1  0
  1 33  1  0
  1 34  1  0
  2 35  1  0
  2 36  1  0
  3 37  1  0
  3 38  1  0
  4 39  1  0
  4 40  1  0
  5 41  1  0
  5 42  1  0
  6 43  1  0
  9 44  1  0
 10 45  1  0
 11 46  1  0
 12 47  1  0
 15 48  1  0
 15 49  1  0
 15 50  1  0
 17 51  1  0
 18 52  1  0
 21 53  1  0
 21 54  1  0
 22 55  1  0
 22 56  1  0
 24 57  1  0
 24 58  1  0
 24 59  1  0
 25 60  1  0
 25 61  1  0
 26 62  1  0
 26 63  1  0
 27 64  1  0
 27 65  1  0
 28 66  1  0
 28 67  1  0
 29 68  1  0
 29 69  1  0
 30 70  1  0
M  CHG  3   3   1  14   1  23   1
M  END
>  <UniqueID>  (22) 
22

>  <SMILES>  (22) 
CC[NH2+]CCNc1c2ccccc2[n+](C)c2ccc(OCC[N+]3(C)CCCCC3)cc12

>  <Energy>  (22) 
113.01065782122369

>  <Genealogy>  (22) 
CC[NH2+]CCNc1c2ccccc2[n+](C)c2ccc(OCC[N+]3(C)CCCCC3)cc12 (protonated)
CC[NH2+]CCNc1c2ccccc2[n+](C)c2ccc(OCC[N+]3(C)CCCCC3)cc12 (3D coordinates assigned)
CC[NH2+]CCNc1c2ccccc2[n+](C)c2ccc(OCC[N+]3(C)CCCCC3)cc12 (nonaromatic ring conformer: 113.01065782122369 kcal/mol)

>  <smiles>  (22) 
CCNCCNc1c2ccccc2[n+](C)c2ccc(OCC[N+]3(C)CCCCC3)cc12

>  <score_type>  (22) 
oracle

>  <origin>  (22) 
adg

>  <m_score__min__energy>  (22) 
-3.9399999999999999

>  <m_primary>  (22) 
energy

$$$$
22:0
     RDKit          3D

 77 80  0  0  0  0  0  0  0  0999 V2000
   62.9520   34.5510   50.4640 C   0  0  0  0  0  0  0  0  0  0  0  0
   62.4790   34.2730   49.0380 C   0  0  0  0  0  0  0  0  0  0  0  0
   63.6350   33.9370   48.0700 C   0  0  0  0  0  0  0  0  0  0  0  0
   64.0110   32.4960   48.0420 N   0  0  1  0  0  0  0  0  0  0  0  0
   64.5090   32.0500   49.3730 C   0  0  0  0  0  0  0  0  0  0  0  0
   65.8110   32.7530   49.7780 C   0  0  0  0  0  0  0  0  0  0  0  0
   62.9240   31.6060   47.5430 C   0  0  0  0  0  0  0  0  0  0  0  0
   61.9330   31.0930   48.6170 C   0  0  0  0  0  0  0  0  0  0  0  0
   60.6460   31.7900   48.5630 N   0  0  0  0  0  0  0  0  0  0  0  0
   59.7860   31.6370   47.4220 C   0  0  0  0  0  0  0  0  0  0  0  0
   59.5060   32.7330   46.5880 C   0  0  0  0  0  0  0  0  0  0  0  0
   60.0580   34.0050   46.8500 C   0  0  0  0  0  0  0  0  0  0  0  0
   59.7270   35.1010   46.0590 C   0  0  0  0  0  0  0  0  0  0  0  0
   58.8410   34.9520   45.0000 C   0  0  0  0  0  0  0  0  0  0  0  0
   58.3070   33.6990   44.7020 C   0  0  0  0  0  0  0  0  0  0  0  0
   58.6590   32.5530   45.4610 C   0  0  0  0  0  0  0  0  0  0  0  0
   58.1970   31.2920   45.1330 N   0  0  0  0  0  0  0  0  0  0  0  0
   57.5730   31.0540   43.8110 C   0  0  0  0  0  0  0  0  0  0  0  0
   58.3490   30.2450   46.0240 C   0  0  0  0  0  0  0  0  0  0  0  0
   57.6750   29.0090   45.8470 C   0  0  0  0  0  0  0  0  0  0  0  0
   57.8890   27.9260   46.7200 C   0  0  0  0  0  0  0  0  0  0  0  0
   57.2620   26.6790   46.5560 O   0  0  0  0  0  0  0  0  0  0  0  0
   57.4870   25.5190   47.3600 C   0  0  0  0  0  0  0  0  0  0  0  0
   56.4230   24.4410   47.0530 C   0  0  0  0  0  0  0  0  0  0  0  0
   55.6610   24.6490   45.7830 N   0  0  0  0  0  0  0  0  0  0  0  0
   54.9290   25.8040   45.8900 O   0  0  0  0  0  0  0  0  0  0  0  0
   54.7520   23.4880   45.4930 C   0  0  0  0  0  0  0  0  0  0  0  0
   54.4520   23.3360   43.9950 C   0  0  0  0  0  0  0  0  0  0  0  0
   55.7390   23.0330   43.2110 C   0  0  0  0  0  0  0  0  0  0  0  0
   56.9900   23.6200   43.8870 C   0  0  0  0  0  0  0  0  0  0  0  0
   56.6370   24.8940   44.6710 C   0  0  0  0  0  0  0  0  0  0  0  0
   58.7480   28.0860   47.8030 C   0  0  0  0  0  0  0  0  0  0  0  0
   59.3820   29.3030   48.0320 C   0  0  0  0  0  0  0  0  0  0  0  0
   59.1830   30.3950   47.1620 C   0  0  0  0  0  0  0  0  0  0  0  0
   62.2310   34.1273   51.1786 H   0  0  0  0  0  0  0  0  0  0  0  0
   63.9378   34.0886   50.6200 H   0  0  0  0  0  0  0  0  0  0  0  0
   63.0277   35.6372   50.6200 H   0  0  0  0  0  0  0  0  0  0  0  0
   61.7824   33.4219   49.0600 H   0  0  0  0  0  0  0  0  0  0  0  0
   61.9977   35.1902   48.6677 H   0  0  0  0  0  0  0  0  0  0  0  0
   63.3319   34.2339   47.0551 H   0  0  0  0  0  0  0  0  0  0  0  0
   64.5175   34.4862   48.4301 H   0  0  0  0  0  0  0  0  0  0  0  0
   64.8000   32.3790   47.3650 H   0  0  0  0  0  0  0  0  0  0  0  0
   63.7402   32.2684   50.1288 H   0  0  0  0  0  0  0  0  0  0  0  0
   64.7171   30.9718   49.3082 H   0  0  0  0  0  0  0  0  0  0  0  0
   65.8813   32.7909   50.8751 H   0  0  0  0  0  0  0  0  0  0  0  0
   66.6694   32.1958   49.3747 H   0  0  0  0  0  0  0  0  0  0  0  0
   65.8159   33.7764   49.3747 H   0  0  0  0  0  0  0  0  0  0  0  0
   62.3481   32.1645   46.7904 H   0  0  0  0  0  0  0  0  0  0  0  0
   63.4261   30.7117   47.1453 H   0  0  0  0  0  0  0  0  0  0  0  0
   61.7607   30.0187   48.4552 H   0  0  0  0  0  0  0  0  0  0  0  0
   62.3782   31.2838   49.6046 H   0  0  0  0  0  0  0  0  0  0  0  0
   60.4520   32.5900   49.2050 H   0  0  0  0  0  0  0  0  0  0  0  0
   60.7579   34.1316   47.6891 H   0  0  0  0  0  0  0  0  0  0  0  0
   60.1674   36.0861   46.2727 H   0  0  0  0  0  0  0  0  0  0  0  0
   58.5595   35.8258   44.3940 H   0  0  0  0  0  0  0  0  0  0  0  0
   57.6011   33.5972   43.8646 H   0  0  0  0  0  0  0  0  0  0  0  0
   56.5536   30.6652   43.9514 H   0  0  0  0  0  0  0  0  0  0  0  0
   57.5309   31.9992   43.2499 H   0  0  0  0  0  0  0  0  0  0  0  0
   58.1710   30.3208   43.2499 H   0  0  0  0  0  0  0  0  0  0  0  0
   56.9705   28.8949   45.0100 H   0  0  0  0  0  0  0  0  0  0  0  0
   58.4867   25.1148   47.1427 H   0  0  0  0  0  0  0  0  0  0  0  0
   57.4173   25.7994   48.4214 H   0  0  0  0  0  0  0  0  0  0  0  0
   56.9315   23.4676   46.9904 H   0  0  0  0  0  0  0  0  0  0  0  0
   55.6852   24.4965   47.8670 H   0  0  0  0  0  0  0  0  0  0  0  0
   55.1510   26.2600   46.7440 H   0  0  0  0  0  0  0  0  0  0  0  0
   55.2322   22.5658   45.8519 H   0  0  0  0  0  0  0  0  0  0  0  0
   53.7978   23.6739   46.0078 H   0  0  0  0  0  0  0  0  0  0  0  0
   53.7390   22.5107   43.8515 H   0  0  0  0  0  0  0  0  0  0  0  0
   54.0247   24.2787   43.6225 H   0  0  0  0  0  0  0  0  0  0  0  0
   55.8577   21.9421   43.1350 H   0  0  0  0  0  0  0  0  0  0  0  0
   55.6445   23.4985   42.2188 H   0  0  0  0  0  0  0  0  0  0  0  0
   57.4097   22.8749   44.5789 H   0  0  0  0  0  0  0  0  0  0  0  0
   57.7249   23.8756   43.1095 H   0  0  0  0  0  0  0  0  0  0  0  0
   57.5611   25.3077   45.1011 H   0  0  0  0  0  0  0  0  0  0  0  0
   56.1623   25.5921   43.9658 H   0  0  0  0  0  0  0  0  0  0  0  0
   58.9276   27.2417   48.4849 H   0  0  0  0  0  0  0  0  0  0  0  0
   60.0462   29.4148   48.9017 H   0  0  0  0  0  0  0  0  0  0  0  0
  1  2  1  0
  2  3  1  0
  3  4  1  0
  4  5  1  0
  5  6  1  0
  4  7  1  0
  7  8  1  0
  8  9  1  0
  9 10  1  0
 10 11  2  0
 11 12  1  0
 12 13  2  0
 13 14  1  0
 14 15  2  0
 15 16  1  0
 16 17  2  0
 17 18  1  0
 17 19  1  0
 19 20  2  0
 20 21  1  0
 21 22  1  0
 22 23  1  0
 23 24  1  0
 24 25  1  0
 25 26  1  0
 25 27  1  0
 27 28  1  0
 28 29  1  0
 29 30  1  0
 30 31  1  0
 21 32  2  0
 32 33  1  0
 33 34  2  0
 34 10  1  0
 16 11  1  0
 34 19  1  0
 31 25  1  0
  1 35  1  0
  1 36  1  0
  1 37  1  0
  2 38  1  0
  2 39  1  0
  3 40  1  0
  3 41  1  0
  4 42  1  6
  5 43  1  0
  5 44  1  0
  6 45  1  0
  6 46  1  0
  6 47  1  0
  7 48  1  0
  7 49  1  0
  8 50  1  0
  8 51  1  0
  9 52  1  0
 12 53  1  0
 13 54  1  0
 14 55  1  0
 15 56  1  0
 18 57  1  0
 18 58  1  0
 18 59  1  0
 20 60  1  0
 23 61  1  0
 23 62  1  0
 24 63  1  0
 24 64  1  0
 26 65  1  0
 27 66  1  0
 27 67  1  0
 28 68  1  0
 28 69  1  0
 29 70  1  0
 29 71  1  0
 30 72  1  0
 30 73  1  0
 31 74  1  0
 31 75  1  0
 32 76  1  0
 33 77  1  0
M  CHG  3   4   1  17   1  25   1
M  END
>  <UniqueID>  (23) 
23

>  <SMILES>  (23) 
CCC[N@@H+](CC)CCNc1c2ccccc2[n+](C)c2cc(OCC[N+]3(O)CCCCC3)ccc12

>  <Energy>  (23) 
123.36244499007681

>  <Genealogy>  (23) 
CCC[NH+](CC)CCNc1c2ccccc2[n+](C)c2cc(OCC[N+]3(O)CCCCC3)ccc12 (protonated)
CCC[N@@H+](CC)CCNc1c2ccccc2[n+](C)c2cc(OCC[N+]3(O)CCCCC3)ccc12 (chirality)
CCC[N@@H+](CC)CCNc1c2ccccc2[n+](C)c2cc(OCC[N+]3(O)CCCCC3)ccc12 (3D coordinates assigned)
CCC[N@@H+](CC)CCNc1c2ccccc2[n+](C)c2cc(OCC[N+]3(O)CCCCC3)ccc12 (nonaromatic ring conformer: 123.36244499007681 kcal/mol)

>  <smiles>  (23) 
CCCN(CC)CCNc1c2ccccc2[n+](C)c2cc(OCC[N+]3([O-])CCCCC3)ccc12

>  <score_type>  (23) 
oracle

>  <origin>  (23) 
adg

>  <m_score__min__energy>  (23) 
-4.7300000000000004

>  <m_primary>  (23) 
energy

$$$$
23:0
     RDKit          3D

 49 50  0  0  0  0  0  0  0  0999 V2000
   61.2240   30.4760   46.7690 C   0  0  0  0  0  0  0  0  0  0  0  0
   61.9090   31.2290   47.9040 C   0  0  0  0  0  0  0  0  0  0  0  0
   61.3260   32.5820   48.0530 N   0  0  0  0  0  0  0  0  0  0  0  0
   62.1730   33.6020   47.3910 C   0  0  0  0  0  0  0  0  0  0  0  0
   63.5660   33.0370   47.1180 C   0  0  0  0  0  0  0  0  0  0  0  0
   61.1180   32.9180   49.4820 C   0  0  0  0  0  0  0  0  0  0  0  0
   59.6640   33.3290   49.7210 C   0  0  0  0  0  0  0  0  0  0  0  0
   58.5520   32.3850   48.6930 S   0  0  0  0  0  0  0  0  0  0  0  0
   58.8630   30.7370   48.7800 O   0  0  0  0  0  0  0  0  0  0  0  0
   58.5350   32.9440   47.0310 C   0  0  0  0  0  0  0  0  0  0  0  0
   58.9790   34.2320   46.7070 C   0  0  0  0  0  0  0  0  0  0  0  0
   58.9440   34.6700   45.3810 C   0  0  0  0  0  0  0  0  0  0  0  0
   58.4420   33.8330   44.3790 C   0  0  0  0  0  0  0  0  0  0  0  0
   57.9770   32.5510   44.6970 C   0  0  0  0  0  0  0  0  0  0  0  0
   57.4080   31.7440   43.6560 N   0  0  0  0  0  0  0  0  0  0  0  0
   56.6430   30.2090   43.9140 S   0  0  0  0  0  0  0  0  0  0  0  0
   56.1640   29.6640   42.5980 O   0  0  0  0  0  0  0  0  0  0  0  0
   55.4630   30.3860   44.8270 O   0  0  0  0  0  0  0  0  0  0  0  0
   57.7920   29.1090   44.6760 C   0  0  0  0  0  0  0  0  0  0  0  0
   57.4040   28.3640   45.7960 C   0  0  0  0  0  0  0  0  0  0  0  0
   58.3270   27.5360   46.4350 C   0  0  0  0  0  0  0  0  0  0  0  0
   59.6350   27.4640   45.9470 C   0  0  0  0  0  0  0  0  0  0  0  0
   60.8060   26.4260   46.7410 Cl  0  0  0  0  0  0  0  0  0  0  0  0
   60.0000   28.1970   44.8580 N   0  0  0  0  0  0  0  0  0  0  0  0
   59.1120   29.0070   44.2180 C   0  0  0  0  0  0  0  0  0  0  0  0
   58.0500   32.1010   46.0270 C   0  0  0  0  0  0  0  0  0  0  0  0
   60.5397   29.7238   47.1885 H   0  0  0  0  0  0  0  0  0  0  0  0
   60.6547   31.1848   46.1498 H   0  0  0  0  0  0  0  0  0  0  0  0
   61.9834   29.9761   46.1498 H   0  0  0  0  0  0  0  0  0  0  0  0
   61.7739   30.6710   48.8423 H   0  0  0  0  0  0  0  0  0  0  0  0
   62.9799   31.3260   47.6721 H   0  0  0  0  0  0  0  0  0  0  0  0
   61.7081   33.8976   46.4389 H   0  0  0  0  0  0  0  0  0  0  0  0
   62.2643   34.4761   48.0526 H   0  0  0  0  0  0  0  0  0  0  0  0
   64.0720   32.8318   48.0729 H   0  0  0  0  0  0  0  0  0  0  0  0
   63.4769   32.1039   46.5423 H   0  0  0  0  0  0  0  0  0  0  0  0
   64.1520   33.7685   46.5423 H   0  0  0  0  0  0  0  0  0  0  0  0
   61.3536   32.0391   50.1001 H   0  0  0  0  0  0  0  0  0  0  0  0
   61.7774   33.7554   49.7538 H   0  0  0  0  0  0  0  0  0  0  0  0
   59.4108   33.1559   50.7774 H   0  0  0  0  0  0  0  0  0  0  0  0
   59.5557   34.3937   49.4668 H   0  0  0  0  0  0  0  0  0  0  0  0
   59.8510   30.6710   48.7310 H   0  0  0  0  0  0  0  0  0  0  0  0
   59.3553   34.8989   47.4967 H   0  0  0  0  0  0  0  0  0  0  0  0
   59.3117   35.6745   45.1245 H   0  0  0  0  0  0  0  0  0  0  0  0
   58.4124   34.1834   43.3367 H   0  0  0  0  0  0  0  0  0  0  0  0
   56.3724   28.4315   46.1717 H   0  0  0  0  0  0  0  0  0  0  0  0
   58.0286   26.9457   47.3140 H   0  0  0  0  0  0  0  0  0  0  0  0
   60.9770   28.1370   44.4970 H   0  0  0  0  0  0  0  0  0  0  0  0
   59.4324   29.5836   43.3378 H   0  0  0  0  0  0  0  0  0  0  0  0
   57.7240   31.0810   46.2786 H   0  0  0  0  0  0  0  0  0  0  0  0
  1  2  1  0
  2  3  1  0
  3  4  1  0
  4  5  1  0
  3  6  1  0
  6  7  1  0
  7  8  1  0
  8  9  1  6
  8 10  1  0
 10 11  2  0
 11 12  1  0
 12 13  2  0
 13 14  1  0
 14 15  1  0
 15 16  1  0
 16 17  2  0
 16 18  2  0
 16 19  1  0
 19 20  2  0
 20 21  1  0
 21 22  2  0
 22 23  1  0
 22 24  1  0
 24 25  2  0
 14 26  2  0
 26 10  1  0
 25 19  1  0
  1 27  1  0
  1 28  1  0
  1 29  1  0
  2 30  1  0
  2 31  1  0
  4 32  1  0
  4 33  1  0
  5 34  1  0
  5 35  1  0
  5 36  1  0
  6 37  1  0
  6 38  1  0
  7 39  1  0
  7 40  1  0
  9 41  1  0
 11 42  1  0
 12 43  1  0
 13 44  1  0
 20 45  1  0
 21 46  1  0
 24 47  1  0
 25 48  1  0
 26 49  1  0
M  CHG  3   8   1  15  -1  24   1
M  END
>  <UniqueID>  (24) 
24

>  <SMILES>  (24) 
CCN(CC)CC[S@+](O)c1cccc([N-]S(=O)(=O)c2ccc(Cl)[nH+]c2)c1

>  <Energy>  (24) 
42.360348994290206

>  <Genealogy>  (24) 
CCN(CC)CC[S+](O)c1cccc([N-]S(=O)(=O)c2ccc(Cl)[nH+]c2)c1 (protonated)
CCN(CC)CC[S@+](O)c1cccc([N-]S(=O)(=O)c2ccc(Cl)[nH+]c2)c1 (chirality)
CCN(CC)CC[S@+](O)c1cccc([N-]S(=O)(=O)c2ccc(Cl)[nH+]c2)c1 (3D coordinates assigned)
CCN(CC)CC[S@+](O)c1cccc([N-]S(=O)(=O)c2ccc(Cl)[nH+]c2)c1 (optimized conformer: 42.360348994290206 kcal/mol)

>  <smiles>  (24) 
CCN(CC)CC[S+]([O-])c1cccc(NS(=O)(=O)c2ccc(Cl)nc2)c1

>  <score_type>  (24) 
oracle

>  <origin>  (24) 
adg

>  <m_score__min__energy>  (24) 
-6.54

>  <m_primary>  (24) 
energy

$$$$
24:0
     RDKit          3D

 44 46  0  0  0  0  0  0  0  0999 V2000
   56.6510   30.4980   43.0940 C   0  0  0  0  0  0  0  0  0  0  0  0
   55.5270   30.3660   44.1150 C   0  0  0  0  0  0  0  0  0  0  0  0
   55.8080   29.2570   45.0330 N   0  0  0  0  0  0  0  0  0  0  0  0
   57.0780   28.6130   44.6770 C   0  0  0  0  0  0  0  0  0  0  0  0
   57.4010   27.5030   45.6780 C   0  0  0  0  0  0  0  0  0  0  0  0
   57.6470   28.0780   46.9980 N   0  0  0  0  0  0  0  0  0  0  0  0
   58.8060   28.8790   47.2580 C   0  0  0  0  0  0  0  0  0  0  0  0
   58.9980   30.1920   46.8770 C   0  0  0  0  0  0  0  0  0  0  0  0
   58.1660   31.0890   46.2290 C   0  0  0  0  0  0  0  0  0  0  0  0
   58.6400   32.3960   46.0380 C   0  0  0  0  0  0  0  0  0  0  0  0
   57.8330   33.3420   45.3870 C   0  0  0  0  0  0  0  0  0  0  0  0
   58.2870   34.6460   45.2010 C   0  0  0  0  0  0  0  0  0  0  0  0
   59.5450   35.0240   45.6650 C   0  0  0  0  0  0  0  0  0  0  0  0
   60.3650   34.1020   46.3190 C   0  0  0  0  0  0  0  0  0  0  0  0
   59.9400   32.7660   46.5180 C   0  0  0  0  0  0  0  0  0  0  0  0
   60.7360   31.8320   47.1680 N   0  0  0  0  0  0  0  0  0  0  0  0
   62.0800   32.1880   47.6610 C   0  0  0  0  0  0  0  0  0  0  0  0
   60.2310   30.5700   47.3470 C   0  0  0  0  0  0  0  0  0  0  0  0
   60.7630   29.4760   48.0240 C   0  0  0  0  0  0  0  0  0  0  0  0
   59.8810   28.4510   47.9600 N   0  0  0  0  0  0  0  0  0  0  0  0
   60.0520   27.1350   48.5680 C   0  0  0  0  0  0  0  0  0  0  0  0
   57.6113   30.6108   43.6184 H   0  0  0  0  0  0  0  0  0  0  0  0
   56.6812   29.5972   42.4634 H   0  0  0  0  0  0  0  0  0  0  0  0
   56.4717   31.3813   42.4634 H   0  0  0  0  0  0  0  0  0  0  0  0
   55.4446   31.3011   44.6884 H   0  0  0  0  0  0  0  0  0  0  0  0
   54.5827   30.1663   43.5873 H   0  0  0  0  0  0  0  0  0  0  0  0
   55.9140   29.6580   45.9960 H   0  0  0  0  0  0  0  0  0  0  0  0
   56.9973   28.1816   43.6683 H   0  0  0  0  0  0  0  0  0  0  0  0
   57.8818   29.3637   44.6989 H   0  0  0  0  0  0  0  0  0  0  0  0
   56.5516   26.8065   45.7364 H   0  0  0  0  0  0  0  0  0  0  0  0
   58.3011   26.9659   45.3442 H   0  0  0  0  0  0  0  0  0  0  0  0
   57.1930   27.6050   47.8120 H   0  0  0  0  0  0  0  0  0  0  0  0
   57.1686   30.7878   45.8763 H   0  0  0  0  0  0  0  0  0  0  0  0
   56.8367   33.0523   45.0217 H   0  0  0  0  0  0  0  0  0  0  0  0
   57.6497   35.3798   44.6858 H   0  0  0  0  0  0  0  0  0  0  0  0
   59.8949   36.0560   45.5152 H   0  0  0  0  0  0  0  0  0  0  0  0
   61.3535   34.4176   46.6841 H   0  0  0  0  0  0  0  0  0  0  0  0
   62.0790   32.1877   48.7610 H   0  0  0  0  0  0  0  0  0  0  0  0
   62.8116   31.4527   47.2948 H   0  0  0  0  0  0  0  0  0  0  0  0
   62.3516   33.1891   47.2948 H   0  0  0  0  0  0  0  0  0  0  0  0
   61.7402   29.4489   48.5284 H   0  0  0  0  0  0  0  0  0  0  0  0
   60.0393   27.2328   49.6636 H   0  0  0  0  0  0  0  0  0  0  0  0
   59.2321   26.4745   48.2493 H   0  0  0  0  0  0  0  0  0  0  0  0
   61.0134   26.7060   48.2493 H   0  0  0  0  0  0  0  0  0  0  0  0
  1  2  1  0
  2  3  1  0
  3  4  1  0
  4  5  1  0
  5  6  1  0
  6  7  1  0
  7  8  2  0
  8  9  1  0
  9 10  2  0
 10 11  1  0
 11 12  2  0
 12 13  1  0
 13 14  2  0
 14 15  1  0
 15 16  2  0
 16 17  1  0
 16 18  1  0
 18 19  2  0
 19 20  1  0
 20 21  1  0
 20  7  1  0
 18  8  1  0
 15 10  1  0
  1 22  1  0
  1 23  1  0
  1 24  1  0
  2 25  1  0
  2 26  1  0
  3 27  1  0
  4 28  1  0
  4 29  1  0
  5 30  1  0
  5 31  1  0
  6 32  1  0
  9 33  1  0
 11 34  1  0
 12 35  1  0
 13 36  1  0
 14 37  1  0
 17 38  1  0
 17 39  1  0
 17 40  1  0
 19 41  1  0
 21 42  1  0
 21 43  1  0
 21 44  1  0
M  CHG  1  16   1
M  END
>  <UniqueID>  (25) 
25

>  <SMILES>  (25) 
CCNCCNc1c2cc3ccccc3[n+](C)c2cn1C

>  <Energy>  (25) 
85.23563589280488

>  <Genealogy>  (25) 
CCNCCNc1c2cc3ccccc3[n+](C)c2cn1C (3D coordinates assigned)
CCNCCNc1c2cc3ccccc3[n+](C)c2cn1C (optimized conformer: 85.23563589280488 kcal/mol)

>  <smiles>  (25) 
CCNCCNc1c2cc3ccccc3[n+](C)c2cn1C

>  <score_type>  (25) 
oracle

>  <origin>  (25) 
adg

>  <m_score__min__energy>  (25) 
-5.7999999999999998

>  <m_primary>  (25) 
energy

$$$$
25:0
     RDKit          3D

 58 60  0  0  0  0  0  0  0  0999 V2000
   59.2760   34.6420   48.0340 C   0  0  0  0  0  0  0  0  0  0  0  0
   59.7100   35.3410   46.7500 C   0  0  0  0  0  0  0  0  0  0  0  0
   58.8730   34.9240   45.6250 N   0  0  0  0  0  0  0  0  0  0  0  0
   58.5220   33.5570   45.3190 C   0  0  0  0  0  0  0  0  0  0  0  0
   57.4040   33.2360   44.5490 C   0  0  0  0  0  0  0  0  0  0  0  0
   57.1200   31.9120   44.2370 C   0  0  0  0  0  0  0  0  0  0  0  0
   57.9490   30.8520   44.6790 C   0  0  0  0  0  0  0  0  0  0  0  0
   59.0380   31.1550   45.5450 C   0  0  0  0  0  0  0  0  0  0  0  0
   59.3270   32.5220   45.8080 C   0  0  0  0  0  0  0  0  0  0  0  0
   59.7980   30.0870   46.1130 C   0  0  0  0  0  0  0  0  0  0  0  0
   60.9280   30.3420   47.0010 N   0  0  0  0  0  0  0  0  0  0  0  0
   60.4960   30.6670   48.3730 C   0  0  0  0  0  0  0  0  0  0  0  0
   61.2700   31.8690   48.9700 C   0  0  0  0  0  0  0  0  0  0  0  0
   62.4510   32.2920   48.1760 N   0  0  0  0  0  0  0  0  0  0  0  0
   62.3610   33.6410   47.5780 C   0  0  0  0  0  0  0  0  0  0  0  0
   63.2590   33.7680   46.3480 C   0  0  0  0  0  0  0  0  0  0  0  0
   63.7590   31.9460   48.7860 C   0  0  0  0  0  0  0  0  0  0  0  0
   64.5000   33.1300   49.4140 C   0  0  0  0  0  0  0  0  0  0  0  0
   59.4020   28.7480   45.8300 C   0  0  0  0  0  0  0  0  0  0  0  0
   60.0610   27.6350   46.4150 C   0  0  0  0  0  0  0  0  0  0  0  0
   59.6300   26.3330   46.1760 C   0  0  0  0  0  0  0  0  0  0  0  0
   58.5300   26.1020   45.3660 C   0  0  0  0  0  0  0  0  0  0  0  0
   57.8740   27.1690   44.7600 C   0  0  0  0  0  0  0  0  0  0  0  0
   58.3180   28.5060   44.9430 C   0  0  0  0  0  0  0  0  0  0  0  0
   57.7070   29.5530   44.2880 N   0  0  0  0  0  0  0  0  0  0  0  0
   56.8190   29.2830   43.1330 C   0  0  0  0  0  0  0  0  0  0  0  0
   59.6322   35.2158   48.9023 H   0  0  0  0  0  0  0  0  0  0  0  0
   58.1783   34.5768   48.0630 H   0  0  0  0  0  0  0  0  0  0  0  0
   59.7044   33.6293   48.0630 H   0  0  0  0  0  0  0  0  0  0  0  0
   59.6197   36.4292   46.8832 H   0  0  0  0  0  0  0  0  0  0  0  0
   60.7535   35.0678   46.5343 H   0  0  0  0  0  0  0  0  0  0  0  0
   58.4960   35.6820   45.0130 H   0  0  0  0  0  0  0  0  0  0  0  0
   56.7426   34.0366   44.1862 H   0  0  0  0  0  0  0  0  0  0  0  0
   56.2303   31.6817   43.6325 H   0  0  0  0  0  0  0  0  0  0  0  0
   60.2098   32.7736   46.4140 H   0  0  0  0  0  0  0  0  0  0  0  0
   61.6300   29.5740   47.0250 H   0  0  0  0  0  0  0  0  0  0  0  0
   61.4980   31.1300   46.6220 H   0  0  0  0  0  0  0  0  0  0  0  0
   59.4236   30.9111   48.3566 H   0  0  0  0  0  0  0  0  0  0  0  0
   60.7017   29.7902   49.0046 H   0  0  0  0  0  0  0  0  0  0  0  0
   60.5793   32.7222   49.0409 H   0  0  0  0  0  0  0  0  0  0  0  0
   61.6500   31.5431   49.9495 H   0  0  0  0  0  0  0  0  0  0  0  0
   61.3191   33.8320   47.2814 H   0  0  0  0  0  0  0  0  0  0  0  0
   62.6949   34.3741   48.3270 H   0  0  0  0  0  0  0  0  0  0  0  0
   64.3009   33.9154   46.6684 H   0  0  0  0  0  0  0  0  0  0  0  0
   63.1870   32.8507   45.7451 H   0  0  0  0  0  0  0  0  0  0  0  0
   62.9354   34.6293   45.7451 H   0  0  0  0  0  0  0  0  0  0  0  0
   63.5843   31.1949   49.5704 H   0  0  0  0  0  0  0  0  0  0  0  0
   64.3965   31.5753   47.9698 H   0  0  0  0  0  0  0  0  0  0  0  0
   64.4518   33.0530   50.5102 H   0  0  0  0  0  0  0  0  0  0  0  0
   65.5516   33.1173   49.0914 H   0  0  0  0  0  0  0  0  0  0  0  0
   64.0289   34.0702   49.0914 H   0  0  0  0  0  0  0  0  0  0  0  0
   60.9286   27.8046   47.0696 H   0  0  0  0  0  0  0  0  0  0  0  0
   60.1639   25.4858   46.6312 H   0  0  0  0  0  0  0  0  0  0  0  0
   58.1748   25.0739   45.2018 H   0  0  0  0  0  0  0  0  0  0  0  0
   56.9954   26.9737   44.1276 H   0  0  0  0  0  0  0  0  0  0  0  0
   55.8258   28.9810   43.4968 H   0  0  0  0  0  0  0  0  0  0  0  0
   56.7247   30.1931   42.5224 H   0  0  0  0  0  0  0  0  0  0  0  0
   57.2473   28.4745   42.5224 H   0  0  0  0  0  0  0  0  0  0  0  0
  1  2  1  0
  2  3  1  0
  3  4  1  0
  4  5  2  0
  5  6  1  0
  6  7  2  0
  7  8  1  0
  8  9  2  0
  8 10  1  0
 10 11  1  0
 11 12  1  0
 12 13  1  0
 13 14  1  0
 14 15  1  0
 15 16  1  0
 14 17  1  0
 17 18  1  0
 10 19  2  0
 19 20  1  0
 20 21  2  0
 21 22  1  0
 22 23  2  0
 23 24  1  0
 24 25  2  0
 25 26  1  0
  9  4  1  0
 24 19  1  0
 25  7  1  0
  1 27  1  0
  1 28  1  0
  1 29  1  0
  2 30  1  0
  2 31  1  0
  3 32  1  0
  5 33  1  0
  6 34  1  0
  9 35  1  0
 11 36  1  0
 11 37  1  0
 12 38  1  0
 12 39  1  0
 13 40  1  0
 13 41  1  0
 15 42  1  0
 15 43  1  0
 16 44  1  0
 16 45  1  0
 16 46  1  0
 17 47  1  0
 17 48  1  0
 18 49  1  0
 18 50  1  0
 18 51  1  0
 20 52  1  0
 21 53  1  0
 22 54  1  0
 23 55  1  0
 26 56  1  0
 26 57  1  0
 26 58  1  0
M  CHG  2  11   1  25   1
M  END
>  <UniqueID>  (26) 
26

>  <SMILES>  (26) 
CCNc1ccc2c(c1)c([NH2+]CCN(CC)CC)c1ccccc1[n+]2C

>  <Energy>  (26) 
91.3344173061859

>  <Genealogy>  (26) 
CCNc1ccc2c(c1)c([NH2+]CCN(CC)CC)c1ccccc1[n+]2C (protonated)
CCNc1ccc2c(c1)c([NH2+]CCN(CC)CC)c1ccccc1[n+]2C (3D coordinates assigned)
CCNc1ccc2c(c1)c([NH2+]CCN(CC)CC)c1ccccc1[n+]2C (optimized conformer: 91.3344173061859 kcal/mol)

>  <smiles>  (26) 
CCNc1ccc2c(c1)c(NCCN(CC)CC)c1ccccc1[n+]2C

>  <score_type>  (26) 
oracle

>  <origin>  (26) 
adg

>  <m_score__min__energy>  (26) 
-4.1699999999999999

>  <m_primary>  (26) 
energy

$$$$
