0:0
     RDKit          3D

 32 31  0  0  0  0  0  0  0  0999 V2000
   60.0970   28.6540   45.2130 C   0  0  0  0  0  0  0  0  0  0  0  0
   58.9670   28.1270   45.6920 C   0  0  0  0  0  0  0  0  0  0  0  0
   57.6770   28.2120   44.9250 C   0  0  0  0  0  0  0  0  0  0  0  0
   57.7920   29.1470   43.8070 N   0  0  0  0  0  0  0  0  0  0  0  0
   56.8890   30.2460   43.6560 C   0  0  0  0  0  0  0  0  0  0  0  0
   55.9950   30.4650   44.5170 O   0  0  0  0  0  0  0  0  0  0  0  0
   57.0310   31.3320   42.2360 S   0  0  0  0  0  0  0  0  0  0  0  0
   58.0660   32.5740   43.0890 C   0  0  0  0  0  0  0  0  0  0  0  0
   58.2520   32.1970   44.5740 C   0  0  0  0  0  0  0  0  0  0  0  0
   58.2490   33.3490   45.5280 N   0  0  0  0  0  0  0  0  0  0  0  0
   59.4470   34.2030   45.3460 C   0  0  0  0  0  0  0  0  0  0  0  0
   58.2720   32.8010   46.9060 C   0  0  0  0  0  0  0  0  0  0  0  0
   57.0230   34.1700   45.3740 C   0  0  0  0  0  0  0  0  0  0  0  0
   61.0283   28.5787   45.7935 H   0  0  0  0  0  0  0  0  0  0  0  0
   60.0963   29.1634   44.2380 H   0  0  0  0  0  0  0  0  0  0  0  0
   58.9807   27.6202   46.6682 H   0  0  0  0  0  0  0  0  0  0  0  0
   57.4240   27.2149   44.5353 H   0  0  0  0  0  0  0  0  0  0  0  0
   56.8895   28.5723   45.6032 H   0  0  0  0  0  0  0  0  0  0  0  0
   58.5360   29.0150   43.0840 H   0  0  0  0  0  0  0  0  0  0  0  0
   59.0510   32.6204   42.6015 H   0  0  0  0  0  0  0  0  0  0  0  0
   57.5668   33.5525   43.0309 H   0  0  0  0  0  0  0  0  0  0  0  0
   57.4345   31.5179   44.8578 H   0  0  0  0  0  0  0  0  0  0  0  0
   59.2494   31.7395   44.6505 H   0  0  0  0  0  0  0  0  0  0  0  0
   59.8470   34.4881   46.3302 H   0  0  0  0  0  0  0  0  0  0  0  0
   60.2128   33.6459   44.7864 H   0  0  0  0  0  0  0  0  0  0  0  0
   59.1701   35.1086   44.7864 H   0  0  0  0  0  0  0  0  0  0  0  0
   58.2373   33.6282   47.6302 H   0  0  0  0  0  0  0  0  0  0  0  0
   57.4005   32.1465   47.0549 H   0  0  0  0  0  0  0  0  0  0  0  0
   59.1952   32.2218   47.0549 H   0  0  0  0  0  0  0  0  0  0  0  0
   56.6305   34.4328   46.3674 H   0  0  0  0  0  0  0  0  0  0  0  0
   57.2644   35.0892   44.8202 H   0  0  0  0  0  0  0  0  0  0  0  0
   56.2650   33.5967   44.8202 H   0  0  0  0  0  0  0  0  0  0  0  0
  1  2  2  0
  2  3  1  0
  3  4  1  0
  4  5  1  0
  5  6  2  0
  5  7  1  0
  7  8  1  0
  8  9  1  0
  9 10  1  0
 10 11  1  0
 10 12  1  0
 10 13  1  0
  1 14  1  0
  1 15  1  0
  2 16  1  0
  3 17  1  0
  3 18  1  0
  4 19  1  0
  8 20  1  0
  8 21  1  0
  9 22  1  0
  9 23  1  0
 11 24  1  0
 11 25  1  0
 11 26  1  0
 12 27  1  0
 12 28  1  0
 12 29  1  0
 13 30  1  0
 13 31  1  0
 13 32  1  0
M  CHG  1  10   1
M  END
>  <UniqueID>  (1) 
1

>  <SMILES>  (1) 
C=CCNC(=O)SCC[N+](C)(C)C

>  <Energy>  (1) 
23.481266273006952

>  <Genealogy>  (1) 
C=CCNC(=O)SCC[N+](C)(C)C (3D coordinates assigned)
C=CCNC(=O)SCC[N+](C)(C)C (optimized conformer: 23.481266273006952 kcal/mol)

>  <smiles>  (1) 
C=CCNC(=O)SCC[N+](C)(C)C

>  <score_type>  (1) 
oracle

>  <origin>  (1) 
adg

>  <m_score__min__energy>  (1) 
-3.4300000000000002

>  <m_primary>  (1) 
energy

$$$$
1:0
     RDKit          3D

 43 46  0  0  0  0  0  0  0  0999 V2000
   64.3510   33.0900   48.4770 C   0  0  0  0  0  0  0  0  0  0  0  0
   62.9280   33.4380   48.1580 C   0  0  0  0  0  0  0  0  0  0  0  0
   62.4960   33.5030   46.8250 C   0  0  0  0  0  0  0  0  0  0  0  0
   61.1800   33.8620   46.5270 C   0  0  0  0  0  0  0  0  0  0  0  0
   60.2780   34.1800   47.5570 C   0  0  0  0  0  0  0  0  0  0  0  0
   58.8490   34.5270   47.2310 C   0  0  0  0  0  0  0  0  0  0  0  0
   58.3500   33.6780   46.1470 N   0  0  0  0  0  0  0  0  0  0  0  0
   57.8810   34.2230   44.8710 C   0  0  0  0  0  0  0  0  0  0  0  0
   57.7670   33.0260   43.9030 C   0  0  0  0  0  0  0  0  0  0  0  0
   58.2170   31.8740   44.7260 C   0  0  0  0  0  0  0  0  0  0  0  0
   58.3110   30.5410   44.3290 C   0  0  0  0  0  0  0  0  0  0  0  0
   58.7330   29.5860   45.2700 C   0  0  0  0  0  0  0  0  0  0  0  0
   58.8500   28.2380   44.9180 C   0  0  0  0  0  0  0  0  0  0  0  0
   59.2610   27.3050   45.8680 C   0  0  0  0  0  0  0  0  0  0  0  0
   59.5400   27.7190   47.1760 C   0  0  0  0  0  0  0  0  0  0  0  0
   60.0170   26.7220   48.1910 C   0  0  0  0  0  0  0  0  0  0  0  0
   59.4380   29.0400   47.5090 N   0  0  0  0  0  0  0  0  0  0  0  0
   59.0420   29.9810   46.6010 C   0  0  0  0  0  0  0  0  0  0  0  0
   58.9310   31.3400   46.9700 C   0  0  0  0  0  0  0  0  0  0  0  0
   59.1710   31.7150   48.2510 F   0  0  0  0  0  0  0  0  0  0  0  0
   58.5330   32.2730   45.9980 C   0  0  0  0  0  0  0  0  0  0  0  0
   60.7150   34.1250   48.8900 C   0  0  0  0  0  0  0  0  0  0  0  0
   62.0330   33.7670   49.1880 C   0  0  0  0  0  0  0  0  0  0  0  0
   64.4847   33.0573   49.5684 H   0  0  0  0  0  0  0  0  0  0  0  0
   64.5928   32.1062   48.0483 H   0  0  0  0  0  0  0  0  0  0  0  0
   65.0195   33.8511   48.0483 H   0  0  0  0  0  0  0  0  0  0  0  0
   63.1975   33.2700   46.0104 H   0  0  0  0  0  0  0  0  0  0  0  0
   60.8469   33.8962   45.4792 H   0  0  0  0  0  0  0  0  0  0  0  0
   58.2266   34.3756   48.1253 H   0  0  0  0  0  0  0  0  0  0  0  0
   58.8022   35.5781   46.9102 H   0  0  0  0  0  0  0  0  0  0  0  0
   56.8998   34.7032   44.9998 H   0  0  0  0  0  0  0  0  0  0  0  0
   58.5732   34.9852   44.4838 H   0  0  0  0  0  0  0  0  0  0  0  0
   56.7284   32.8884   43.5677 H   0  0  0  0  0  0  0  0  0  0  0  0
   58.3606   33.1569   42.9862 H   0  0  0  0  0  0  0  0  0  0  0  0
   58.0601   30.2427   43.3004 H   0  0  0  0  0  0  0  0  0  0  0  0
   58.6179   27.9144   43.8926 H   0  0  0  0  0  0  0  0  0  0  0  0
   59.3660   26.2457   45.5908 H   0  0  0  0  0  0  0  0  0  0  0  0
   59.8308   27.1112   49.2029 H   0  0  0  0  0  0  0  0  0  0  0  0
   59.4747   25.7744   48.0571 H   0  0  0  0  0  0  0  0  0  0  0  0
   61.0951   26.5496   48.0571 H   0  0  0  0  0  0  0  0  0  0  0  0
   59.6750   29.3300   48.4850 H   0  0  0  0  0  0  0  0  0  0  0  0
   60.0161   34.3650   49.7048 H   0  0  0  0  0  0  0  0  0  0  0  0
   62.3704   33.7430   50.2347 H   0  0  0  0  0  0  0  0  0  0  0  0
  1  2  1  0
  2  3  2  0
  3  4  1  0
  4  5  2  0
  5  6  1  0
  6  7  1  0
  7  8  1  0
  8  9  1  0
  9 10  1  0
 10 11  2  0
 11 12  1  0
 12 13  2  0
 13 14  1  0
 14 15  2  0
 15 16  1  0
 15 17  1  0
 17 18  2  0
 18 19  1  0
 19 20  1  0
 19 21  2  0
  5 22  1  0
 22 23  2  0
 23  2  1  0
 21  7  1  0
 21 10  1  0
 18 12  1  0
  1 24  1  0
  1 25  1  0
  1 26  1  0
  3 27  1  0
  4 28  1  0
  6 29  1  0
  6 30  1  0
  8 31  1  0
  8 32  1  0
  9 33  1  0
  9 34  1  0
 11 35  1  0
 13 36  1  0
 14 37  1  0
 16 38  1  0
 16 39  1  0
 16 40  1  0
 17 41  1  0
 22 42  1  0
 23 43  1  0
M  CHG  1  17   1
M  END
>  <UniqueID>  (2) 
2

>  <SMILES>  (2) 
Cc1ccc(CN2CCc3cc4ccc(C)[nH+]c4c(F)c32)cc1

>  <Energy>  (2) 
62.31950481689763

>  <Genealogy>  (2) 
Cc1ccc(CN2CCc3cc4ccc(C)[nH+]c4c(F)c32)cc1 (protonated)
Cc1ccc(CN2CCc3cc4ccc(C)[nH+]c4c(F)c32)cc1 (3D coordinates assigned)
Cc1ccc(CN2CCc3cc4ccc(C)[nH+]c4c(F)c32)cc1 (nonaromatic ring conformer: 62.31950481689763 kcal/mol)

>  <smiles>  (2) 
Cc1ccc(CN2CCc3cc4ccc(C)nc4c(F)c32)cc1

>  <score_type>  (2) 
oracle

>  <origin>  (2) 
adg

>  <m_score__min__energy>  (2) 
-6.25

>  <m_primary>  (2) 
energy

$$$$
2:0
     RDKit          3D

 49 52  0  0  0  0  0  0  0  0999 V2000
   65.3460   32.6990   49.7640 C   0  0  0  0  0  0  0  0  0  0  0  0
   64.0620   32.0320   49.2830 C   0  0  0  0  0  0  0  0  0  0  0  0
   63.1670   33.0480   48.6820 N   0  0  0  0  0  0  0  0  0  0  0  0
   63.6610   33.5280   47.3660 C   0  0  0  0  0  0  0  0  0  0  0  0
   62.5540   33.8340   46.3450 C   0  0  0  0  0  0  0  0  0  0  0  0
   62.8090   34.1180   49.6410 C   0  0  0  0  0  0  0  0  0  0  0  0
   61.4370   33.8740   50.2820 C   0  0  0  0  0  0  0  0  0  0  0  0
   60.6430   32.9810   49.4400 N   0  0  0  0  0  0  0  0  0  0  0  0
   60.7040   31.6460   49.4910 N   0  0  0  0  0  0  0  0  0  0  0  0
   59.9110   31.1560   48.5110 C   0  0  0  0  0  0  0  0  0  0  0  0
   59.3670   32.1970   47.8420 C   0  0  0  0  0  0  0  0  0  0  0  0
   58.5580   32.1380   46.7300 C   0  0  0  0  0  0  0  0  0  0  0  0
   58.1640   33.3750   46.1630 C   0  0  0  0  0  0  0  0  0  0  0  0
   57.3320   33.3720   45.0320 O   0  0  0  0  0  0  0  0  0  0  0  0
   57.7780   33.0920   43.7090 C   0  0  0  0  0  0  0  0  0  0  0  0
   58.6310   34.5930   46.7600 C   0  0  0  0  0  0  0  0  0  0  0  0
   59.4810   34.5750   47.8950 C   0  0  0  0  0  0  0  0  0  0  0  0
   59.8260   33.3290   48.4160 C   0  0  0  0  0  0  0  0  0  0  0  0
   58.2260   30.7710   46.2360 C   0  0  0  0  0  0  0  0  0  0  0  0
   57.4760   30.6150   45.2360 O   0  0  0  0  0  0  0  0  0  0  0  0
   58.8090   29.5810   46.9550 C   0  0  0  0  0  0  0  0  0  0  0  0
   58.5530   28.2690   46.5390 C   0  0  0  0  0  0  0  0  0  0  0  0
   59.1220   27.1950   47.2300 C   0  0  0  0  0  0  0  0  0  0  0  0
   59.9470   27.4400   48.3330 C   0  0  0  0  0  0  0  0  0  0  0  0
   60.1940   28.7140   48.7350 N   0  0  0  0  0  0  0  0  0  0  0  0
   59.6530   29.7760   48.0830 C   0  0  0  0  0  0  0  0  0  0  0  0
   65.3644   32.7086   50.8638 H   0  0  0  0  0  0  0  0  0  0  0  0
   66.2140   32.1378   49.3876 H   0  0  0  0  0  0  0  0  0  0  0  0
   65.3859   33.7318   49.3876 H   0  0  0  0  0  0  0  0  0  0  0  0
   64.3065   31.2685   48.5298 H   0  0  0  0  0  0  0  0  0  0  0  0
   63.5550   31.5591   50.1369 H   0  0  0  0  0  0  0  0  0  0  0  0
   64.2406   34.4482   47.5310 H   0  0  0  0  0  0  0  0  0  0  0  0
   64.2634   32.7119   46.9404 H   0  0  0  0  0  0  0  0  0  0  0  0
   61.6257   34.0906   46.8765 H   0  0  0  0  0  0  0  0  0  0  0  0
   62.8612   34.6809   45.7138 H   0  0  0  0  0  0  0  0  0  0  0  0
   62.3826   32.9495   45.7138 H   0  0  0  0  0  0  0  0  0  0  0  0
   63.5707   34.1549   50.4337 H   0  0  0  0  0  0  0  0  0  0  0  0
   62.7644   35.0692   49.0904 H   0  0  0  0  0  0  0  0  0  0  0  0
   61.5741   33.4147   51.2721 H   0  0  0  0  0  0  0  0  0  0  0  0
   60.9111   34.8346   50.3857 H   0  0  0  0  0  0  0  0  0  0  0  0
   61.2910   31.0940   50.1560 H   0  0  0  0  0  0  0  0  0  0  0  0
   58.7089   32.5076   43.7519 H   0  0  0  0  0  0  0  0  0  0  0  0
   57.0073   32.5154   43.1766 H   0  0  0  0  0  0  0  0  0  0  0  0
   57.9624   34.0367   43.1766 H   0  0  0  0  0  0  0  0  0  0  0  0
   58.3244   35.5578   46.3298 H   0  0  0  0  0  0  0  0  0  0  0  0
   59.8531   35.5067   48.3461 H   0  0  0  0  0  0  0  0  0  0  0  0
   57.9051   28.0834   45.6697 H   0  0  0  0  0  0  0  0  0  0  0  0
   58.9220   26.1624   46.9080 H   0  0  0  0  0  0  0  0  0  0  0  0
   60.3978   26.5971   48.8773 H   0  0  0  0  0  0  0  0  0  0  0  0
  1  2  1  0
  2  3  1  0
  3  4  1  0
  4  5  1  0
  3  6  1  0
  6  7  1  0
  7  8  1  0
  8  9  1  0
  9 10  2  0
 10 11  1  0
 11 12  2  0
 12 13  1  0
 13 14  1  0
 14 15  1  0
 13 16  2  0
 16 17  1  0
 17 18  2  0
 12 19  1  0
 19 20  2  0
 19 21  1  0
 21 22  2  0
 22 23  1  0
 23 24  2  0
 24 25  1  0
 25 26  2  0
 18  8  1  0
 26 21  1  0
 26 10  1  0
 18 11  1  0
  1 27  1  0
  1 28  1  0
  1 29  1  0
  2 30  1  0
  2 31  1  0
  4 32  1  0
  4 33  1  0
  5 34  1  0
  5 35  1  0
  5 36  1  0
  6 37  1  0
  6 38  1  0
  7 39  1  0
  7 40  1  0
  9 41  1  0
 15 42  1  0
 15 43  1  0
 15 44  1  0
 16 45  1  0
 17 46  1  0
 22 47  1  0
 23 48  1  0
 24 49  1  0
M  CHG  1   9   1
M  END
>  <UniqueID>  (3) 
3

>  <SMILES>  (3) 
CCN(CC)CCn1[nH+]c2c3c(c(OC)ccc31)C(=O)c1cccnc1-2

>  <Energy>  (3) 
105.78513732444304

>  <Genealogy>  (3) 
CCN(CC)CCn1[nH+]c2c3c(c(OC)ccc31)C(=O)c1cccnc1-2 (protonated)
CCN(CC)CCn1[nH+]c2c3c(c(OC)ccc31)C(=O)c1cccnc1-2 (3D coordinates assigned)
CCN(CC)CCn1[nH+]c2c3c(c(OC)ccc31)C(=O)c1cccnc1-2 (nonaromatic ring conformer: 105.78513732444304 kcal/mol)

>  <smiles>  (3) 
CCN(CC)CCn1nc2c3c(c(OC)ccc31)C(=O)c1cccnc1-2

>  <score_type>  (3) 
oracle

>  <origin>  (3) 
adg

>  <m_score__min__energy>  (3) 
-5.8300000000000001

>  <m_primary>  (3) 
energy

$$$$
3:0
     RDKit          3D

 41 43  0  0  0  0  0  0  0  0999 V2000
   63.0050   33.9970   50.1400 C   0  0  0  0  0  0  0  0  0  0  0  0
   61.7890   34.5960   49.7060 O   0  0  0  0  0  0  0  0  0  0  0  0
   60.9880   34.0990   48.6680 C   0  0  0  0  0  0  0  0  0  0  0  0
   61.5220   33.1180   47.8270 C   0  0  0  0  0  0  0  0  0  0  0  0
   60.7650   32.5900   46.7780 C   0  0  0  0  0  0  0  0  0  0  0  0
   59.4510   33.0360   46.5520 C   0  0  0  0  0  0  0  0  0  0  0  0
   58.6440   32.4750   45.4380 C   0  0  0  0  0  0  0  0  0  0  0  0
   58.4900   33.1810   44.2350 C   0  0  0  0  0  0  0  0  0  0  0  0
   57.7440   32.6620   43.2250 N   0  0  0  0  0  0  0  0  0  0  0  0
   57.1330   31.4540   43.3290 C   0  0  0  0  0  0  0  0  0  0  0  0
   57.2580   30.6940   44.5040 C   0  0  0  0  0  0  0  0  0  0  0  0
   56.5990   29.3710   44.6540 C   0  0  0  0  0  0  0  0  0  0  0  0
   55.3560   29.3290   44.8800 O   0  0  0  0  0  0  0  0  0  0  0  0
   57.3600   28.0720   44.5050 C   0  0  1  0  0  0  0  0  0  0  0  0
   58.8660   28.2920   44.2260 C   0  0  0  0  0  0  0  0  0  0  0  0
   59.6220   27.9400   45.5220 C   0  0  0  0  0  0  0  0  0  0  0  0
   58.6590   27.2600   46.3670 N   0  0  0  0  0  0  0  0  0  0  0  0
   58.9530   26.6950   47.6780 C   0  0  0  0  0  0  0  0  0  0  0  0
   57.3710   27.3370   45.7910 C   0  0  0  0  0  0  0  0  0  0  0  0
   56.3460   26.8360   46.3270 O   0  0  0  0  0  0  0  0  0  0  0  0
   58.0140   31.2250   45.5620 C   0  0  0  0  0  0  0  0  0  0  0  0
   58.9140   34.0230   47.3980 C   0  0  0  0  0  0  0  0  0  0  0  0
   59.6740   34.5500   48.4460 C   0  0  0  0  0  0  0  0  0  0  0  0
   63.0346   33.9824   51.2395 H   0  0  0  0  0  0  0  0  0  0  0  0
   63.0632   32.9671   49.7580 H   0  0  0  0  0  0  0  0  0  0  0  0
   63.8570   34.5785   49.7580 H   0  0  0  0  0  0  0  0  0  0  0  0
   62.5482   32.7583   47.9928 H   0  0  0  0  0  0  0  0  0  0  0  0
   61.2003   31.8198   46.1243 H   0  0  0  0  0  0  0  0  0  0  0  0
   58.9759   34.1598   44.1091 H   0  0  0  0  0  0  0  0  0  0  0  0
   56.5369   31.0683   42.4888 H   0  0  0  0  0  0  0  0  0  0  0  0
   56.8593   27.5430   43.6807 H   0  0  0  0  0  0  0  0  0  0  0  0
   59.1975   27.6379   43.4061 H   0  0  0  0  0  0  0  0  0  0  0  0
   59.0616   29.3328   43.9285 H   0  0  0  0  0  0  0  0  0  0  0  0
   60.4731   27.2788   45.3018 H   0  0  0  0  0  0  0  0  0  0  0  0
   60.0282   28.8376   46.0111 H   0  0  0  0  0  0  0  0  0  0  0  0
   58.5964   27.3804   48.4610 H   0  0  0  0  0  0  0  0  0  0  0  0
   58.4455   25.7245   47.7812 H   0  0  0  0  0  0  0  0  0  0  0  0
   60.0390   26.5537   47.7812 H   0  0  0  0  0  0  0  0  0  0  0  0
   58.1140   30.6560   46.4981 H   0  0  0  0  0  0  0  0  0  0  0  0
   57.8877   34.3831   47.2336 H   0  0  0  0  0  0  0  0  0  0  0  0
   59.2424   35.3215   49.1007 H   0  0  0  0  0  0  0  0  0  0  0  0
  1  2  1  0
  2  3  1  0
  3  4  2  0
  4  5  1  0
  5  6  2  0
  6  7  1  0
  7  8  2  0
  8  9  1  0
  9 10  2  0
 10 11  1  0
 11 12  1  0
 12 13  2  0
 12 14  1  0
 14 15  1  0
 15 16  1  0
 16 17  1  0
 17 18  1  0
 17 19  1  0
 19 20  2  0
 11 21  2  0
  6 22  1  0
 22 23  2  0
 23  3  1  0
 21  7  1  0
 19 14  1  0
  1 24  1  0
  1 25  1  0
  1 26  1  0
  4 27  1  0
  5 28  1  0
  8 29  1  0
 10 30  1  0
 14 31  1  6
 15 32  1  0
 15 33  1  0
 16 34  1  0
 16 35  1  0
 18 36  1  0
 18 37  1  0
 18 38  1  0
 21 39  1  0
 22 40  1  0
 23 41  1  0
M  END
>  <UniqueID>  (4) 
4

>  <SMILES>  (4) 
COc1ccc(-c2cncc(C(=O)[C@H]3CCN(C)C3=O)c2)cc1

>  <Energy>  (4) 
55.60378534779555

>  <Genealogy>  (4) 
COc1ccc(-c2cncc(C(=O)[C@H]3CCN(C)C3=O)c2)cc1 (chirality)
COc1ccc(-c2cncc(C(=O)[C@H]3CCN(C)C3=O)c2)cc1 (3D coordinates assigned)
COc1ccc(-c2cncc(C(=O)[C@H]3CCN(C)C3=O)c2)cc1 (nonaromatic ring conformer: 55.60378534779555 kcal/mol)

>  <smiles>  (4) 
COc1ccc(-c2cncc(C(=O)C3CCN(C)C3=O)c2)cc1

>  <score_type>  (4) 
oracle

>  <origin>  (4) 
adg

>  <m_score__min__energy>  (4) 
-7.96

>  <m_primary>  (4) 
energy

$$$$
4:0
     RDKit          3D

 37 38  0  0  0  0  0  0  0  0999 V2000
   58.9010   29.8690   48.6760 C   0  0  0  0  0  0  0  0  0  0  0  0
   59.9050   28.8290   48.4080 N   0  0  0  0  0  0  0  0  0  0  0  0
   60.7290   28.5370   49.5900 C   0  0  0  0  0  0  0  0  0  0  0  0
   59.3850   27.6240   47.7140 C   0  0  0  0  0  0  0  0  0  0  0  0
   60.1800   27.1410   46.4770 C   0  0  0  0  0  0  0  0  0  0  0  0
   59.9760   28.0070   45.2230 C   0  0  0  0  0  0  0  0  0  0  0  0
   60.0800   29.4480   45.5140 N   0  0  0  0  0  0  0  0  0  0  0  0
   58.8310   30.1390   45.2530 C   0  0  0  0  0  0  0  0  0  0  0  0
   57.7460   29.3970   44.7580 C   0  0  0  0  0  0  0  0  0  0  0  0
   56.5230   30.0240   44.5240 C   0  0  0  0  0  0  0  0  0  0  0  0
   55.5510   29.3580   44.0790 O   0  0  0  0  0  0  0  0  0  0  0  0
   56.3750   31.3180   44.7660 O   0  0  0  0  0  0  0  0  0  0  0  0
   57.3570   32.0790   45.2350 C   0  0  0  0  0  0  0  0  0  0  0  0
   57.1110   33.4360   45.4650 C   0  0  0  0  0  0  0  0  0  0  0  0
   58.1200   34.2620   45.9590 C   0  0  0  0  0  0  0  0  0  0  0  0
   59.3830   33.7350   46.2260 C   0  0  0  0  0  0  0  0  0  0  0  0
   59.6470   32.3810   46.0000 C   0  0  0  0  0  0  0  0  0  0  0  0
   58.6390   31.5260   45.5020 C   0  0  0  0  0  0  0  0  0  0  0  0
   58.7819   29.9924   49.7626 H   0  0  0  0  0  0  0  0  0  0  0  0
   59.2311   30.8202   48.2330 H   0  0  0  0  0  0  0  0  0  0  0  0
   57.9388   29.5726   48.2330 H   0  0  0  0  0  0  0  0  0  0  0  0
   60.1486   28.7427   50.5015 H   0  0  0  0  0  0  0  0  0  0  0  0
   61.0275   27.4784   49.5765 H   0  0  0  0  0  0  0  0  0  0  0  0
   61.6275   29.1715   49.5765 H   0  0  0  0  0  0  0  0  0  0  0  0
   59.3681   26.8002   48.4427 H   0  0  0  0  0  0  0  0  0  0  0  0
   58.3964   27.9145   47.3288 H   0  0  0  0  0  0  0  0  0  0  0  0
   61.2504   27.1466   46.7304 H   0  0  0  0  0  0  0  0  0  0  0  0
   59.8068   26.1355   46.2326 H   0  0  0  0  0  0  0  0  0  0  0  0
   60.7425   27.7401   44.4805 H   0  0  0  0  0  0  0  0  0  0  0  0
   58.9623   27.8134   44.8423 H   0  0  0  0  0  0  0  0  0  0  0  0
   60.8120   29.8480   44.8810 H   0  0  0  0  0  0  0  0  0  0  0  0
   60.4420   29.6090   46.4780 H   0  0  0  0  0  0  0  0  0  0  0  0
   57.8612   28.3220   44.5551 H   0  0  0  0  0  0  0  0  0  0  0  0
   56.1156   33.8545   45.2550 H   0  0  0  0  0  0  0  0  0  0  0  0
   57.9197   35.3287   46.1379 H   0  0  0  0  0  0  0  0  0  0  0  0
   60.1766   34.3888   46.6169 H   0  0  0  0  0  0  0  0  0  0  0  0
   60.6483   31.9779   46.2118 H   0  0  0  0  0  0  0  0  0  0  0  0
  1  2  1  0
  2  3  1  0
  2  4  1  0
  4  5  1  0
  5  6  1  0
  6  7  1  0
  7  8  1  0
  8  9  2  0
  9 10  1  0
 10 11  2  0
 10 12  1  0
 12 13  1  0
 13 14  2  0
 14 15  1  0
 15 16  2  0
 16 17  1  0
 17 18  2  0
 18  8  1  0
 18 13  1  0
  1 19  1  0
  1 20  1  0
  1 21  1  0
  3 22  1  0
  3 23  1  0
  3 24  1  0
  4 25  1  0
  4 26  1  0
  5 27  1  0
  5 28  1  0
  6 29  1  0
  6 30  1  0
  7 31  1  0
  7 32  1  0
  9 33  1  0
 14 34  1  0
 15 35  1  0
 16 36  1  0
 17 37  1  0
M  CHG  1   7   1
M  END
>  <UniqueID>  (5) 
5

>  <SMILES>  (5) 
CN(C)CCC[NH2+]c1cc(=O)oc2ccccc12

>  <Energy>  (5) 
49.60302453629192

>  <Genealogy>  (5) 
CN(C)CCC[NH2+]c1cc(=O)oc2ccccc12 (protonated)
CN(C)CCC[NH2+]c1cc(=O)oc2ccccc12 (3D coordinates assigned)
CN(C)CCC[NH2+]c1cc(=O)oc2ccccc12 (optimized conformer: 49.60302453629192 kcal/mol)

>  <smiles>  (5) 
CN(C)CCCNc1cc(=O)oc2ccccc12

>  <score_type>  (5) 
oracle

>  <origin>  (5) 
adg

>  <m_score__min__energy>  (5) 
-4.1100000000000003

>  <m_primary>  (5) 
energy

$$$$
5:0
     RDKit          3D

 40 40  0  0  0  0  0  0  0  0999 V2000
   58.3526   31.4219   42.6871 H   0  0  0  0  0  0  0  0  0  0  0  0
   57.8190   31.4840   43.6470 C   0  0  0  0  0  0  0  0  0  0  0  0
   57.4780   30.2110   44.3130 C   0  0  0  0  0  0  0  0  0  0  0  0
   56.4270   30.0940   44.9990 O   0  0  0  0  0  0  0  0  0  0  0  0
   58.3220   29.1130   44.1260 O   0  0  0  0  0  0  0  0  0  0  0  0
   59.6940   29.1250   44.5070 C   0  0  0  0  0  0  0  0  0  0  0  0
   60.0472   30.1643   44.5781 H   0  0  0  0  0  0  0  0  0  0  0  0
   60.2917   28.5894   43.7547 H   0  0  0  0  0  0  0  0  0  0  0  0
   59.8440   28.4360   45.8730 C   0  0  0  0  0  0  0  0  0  0  0  0
   60.6787   28.9123   46.4082 H   0  0  0  0  0  0  0  0  0  0  0  0
   60.0172   27.3693   45.6680 H   0  0  0  0  0  0  0  0  0  0  0  0
   58.6330   28.5100   46.7390 N   0  0  0  0  0  0  0  0  0  0  0  0
   57.9280   29.0650   46.1960 H   0  0  0  0  0  0  0  0  0  0  0  0
   58.9230   29.2510   47.9970 C   0  0  0  0  0  0  0  0  0  0  0  0
   59.0483   28.5244   48.8133 H   0  0  0  0  0  0  0  0  0  0  0  0
   58.0792   29.9309   48.1861 H   0  0  0  0  0  0  0  0  0  0  0  0
   60.1940   30.1030   47.8980 C   0  0  0  0  0  0  0  0  0  0  0  0
   60.5536   30.3440   48.9093 H   0  0  0  0  0  0  0  0  0  0  0  0
   60.9702   29.5421   47.3569 H   0  0  0  0  0  0  0  0  0  0  0  0
   59.9700   31.0341   47.3569 H   0  0  0  0  0  0  0  0  0  0  0  0
   58.0300   27.1830   47.0300 C   0  0  0  0  0  0  0  0  0  0  0  0
   58.8343   26.4336   47.0673 H   0  0  0  0  0  0  0  0  0  0  0  0
   57.5004   27.2669   47.9904 H   0  0  0  0  0  0  0  0  0  0  0  0
   57.0030   26.7450   45.9780 C   0  0  0  0  0  0  0  0  0  0  0  0
   56.1033   26.3613   46.4814 H   0  0  0  0  0  0  0  0  0  0  0  0
   56.7323   27.6060   45.3491 H   0  0  0  0  0  0  0  0  0  0  0  0
   57.4370   25.9537   45.3491 H   0  0  0  0  0  0  0  0  0  0  0  0
   57.5340   32.7100   44.1120 C   0  0  0  0  0  0  0  0  0  0  0  0
   56.6948   33.2464   43.6451 H   0  0  0  0  0  0  0  0  0  0  0  0
   58.2580   33.3960   45.2010 C   0  0  0  0  0  0  0  0  0  0  0  0
   58.9330   34.5950   44.9250 C   0  0  0  0  0  0  0  0  0  0  0  0
   58.8931   35.0254   43.9135 H   0  0  0  0  0  0  0  0  0  0  0  0
   59.6560   35.2450   45.9300 C   0  0  0  0  0  0  0  0  0  0  0  0
   60.1710   36.1921   45.7114 H   0  0  0  0  0  0  0  0  0  0  0  0
   59.7250   34.6930   47.2110 C   0  0  0  0  0  0  0  0  0  0  0  0
   60.2868   35.2103   48.0027 H   0  0  0  0  0  0  0  0  0  0  0  0
   59.0810   33.4840   47.4880 C   0  0  0  0  0  0  0  0  0  0  0  0
   59.1438   33.0468   48.4954 H   0  0  0  0  0  0  0  0  0  0  0  0
   58.3570   32.8290   46.4870 C   0  0  0  0  0  0  0  0  0  0  0  0
   57.7740   31.6350   46.7640 F   0  0  0  0  0  0  0  0  0  0  0  0
  1  2  1  0
  2  3  1  0
  3  4  2  0
  3  5  1  0
  5  6  1  0
  6  7  1  0
  6  8  1  0
  6  9  1  0
  9 10  1  0
  9 11  1  0
  9 12  1  0
 12 13  1  0
 12 14  1  0
 14 15  1  0
 14 16  1  0
 14 17  1  0
 17 18  1  0
 17 19  1  0
 17 20  1  0
 12 21  1  0
 21 22  1  0
 21 23  1  0
 21 24  1  0
 24 25  1  0
 24 26  1  0
 24 27  1  0
  2 28  2  0
 28 29  1  0
 28 30  1  0
 30 31  2  0
 31 32  1  0
 31 33  1  0
 33 34  1  0
 33 35  2  0
 35 36  1  0
 35 37  1  0
 37 38  1  0
 37 39  2  0
 39 40  1  0
 39 30  1  0
M  CHG  1  12   1
M  END
>  <UniqueID>  (6) 
6

>  <SMILES>  (6) 
CC[NH+](CC)CCOC(=O)/C=C\c1ccccc1F

>  <Energy>  (6) 
45.357011472557524

>  <Genealogy>  (6) 
CC[NH+](CC)CCOC(=O)C=Cc1ccccc1F (protonated)
CC[NH+](CC)CCOC(=O)/C=C\c1ccccc1F (cis-trans isomerization)
CC[NH+](CC)CCOC(=O)/C=C\c1ccccc1F (3D coordinates assigned)
CC[NH+](CC)CCOC(=O)/C=C\c1ccccc1F (optimized conformer: 45.357011472557524 kcal/mol)

>  <smiles>  (6) 
CCN(CC)CCOC(=O)C=Cc1ccccc1F

>  <score_type>  (6) 
oracle

>  <origin>  (6) 
adg

>  <m_score__min__energy>  (6) 
-4.5199999999999996

>  <m_primary>  (6) 
energy

$$$$
6:0
     RDKit          3D

 45 47  0  0  0  0  0  0  0  0999 V2000
   63.4010   32.4180   47.5060 C   0  0  0  0  0  0  0  0  0  0  0  0
   63.6510   33.8160   48.0740 C   0  0  0  0  0  0  0  0  0  0  0  0
   62.6580   34.1590   49.1480 C   0  0  0  0  0  0  0  0  0  0  0  0
   63.0140   34.9340   50.0770 O   0  0  0  0  0  0  0  0  0  0  0  0
   61.2860   33.7320   49.0770 N   0  0  0  0  0  0  0  0  0  0  0  0
   60.6190   33.0040   50.1610 C   0  0  0  0  0  0  0  0  0  0  0  0
   59.1770   32.7390   49.6750 C   0  0  0  0  0  0  0  0  0  0  0  0
   59.1790   33.2660   48.2810 C   0  0  0  0  0  0  0  0  0  0  0  0
   58.1400   33.2240   47.3520 C   0  0  0  0  0  0  0  0  0  0  0  0
   58.3540   33.7680   46.0770 C   0  0  0  0  0  0  0  0  0  0  0  0
   57.0310   33.7670   44.8680 S   0  0  0  0  0  0  0  0  0  0  0  0
   57.6730   32.3550   43.9020 C   0  0  0  0  0  0  0  0  0  0  0  0
   57.1820   31.0830   44.5240 C   0  0  0  0  0  0  0  0  0  0  0  0
   55.9460   30.8380   44.4960 O   0  0  0  0  0  0  0  0  0  0  0  0
   58.0960   30.1010   45.0510 N   0  0  0  0  0  0  0  0  0  0  0  0
   57.8780   28.6830   44.7100 C   0  0  0  0  0  0  0  0  0  0  0  0
   58.5010   27.7190   45.7470 C   0  0  0  0  0  0  0  0  0  0  0  0
   59.0590   28.3860   46.8620 O   0  0  0  0  0  0  0  0  0  0  0  0
   60.0040   29.3290   46.4150 C   0  0  0  0  0  0  0  0  0  0  0  0
   59.2760   30.5290   45.8120 C   0  0  0  0  0  0  0  0  0  0  0  0
   59.6060   34.3270   45.7520 C   0  0  0  0  0  0  0  0  0  0  0  0
   60.6410   34.3500   46.6980 C   0  0  0  0  0  0  0  0  0  0  0  0
   60.3910   33.8270   47.9750 C   0  0  0  0  0  0  0  0  0  0  0  0
   63.2733   31.7038   48.3328 H   0  0  0  0  0  0  0  0  0  0  0  0
   62.4908   32.4305   46.8884 H   0  0  0  0  0  0  0  0  0  0  0  0
   64.2591   32.1143   46.8884 H   0  0  0  0  0  0  0  0  0  0  0  0
   64.6648   33.8531   48.4993 H   0  0  0  0  0  0  0  0  0  0  0  0
   63.5423   34.5451   47.2575 H   0  0  0  0  0  0  0  0  0  0  0  0
   61.1365   32.0534   50.3574 H   0  0  0  0  0  0  0  0  0  0  0  0
   60.6278   33.5809   51.0975 H   0  0  0  0  0  0  0  0  0  0  0  0
   58.9487   31.6630   49.6885 H   0  0  0  0  0  0  0  0  0  0  0  0
   58.4156   33.2131   50.3118 H   0  0  0  0  0  0  0  0  0  0  0  0
   57.1715   32.7731   47.6139 H   0  0  0  0  0  0  0  0  0  0  0  0
   57.3134   32.4224   42.8646 H   0  0  0  0  0  0  0  0  0  0  0  0
   58.7729   32.3711   43.9013 H   0  0  0  0  0  0  0  0  0  0  0  0
   56.7953   28.4951   44.6603 H   0  0  0  0  0  0  0  0  0  0  0  0
   58.3675   28.4939   43.7433 H   0  0  0  0  0  0  0  0  0  0  0  0
   57.7166   27.0358   46.1048 H   0  0  0  0  0  0  0  0  0  0  0  0
   59.3187   27.1818   45.2443 H   0  0  0  0  0  0  0  0  0  0  0  0
   60.6202   29.6617   47.2633 H   0  0  0  0  0  0  0  0  0  0  0  0
   60.6498   28.8694   45.6523 H   0  0  0  0  0  0  0  0  0  0  0  0
   58.9570   31.2006   46.6227 H   0  0  0  0  0  0  0  0  0  0  0  0
   59.9638   31.0488   45.1288 H   0  0  0  0  0  0  0  0  0  0  0  0
   59.7726   34.7481   44.7496 H   0  0  0  0  0  0  0  0  0  0  0  0
   61.6261   34.7686   46.4443 H   0  0  0  0  0  0  0  0  0  0  0  0
  1  2  1  0
  2  3  1  0
  3  4  2  0
  3  5  1  0
  5  6  1  0
  6  7  1  0
  7  8  1  0
  8  9  2  0
  9 10  1  0
 10 11  1  0
 11 12  1  0
 12 13  1  0
 13 14  2  0
 13 15  1  0
 15 16  1  0
 16 17  1  0
 17 18  1  0
 18 19  1  0
 19 20  1  0
 10 21  2  0
 21 22  1  0
 22 23  2  0
 23  5  1  0
 23  8  1  0
 20 15  1  0
  1 24  1  0
  1 25  1  0
  1 26  1  0
  2 27  1  0
  2 28  1  0
  6 29  1  0
  6 30  1  0
  7 31  1  0
  7 32  1  0
  9 33  1  0
 12 34  1  0
 12 35  1  0
 16 36  1  0
 16 37  1  0
 17 38  1  0
 17 39  1  0
 19 40  1  0
 19 41  1  0
 20 42  1  0
 20 43  1  0
 21 44  1  0
 22 45  1  0
M  END
>  <UniqueID>  (7) 
7

>  <SMILES>  (7) 
CCC(=O)N1CCc2cc(SCC(=O)N3CCOCC3)ccc21

>  <Energy>  (7) 
64.71676740571381

>  <Genealogy>  (7) 
CCC(=O)N1CCc2cc(SCC(=O)N3CCOCC3)ccc21 (3D coordinates assigned)
CCC(=O)N1CCc2cc(SCC(=O)N3CCOCC3)ccc21 (nonaromatic ring conformer: 64.71676740571381 kcal/mol)

>  <smiles>  (7) 
CCC(=O)N1CCc2cc(SCC(=O)N3CCOCC3)ccc21

>  <score_type>  (7) 
oracle

>  <origin>  (7) 
adg

>  <m_score__min__energy>  (7) 
-8.25

>  <m_primary>  (7) 
energy

$$$$
7:0
     RDKit          3D

 59 61  0  0  0  0  0  0  0  0999 V2000
   57.7870   25.8800   47.0730 C   0  0  0  0  0  0  0  0  0  0  0  0
   56.8030   26.4920   46.0820 C   0  0  0  0  0  0  0  0  0  0  0  0
   57.2890   27.8660   45.5950 C   0  0  0  0  0  0  0  0  0  0  0  0
   58.7970   28.0930   45.8720 C   0  0  1  0  0  0  0  0  0  0  0  0
   59.6910   28.2390   44.6120 C   0  0  0  0  0  0  0  0  0  0  0  0
   61.1540   28.6230   44.8580 C   0  0  0  0  0  0  0  0  0  0  0  0
   59.0180   29.2010   46.8300 N   0  0  0  0  0  0  0  0  0  0  0  0
   59.3920   28.9480   48.2340 C   0  0  0  0  0  0  0  0  0  0  0  0
   59.6710   30.2670   48.9740 C   0  0  0  0  0  0  0  0  0  0  0  0
   61.1690   30.5600   49.1230 C   0  0  0  0  0  0  0  0  0  0  0  0
   61.5670   31.6830   48.2420 N   0  0  0  0  0  0  0  0  0  0  0  0
   61.2130   33.0220   48.7900 C   0  0  0  0  0  0  0  0  0  0  0  0
   62.4380   33.8410   49.2250 C   0  0  0  0  0  0  0  0  0  0  0  0
   63.4240   34.0320   48.0600 C   0  0  0  0  0  0  0  0  0  0  0  0
   63.4510   32.8300   47.1000 C   0  0  0  0  0  0  0  0  0  0  0  0
   62.9730   31.5540   47.7950 C   0  0  0  0  0  0  0  0  0  0  0  0
   58.8530   30.5620   46.3750 C   0  0  0  0  0  0  0  0  0  0  0  0
   59.8600   31.4730   46.3070 N   0  0  0  0  0  0  0  0  0  0  0  0
   59.2470   32.5760   45.8550 C   0  0  0  0  0  0  0  0  0  0  0  0
   59.7920   33.8340   45.6110 C   0  0  0  0  0  0  0  0  0  0  0  0
   58.9210   34.8420   45.1520 C   0  0  0  0  0  0  0  0  0  0  0  0
   57.5480   34.5650   44.9490 C   0  0  0  0  0  0  0  0  0  0  0  0
   57.0340   33.2790   45.2070 C   0  0  0  0  0  0  0  0  0  0  0  0
   57.9250   32.3100   45.6620 C   0  0  0  0  0  0  0  0  0  0  0  0
   57.6900   31.0630   45.9830 O   0  0  0  0  0  0  0  0  0  0  0  0
   57.4512   26.0888   48.0995 H   0  0  0  0  0  0  0  0  0  0  0  0
   57.8355   24.7922   46.9172 H   0  0  0  0  0  0  0  0  0  0  0  0
   58.7842   26.3175   46.9172 H   0  0  0  0  0  0  0  0  0  0  0  0
   56.7000   25.8203   45.2170 H   0  0  0  0  0  0  0  0  0  0  0  0
   55.8350   26.6234   46.5876 H   0  0  0  0  0  0  0  0  0  0  0  0
   57.1143   27.9385   44.5114 H   0  0  0  0  0  0  0  0  0  0  0  0
   56.7278   28.6345   46.1467 H   0  0  0  0  0  0  0  0  0  0  0  0
   59.1314   27.1536   46.3365 H   0  0  0  0  0  0  0  0  0  0  0  0
   59.6821   27.2755   44.0814 H   0  0  0  0  0  0  0  0  0  0  0  0
   59.2602   29.0755   44.0422 H   0  0  0  0  0  0  0  0  0  0  0  0
   61.3430   28.6726   45.9405 H   0  0  0  0  0  0  0  0  0  0  0  0
   61.8126   27.8673   44.4050 H   0  0  0  0  0  0  0  0  0  0  0  0
   61.3566   29.6047   44.4050 H   0  0  0  0  0  0  0  0  0  0  0  0
   58.5680   28.4204   48.7367 H   0  0  0  0  0  0  0  0  0  0  0  0
   60.3061   28.3363   48.2494 H   0  0  0  0  0  0  0  0  0  0  0  0
   59.2061   31.0904   48.4119 H   0  0  0  0  0  0  0  0  0  0  0  0
   59.2496   30.1744   49.9859 H   0  0  0  0  0  0  0  0  0  0  0  0
   61.3838   30.8261   50.1685 H   0  0  0  0  0  0  0  0  0  0  0  0
   61.7377   29.6632   48.8361 H   0  0  0  0  0  0  0  0  0  0  0  0
   60.6731   33.5854   48.0148 H   0  0  0  0  0  0  0  0  0  0  0  0
   60.5959   32.8561   49.6854 H   0  0  0  0  0  0  0  0  0  0  0  0
   62.1029   34.8280   49.5765 H   0  0  0  0  0  0  0  0  0  0  0  0
   62.9526   33.2957   50.0299 H   0  0  0  0  0  0  0  0  0  0  0  0
   63.1298   34.9279   47.4936 H   0  0  0  0  0  0  0  0  0  0  0  0
   64.4308   34.1348   48.4911 H   0  0  0  0  0  0  0  0  0  0  0  0
   62.7929   33.0400   46.2440 H   0  0  0  0  0  0  0  0  0  0  0  0
   64.4873   32.6760   46.7649 H   0  0  0  0  0  0  0  0  0  0  0  0
   63.0502   30.7117   47.0917 H   0  0  0  0  0  0  0  0  0  0  0  0
   63.6051   31.3804   48.6783 H   0  0  0  0  0  0  0  0  0  0  0  0
   60.8700   31.3610   46.5470 H   0  0  0  0  0  0  0  0  0  0  0  0
   60.8620   34.0333   45.7705 H   0  0  0  0  0  0  0  0  0  0  0  0
   59.3107   35.8507   44.9502 H   0  0  0  0  0  0  0  0  0  0  0  0
   56.8780   35.3589   44.5875 H   0  0  0  0  0  0  0  0  0  0  0  0
   55.9692   33.0488   45.0549 H   0  0  0  0  0  0  0  0  0  0  0  0
  1  2  1  0
  2  3  1  0
  3  4  1  0
  4  5  1  0
  5  6  1  0
  4  7  1  0
  7  8  1  0
  8  9  1  0
  9 10  1  0
 10 11  1  0
 11 12  1  0
 12 13  1  0
 13 14  1  0
 14 15  1  0
 15 16  1  0
  7 17  1  0
 17 18  2  0
 18 19  1  0
 19 20  2  0
 20 21  1  0
 21 22  2  0
 22 23  1  0
 23 24  2  0
 24 25  1  0
 16 11  1  0
 25 17  1  0
 24 19  1  0
  1 26  1  0
  1 27  1  0
  1 28  1  0
  2 29  1  0
  2 30  1  0
  3 31  1  0
  3 32  1  0
  4 33  1  1
  5 34  1  0
  5 35  1  0
  6 36  1  0
  6 37  1  0
  6 38  1  0
  8 39  1  0
  8 40  1  0
  9 41  1  0
  9 42  1  0
 10 43  1  0
 10 44  1  0
 12 45  1  0
 12 46  1  0
 13 47  1  0
 13 48  1  0
 14 49  1  0
 14 50  1  0
 15 51  1  0
 15 52  1  0
 16 53  1  0
 16 54  1  0
 18 55  1  0
 20 56  1  0
 21 57  1  0
 22 58  1  0
 23 59  1  0
M  CHG  1  18   1
M  END
>  <UniqueID>  (8) 
8

>  <SMILES>  (8) 
CCC[C@@H](CC)N(CCCN1CCCCC1)c1[nH+]c2ccccc2o1

>  <Energy>  (8) 
98.66060138668642

>  <Genealogy>  (8) 
CCCC(CC)N(CCCN1CCCCC1)c1[nH+]c2ccccc2o1 (protonated)
CCC[C@@H](CC)N(CCCN1CCCCC1)c1[nH+]c2ccccc2o1 (chirality)
CCC[C@@H](CC)N(CCCN1CCCCC1)c1[nH+]c2ccccc2o1 (3D coordinates assigned)
CCC[C@@H](CC)N(CCCN1CCCCC1)c1[nH+]c2ccccc2o1 (nonaromatic ring conformer: 98.66060138668642 kcal/mol)

>  <smiles>  (8) 
CCCC(CC)N(CCCN1CCCCC1)c1nc2ccccc2o1

>  <score_type>  (8) 
oracle

>  <origin>  (8) 
adg

>  <m_score__min__energy>  (8) 
-5.7800000000000002

>  <m_primary>  (8) 
energy

$$$$
8:0
     RDKit          3D

 44 45  0  0  0  0  0  0  0  0999 V2000
   59.6390   27.1090   48.2630 C   0  0  0  0  0  0  0  0  0  0  0  0
   58.9610   28.3600   48.2970 O   0  0  0  0  0  0  0  0  0  0  0  0
   59.5970   29.6110   48.2600 C   0  0  0  0  0  0  0  0  0  0  0  0
   59.3420   30.6080   49.2210 C   0  0  0  0  0  0  0  0  0  0  0  0
   60.0020   31.8350   49.1550 C   0  0  0  0  0  0  0  0  0  0  0  0
   60.9250   32.0780   48.1370 C   0  0  0  0  0  0  0  0  0  0  0  0
   61.1800   31.1010   47.1720 C   0  0  0  0  0  0  0  0  0  0  0  0
   60.5110   29.8630   47.2210 C   0  0  0  0  0  0  0  0  0  0  0  0
   60.7260   28.8480   46.2730 O   0  0  0  0  0  0  0  0  0  0  0  0
   60.5160   28.9470   44.8620 C   0  0  0  0  0  0  0  0  0  0  0  0
   59.3910   28.0120   44.4070 C   0  0  0  0  0  0  0  0  0  0  0  0
   58.3470   27.9190   45.4350 N   0  0  0  0  0  0  0  0  0  0  0  0
   57.0190   28.2370   44.8870 C   0  0  0  0  0  0  0  0  0  0  0  0
   56.6850   29.6800   45.1220 C   0  0  0  0  0  0  0  0  0  0  0  0
   55.6280   30.1600   44.6290 O   0  0  0  0  0  0  0  0  0  0  0  0
   57.5240   30.4890   45.9530 N   0  0  0  0  0  0  0  0  0  0  0  0
   57.8100   31.8760   45.7330 C   0  0  0  0  0  0  0  0  0  0  0  0
   57.8890   32.7160   46.8500 C   0  0  0  0  0  0  0  0  0  0  0  0
   58.2060   34.0660   46.7020 C   0  0  0  0  0  0  0  0  0  0  0  0
   58.4660   34.5870   45.4340 C   0  0  0  0  0  0  0  0  0  0  0  0
   58.4150   33.7570   44.3110 C   0  0  0  0  0  0  0  0  0  0  0  0
   58.1090   32.3920   44.4460 C   0  0  0  0  0  0  0  0  0  0  0  0
   58.1270   31.5250   43.2160 C   0  0  0  0  0  0  0  0  0  0  0  0
   59.8255   26.7649   49.2910 H   0  0  0  0  0  0  0  0  0  0  0  0
   59.0181   26.3697   47.7358 H   0  0  0  0  0  0  0  0  0  0  0  0
   60.5974   27.2256   47.7358 H   0  0  0  0  0  0  0  0  0  0  0  0
   58.6187   30.4183   50.0278 H   0  0  0  0  0  0  0  0  0  0  0  0
   59.7948   32.6116   49.9059 H   0  0  0  0  0  0  0  0  0  0  0  0
   61.4533   33.0419   48.0944 H   0  0  0  0  0  0  0  0  0  0  0  0
   61.9066   31.2995   46.3703 H   0  0  0  0  0  0  0  0  0  0  0  0
   60.2462   29.9833   44.6104 H   0  0  0  0  0  0  0  0  0  0  0  0
   61.4437   28.6545   44.3484 H   0  0  0  0  0  0  0  0  0  0  0  0
   58.9497   28.4030   43.4783 H   0  0  0  0  0  0  0  0  0  0  0  0
   59.8108   27.0096   44.2371 H   0  0  0  0  0  0  0  0  0  0  0  0
   58.5710   28.6220   46.1800 H   0  0  0  0  0  0  0  0  0  0  0  0
   57.0163   28.0364   43.8054 H   0  0  0  0  0  0  0  0  0  0  0  0
   56.2674   27.6115   45.3908 H   0  0  0  0  0  0  0  0  0  0  0  0
   57.6993   32.3075   47.8536 H   0  0  0  0  0  0  0  0  0  0  0  0
   58.2511   34.7203   47.5851 H   0  0  0  0  0  0  0  0  0  0  0  0
   58.7115   35.6530   45.3182 H   0  0  0  0  0  0  0  0  0  0  0  0
   58.6159   34.1752   43.3136 H   0  0  0  0  0  0  0  0  0  0  0  0
   58.1490   30.4663   43.5139 H   0  0  0  0  0  0  0  0  0  0  0  0
   57.2246   31.7188   42.6175 H   0  0  0  0  0  0  0  0  0  0  0  0
   59.0205   31.7561   42.6175 H   0  0  0  0  0  0  0  0  0  0  0  0
  1  2  1  0
  2  3  1  0
  3  4  2  0
  4  5  1  0
  5  6  2  0
  6  7  1  0
  7  8  2  0
  8  9  1  0
  9 10  1  0
 10 11  1  0
 11 12  1  0
 12 13  1  0
 13 14  1  0
 14 15  2  0
 14 16  1  0
 16 17  1  0
 17 18  2  0
 18 19  1  0
 19 20  2  0
 20 21  1  0
 21 22  2  0
 22 23  1  0
  8  3  1  0
 22 17  1  0
  1 24  1  0
  1 25  1  0
  1 26  1  0
  4 27  1  0
  5 28  1  0
  6 29  1  0
  7 30  1  0
 10 31  1  0
 10 32  1  0
 11 33  1  0
 11 34  1  0
 12 35  1  0
 13 36  1  0
 13 37  1  0
 18 38  1  0
 19 39  1  0
 20 40  1  0
 21 41  1  0
 23 42  1  0
 23 43  1  0
 23 44  1  0
M  CHG  1  16  -1
M  END
>  <UniqueID>  (9) 
9

>  <SMILES>  (9) 
COc1ccccc1OCCNCC(=O)[N-]c1ccccc1C

>  <Energy>  (9) 
43.18379709414442

>  <Genealogy>  (9) 
COc1ccccc1OCCNCC(=O)[N-]c1ccccc1C (protonated)
COc1ccccc1OCCNCC(=O)[N-]c1ccccc1C (3D coordinates assigned)
COc1ccccc1OCCNCC(=O)[N-]c1ccccc1C (optimized conformer: 43.18379709414442 kcal/mol)

>  <smiles>  (9) 
COc1ccccc1OCCNCC(=O)Nc1ccccc1C

>  <score_type>  (9) 
oracle

>  <origin>  (9) 
adg

>  <m_score__min__energy>  (9) 
-9.3499999999999996

>  <m_primary>  (9) 
energy

$$$$
9:0
     RDKit          3D

 43 47  0  0  0  0  0  0  0  0999 V2000
   55.1388   22.2787   48.5148 H   0  0  0  0  0  0  0  0  0  0  0  0
   55.3970   22.7620   47.5610 C   0  0  0  0  0  0  0  0  0  0  0  0
   55.8970   24.0840   47.5580 C   0  0  0  0  0  0  0  0  0  0  0  0
   56.0358   24.6145   48.5116 H   0  0  0  0  0  0  0  0  0  0  0  0
   56.2210   24.7330   46.3440 C   0  0  0  0  0  0  0  0  0  0  0  0
   56.7370   26.1180   46.3530 C   0  0  0  0  0  0  0  0  0  0  0  0
   56.0890   27.0750   45.6340 N   0  0  0  0  0  0  0  0  0  0  0  0
   56.5320   28.3590   45.5980 C   0  0  0  0  0  0  0  0  0  0  0  0
   55.8710   29.2420   44.9110 N   0  0  0  0  0  0  0  0  0  0  0  0
   56.4420   30.0770   43.8550 C   0  0  0  0  0  0  0  0  0  0  0  0
   55.6275   30.5039   43.2514 H   0  0  0  0  0  0  0  0  0  0  0  0
   57.0960   29.4554   43.2258 H   0  0  0  0  0  0  0  0  0  0  0  0
   57.2560   31.1930   44.4460 C   0  0  0  0  0  0  0  0  0  0  0  0
   57.8640   32.1730   43.7210 N   0  0  0  0  0  0  0  0  0  0  0  0
   57.8200   32.3790   42.2740 C   0  0  0  0  0  0  0  0  0  0  0  0
   57.5946   33.4343   42.0606 H   0  0  0  0  0  0  0  0  0  0  0  0
   58.7945   32.1164   41.8365 H   0  0  0  0  0  0  0  0  0  0  0  0
   57.0378   31.7412   41.8365 H   0  0  0  0  0  0  0  0  0  0  0  0
   58.3800   33.0030   44.6490 C   0  0  0  0  0  0  0  0  0  0  0  0
   59.0620   34.2090   44.4730 C   0  0  0  0  0  0  0  0  0  0  0  0
   59.2690   34.6047   43.4677 H   0  0  0  0  0  0  0  0  0  0  0  0
   59.4750   34.9000   45.6270 C   0  0  0  0  0  0  0  0  0  0  0  0
   60.0220   35.8492   45.5277 H   0  0  0  0  0  0  0  0  0  0  0  0
   59.1930   34.3850   46.9130 C   0  0  0  0  0  0  0  0  0  0  0  0
   59.5229   34.9348   47.8068 H   0  0  0  0  0  0  0  0  0  0  0  0
   58.4920   33.1720   47.0560 C   0  0  0  0  0  0  0  0  0  0  0  0
   58.2592   32.7620   48.0498 H   0  0  0  0  0  0  0  0  0  0  0  0
   58.1040   32.5100   45.8930 C   0  0  0  0  0  0  0  0  0  0  0  0
   57.3990   31.3730   45.7840 N   0  0  0  0  0  0  0  0  0  0  0  0
   57.0130   30.7830   46.5550 H   0  0  0  0  0  0  0  0  0  0  0  0
   57.6590   28.7010   46.2820 N   0  0  0  0  0  0  0  0  0  0  0  0
   58.3500   27.7800   47.0000 C   0  0  0  0  0  0  0  0  0  0  0  0
   59.3930   28.1210   47.6170 O   0  0  0  0  0  0  0  0  0  0  0  0
   57.9060   26.4580   47.0470 C   0  0  0  0  0  0  0  0  0  0  0  0
   58.4618   25.6988   47.6168 H   0  0  0  0  0  0  0  0  0  0  0  0
   56.0480   23.9910   45.1640 C   0  0  0  0  0  0  0  0  0  0  0  0
   56.3210   24.2510   43.8370 C   0  0  0  0  0  0  0  0  0  0  0  0
   56.7352   25.1879   43.4360 H   0  0  0  0  0  0  0  0  0  0  0  0
   55.9920   23.1560   43.1130 N   0  0  0  0  0  0  0  0  0  0  0  0
   55.5320   22.2110   43.9270 N   0  0  0  0  0  0  0  0  0  0  0  0
   55.5690   22.7110   45.1750 C   0  0  0  0  0  0  0  0  0  0  0  0
   55.2270   22.0600   46.3560 C   0  0  0  0  0  0  0  0  0  0  0  0
   54.8371   21.0315   46.3466 H   0  0  0  0  0  0  0  0  0  0  0  0
  1  2  1  0
  2  3  2  0
  3  4  1  0
  3  5  1  0
  5  6  1  0
  6  7  1  0
  7  8  1  0
  8  9  2  0
  9 10  1  0
 10 11  1  0
 10 12  1  0
 10 13  1  0
 13 14  1  0
 14 15  1  0
 15 16  1  0
 15 17  1  0
 15 18  1  0
 14 19  1  0
 19 20  2  0
 20 21  1  0
 20 22  1  0
 22 23  1  0
 22 24  2  0
 24 25  1  0
 24 26  1  0
 26 27  1  0
 26 28  2  0
 28 29  1  0
 29 30  1  0
  8 31  1  0
 31 32  1  0
 32 33  2  0
 32 34  1  0
 34 35  1  0
  5 36  2  0
 36 37  1  0
 37 38  1  0
 37 39  2  0
 39 40  1  0
 40 41  1  0
 41 42  2  0
 42 43  1  0
 42  2  1  0
 34  6  2  0
 41 36  1  0
 29 13  2  0
 28 19  1  0
M  CHG  4   7  -1  29   1  31  -1  40  -1
M  END
>  <UniqueID>  (10) 
10

>  <SMILES>  (10) 
Cn1c(C/N=c2/[n-]c(-c3cccc4[n-]ncc34)cc(=O)[n-]2)[nH+]c2ccccc21

>  <Energy>  (10) 
130.43126078908315

>  <Genealogy>  (10) 
Cn1c(CN=c2[n-]c(-c3cccc4[n-]ncc34)cc(=O)[n-]2)[nH+]c2ccccc21 (protonated)
Cn1c(C/N=c2/[n-]c(-c3cccc4[n-]ncc34)cc(=O)[n-]2)[nH+]c2ccccc21 (cis-trans isomerization)
Cn1c(C/N=c2/[n-]c(-c3cccc4[n-]ncc34)cc(=O)[n-]2)[nH+]c2ccccc21 (3D coordinates assigned)
Cn1c(C/N=c2/[n-]c(-c3cccc4[n-]ncc34)cc(=O)[n-]2)[nH+]c2ccccc21 (optimized conformer: 130.43126078908315 kcal/mol)

>  <smiles>  (10) 
Cn1c(CN=c2[nH]c(-c3cccc4[nH]ncc34)cc(=O)[nH]2)nc2ccccc21

>  <score_type>  (10) 
oracle

>  <origin>  (10) 
adg

>  <m_score__min__energy>  (10) 
-11.960000000000001

>  <m_primary>  (10) 
energy

$$$$
10:0
     RDKit          3D

 39 40  0  0  0  0  0  0  0  0999 V2000
   58.0740   29.2050   44.5720 C   0  0  0  0  0  0  0  0  0  0  0  0
   57.5240   30.6210   44.3550 C   0  0  1  0  0  0  0  0  0  0  0  0
   56.2040   30.6940   44.8320 O   0  0  0  0  0  0  0  0  0  0  0  0
   58.4250   31.6880   45.0260 C   0  0  0  0  0  0  0  0  0  0  0  0
   57.7010   32.9590   45.2840 N   0  0  0  0  0  0  0  0  0  0  0  0
   57.4260   33.2220   46.7140 C   0  0  0  0  0  0  0  0  0  0  0  0
   58.7220   33.4120   47.5180 C   0  0  0  0  0  0  0  0  0  0  0  0
   59.7270   34.1190   46.7130 N   0  0  0  0  0  0  0  0  0  0  0  0
   61.1310   33.9130   46.9550 C   0  0  0  0  0  0  0  0  0  0  0  0
   61.9390   33.9020   45.9870 O   0  0  0  0  0  0  0  0  0  0  0  0
   61.6440   33.6500   48.3110 C   0  0  0  0  0  0  0  0  0  0  0  0
   61.1190   34.2030   49.4640 C   0  0  0  0  0  0  0  0  0  0  0  0
   61.8690   33.7060   50.5120 C   0  0  0  0  0  0  0  0  0  0  0  0
   62.8080   32.8580   49.9610 C   0  0  0  0  0  0  0  0  0  0  0  0
   62.6640   32.8160   48.6230 N   0  0  0  0  0  0  0  0  0  0  0  0
   63.4330   31.9530   47.7280 C   0  0  0  0  0  0  0  0  0  0  0  0
   59.2730   34.9370   45.5840 C   0  0  0  0  0  0  0  0  0  0  0  0
   58.3710   34.1170   44.6340 C   0  0  0  0  0  0  0  0  0  0  0  0
   58.1523   29.0034   45.6505 H   0  0  0  0  0  0  0  0  0  0  0  0
   57.3948   28.4731   44.1105 H   0  0  0  0  0  0  0  0  0  0  0  0
   59.0692   29.1235   44.1105 H   0  0  0  0  0  0  0  0  0  0  0  0
   57.5231   30.8360   43.2762 H   0  0  0  0  0  0  0  0  0  0  0  0
   56.0810   31.5880   45.2470 H   0  0  0  0  0  0  0  0  0  0  0  0
   58.7914   31.2895   45.9836 H   0  0  0  0  0  0  0  0  0  0  0  0
   59.2541   31.9080   44.3374 H   0  0  0  0  0  0  0  0  0  0  0  0
   56.8178   34.1347   46.7978 H   0  0  0  0  0  0  0  0  0  0  0  0
   56.8923   32.3526   47.1255 H   0  0  0  0  0  0  0  0  0  0  0  0
   58.5043   33.9989   48.4225 H   0  0  0  0  0  0  0  0  0  0  0  0
   59.1180   32.4235   47.7940 H   0  0  0  0  0  0  0  0  0  0  0  0
   60.2715   34.9009   49.5332 H   0  0  0  0  0  0  0  0  0  0  0  0
   61.7423   33.9407   51.5792 H   0  0  0  0  0  0  0  0  0  0  0  0
   63.5637   32.2982   50.5316 H   0  0  0  0  0  0  0  0  0  0  0  0
   64.0483   31.2625   48.3235 H   0  0  0  0  0  0  0  0  0  0  0  0
   62.7441   31.3760   47.0935 H   0  0  0  0  0  0  0  0  0  0  0  0
   64.0852   32.5711   47.0935 H   0  0  0  0  0  0  0  0  0  0  0  0
   58.7037   35.7963   45.9682 H   0  0  0  0  0  0  0  0  0  0  0  0
   60.1545   35.2793   45.0221 H   0  0  0  0  0  0  0  0  0  0  0  0
   57.5946   34.7848   44.2323 H   0  0  0  0  0  0  0  0  0  0  0  0
   59.0248   33.7070   43.8501 H   0  0  0  0  0  0  0  0  0  0  0  0
  1  2  1  0
  2  3  1  0
  2  4  1  0
  4  5  1  0
  5  6  1  0
  6  7  1  0
  7  8  1  0
  8  9  1  0
  9 10  2  0
  9 11  1  0
 11 12  2  0
 12 13  1  0
 13 14  2  0
 14 15  1  0
 15 16  1  0
  8 17  1  0
 17 18  1  0
 18  5  1  0
 15 11  1  0
  1 19  1  0
  1 20  1  0
  1 21  1  0
  2 22  1  6
  3 23  1  0
  4 24  1  0
  4 25  1  0
  6 26  1  0
  6 27  1  0
  7 28  1  0
  7 29  1  0
 12 30  1  0
 13 31  1  0
 14 32  1  0
 16 33  1  0
 16 34  1  0
 16 35  1  0
 17 36  1  0
 17 37  1  0
 18 38  1  0
 18 39  1  0
M  END
>  <UniqueID>  (11) 
11

>  <SMILES>  (11) 
C[C@@H](O)CN1CCN(C(=O)c2cccn2C)CC1

>  <Energy>  (11) 
77.33378735441806

>  <Genealogy>  (11) 
C[C@@H](O)CN1CCN(C(=O)c2cccn2C)CC1 (chirality)
C[C@@H](O)CN1CCN(C(=O)c2cccn2C)CC1 (3D coordinates assigned)
C[C@@H](O)CN1CCN(C(=O)c2cccn2C)CC1 (nonaromatic ring conformer: 77.33378735441806 kcal/mol)

>  <smiles>  (11) 
CC(O)CN1CCN(C(=O)c2cccn2C)CC1

>  <score_type>  (11) 
oracle

>  <origin>  (11) 
adg

>  <m_score__min__energy>  (11) 
-6.1500000000000004

>  <m_primary>  (11) 
energy

$$$$
11:0
     RDKit          3D

 52 55  0  0  0  0  0  0  0  0999 V2000
   60.5001   25.8982   45.3406 H   0  0  0  0  0  0  0  0  0  0  0  0
   60.3750   26.7470   46.0290 C   0  0  0  0  0  0  0  0  0  0  0  0
   59.9860   26.5220   47.3530 C   0  0  0  0  0  0  0  0  0  0  0  0
   59.8063   25.4958   47.7059 H   0  0  0  0  0  0  0  0  0  0  0  0
   59.8250   27.6010   48.2300 C   0  0  0  0  0  0  0  0  0  0  0  0
   59.5160   27.4211   49.2703 H   0  0  0  0  0  0  0  0  0  0  0  0
   60.0570   28.9130   47.7850 C   0  0  0  0  0  0  0  0  0  0  0  0
   59.8570   30.0830   48.7110 C   0  0  0  0  0  0  0  0  0  0  0  0
   60.5270   29.9801   49.5773 H   0  0  0  0  0  0  0  0  0  0  0  0
   58.8100   30.1009   49.0479 H   0  0  0  0  0  0  0  0  0  0  0  0
   60.1570   31.3330   48.0130 N   0  0  0  0  0  0  0  0  0  0  0  0
   59.2460   32.1770   47.4730 C   0  0  0  0  0  0  0  0  0  0  0  0
   58.1581   32.0141   47.4788 H   0  0  0  0  0  0  0  0  0  0  0  0
   59.8810   33.2790   46.9100 C   0  0  0  0  0  0  0  0  0  0  0  0
   59.2220   34.3550   46.0940 C   0  0  0  0  0  0  0  0  0  0  0  0
   59.7008   34.3978   45.1046 H   0  0  0  0  0  0  0  0  0  0  0  0
   59.3370   35.3117   46.6247 H   0  0  0  0  0  0  0  0  0  0  0  0
   57.7220   34.0800   45.9120 C   0  0  0  0  0  0  0  0  0  0  0  0
   57.1628   34.9959   46.1535 H   0  0  0  0  0  0  0  0  0  0  0  0
   57.4481   33.2527   46.5832 H   0  0  0  0  0  0  0  0  0  0  0  0
   57.3760   33.6540   44.4760 C   0  0  0  0  0  0  0  0  0  0  0  0
   57.9373   34.2845   43.7708 H   0  0  0  0  0  0  0  0  0  0  0  0
   56.2923   33.7748   44.3312 H   0  0  0  0  0  0  0  0  0  0  0  0
   57.7280   32.2120   44.2300 C   0  0  0  0  0  0  0  0  0  0  0  0
   58.5110   31.9270   43.2860 O   0  0  0  0  0  0  0  0  0  0  0  0
   57.3190   31.1680   45.1290 N   0  0  0  0  0  0  0  0  0  0  0  0
   57.4270   29.8830   44.9430 C   0  0  0  0  0  0  0  0  0  0  0  0
   57.1100   28.8680   45.8350 C   0  0  0  0  0  0  0  0  0  0  0  0
   56.7398   28.9670   46.8661 H   0  0  0  0  0  0  0  0  0  0  0  0
   57.3650   27.7050   45.1340 C   0  0  0  0  0  0  0  0  0  0  0  0
   57.2292   26.6829   45.5172 H   0  0  0  0  0  0  0  0  0  0  0  0
   57.8080   28.0300   43.9020 N   0  0  0  0  0  0  0  0  0  0  0  0
   58.1020   27.0950   42.8240 C   0  0  0  0  0  0  0  0  0  0  0  0
   58.4062   26.1277   43.2504 H   0  0  0  0  0  0  0  0  0  0  0  0
   57.2041   26.9563   42.2039 H   0  0  0  0  0  0  0  0  0  0  0  0
   58.9177   27.4951   42.2039 H   0  0  0  0  0  0  0  0  0  0  0  0
   57.8270   29.3470   43.7770 N   0  0  0  0  0  0  0  0  0  0  0  0
   58.0990   29.8640   42.9100 H   0  0  0  0  0  0  0  0  0  0  0  0
   61.2340   33.0850   47.1300 C   0  0  0  0  0  0  0  0  0  0  0  0
   62.3420   33.8490   46.7620 C   0  0  0  0  0  0  0  0  0  0  0  0
   62.2214   34.7972   46.2177 H   0  0  0  0  0  0  0  0  0  0  0  0
   63.6160   33.3700   47.1080 C   0  0  0  0  0  0  0  0  0  0  0  0
   64.5101   33.9508   46.8373 H   0  0  0  0  0  0  0  0  0  0  0  0
   63.7570   32.1480   47.8010 C   0  0  0  0  0  0  0  0  0  0  0  0
   64.7602   31.7819   48.0649 H   0  0  0  0  0  0  0  0  0  0  0  0
   62.6230   31.3960   48.1560 C   0  0  0  0  0  0  0  0  0  0  0  0
   62.7222   30.4422   48.6949 H   0  0  0  0  0  0  0  0  0  0  0  0
   61.3660   31.8960   47.8040 C   0  0  0  0  0  0  0  0  0  0  0  0
   60.4460   29.1310   46.4530 C   0  0  0  0  0  0  0  0  0  0  0  0
   60.6262   30.1556   46.0955 H   0  0  0  0  0  0  0  0  0  0  0  0
   60.6050   28.0510   45.5800 C   0  0  0  0  0  0  0  0  0  0  0  0
   60.9115   28.2272   44.5384 H   0  0  0  0  0  0  0  0  0  0  0  0
  1  2  1  0
  2  3  2  0
  3  4  1  0
  3  5  1  0
  5  6  1  0
  5  7  2  0
  7  8  1  0
  8  9  1  0
  8 10  1  0
  8 11  1  0
 11 12  1  0
 12 13  1  0
 12 14  2  0
 14 15  1  0
 15 16  1  0
 15 17  1  0
 15 18  1  0
 18 19  1  0
 18 20  1  0
 18 21  1  0
 21 22  1  0
 21 23  1  0
 21 24  1  0
 24 25  2  0
 24 26  1  0
 26 27  2  0
 27 28  1  0
 28 29  1  0
 28 30  2  0
 30 31  1  0
 30 32  1  0
 32 33  1  0
 33 34  1  0
 33 35  1  0
 33 36  1  0
 32 37  1  0
 37 38  1  0
 14 39  1  0
 39 40  2  0
 40 41  1  0
 40 42  1  0
 42 43  1  0
 42 44  2  0
 44 45  1  0
 44 46  1  0
 46 47  1  0
 46 48  2  0
  7 49  1  0
 49 50  1  0
 49 51  2  0
 51 52  1  0
 51  2  1  0
 48 11  1  0
 37 27  1  0
 48 39  1  0
M  END
>  <UniqueID>  (12) 
12

>  <SMILES>  (12) 
Cn1cc/c(=N\C(=O)CCCc2cn(Cc3ccccc3)c3ccccc23)[nH]1

>  <Energy>  (12) 
117.39388169100548

>  <Genealogy>  (12) 
Cn1cc/c(=N\C(=O)CCCc2cn(Cc3ccccc3)c3ccccc23)[nH]1 (cis-trans isomerization)
Cn1cc/c(=N\C(=O)CCCc2cn(Cc3ccccc3)c3ccccc23)[nH]1 (3D coordinates assigned)
Cn1cc/c(=N\C(=O)CCCc2cn(Cc3ccccc3)c3ccccc23)[nH]1 (optimized conformer: 117.39388169100548 kcal/mol)

>  <smiles>  (12) 
Cn1ccc(=NC(=O)CCCc2cn(Cc3ccccc3)c3ccccc23)[nH]1

>  <score_type>  (12) 
oracle

>  <origin>  (12) 
adg

>  <m_score__min__energy>  (12) 
-8.6400000000000006

>  <m_primary>  (12) 
energy

$$$$
12:0
     RDKit          3D

 39 41  0  0  0  0  0  0  0  0999 V2000
   58.7760   24.8860   46.0480 C   0  0  0  0  0  0  0  0  0  0  0  0
   58.1700   25.8550   46.8980 O   0  0  0  0  0  0  0  0  0  0  0  0
   58.0890   27.2290   46.6160 C   0  0  0  0  0  0  0  0  0  0  0  0
   57.0430   27.7680   45.8510 C   0  0  0  0  0  0  0  0  0  0  0  0
   56.9770   29.1450   45.5770 C   0  0  0  0  0  0  0  0  0  0  0  0
   55.9290   29.6830   44.8080 O   0  0  0  0  0  0  0  0  0  0  0  0
   55.8980   29.7290   43.3850 C   0  0  0  0  0  0  0  0  0  0  0  0
   57.9840   29.9980   46.0850 C   0  0  0  0  0  0  0  0  0  0  0  0
   57.9910   31.3920   45.8480 C   0  0  0  0  0  0  0  0  0  0  0  0
   57.0940   31.9500   45.1590 O   0  0  0  0  0  0  0  0  0  0  0  0
   59.0110   32.1770   46.3810 C   0  0  0  0  0  0  0  0  0  0  0  0
   60.0070   31.5720   47.1500 C   0  0  0  0  0  0  0  0  0  0  0  0
   61.1180   32.3590   47.7260 C   0  0  0  0  0  0  0  0  0  0  0  0
   62.3880   32.2570   47.1340 C   0  0  0  0  0  0  0  0  0  0  0  0
   63.4670   32.9850   47.6400 C   0  0  0  0  0  0  0  0  0  0  0  0
   63.2940   33.8120   48.7510 C   0  0  0  0  0  0  0  0  0  0  0  0
   62.0430   33.9040   49.3640 C   0  0  0  0  0  0  0  0  0  0  0  0
   60.9530   33.1800   48.8670 C   0  0  0  0  0  0  0  0  0  0  0  0
   59.4320   33.2630   49.7520 Cl  0  0  0  0  0  0  0  0  0  0  0  0
   59.9850   30.2580   47.3430 O   0  0  0  0  0  0  0  0  0  0  0  0
   59.0420   29.4550   46.8610 C   0  0  0  0  0  0  0  0  0  0  0  0
   59.0920   28.0650   47.1230 C   0  0  0  0  0  0  0  0  0  0  0  0
   60.1090   27.4500   47.8810 O   0  0  0  0  0  0  0  0  0  0  0  0
   60.7730   28.0000   49.0130 C   0  0  0  0  0  0  0  0  0  0  0  0
   59.2602   24.1118   46.6614 H   0  0  0  0  0  0  0  0  0  0  0  0
   58.0064   24.4227   45.4131 H   0  0  0  0  0  0  0  0  0  0  0  0
   59.5294   25.3751   45.4131 H   0  0  0  0  0  0  0  0  0  0  0  0
   56.2611   27.1010   45.4590 H   0  0  0  0  0  0  0  0  0  0  0  0
   55.3108   30.6002   43.0590 H   0  0  0  0  0  0  0  0  0  0  0  0
   56.9244   29.8131   42.9984 H   0  0  0  0  0  0  0  0  0  0  0  0
   55.4348   28.8092   42.9984 H   0  0  0  0  0  0  0  0  0  0  0  0
   59.0315   33.2615   46.1980 H   0  0  0  0  0  0  0  0  0  0  0  0
   62.5336   31.5985   46.2650 H   0  0  0  0  0  0  0  0  0  0  0  0
   64.4547   32.9066   47.1623 H   0  0  0  0  0  0  0  0  0  0  0  0
   64.1429   34.3910   49.1434 H   0  0  0  0  0  0  0  0  0  0  0  0
   61.9129   34.5505   50.2444 H   0  0  0  0  0  0  0  0  0  0  0  0
   60.3087   27.6154   49.9331 H   0  0  0  0  0  0  0  0  0  0  0  0
   61.8347   27.7132   48.9905 H   0  0  0  0  0  0  0  0  0  0  0  0
   60.6889   29.0965   48.9905 H   0  0  0  0  0  0  0  0  0  0  0  0
  1  2  1  0
  2  3  1  0
  3  4  2  0
  4  5  1  0
  5  6  1  0
  6  7  1  0
  5  8  2  0
  8  9  1  0
  9 10  2  0
  9 11  1  0
 11 12  2  0
 12 13  1  0
 13 14  2  0
 14 15  1  0
 15 16  2  0
 16 17  1  0
 17 18  2  0
 18 19  1  0
 12 20  1  0
 20 21  1  0
 21 22  2  0
 22 23  1  0
 23 24  1  0
 22  3  1  0
 21  8  1  0
 18 13  1  0
  1 25  1  0
  1 26  1  0
  1 27  1  0
  4 28  1  0
  7 29  1  0
  7 30  1  0
  7 31  1  0
 11 32  1  0
 14 33  1  0
 15 34  1  0
 16 35  1  0
 17 36  1  0
 24 37  1  0
 24 38  1  0
 24 39  1  0
M  END
>  <UniqueID>  (13) 
13

>  <SMILES>  (13) 
COc1cc(OC)c2c(=O)cc(-c3ccccc3Cl)oc2c1OC

>  <Energy>  (13) 
56.12103148567073

>  <Genealogy>  (13) 
COc1cc(OC)c2c(=O)cc(-c3ccccc3Cl)oc2c1OC (3D coordinates assigned)
COc1cc(OC)c2c(=O)cc(-c3ccccc3Cl)oc2c1OC (optimized conformer: 56.12103148567073 kcal/mol)

>  <smiles>  (13) 
COc1cc(OC)c2c(=O)cc(-c3ccccc3Cl)oc2c1OC

>  <score_type>  (13) 
oracle

>  <origin>  (13) 
adg

>  <m_score__min__energy>  (13) 
-6.8300000000000001

>  <m_primary>  (13) 
energy

$$$$
13:0
     RDKit          3D

 68 70  0  0  0  0  0  0  0  0999 V2000
   60.0340   27.5950   46.6130 C   0  0  0  0  0  0  0  0  0  0  0  0
   59.4400   26.3120   46.0140 C   0  0  0  0  0  0  0  0  0  0  0  0
   58.0270   26.4300   45.5720 N   0  0  0  0  0  0  0  0  0  0  0  0
   57.0290   26.0030   46.5850 C   0  0  0  0  0  0  0  0  0  0  0  0
   55.7950   25.3080   45.9980 C   0  0  0  0  0  0  0  0  0  0  0  0
   57.7740   25.9910   44.1790 C   0  0  0  0  0  0  0  0  0  0  0  0
   57.7820   27.1680   43.1910 C   0  0  0  0  0  0  0  0  0  0  0  0
   58.1950   28.4050   43.8560 N   0  0  0  0  0  0  0  0  0  0  0  0
   57.4440   29.6190   43.7020 C   0  0  0  0  0  0  0  0  0  0  0  0
   56.4790   29.6580   42.8890 O   0  0  0  0  0  0  0  0  0  0  0  0
   57.8030   30.8380   44.4620 C   0  0  0  0  0  0  0  0  0  0  0  0
   57.7480   32.0950   43.8420 C   0  0  0  0  0  0  0  0  0  0  0  0
   58.0810   33.2490   44.5500 C   0  0  0  0  0  0  0  0  0  0  0  0
   58.5090   33.1760   45.8850 C   0  0  0  0  0  0  0  0  0  0  0  0
   58.8500   34.7240   46.7520 S   0  0  0  0  0  0  0  0  0  0  0  0
   60.4550   34.2390   47.4280 C   0  0  0  0  0  0  0  0  0  0  0  0
   60.6950   34.3520   48.8060 C   0  0  0  0  0  0  0  0  0  0  0  0
   61.9360   33.9900   49.3430 C   0  0  0  0  0  0  0  0  0  0  0  0
   62.9560   33.5400   48.5000 C   0  0  0  0  0  0  0  0  0  0  0  0
   64.5080   33.0760   49.1690 Cl  0  0  0  0  0  0  0  0  0  0  0  0
   62.7340   33.4510   47.1200 C   0  0  0  0  0  0  0  0  0  0  0  0
   61.4980   33.8280   46.5820 C   0  0  0  0  0  0  0  0  0  0  0  0
   58.5130   31.9200   46.5360 C   0  0  0  0  0  0  0  0  0  0  0  0
   58.7780   31.7920   47.9390 N   0  0  0  0  0  0  0  0  0  0  0  0
   59.1790   30.5170   48.5250 C   0  0  0  0  0  0  0  0  0  0  0  0
   59.2570   30.6050   50.0550 C   0  0  0  0  0  0  0  0  0  0  0  0
   58.6640   31.8670   50.5480 N   0  0  0  0  0  0  0  0  0  0  0  0
   57.3700   31.6520   51.2510 C   0  0  0  0  0  0  0  0  0  0  0  0
   57.3590   32.2310   52.6760 C   0  0  0  0  0  0  0  0  0  0  0  0
   57.7440   33.5950   52.6930 O   0  0  0  0  0  0  0  0  0  0  0  0
   58.9670   33.8450   51.9980 C   0  0  0  0  0  0  0  0  0  0  0  0
   59.6390   32.6100   51.3670 C   0  0  0  0  0  0  0  0  0  0  0  0
   58.1530   30.7680   45.8190 C   0  0  0  0  0  0  0  0  0  0  0  0
   60.0059   27.5342   47.7110 H   0  0  0  0  0  0  0  0  0  0  0  0
   61.0759   27.7076   46.2786 H   0  0  0  0  0  0  0  0  0  0  0  0
   59.4458   28.4623   46.2786 H   0  0  0  0  0  0  0  0  0  0  0  0
   60.0487   26.0266   45.1434 H   0  0  0  0  0  0  0  0  0  0  0  0
   59.4528   25.5596   46.8163 H   0  0  0  0  0  0  0  0  0  0  0  0
   57.5197   25.3056   47.2799 H   0  0  0  0  0  0  0  0  0  0  0  0
   56.6708   26.9174   47.0805 H   0  0  0  0  0  0  0  0  0  0  0  0
   55.1539   24.9469   46.8157 H   0  0  0  0  0  0  0  0  0  0  0  0
   55.2321   26.0218   45.3786 H   0  0  0  0  0  0  0  0  0  0  0  0
   56.1136   24.4566   45.3786 H   0  0  0  0  0  0  0  0  0  0  0  0
   58.5564   25.2759   43.8849 H   0  0  0  0  0  0  0  0  0  0  0  0
   56.7768   25.5279   44.1458 H   0  0  0  0  0  0  0  0  0  0  0  0
   58.4837   26.9471   42.3732 H   0  0  0  0  0  0  0  0  0  0  0  0
   56.7638   27.3035   42.7973 H   0  0  0  0  0  0  0  0  0  0  0  0
   59.0740   28.4130   44.4200 H   0  0  0  0  0  0  0  0  0  0  0  0
   57.4397   32.1709   42.7888 H   0  0  0  0  0  0  0  0  0  0  0  0
   58.0074   34.2292   44.0562 H   0  0  0  0  0  0  0  0  0  0  0  0
   59.9020   34.7279   49.4692 H   0  0  0  0  0  0  0  0  0  0  0  0
   62.1083   34.0596   50.4272 H   0  0  0  0  0  0  0  0  0  0  0  0
   63.5322   33.0843   46.4579 H   0  0  0  0  0  0  0  0  0  0  0  0
   61.3431   33.8023   45.4933 H   0  0  0  0  0  0  0  0  0  0  0  0
   58.2650   32.4450   48.5740 H   0  0  0  0  0  0  0  0  0  0  0  0
   58.4429   29.7481   48.2476 H   0  0  0  0  0  0  0  0  0  0  0  0
   60.1768   30.2578   48.1414 H   0  0  0  0  0  0  0  0  0  0  0  0
   58.7098   29.7566   50.4918 H   0  0  0  0  0  0  0  0  0  0  0  0
   60.3157   30.5775   50.3524 H   0  0  0  0  0  0  0  0  0  0  0  0
   56.5705   32.1348   50.6699 H   0  0  0  0  0  0  0  0  0  0  0  0
   57.2167   30.5660   51.3350 H   0  0  0  0  0  0  0  0  0  0  0  0
   56.3431   32.1426   53.0884 H   0  0  0  0  0  0  0  0  0  0  0  0
   58.0820   31.6641   53.2809 H   0  0  0  0  0  0  0  0  0  0  0  0
   58.7577   34.5647   51.1929 H   0  0  0  0  0  0  0  0  0  0  0  0
   59.6726   34.2174   52.7552 H   0  0  0  0  0  0  0  0  0  0  0  0
   60.4753   32.9358   50.7311 H   0  0  0  0  0  0  0  0  0  0  0  0
   60.0116   31.9539   52.1675 H   0  0  0  0  0  0  0  0  0  0  0  0
   58.1452   29.7938   46.3297 H   0  0  0  0  0  0  0  0  0  0  0  0
  1  2  1  0
  2  3  1  0
  3  4  1  0
  4  5  1  0
  3  6  1  0
  6  7  1  0
  7  8  1  0
  8  9  1  0
  9 10  2  0
  9 11  1  0
 11 12  2  0
 12 13  1  0
 13 14  2  0
 14 15  1  0
 15 16  1  0
 16 17  2  0
 17 18  1  0
 18 19  2  0
 19 20  1  0
 19 21  1  0
 21 22  2  0
 14 23  1  0
 23 24  1  0
 24 25  1  0
 25 26  1  0
 26 27  1  0
 27 28  1  0
 28 29  1  0
 29 30  1  0
 30 31  1  0
 31 32  1  0
 23 33  2  0
 33 11  1  0
 22 16  1  0
 32 27  1  0
  1 34  1  0
  1 35  1  0
  1 36  1  0
  2 37  1  0
  2 38  1  0
  4 39  1  0
  4 40  1  0
  5 41  1  0
  5 42  1  0
  5 43  1  0
  6 44  1  0
  6 45  1  0
  7 46  1  0
  7 47  1  0
  8 48  1  0
 12 49  1  0
 13 50  1  0
 17 51  1  0
 18 52  1  0
 21 53  1  0
 22 54  1  0
 24 55  1  0
 25 56  1  0
 25 57  1  0
 26 58  1  0
 26 59  1  0
 28 60  1  0
 28 61  1  0
 29 62  1  0
 29 63  1  0
 31 64  1  0
 31 65  1  0
 32 66  1  0
 32 67  1  0
 33 68  1  0
M  END
>  <UniqueID>  (14) 
14

>  <SMILES>  (14) 
CCN(CC)CCNC(=O)c1ccc(Sc2ccc(Cl)cc2)c(NCCN2CCOCC2)c1

>  <Energy>  (14) 
86.53068809284667

>  <Genealogy>  (14) 
CCN(CC)CCNC(=O)c1ccc(Sc2ccc(Cl)cc2)c(NCCN2CCOCC2)c1 (3D coordinates assigned)
CCN(CC)CCNC(=O)c1ccc(Sc2ccc(Cl)cc2)c(NCCN2CCOCC2)c1 (nonaromatic ring conformer: 86.53068809284667 kcal/mol)

>  <smiles>  (14) 
CCN(CC)CCNC(=O)c1ccc(Sc2ccc(Cl)cc2)c(NCCN2CCOCC2)c1

>  <score_type>  (14) 
oracle

>  <origin>  (14) 
adg

>  <m_score__min__energy>  (14) 
-8.25

>  <m_primary>  (14) 
energy

$$$$
14:0
     RDKit          3D

 41 43  0  0  0  0  0  0  0  0999 V2000
   63.5340   32.5160   47.1290 C   0  0  0  0  0  0  0  0  0  0  0  0
   62.5620   32.0400   48.2010 C   0  0  0  0  0  0  0  0  0  0  0  0
   61.2090   31.9220   47.6460 N   0  0  0  0  0  0  0  0  0  0  0  0
   60.4580   30.8000   47.5520 C   0  0  0  0  0  0  0  0  0  0  0  0
   60.7920   29.5170   47.9940 C   0  0  0  0  0  0  0  0  0  0  0  0
   59.8730   28.4780   47.7840 C   0  0  0  0  0  0  0  0  0  0  0  0
   58.6440   28.7190   47.1340 C   0  0  0  0  0  0  0  0  0  0  0  0
   57.7710   27.6360   46.9500 O   0  0  0  0  0  0  0  0  0  0  0  0
   57.5640   26.9720   45.7070 C   0  0  0  0  0  0  0  0  0  0  0  0
   58.3300   30.0250   46.6900 C   0  0  0  0  0  0  0  0  0  0  0  0
   59.2570   31.0490   46.9110 C   0  0  0  0  0  0  0  0  0  0  0  0
   59.2670   32.4010   46.5710 C   0  0  0  0  0  0  0  0  0  0  0  0
   58.3560   33.2400   45.8890 C   0  0  0  0  0  0  0  0  0  0  0  0
   57.0260   32.7720   45.3540 C   0  0  0  0  0  0  0  0  0  0  0  0
   57.1900   31.6210   44.4070 C   0  0  0  0  0  0  0  0  0  0  0  0
   58.1300   31.6380   43.5670 O   0  0  0  0  0  0  0  0  0  0  0  0
   56.3390   30.5130   44.4970 O   0  0  0  0  0  0  0  0  0  0  0  0
   56.0070   29.7090   43.3720 C   0  0  0  0  0  0  0  0  0  0  0  0
   58.7440   34.5830   45.6780 C   0  0  0  0  0  0  0  0  0  0  0  0
   59.9830   35.0620   46.1390 C   0  0  0  0  0  0  0  0  0  0  0  0
   60.8660   34.2160   46.8210 C   0  0  0  0  0  0  0  0  0  0  0  0
   60.4850   32.8870   47.0300 C   0  0  0  0  0  0  0  0  0  0  0  0
   64.4234   32.9515   47.6078 H   0  0  0  0  0  0  0  0  0  0  0  0
   63.8352   31.6635   46.5026 H   0  0  0  0  0  0  0  0  0  0  0  0
   63.0452   33.2767   46.5026 H   0  0  0  0  0  0  0  0  0  0  0  0
   62.8874   31.0583   48.5756 H   0  0  0  0  0  0  0  0  0  0  0  0
   62.5491   32.7716   49.0223 H   0  0  0  0  0  0  0  0  0  0  0  0
   61.7527   29.3263   48.4947 H   0  0  0  0  0  0  0  0  0  0  0  0
   60.1137   27.4622   48.1306 H   0  0  0  0  0  0  0  0  0  0  0  0
   57.2414   25.9370   45.8934 H   0  0  0  0  0  0  0  0  0  0  0  0
   56.7879   27.5004   45.1338 H   0  0  0  0  0  0  0  0  0  0  0  0
   58.5028   26.9658   45.1338 H   0  0  0  0  0  0  0  0  0  0  0  0
   57.3766   30.2310   46.1815 H   0  0  0  0  0  0  0  0  0  0  0  0
   56.3933   32.4549   46.1961 H   0  0  0  0  0  0  0  0  0  0  0  0
   56.5607   33.6056   44.8075 H   0  0  0  0  0  0  0  0  0  0  0  0
   55.6083   28.7434   43.7163 H   0  0  0  0  0  0  0  0  0  0  0  0
   55.2478   30.2237   42.7647 H   0  0  0  0  0  0  0  0  0  0  0  0
   56.9081   29.5381   42.7647 H   0  0  0  0  0  0  0  0  0  0  0  0
   58.0653   35.2646   45.1443 H   0  0  0  0  0  0  0  0  0  0  0  0
   60.2613   36.1114   45.9622 H   0  0  0  0  0  0  0  0  0  0  0  0
   61.8357   34.5878   47.1835 H   0  0  0  0  0  0  0  0  0  0  0  0
  1  2  1  0
  2  3  1  0
  3  4  1  0
  4  5  2  0
  5  6  1  0
  6  7  2  0
  7  8  1  0
  8  9  1  0
  7 10  1  0
 10 11  2  0
 11 12  1  0
 12 13  2  0
 13 14  1  0
 14 15  1  0
 15 16  2  0
 15 17  1  0
 17 18  1  0
 13 19  1  0
 19 20  2  0
 20 21  1  0
 21 22  2  0
 22  3  1  0
 11  4  1  0
 22 12  1  0
  1 23  1  0
  1 24  1  0
  1 25  1  0
  2 26  1  0
  2 27  1  0
  5 28  1  0
  6 29  1  0
  9 30  1  0
  9 31  1  0
  9 32  1  0
 10 33  1  0
 14 34  1  0
 14 35  1  0
 18 36  1  0
 18 37  1  0
 18 38  1  0
 19 39  1  0
 20 40  1  0
 21 41  1  0
M  END
>  <UniqueID>  (15) 
15

>  <SMILES>  (15) 
CCn1c2ccc(OC)cc2c2c(CC(=O)OC)cccc21

>  <Energy>  (15) 
79.12668030755897

>  <Genealogy>  (15) 
CCn1c2ccc(OC)cc2c2c(CC(=O)OC)cccc21 (3D coordinates assigned)
CCn1c2ccc(OC)cc2c2c(CC(=O)OC)cccc21 (optimized conformer: 79.12668030755897 kcal/mol)

>  <smiles>  (15) 
CCn1c2ccc(OC)cc2c2c(CC(=O)OC)cccc21

>  <score_type>  (15) 
oracle

>  <origin>  (15) 
adg

>  <m_score__min__energy>  (15) 
-6.9800000000000004

>  <m_primary>  (15) 
energy

$$$$
15:0
     RDKit          3D

 43 46  0  0  0  0  0  0  0  0999 V2000
   63.9920   34.3130   51.7390 C   0  0  0  0  0  0  0  0  0  0  0  0
   64.1180   34.2250   50.3460 O   0  0  0  0  0  0  0  0  0  0  0  0
   63.1180   33.6660   49.5340 C   0  0  0  0  0  0  0  0  0  0  0  0
   62.1260   34.5030   49.0650 C   0  0  0  0  0  0  0  0  0  0  0  0
   61.1490   33.9310   48.2660 C   0  0  0  0  0  0  0  0  0  0  0  0
   61.1580   32.5810   47.9420 C   0  0  0  0  0  0  0  0  0  0  0  0
   62.1850   31.7720   48.4390 C   0  0  0  0  0  0  0  0  0  0  0  0
   63.1720   32.3170   49.2400 C   0  0  0  0  0  0  0  0  0  0  0  0
   64.2180   31.5820   49.7700 O   0  0  0  0  0  0  0  0  0  0  0  0
   64.0450   30.9310   51.0060 C   0  0  0  0  0  0  0  0  0  0  0  0
   59.9890   32.3060   47.0910 C   0  0  0  0  0  0  0  0  0  0  0  0
   59.5430   31.1590   46.5150 N   0  0  0  0  0  0  0  0  0  0  0  0
   58.4130   31.2110   45.7770 C   0  0  0  0  0  0  0  0  0  0  0  0
   57.8640   30.0700   45.1250 N   0  0  0  0  0  0  0  0  0  0  0  0
   57.8820   28.7470   45.7500 C   0  0  0  0  0  0  0  0  0  0  0  0
   56.6420   28.0260   45.2380 C   0  0  0  0  0  0  0  0  0  0  0  0
   55.6420   29.0240   45.2050 O   0  0  0  0  0  0  0  0  0  0  0  0
   55.7960   29.7250   43.9920 C   0  0  0  0  0  0  0  0  0  0  0  0
   57.2440   30.1820   43.7970 C   0  0  0  0  0  0  0  0  0  0  0  0
   57.7520   32.3750   45.6190 N   0  0  0  0  0  0  0  0  0  0  0  0
   58.1510   33.5250   46.1630 C   0  0  0  0  0  0  0  0  0  0  0  0
   57.5000   34.5860   45.9860 O   0  0  0  0  0  0  0  0  0  0  0  0
   59.3160   33.4980   46.9310 C   0  0  0  0  0  0  0  0  0  0  0  0
   59.9750   34.5990   47.6340 C   0  0  0  0  0  0  0  0  0  0  0  0
   64.8041   33.7458   52.2172 H   0  0  0  0  0  0  0  0  0  0  0  0
   64.0508   35.3675   52.0466 H   0  0  0  0  0  0  0  0  0  0  0  0
   63.0222   33.8948   52.0466 H   0  0  0  0  0  0  0  0  0  0  0  0
   62.1116   35.5744   49.3139 H   0  0  0  0  0  0  0  0  0  0  0  0
   62.2077   30.7003   48.1923 H   0  0  0  0  0  0  0  0  0  0  0  0
   64.2338   31.6415   51.8242 H   0  0  0  0  0  0  0  0  0  0  0  0
   63.0150   30.5521   51.0798 H   0  0  0  0  0  0  0  0  0  0  0  0
   64.7510   30.0907   51.0798 H   0  0  0  0  0  0  0  0  0  0  0  0
   60.0440   30.2510   46.6280 H   0  0  0  0  0  0  0  0  0  0  0  0
   58.7904   28.1990   45.4594 H   0  0  0  0  0  0  0  0  0  0  0  0
   57.8827   28.8191   46.8476 H   0  0  0  0  0  0  0  0  0  0  0  0
   56.8172   27.6175   44.2318 H   0  0  0  0  0  0  0  0  0  0  0  0
   56.3614   27.1729   45.8733 H   0  0  0  0  0  0  0  0  0  0  0  0
   55.5123   29.0660   43.1582 H   0  0  0  0  0  0  0  0  0  0  0  0
   55.1504   30.6152   44.0196 H   0  0  0  0  0  0  0  0  0  0  0  0
   57.7597   29.5327   43.0742 H   0  0  0  0  0  0  0  0  0  0  0  0
   57.3026   31.2063   43.4003 H   0  0  0  0  0  0  0  0  0  0  0  0
   60.2955   35.3824   46.9315 H   0  0  0  0  0  0  0  0  0  0  0  0
   59.3210   35.1073   48.3579 H   0  0  0  0  0  0  0  0  0  0  0  0
  1  2  1  0
  2  3  1  0
  3  4  2  0
  4  5  1  0
  5  6  2  0
  6  7  1  0
  7  8  2  0
  8  9  1  0
  9 10  1  0
  6 11  1  0
 11 12  1  0
 12 13  1  0
 13 14  1  0
 14 15  1  0
 15 16  1  0
 16 17  1  0
 17 18  1  0
 18 19  1  0
 13 20  2  0
 20 21  1  0
 21 22  2  0
 21 23  1  0
 23 24  1  0
  8  3  1  0
 23 11  2  0
 24  5  1  0
 19 14  1  0
  1 25  1  0
  1 26  1  0
  1 27  1  0
  4 28  1  0
  7 29  1  0
 10 30  1  0
 10 31  1  0
 10 32  1  0
 12 33  1  0
 15 34  1  0
 15 35  1  0
 16 36  1  0
 16 37  1  0
 18 38  1  0
 18 39  1  0
 19 40  1  0
 19 41  1  0
 24 42  1  0
 24 43  1  0
M  END
>  <smiles>  (16) 
COc1cc2c(cc1OC)-c1[nH]c(N3CCOCC3)nc(=O)c1C2

>  <score_type>  (16) 
oracle

>  <origin>  (16) 
adg

>  <m_score__min__energy>  (16) 
-6.71

>  <m_primary>  (16) 
energy

$$$$
16:0
     RDKit          3D

 35 37  0  0  0  0  0  0  0  0999 V2000
   57.5940   32.9770   45.2170 C   0  0  0  0  0  0  0  0  0  0  0  0
   56.6440   31.9240   45.0990 O   0  0  0  0  0  0  0  0  0  0  0  0
   56.9560   30.6180   44.6930 C   0  0  0  0  0  0  0  0  0  0  0  0
   56.8300   30.1910   43.3570 C   0  0  0  0  0  0  0  0  0  0  0  0
   57.1550   28.8780   43.0050 C   0  0  0  0  0  0  0  0  0  0  0  0
   57.6060   27.9820   43.9760 C   0  0  0  0  0  0  0  0  0  0  0  0
   57.7340   28.3940   45.3090 C   0  0  0  0  0  0  0  0  0  0  0  0
   58.2900   27.2750   46.5480 S   0  0  0  0  0  0  0  0  0  0  0  0
   58.1470   27.9310   47.8940 O   0  0  0  0  0  0  0  0  0  0  0  0
   59.7370   26.9260   46.3380 O   0  0  0  0  0  0  0  0  0  0  0  0
   57.3300   25.7960   46.4680 C   0  0  0  0  0  0  0  0  0  0  0  0
   57.9080   24.5680   46.8140 C   0  0  0  0  0  0  0  0  0  0  0  0
   57.1580   23.3910   46.7700 C   0  0  0  0  0  0  0  0  0  0  0  0
   57.7680   22.1890   47.1200 O   0  0  0  0  0  0  0  0  0  0  0  0
   55.8070   23.4270   46.3790 C   0  0  0  0  0  0  0  0  0  0  0  0
   55.0350   22.2510   46.3300 C   0  0  0  0  0  0  0  0  0  0  0  0
   53.6950   22.3030   45.9420 C   0  0  0  0  0  0  0  0  0  0  0  0
   53.1090   23.5230   45.6010 C   0  0  0  0  0  0  0  0  0  0  0  0
   53.8600   24.7000   45.6440 C   0  0  0  0  0  0  0  0  0  0  0  0
   55.2130   24.6680   46.0310 C   0  0  0  0  0  0  0  0  0  0  0  0
   55.9810   25.8480   46.0800 C   0  0  0  0  0  0  0  0  0  0  0  0
   55.4060   27.0720   45.7440 O   0  0  0  0  0  0  0  0  0  0  0  0
   57.4100   29.7120   45.6600 C   0  0  0  0  0  0  0  0  0  0  0  0
   57.7812   33.1845   46.2809 H   0  0  0  0  0  0  0  0  0  0  0  0
   58.5344   32.6786   44.7306 H   0  0  0  0  0  0  0  0  0  0  0  0
   57.2007   33.8819   44.7306 H   0  0  0  0  0  0  0  0  0  0  0  0
   56.4747   30.8929   42.5882 H   0  0  0  0  0  0  0  0  0  0  0  0
   57.0551   28.5497   41.9599 H   0  0  0  0  0  0  0  0  0  0  0  0
   57.8615   26.9500   43.6938 H   0  0  0  0  0  0  0  0  0  0  0  0
   58.9629   24.5304   47.1234 H   0  0  0  0  0  0  0  0  0  0  0  0
   55.4899   21.2862   46.5988 H   0  0  0  0  0  0  0  0  0  0  0  0
   53.0989   21.3793   45.9049 H   0  0  0  0  0  0  0  0  0  0  0  0
   52.0523   23.5577   45.2974 H   0  0  0  0  0  0  0  0  0  0  0  0
   53.3912   25.6577   45.3738 H   0  0  0  0  0  0  0  0  0  0  0  0
   57.5134   30.0380   46.7055 H   0  0  0  0  0  0  0  0  0  0  0  0
  1  2  1  0
  2  3  1  0
  3  4  2  0
  4  5  1  0
  5  6  2  0
  6  7  1  0
  7  8  1  0
  8  9  2  0
  8 10  2  0
  8 11  1  0
 11 12  2  0
 12 13  1  0
 13 14  1  0
 13 15  2  0
 15 16  1  0
 16 17  2  0
 17 18  1  0
 18 19  2  0
 19 20  1  0
 20 21  2  0
 21 22  1  0
  7 23  2  0
 23  3  1  0
 21 11  1  0
 20 15  1  0
  1 24  1  0
  1 25  1  0
  1 26  1  0
  4 27  1  0
  5 28  1  0
  6 29  1  0
 12 30  1  0
 16 31  1  0
 17 32  1  0
 18 33  1  0
 19 34  1  0
 23 35  1  0
M  CHG  2  14  -1  22  -1
M  END
>  <UniqueID>  (17) 
16

>  <SMILES>  (17) 
COc1cccc(S(=O)(=O)c2cc([O-])c3ccccc3c2[O-])c1

>  <Energy>  (17) 
44.81834978265946

>  <Genealogy>  (17) 
COc1cccc(S(=O)(=O)c2cc([O-])c3ccccc3c2[O-])c1 (protonated)
COc1cccc(S(=O)(=O)c2cc([O-])c3ccccc3c2[O-])c1 (3D coordinates assigned)
COc1cccc(S(=O)(=O)c2cc([O-])c3ccccc3c2[O-])c1 (optimized conformer: 44.81834978265946 kcal/mol)

>  <smiles>  (17) 
COc1cccc(S(=O)(=O)c2cc(O)c3ccccc3c2O)c1

>  <score_type>  (17) 
oracle

>  <origin>  (17) 
adg

>  <m_score__min__energy>  (17) 
-12.34

>  <m_primary>  (17) 
energy

$$$$
17:0
     RDKit          3D

 50 53  0  0  0  0  0  0  0  0999 V2000
   56.4050   30.2320   43.5280 C   0  0  0  0  0  0  0  0  0  0  0  0
   57.2410   29.1620   44.1620 C   0  0  0  0  0  0  0  0  0  0  0  0
   57.7670   28.1240   43.3820 C   0  0  0  0  0  0  0  0  0  0  0  0
   58.5160   27.1080   43.9780 C   0  0  0  0  0  0  0  0  0  0  0  0
   58.7380   27.1040   45.3590 C   0  0  0  0  0  0  0  0  0  0  0  0
   59.7050   25.7930   46.0300 Cl  0  0  0  0  0  0  0  0  0  0  0  0
   58.1920   28.1330   46.1620 C   0  0  0  0  0  0  0  0  0  0  0  0
   58.3740   28.1770   47.6630 C   0  0  0  0  0  0  0  0  0  0  0  0
   59.7490   28.5980   48.0170 N   0  0  0  0  0  0  0  0  0  0  0  0
   60.3840   29.4520   46.9820 C   0  0  0  0  0  0  0  0  0  0  0  0
   59.7110   30.8350   46.8380 C   0  0  0  0  0  0  0  0  0  0  0  0
   59.3200   31.3760   48.1390 N   0  0  0  0  0  0  0  0  0  0  0  0
   59.3120   30.6560   49.2710 C   0  0  0  0  0  0  0  0  0  0  0  0
   58.8560   31.4370   50.3010 C   0  0  0  0  0  0  0  0  0  0  0  0
   58.5380   32.6520   49.8140 N   0  0  0  0  0  0  0  0  0  0  0  0
   58.8120   32.5870   48.4890 C   0  0  0  0  0  0  0  0  0  0  0  0
   58.5730   33.7950   47.5940 C   0  0  0  0  0  0  0  0  0  0  0  0
   57.5280   33.6100   46.4570 C   0  0  0  0  0  0  0  0  0  0  0  0
   58.0960   33.4560   45.0350 C   0  0  0  0  0  0  0  0  0  0  0  0
   59.2530   34.4140   44.7620 C   0  0  0  0  0  0  0  0  0  0  0  0
   60.3700   34.2070   45.7810 C   0  0  0  0  0  0  0  0  0  0  0  0
   59.8800   34.5240   47.1940 C   0  0  0  0  0  0  0  0  0  0  0  0
   59.8040   29.2450   49.3450 C   0  0  0  0  0  0  0  0  0  0  0  0
   57.4440   29.1530   45.5490 C   0  0  0  0  0  0  0  0  0  0  0  0
   55.9303   30.8395   44.3126 H   0  0  0  0  0  0  0  0  0  0  0  0
   57.0433   30.8739   42.9030 H   0  0  0  0  0  0  0  0  0  0  0  0
   55.6278   29.7680   42.9030 H   0  0  0  0  0  0  0  0  0  0  0  0
   57.5892   28.1096   42.2966 H   0  0  0  0  0  0  0  0  0  0  0  0
   58.9354   26.3034   43.3561 H   0  0  0  0  0  0  0  0  0  0  0  0
   57.6568   28.8923   48.0918 H   0  0  0  0  0  0  0  0  0  0  0  0
   58.2002   27.1690   48.0676 H   0  0  0  0  0  0  0  0  0  0  0  0
   61.4394   29.6032   47.2527 H   0  0  0  0  0  0  0  0  0  0  0  0
   60.2751   28.9333   46.0181 H   0  0  0  0  0  0  0  0  0  0  0  0
   60.4178   31.5289   46.3596 H   0  0  0  0  0  0  0  0  0  0  0  0
   58.8049   30.7170   46.2256 H   0  0  0  0  0  0  0  0  0  0  0  0
   58.7648   31.1235   51.3514 H   0  0  0  0  0  0  0  0  0  0  0  0
   58.0423   34.5082   48.2418 H   0  0  0  0  0  0  0  0  0  0  0  0
   56.9404   32.7082   46.6838 H   0  0  0  0  0  0  0  0  0  0  0  0
   56.9399   34.5395   46.4416 H   0  0  0  0  0  0  0  0  0  0  0  0
   58.4548   32.4239   44.9081 H   0  0  0  0  0  0  0  0  0  0  0  0
   57.2901   33.6935   44.3250 H   0  0  0  0  0  0  0  0  0  0  0  0
   59.6459   34.2284   43.7515 H   0  0  0  0  0  0  0  0  0  0  0  0
   58.8855   35.4477   44.8420 H   0  0  0  0  0  0  0  0  0  0  0  0
   60.7048   33.1599   45.7416 H   0  0  0  0  0  0  0  0  0  0  0  0
   61.2016   34.8839   45.5356 H   0  0  0  0  0  0  0  0  0  0  0  0
   60.6677   34.2339   47.9049 H   0  0  0  0  0  0  0  0  0  0  0  0
   59.6593   35.6014   47.2166 H   0  0  0  0  0  0  0  0  0  0  0  0
   60.8440   29.2443   49.7034 H   0  0  0  0  0  0  0  0  0  0  0  0
   59.1594   28.6833   50.0371 H   0  0  0  0  0  0  0  0  0  0  0  0
   57.0122   29.9549   46.1659 H   0  0  0  0  0  0  0  0  0  0  0  0
  1  2  1  0
  2  3  2  0
  3  4  1  0
  4  5  2  0
  5  6  1  0
  5  7  1  0
  7  8  1  0
  8  9  1  0
  9 10  1  0
 10 11  1  0
 11 12  1  0
 12 13  1  0
 13 14  2  0
 14 15  1  0
 15 16  2  0
 16 17  1  0
 17 18  1  0
 18 19  1  0
 19 20  1  0
 20 21  1  0
 21 22  1  0
 13 23  1  0
  7 24  2  0
 24  2  1  0
 23  9  1  0
 16 12  1  0
 22 17  1  0
  1 25  1  0
  1 26  1  0
  1 27  1  0
  3 28  1  0
  4 29  1  0
  8 30  1  0
  8 31  1  0
 10 32  1  0
 10 33  1  0
 11 34  1  0
 11 35  1  0
 14 36  1  0
 17 37  1  0
 18 38  1  0
 18 39  1  0
 19 40  1  0
 19 41  1  0
 20 42  1  0
 20 43  1  0
 21 44  1  0
 21 45  1  0
 22 46  1  0
 22 47  1  0
 23 48  1  0
 23 49  1  0
 24 50  1  0
M  END
>  <UniqueID>  (18) 
17

>  <SMILES>  (18) 
Cc1ccc(Cl)c(CN2CCn3c(cnc3C3CCCCC3)C2)c1

>  <Energy>  (18) 
93.93930844201341

>  <Genealogy>  (18) 
Cc1ccc(Cl)c(CN2CCn3c(cnc3C3CCCCC3)C2)c1 (3D coordinates assigned)
Cc1ccc(Cl)c(CN2CCn3c(cnc3C3CCCCC3)C2)c1 (nonaromatic ring conformer: 93.93930844201341 kcal/mol)

>  <smiles>  (18) 
Cc1ccc(Cl)c(CN2CCn3c(cnc3C3CCCCC3)C2)c1

>  <score_type>  (18) 
oracle

>  <origin>  (18) 
adg

>  <m_score__min__energy>  (18) 
-8.3900000000000006

>  <m_primary>  (18) 
energy

$$$$
18:0
     RDKit          3D

 37 38  0  0  0  0  0  0  0  0999 V2000
   59.4430   24.6897   47.1217 H   0  0  0  0  0  0  0  0  0  0  0  0
   58.8900   25.5530   46.7230 C   0  0  0  0  0  0  0  0  0  0  0  0
   57.5170   25.4600   46.5110 C   0  0  0  0  0  0  0  0  0  0  0  0
   56.9937   24.5189   46.7355 H   0  0  0  0  0  0  0  0  0  0  0  0
   56.7920   26.5590   46.0120 C   0  0  0  0  0  0  0  0  0  0  0  0
   55.4070   26.4740   45.7930 O   0  0  0  0  0  0  0  0  0  0  0  0
   54.6860   25.2600   45.6020 C   0  0  0  0  0  0  0  0  0  0  0  0
   54.4295   24.8281   46.5806 H   0  0  0  0  0  0  0  0  0  0  0  0
   53.7637   25.4660   45.0390 H   0  0  0  0  0  0  0  0  0  0  0  0
   55.3082   24.5487   45.0390 H   0  0  0  0  0  0  0  0  0  0  0  0
   57.4740   27.7690   45.7220 C   0  0  0  0  0  0  0  0  0  0  0  0
   58.8710   27.8450   45.9240 C   0  0  0  0  0  0  0  0  0  0  0  0
   59.5650   26.7350   46.4320 C   0  0  0  0  0  0  0  0  0  0  0  0
   60.6500   26.8001   46.6012 H   0  0  0  0  0  0  0  0  0  0  0  0
   59.6040   29.0900   45.6020 C   0  0  0  0  0  0  0  0  0  0  0  0
   60.7890   29.2490   46.0070 O   0  0  0  0  0  0  0  0  0  0  0  0
   58.9940   30.1410   44.7240 C   0  0  0  0  0  0  0  0  0  0  0  0
   59.2579   29.9242   43.6784 H   0  0  0  0  0  0  0  0  0  0  0  0
   59.3880   31.1162   45.0460 H   0  0  0  0  0  0  0  0  0  0  0  0
   57.4870   30.1910   44.8440 C   0  0  0  0  0  0  0  0  0  0  0  0
   56.7980   31.2470   44.5070 N   0  0  0  0  0  0  0  0  0  0  0  0
   57.0240   32.6350   44.9150 C   0  0  0  0  0  0  0  0  0  0  0  0
   57.2031   32.6630   46.0000 H   0  0  0  0  0  0  0  0  0  0  0  0
   56.1321   33.2207   44.6475 H   0  0  0  0  0  0  0  0  0  0  0  0
   58.2300   33.2470   44.1970 C   0  0  0  0  0  0  0  0  0  0  0  0
   57.9054   33.6473   43.2252 H   0  0  0  0  0  0  0  0  0  0  0  0
   58.9894   32.4638   44.0559 H   0  0  0  0  0  0  0  0  0  0  0  0
   58.9640   34.6020   45.1890 S   0  0  0  0  0  0  0  0  0  0  0  0
   59.7420   33.5560   46.4720 C   0  0  0  0  0  0  0  0  0  0  0  0
   60.7783   33.8892   46.6300 H   0  0  0  0  0  0  0  0  0  0  0  0
   59.7251   32.5096   46.1333 H   0  0  0  0  0  0  0  0  0  0  0  0
   58.9780   33.6580   47.7860 C   0  0  0  0  0  0  0  0  0  0  0  0
   59.6808   33.5642   48.6270 H   0  0  0  0  0  0  0  0  0  0  0  0
   58.4696   34.6320   47.8399 H   0  0  0  0  0  0  0  0  0  0  0  0
   58.2319   32.8515   47.8399 H   0  0  0  0  0  0  0  0  0  0  0  0
   56.7480   28.9770   45.2420 C   0  0  0  0  0  0  0  0  0  0  0  0
   55.4880   28.9870   45.1840 O   0  0  0  0  0  0  0  0  0  0  0  0
  1  2  1  0
  2  3  2  0
  3  4  1  0
  3  5  1  0
  5  6  1  0
  6  7  1  0
  7  8  1  0
  7  9  1  0
  7 10  1  0
  5 11  2  0
 11 12  1  0
 12 13  2  0
 13 14  1  0
 12 15  1  0
 15 16  2  0
 15 17  1  0
 17 18  1  0
 17 19  1  0
 17 20  1  0
 20 21  2  0
 21 22  1  0
 22 23  1  0
 22 24  1  0
 22 25  1  0
 25 26  1  0
 25 27  1  0
 25 28  1  0
 28 29  1  0
 29 30  1  0
 29 31  1  0
 29 32  1  0
 32 33  1  0
 32 34  1  0
 32 35  1  0
 20 36  1  0
 36 37  2  0
 13  2  1  0
 36 11  1  0
M  END
>  <UniqueID>  (19) 
18

>  <SMILES>  (19) 
CCSCC/N=C1\CC(=O)c2cccc(OC)c2C1=O

>  <Energy>  (19) 
35.23929918509787

>  <Genealogy>  (19) 
CCSCC/N=C1\CC(=O)c2cccc(OC)c2C1=O (cis-trans isomerization)
CCSCC/N=C1\CC(=O)c2cccc(OC)c2C1=O (3D coordinates assigned)
CCSCC/N=C1\CC(=O)c2cccc(OC)c2C1=O (nonaromatic ring conformer: 35.23929918509787 kcal/mol)

>  <smiles>  (19) 
CCSCCN=C1CC(=O)c2cccc(OC)c2C1=O

>  <score_type>  (19) 
oracle

>  <origin>  (19) 
adg

>  <m_score__min__energy>  (19) 
-7.5599999999999996

>  <m_primary>  (19) 
energy

$$$$
19:0
     RDKit          3D

 22 21  0  0  0  0  0  0  0  0999 V2000
   59.1320   29.6350   44.8710 C   0  0  0  0  0  0  0  0  0  0  0  0
   57.6810   29.4700   45.3480 C   0  0  0  0  0  0  0  0  0  0  0  0
   56.7850   30.5710   44.9220 N   0  0  0  0  0  0  0  0  0  0  0  0
   55.7120   30.1010   44.0180 C   0  0  0  0  0  0  0  0  0  0  0  0
   56.2710   29.7280   42.6470 C   0  0  0  0  0  0  0  0  0  0  0  0
   57.5260   31.7460   44.4000 C   0  0  0  0  0  0  0  0  0  0  0  0
   57.2230   32.9800   45.2480 C   0  0  0  0  0  0  0  0  0  0  0  0
   58.7240   34.2080   45.2560 Br  0  0  0  0  0  0  0  0  0  0  0  0
   59.7983   29.7108   45.7430 H   0  0  0  0  0  0  0  0  0  0  0  0
   59.4198   28.7638   44.2642 H   0  0  0  0  0  0  0  0  0  0  0  0
   59.2169   30.5486   44.2642 H   0  0  0  0  0  0  0  0  0  0  0  0
   57.2876   28.5258   44.9433 H   0  0  0  0  0  0  0  0  0  0  0  0
   57.7011   29.4792   46.4478 H   0  0  0  0  0  0  0  0  0  0  0  0
   55.2300   29.2174   44.4618 H   0  0  0  0  0  0  0  0  0  0  0  0
   54.9837   30.9150   43.8882 H   0  0  0  0  0  0  0  0  0  0  0  0
   57.1799   29.1215   42.7742 H   0  0  0  0  0  0  0  0  0  0  0  0
   55.5194   29.1498   42.0895 H   0  0  0  0  0  0  0  0  0  0  0  0
   56.5164   30.6440   42.0895 H   0  0  0  0  0  0  0  0  0  0  0  0
   58.6058   31.5386   44.4330 H   0  0  0  0  0  0  0  0  0  0  0  0
   57.2118   31.9369   43.3633 H   0  0  0  0  0  0  0  0  0  0  0  0
   56.3419   33.4925   44.8345 H   0  0  0  0  0  0  0  0  0  0  0  0
   57.0320   32.6552   46.2815 H   0  0  0  0  0  0  0  0  0  0  0  0
  1  2  1  0
  2  3  1  0
  3  4  1  0
  4  5  1  0
  3  6  1  0
  6  7  1  0
  7  8  1  0
  1  9  1  0
  1 10  1  0
  1 11  1  0
  2 12  1  0
  2 13  1  0
  4 14  1  0
  4 15  1  0
  5 16  1  0
  5 17  1  0
  5 18  1  0
  6 19  1  0
  6 20  1  0
  7 21  1  0
  7 22  1  0
M  END
>  <UniqueID>  (20) 
19

>  <SMILES>  (20) 
CCN(CC)CCBr

>  <Energy>  (20) 
16.621718903445085

>  <Genealogy>  (20) 
CCN(CC)CCBr (3D coordinates assigned)
CCN(CC)CCBr (optimized conformer: 16.621718903445085 kcal/mol)

>  <smiles>  (20) 
CCN(CC)CCBr

>  <score_type>  (20) 
oracle

>  <origin>  (20) 
adg

>  <m_score__min__energy>  (20) 
-3.8700000000000001

>  <m_primary>  (20) 
energy

$$$$
20:0
     RDKit          3D

 35 35  0  0  0  0  0  0  0  0999 V2000
   57.7590   21.5060   43.6800 C   0  0  0  0  0  0  0  0  0  0  0  0
   56.5970   22.2460   43.0250 C   0  0  0  0  0  0  0  0  0  0  0  0
   55.5720   22.5900   44.0380 N   0  0  0  0  0  0  0  0  0  0  0  0
   55.9530   22.0670   45.3620 C   0  0  0  0  0  0  0  0  0  0  0  0
   55.3270   24.0500   44.1030 C   0  0  0  0  0  0  0  0  0  0  0  0
   54.2840   24.3660   45.1770 C   0  0  0  0  0  0  0  0  0  0  0  0
   54.6220   25.6030   45.8700 N   0  0  0  0  0  0  0  0  0  0  0  0
   55.9420   25.9030   46.3290 C   0  0  0  0  0  0  0  0  0  0  0  0
   56.4320   25.2770   47.3070 O   0  0  0  0  0  0  0  0  0  0  0  0
   56.7260   26.9470   45.6600 C   0  0  0  0  0  0  0  0  0  0  0  0
   57.9630   26.7820   45.4830 O   0  0  0  0  0  0  0  0  0  0  0  0
   56.0900   28.1670   45.2610 N   0  0  0  0  0  0  0  0  0  0  0  0
   56.7340   29.4410   45.1300 C   0  0  0  0  0  0  0  0  0  0  0  0
   57.7160   29.7960   46.0630 C   0  0  0  0  0  0  0  0  0  0  0  0
   58.3580   31.0350   45.9790 C   0  0  0  0  0  0  0  0  0  0  0  0
   58.0110   31.9380   44.9700 C   0  0  0  0  0  0  0  0  0  0  0  0
   58.8870   33.6320   44.8600 Br  0  0  0  0  0  0  0  0  0  0  0  0
   57.0090   31.6060   44.0530 C   0  0  0  0  0  0  0  0  0  0  0  0
   56.3630   30.3670   44.1320 C   0  0  0  0  0  0  0  0  0  0  0  0
   55.3440   30.1050   43.2770 F   0  0  0  0  0  0  0  0  0  0  0  0
   57.6627   21.5673   44.7741 H   0  0  0  0  0  0  0  0  0  0  0  0
   57.7437   20.4510   43.3691 H   0  0  0  0  0  0  0  0  0  0  0  0
   58.7086   21.9661   43.3691 H   0  0  0  0  0  0  0  0  0  0  0  0
   56.9711   23.1694   42.5588 H   0  0  0  0  0  0  0  0  0  0  0  0
   56.1431   21.5967   42.2619 H   0  0  0  0  0  0  0  0  0  0  0  0
   55.4992   22.6900   46.1468 H   0  0  0  0  0  0  0  0  0  0  0  0
   55.5962   21.0315   45.4637 H   0  0  0  0  0  0  0  0  0  0  0  0
   57.0481   22.0892   45.4637 H   0  0  0  0  0  0  0  0  0  0  0  0
   56.2675   24.5653   44.3478 H   0  0  0  0  0  0  0  0  0  0  0  0
   54.9519   24.3937   43.1277 H   0  0  0  0  0  0  0  0  0  0  0  0
   53.2976   24.4750   44.7025 H   0  0  0  0  0  0  0  0  0  0  0  0
   54.2653   23.5434   45.9071 H   0  0  0  0  0  0  0  0  0  0  0  0
   57.9840   29.0952   46.8674 H   0  0  0  0  0  0  0  0  0  0  0  0
   59.1377   31.2998   46.7083 H   0  0  0  0  0  0  0  0  0  0  0  0
   56.7274   32.3215   43.2664 H   0  0  0  0  0  0  0  0  0  0  0  0
  1  2  1  0
  2  3  1  0
  3  4  1  0
  3  5  1  0
  5  6  1  0
  6  7  1  0
  7  8  1  0
  8  9  2  0
  8 10  1  0
 10 11  2  0
 10 12  1  0
 12 13  1  0
 13 14  2  0
 14 15  1  0
 15 16  2  0
 16 17  1  0
 16 18  1  0
 18 19  2  0
 19 20  1  0
 19 13  1  0
  1 21  1  0
  1 22  1  0
  1 23  1  0
  2 24  1  0
  2 25  1  0
  4 26  1  0
  4 27  1  0
  4 28  1  0
  5 29  1  0
  5 30  1  0
  6 31  1  0
  6 32  1  0
 14 33  1  0
 15 34  1  0
 18 35  1  0
M  CHG  2   7  -1  12  -1
M  END
>  <UniqueID>  (21) 
20

>  <SMILES>  (21) 
CCN(C)CC[N-]C(=O)C(=O)[N-]c1ccc(Br)cc1F

>  <Energy>  (21) 
32.944213252151485

>  <Genealogy>  (21) 
CCN(C)CC[N-]C(=O)C(=O)[N-]c1ccc(Br)cc1F (protonated)
CCN(C)CC[N-]C(=O)C(=O)[N-]c1ccc(Br)cc1F (3D coordinates assigned)
CCN(C)CC[N-]C(=O)C(=O)[N-]c1ccc(Br)cc1F (optimized conformer: 32.944213252151485 kcal/mol)

>  <smiles>  (21) 
CCN(C)CCNC(=O)C(=O)Nc1ccc(Br)cc1F

>  <score_type>  (21) 
oracle

>  <origin>  (21) 
adg

>  <m_score__min__energy>  (21) 
-9.8000000000000007

>  <m_primary>  (21) 
energy

$$$$
21:0
     RDKit          3D

 58 61  0  0  0  0  0  0  0  0999 V2000
   62.2870   31.1750   47.1570 C   0  0  0  0  0  0  0  0  0  0  0  0
   61.2270   30.4100   47.7220 O   0  0  0  0  0  0  0  0  0  0  0  0
   60.7070   29.2300   47.1630 C   0  0  0  0  0  0  0  0  0  0  0  0
   60.7230   29.0020   45.7720 C   0  0  0  0  0  0  0  0  0  0  0  0
   60.2020   27.8210   45.2420 C   0  0  0  0  0  0  0  0  0  0  0  0
   59.6620   26.8530   46.0870 C   0  0  0  0  0  0  0  0  0  0  0  0
   59.6390   27.0590   47.4670 C   0  0  0  0  0  0  0  0  0  0  0  0
   59.0970   26.1030   48.2640 F   0  0  0  0  0  0  0  0  0  0  0  0
   60.1570   28.2500   48.0180 C   0  0  0  0  0  0  0  0  0  0  0  0
   60.1170   28.4740   49.5200 C   0  0  0  0  0  0  0  0  0  0  0  0
   59.8230   29.8860   49.8920 N   0  0  1  0  0  0  0  0  0  0  0  0
   58.5960   29.9530   50.7320 C   0  0  0  0  0  0  0  0  0  0  0  0
   57.8240   31.2780   50.6100 C   0  0  0  0  0  0  0  0  0  0  0  0
   58.6300   32.5590   50.8790 C   0  0  0  0  0  0  0  0  0  0  0  0
   59.8250   32.7210   50.0210 N   0  0  0  0  0  0  0  0  0  0  0  0
   60.0360   34.1240   49.6100 C   0  0  0  0  0  0  0  0  0  0  0  0
   60.7030   34.1840   48.2630 C   0  0  0  0  0  0  0  0  0  0  0  0
   61.9600   34.2030   48.2160 O   0  0  0  0  0  0  0  0  0  0  0  0
   59.9220   34.2160   47.0510 N   0  0  0  0  0  0  0  0  0  0  0  0
   59.8680   35.3640   46.1400 C   0  0  0  0  0  0  0  0  0  0  0  0
   58.9760   34.9400   44.9520 C   0  0  0  0  0  0  0  0  0  0  0  0
   58.5780   33.5520   45.3000 C   0  0  0  0  0  0  0  0  0  0  0  0
   57.7560   32.6960   44.5650 C   0  0  0  0  0  0  0  0  0  0  0  0
   57.4950   31.4150   45.0750 C   0  0  0  0  0  0  0  0  0  0  0  0
   58.0520   31.0170   46.3040 C   0  0  0  0  0  0  0  0  0  0  0  0
   58.8730   31.8960   47.0290 C   0  0  0  0  0  0  0  0  0  0  0  0
   59.1320   33.1680   46.4950 C   0  0  0  0  0  0  0  0  0  0  0  0
   61.0770   32.0610   50.4830 C   0  0  0  0  0  0  0  0  0  0  0  0
   61.0400   30.5130   50.5050 C   0  0  0  0  0  0  0  0  0  0  0  0
   62.8936   31.6128   47.9635 H   0  0  0  0  0  0  0  0  0  0  0  0
   62.9187   30.5233   46.5355 H   0  0  0  0  0  0  0  0  0  0  0  0
   61.8675   31.9799   46.5355 H   0  0  0  0  0  0  0  0  0  0  0  0
   61.1494   29.7608   45.0993 H   0  0  0  0  0  0  0  0  0  0  0  0
   60.2175   27.6536   44.1549 H   0  0  0  0  0  0  0  0  0  0  0  0
   59.2526   25.9235   45.6647 H   0  0  0  0  0  0  0  0  0  0  0  0
   59.3364   27.8289   49.9496 H   0  0  0  0  0  0  0  0  0  0  0  0
   61.1147   28.2315   49.9147 H   0  0  0  0  0  0  0  0  0  0  0  0
   59.6220   30.4090   49.0070 H   0  0  0  0  0  0  0  0  0  0  0  0
   57.9262   29.1338   50.4314 H   0  0  0  0  0  0  0  0  0  0  0  0
   58.9231   29.8712   51.7791 H   0  0  0  0  0  0  0  0  0  0  0  0
   57.4247   31.3411   49.5870 H   0  0  0  0  0  0  0  0  0  0  0  0
   57.0539   31.2439   51.3947 H   0  0  0  0  0  0  0  0  0  0  0  0
   57.9687   33.4225   50.7144 H   0  0  0  0  0  0  0  0  0  0  0  0
   58.9943   32.4890   51.9146 H   0  0  0  0  0  0  0  0  0  0  0  0
   59.0636   34.6353   49.5555 H   0  0  0  0  0  0  0  0  0  0  0  0
   60.6833   34.6178   50.3497 H   0  0  0  0  0  0  0  0  0  0  0  0
   59.4313   36.2346   46.6513 H   0  0  0  0  0  0  0  0  0  0  0  0
   60.8744   35.6493   45.7997 H   0  0  0  0  0  0  0  0  0  0  0  0
   58.0948   35.5931   44.8684 H   0  0  0  0  0  0  0  0  0  0  0  0
   59.4903   35.0094   43.9821 H   0  0  0  0  0  0  0  0  0  0  0  0
   57.3223   33.0186   43.6069 H   0  0  0  0  0  0  0  0  0  0  0  0
   56.8535   30.7206   44.5126 H   0  0  0  0  0  0  0  0  0  0  0  0
   57.8433   30.0119   46.6992 H   0  0  0  0  0  0  0  0  0  0  0  0
   59.3040   31.5940   47.9950 H   0  0  0  0  0  0  0  0  0  0  0  0
   61.8922   32.3719   49.8131 H   0  0  0  0  0  0  0  0  0  0  0  0
   61.2197   32.3766   51.5270 H   0  0  0  0  0  0  0  0  0  0  0  0
   61.9216   30.1454   49.9594 H   0  0  0  0  0  0  0  0  0  0  0  0
   61.0238   30.2270   51.5670 H   0  0  0  0  0  0  0  0  0  0  0  0
  1  2  1  0
  2  3  1  0
  3  4  2  0
  4  5  1  0
  5  6  2  0
  6  7  1  0
  7  8  1  0
  7  9  2  0
  9 10  1  0
 10 11  1  0
 11 12  1  0
 12 13  1  0
 13 14  1  0
 14 15  1  0
 15 16  1  0
 16 17  1  0
 17 18  2  0
 17 19  1  0
 19 20  1  0
 20 21  1  0
 21 22  1  0
 22 23  2  0
 23 24  1  0
 24 25  2  0
 25 26  1  0
 26 27  2  0
 15 28  1  0
 28 29  1  0
  9  3  1  0
 29 11  1  0
 27 19  1  0
 27 22  1  0
  1 30  1  0
  1 31  1  0
  1 32  1  0
  4 33  1  0
  5 34  1  0
  6 35  1  0
 10 36  1  0
 10 37  1  0
 11 38  1  6
 12 39  1  0
 12 40  1  0
 13 41  1  0
 13 42  1  0
 14 43  1  0
 14 44  1  0
 16 45  1  0
 16 46  1  0
 20 47  1  0
 20 48  1  0
 21 49  1  0
 21 50  1  0
 23 51  1  0
 24 52  1  0
 25 53  1  0
 26 54  1  0
 28 55  1  0
 28 56  1  0
 29 57  1  0
 29 58  1  0
M  CHG  1  11   1
M  END
>  <UniqueID>  (22) 
21

>  <SMILES>  (22) 
COc1cccc(F)c1C[N@H+]1CCCN(CC(=O)N2CCc3ccccc32)CC1

>  <Energy>  (22) 
101.16036199078424

>  <Genealogy>  (22) 
COc1cccc(F)c1C[NH+]1CCCN(CC(=O)N2CCc3ccccc32)CC1 (protonated)
COc1cccc(F)c1C[N@H+]1CCCN(CC(=O)N2CCc3ccccc32)CC1 (chirality)
COc1cccc(F)c1C[N@H+]1CCCN(CC(=O)N2CCc3ccccc32)CC1 (3D coordinates assigned)
COc1cccc(F)c1C[N@H+]1CCCN(CC(=O)N2CCc3ccccc32)CC1 (nonaromatic ring conformer: 101.16036199078424 kcal/mol)

>  <smiles>  (22) 
COc1cccc(F)c1CN1CCCN(CC(=O)N2CCc3ccccc32)CC1

>  <score_type>  (22) 
oracle

>  <origin>  (22) 
adg

>  <m_score__min__energy>  (22) 
-5.29

>  <m_primary>  (22) 
energy

$$$$
22:0
     RDKit          3D

 38 39  0  0  0  0  0  0  0  0999 V2000
   57.8220   34.2240   44.9610 C   0  0  0  0  0  0  0  0  0  0  0  0
   59.2810   34.5810   45.2290 C   0  0  0  0  0  0  0  0  0  0  0  0
   59.8880   33.5950   46.1540 N   0  0  0  0  0  0  0  0  0  0  0  0
   61.3160   33.9030   46.4000 C   0  0  0  0  0  0  0  0  0  0  0  0
   61.6210   33.8390   47.8940 C   0  0  0  0  0  0  0  0  0  0  0  0
   59.1300   33.5170   47.4240 C   0  0  0  0  0  0  0  0  0  0  0  0
   58.9080   32.0460   47.8170 C   0  0  0  0  0  0  0  0  0  0  0  0
   59.6780   31.1190   46.9720 N   0  0  0  0  0  0  0  0  0  0  0  0
   58.9100   29.9440   46.6340 C   0  0  0  0  0  0  0  0  0  0  0  0
   59.2570   28.6680   47.1360 C   0  0  0  0  0  0  0  0  0  0  0  0
   58.4800   27.5310   46.8130 C   0  0  0  0  0  0  0  0  0  0  0  0
   57.3380   27.6430   45.9840 C   0  0  0  0  0  0  0  0  0  0  0  0
   56.5380   26.4940   45.6510 N   0  0  0  0  0  0  0  0  0  0  0  0
   57.0380   25.5360   45.0260 O   0  0  0  0  0  0  0  0  0  0  0  0
   55.2120   26.4300   46.0120 O   0  0  0  0  0  0  0  0  0  0  0  0
   57.0300   28.9240   45.5100 C   0  0  0  0  0  0  0  0  0  0  0  0
   56.0190   29.3210   44.7210 N   0  0  0  0  0  0  0  0  0  0  0  0
   56.1920   30.6120   44.5860 O   0  0  0  0  0  0  0  0  0  0  0  0
   57.2320   31.0870   45.2250 N   0  0  0  0  0  0  0  0  0  0  0  0
   57.7770   30.0150   45.8200 C   0  0  0  0  0  0  0  0  0  0  0  0
   57.2944   34.0949   45.9176 H   0  0  0  0  0  0  0  0  0  0  0  0
   57.3464   35.0323   44.3861 H   0  0  0  0  0  0  0  0  0  0  0  0
   57.7733   33.2874   44.3861 H   0  0  0  0  0  0  0  0  0  0  0  0
   59.8361   34.5778   44.2793 H   0  0  0  0  0  0  0  0  0  0  0  0
   59.3275   35.5795   45.6881 H   0  0  0  0  0  0  0  0  0  0  0  0
   61.9420   33.1701   45.8700 H   0  0  0  0  0  0  0  0  0  0  0  0
   61.5319   34.9174   46.0335 H   0  0  0  0  0  0  0  0  0  0  0  0
   60.7007   34.0321   48.4647 H   0  0  0  0  0  0  0  0  0  0  0  0
   62.0066   32.8404   48.1471 H   0  0  0  0  0  0  0  0  0  0  0  0
   62.3755   34.5984   48.1471 H   0  0  0  0  0  0  0  0  0  0  0  0
   59.6974   34.0243   48.2182 H   0  0  0  0  0  0  0  0  0  0  0  0
   58.1535   34.0058   47.2914 H   0  0  0  0  0  0  0  0  0  0  0  0
   59.2165   31.9093   48.8640 H   0  0  0  0  0  0  0  0  0  0  0  0
   57.8406   31.8187   47.6793 H   0  0  0  0  0  0  0  0  0  0  0  0
   60.5690   30.8510   47.4520 H   0  0  0  0  0  0  0  0  0  0  0  0
   59.9430   31.6130   46.0880 H   0  0  0  0  0  0  0  0  0  0  0  0
   60.1394   28.5588   47.7837 H   0  0  0  0  0  0  0  0  0  0  0  0
   58.7670   26.5466   47.2113 H   0  0  0  0  0  0  0  0  0  0  0  0
  1  2  1  0
  2  3  1  0
  3  4  1  0
  4  5  1  0
  3  6  1  0
  6  7  1  0
  7  8  1  0
  8  9  1  0
  9 10  2  0
 10 11  1  0
 11 12  2  0
 12 13  1  0
 13 14  2  0
 13 15  1  0
 12 16  1  0
 16 17  2  0
 17 18  1  0
 18 19  1  0
 19 20  2  0
 20  9  1  0
 20 16  1  0
  1 21  1  0
  1 22  1  0
  1 23  1  0
  2 24  1  0
  2 25  1  0
  4 26  1  0
  4 27  1  0
  5 28  1  0
  5 29  1  0
  5 30  1  0
  6 31  1  0
  6 32  1  0
  7 33  1  0
  7 34  1  0
  8 35  1  0
  8 36  1  0
 10 37  1  0
 11 38  1  0
M  CHG  3   8   1  13   1  15  -1
M  END
>  <UniqueID>  (23) 
22

>  <SMILES>  (23) 
CCN(CC)CC[NH2+]c1ccc([N+](=O)[O-])c2nonc12

>  <Energy>  (23) 
80.43502286222386

>  <Genealogy>  (23) 
CCN(CC)CC[NH2+]c1ccc([N+](=O)[O-])c2nonc12 (protonated)
CCN(CC)CC[NH2+]c1ccc([N+](=O)[O-])c2nonc12 (3D coordinates assigned)
CCN(CC)CC[NH2+]c1ccc([N+](=O)[O-])c2nonc12 (optimized conformer: 80.43502286222386 kcal/mol)

>  <smiles>  (23) 
CCN(CC)CCNc1ccc([N+](=O)[O-])c2nonc12

>  <score_type>  (23) 
oracle

>  <origin>  (23) 
adg

>  <m_score__min__energy>  (23) 
-5.8700000000000001

>  <m_primary>  (23) 
energy

$$$$
23:0
     RDKit          3D

 44 45  0  0  0  0  0  0  0  0999 V2000
   56.6580   26.3820   46.2880 C   0  0  0  0  0  0  0  0  0  0  0  0
   57.8270   26.6790   46.2770 C   0  0  0  0  0  0  0  0  0  0  0  0
   59.2490   27.0350   46.2450 C   0  0  0  0  0  0  0  0  0  0  0  0
   59.4720   28.5220   45.9270 C   0  0  0  0  0  0  0  0  0  0  0  0
   59.2150   28.8890   44.4500 C   0  0  0  0  0  0  0  0  0  0  0  0
   57.7480   29.2050   44.1150 C   0  0  0  0  0  0  0  0  0  0  0  0
   57.3970   30.9680   44.0710 S   0  0  0  0  0  0  0  0  0  0  0  0
   55.9800   31.2190   44.5090 O   0  0  0  0  0  0  0  0  0  0  0  0
   57.5550   31.4580   42.6570 O   0  0  0  0  0  0  0  0  0  0  0  0
   58.5030   31.8260   45.1180 N   0  0  0  0  0  0  0  0  0  0  0  0
   58.4980   33.2660   44.7980 C   0  0  0  0  0  0  0  0  0  0  0  0
   59.6280   33.9820   45.5530 C   0  0  0  0  0  0  0  0  0  0  0  0
   59.8660   33.3460   46.8540 N   0  0  0  0  0  0  0  0  0  0  0  0
   61.1430   33.4860   47.5080 C   0  0  0  0  0  0  0  0  0  0  0  0
   61.2160   33.9330   48.8390 C   0  0  0  0  0  0  0  0  0  0  0  0
   62.4540   34.0520   49.4780 C   0  0  0  0  0  0  0  0  0  0  0  0
   63.6290   33.7230   48.7960 C   0  0  0  0  0  0  0  0  0  0  0  0
   64.8280   33.8380   49.4180 F   0  0  0  0  0  0  0  0  0  0  0  0
   63.5660   33.2690   47.4760 C   0  0  0  0  0  0  0  0  0  0  0  0
   62.3300   33.1470   46.8340 C   0  0  0  0  0  0  0  0  0  0  0  0
   58.7600   32.6280   47.4970 C   0  0  0  0  0  0  0  0  0  0  0  0
   58.1480   31.5850   46.5370 C   0  0  0  0  0  0  0  0  0  0  0  0
   55.5919   26.1111   46.2980 H   0  0  0  0  0  0  0  0  0  0  0  0
   59.6911   26.8134   47.2275 H   0  0  0  0  0  0  0  0  0  0  0  0
   59.7251   26.4457   45.4475 H   0  0  0  0  0  0  0  0  0  0  0  0
   58.7925   29.1166   46.5553 H   0  0  0  0  0  0  0  0  0  0  0  0
   60.5312   28.7377   46.1308 H   0  0  0  0  0  0  0  0  0  0  0  0
   59.8210   29.7740   44.2059 H   0  0  0  0  0  0  0  0  0  0  0  0
   59.4865   28.0033   43.8569 H   0  0  0  0  0  0  0  0  0  0  0  0
   57.5143   28.7770   43.1290 H   0  0  0  0  0  0  0  0  0  0  0  0
   57.1286   28.7676   44.9119 H   0  0  0  0  0  0  0  0  0  0  0  0
   59.4610   31.4420   44.9420 H   0  0  0  0  0  0  0  0  0  0  0  0
   58.6437   33.3981   43.7157 H   0  0  0  0  0  0  0  0  0  0  0  0
   57.5333   33.6977   45.1029 H   0  0  0  0  0  0  0  0  0  0  0  0
   60.5493   33.9347   44.9539 H   0  0  0  0  0  0  0  0  0  0  0  0
   59.3346   35.0290   45.7193 H   0  0  0  0  0  0  0  0  0  0  0  0
   60.2940   34.1906   49.3807 H   0  0  0  0  0  0  0  0  0  0  0  0
   62.5034   34.4049   50.5187 H   0  0  0  0  0  0  0  0  0  0  0  0
   64.4907   33.0071   46.9409 H   0  0  0  0  0  0  0  0  0  0  0  0
   62.2857   32.7841   45.7965 H   0  0  0  0  0  0  0  0  0  0  0  0
   59.1370   32.1145   48.3938 H   0  0  0  0  0  0  0  0  0  0  0  0
   57.9805   33.3547   47.7695 H   0  0  0  0  0  0  0  0  0  0  0  0
   58.5117   30.5876   46.8249 H   0  0  0  0  0  0  0  0  0  0  0  0
   57.0539   31.6627   46.6205 H   0  0  0  0  0  0  0  0  0  0  0  0
  1  2  3  0
  2  3  1  0
  3  4  1  0
  4  5  1  0
  5  6  1  0
  6  7  1  0
  7  8  2  0
  7  9  2  0
  7 10  1  0
 10 11  1  0
 11 12  1  0
 12 13  1  0
 13 14  1  0
 14 15  2  0
 15 16  1  0
 16 17  2  0
 17 18  1  0
 17 19  1  0
 19 20  2  0
 13 21  1  0
 21 22  1  0
 22 10  1  0
 20 14  1  0
  1 23  1  0
  3 24  1  0
  3 25  1  0
  4 26  1  0
  4 27  1  0
  5 28  1  0
  5 29  1  0
  6 30  1  0
  6 31  1  0
 10 32  1  0
 11 33  1  0
 11 34  1  0
 12 35  1  0
 12 36  1  0
 15 37  1  0
 16 38  1  0
 19 39  1  0
 20 40  1  0
 21 41  1  0
 21 42  1  0
 22 43  1  0
 22 44  1  0
M  CHG  1  10   1
M  END
>  <UniqueID>  (24) 
23

>  <SMILES>  (24) 
C#CCCCCS(=O)(=O)[NH+]1CCN(c2ccc(F)cc2)CC1

>  <Energy>  (24) 
41.719109243299386

>  <Genealogy>  (24) 
C#CCCCCS(=O)(=O)[NH+]1CCN(c2ccc(F)cc2)CC1 (protonated)
C#CCCCCS(=O)(=O)[NH+]1CCN(c2ccc(F)cc2)CC1 (3D coordinates assigned)
C#CCCCCS(=O)(=O)[NH+]1CCN(c2ccc(F)cc2)CC1 (nonaromatic ring conformer: 41.719109243299386 kcal/mol)

>  <smiles>  (24) 
C#CCCCCS(=O)(=O)N1CCN(c2ccc(F)cc2)CC1

>  <score_type>  (24) 
oracle

>  <origin>  (24) 
adg

>  <m_score__min__energy>  (24) 
-5.4000000000000004

>  <m_primary>  (24) 
energy

$$$$
24:0
     RDKit          3D

 37 37  0  0  0  0  0  0  0  0999 V2000
   60.4010   30.9330   47.6430 C   0  0  0  0  0  0  0  0  0  0  0  0
   59.0040   31.5040   47.4170 C   0  0  0  0  0  0  0  0  0  0  0  0
   59.0320   32.5740   46.3970 N   0  0  0  0  0  0  0  0  0  0  0  0
   60.1960   33.4820   46.4860 C   0  0  0  0  0  0  0  0  0  0  0  0
   59.8250   34.9590   46.3550 C   0  0  0  0  0  0  0  0  0  0  0  0
   57.7480   33.2150   46.0020 C   0  0  0  0  0  0  0  0  0  0  0  0
   57.3770   33.1350   44.5060 C   0  0  0  0  0  0  0  0  0  0  0  0
   58.0750   32.0290   43.8480 N   0  0  0  0  0  0  0  0  0  0  0  0
   57.1360   30.5720   43.9720 S   0  0  0  0  0  0  0  0  0  0  0  0
   55.9180   30.8350   44.8120 O   0  0  0  0  0  0  0  0  0  0  0  0
   56.6880   30.1270   42.6060 O   0  0  0  0  0  0  0  0  0  0  0  0
   58.1050   29.3160   44.7350 C   0  0  0  0  0  0  0  0  0  0  0  0
   57.4850   28.3520   45.5440 C   0  0  0  0  0  0  0  0  0  0  0  0
   58.2540   27.3830   46.1960 C   0  0  0  0  0  0  0  0  0  0  0  0
   59.6430   27.3740   46.0480 C   0  0  0  0  0  0  0  0  0  0  0  0
   60.2660   28.3360   45.2450 C   0  0  0  0  0  0  0  0  0  0  0  0
   59.5010   29.3060   44.5910 C   0  0  0  0  0  0  0  0  0  0  0  0
   60.5945   30.8539   48.7230 H   0  0  0  0  0  0  0  0  0  0  0  0
   60.4679   29.9354   47.1845 H   0  0  0  0  0  0  0  0  0  0  0  0
   61.1476   31.5981   47.1845 H   0  0  0  0  0  0  0  0  0  0  0  0
   58.3362   30.6989   47.0766 H   0  0  0  0  0  0  0  0  0  0  0  0
   58.6399   31.9294   48.3638 H   0  0  0  0  0  0  0  0  0  0  0  0
   60.6832   33.3299   47.4604 H   0  0  0  0  0  0  0  0  0  0  0  0
   60.8626   33.2388   45.6455 H   0  0  0  0  0  0  0  0  0  0  0  0
   59.7144   35.3995   47.3569 H   0  0  0  0  0  0  0  0  0  0  0  0
   60.6179   35.4890   45.8069 H   0  0  0  0  0  0  0  0  0  0  0  0
   58.8757   35.0514   45.8069 H   0  0  0  0  0  0  0  0  0  0  0  0
   56.9421   32.7317   46.5737 H   0  0  0  0  0  0  0  0  0  0  0  0
   57.8763   34.2863   46.2160 H   0  0  0  0  0  0  0  0  0  0  0  0
   56.2918   32.9811   44.4128 H   0  0  0  0  0  0  0  0  0  0  0  0
   57.6773   34.0755   44.0209 H   0  0  0  0  0  0  0  0  0  0  0  0
   58.9700   31.8590   44.3620 H   0  0  0  0  0  0  0  0  0  0  0  0
   56.3918   28.3584   45.6657 H   0  0  0  0  0  0  0  0  0  0  0  0
   57.7642   26.6264   46.8266 H   0  0  0  0  0  0  0  0  0  0  0  0
   60.2465   26.6115   46.5622 H   0  0  0  0  0  0  0  0  0  0  0  0
   61.3598   28.3288   45.1283 H   0  0  0  0  0  0  0  0  0  0  0  0
   59.9938   30.0625   43.9626 H   0  0  0  0  0  0  0  0  0  0  0  0
  1  2  1  0
  2  3  1  0
  3  4  1  0
  4  5  1  0
  3  6  1  0
  6  7  1  0
  7  8  1  0
  8  9  1  0
  9 10  2  0
  9 11  2  0
  9 12  1  0
 12 13  2  0
 13 14  1  0
 14 15  2  0
 15 16  1  0
 16 17  2  0
 17 12  1  0
  1 18  1  0
  1 19  1  0
  1 20  1  0
  2 21  1  0
  2 22  1  0
  4 23  1  0
  4 24  1  0
  5 25  1  0
  5 26  1  0
  5 27  1  0
  6 28  1  0
  6 29  1  0
  7 30  1  0
  7 31  1  0
  8 32  1  0
 13 33  1  0
 14 34  1  0
 15 35  1  0
 16 36  1  0
 17 37  1  0
M  END
>  <UniqueID>  (25) 
24

>  <SMILES>  (25) 
CCN(CC)CCNS(=O)(=O)c1ccccc1

>  <Energy>  (25) 
37.36690669543548

>  <Genealogy>  (25) 
CCN(CC)CCNS(=O)(=O)c1ccccc1 (3D coordinates assigned)
CCN(CC)CCNS(=O)(=O)c1ccccc1 (optimized conformer: 37.36690669543548 kcal/mol)

>  <smiles>  (25) 
CCN(CC)CCNS(=O)(=O)c1ccccc1

>  <score_type>  (25) 
oracle

>  <origin>  (25) 
adg

>  <m_score__min__energy>  (25) 
-6.2599999999999998

>  <m_primary>  (25) 
energy

$$$$
25:0
     RDKit          3D

 50 50  0  0  0  0  0  0  0  0999 V2000
   61.0944   34.9833   46.0605 H   0  0  0  0  0  0  0  0  0  0  0  0
   60.6740   34.1980   46.7060 C   0  0  0  0  0  0  0  0  0  0  0  0
   61.2370   34.0100   47.9190 C   0  0  0  0  0  0  0  0  0  0  0  0
   60.3700   33.8400   49.1130 C   0  0  0  0  0  0  0  0  0  0  0  0
   59.5110   34.7170   49.4100 O   0  0  0  0  0  0  0  0  0  0  0  0
   60.5130   32.7010   49.9150 O   0  0  0  0  0  0  0  0  0  0  0  0
   61.3040   32.6660   51.1010 C   0  0  0  0  0  0  0  0  0  0  0  0
   61.7009   31.6500   51.2434 H   0  0  0  0  0  0  0  0  0  0  0  0
   62.1331   33.3820   51.0012 H   0  0  0  0  0  0  0  0  0  0  0  0
   60.4460   33.0550   52.3250 C   0  0  0  0  0  0  0  0  0  0  0  0
   60.4791   32.2259   53.0472 H   0  0  0  0  0  0  0  0  0  0  0  0
   60.8714   33.9866   52.7265 H   0  0  0  0  0  0  0  0  0  0  0  0
   59.0230   33.3380   52.0050 N   0  0  0  0  0  0  0  0  0  0  0  0
   59.0230   33.5860   50.9860 H   0  0  0  0  0  0  0  0  0  0  0  0
   58.5380   34.5330   52.7450 C   0  0  0  0  0  0  0  0  0  0  0  0
   58.7292   35.4272   52.1336 H   0  0  0  0  0  0  0  0  0  0  0  0
   57.4637   34.3928   52.9354 H   0  0  0  0  0  0  0  0  0  0  0  0
   59.2290   34.7090   54.1000 C   0  0  0  0  0  0  0  0  0  0  0  0
   58.5051   34.5246   54.9074 H   0  0  0  0  0  0  0  0  0  0  0  0
   60.0608   33.9941   54.1830 H   0  0  0  0  0  0  0  0  0  0  0  0
   59.6175   35.7348   54.1830 H   0  0  0  0  0  0  0  0  0  0  0  0
   58.1590   32.1380   52.2200 C   0  0  0  0  0  0  0  0  0  0  0  0
   58.6970   31.4251   52.8622 H   0  0  0  0  0  0  0  0  0  0  0  0
   57.2242   32.4762   52.6908 H   0  0  0  0  0  0  0  0  0  0  0  0
   57.7960   31.4400   50.9050 C   0  0  0  0  0  0  0  0  0  0  0  0
   57.2985   30.4834   51.1228 H   0  0  0  0  0  0  0  0  0  0  0  0
   57.1176   32.0822   50.3241 H   0  0  0  0  0  0  0  0  0  0  0  0
   58.7113   31.2534   50.3241 H   0  0  0  0  0  0  0  0  0  0  0  0
   62.7320   33.8220   48.0890 C   0  0  0  0  0  0  0  0  0  0  0  0
   62.9137   33.0028   48.8003 H   0  0  0  0  0  0  0  0  0  0  0  0
   63.1644   34.7604   48.4665 H   0  0  0  0  0  0  0  0  0  0  0  0
   63.3910   33.4820   46.7560 C   0  0  0  0  0  0  0  0  0  0  0  0
   64.3548   32.9847   46.9397 H   0  0  0  0  0  0  0  0  0  0  0  0
   62.7349   32.8099   46.1835 H   0  0  0  0  0  0  0  0  0  0  0  0
   63.5585   34.4062   46.1835 H   0  0  0  0  0  0  0  0  0  0  0  0
   59.5330   33.4200   46.1900 C   0  0  0  0  0  0  0  0  0  0  0  0
   59.4650   32.0310   46.3820 C   0  0  0  0  0  0  0  0  0  0  0  0
   60.2551   31.5162   46.9483 H   0  0  0  0  0  0  0  0  0  0  0  0
   58.3970   31.3010   45.8560 C   0  0  0  0  0  0  0  0  0  0  0  0
   58.3446   30.2150   46.0228 H   0  0  0  0  0  0  0  0  0  0  0  0
   57.3920   31.9390   45.1180 C   0  0  0  0  0  0  0  0  0  0  0  0
   56.3400   31.1620   44.6140 O   0  0  0  0  0  0  0  0  0  0  0  0
   56.4810   30.1880   43.5840 C   0  0  0  0  0  0  0  0  0  0  0  0
   56.6247   29.1952   44.0354 H   0  0  0  0  0  0  0  0  0  0  0  0
   55.5747   30.1797   42.9607 H   0  0  0  0  0  0  0  0  0  0  0  0
   57.3525   30.4370   42.9607 H   0  0  0  0  0  0  0  0  0  0  0  0
   57.4750   33.3290   44.9050 C   0  0  0  0  0  0  0  0  0  0  0  0
   56.6950   33.8417   44.3230 H   0  0  0  0  0  0  0  0  0  0  0  0
   58.5460   34.0600   45.4310 C   0  0  0  0  0  0  0  0  0  0  0  0
   58.6127   35.1425   45.2473 H   0  0  0  0  0  0  0  0  0  0  0  0
  1  2  1  0
  2  3  2  0
  3  4  1  0
  4  5  2  0
  4  6  1  0
  6  7  1  0
  7  8  1  0
  7  9  1  0
  7 10  1  0
 10 11  1  0
 10 12  1  0
 10 13  1  0
 13 14  1  0
 13 15  1  0
 15 16  1  0
 15 17  1  0
 15 18  1  0
 18 19  1  0
 18 20  1  0
 18 21  1  0
 13 22  1  0
 22 23  1  0
 22 24  1  0
 22 25  1  0
 25 26  1  0
 25 27  1  0
 25 28  1  0
  3 29  1  0
 29 30  1  0
 29 31  1  0
 29 32  1  0
 32 33  1  0
 32 34  1  0
 32 35  1  0
  2 36  1  0
 36 37  2  0
 37 38  1  0
 37 39  1  0
 39 40  1  0
 39 41  2  0
 41 42  1  0
 42 43  1  0
 43 44  1  0
 43 45  1  0
 43 46  1  0
 41 47  1  0
 47 48  1  0
 47 49  2  0
 49 50  1  0
 49 36  1  0
M  CHG  1  13   1
M  END
>  <UniqueID>  (26) 
25

>  <SMILES>  (26) 
CC/C(=C\c1ccc(OC)cc1)C(=O)OCC[NH+](CC)CC

>  <Energy>  (26) 
52.52109548404272

>  <Genealogy>  (26) 
CCC(=Cc1ccc(OC)cc1)C(=O)OCC[NH+](CC)CC (protonated)
CC/C(=C\c1ccc(OC)cc1)C(=O)OCC[NH+](CC)CC (cis-trans isomerization)
CC/C(=C\c1ccc(OC)cc1)C(=O)OCC[NH+](CC)CC (3D coordinates assigned)
CC/C(=C\c1ccc(OC)cc1)C(=O)OCC[NH+](CC)CC (optimized conformer: 52.52109548404272 kcal/mol)

>  <smiles>  (26) 
CCC(=Cc1ccc(OC)cc1)C(=O)OCCN(CC)CC

>  <score_type>  (26) 
oracle

>  <origin>  (26) 
adg

>  <m_score__min__energy>  (26) 
-4.8600000000000003

>  <m_primary>  (26) 
energy

$$$$
26:0
     RDKit          3D

 37 37  0  0  0  0  0  0  0  0999 V2000
   58.5400   28.0230   44.7170 C   0  0  0  0  0  0  0  0  0  0  0  0
   57.0370   28.3120   44.8320 C   0  0  0  0  0  0  0  0  0  0  0  0
   56.7140   29.7090   45.2210 N   0  0  0  0  0  0  0  0  0  0  0  0
   56.1710   30.5000   44.0940 C   0  0  0  0  0  0  0  0  0  0  0  0
   56.2660   29.7000   42.7980 C   0  0  0  0  0  0  0  0  0  0  0  0
   57.8240   30.4070   45.9060 C   0  0  0  0  0  0  0  0  0  0  0  0
   57.8350   31.8270   45.5450 C   0  0  0  0  0  0  0  0  0  0  0  0
   57.8770   33.0030   45.2810 C   0  0  0  0  0  0  0  0  0  0  0  0
   57.8940   34.4220   44.9050 C   0  0  0  0  0  0  0  0  0  0  0  0
   59.2820   35.0330   45.1300 C   0  0  0  0  0  0  0  0  0  0  0  0
   59.9200   34.5200   46.3990 C   0  0  0  0  0  0  0  0  0  0  0  0
   59.2780   34.6910   47.6360 C   0  0  0  0  0  0  0  0  0  0  0  0
   59.8940   34.2610   48.8150 C   0  0  0  0  0  0  0  0  0  0  0  0
   61.1580   33.6670   48.7690 C   0  0  0  0  0  0  0  0  0  0  0  0
   61.8100   33.4990   47.5430 C   0  0  0  0  0  0  0  0  0  0  0  0
   63.5450   32.7040   47.4800 Br  0  0  0  0  0  0  0  0  0  0  0  0
   61.1930   33.9240   46.3610 C   0  0  0  0  0  0  0  0  0  0  0  0
   58.9754   27.9393   45.7237 H   0  0  0  0  0  0  0  0  0  0  0  0
   58.6913   27.0793   44.1724 H   0  0  0  0  0  0  0  0  0  0  0  0
   59.0305   28.8433   44.1724 H   0  0  0  0  0  0  0  0  0  0  0  0
   56.5709   28.1089   43.8565 H   0  0  0  0  0  0  0  0  0  0  0  0
   56.6505   27.6635   45.6320 H   0  0  0  0  0  0  0  0  0  0  0  0
   55.1173   30.7435   44.2948 H   0  0  0  0  0  0  0  0  0  0  0  0
   56.7557   31.4258   43.9893 H   0  0  0  0  0  0  0  0  0  0  0  0
   56.3927   28.6331   43.0341 H   0  0  0  0  0  0  0  0  0  0  0  0
   55.3450   29.8392   42.2128 H   0  0  0  0  0  0  0  0  0  0  0  0
   57.1288   30.0510   42.2128 H   0  0  0  0  0  0  0  0  0  0  0  0
   57.6959   30.3107   46.9943 H   0  0  0  0  0  0  0  0  0  0  0  0
   58.7765   29.9527   45.5957 H   0  0  0  0  0  0  0  0  0  0  0  0
   57.6277   34.5157   43.8418 H   0  0  0  0  0  0  0  0  0  0  0  0
   57.1682   34.9598   45.5327 H   0  0  0  0  0  0  0  0  0  0  0  0
   59.9273   34.7752   44.2773 H   0  0  0  0  0  0  0  0  0  0  0  0
   59.1657   36.1230   45.2215 H   0  0  0  0  0  0  0  0  0  0  0  0
   58.2863   35.1652   47.6776 H   0  0  0  0  0  0  0  0  0  0  0  0
   59.3829   34.3905   49.7804 H   0  0  0  0  0  0  0  0  0  0  0  0
   61.6410   33.3310   49.6984 H   0  0  0  0  0  0  0  0  0  0  0  0
   61.7065   33.7911   45.3973 H   0  0  0  0  0  0  0  0  0  0  0  0
  1  2  1  0
  2  3  1  0
  3  4  1  0
  4  5  1  0
  3  6  1  0
  6  7  1  0
  7  8  3  0
  8  9  1  0
  9 10  1  0
 10 11  1  0
 11 12  2  0
 12 13  1  0
 13 14  2  0
 14 15  1  0
 15 16  1  0
 15 17  2  0
 17 11  1  0
  1 18  1  0
  1 19  1  0
  1 20  1  0
  2 21  1  0
  2 22  1  0
  4 23  1  0
  4 24  1  0
  5 25  1  0
  5 26  1  0
  5 27  1  0
  6 28  1  0
  6 29  1  0
  9 30  1  0
  9 31  1  0
 10 32  1  0
 10 33  1  0
 12 34  1  0
 13 35  1  0
 14 36  1  0
 17 37  1  0
M  END
>  <UniqueID>  (27) 
26

>  <SMILES>  (27) 
CCN(CC)CC#CCCc1cccc(Br)c1

>  <Energy>  (27) 
25.676984788317437

>  <Genealogy>  (27) 
CCN(CC)CC#CCCc1cccc(Br)c1 (3D coordinates assigned)
CCN(CC)CC#CCCc1cccc(Br)c1 (optimized conformer: 25.676984788317437 kcal/mol)

>  <smiles>  (27) 
CCN(CC)CC#CCCc1cccc(Br)c1

>  <score_type>  (27) 
oracle

>  <origin>  (27) 
adg

>  <m_score__min__energy>  (27) 
-6.4699999999999998

>  <m_primary>  (27) 
energy

$$$$
27:0
     RDKit          3D

 49 51  0  0  0  0  0  0  0  0999 V2000
   63.2940   33.8610   46.3890 C   0  0  0  0  0  0  0  0  0  0  0  0
   63.7610   32.9440   47.5140 C   0  0  0  0  0  0  0  0  0  0  0  0
   62.6960   32.8430   48.5400 N   0  0  0  0  0  0  0  0  0  0  0  0
   62.2990   34.1570   49.0960 C   0  0  0  0  0  0  0  0  0  0  0  0
   60.7980   34.2130   49.3880 C   0  0  0  0  0  0  0  0  0  0  0  0
   62.9830   31.8010   49.5580 C   0  0  0  0  0  0  0  0  0  0  0  0
   61.9020   30.6960   49.6650 C   0  0  0  0  0  0  0  0  0  0  0  0
   61.2320   30.4990   48.3720 N   0  0  0  0  0  0  0  0  0  0  0  0
   59.8030   30.8340   48.4450 C   0  0  0  0  0  0  0  0  0  0  0  0
   59.1330   30.7000   47.0740 C   0  0  0  0  0  0  0  0  0  0  0  0
   58.8310   31.8750   46.3270 C   0  0  0  0  0  0  0  0  0  0  0  0
   59.2430   33.1600   46.7670 C   0  0  0  0  0  0  0  0  0  0  0  0
   58.9320   34.3070   46.0390 C   0  0  0  0  0  0  0  0  0  0  0  0
   58.2090   34.2090   44.8590 C   0  0  0  0  0  0  0  0  0  0  0  0
   57.7970   32.9630   44.3950 C   0  0  0  0  0  0  0  0  0  0  0  0
   58.1010   31.7810   45.1090 C   0  0  0  0  0  0  0  0  0  0  0  0
   57.6860   30.5200   44.6260 C   0  0  0  0  0  0  0  0  0  0  0  0
   56.6460   30.4040   42.9890 Br  0  0  0  0  0  0  0  0  0  0  0  0
   58.0410   29.3430   45.3260 C   0  0  0  0  0  0  0  0  0  0  0  0
   57.6680   28.0720   44.8290 C   0  0  0  0  0  0  0  0  0  0  0  0
   58.0390   26.9050   45.4900 C   0  0  0  0  0  0  0  0  0  0  0  0
   57.5270   25.2020   44.7890 Br  0  0  0  0  0  0  0  0  0  0  0  0
   58.7960   26.9760   46.6500 C   0  0  0  0  0  0  0  0  0  0  0  0
   59.1700   28.2120   47.1680 C   0  0  0  0  0  0  0  0  0  0  0  0
   58.7860   29.4240   46.5380 C   0  0  0  0  0  0  0  0  0  0  0  0
   62.8344   34.7634   46.8184 H   0  0  0  0  0  0  0  0  0  0  0  0
   64.1557   34.1482   45.7685 H   0  0  0  0  0  0  0  0  0  0  0  0
   62.5550   33.3330   45.7685 H   0  0  0  0  0  0  0  0  0  0  0  0
   63.9755   31.9445   47.1078 H   0  0  0  0  0  0  0  0  0  0  0  0
   64.6731   33.3565   47.9700 H   0  0  0  0  0  0  0  0  0  0  0  0
   62.8516   34.3310   50.0311 H   0  0  0  0  0  0  0  0  0  0  0  0
   62.5345   34.9317   48.3515 H   0  0  0  0  0  0  0  0  0  0  0  0
   60.6361   34.2190   50.4760 H   0  0  0  0  0  0  0  0  0  0  0  0
   60.3729   35.1276   48.9490 H   0  0  0  0  0  0  0  0  0  0  0  0
   60.3060   33.3326   48.9490 H   0  0  0  0  0  0  0  0  0  0  0  0
   63.9396   31.3228   49.3006 H   0  0  0  0  0  0  0  0  0  0  0  0
   63.0074   32.3118   50.5319 H   0  0  0  0  0  0  0  0  0  0  0  0
   62.3782   29.7533   49.9724 H   0  0  0  0  0  0  0  0  0  0  0  0
   61.1526   31.0047   50.4087 H   0  0  0  0  0  0  0  0  0  0  0  0
   61.6660   31.1530   47.6800 H   0  0  0  0  0  0  0  0  0  0  0  0
   59.3102   30.1521   49.1536 H   0  0  0  0  0  0  0  0  0  0  0  0
   59.7060   31.8772   48.7801 H   0  0  0  0  0  0  0  0  0  0  0  0
   59.8185   33.2523   47.6999 H   0  0  0  0  0  0  0  0  0  0  0  0
   59.2606   35.2924   46.4009 H   0  0  0  0  0  0  0  0  0  0  0  0
   57.9611   35.1169   44.2895 H   0  0  0  0  0  0  0  0  0  0  0  0
   57.2255   32.8968   43.4574 H   0  0  0  0  0  0  0  0  0  0  0  0
   57.0750   28.0052   43.9049 H   0  0  0  0  0  0  0  0  0  0  0  0
   59.1018   26.0518   47.1623 H   0  0  0  0  0  0  0  0  0  0  0  0
   59.7761   28.2504   48.0852 H   0  0  0  0  0  0  0  0  0  0  0  0
  1  2  1  0
  2  3  1  0
  3  4  1  0
  4  5  1  0
  3  6  1  0
  6  7  1  0
  7  8  1  0
  8  9  1  0
  9 10  1  0
 10 11  2  0
 11 12  1  0
 12 13  2  0
 13 14  1  0
 14 15  2  0
 15 16  1  0
 16 17  2  0
 17 18  1  0
 17 19  1  0
 19 20  2  0
 20 21  1  0
 21 22  1  0
 21 23  2  0
 23 24  1  0
 24 25  2  0
 25 10  1  0
 16 11  1  0
 25 19  1  0
  1 26  1  0
  1 27  1  0
  1 28  1  0
  2 29  1  0
  2 30  1  0
  4 31  1  0
  4 32  1  0
  5 33  1  0
  5 34  1  0
  5 35  1  0
  6 36  1  0
  6 37  1  0
  7 38  1  0
  7 39  1  0
  8 40  1  0
  9 41  1  0
  9 42  1  0
 12 43  1  0
 13 44  1  0
 14 45  1  0
 15 46  1  0
 20 47  1  0
 23 48  1  0
 24 49  1  0
M  END
>  <UniqueID>  (28) 
27

>  <SMILES>  (28) 
CCN(CC)CCNCc1c2ccccc2c(Br)c2cc(Br)ccc12

>  <Energy>  (28) 
74.4741262786444

>  <Genealogy>  (28) 
CCN(CC)CCNCc1c2ccccc2c(Br)c2cc(Br)ccc12 (3D coordinates assigned)
CCN(CC)CCNCc1c2ccccc2c(Br)c2cc(Br)ccc12 (optimized conformer: 74.4741262786444 kcal/mol)

>  <smiles>  (28) 
CCN(CC)CCNCc1c2ccccc2c(Br)c2cc(Br)ccc12

>  <score_type>  (28) 
oracle

>  <origin>  (28) 
adg

>  <m_score__min__energy>  (28) 
-8.3000000000000007

>  <m_primary>  (28) 
energy

$$$$
28:0
     RDKit          3D

 46 49  0  0  0  0  0  0  0  0999 V2000
   65.3650   32.9240   49.8690 C   0  0  0  0  0  0  0  0  0  0  0  0
   64.4080   32.1560   49.1460 O   0  0  0  0  0  0  0  0  0  0  0  0
   63.3730   32.7030   48.3750 C   0  0  0  0  0  0  0  0  0  0  0  0
   62.0670   32.6480   48.8770 C   0  0  0  0  0  0  0  0  0  0  0  0
   61.0020   33.1800   48.1460 C   0  0  0  0  0  0  0  0  0  0  0  0
   61.2290   33.7790   46.8980 C   0  0  0  0  0  0  0  0  0  0  0  0
   60.0720   34.3260   46.1060 C   0  0  0  0  0  0  0  0  0  0  0  0
   59.3580   33.2330   45.4150 N   0  0  0  0  0  0  0  0  0  0  0  0
   58.8540   33.6800   44.0990 C   0  0  0  0  0  0  0  0  0  0  0  0
   58.0320   32.6090   43.4380 C   0  0  0  0  0  0  0  0  0  0  0  0
   57.7730   32.7110   42.2080 O   0  0  0  0  0  0  0  0  0  0  0  0
   57.5160   31.4960   44.1980 N   0  0  0  0  0  0  0  0  0  0  0  0
   57.0350   30.3020   43.4700 C   0  0  0  0  0  0  0  0  0  0  0  0
   57.0140   29.0380   44.3550 C   0  0  0  0  0  0  0  0  0  0  0  0
   58.2110   29.0120   45.2730 C   0  0  0  0  0  0  0  0  0  0  0  0
   58.9330   27.8290   45.4880 C   0  0  0  0  0  0  0  0  0  0  0  0
   60.0420   27.8310   46.3370 C   0  0  0  0  0  0  0  0  0  0  0  0
   60.4330   29.0090   46.9760 C   0  0  0  0  0  0  0  0  0  0  0  0
   59.7120   30.1900   46.7810 C   0  0  0  0  0  0  0  0  0  0  0  0
   58.5840   30.2000   45.9360 C   0  0  0  0  0  0  0  0  0  0  0  0
   57.7190   31.4180   45.6570 C   0  0  1  0  0  0  0  0  0  0  0  0
   58.2270   32.7550   46.2280 C   0  0  0  0  0  0  0  0  0  0  0  0
   62.5350   33.8310   46.3870 C   0  0  0  0  0  0  0  0  0  0  0  0
   63.6010   33.3000   47.1190 C   0  0  0  0  0  0  0  0  0  0  0  0
   65.2008   32.7922   50.9487 H   0  0  0  0  0  0  0  0  0  0  0  0
   66.3788   32.5860   49.6084 H   0  0  0  0  0  0  0  0  0  0  0  0
   65.2545   33.9870   49.6084 H   0  0  0  0  0  0  0  0  0  0  0  0
   61.8780   32.1819   49.8553 H   0  0  0  0  0  0  0  0  0  0  0  0
   59.9805   33.1290   48.5510 H   0  0  0  0  0  0  0  0  0  0  0  0
   59.3771   34.8392   46.7870 H   0  0  0  0  0  0  0  0  0  0  0  0
   60.4560   35.0320   45.3549 H   0  0  0  0  0  0  0  0  0  0  0  0
   58.2305   34.5754   44.2391 H   0  0  0  0  0  0  0  0  0  0  0  0
   59.7165   33.9042   43.4541 H   0  0  0  0  0  0  0  0  0  0  0  0
   56.0144   30.4966   43.1089 H   0  0  0  0  0  0  0  0  0  0  0  0
   57.7301   30.1156   42.6381 H   0  0  0  0  0  0  0  0  0  0  0  0
   56.0949   29.0352   44.9594 H   0  0  0  0  0  0  0  0  0  0  0  0
   57.0457   28.1504   43.7060 H   0  0  0  0  0  0  0  0  0  0  0  0
   58.6256   26.8989   44.9876 H   0  0  0  0  0  0  0  0  0  0  0  0
   60.6084   26.9027   46.5025 H   0  0  0  0  0  0  0  0  0  0  0  0
   61.3129   29.0075   47.6362 H   0  0  0  0  0  0  0  0  0  0  0  0
   60.0256   31.1143   47.2883 H   0  0  0  0  0  0  0  0  0  0  0  0
   56.7725   31.2693   46.1974 H   0  0  0  0  0  0  0  0  0  0  0  0
   57.4159   33.4976   46.2019 H   0  0  0  0  0  0  0  0  0  0  0  0
   58.5556   32.6105   47.2678 H   0  0  0  0  0  0  0  0  0  0  0  0
   62.7208   34.2919   45.4056 H   0  0  0  0  0  0  0  0  0  0  0  0
   64.6221   33.3484   46.7129 H   0  0  0  0  0  0  0  0  0  0  0  0
  1  2  1  0
  2  3  1  0
  3  4  2  0
  4  5  1  0
  5  6  2  0
  6  7  1  0
  7  8  1  0
  8  9  1  0
  9 10  1  0
 10 11  2  0
 10 12  1  0
 12 13  1  0
 13 14  1  0
 14 15  1  0
 15 16  2  0
 16 17  1  0
 17 18  2  0
 18 19  1  0
 19 20  2  0
 20 21  1  0
 21 22  1  0
  6 23  1  0
 23 24  2  0
 24  3  1  0
 22  8  1  0
 21 12  1  0
 20 15  1  0
  1 25  1  0
  1 26  1  0
  1 27  1  0
  4 28  1  0
  5 29  1  0
  7 30  1  0
  7 31  1  0
  9 32  1  0
  9 33  1  0
 13 34  1  0
 13 35  1  0
 14 36  1  0
 14 37  1  0
 16 38  1  0
 17 39  1  0
 18 40  1  0
 19 41  1  0
 21 42  1  1
 22 43  1  0
 22 44  1  0
 23 45  1  0
 24 46  1  0
M  END
>  <UniqueID>  (29) 
28

>  <SMILES>  (29) 
COc1ccc(CN2CC(=O)N3CCc4ccccc4[C@H]3C2)cc1

>  <Energy>  (29) 
59.39009029421589

>  <Genealogy>  (29) 
COc1ccc(CN2CC(=O)N3CCc4ccccc4[C@H]3C2)cc1 (chirality)
COc1ccc(CN2CC(=O)N3CCc4ccccc4[C@H]3C2)cc1 (3D coordinates assigned)
COc1ccc(CN2CC(=O)N3CCc4ccccc4[C@H]3C2)cc1 (nonaromatic ring conformer: 59.39009029421589 kcal/mol)

>  <smiles>  (29) 
COc1ccc(CN2CC(=O)N3CCc4ccccc4C3C2)cc1

>  <score_type>  (29) 
oracle

>  <origin>  (29) 
adg

>  <m_score__min__energy>  (29) 
-7.6900000000000004

>  <m_primary>  (29) 
energy

$$$$
29:0
     RDKit          3D

 39 41  0  0  0  0  0  0  0  0999 V2000
   59.8270   34.0580   48.0020 C   0  0  0  0  0  0  0  0  0  0  0  0
   60.2220   34.6540   46.7140 N   0  0  0  0  0  0  0  0  0  0  0  0
   61.2940   33.8360   46.1000 C   0  0  0  0  0  0  0  0  0  0  0  0
   62.1560   33.1770   47.1480 C   0  0  0  0  0  0  0  0  0  0  0  0
   61.8850   31.8580   47.5550 C   0  0  0  0  0  0  0  0  0  0  0  0
   62.6560   31.2590   48.5560 C   0  0  0  0  0  0  0  0  0  0  0  0
   63.7090   31.9620   49.1460 C   0  0  0  0  0  0  0  0  0  0  0  0
   63.9990   33.2650   48.7310 C   0  0  0  0  0  0  0  0  0  0  0  0
   63.2280   33.8700   47.7320 C   0  0  0  0  0  0  0  0  0  0  0  0
   59.0370   34.7740   45.8320 C   0  0  0  0  0  0  0  0  0  0  0  0
   58.3770   33.4420   45.6590 C   0  0  0  0  0  0  0  0  0  0  0  0
   57.0360   33.2210   45.4610 C   0  0  0  0  0  0  0  0  0  0  0  0
   56.8800   31.9400   45.2450 O   0  0  0  0  0  0  0  0  0  0  0  0
   58.0700   31.3800   45.2990 C   0  0  0  0  0  0  0  0  0  0  0  0
   58.3000   29.9330   45.0540 C   0  0  0  0  0  0  0  0  0  0  0  0
   59.3060   29.2860   45.7970 C   0  0  0  0  0  0  0  0  0  0  0  0
   59.5530   27.9220   45.6320 C   0  0  0  0  0  0  0  0  0  0  0  0
   58.8000   27.1800   44.7250 C   0  0  0  0  0  0  0  0  0  0  0  0
   57.8010   27.8010   43.9760 C   0  0  0  0  0  0  0  0  0  0  0  0
   57.5410   29.1700   44.1280 C   0  0  0  0  0  0  0  0  0  0  0  0
   56.2680   29.8550   43.1220 Cl  0  0  0  0  0  0  0  0  0  0  0  0
   59.0440   32.2780   45.5600 N   0  0  0  0  0  0  0  0  0  0  0  0
   60.2296   34.6655   48.8259 H   0  0  0  0  0  0  0  0  0  0  0  0
   58.7296   34.0279   48.0709 H   0  0  0  0  0  0  0  0  0  0  0  0
   60.2269   33.0356   48.0709 H   0  0  0  0  0  0  0  0  0  0  0  0
   60.8348   33.0571   45.4735 H   0  0  0  0  0  0  0  0  0  0  0  0
   61.9311   34.4991   45.4964 H   0  0  0  0  0  0  0  0  0  0  0  0
   61.0645   31.2964   47.0846 H   0  0  0  0  0  0  0  0  0  0  0  0
   62.4327   30.2317   48.8796 H   0  0  0  0  0  0  0  0  0  0  0  0
   64.3101   31.4902   49.9373 H   0  0  0  0  0  0  0  0  0  0  0  0
   64.8337   33.8151   49.1899 H   0  0  0  0  0  0  0  0  0  0  0  0
   63.4630   34.8930   47.4030 H   0  0  0  0  0  0  0  0  0  0  0  0
   58.3207   35.4775   46.2814 H   0  0  0  0  0  0  0  0  0  0  0  0
   59.3615   35.1415   44.8473 H   0  0  0  0  0  0  0  0  0  0  0  0
   56.2404   33.9804   45.4804 H   0  0  0  0  0  0  0  0  0  0  0  0
   59.9051   29.8629   46.5169 H   0  0  0  0  0  0  0  0  0  0  0  0
   60.3437   27.4323   46.2193 H   0  0  0  0  0  0  0  0  0  0  0  0
   58.9933   26.1044   44.5996 H   0  0  0  0  0  0  0  0  0  0  0  0
   57.2113   27.2109   43.2590 H   0  0  0  0  0  0  0  0  0  0  0  0
  1  2  1  0
  2  3  1  0
  3  4  1  0
  4  5  2  0
  5  6  1  0
  6  7  2  0
  7  8  1  0
  8  9  2  0
  2 10  1  0
 10 11  1  0
 11 12  2  0
 12 13  1  0
 13 14  1  0
 14 15  1  0
 15 16  2  0
 16 17  1  0
 17 18  2  0
 18 19  1  0
 19 20  2  0
 20 21  1  0
 14 22  2  0
  9  4  1  0
 22 11  1  0
 20 15  1  0
  1 23  1  0
  1 24  1  0
  1 25  1  0
  3 26  1  0
  3 27  1  0
  5 28  1  0
  6 29  1  0
  7 30  1  0
  8 31  1  0
  9 32  1  0
 10 33  1  0
 10 34  1  0
 12 35  1  0
 16 36  1  0
 17 37  1  0
 18 38  1  0
 19 39  1  0
M  END
>  <UniqueID>  (30) 
29

>  <SMILES>  (30) 
CN(Cc1ccccc1)Cc1coc(-c2ccccc2Cl)n1

>  <Energy>  (30) 
71.53174515593169

>  <Genealogy>  (30) 
CN(Cc1ccccc1)Cc1coc(-c2ccccc2Cl)n1 (3D coordinates assigned)
CN(Cc1ccccc1)Cc1coc(-c2ccccc2Cl)n1 (optimized conformer: 71.53174515593169 kcal/mol)

>  <smiles>  (30) 
CN(Cc1ccccc1)Cc1coc(-c2ccccc2Cl)n1

>  <score_type>  (30) 
oracle

>  <origin>  (30) 
adg

>  <m_score__min__energy>  (30) 
-7.4800000000000004

>  <m_primary>  (30) 
energy

$$$$
30:0
     RDKit          3D

 65 68  0  0  0  0  0  0  0  0999 V2000
   63.0180   30.7670   51.1660 C   0  0  0  0  0  0  0  0  0  0  0  0
   62.7530   30.6600   49.7700 O   0  0  0  0  0  0  0  0  0  0  0  0
   62.7980   31.7320   48.8640 C   0  0  0  0  0  0  0  0  0  0  0  0
   63.7070   32.7970   49.0260 C   0  0  0  0  0  0  0  0  0  0  0  0
   63.7590   33.8320   48.0910 C   0  0  0  0  0  0  0  0  0  0  0  0
   62.9100   33.8200   46.9860 C   0  0  0  0  0  0  0  0  0  0  0  0
   61.9990   32.7770   46.8160 C   0  0  0  0  0  0  0  0  0  0  0  0
   61.9240   31.7300   47.7530 C   0  0  0  0  0  0  0  0  0  0  0  0
   60.9640   30.6690   47.5650 N   0  0  0  0  0  0  0  0  0  0  0  0
   60.2600   30.0790   48.7090 C   0  0  0  0  0  0  0  0  0  0  0  0
   58.8260   29.7190   48.3030 C   0  0  0  0  0  0  0  0  0  0  0  0
   58.7580   28.8060   47.1270 N   0  0  0  0  0  0  0  0  0  0  0  0
   58.3990   27.4250   47.5320 C   0  0  0  0  0  0  0  0  0  0  0  0
   57.2750   26.8260   46.6510 C   0  0  2  0  0  0  0  0  0  0  0  0
   57.4630   25.3160   46.4490 C   0  0  0  0  0  0  0  0  0  0  0  0
   57.1620   27.5740   45.3040 C   0  0  0  0  0  0  0  0  0  0  0  0
   56.3370   28.7790   45.4090 N   0  0  0  0  0  0  0  0  0  0  0  0
   55.8910   29.5920   44.3150 C   0  0  0  0  0  0  0  0  0  0  0  0
   54.7690   29.3510   43.7970 O   0  0  0  0  0  0  0  0  0  0  0  0
   56.6960   30.7110   43.7880 C   0  0  0  0  0  0  0  0  0  0  0  0
   56.8190   30.9050   42.3980 C   0  0  0  0  0  0  0  0  0  0  0  0
   57.5750   31.9780   41.8910 C   0  0  0  0  0  0  0  0  0  0  0  0
   58.2270   32.8460   42.7760 C   0  0  0  0  0  0  0  0  0  0  0  0
   58.1130   32.6110   44.1090 N   0  0  0  0  0  0  0  0  0  0  0  0
   58.6590   33.2560   45.1580 C   0  0  0  0  0  0  0  0  0  0  0  0
   59.5350   34.4690   45.0630 C   0  0  0  0  0  0  0  0  0  0  0  0
   58.2470   32.5980   46.3120 C   0  0  0  0  0  0  0  0  0  0  0  0
   58.6120   32.9480   47.7190 C   0  0  0  0  0  0  0  0  0  0  0  0
   57.4610   31.5510   45.9710 N   0  0  0  0  0  0  0  0  0  0  0  0
   57.3930   31.5950   44.6240 C   0  0  0  0  0  0  0  0  0  0  0  0
   59.9700   28.8280   46.2670 C   0  0  0  0  0  0  0  0  0  0  0  0
   60.6200   30.2140   46.2130 C   0  0  0  0  0  0  0  0  0  0  0  0
   62.1441   30.4141   51.7332 H   0  0  0  0  0  0  0  0  0  0  0  0
   63.8935   30.1519   51.4212 H   0  0  0  0  0  0  0  0  0  0  0  0
   63.2210   31.8176   51.4212 H   0  0  0  0  0  0  0  0  0  0  0  0
   64.3804   32.8126   49.8957 H   0  0  0  0  0  0  0  0  0  0  0  0
   64.4716   34.6589   48.2266 H   0  0  0  0  0  0  0  0  0  0  0  0
   62.9581   34.6335   46.2472 H   0  0  0  0  0  0  0  0  0  0  0  0
   61.3328   32.7732   45.9407 H   0  0  0  0  0  0  0  0  0  0  0  0
   60.7873   29.1699   49.0337 H   0  0  0  0  0  0  0  0  0  0  0  0
   60.2336   30.8053   49.5347 H   0  0  0  0  0  0  0  0  0  0  0  0
   58.3347   29.2274   49.1556 H   0  0  0  0  0  0  0  0  0  0  0  0
   58.3232   30.6550   48.0183 H   0  0  0  0  0  0  0  0  0  0  0  0
   59.2920   26.7883   47.4470 H   0  0  0  0  0  0  0  0  0  0  0  0
   58.0295   27.4639   48.5674 H   0  0  0  0  0  0  0  0  0  0  0  0
   56.3232   26.9644   47.1847 H   0  0  0  0  0  0  0  0  0  0  0  0
   57.5248   24.8199   47.4288 H   0  0  0  0  0  0  0  0  0  0  0  0
   56.6082   24.9121   45.8867 H   0  0  0  0  0  0  0  0  0  0  0  0
   58.3907   25.1340   45.8867 H   0  0  0  0  0  0  0  0  0  0  0  0
   58.1706   27.8627   44.9732 H   0  0  0  0  0  0  0  0  0  0  0  0
   56.6823   26.8978   44.5810 H   0  0  0  0  0  0  0  0  0  0  0  0
   56.3203   30.2125   41.7039 H   0  0  0  0  0  0  0  0  0  0  0  0
   57.6536   32.1343   40.8050 H   0  0  0  0  0  0  0  0  0  0  0  0
   58.8161   33.6960   42.4013 H   0  0  0  0  0  0  0  0  0  0  0  0
   59.7877   34.8189   46.0748 H   0  0  0  0  0  0  0  0  0  0  0  0
   60.4581   34.2132   44.5223 H   0  0  0  0  0  0  0  0  0  0  0  0
   59.0019   35.2649   44.5223 H   0  0  0  0  0  0  0  0  0  0  0  0
   57.9971   32.3583   48.4148 H   0  0  0  0  0  0  0  0  0  0  0  0
   59.6754   32.7233   47.8887 H   0  0  0  0  0  0  0  0  0  0  0  0
   58.4321   34.0198   47.8887 H   0  0  0  0  0  0  0  0  0  0  0  0
   57.0170   30.8600   46.6160 H   0  0  0  0  0  0  0  0  0  0  0  0
   60.7008   28.1100   46.6674 H   0  0  0  0  0  0  0  0  0  0  0  0
   59.6623   28.5608   45.2453 H   0  0  0  0  0  0  0  0  0  0  0  0
   61.5346   30.1623   45.6040 H   0  0  0  0  0  0  0  0  0  0  0  0
   59.9093   30.9250   45.7666 H   0  0  0  0  0  0  0  0  0  0  0  0
  1  2  1  0
  2  3  1  0
  3  4  2  0
  4  5  1  0
  5  6  2  0
  6  7  1  0
  7  8  2  0
  8  9  1  0
  9 10  1  0
 10 11  1  0
 11 12  1  0
 12 13  1  0
 13 14  1  0
 14 15  1  0
 14 16  1  0
 16 17  1  0
 17 18  1  0
 18 19  2  0
 18 20  1  0
 20 21  2  0
 21 22  1  0
 22 23  2  0
 23 24  1  0
 24 25  1  0
 25 26  1  0
 25 27  2  0
 27 28  1  0
 27 29  1  0
 29 30  2  0
 12 31  1  0
 31 32  1  0
  8  3  1  0
 32  9  1  0
 30 20  1  0
 30 24  1  0
  1 33  1  0
  1 34  1  0
  1 35  1  0
  4 36  1  0
  5 37  1  0
  6 38  1  0
  7 39  1  0
 10 40  1  0
 10 41  1  0
 11 42  1  0
 11 43  1  0
 13 44  1  0
 13 45  1  0
 14 46  1  1
 15 47  1  0
 15 48  1  0
 15 49  1  0
 16 50  1  0
 16 51  1  0
 21 52  1  0
 22 53  1  0
 23 54  1  0
 26 55  1  0
 26 56  1  0
 26 57  1  0
 28 58  1  0
 28 59  1  0
 28 60  1  0
 29 61  1  0
 31 62  1  0
 31 63  1  0
 32 64  1  0
 32 65  1  0
M  CHG  2  17  -1  29   1
M  END
>  <UniqueID>  (31) 
30

>  <SMILES>  (31) 
COc1ccccc1N1CCN(C[C@H](C)C[N-]C(=O)c2cccn3c(C)c(C)[nH+]c23)CC1

>  <Energy>  (31) 
115.46386438930152

>  <Genealogy>  (31) 
COc1ccccc1N1CCN(CC(C)C[N-]C(=O)c2cccn3c(C)c(C)[nH+]c23)CC1 (protonated)
COc1ccccc1N1CCN(C[C@H](C)C[N-]C(=O)c2cccn3c(C)c(C)[nH+]c23)CC1 (chirality)
COc1ccccc1N1CCN(C[C@H](C)C[N-]C(=O)c2cccn3c(C)c(C)[nH+]c23)CC1 (3D coordinates assigned)
COc1ccccc1N1CCN(C[C@H](C)C[N-]C(=O)c2cccn3c(C)c(C)[nH+]c23)CC1 (nonaromatic ring conformer: 115.46386438930152 kcal/mol)

>  <smiles>  (31) 
COc1ccccc1N1CCN(CC(C)CNC(=O)c2cccn3c(C)c(C)nc23)CC1

>  <score_type>  (31) 
oracle

>  <origin>  (31) 
adg

>  <m_score__min__energy>  (31) 
-8.9600000000000009

>  <m_primary>  (31) 
energy

$$$$
31:0
     RDKit          3D

 31 33  0  0  0  0  0  0  0  0999 V2000
   59.2270   34.7050   45.0280 C   0  0  0  0  0  0  0  0  0  0  0  0
   58.7430   33.9320   43.9340 O   0  0  0  0  0  0  0  0  0  0  0  0
   58.1680   32.6590   44.0580 C   0  0  0  0  0  0  0  0  0  0  0  0
   58.0220   32.1160   45.3390 C   0  0  0  0  0  0  0  0  0  0  0  0
   57.4530   30.8520   45.5150 C   0  0  0  0  0  0  0  0  0  0  0  0
   57.0080   30.1130   44.4090 C   0  0  0  0  0  0  0  0  0  0  0  0
   56.4420   28.8080   44.6140 N   0  0  0  0  0  0  0  0  0  0  0  0
   57.0440   27.7900   45.4260 C   0  0  0  0  0  0  0  0  0  0  0  0
   58.3330   27.5900   45.6770 C   0  0  0  0  0  0  0  0  0  0  0  0
   59.4520   28.3230   45.2670 C   0  0  0  0  0  0  0  0  0  0  0  0
   60.7220   27.8730   45.6650 C   0  0  0  0  0  0  0  0  0  0  0  0
   60.8560   26.7040   46.4410 C   0  0  0  0  0  0  0  0  0  0  0  0
   59.7230   25.9650   46.8190 C   0  0  0  0  0  0  0  0  0  0  0  0
   58.4670   26.4220   46.4180 C   0  0  0  0  0  0  0  0  0  0  0  0
   57.3460   25.8140   46.6550 N   0  0  0  0  0  0  0  0  0  0  0  0
   56.3810   26.6470   46.0200 C   0  0  0  0  0  0  0  0  0  0  0  0
   55.1460   26.4070   45.9930 O   0  0  0  0  0  0  0  0  0  0  0  0
   57.1720   30.6470   43.1190 C   0  0  0  0  0  0  0  0  0  0  0  0
   57.7410   31.9120   42.9430 C   0  0  0  0  0  0  0  0  0  0  0  0
   58.9289   34.2288   45.9737 H   0  0  0  0  0  0  0  0  0  0  0  0
   60.3242   34.7649   44.9776 H   0  0  0  0  0  0  0  0  0  0  0  0
   58.8017   35.7182   44.9776 H   0  0  0  0  0  0  0  0  0  0  0  0
   58.3582   32.6893   46.2156 H   0  0  0  0  0  0  0  0  0  0  0  0
   57.3534   30.4338   46.5275 H   0  0  0  0  0  0  0  0  0  0  0  0
   55.4940   28.6110   44.2210 H   0  0  0  0  0  0  0  0  0  0  0  0
   59.3405   29.2268   44.6500 H   0  0  0  0  0  0  0  0  0  0  0  0
   61.6186   28.4373   45.3688 H   0  0  0  0  0  0  0  0  0  0  0  0
   61.8558   26.3678   46.7530 H   0  0  0  0  0  0  0  0  0  0  0  0
   59.8234   25.0474   47.4172 H   0  0  0  0  0  0  0  0  0  0  0  0
   56.8505   30.0658   42.2422 H   0  0  0  0  0  0  0  0  0  0  0  0
   57.8556   32.3253   41.9300 H   0  0  0  0  0  0  0  0  0  0  0  0
  1  2  1  0
  2  3  1  0
  3  4  2  0
  4  5  1  0
  5  6  2  0
  6  7  1  0
  7  8  1  0
  8  9  2  0
  9 10  1  0
 10 11  2  0
 11 12  1  0
 12 13  2  0
 13 14  1  0
 14 15  2  0
 15 16  1  0
 16 17  2  0
  6 18  1  0
 18 19  2  0
 19  3  1  0
 16  8  1  0
 14  9  1  0
  1 20  1  0
  1 21  1  0
  1 22  1  0
  4 23  1  0
  5 24  1  0
  7 25  1  0
 10 26  1  0
 11 27  1  0
 12 28  1  0
 13 29  1  0
 18 30  1  0
 19 31  1  0
M  END
>  <UniqueID>  (32) 
31

>  <SMILES>  (32) 
COc1ccc(NC2=c3ccccc3=NC2=O)cc1

>  <Energy>  (32) 
72.38573069530831

>  <Genealogy>  (32) 
COc1ccc(NC2=c3ccccc3=NC2=O)cc1 (3D coordinates assigned)
COc1ccc(NC2=c3ccccc3=NC2=O)cc1 (nonaromatic ring conformer: 72.38573069530831 kcal/mol)

>  <smiles>  (32) 
COc1ccc(NC2=c3ccccc3=NC2=O)cc1

>  <score_type>  (32) 
oracle

>  <origin>  (32) 
adg

>  <m_score__min__energy>  (32) 
-6.7599999999999998

>  <m_primary>  (32) 
energy

$$$$
32:0
     RDKit          3D

 59 60  0  0  0  0  0  0  0  0999 V2000
   59.2370   30.5750   45.5530 C   0  0  0  0  0  0  0  0  0  0  0  0
   57.7710   30.1620   45.6540 C   0  0  0  0  0  0  0  0  0  0  0  0
   56.9010   31.0820   44.8840 N   0  0  0  0  0  0  0  0  0  0  0  0
   56.3940   30.3870   43.6780 C   0  0  0  0  0  0  0  0  0  0  0  0
   57.0270   29.0080   43.4920 C   0  0  0  0  0  0  0  0  0  0  0  0
   57.6270   32.3340   44.5360 C   0  0  0  0  0  0  0  0  0  0  0  0
   57.0010   33.5570   45.2190 C   0  0  0  0  0  0  0  0  0  0  0  0
   57.9100   34.1070   46.2500 N   0  0  0  0  0  0  0  0  0  0  0  0
   58.1300   33.1320   47.3450 C   0  0  0  0  0  0  0  0  0  0  0  0
   59.3050   33.5350   48.2420 C   0  0  0  0  0  0  0  0  0  0  0  0
   60.5250   33.6860   47.4410 N   0  0  0  0  0  0  0  0  0  0  0  0
   61.8170   33.5090   48.0520 C   0  0  0  0  0  0  0  0  0  0  0  0
   62.9050   33.0870   47.2870 C   0  0  0  0  0  0  0  0  0  0  0  0
   64.1040   32.8470   47.8810 N   0  0  0  0  0  0  0  0  0  0  0  0
   64.2820   33.0030   49.2000 N   0  0  0  0  0  0  0  0  0  0  0  0
   65.5890   32.7010   49.7960 C   0  0  0  0  0  0  0  0  0  0  0  0
   63.2510   33.4290   49.9940 C   0  0  0  0  0  0  0  0  0  0  0  0
   63.4190   33.5820   51.2340 O   0  0  0  0  0  0  0  0  0  0  0  0
   62.0050   33.7080   49.4260 C   0  0  0  0  0  0  0  0  0  0  0  0
   60.9730   34.1930   50.2340 O   0  0  0  0  0  0  0  0  0  0  0  0
   60.5380   33.4780   51.3920 C   0  0  0  0  0  0  0  0  0  0  0  0
   59.9360   32.1320   50.9880 C   0  0  0  0  0  0  0  0  0  0  0  0
   60.9440   30.9860   51.0980 C   0  0  0  0  0  0  0  0  0  0  0  0
   61.5670   30.7730   49.8800 F   0  0  0  0  0  0  0  0  0  0  0  0
   60.4110   33.8530   45.9900 C   0  0  0  0  0  0  0  0  0  0  0  0
   59.1560   34.6770   45.6700 C   0  0  0  0  0  0  0  0  0  0  0  0
   59.6552   30.6928   46.5636 H   0  0  0  0  0  0  0  0  0  0  0  0
   59.7997   29.8004   45.0113 H   0  0  0  0  0  0  0  0  0  0  0  0
   59.3126   31.5294   45.0113 H   0  0  0  0  0  0  0  0  0  0  0  0
   57.6570   29.1429   45.2558 H   0  0  0  0  0  0  0  0  0  0  0  0
   57.4701   30.2011   46.7113 H   0  0  0  0  0  0  0  0  0  0  0  0
   55.3047   30.2662   43.7714 H   0  0  0  0  0  0  0  0  0  0  0  0
   56.6576   30.9984   42.8024 H   0  0  0  0  0  0  0  0  0  0  0  0
   57.2315   28.5626   44.4768 H   0  0  0  0  0  0  0  0  0  0  0  0
   56.3363   28.3599   42.9327 H   0  0  0  0  0  0  0  0  0  0  0  0
   57.9688   29.1093   42.9327 H   0  0  0  0  0  0  0  0  0  0  0  0
   58.6743   32.2413   44.8595 H   0  0  0  0  0  0  0  0  0  0  0  0
   57.5640   32.4775   43.4472 H   0  0  0  0  0  0  0  0  0  0  0  0
   56.8038   34.3308   44.4625 H   0  0  0  0  0  0  0  0  0  0  0  0
   56.0636   33.2479   45.7046 H   0  0  0  0  0  0  0  0  0  0  0  0
   57.2184   33.0740   47.9579 H   0  0  0  0  0  0  0  0  0  0  0  0
   58.3660   32.1580   46.8916 H   0  0  0  0  0  0  0  0  0  0  0  0
   59.0741   34.4903   48.7361 H   0  0  0  0  0  0  0  0  0  0  0  0
   59.4658   32.7512   48.9969 H   0  0  0  0  0  0  0  0  0  0  0  0
   62.7923   32.9483   46.2016 H   0  0  0  0  0  0  0  0  0  0  0  0
   64.8900   32.5190   47.2760 H   0  0  0  0  0  0  0  0  0  0  0  0
   65.5052   32.7204   50.8926 H   0  0  0  0  0  0  0  0  0  0  0  0
   65.9184   31.7031   49.4710 H   0  0  0  0  0  0  0  0  0  0  0  0
   66.3228   33.4533   49.4710 H   0  0  0  0  0  0  0  0  0  0  0  0
   61.3973   33.3065   52.0569 H   0  0  0  0  0  0  0  0  0  0  0  0
   59.7719   34.0713   51.9127 H   0  0  0  0  0  0  0  0  0  0  0  0
   59.0815   31.9154   51.6460 H   0  0  0  0  0  0  0  0  0  0  0  0
   59.6254   32.2058   49.9354 H   0  0  0  0  0  0  0  0  0  0  0  0
   61.7020   31.2412   51.8532 H   0  0  0  0  0  0  0  0  0  0  0  0
   60.4116   30.0693   51.3918 H   0  0  0  0  0  0  0  0  0  0  0  0
   61.3007   34.3762   45.6095 H   0  0  0  0  0  0  0  0  0  0  0  0
   60.3351   32.8658   45.5108 H   0  0  0  0  0  0  0  0  0  0  0  0
   59.2942   35.6922   46.0704 H   0  0  0  0  0  0  0  0  0  0  0  0
   59.0359   34.6736   44.5766 H   0  0  0  0  0  0  0  0  0  0  0  0
  1  2  1  0
  2  3  1  0
  3  4  1  0
  4  5  1  0
  3  6  1  0
  6  7  1  0
  7  8  1  0
  8  9  1  0
  9 10  1  0
 10 11  1  0
 11 12  1  0
 12 13  1  0
 13 14  2  0
 14 15  1  0
 15 16  1  0
 15 17  1  0
 17 18  2  0
 17 19  1  0
 19 20  1  0
 20 21  1  0
 21 22  1  0
 22 23  1  0
 23 24  1  0
 11 25  1  0
 25 26  1  0
 26  8  1  0
 19 12  2  0
  1 27  1  0
  1 28  1  0
  1 29  1  0
  2 30  1  0
  2 31  1  0
  4 32  1  0
  4 33  1  0
  5 34  1  0
  5 35  1  0
  5 36  1  0
  6 37  1  0
  6 38  1  0
  7 39  1  0
  7 40  1  0
  9 41  1  0
  9 42  1  0
 10 43  1  0
 10 44  1  0
 13 45  1  0
 14 46  1  0
 16 47  1  0
 16 48  1  0
 16 49  1  0
 21 50  1  0
 21 51  1  0
 22 52  1  0
 22 53  1  0
 23 54  1  0
 23 55  1  0
 25 56  1  0
 25 57  1  0
 26 58  1  0
 26 59  1  0
M  CHG  1  14   1
M  END
>  <UniqueID>  (33) 
32

>  <SMILES>  (33) 
CCN(CC)CCN1CCN(c2c[nH+]n(C)c(=O)c2OCCCF)CC1

>  <Energy>  (33) 
69.76399988624057

>  <Genealogy>  (33) 
CCN(CC)CCN1CCN(c2c[nH+]n(C)c(=O)c2OCCCF)CC1 (protonated)
CCN(CC)CCN1CCN(c2c[nH+]n(C)c(=O)c2OCCCF)CC1 (3D coordinates assigned)
CCN(CC)CCN1CCN(c2c[nH+]n(C)c(=O)c2OCCCF)CC1 (nonaromatic ring conformer: 69.76399988624057 kcal/mol)

>  <smiles>  (33) 
CCN(CC)CCN1CCN(c2cnn(C)c(=O)c2OCCCF)CC1

>  <score_type>  (33) 
oracle

>  <origin>  (33) 
adg

>  <m_score__min__energy>  (33) 
-6

>  <m_primary>  (33) 
energy

$$$$
33:0
     RDKit          3D

 39 39  0  0  0  0  0  0  0  0999 V2000
   65.3200   32.7500   49.8440 C   0  0  0  0  0  0  0  0  0  0  0  0
   63.8900   33.2990   49.9170 C   0  0  0  0  0  0  0  0  0  0  0  0
   63.0750   32.9330   48.7280 N   0  0  0  0  0  0  0  0  0  0  0  0
   62.8050   31.4700   48.6970 C   0  0  0  0  0  0  0  0  0  0  0  0
   61.3130   31.1320   48.7930 C   0  0  0  0  0  0  0  0  0  0  0  0
   63.6950   33.4480   47.4760 C   0  0  0  0  0  0  0  0  0  0  0  0
   62.6890   33.8410   46.3800 C   0  0  0  0  0  0  0  0  0  0  0  0
   61.3820   33.4480   46.7850 O   0  0  0  0  0  0  0  0  0  0  0  0
   60.5180   34.3020   47.4760 C   0  0  0  0  0  0  0  0  0  0  0  0
   60.7330   34.5960   48.6840 O   0  0  0  0  0  0  0  0  0  0  0  0
   59.2990   34.8260   46.7870 C   0  0  0  0  0  0  0  0  0  0  0  0
   58.6450   33.7280   45.9970 C   0  0  0  0  0  0  0  0  0  0  0  0
   58.3500   33.9130   44.6360 C   0  0  0  0  0  0  0  0  0  0  0  0
   57.7740   32.8790   43.8920 C   0  0  0  0  0  0  0  0  0  0  0  0
   57.5000   31.6480   44.4970 C   0  0  0  0  0  0  0  0  0  0  0  0
   56.7160   30.2350   43.4790 Br  0  0  0  0  0  0  0  0  0  0  0  0
   57.8040   31.4520   45.8490 C   0  0  0  0  0  0  0  0  0  0  0  0
   58.3800   32.4850   46.5950 C   0  0  0  0  0  0  0  0  0  0  0  0
   65.7080   32.6010   50.8625 H   0  0  0  0  0  0  0  0  0  0  0  0
   65.3170   31.7891   49.3086 H   0  0  0  0  0  0  0  0  0  0  0  0
   65.9608   33.4661   49.3086 H   0  0  0  0  0  0  0  0  0  0  0  0
   63.4027   32.8941   50.8162 H   0  0  0  0  0  0  0  0  0  0  0  0
   63.9560   34.3965   49.9504 H   0  0  0  0  0  0  0  0  0  0  0  0
   62.1500   33.4210   48.8090 H   0  0  0  0  0  0  0  0  0  0  0  0
   63.1965   31.0616   47.7536 H   0  0  0  0  0  0  0  0  0  0  0  0
   63.2990   31.0265   49.5741 H   0  0  0  0  0  0  0  0  0  0  0  0
   61.0194   31.0655   49.8510 H   0  0  0  0  0  0  0  0  0  0  0  0
   60.7260   31.9199   48.2984 H   0  0  0  0  0  0  0  0  0  0  0  0
   61.1229   30.1680   48.2984 H   0  0  0  0  0  0  0  0  0  0  0  0
   64.2921   34.3366   47.7287 H   0  0  0  0  0  0  0  0  0  0  0  0
   64.2994   32.6258   47.0653 H   0  0  0  0  0  0  0  0  0  0  0  0
   62.7159   34.9302   46.2287 H   0  0  0  0  0  0  0  0  0  0  0  0
   62.9520   33.3380   45.4378 H   0  0  0  0  0  0  0  0  0  0  0  0
   58.5909   35.2063   47.5380 H   0  0  0  0  0  0  0  0  0  0  0  0
   59.5902   35.6383   46.1048 H   0  0  0  0  0  0  0  0  0  0  0  0
   58.5733   34.8760   44.1535 H   0  0  0  0  0  0  0  0  0  0  0  0
   57.5359   33.0337   42.8293 H   0  0  0  0  0  0  0  0  0  0  0  0
   57.5895   30.4840   46.3254 H   0  0  0  0  0  0  0  0  0  0  0  0
   58.6266   32.3235   47.6548 H   0  0  0  0  0  0  0  0  0  0  0  0
  1  2  1  0
  2  3  1  0
  3  4  1  0
  4  5  1  0
  3  6  1  0
  6  7  1  0
  7  8  1  0
  8  9  1  0
  9 10  2  0
  9 11  1  0
 11 12  1  0
 12 13  2  0
 13 14  1  0
 14 15  2  0
 15 16  1  0
 15 17  1  0
 17 18  2  0
 18 12  1  0
  1 19  1  0
  1 20  1  0
  1 21  1  0
  2 22  1  0
  2 23  1  0
  3 24  1  0
  4 25  1  0
  4 26  1  0
  5 27  1  0
  5 28  1  0
  5 29  1  0
  6 30  1  0
  6 31  1  0
  7 32  1  0
  7 33  1  0
 11 34  1  0
 11 35  1  0
 13 36  1  0
 14 37  1  0
 17 38  1  0
 18 39  1  0
M  CHG  1   3   1
M  END
>  <UniqueID>  (34) 
33

>  <SMILES>  (34) 
CC[NH+](CC)CCOC(=O)Cc1ccc(Br)cc1

>  <Energy>  (34) 
33.75405827269286

>  <Genealogy>  (34) 
CC[NH+](CC)CCOC(=O)Cc1ccc(Br)cc1 (protonated)
CC[NH+](CC)CCOC(=O)Cc1ccc(Br)cc1 (3D coordinates assigned)
CC[NH+](CC)CCOC(=O)Cc1ccc(Br)cc1 (optimized conformer: 33.75405827269286 kcal/mol)

>  <smiles>  (34) 
CCN(CC)CCOC(=O)Cc1ccc(Br)cc1

>  <score_type>  (34) 
oracle

>  <origin>  (34) 
adg

>  <m_score__min__energy>  (34) 
-4.0300000000000002

>  <m_primary>  (34) 
energy

$$$$
34:0
     RDKit          3D

 32 34  0  0  0  0  0  0  0  0999 V2000
   57.7660   32.3610   41.4710 C   0  0  0  0  0  0  0  0  0  0  0  0
   58.2270   31.9190   42.7440 O   0  0  0  0  0  0  0  0  0  0  0  0
   58.1770   32.6880   43.9170 C   0  0  0  0  0  0  0  0  0  0  0  0
   58.9940   33.8210   44.1060 C   0  0  0  0  0  0  0  0  0  0  0  0
   58.9090   34.5630   45.2870 C   0  0  0  0  0  0  0  0  0  0  0  0
   58.0080   34.1900   46.2840 C   0  0  0  0  0  0  0  0  0  0  0  0
   57.1930   33.0700   46.1080 C   0  0  0  0  0  0  0  0  0  0  0  0
   57.2840   32.3040   44.9310 C   0  0  0  0  0  0  0  0  0  0  0  0
   56.4640   31.1840   44.7200 O   0  0  0  0  0  0  0  0  0  0  0  0
   56.9160   29.8630   44.6080 C   0  0  0  0  0  0  0  0  0  0  0  0
   56.6570   28.9940   45.6210 N   0  0  0  0  0  0  0  0  0  0  0  0
   57.0620   27.7000   45.5590 C   0  0  0  0  0  0  0  0  0  0  0  0
   56.7920   26.8230   46.6160 C   0  0  0  0  0  0  0  0  0  0  0  0
   57.2150   25.4910   46.5450 C   0  0  0  0  0  0  0  0  0  0  0  0
   57.9070   25.0320   45.4190 C   0  0  0  0  0  0  0  0  0  0  0  0
   58.1790   25.9020   44.3560 C   0  0  0  0  0  0  0  0  0  0  0  0
   57.7580   27.2380   44.4240 C   0  0  0  0  0  0  0  0  0  0  0  0
   58.0000   28.1420   43.3860 C   0  0  0  0  0  0  0  0  0  0  0  0
   57.5720   29.4280   43.4920 N   0  0  0  0  0  0  0  0  0  0  0  0
   56.9782   33.1163   41.6083 H   0  0  0  0  0  0  0  0  0  0  0  0
   58.6035   32.8023   40.9107 H   0  0  0  0  0  0  0  0  0  0  0  0
   57.3603   31.5057   40.9107 H   0  0  0  0  0  0  0  0  0  0  0  0
   59.7019   34.1225   43.3199 H   0  0  0  0  0  0  0  0  0  0  0  0
   59.5537   35.4426   45.4305 H   0  0  0  0  0  0  0  0  0  0  0  0
   57.9393   34.7790   47.2105 H   0  0  0  0  0  0  0  0  0  0  0  0
   56.4767   32.7852   46.8927 H   0  0  0  0  0  0  0  0  0  0  0  0
   56.2474   27.1808   47.5023 H   0  0  0  0  0  0  0  0  0  0  0  0
   57.0029   24.8030   47.3767 H   0  0  0  0  0  0  0  0  0  0  0  0
   58.2385   23.9843   45.3686 H   0  0  0  0  0  0  0  0  0  0  0  0
   58.7211   25.5387   43.4705 H   0  0  0  0  0  0  0  0  0  0  0  0
   58.5365   27.8132   42.4838 H   0  0  0  0  0  0  0  0  0  0  0  0
   57.7320   30.0730   42.6860 H   0  0  0  0  0  0  0  0  0  0  0  0
  1  2  1  0
  2  3  1  0
  3  4  2  0
  4  5  1  0
  5  6  2  0
  6  7  1  0
  7  8  2  0
  8  9  1  0
  9 10  1  0
 10 11  2  0
 11 12  1  0
 12 13  2  0
 13 14  1  0
 14 15  2  0
 15 16  1  0
 16 17  2  0
 17 18  1  0
 18 19  2  0
  8  3  1  0
 19 10  1  0
 17 12  1  0
  1 20  1  0
  1 21  1  0
  1 22  1  0
  4 23  1  0
  5 24  1  0
  6 25  1  0
  7 26  1  0
 13 27  1  0
 14 28  1  0
 15 29  1  0
 16 30  1  0
 18 31  1  0
 19 32  1  0
M  CHG  1  19   1
M  END
>  <UniqueID>  (35) 
34

>  <SMILES>  (35) 
COc1ccccc1Oc1nc2ccccc2c[nH+]1

>  <Energy>  (35) 
43.16188345301521

>  <Genealogy>  (35) 
COc1ccccc1Oc1nc2ccccc2c[nH+]1 (protonated)
COc1ccccc1Oc1nc2ccccc2c[nH+]1 (3D coordinates assigned)
COc1ccccc1Oc1nc2ccccc2c[nH+]1 (optimized conformer: 43.16188345301521 kcal/mol)

>  <smiles>  (35) 
COc1ccccc1Oc1ncc2ccccc2n1

>  <score_type>  (35) 
oracle

>  <origin>  (35) 
adg

>  <m_score__min__energy>  (35) 
-6.2400000000000002

>  <m_primary>  (35) 
energy

$$$$
35:0
     RDKit          3D

 50 52  0  0  0  0  0  0  0  0999 V2000
   57.7080   33.1220   47.0400 C   0  0  0  0  0  0  0  0  0  0  0  0
   58.7100   32.1120   47.0450 O   0  0  0  0  0  0  0  0  0  0  0  0
   60.0920   32.3610   47.0210 C   0  0  0  0  0  0  0  0  0  0  0  0
   60.6150   33.6570   46.8410 C   0  0  0  0  0  0  0  0  0  0  0  0
   61.9970   33.8610   46.8010 C   0  0  0  0  0  0  0  0  0  0  0  0
   62.8690   32.7800   46.9380 C   0  0  0  0  0  0  0  0  0  0  0  0
   62.3630   31.4920   47.1200 C   0  0  0  0  0  0  0  0  0  0  0  0
   60.9780   31.2770   47.1690 C   0  0  0  0  0  0  0  0  0  0  0  0
   60.4720   29.9470   47.3590 N   0  0  0  0  0  0  0  0  0  0  0  0
   60.4490   29.0070   46.2370 C   0  0  0  0  0  0  0  0  0  0  0  0
   60.2570   27.5680   46.7400 C   0  0  0  0  0  0  0  0  0  0  0  0
   59.0820   27.4120   47.6400 N   0  0  0  0  0  0  0  0  0  0  0  0
   57.8950   26.9060   46.9230 C   0  0  0  0  0  0  0  0  0  0  0  0
   57.7110   27.6450   45.6310 C   0  0  0  0  0  0  0  0  0  0  0  0
   57.9960   27.0670   44.5470 O   0  0  0  0  0  0  0  0  0  0  0  0
   57.1950   28.9860   45.6310 N   0  0  0  0  0  0  0  0  0  0  0  0
   57.2600   29.8720   44.5010 C   0  0  0  0  0  0  0  0  0  0  0  0
   56.5490   29.6060   43.3180 C   0  0  0  0  0  0  0  0  0  0  0  0
   56.6500   30.4680   42.2230 C   0  0  0  0  0  0  0  0  0  0  0  0
   57.4620   31.6100   42.2920 C   0  0  0  0  0  0  0  0  0  0  0  0
   57.6020   32.5130   41.1040 C   0  0  0  0  0  0  0  0  0  0  0  0
   58.2030   31.8560   43.4580 C   0  0  0  0  0  0  0  0  0  0  0  0
   58.1030   30.9920   44.5530 C   0  0  0  0  0  0  0  0  0  0  0  0
   58.7430   28.6160   48.4410 C   0  0  0  0  0  0  0  0  0  0  0  0
   59.9490   29.5320   48.6620 C   0  0  0  0  0  0  0  0  0  0  0  0
   57.4472   33.3849   48.0758 H   0  0  0  0  0  0  0  0  0  0  0  0
   58.0886   34.0136   46.5202 H   0  0  0  0  0  0  0  0  0  0  0  0
   56.8134   32.7485   46.5202 H   0  0  0  0  0  0  0  0  0  0  0  0
   59.9321   34.5124   46.7314 H   0  0  0  0  0  0  0  0  0  0  0  0
   62.3983   34.8756   46.6613 H   0  0  0  0  0  0  0  0  0  0  0  0
   63.9562   32.9432   46.9025 H   0  0  0  0  0  0  0  0  0  0  0  0
   63.0533   30.6421   47.2254 H   0  0  0  0  0  0  0  0  0  0  0  0
   59.6193   29.2682   45.5637 H   0  0  0  0  0  0  0  0  0  0  0  0
   61.4080   29.0703   45.7020 H   0  0  0  0  0  0  0  0  0  0  0  0
   60.1205   26.9091   45.8699 H   0  0  0  0  0  0  0  0  0  0  0  0
   61.1518   27.3040   47.3228 H   0  0  0  0  0  0  0  0  0  0  0  0
   58.0282   25.8347   46.7121 H   0  0  0  0  0  0  0  0  0  0  0  0
   57.0056   27.0594   47.5519 H   0  0  0  0  0  0  0  0  0  0  0  0
   56.6860   29.3140   46.4830 H   0  0  0  0  0  0  0  0  0  0  0  0
   55.9091   28.7136   43.2539 H   0  0  0  0  0  0  0  0  0  0  0  0
   56.0898   30.2500   41.3018 H   0  0  0  0  0  0  0  0  0  0  0  0
   57.7622   33.5462   41.4457 H   0  0  0  0  0  0  0  0  0  0  0  0
   58.4608   32.1901   40.4972 H   0  0  0  0  0  0  0  0  0  0  0  0
   56.6857   32.4653   40.4972 H   0  0  0  0  0  0  0  0  0  0  0  0
   58.8656   32.7325   43.5109 H   0  0  0  0  0  0  0  0  0  0  0  0
   58.6897   31.1921   45.4617 H   0  0  0  0  0  0  0  0  0  0  0  0
   57.9619   29.1825   47.9129 H   0  0  0  0  0  0  0  0  0  0  0  0
   58.3977   28.2743   49.4279 H   0  0  0  0  0  0  0  0  0  0  0  0
   59.6398   30.4183   49.2355 H   0  0  0  0  0  0  0  0  0  0  0  0
   60.7279   28.9951   49.2233 H   0  0  0  0  0  0  0  0  0  0  0  0
  1  2  1  0
  2  3  1  0
  3  4  2  0
  4  5  1  0
  5  6  2  0
  6  7  1  0
  7  8  2  0
  8  9  1  0
  9 10  1  0
 10 11  1  0
 11 12  1  0
 12 13  1  0
 13 14  1  0
 14 15  2  0
 14 16  1  0
 16 17  1  0
 17 18  2  0
 18 19  1  0
 19 20  2  0
 20 21  1  0
 20 22  1  0
 22 23  2  0
 12 24  1  0
 24 25  1  0
  8  3  1  0
 25  9  1  0
 23 17  1  0
  1 26  1  0
  1 27  1  0
  1 28  1  0
  4 29  1  0
  5 30  1  0
  6 31  1  0
  7 32  1  0
 10 33  1  0
 10 34  1  0
 11 35  1  0
 11 36  1  0
 13 37  1  0
 13 38  1  0
 16 39  1  0
 18 40  1  0
 19 41  1  0
 21 42  1  0
 21 43  1  0
 21 44  1  0
 22 45  1  0
 23 46  1  0
 24 47  1  0
 24 48  1  0
 25 49  1  0
 25 50  1  0
M  END
>  <UniqueID>  (36) 
35

>  <SMILES>  (36) 
COc1ccccc1N1CCN(CC(=O)Nc2ccc(C)cc2)CC1

>  <Energy>  (36) 
65.06923275782685

>  <Genealogy>  (36) 
COc1ccccc1N1CCN(CC(=O)Nc2ccc(C)cc2)CC1 (3D coordinates assigned)
COc1ccccc1N1CCN(CC(=O)Nc2ccc(C)cc2)CC1 (nonaromatic ring conformer: 65.06923275782685 kcal/mol)

>  <smiles>  (36) 
COc1ccccc1N1CCN(CC(=O)Nc2ccc(C)cc2)CC1

>  <score_type>  (36) 
oracle

>  <origin>  (36) 
adg

>  <m_score__min__energy>  (36) 
-8.5600000000000005

>  <m_primary>  (36) 
energy

$$$$
36:0
     RDKit          3D

 37 39  0  0  0  0  0  0  0  0999 V2000
   59.6540   36.0420   46.6170 O   0  0  0  0  0  0  0  0  0  0  0  0
   59.5730   35.3550   45.5610 C   0  0  0  0  0  0  0  0  0  0  0  0
   59.0160   34.0210   45.5750 N   0  0  0  0  0  0  0  0  0  0  0  0
   57.8960   33.7520   44.6620 C   0  0  0  0  0  0  0  0  0  0  0  0
   57.0460   32.5910   45.1520 C   0  0  0  0  0  0  0  0  0  0  0  0
   57.9030   31.4390   45.4370 N   0  0  0  0  0  0  0  0  0  0  0  0
   57.4140   30.1040   45.2200 C   0  0  0  0  0  0  0  0  0  0  0  0
   56.2050   29.9210   44.9150 O   0  0  0  0  0  0  0  0  0  0  0  0
   58.3160   28.9130   45.3770 C   0  0  0  0  0  0  0  0  0  0  0  0
   59.5660   28.9790   44.5120 C   0  0  0  0  0  0  0  0  0  0  0  0
   58.4330   28.0310   44.1420 C   0  0  0  0  0  0  0  0  0  0  0  0
   59.0060   31.6380   46.3810 C   0  0  0  0  0  0  0  0  0  0  0  0
   59.8550   32.8830   46.0200 C   0  0  2  0  0  0  0  0  0  0  0  0
   60.7250   33.2480   47.2150 C   0  0  0  0  0  0  0  0  0  0  0  0
   60.1510   33.5070   48.4750 C   0  0  0  0  0  0  0  0  0  0  0  0
   60.9570   33.8550   49.5640 C   0  0  0  0  0  0  0  0  0  0  0  0
   62.3400   33.9440   49.4070 C   0  0  0  0  0  0  0  0  0  0  0  0
   62.9190   33.7030   48.1610 C   0  0  0  0  0  0  0  0  0  0  0  0
   62.1180   33.3550   47.0680 C   0  0  0  0  0  0  0  0  0  0  0  0
   59.9331   35.7794   44.6122 H   0  0  0  0  0  0  0  0  0  0  0  0
   57.2669   34.6517   44.5929 H   0  0  0  0  0  0  0  0  0  0  0  0
   58.3087   33.4869   43.6774 H   0  0  0  0  0  0  0  0  0  0  0  0
   56.5151   32.8876   46.0686 H   0  0  0  0  0  0  0  0  0  0  0  0
   56.3167   32.3195   44.3746 H   0  0  0  0  0  0  0  0  0  0  0  0
   58.1026   28.7291   46.4403 H   0  0  0  0  0  0  0  0  0  0  0  0
   59.7620   29.8688   43.8957 H   0  0  0  0  0  0  0  0  0  0  0  0
   60.6450   28.8677   44.6946 H   0  0  0  0  0  0  0  0  0  0  0  0
   57.8105   28.2360   43.2586 H   0  0  0  0  0  0  0  0  0  0  0  0
   58.3543   26.9513   43.9466 H   0  0  0  0  0  0  0  0  0  0  0  0
   58.5907   31.7709   47.3909 H   0  0  0  0  0  0  0  0  0  0  0  0
   59.6589   30.7539   46.3351 H   0  0  0  0  0  0  0  0  0  0  0  0
   60.5019   32.6397   45.1643 H   0  0  0  0  0  0  0  0  0  0  0  0
   59.0609   33.4351   48.6035 H   0  0  0  0  0  0  0  0  0  0  0  0
   60.5003   34.0584   50.5438 H   0  0  0  0  0  0  0  0  0  0  0  0
   62.9749   34.2045   50.2667 H   0  0  0  0  0  0  0  0  0  0  0  0
   64.0088   33.7868   48.0374 H   0  0  0  0  0  0  0  0  0  0  0  0
   62.5812   33.1642   46.0887 H   0  0  0  0  0  0  0  0  0  0  0  0
  1  2  2  0
  2  3  1  0
  3  4  1  0
  4  5  1  0
  5  6  1  0
  6  7  1  0
  7  8  2  0
  7  9  1  0
  9 10  1  0
 10 11  1  0
  6 12  1  0
 12 13  1  0
 13 14  1  0
 14 15  2  0
 15 16  1  0
 16 17  2  0
 17 18  1  0
 18 19  2  0
 13  3  1  0
 19 14  1  0
 11  9  1  0
  2 20  1  0
  4 21  1  0
  4 22  1  0
  5 23  1  0
  5 24  1  0
  9 25  1  0
 10 26  1  0
 10 27  1  0
 11 28  1  0
 11 29  1  0
 12 30  1  0
 12 31  1  0
 13 32  1  6
 15 33  1  0
 16 34  1  0
 17 35  1  0
 18 36  1  0
 19 37  1  0
M  END
>  <UniqueID>  (37) 
36

>  <SMILES>  (37) 
O=CN1CCN(C(=O)C2CC2)C[C@@H]1c1ccccc1

>  <Energy>  (37) 
305.56060399770564

>  <Genealogy>  (37) 
O=CN1CCN(C(=O)C2CC2)C[C@@H]1c1ccccc1 (chirality)
O=CN1CCN(C(=O)C2CC2)C[C@@H]1c1ccccc1 (3D coordinates assigned)
O=CN1CCN(C(=O)C2CC2)C[C@@H]1c1ccccc1 (nonaromatic ring conformer: 305.56060399770564 kcal/mol)

>  <smiles>  (37) 
O=CN1CCN(C(=O)C2CC2)CC1c1ccccc1

>  <score_type>  (37) 
oracle

>  <origin>  (37) 
adg

>  <m_score__min__energy>  (37) 
-6.75

>  <m_primary>  (37) 
energy

$$$$
37:0
     RDKit          3D

 37 38  0  0  0  0  0  0  0  0999 V2000
   57.0200   31.4990   51.5730 C   0  0  0  0  0  0  0  0  0  0  0  0
   57.6370   32.3220   50.5420 N   0  0  0  0  0  0  0  0  0  0  0  0
   59.0270   32.6670   50.5840 C   0  0  0  0  0  0  0  0  0  0  0  0
   59.7550   32.2690   51.5340 O   0  0  0  0  0  0  0  0  0  0  0  0
   59.6280   33.4950   49.4850 C   0  0  0  0  0  0  0  0  0  0  0  0
   58.7950   33.4210   48.2680 N   0  0  0  0  0  0  0  0  0  0  0  0
   59.1410   34.5210   47.3460 C   0  0  0  0  0  0  0  0  0  0  0  0
   58.2240   34.5310   46.1040 C   0  0  0  0  0  0  0  0  0  0  0  0
   57.3960   33.2490   45.9630 C   0  0  0  0  0  0  0  0  0  0  0  0
   58.2010   32.0780   46.3350 N   0  0  0  0  0  0  0  0  0  0  0  0
   58.1500   30.8560   45.5710 C   0  0  0  0  0  0  0  0  0  0  0  0
   57.0130   30.4990   44.9120 N   0  0  0  0  0  0  0  0  0  0  0  0
   56.9470   29.3510   44.1880 C   0  0  0  0  0  0  0  0  0  0  0  0
   58.0570   28.5030   44.1190 C   0  0  0  0  0  0  0  0  0  0  0  0
   58.0230   27.2550   43.2910 C   0  0  0  0  0  0  0  0  0  0  0  0
   59.2220   28.8910   44.7890 C   0  0  0  0  0  0  0  0  0  0  0  0
   59.2430   30.0470   45.5000 N   0  0  0  0  0  0  0  0  0  0  0  0
   58.9790   32.1230   47.5810 C   0  0  0  0  0  0  0  0  0  0  0  0
   57.3051   31.8792   52.5651 H   0  0  0  0  0  0  0  0  0  0  0  0
   55.9258   31.5368   51.4663 H   0  0  0  0  0  0  0  0  0  0  0  0
   57.3631   30.4593   51.4663 H   0  0  0  0  0  0  0  0  0  0  0  0
   57.0480   32.6670   49.7500 H   0  0  0  0  0  0  0  0  0  0  0  0
   59.6942   34.5421   49.8154 H   0  0  0  0  0  0  0  0  0  0  0  0
   60.6309   33.1064   49.2542 H   0  0  0  0  0  0  0  0  0  0  0  0
   59.0339   35.4786   47.8766 H   0  0  0  0  0  0  0  0  0  0  0  0
   60.1772   34.3733   47.0076 H   0  0  0  0  0  0  0  0  0  0  0  0
   57.5364   35.3860   46.1824 H   0  0  0  0  0  0  0  0  0  0  0  0
   58.8706   34.6053   45.2172 H   0  0  0  0  0  0  0  0  0  0  0  0
   56.5179   33.3099   46.6227 H   0  0  0  0  0  0  0  0  0  0  0  0
   57.0748   33.1441   44.9162 H   0  0  0  0  0  0  0  0  0  0  0  0
   56.0205   29.0886   43.6562 H   0  0  0  0  0  0  0  0  0  0  0  0
   57.9991   26.3765   43.9526 H   0  0  0  0  0  0  0  0  0  0  0  0
   57.1247   27.2605   42.6562 H   0  0  0  0  0  0  0  0  0  0  0  0
   58.9203   27.2116   42.6562 H   0  0  0  0  0  0  0  0  0  0  0  0
   60.1211   28.2592   44.7397 H   0  0  0  0  0  0  0  0  0  0  0  0
   58.6439   31.3126   48.2451 H   0  0  0  0  0  0  0  0  0  0  0  0
   60.0445   32.0011   47.3364 H   0  0  0  0  0  0  0  0  0  0  0  0
  1  2  1  0
  2  3  1  0
  3  4  2  0
  3  5  1  0
  5  6  1  0
  6  7  1  0
  7  8  1  0
  8  9  1  0
  9 10  1  0
 10 11  1  0
 11 12  2  0
 12 13  1  0
 13 14  2  0
 14 15  1  0
 14 16  1  0
 16 17  2  0
 10 18  1  0
 18  6  1  0
 17 11  1  0
  1 19  1  0
  1 20  1  0
  1 21  1  0
  2 22  1  0
  5 23  1  0
  5 24  1  0
  7 25  1  0
  7 26  1  0
  8 27  1  0
  8 28  1  0
  9 29  1  0
  9 30  1  0
 13 31  1  0
 15 32  1  0
 15 33  1  0
 15 34  1  0
 16 35  1  0
 18 36  1  0
 18 37  1  0
M  END
>  <UniqueID>  (38) 
37

>  <SMILES>  (38) 
CNC(=O)CN1CCCN(c2ncc(C)cn2)C1

>  <Energy>  (38) 
36.3704579882006

>  <Genealogy>  (38) 
CNC(=O)CN1CCCN(c2ncc(C)cn2)C1 (3D coordinates assigned)
CNC(=O)CN1CCCN(c2ncc(C)cn2)C1 (nonaromatic ring conformer: 36.3704579882006 kcal/mol)

>  <smiles>  (38) 
CNC(=O)CN1CCCN(c2ncc(C)cn2)C1

>  <score_type>  (38) 
oracle

>  <origin>  (38) 
adg

>  <m_score__min__energy>  (38) 
-5.7300000000000004

>  <m_primary>  (38) 
energy

$$$$
38:0
     RDKit          3D

 58 60  0  0  0  0  0  0  0  0999 V2000
   60.0520   28.3930   46.4180 C   0  0  0  0  0  0  0  0  0  0  0  0
   60.2230   28.8640   44.9760 C   0  0  0  0  0  0  0  0  0  0  0  0
   58.9170   28.9960   44.3090 N   0  0  0  0  0  0  0  0  0  0  0  0
   58.2590   27.6920   44.1020 C   0  0  0  0  0  0  0  0  0  0  0  0
   57.0440   27.4700   45.0190 C   0  0  0  0  0  0  0  0  0  0  0  0
   56.0940   28.5900   44.8970 N   0  0  0  0  0  0  0  0  0  0  0  0
   56.2230   29.3410   43.6320 C   0  0  0  0  0  0  0  0  0  0  0  0
   56.5130   30.8440   43.8260 C   0  0  2  0  0  0  0  0  0  0  0  0
   57.7280   31.3400   43.0620 C   0  0  0  0  0  0  0  0  0  0  0  0
   58.1490   32.5190   43.8820 C   0  0  0  0  0  0  0  0  0  0  0  0
   57.6820   32.1420   45.3030 C   0  0  0  0  0  0  0  0  0  0  0  0
   57.0930   33.3640   46.0390 C   0  0  0  0  0  0  0  0  0  0  0  0
   58.1540   34.4520   46.3220 C   0  0  0  0  0  0  0  0  0  0  0  0
   59.5370   33.9390   46.2000 N   0  0  0  0  0  0  0  0  0  0  0  0
   60.5030   34.9220   46.7300 C   0  0  0  0  0  0  0  0  0  0  0  0
   61.6580   34.2150   47.3880 C   0  0  0  0  0  0  0  0  0  0  0  0
   61.7300   34.1460   48.7900 C   0  0  0  0  0  0  0  0  0  0  0  0
   62.8080   33.5050   49.4080 C   0  0  0  0  0  0  0  0  0  0  0  0
   63.8190   32.9300   48.6340 C   0  0  0  0  0  0  0  0  0  0  0  0
   63.7540   32.9950   47.2390 C   0  0  0  0  0  0  0  0  0  0  0  0
   62.6790   33.6360   46.6160 C   0  0  0  0  0  0  0  0  0  0  0  0
   59.6700   32.6350   46.8780 C   0  0  0  0  0  0  0  0  0  0  0  0
   58.8520   31.5550   46.1400 C   0  0  0  0  0  0  0  0  0  0  0  0
   56.6760   31.1520   45.1920 O   0  0  0  0  0  0  0  0  0  0  0  0
   60.3452   29.2007   47.1048 H   0  0  0  0  0  0  0  0  0  0  0  0
   58.9995   28.1260   46.5941 H   0  0  0  0  0  0  0  0  0  0  0  0
   60.6880   27.5130   46.5941 H   0  0  0  0  0  0  0  0  0  0  0  0
   60.7292   29.8406   44.9736 H   0  0  0  0  0  0  0  0  0  0  0  0
   60.8226   28.1197   44.4315 H   0  0  0  0  0  0  0  0  0  0  0  0
   58.2950   29.6370   44.8560 H   0  0  0  0  0  0  0  0  0  0  0  0
   59.0680   29.4270   43.3660 H   0  0  0  0  0  0  0  0  0  0  0  0
   57.9224   27.6330   43.0564 H   0  0  0  0  0  0  0  0  0  0  0  0
   58.9967   26.9131   44.3451 H   0  0  0  0  0  0  0  0  0  0  0  0
   56.5402   26.5351   44.7324 H   0  0  0  0  0  0  0  0  0  0  0  0
   57.3910   27.4097   46.0611 H   0  0  0  0  0  0  0  0  0  0  0  0
   56.1850   29.2240   45.7250 H   0  0  0  0  0  0  0  0  0  0  0  0
   57.0465   28.9013   43.0502 H   0  0  0  0  0  0  0  0  0  0  0  0
   55.2549   29.2660   43.1151 H   0  0  0  0  0  0  0  0  0  0  0  0
   55.6339   31.3622   43.4152 H   0  0  0  0  0  0  0  0  0  0  0  0
   58.5177   30.5751   43.0263 H   0  0  0  0  0  0  0  0  0  0  0  0
   57.5221   31.5821   42.0089 H   0  0  0  0  0  0  0  0  0  0  0  0
   59.2401   32.6543   43.8479 H   0  0  0  0  0  0  0  0  0  0  0  0
   57.7232   33.4682   43.5247 H   0  0  0  0  0  0  0  0  0  0  0  0
   56.2972   33.8004   45.4175 H   0  0  0  0  0  0  0  0  0  0  0  0
   56.7045   33.0158   47.0074 H   0  0  0  0  0  0  0  0  0  0  0  0
   58.0176   35.2735   45.6032 H   0  0  0  0  0  0  0  0  0  0  0  0
   58.0142   34.7943   47.3580 H   0  0  0  0  0  0  0  0  0  0  0  0
   60.8802   35.5424   45.9036 H   0  0  0  0  0  0  0  0  0  0  0  0
   59.9984   35.5545   47.4752 H   0  0  0  0  0  0  0  0  0  0  0  0
   60.9359   34.5976   49.4028 H   0  0  0  0  0  0  0  0  0  0  0  0
   62.8602   33.4533   50.5055 H   0  0  0  0  0  0  0  0  0  0  0  0
   64.6662   32.4261   49.1222 H   0  0  0  0  0  0  0  0  0  0  0  0
   64.5500   32.5410   46.6305 H   0  0  0  0  0  0  0  0  0  0  0  0
   62.6325   33.6871   45.5182 H   0  0  0  0  0  0  0  0  0  0  0  0
   60.7297   32.3404   46.8909 H   0  0  0  0  0  0  0  0  0  0  0  0
   59.2893   32.7285   47.9058 H   0  0  0  0  0  0  0  0  0  0  0  0
   59.5251   31.0068   45.4644 H   0  0  0  0  0  0  0  0  0  0  0  0
   58.4111   30.8983   46.9044 H   0  0  0  0  0  0  0  0  0  0  0  0
  1  2  1  0
  2  3  1  0
  3  4  1  0
  4  5  1  0
  5  6  1  0
  6  7  1  0
  7  8  1  0
  8  9  1  0
  9 10  1  0
 10 11  1  0
 11 12  1  0
 12 13  1  0
 13 14  1  0
 14 15  1  0
 15 16  1  0
 16 17  2  0
 17 18  1  0
 18 19  2  0
 19 20  1  0
 20 21  2  0
 14 22  1  0
 22 23  1  0
 11 24  1  0
 24  8  1  0
 23 11  1  0
 21 16  1  0
  1 25  1  0
  1 26  1  0
  1 27  1  0
  2 28  1  0
  2 29  1  0
  3 30  1  0
  3 31  1  0
  4 32  1  0
  4 33  1  0
  5 34  1  0
  5 35  1  0
  6 36  1  0
  7 37  1  0
  7 38  1  0
  8 39  1  6
  9 40  1  0
  9 41  1  0
 10 42  1  0
 10 43  1  0
 12 44  1  0
 12 45  1  0
 13 46  1  0
 13 47  1  0
 15 48  1  0
 15 49  1  0
 17 50  1  0
 18 51  1  0
 19 52  1  0
 20 53  1  0
 21 54  1  0
 22 55  1  0
 22 56  1  0
 23 57  1  0
 23 58  1  0
M  CHG  1   3   1
M  END
>  <UniqueID>  (39) 
38

>  <SMILES>  (39) 
CC[NH2+]CCNC[C@@H]1CCC2(CCN(Cc3ccccc3)CC2)O1

>  <Energy>  (39) 
63.99636935361377

>  <Genealogy>  (39) 
CC[NH2+]CCNCC1CCC2(CCN(Cc3ccccc3)CC2)O1 (protonated)
CC[NH2+]CCNC[C@@H]1CCC2(CCN(Cc3ccccc3)CC2)O1 (chirality)
CC[NH2+]CCNC[C@@H]1CCC2(CCN(Cc3ccccc3)CC2)O1 (3D coordinates assigned)
CC[NH2+]CCNC[C@@H]1CCC2(CCN(Cc3ccccc3)CC2)O1 (nonaromatic ring conformer: 63.99636935361377 kcal/mol)

>  <smiles>  (39) 
CCNCCNCC1CCC2(CCN(Cc3ccccc3)CC2)O1

>  <score_type>  (39) 
oracle

>  <origin>  (39) 
adg

>  <m_score__min__energy>  (39) 
-7.3300000000000001

>  <m_primary>  (39) 
energy

$$$$
39:0
     RDKit          3D

 46 47  0  0  0  0  0  0  0  0999 V2000
   54.9240   25.2000   45.6580 C   0  0  0  0  0  0  0  0  0  0  0  0
   55.1910   26.5940   45.9930 N   0  0  0  0  0  0  0  0  0  0  0  0
   56.8970   26.9030   45.9010 S   0  0  0  0  0  0  0  0  0  0  0  0
   57.5010   26.8290   47.2770 O   0  0  0  0  0  0  0  0  0  0  0  0
   57.5420   25.8540   45.0410 O   0  0  0  0  0  0  0  0  0  0  0  0
   57.1940   28.4890   45.1930 C   0  0  0  0  0  0  0  0  0  0  0  0
   58.4770   29.0530   45.2160 C   0  0  0  0  0  0  0  0  0  0  0  0
   58.7000   30.3190   44.6700 C   0  0  0  0  0  0  0  0  0  0  0  0
   57.6400   31.0410   44.0980 C   0  0  0  0  0  0  0  0  0  0  0  0
   57.8850   32.4160   43.5160 C   0  0  0  0  0  0  0  0  0  0  0  0
   57.7380   33.4900   44.5310 N   0  0  2  0  0  0  0  0  0  0  0  0
   58.9310   34.3850   44.5740 C   0  0  0  0  0  0  0  0  0  0  0  0
   59.9250   33.9890   45.6750 C   0  0  0  0  0  0  0  0  0  0  0  0
   59.2960   34.0890   47.0970 C   0  0  2  0  0  0  0  0  0  0  0  0
   59.9810   33.1660   48.0560 N   0  0  0  0  0  0  0  0  0  0  0  0
   60.2330   33.8180   49.3610 C   0  0  0  0  0  0  0  0  0  0  0  0
   61.2780   32.7020   47.5160 C   0  0  0  0  0  0  0  0  0  0  0  0
   57.7580   33.8320   47.0080 C   0  0  0  0  0  0  0  0  0  0  0  0
   57.4130   32.8870   45.8520 C   0  0  0  0  0  0  0  0  0  0  0  0
   56.3560   30.4730   44.0760 C   0  0  0  0  0  0  0  0  0  0  0  0
   56.1350   29.2070   44.6230 C   0  0  0  0  0  0  0  0  0  0  0  0
   54.8121   24.6155   46.5831 H   0  0  0  0  0  0  0  0  0  0  0  0
   53.9972   25.1355   45.0691 H   0  0  0  0  0  0  0  0  0  0  0  0
   55.7614   24.7975   45.0691 H   0  0  0  0  0  0  0  0  0  0  0  0
   59.3120   28.4960   45.6661 H   0  0  0  0  0  0  0  0  0  0  0  0
   59.7108   30.7526   44.6881 H   0  0  0  0  0  0  0  0  0  0  0  0
   58.9061   32.4512   43.1085 H   0  0  0  0  0  0  0  0  0  0  0  0
   57.1341   32.5887   42.7310 H   0  0  0  0  0  0  0  0  0  0  0  0
   56.9150   34.0810   44.2620 H   0  0  0  0  0  0  0  0  0  0  0  0
   59.4436   34.3361   43.6020 H   0  0  0  0  0  0  0  0  0  0  0  0
   58.5769   35.4029   44.7944 H   0  0  0  0  0  0  0  0  0  0  0  0
   60.2500   32.9522   45.5031 H   0  0  0  0  0  0  0  0  0  0  0  0
   60.7745   34.6864   45.6309 H   0  0  0  0  0  0  0  0  0  0  0  0
   59.4443   35.1047   47.4923 H   0  0  0  0  0  0  0  0  0  0  0  0
   59.9658   33.1268   50.1739 H   0  0  0  0  0  0  0  0  0  0  0  0
   61.2980   34.0821   49.4394 H   0  0  0  0  0  0  0  0  0  0  0  0
   59.6225   34.7296   49.4394 H   0  0  0  0  0  0  0  0  0  0  0  0
   61.9558   32.4595   48.3477 H   0  0  0  0  0  0  0  0  0  0  0  0
   61.1187   31.8051   46.8994 H   0  0  0  0  0  0  0  0  0  0  0  0
   61.7238   33.4964   46.8994 H   0  0  0  0  0  0  0  0  0  0  0  0
   57.4154   33.3825   47.9517 H   0  0  0  0  0  0  0  0  0  0  0  0
   57.2568   34.7946   46.8285 H   0  0  0  0  0  0  0  0  0  0  0  0
   57.9869   31.9560   45.9695 H   0  0  0  0  0  0  0  0  0  0  0  0
   56.3311   32.6903   45.8818 H   0  0  0  0  0  0  0  0  0  0  0  0
   55.5199   31.0280   43.6256 H   0  0  0  0  0  0  0  0  0  0  0  0
   55.1248   28.7719   44.6061 H   0  0  0  0  0  0  0  0  0  0  0  0
  1  2  1  0
  2  3  1  0
  3  4  2  0
  3  5  2  0
  3  6  1  0
  6  7  2  0
  7  8  1  0
  8  9  2  0
  9 10  1  0
 10 11  1  0
 11 12  1  0
 12 13  1  0
 13 14  1  0
 14 15  1  0
 15 16  1  0
 15 17  1  0
 14 18  1  0
 18 19  1  0
  9 20  1  0
 20 21  2  0
 21  6  1  0
 19 11  1  0
  1 22  1  0
  1 23  1  0
  1 24  1  0
  7 25  1  0
  8 26  1  0
 10 27  1  0
 10 28  1  0
 11 29  1  6
 12 30  1  0
 12 31  1  0
 13 32  1  0
 13 33  1  0
 14 34  1  1
 16 35  1  0
 16 36  1  0
 16 37  1  0
 17 38  1  0
 17 39  1  0
 17 40  1  0
 18 41  1  0
 18 42  1  0
 19 43  1  0
 19 44  1  0
 20 45  1  0
 21 46  1  0
M  CHG  2   2  -1  11   1
M  END
>  <UniqueID>  (40) 
39

>  <SMILES>  (40) 
C[N-]S(=O)(=O)c1ccc(C[NH+]2CCC(N(C)C)CC2)cc1

>  <Energy>  (40) 
59.73374169485614

>  <Genealogy>  (40) 
C[N-]S(=O)(=O)c1ccc(C[NH+]2CCC(N(C)C)CC2)cc1 (protonated)
C[N-]S(=O)(=O)c1ccc(C[NH+]2CCC(N(C)C)CC2)cc1 (3D coordinates assigned)
C[N-]S(=O)(=O)c1ccc(C[NH+]2CCC(N(C)C)CC2)cc1 (nonaromatic ring conformer: 59.73374169485614 kcal/mol)

>  <smiles>  (40) 
CNS(=O)(=O)c1ccc(CN2CCC(N(C)C)CC2)cc1

>  <score_type>  (40) 
oracle

>  <origin>  (40) 
adg

>  <m_score__min__energy>  (40) 
-8.2599999999999998

>  <m_primary>  (40) 
energy

$$$$
40:0
     RDKit          3D

 51 53  0  0  0  0  0  0  0  0999 V2000
   60.4046   26.9601   48.3264 H   0  0  0  0  0  0  0  0  0  0  0  0
   59.5710   27.6620   48.1770 C   0  0  0  0  0  0  0  0  0  0  0  0
   59.6430   28.9920   48.8180 C   0  0  0  0  0  0  0  0  0  0  0  0
   58.6880   29.3450   49.5580 O   0  0  0  0  0  0  0  0  0  0  0  0
   60.7760   29.9270   48.6150 C   0  0  0  0  0  0  0  0  0  0  0  0
   61.6110   30.2960   49.6840 C   0  0  0  0  0  0  0  0  0  0  0  0
   61.4161   29.8988   50.6911 H   0  0  0  0  0  0  0  0  0  0  0  0
   62.6860   31.1630   49.4770 C   0  0  0  0  0  0  0  0  0  0  0  0
   63.3215   31.4578   50.3251 H   0  0  0  0  0  0  0  0  0  0  0  0
   62.9610   31.6610   48.1930 C   0  0  0  0  0  0  0  0  0  0  0  0
   64.0530   32.5810   47.9840 N   0  0  0  0  0  0  0  0  0  0  0  0
   64.7370   32.5010   48.7730 H   0  0  0  0  0  0  0  0  0  0  0  0
   64.5530   32.3380   47.0970 H   0  0  0  0  0  0  0  0  0  0  0  0
   63.5420   33.9560   47.9070 C   0  0  0  0  0  0  0  0  0  0  0  0
   62.9350   34.0644   46.9961 H   0  0  0  0  0  0  0  0  0  0  0  0
   64.3965   34.6483   47.8832 H   0  0  0  0  0  0  0  0  0  0  0  0
   62.6800   34.2850   49.1250 C   0  0  0  0  0  0  0  0  0  0  0  0
   63.2455   34.0692   50.0435 H   0  0  0  0  0  0  0  0  0  0  0  0
   62.4072   35.3504   49.1042 H   0  0  0  0  0  0  0  0  0  0  0  0
   61.7667   33.6722   49.1042 H   0  0  0  0  0  0  0  0  0  0  0  0
   62.1320   31.2870   47.1220 C   0  0  0  0  0  0  0  0  0  0  0  0
   62.3308   31.6795   46.1138 H   0  0  0  0  0  0  0  0  0  0  0  0
   61.0560   30.4190   47.3300 C   0  0  0  0  0  0  0  0  0  0  0  0
   60.4242   30.1193   46.4809 H   0  0  0  0  0  0  0  0  0  0  0  0
   58.5330   27.2740   47.4210 C   0  0  0  0  0  0  0  0  0  0  0  0
   57.9451   26.4050   47.7514 H   0  0  0  0  0  0  0  0  0  0  0  0
   58.1350   27.9530   46.1640 C   0  0  0  0  0  0  0  0  0  0  0  0
   58.2570   27.2510   44.9540 C   0  0  0  0  0  0  0  0  0  0  0  0
   58.6413   26.2203   44.9570 H   0  0  0  0  0  0  0  0  0  0  0  0
   57.8940   27.8520   43.7470 C   0  0  0  0  0  0  0  0  0  0  0  0
   57.9970   27.2951   42.8040 H   0  0  0  0  0  0  0  0  0  0  0  0
   57.4010   29.1570   43.7340 C   0  0  0  0  0  0  0  0  0  0  0  0
   57.1242   29.6263   42.7784 H   0  0  0  0  0  0  0  0  0  0  0  0
   57.2560   29.8730   44.9260 C   0  0  0  0  0  0  0  0  0  0  0  0
   56.7570   31.1840   44.8560 O   0  0  0  0  0  0  0  0  0  0  0  0
   57.4650   32.3130   44.3400 C   0  0  0  0  0  0  0  0  0  0  0  0
   58.1970   31.9692   43.5944 H   0  0  0  0  0  0  0  0  0  0  0  0
   56.7414   33.0011   43.8787 H   0  0  0  0  0  0  0  0  0  0  0  0
   58.1880   33.0420   45.4410 C   0  0  0  0  0  0  0  0  0  0  0  0
   58.1360   32.5560   46.7580 C   0  0  0  0  0  0  0  0  0  0  0  0
   57.5674   31.6416   46.9827 H   0  0  0  0  0  0  0  0  0  0  0  0
   58.8050   33.2310   47.7850 C   0  0  0  0  0  0  0  0  0  0  0  0
   58.7574   32.8488   48.8154 H   0  0  0  0  0  0  0  0  0  0  0  0
   59.5330   34.3890   47.5040 C   0  0  0  0  0  0  0  0  0  0  0  0
   60.0547   34.9204   48.3136 H   0  0  0  0  0  0  0  0  0  0  0  0
   59.5990   34.8730   46.1950 C   0  0  0  0  0  0  0  0  0  0  0  0
   60.1753   35.7836   45.9746 H   0  0  0  0  0  0  0  0  0  0  0  0
   58.9330   34.2010   45.1640 C   0  0  0  0  0  0  0  0  0  0  0  0
   58.9928   34.5811   44.1335 H   0  0  0  0  0  0  0  0  0  0  0  0
   57.6100   29.2600   46.1450 C   0  0  0  0  0  0  0  0  0  0  0  0
   57.4751   29.8071   47.0897 H   0  0  0  0  0  0  0  0  0  0  0  0
  1  2  1  0
  2  3  1  0
  3  4  2  0
  3  5  1  0
  5  6  2  0
  6  7  1  0
  6  8  1  0
  8  9  1  0
  8 10  2  0
 10 11  1  0
 11 12  1  0
 11 13  1  0
 11 14  1  0
 14 15  1  0
 14 16  1  0
 14 17  1  0
 17 18  1  0
 17 19  1  0
 17 20  1  0
 10 21  1  0
 21 22  1  0
 21 23  2  0
 23 24  1  0
  2 25  2  0
 25 26  1  0
 25 27  1  0
 27 28  2  0
 28 29  1  0
 28 30  1  0
 30 31  1  0
 30 32  2  0
 32 33  1  0
 32 34  1  0
 34 35  1  0
 35 36  1  0
 36 37  1  0
 36 38  1  0
 36 39  1  0
 39 40  2  0
 40 41  1  0
 40 42  1  0
 42 43  1  0
 42 44  2  0
 44 45  1  0
 44 46  1  0
 46 47  1  0
 46 48  2  0
 48 49  1  0
 34 50  2  0
 50 51  1  0
 23  5  1  0
 50 27  1  0
 48 39  1  0
M  CHG  1  11   1
M  END
>  <UniqueID>  (41) 
40

>  <SMILES>  (41) 
CC[NH2+]c1ccc(C(=O)/C=C/c2cccc(OCc3ccccc3)c2)cc1

>  <Energy>  (41) 
57.38387390239601

>  <Genealogy>  (41) 
CC[NH2+]c1ccc(C(=O)C=Cc2cccc(OCc3ccccc3)c2)cc1 (protonated)
CC[NH2+]c1ccc(C(=O)/C=C/c2cccc(OCc3ccccc3)c2)cc1 (cis-trans isomerization)
CC[NH2+]c1ccc(C(=O)/C=C/c2cccc(OCc3ccccc3)c2)cc1 (3D coordinates assigned)
CC[NH2+]c1ccc(C(=O)/C=C/c2cccc(OCc3ccccc3)c2)cc1 (optimized conformer: 57.38387390239601 kcal/mol)

>  <smiles>  (41) 
CCNc1ccc(C(=O)C=Cc2cccc(OCc3ccccc3)c2)cc1

>  <score_type>  (41) 
oracle

>  <origin>  (41) 
adg

>  <m_score__min__energy>  (41) 
-8

>  <m_primary>  (41) 
energy

$$$$
41:0
     RDKit          3D

 50 52  0  0  0  0  0  0  0  0999 V2000
   55.0570   24.1860   45.1320 C   0  0  0  0  0  0  0  0  0  0  0  0
   55.3170   25.2450   46.0480 O   0  0  0  0  0  0  0  0  0  0  0  0
   56.5580   25.8880   46.1880 C   0  0  0  0  0  0  0  0  0  0  0  0
   57.0300   26.8200   45.2430 C   0  0  0  0  0  0  0  0  0  0  0  0
   58.2530   27.4780   45.4350 C   0  0  0  0  0  0  0  0  0  0  0  0
   59.0190   27.1890   46.5720 C   0  0  0  0  0  0  0  0  0  0  0  0
   58.5740   26.2310   47.4930 C   0  0  0  0  0  0  0  0  0  0  0  0
   57.3370   25.5870   47.3150 C   0  0  0  0  0  0  0  0  0  0  0  0
   56.8410   24.6510   48.2380 O   0  0  0  0  0  0  0  0  0  0  0  0
   56.6510   23.2670   47.9620 C   0  0  0  0  0  0  0  0  0  0  0  0
   60.3040   27.9330   46.8010 C   0  0  0  0  0  0  0  0  0  0  0  0
   60.2030   29.3190   46.3090 N   0  0  0  0  0  0  0  0  0  0  0  0
   59.2250   30.1270   47.0700 C   0  0  0  0  0  0  0  0  0  0  0  0
   59.0880   31.4950   46.4430 C   0  0  0  0  0  0  0  0  0  0  0  0
   57.9870   31.8030   45.6100 C   0  0  0  0  0  0  0  0  0  0  0  0
   57.0290   30.8090   45.3420 O   0  0  0  0  0  0  0  0  0  0  0  0
   56.3550   30.6390   44.0970 C   0  0  0  0  0  0  0  0  0  0  0  0
   57.8710   33.0970   45.0700 C   0  0  0  0  0  0  0  0  0  0  0  0
   58.8360   34.0660   45.3460 C   0  0  0  0  0  0  0  0  0  0  0  0
   59.9320   33.7600   46.1530 C   0  0  0  0  0  0  0  0  0  0  0  0
   60.0710   32.4730   46.7050 C   0  0  0  0  0  0  0  0  0  0  0  0
   61.1650   32.1330   47.5190 O   0  0  0  0  0  0  0  0  0  0  0  0
   62.4930   32.6180   47.3380 C   0  0  0  0  0  0  0  0  0  0  0  0
   59.9470   29.3390   44.8530 C   0  0  0  0  0  0  0  0  0  0  0  0
   58.7160   28.4970   44.4150 C   0  0  0  0  0  0  0  0  0  0  0  0
   54.8310   23.2655   45.6903 H   0  0  0  0  0  0  0  0  0  0  0  0
   54.1973   24.4514   44.4991 H   0  0  0  0  0  0  0  0  0  0  0  0
   55.9418   24.0231   44.4991 H   0  0  0  0  0  0  0  0  0  0  0  0
   56.4324   27.0338   44.3446 H   0  0  0  0  0  0  0  0  0  0  0  0
   59.1984   25.9806   48.3633 H   0  0  0  0  0  0  0  0  0  0  0  0
   56.5747   22.7115   48.9084 H   0  0  0  0  0  0  0  0  0  0  0  0
   55.7259   23.1324   47.3822 H   0  0  0  0  0  0  0  0  0  0  0  0
   57.5055   22.8880   47.3822 H   0  0  0  0  0  0  0  0  0  0  0  0
   60.5244   27.9483   47.8786 H   0  0  0  0  0  0  0  0  0  0  0  0
   61.1089   27.4224   46.2520 H   0  0  0  0  0  0  0  0  0  0  0  0
   58.2480   29.6217   47.0596 H   0  0  0  0  0  0  0  0  0  0  0  0
   59.5759   30.2377   48.1066 H   0  0  0  0  0  0  0  0  0  0  0  0
   55.3037   30.3738   44.2824 H   0  0  0  0  0  0  0  0  0  0  0  0
   56.4010   31.5769   43.5241 H   0  0  0  0  0  0  0  0  0  0  0  0
   56.8403   29.8351   43.5241 H   0  0  0  0  0  0  0  0  0  0  0  0
   57.0144   33.3461   44.4264 H   0  0  0  0  0  0  0  0  0  0  0  0
   58.7321   35.0769   44.9250 H   0  0  0  0  0  0  0  0  0  0  0  0
   60.6915   34.5286   46.3589 H   0  0  0  0  0  0  0  0  0  0  0  0
   62.9583   32.7879   48.3201 H   0  0  0  0  0  0  0  0  0  0  0  0
   63.0809   31.8765   46.7771 H   0  0  0  0  0  0  0  0  0  0  0  0
   62.4647   33.5638   46.7771 H   0  0  0  0  0  0  0  0  0  0  0  0
   59.7796   30.3819   44.5457 H   0  0  0  0  0  0  0  0  0  0  0  0
   60.8273   28.8905   44.3693 H   0  0  0  0  0  0  0  0  0  0  0  0
   57.8822   29.1864   44.2161 H   0  0  0  0  0  0  0  0  0  0  0  0
   59.0278   27.9285   43.5264 H   0  0  0  0  0  0  0  0  0  0  0  0
  1  2  1  0
  2  3  1  0
  3  4  2  0
  4  5  1  0
  5  6  2  0
  6  7  1  0
  7  8  2  0
  8  9  1  0
  9 10  1  0
  6 11  1  0
 11 12  1  0
 12 13  1  0
 13 14  1  0
 14 15  2  0
 15 16  1  0
 16 17  1  0
 15 18  1  0
 18 19  2  0
 19 20  1  0
 20 21  2  0
 21 22  1  0
 22 23  1  0
 12 24  1  0
 24 25  1  0
  8  3  1  0
 21 14  1  0
 25  5  1  0
  1 26  1  0
  1 27  1  0
  1 28  1  0
  4 29  1  0
  7 30  1  0
 10 31  1  0
 10 32  1  0
 10 33  1  0
 11 34  1  0
 11 35  1  0
 13 36  1  0
 13 37  1  0
 17 38  1  0
 17 39  1  0
 17 40  1  0
 18 41  1  0
 19 42  1  0
 20 43  1  0
 23 44  1  0
 23 45  1  0
 23 46  1  0
 24 47  1  0
 24 48  1  0
 25 49  1  0
 25 50  1  0
M  END
>  <UniqueID>  (42) 
41

>  <SMILES>  (42) 
COc1cc2c(cc1OC)CN(Cc1c(OC)cccc1OC)CC2

>  <Energy>  (42) 
58.66004483924361

>  <Genealogy>  (42) 
COc1cc2c(cc1OC)CN(Cc1c(OC)cccc1OC)CC2 (3D coordinates assigned)
COc1cc2c(cc1OC)CN(Cc1c(OC)cccc1OC)CC2 (nonaromatic ring conformer: 58.66004483924361 kcal/mol)

>  <smiles>  (42) 
COc1cc2c(cc1OC)CN(Cc1c(OC)cccc1OC)CC2

>  <score_type>  (42) 
oracle

>  <origin>  (42) 
adg

>  <m_score__min__energy>  (42) 
-6.7800000000000002

>  <m_primary>  (42) 
energy

$$$$
42:0
     RDKit          3D

 47 49  0  0  1  0  0  0  0  0999 V2000
   56.7990   20.7130   43.0040 C   0  0  0  0  0  0  0  0  0  0  0  0
   55.9200   21.7930   43.1070 O   0  0  0  0  0  0  0  0  0  0  0  0
   56.3380   22.9740   43.6910 C   0  0  0  0  0  0  0  0  0  0  0  0
   56.0900   23.1600   45.0190 C   0  0  0  0  0  0  0  0  0  0  0  0
   56.4890   24.3340   45.6580 C   0  0  0  0  0  0  0  0  0  0  0  0
   57.1440   25.3510   44.9950 C   0  0  0  0  0  0  0  0  0  0  0  0
   57.5700   26.5870   45.6430 C   0  0  0  0  0  0  0  0  0  0  0  0
   58.5050   26.5500   46.6570 C   0  0  0  0  0  0  0  0  0  0  0  0
   58.9400   27.7140   47.3050 C   0  0  0  0  0  0  0  0  0  0  0  0
   59.8510   27.6580   48.2920 N   0  0  0  0  0  0  0  0  0  0  0  0
   60.2500   28.8130   48.8970 C   0  0  0  0  0  0  0  0  0  0  0  0
   59.7430   30.0120   48.5200 N   0  0  0  0  0  0  0  0  0  0  0  0
   60.1520   31.2580   49.1500 C   0  0  0  0  0  0  0  0  0  0  0  0
   58.8280   30.1110   47.5360 C   0  0  0  0  0  0  0  0  0  0  0  0
   58.3340   31.1920   47.1570 O   0  0  0  0  0  0  0  0  0  0  0  0
   58.4330   28.9360   46.9310 C   0  0  0  0  0  0  0  0  0  0  0  0
   57.5020   28.9400   45.9150 C   0  0  0  0  0  0  0  0  0  0  0  0
   57.0120   30.0410   45.5430 N   0  0  0  0  0  0  0  0  0  0  0  0
   57.3070   30.7420   44.3250 C   0  0  0  0  0  0  0  0  0  0  0  0
   58.7760   30.2870   44.1110 C   0  0  0  0  0  0  0  0  0  0  0  0
   57.4080   32.2190   44.4020 C   0  0  0  0  0  0  0  0  0  0  0  0
   56.6620   30.1810   43.0930 C   0  0  0  0  0  0  0  0  0  0  0  0
   57.0970   27.8020   45.3060 N   0  0  0  0  0  0  0  0  0  0  0  0
   57.3810   25.1270   43.6380 C   0  0  0  0  0  0  0  0  0  0  0  0
   56.9850   23.9650   43.0050 C   0  0  0  0  0  0  0  0  0  0  0  0
   57.0781   20.3701   44.0112 H   0  0  0  0  0  0  0  0  0  0  0  0
   56.3091   19.8921   42.4598 H   0  0  0  0  0  0  0  0  0  0  0  0
   57.7023   21.0260   42.4598 H   0  0  0  0  0  0  0  0  0  0  0  0
   55.5707   22.3773   45.5914 H   0  0  0  0  0  0  0  0  0  0  0  0
   56.2734   24.4532   46.7301 H   0  0  0  0  0  0  0  0  0  0  0  0
   58.9207   25.5794   46.9655 H   0  0  0  0  0  0  0  0  0  0  0  0
   60.9958   28.7709   49.7045 H   0  0  0  0  0  0  0  0  0  0  0  0
   60.1150   31.1453   50.2436 H   0  0  0  0  0  0  0  0  0  0  0  0
   61.1785   31.5053   48.8414 H   0  0  0  0  0  0  0  0  0  0  0  0
   59.4718   32.0655   48.8414 H   0  0  0  0  0  0  0  0  0  0  0  0
   59.2594   30.1373   45.0877 H   0  0  0  0  0  0  0  0  0  0  0  0
   58.7889   29.3428   43.5469 H   0  0  0  0  0  0  0  0  0  0  0  0
   59.3204   31.0586   43.5469 H   0  0  0  0  0  0  0  0  0  0  0  0
   57.4293   32.5306   45.4567 H   0  0  0  0  0  0  0  0  0  0  0  0
   58.3309   32.5499   43.9032 H   0  0  0  0  0  0  0  0  0  0  0  0
   56.5388   32.6725   43.9032 H   0  0  0  0  0  0  0  0  0  0  0  0
   55.8614   29.4846   43.3830 H   0  0  0  0  0  0  0  0  0  0  0  0
   56.2363   31.0011   42.4961 H   0  0  0  0  0  0  0  0  0  0  0  0
   57.4152   29.6457   42.4961 H   0  0  0  0  0  0  0  0  0  0  0  0
   56.4050   27.8900   44.5630 H   0  0  0  0  0  0  0  0  0  0  0  0
   57.9000   25.9010   43.0536 H   0  0  0  0  0  0  0  0  0  0  0  0
   57.1931   23.8345   41.9328 H   0  0  0  0  0  0  0  0  0  0  0  0
  1  2  1  0
  2  3  1  0
  3  4  2  0
  4  5  1  0
  5  6  2  0
  6  7  1  0
  7  8  2  0
  8  9  1  0
  9 10  1  0
 10 11  2  0
 11 12  1  0
 12 13  1  0
 12 14  1  0
 14 15  2  0
 14 16  1  0
 16 17  1  0
 17 18  2  0
 18 19  1  0
 19 20  1  0
 19 21  1  0
 19 22  1  0
 17 23  1  0
  6 24  1  0
 24 25  2  0
 25  3  1  0
 23  7  1  0
 16  9  2  0
  1 26  1  0
  1 27  1  0
  1 28  1  0
  4 29  1  0
  5 30  1  0
  8 31  1  0
 11 32  1  0
 13 33  1  0
 13 34  1  0
 13 35  1  0
 20 36  1  0
 20 37  1  0
 20 38  1  0
 21 39  1  0
 21 40  1  0
 21 41  1  0
 22 42  1  0
 22 43  1  0
 22 44  1  0
 23 45  1  0
 24 46  1  0
 25 47  1  0
M  END
>  <smiles>  (43) 
COc1ccc(-c2cc3ncn(C)c(=O)c3c(=NC(C)(C)C)[nH]2)cc1

>  <score_type>  (43) 
oracle

>  <origin>  (43) 
adg

>  <m_score__min__energy>  (43) 
-7.7000000000000002

>  <m_primary>  (43) 
energy

$$$$
43:0
     RDKit          3D

 34 36  0  0  0  0  0  0  0  0999 V2000
   57.4030   32.3270   43.2000 O   0  0  0  0  0  0  0  0  0  0  0  0
   57.5800   32.0140   44.4070 C   0  0  0  0  0  0  0  0  0  0  0  0
   56.9020   30.8640   44.9280 N   0  0  0  0  0  0  0  0  0  0  0  0
   57.4150   29.5250   44.9600 C   0  0  0  0  0  0  0  0  0  0  0  0
   57.6080   28.8420   43.7510 C   0  0  0  0  0  0  0  0  0  0  0  0
   58.1250   27.5430   43.7490 C   0  0  0  0  0  0  0  0  0  0  0  0
   58.4660   26.9230   44.9540 C   0  0  0  0  0  0  0  0  0  0  0  0
   58.3000   27.6040   46.1630 C   0  0  0  0  0  0  0  0  0  0  0  0
   58.6460   27.0080   47.3300 F   0  0  0  0  0  0  0  0  0  0  0  0
   57.7840   28.9050   46.1680 C   0  0  0  0  0  0  0  0  0  0  0  0
   58.4260   32.8740   45.2580 C   0  0  0  0  0  0  0  0  0  0  0  0
   58.3220   34.2440   45.4210 C   0  0  0  0  0  0  0  0  0  0  0  0
   59.3480   34.5970   46.2730 C   0  0  0  0  0  0  0  0  0  0  0  0
   59.6330   35.8980   46.6790 O   0  0  0  0  0  0  0  0  0  0  0  0
   60.0700   33.5140   46.6340 N   0  0  0  0  0  0  0  0  0  0  0  0
   61.2190   33.4760   47.5020 C   0  0  0  0  0  0  0  0  0  0  0  0
   61.1940   34.1400   48.7410 C   0  0  0  0  0  0  0  0  0  0  0  0
   62.3080   34.1100   49.5850 C   0  0  0  0  0  0  0  0  0  0  0  0
   63.4620   33.4220   49.1980 C   0  0  0  0  0  0  0  0  0  0  0  0
   64.8600   33.3870   50.2560 Cl  0  0  0  0  0  0  0  0  0  0  0  0
   63.5010   32.7660   47.9630 C   0  0  0  0  0  0  0  0  0  0  0  0
   62.3880   32.7930   47.1180 C   0  0  0  0  0  0  0  0  0  0  0  0
   59.5170   32.4560   46.0020 C   0  0  0  0  0  0  0  0  0  0  0  0
   57.3514   29.3305   42.7994 H   0  0  0  0  0  0  0  0  0  0  0  0
   58.2635   27.0084   42.7977 H   0  0  0  0  0  0  0  0  0  0  0  0
   58.8654   25.8981   44.9509 H   0  0  0  0  0  0  0  0  0  0  0  0
   57.6666   29.4445   47.1194 H   0  0  0  0  0  0  0  0  0  0  0  0
   57.5764   34.9126   44.9660 H   0  0  0  0  0  0  0  0  0  0  0  0
   59.0110   36.3940   47.3060 H   0  0  0  0  0  0  0  0  0  0  0  0
   60.2908   34.6874   49.0487 H   0  0  0  0  0  0  0  0  0  0  0  0
   62.2766   34.6283   50.5547 H   0  0  0  0  0  0  0  0  0  0  0  0
   64.4098   32.2276   47.6562 H   0  0  0  0  0  0  0  0  0  0  0  0
   62.4260   32.2773   46.1471 H   0  0  0  0  0  0  0  0  0  0  0  0
   59.8785   31.4192   46.0682 H   0  0  0  0  0  0  0  0  0  0  0  0
  1  2  2  0
  2  3  1  0
  3  4  1  0
  4  5  2  0
  5  6  1  0
  6  7  2  0
  7  8  1  0
  8  9  1  0
  8 10  2  0
  2 11  1  0
 11 12  1  0
 12 13  2  0
 13 14  1  0
 13 15  1  0
 15 16  1  0
 16 17  2  0
 17 18  1  0
 18 19  2  0
 19 20  1  0
 19 21  1  0
 21 22  2  0
 15 23  1  0
 10  4  1  0
 23 11  2  0
 22 16  1  0
  5 24  1  0
  6 25  1  0
  7 26  1  0
 10 27  1  0
 12 28  1  0
 14 29  1  0
 17 30  1  0
 18 31  1  0
 21 32  1  0
 22 33  1  0
 23 34  1  0
M  CHG  1   3  -1
M  END
>  <UniqueID>  (44) 
42

>  <SMILES>  (44) 
O=C([N-]c1cccc(F)c1)c1cc(O)n(-c2ccc(Cl)cc2)c1

>  <Energy>  (44) 
72.8983885301237

>  <Genealogy>  (44) 
O=C([N-]c1cccc(F)c1)c1cc(O)n(-c2ccc(Cl)cc2)c1 (protonated)
O=C([N-]c1cccc(F)c1)c1cc(O)n(-c2ccc(Cl)cc2)c1 (3D coordinates assigned)
O=C([N-]c1cccc(F)c1)c1cc(O)n(-c2ccc(Cl)cc2)c1 (optimized conformer: 72.8983885301237 kcal/mol)

>  <smiles>  (44) 
O=C(Nc1cccc(F)c1)c1cc(O)n(-c2ccc(Cl)cc2)c1

>  <score_type>  (44) 
oracle

>  <origin>  (44) 
adg

>  <m_score__min__energy>  (44) 
-8.9299999999999997

>  <m_primary>  (44) 
energy

$$$$
44:0
     RDKit          3D

 40 42  0  0  0  0  0  0  0  0999 V2000
   59.5380   22.2190   44.8190 C   0  0  0  0  0  0  0  0  0  0  0  0
   59.0560   22.9180   45.9610 O   0  0  0  0  0  0  0  0  0  0  0  0
   58.2450   24.0630   45.9040 C   0  0  0  0  0  0  0  0  0  0  0  0
   56.8670   24.0370   46.2620 C   0  0  0  0  0  0  0  0  0  0  0  0
   56.0860   25.2030   46.1890 C   0  0  0  0  0  0  0  0  0  0  0  0
   56.7030   26.3760   45.7620 C   0  0  0  0  0  0  0  0  0  0  0  0
   56.1400   27.5860   45.6100 N   0  0  0  0  0  0  0  0  0  0  0  0
   57.1300   28.4010   45.1740 C   0  0  0  0  0  0  0  0  0  0  0  0
   56.9220   29.8230   44.8420 C   0  0  0  0  0  0  0  0  0  0  0  0
   55.7660   30.2060   44.5170 O   0  0  0  0  0  0  0  0  0  0  0  0
   58.0000   30.7770   44.8930 N   0  0  0  0  0  0  0  0  0  0  0  0
   58.0160   31.9130   43.9640 C   0  0  0  0  0  0  0  0  0  0  0  0
   57.7780   33.2350   44.7160 C   0  0  0  0  0  0  0  0  0  0  0  0
   58.3500   33.2290   46.1590 C   0  0  0  0  0  0  0  0  0  0  0  0
   58.8420   34.6230   46.5630 C   0  0  0  0  0  0  0  0  0  0  0  0
   59.4710   32.1860   46.3230 C   0  0  0  0  0  0  0  0  0  0  0  0
   58.9320   30.7750   46.0340 C   0  0  0  0  0  0  0  0  0  0  0  0
   58.3260   27.6960   45.0330 C   0  0  0  0  0  0  0  0  0  0  0  0
   58.0270   26.4080   45.4190 C   0  0  0  0  0  0  0  0  0  0  0  0
   58.8300   25.2700   45.4740 C   0  0  0  0  0  0  0  0  0  0  0  0
   60.1346   21.3537   45.1435 H   0  0  0  0  0  0  0  0  0  0  0  0
   58.6866   21.8716   44.2154 H   0  0  0  0  0  0  0  0  0  0  0  0
   60.1654   22.8913   44.2154 H   0  0  0  0  0  0  0  0  0  0  0  0
   56.4094   23.0951   46.5989 H   0  0  0  0  0  0  0  0  0  0  0  0
   55.0202   25.1895   46.4608 H   0  0  0  0  0  0  0  0  0  0  0  0
   55.1430   27.8420   45.7910 H   0  0  0  0  0  0  0  0  0  0  0  0
   58.9936   31.9545   43.4614 H   0  0  0  0  0  0  0  0  0  0  0  0
   57.2123   31.7769   43.2254 H   0  0  0  0  0  0  0  0  0  0  0  0
   58.2582   34.0489   44.1529 H   0  0  0  0  0  0  0  0  0  0  0  0
   56.6898   33.3742   44.7962 H   0  0  0  0  0  0  0  0  0  0  0  0
   57.5293   32.9441   46.8338 H   0  0  0  0  0  0  0  0  0  0  0  0
   58.8687   34.6987   47.6601 H   0  0  0  0  0  0  0  0  0  0  0  0
   59.8522   34.7865   46.1595 H   0  0  0  0  0  0  0  0  0  0  0  0
   58.1583   35.3844   46.1595 H   0  0  0  0  0  0  0  0  0  0  0  0
   60.2854   32.4147   45.6198 H   0  0  0  0  0  0  0  0  0  0  0  0
   59.8453   32.2218   47.3567 H   0  0  0  0  0  0  0  0  0  0  0  0
   59.7772   30.1095   45.8042 H   0  0  0  0  0  0  0  0  0  0  0  0
   58.3883   30.4240   46.9235 H   0  0  0  0  0  0  0  0  0  0  0  0
   59.2959   28.0842   44.6887 H   0  0  0  0  0  0  0  0  0  0  0  0
   59.8916   25.3134   45.1893 H   0  0  0  0  0  0  0  0  0  0  0  0
  1  2  1  0
  2  3  1  0
  3  4  2  0
  4  5  1  0
  5  6  2  0
  6  7  1  0
  7  8  1  0
  8  9  1  0
  9 10  2  0
  9 11  1  0
 11 12  1  0
 12 13  1  0
 13 14  1  0
 14 15  1  0
 14 16  1  0
 16 17  1  0
  8 18  2  0
 18 19  1  0
 19 20  2  0
 20  3  1  0
 19  6  1  0
 17 11  1  0
  1 21  1  0
  1 22  1  0
  1 23  1  0
  4 24  1  0
  5 25  1  0
  7 26  1  0
 12 27  1  0
 12 28  1  0
 13 29  1  0
 13 30  1  0
 14 31  1  0
 15 32  1  0
 15 33  1  0
 15 34  1  0
 16 35  1  0
 16 36  1  0
 17 37  1  0
 17 38  1  0
 18 39  1  0
 20 40  1  0
M  END
>  <UniqueID>  (45) 
43

>  <SMILES>  (45) 
COc1ccc2[nH]c(C(=O)N3CCC(C)CC3)cc2c1

>  <Energy>  (45) 
76.5310059774382

>  <Genealogy>  (45) 
COc1ccc2[nH]c(C(=O)N3CCC(C)CC3)cc2c1 (3D coordinates assigned)
COc1ccc2[nH]c(C(=O)N3CCC(C)CC3)cc2c1 (nonaromatic ring conformer: 76.5310059774382 kcal/mol)

>  <smiles>  (45) 
COc1ccc2[nH]c(C(=O)N3CCC(C)CC3)cc2c1

>  <score_type>  (45) 
oracle

>  <origin>  (45) 
adg

>  <m_score__min__energy>  (45) 
-8.0700000000000003

>  <m_primary>  (45) 
energy

$$$$
45:0
     RDKit          3D

 48 51  0  0  0  0  0  0  0  0999 V2000
   63.8510   33.3960   49.6270 C   0  0  0  0  0  0  0  0  0  0  0  0
   62.5100   33.8400   49.8020 O   0  0  0  0  0  0  0  0  0  0  0  0
   61.5380   33.8410   48.7910 C   0  0  0  0  0  0  0  0  0  0  0  0
   61.9410   33.5620   47.4800 C   0  0  0  0  0  0  0  0  0  0  0  0
   61.0100   33.5520   46.4370 C   0  0  0  0  0  0  0  0  0  0  0  0
   59.6610   33.8280   46.6940 C   0  0  0  0  0  0  0  0  0  0  0  0
   58.4850   33.7890   45.3880 S   0  0  0  0  0  0  0  0  0  0  0  0
   57.2090   34.4550   45.8250 O   0  0  0  0  0  0  0  0  0  0  0  0
   59.0170   34.5360   44.1970 O   0  0  0  0  0  0  0  0  0  0  0  0
   58.1660   32.1130   44.9560 C   0  0  0  0  0  0  0  0  0  0  0  0
   57.4570   31.8080   43.7890 C   0  0  0  0  0  0  0  0  0  0  0  0
   57.2260   30.4780   43.4340 C   0  0  0  0  0  0  0  0  0  0  0  0
   57.7050   29.4350   44.2420 C   0  0  0  0  0  0  0  0  0  0  0  0
   57.4900   28.1390   43.8930 N   0  0  0  0  0  0  0  0  0  0  0  0
   57.9480   27.1110   44.6620 C   0  0  0  0  0  0  0  0  0  0  0  0
   58.6400   27.3690   45.8240 N   0  0  0  0  0  0  0  0  0  0  0  0
   58.8980   28.6660   46.1950 C   0  0  0  0  0  0  0  0  0  0  0  0
   59.5660   28.9100   47.2380 O   0  0  0  0  0  0  0  0  0  0  0  0
   58.4250   29.7330   45.4130 C   0  0  0  0  0  0  0  0  0  0  0  0
   58.6560   31.0770   45.7630 C   0  0  0  0  0  0  0  0  0  0  0  0
   59.1470   26.2430   46.6400 C   0  0  0  0  0  0  0  0  0  0  0  0
   58.0110   25.5040   47.3690 C   0  0  0  0  0  0  0  0  0  0  0  0
   56.6970   25.3910   46.5760 C   0  0  0  0  0  0  0  0  0  0  0  0
   56.8660   24.8340   45.1490 C   0  0  0  0  0  0  0  0  0  0  0  0
   57.7310   25.6850   44.1890 C   0  0  0  0  0  0  0  0  0  0  0  0
   59.2490   34.1010   48.0050 C   0  0  0  0  0  0  0  0  0  0  0  0
   60.1790   34.1110   49.0480 C   0  0  0  0  0  0  0  0  0  0  0  0
   64.3175   33.2415   50.6111 H   0  0  0  0  0  0  0  0  0  0  0  0
   63.8536   32.4490   49.0673 H   0  0  0  0  0  0  0  0  0  0  0  0
   64.4182   34.1543   49.0673 H   0  0  0  0  0  0  0  0  0  0  0  0
   62.9992   33.3488   47.2685 H   0  0  0  0  0  0  0  0  0  0  0  0
   61.3379   33.3267   45.4115 H   0  0  0  0  0  0  0  0  0  0  0  0
   57.0802   32.6194   43.1489 H   0  0  0  0  0  0  0  0  0  0  0  0
   56.6657   30.2461   42.5163 H   0  0  0  0  0  0  0  0  0  0  0  0
   56.9700   27.9290   43.0100 H   0  0  0  0  0  0  0  0  0  0  0  0
   59.2239   31.3152   46.6744 H   0  0  0  0  0  0  0  0  0  0  0  0
   59.6676   25.5326   45.9810 H   0  0  0  0  0  0  0  0  0  0  0  0
   59.8289   26.6530   47.3996 H   0  0  0  0  0  0  0  0  0  0  0  0
   58.3588   24.4864   47.6005 H   0  0  0  0  0  0  0  0  0  0  0  0
   57.7804   26.1000   48.2643 H   0  0  0  0  0  0  0  0  0  0  0  0
   56.0172   24.7252   47.1279 H   0  0  0  0  0  0  0  0  0  0  0  0
   56.3019   26.4123   46.4718 H   0  0  0  0  0  0  0  0  0  0  0  0
   57.3295   23.8396   45.2281 H   0  0  0  0  0  0  0  0  0  0  0  0
   55.8568   24.8254   44.7115 H   0  0  0  0  0  0  0  0  0  0  0  0
   58.7132   25.2006   44.0854 H   0  0  0  0  0  0  0  0  0  0  0  0
   57.1878   25.7431   43.2343 H   0  0  0  0  0  0  0  0  0  0  0  0
   58.1892   34.3083   48.2141 H   0  0  0  0  0  0  0  0  0  0  0  0
   59.8488   34.3306   50.0740 H   0  0  0  0  0  0  0  0  0  0  0  0
  1  2  1  0
  2  3  1  0
  3  4  2  0
  4  5  1  0
  5  6  2  0
  6  7  1  0
  7  8  2  0
  7  9  2  0
  7 10  1  0
 10 11  2  0
 11 12  1  0
 12 13  2  0
 13 14  1  0
 14 15  2  0
 15 16  1  0
 16 17  1  0
 17 18  2  0
 17 19  1  0
 19 20  2  0
 16 21  1  0
 21 22  1  0
 22 23  1  0
 23 24  1  0
 24 25  1  0
  6 26  1  0
 26 27  2  0
 27  3  1  0
 20 10  1  0
 19 13  1  0
 25 15  1  0
  1 28  1  0
  1 29  1  0
  1 30  1  0
  4 31  1  0
  5 32  1  0
 11 33  1  0
 12 34  1  0
 14 35  1  0
 20 36  1  0
 21 37  1  0
 21 38  1  0
 22 39  1  0
 22 40  1  0
 23 41  1  0
 23 42  1  0
 24 43  1  0
 24 44  1  0
 25 45  1  0
 25 46  1  0
 26 47  1  0
 27 48  1  0
M  CHG  1  14   1
M  END
>  <UniqueID>  (46) 
44

>  <SMILES>  (46) 
COc1ccc(S(=O)(=O)c2ccc3[nH+]c4n(c(=O)c3c2)CCCCC4)cc1

>  <Energy>  (46) 
66.31000857865665

>  <Genealogy>  (46) 
COc1ccc(S(=O)(=O)c2ccc3[nH+]c4n(c(=O)c3c2)CCCCC4)cc1 (protonated)
COc1ccc(S(=O)(=O)c2ccc3[nH+]c4n(c(=O)c3c2)CCCCC4)cc1 (3D coordinates assigned)
COc1ccc(S(=O)(=O)c2ccc3[nH+]c4n(c(=O)c3c2)CCCCC4)cc1 (nonaromatic ring conformer: 66.31000857865665 kcal/mol)

>  <smiles>  (46) 
COc1ccc(S(=O)(=O)c2ccc3nc4n(c(=O)c3c2)CCCCC4)cc1

>  <score_type>  (46) 
oracle

>  <origin>  (46) 
adg

>  <m_score__min__energy>  (46) 
-6.25

>  <m_primary>  (46) 
energy

$$$$
46:0
     RDKit          3D

 49 51  0  0  0  0  0  0  0  0999 V2000
   60.0628   31.1612   45.0751 H   0  0  0  0  0  0  0  0  0  0  0  0
   59.2080   30.7040   45.5950 C   0  0  0  0  0  0  0  0  0  0  0  0
   57.9740   30.9830   45.1330 C   0  0  0  0  0  0  0  0  0  0  0  0
   57.5180   32.7100   44.9250 S   0  0  0  0  0  0  0  0  0  0  0  0
   58.6850   33.2830   46.1620 C   0  0  0  0  0  0  0  0  0  0  0  0
   58.3610   33.2130   47.5210 C   0  0  0  0  0  0  0  0  0  0  0  0
   57.3902   32.8002   47.8327 H   0  0  0  0  0  0  0  0  0  0  0  0
   59.2670   33.6660   48.4840 C   0  0  0  0  0  0  0  0  0  0  0  0
   59.0041   33.6148   49.5509 H   0  0  0  0  0  0  0  0  0  0  0  0
   60.5160   34.1880   48.0930 C   0  0  0  0  0  0  0  0  0  0  0  0
   61.4580   34.6590   49.0200 O   0  0  0  0  0  0  0  0  0  0  0  0
   62.7270   34.0570   49.2500 C   0  0  0  0  0  0  0  0  0  0  0  0
   62.9025   33.9737   50.3327 H   0  0  0  0  0  0  0  0  0  0  0  0
   62.7447   33.0545   48.7975 H   0  0  0  0  0  0  0  0  0  0  0  0
   63.5146   34.6775   48.7975 H   0  0  0  0  0  0  0  0  0  0  0  0
   60.8370   34.2430   46.7310 C   0  0  0  0  0  0  0  0  0  0  0  0
   61.8108   34.6456   46.4153 H   0  0  0  0  0  0  0  0  0  0  0  0
   59.9290   33.7900   45.7700 C   0  0  0  0  0  0  0  0  0  0  0  0
   60.1928   33.8321   44.7029 H   0  0  0  0  0  0  0  0  0  0  0  0
   56.9590   29.9480   44.8150 C   0  0  0  0  0  0  0  0  0  0  0  0
   55.7870   30.3150   44.5340 O   0  0  0  0  0  0  0  0  0  0  0  0
   57.2690   28.5000   44.8380 C   0  0  0  0  0  0  0  0  0  0  0  0
   57.0110   27.7430   45.9930 C   0  0  0  0  0  0  0  0  0  0  0  0
   56.6185   28.2370   46.8941 H   0  0  0  0  0  0  0  0  0  0  0  0
   57.2500   26.3660   46.0040 C   0  0  0  0  0  0  0  0  0  0  0  0
   57.0362   25.7788   46.9093 H   0  0  0  0  0  0  0  0  0  0  0  0
   57.7600   25.7340   44.8670 C   0  0  0  0  0  0  0  0  0  0  0  0
   58.0470   24.0030   44.8780 Cl  0  0  0  0  0  0  0  0  0  0  0  0
   58.0410   26.4820   43.7190 C   0  0  0  0  0  0  0  0  0  0  0  0
   58.4490   25.9857   42.8262 H   0  0  0  0  0  0  0  0  0  0  0  0
   57.8040   27.8590   43.7050 C   0  0  0  0  0  0  0  0  0  0  0  0
   58.0368   28.4451   42.8037 H   0  0  0  0  0  0  0  0  0  0  0  0
   59.4980   29.8250   46.7540 C   0  0  0  0  0  0  0  0  0  0  0  0
   59.0050   30.1630   48.0270 C   0  0  0  0  0  0  0  0  0  0  0  0
   58.3892   31.0662   48.1492 H   0  0  0  0  0  0  0  0  0  0  0  0
   59.2890   29.3630   49.1410 C   0  0  0  0  0  0  0  0  0  0  0  0
   58.8290   29.7820   50.5060 C   0  0  0  0  0  0  0  0  0  0  0  0
   59.4142   29.2490   51.2698 H   0  0  0  0  0  0  0  0  0  0  0  0
   58.9725   30.8661   50.6246 H   0  0  0  0  0  0  0  0  0  0  0  0
   57.7629   29.5382   50.6246 H   0  0  0  0  0  0  0  0  0  0  0  0
   60.0690   28.2120   48.9820 C   0  0  0  0  0  0  0  0  0  0  0  0
   60.3200   27.5953   49.8576 H   0  0  0  0  0  0  0  0  0  0  0  0
   60.5300   27.8430   47.7170 C   0  0  0  0  0  0  0  0  0  0  0  0
   61.1188   26.9213   47.5993 H   0  0  0  0  0  0  0  0  0  0  0  0
   60.2490   28.6380   46.5920 C   0  0  0  0  0  0  0  0  0  0  0  0
   60.7680   28.2180   45.2430 C   0  0  0  0  0  0  0  0  0  0  0  0
   61.6170   27.5310   45.3744 H   0  0  0  0  0  0  0  0  0  0  0  0
   59.9682   27.7099   44.6844 H   0  0  0  0  0  0  0  0  0  0  0  0
   61.0982   29.1062   44.6844 H   0  0  0  0  0  0  0  0  0  0  0  0
  1  2  1  0
  2  3  2  0
  3  4  1  0
  4  5  1  0
  5  6  2  0
  6  7  1  0
  6  8  1  0
  8  9  1  0
  8 10  2  0
 10 11  1  0
 11 12  1  0
 12 13  1  0
 12 14  1  0
 12 15  1  0
 10 16  1  0
 16 17  1  0
 16 18  2  0
 18 19  1  0
  3 20  1  0
 20 21  2  0
 20 22  1  0
 22 23  2  0
 23 24  1  0
 23 25  1  0
 25 26  1  0
 25 27  2  0
 27 28  1  0
 27 29  1  0
 29 30  1  0
 29 31  2  0
 31 32  1  0
  2 33  1  0
 33 34  2  0
 34 35  1  0
 34 36  1  0
 36 37  1  0
 37 38  1  0
 37 39  1  0
 37 40  1  0
 36 41  2  0
 41 42  1  0
 41 43  1  0
 43 44  1  0
 43 45  2  0
 45 46  1  0
 46 47  1  0
 46 48  1  0
 46 49  1  0
 18  5  1  0
 31 22  1  0
 45 33  1  0
M  END
>  <UniqueID>  (47) 
45

>  <SMILES>  (47) 
COc1ccc(S/C(=C/c2cc(C)ccc2C)C(=O)c2ccc(Cl)cc2)cc1

>  <Energy>  (47) 
55.05971672605933

>  <Genealogy>  (47) 
COc1ccc(S/C(=C/c2cc(C)ccc2C)C(=O)c2ccc(Cl)cc2)cc1 (cis-trans isomerization)
COc1ccc(S/C(=C/c2cc(C)ccc2C)C(=O)c2ccc(Cl)cc2)cc1 (3D coordinates assigned)
COc1ccc(S/C(=C/c2cc(C)ccc2C)C(=O)c2ccc(Cl)cc2)cc1 (optimized conformer: 55.05971672605933 kcal/mol)

>  <smiles>  (47) 
COc1ccc(SC(=Cc2cc(C)ccc2C)C(=O)c2ccc(Cl)cc2)cc1

>  <score_type>  (47) 
oracle

>  <origin>  (47) 
adg

>  <m_score__min__energy>  (47) 
-8.7899999999999991

>  <m_primary>  (47) 
energy

$$$$
47:0
     RDKit          3D

 38 39  0  0  0  0  0  0  0  0999 V2000
   56.2850   29.6190   42.6520 C   0  0  0  0  0  0  0  0  0  0  0  0
   55.1900   29.7270   43.7090 C   0  0  0  0  0  0  0  0  0  0  0  0
   55.5320   28.9740   44.8720 O   0  0  0  0  0  0  0  0  0  0  0  0
   56.8370   28.6550   45.2890 C   0  0  0  0  0  0  0  0  0  0  0  0
   57.2560   27.3280   45.5120 C   0  0  0  0  0  0  0  0  0  0  0  0
   58.5620   27.0610   45.9240 C   0  0  0  0  0  0  0  0  0  0  0  0
   59.4640   28.1070   46.1140 C   0  0  0  0  0  0  0  0  0  0  0  0
   59.0630   29.4250   45.8940 C   0  0  0  0  0  0  0  0  0  0  0  0
   57.7450   29.7100   45.4810 C   0  0  0  0  0  0  0  0  0  0  0  0
   57.2960   31.0210   45.2440 O   0  0  0  0  0  0  0  0  0  0  0  0
   58.0670   32.0740   44.6650 C   0  0  0  0  0  0  0  0  0  0  0  0
   57.3300   33.4220   44.8110 C   0  0  0  0  0  0  0  0  0  0  0  0
   57.9510   34.3650   45.7710 N   0  0  0  0  0  0  0  0  0  0  0  0
   58.1470   33.7970   47.1120 C   0  0  0  0  0  0  0  0  0  0  0  0
   59.6400   33.5910   47.3340 C   0  0  0  0  0  0  0  0  0  0  0  0
   60.3340   34.1780   46.1180 C   0  0  0  0  0  0  0  0  0  0  0  0
   59.2480   34.8930   45.3310 C   0  0  0  0  0  0  0  0  0  0  0  0
   57.2631   29.5225   43.1459 H   0  0  0  0  0  0  0  0  0  0  0  0
   56.1025   28.7345   42.0240 H   0  0  0  0  0  0  0  0  0  0  0  0
   56.2788   30.5221   42.0240 H   0  0  0  0  0  0  0  0  0  0  0  0
   55.0612   30.7832   43.9882 H   0  0  0  0  0  0  0  0  0  0  0  0
   54.2555   29.3247   43.2908 H   0  0  0  0  0  0  0  0  0  0  0  0
   56.5497   26.4984   45.3604 H   0  0  0  0  0  0  0  0  0  0  0  0
   58.8807   26.0229   46.0993 H   0  0  0  0  0  0  0  0  0  0  0  0
   60.4932   27.8928   46.4378 H   0  0  0  0  0  0  0  0  0  0  0  0
   59.7789   30.2466   46.0435 H   0  0  0  0  0  0  0  0  0  0  0  0
   59.0391   32.1350   45.1762 H   0  0  0  0  0  0  0  0  0  0  0  0
   58.2153   31.8619   43.5959 H   0  0  0  0  0  0  0  0  0  0  0  0
   57.3023   33.9064   43.8238 H   0  0  0  0  0  0  0  0  0  0  0  0
   56.3302   33.1890   45.2061 H   0  0  0  0  0  0  0  0  0  0  0  0
   57.7508   34.4888   47.8699 H   0  0  0  0  0  0  0  0  0  0  0  0
   57.6165   32.8371   47.1969 H   0  0  0  0  0  0  0  0  0  0  0  0
   59.9652   34.1115   48.2469 H   0  0  0  0  0  0  0  0  0  0  0  0
   59.8834   32.5256   47.4590 H   0  0  0  0  0  0  0  0  0  0  0  0
   61.1146   34.8886   46.4275 H   0  0  0  0  0  0  0  0  0  0  0  0
   60.8266   33.4000   45.5162 H   0  0  0  0  0  0  0  0  0  0  0  0
   59.2965   35.9747   45.5248 H   0  0  0  0  0  0  0  0  0  0  0  0
   59.3837   34.7267   44.2521 H   0  0  0  0  0  0  0  0  0  0  0  0
  1  2  1  0
  2  3  1  0
  3  4  1  0
  4  5  2  0
  5  6  1  0
  6  7  2  0
  7  8  1  0
  8  9  2  0
  9 10  1  0
 10 11  1  0
 11 12  1  0
 12 13  1  0
 13 14  1  0
 14 15  1  0
 15 16  1  0
 16 17  1  0
  9  4  1  0
 17 13  1  0
  1 18  1  0
  1 19  1  0
  1 20  1  0
  2 21  1  0
  2 22  1  0
  5 23  1  0
  6 24  1  0
  7 25  1  0
  8 26  1  0
 11 27  1  0
 11 28  1  0
 12 29  1  0
 12 30  1  0
 14 31  1  0
 14 32  1  0
 15 33  1  0
 15 34  1  0
 16 35  1  0
 16 36  1  0
 17 37  1  0
 17 38  1  0
M  END
>  <UniqueID>  (48) 
46

>  <SMILES>  (48) 
CCOc1ccccc1OCCN1CCCC1

>  <Energy>  (48) 
39.4899126576407

>  <Genealogy>  (48) 
CCOc1ccccc1OCCN1CCCC1 (3D coordinates assigned)
CCOc1ccccc1OCCN1CCCC1 (nonaromatic ring conformer: 39.4899126576407 kcal/mol)

>  <smiles>  (48) 
CCOc1ccccc1OCCN1CCCC1

>  <score_type>  (48) 
oracle

>  <origin>  (48) 
adg

>  <m_score__min__energy>  (48) 
-6.6699999999999999

>  <m_primary>  (48) 
energy

$$$$
