0:0
     RDKit          3D

 51 55  0  0  0  0  0  0  0  0999 V2000
   58.5730   32.6580   49.6030 C   0  0  0  0  0  0  0  0  0  0  0  0
   59.3280   33.7650   49.1210 O   0  0  0  0  0  0  0  0  0  0  0  0
   60.6620   33.6900   48.6880 C   0  0  0  0  0  0  0  0  0  0  0  0
   61.7430   33.6620   49.5900 C   0  0  0  0  0  0  0  0  0  0  0  0
   63.0670   33.5820   49.1230 C   0  0  0  0  0  0  0  0  0  0  0  0
   64.1920   33.5500   50.0900 C   0  0  0  0  0  0  0  0  0  0  0  0
   65.3300   32.7650   49.8460 C   0  0  0  0  0  0  0  0  0  0  0  0
   66.3750   32.7400   50.7710 C   0  0  0  0  0  0  0  0  0  0  0  0
   66.2750   33.5000   51.9370 C   0  0  0  0  0  0  0  0  0  0  0  0
   65.1660   34.2520   52.1660 N   0  0  0  0  0  0  0  0  0  0  0  0
   64.1340   34.2930   51.2820 C   0  0  0  0  0  0  0  0  0  0  0  0
   63.3040   33.5390   47.7360 C   0  0  0  0  0  0  0  0  0  0  0  0
   64.5700   33.5050   47.2470 F   0  0  0  0  0  0  0  0  0  0  0  0
   62.2340   33.5670   46.8390 C   0  0  0  0  0  0  0  0  0  0  0  0
   60.9170   33.6440   47.3080 C   0  0  0  0  0  0  0  0  0  0  0  0
   59.8260   33.6790   46.3660 N   0  0  0  0  0  0  0  0  0  0  0  0
   59.4840   34.8850   45.8060 C   0  0  0  0  0  0  0  0  0  0  0  0
   60.1070   35.9380   46.1170 O   0  0  0  0  0  0  0  0  0  0  0  0
   58.4450   34.9690   44.8780 C   0  0  0  0  0  0  0  0  0  0  0  0
   57.7490   33.8220   44.5140 C   0  0  0  0  0  0  0  0  0  0  0  0
   58.0880   32.5910   45.0800 C   0  0  0  0  0  0  0  0  0  0  0  0
   57.3880   31.4300   44.7200 C   0  0  0  0  0  0  0  0  0  0  0  0
   57.7210   30.1970   45.2910 C   0  0  0  0  0  0  0  0  0  0  0  0
   56.8360   28.7360   44.8620 S   0  0  0  0  0  0  0  0  0  0  0  0
   57.3180   28.2500   43.5250 O   0  0  0  0  0  0  0  0  0  0  0  0
   55.3610   29.0080   44.7750 O   0  0  0  0  0  0  0  0  0  0  0  0
   57.1210   27.5100   46.0540 N   0  0  0  0  0  0  0  0  0  0  0  0
   56.4500   26.4020   46.1000 C   0  0  0  0  0  0  0  0  0  0  0  0
   57.0040   25.1560   46.2670 C   0  0  0  0  0  0  0  0  0  0  0  0
   55.9070   24.3200   46.2520 C   0  0  0  0  0  0  0  0  0  0  0  0
   54.8240   25.0480   46.0910 O   0  0  0  0  0  0  0  0  0  0  0  0
   55.1100   26.3140   45.9940 N   0  0  0  0  0  0  0  0  0  0  0  0
   58.7550   30.1260   46.2290 C   0  0  0  0  0  0  0  0  0  0  0  0
   59.4600   31.2740   46.5950 C   0  0  0  0  0  0  0  0  0  0  0  0
   59.1440   32.5280   46.0250 C   0  0  0  0  0  0  0  0  0  0  0  0
   58.5764   32.6630   50.7030 H   0  0  0  0  0  0  0  0  0  0  0  0
   57.5377   32.7340   49.2392 H   0  0  0  0  0  0  0  0  0  0  0  0
   59.0217   31.7219   49.2392 H   0  0  0  0  0  0  0  0  0  0  0  0
   61.5496   33.7032   50.6721 H   0  0  0  0  0  0  0  0  0  0  0  0
   65.3983   32.1686   48.9243 H   0  0  0  0  0  0  0  0  0  0  0  0
   67.2688   32.1271   50.5826 H   0  0  0  0  0  0  0  0  0  0  0  0
   67.0940   33.4906   52.6712 H   0  0  0  0  0  0  0  0  0  0  0  0
   63.2500   34.9101   51.5003 H   0  0  0  0  0  0  0  0  0  0  0  0
   62.4272   33.5283   45.7568 H   0  0  0  0  0  0  0  0  0  0  0  0
   58.1776   35.9401   44.4358 H   0  0  0  0  0  0  0  0  0  0  0  0
   56.9316   33.8839   43.7805 H   0  0  0  0  0  0  0  0  0  0  0  0
   56.5724   31.4894   43.9843 H   0  0  0  0  0  0  0  0  0  0  0  0
   58.0648   24.8897   46.3842 H   0  0  0  0  0  0  0  0  0  0  0  0
   55.9338   23.2254   46.3573 H   0  0  0  0  0  0  0  0  0  0  0  0
   59.0152   29.1581   46.6822 H   0  0  0  0  0  0  0  0  0  0  0  0
   60.2704   31.2017   47.3352 H   0  0  0  0  0  0  0  0  0  0  0  0
  1  2  1  0
  2  3  1  0
  3  4  2  0
  4  5  1  0
  5  6  1  0
  6  7  2  0
  7  8  1  0
  8  9  2  0
  9 10  1  0
 10 11  2  0
  5 12  2  0
 12 13  1  0
 12 14  1  0
 14 15  2  0
 15 16  1  0
 16 17  1  0
 17 18  2  0
 17 19  1  0
 19 20  2  0
 20 21  1  0
 21 22  2  0
 22 23  1  0
 23 24  1  0
 24 25  2  0
 24 26  2  0
 24 27  1  0
 27 28  2  3
 28 29  1  0
 29 30  2  0
 30 31  1  0
 31 32  1  0
 23 33  2  0
 33 34  1  0
 34 35  2  0
 15  3  1  0
 35 16  1  0
 11  6  1  0
 35 21  1  0
 32 28  1  0
  1 36  1  0
  1 37  1  0
  1 38  1  0
  4 39  1  0
  7 40  1  0
  8 41  1  0
  9 42  1  0
 11 43  1  0
 14 44  1  0
 19 45  1  0
 20 46  1  0
 22 47  1  0
 29 48  1  0
 30 49  1  0
 33 50  1  0
 34 51  1  0
M  CHG  1  32  -1
M  END
>  <UniqueID>  (1) 
1

>  <SMILES>  (1) 
COc1cc(-c2cccnc2)c(F)cc1-n1c(=O)ccc2cc(S(=O)(=O)N=c3cco[n-]3)ccc21

>  <Energy>  (1) 
113.02136779641553

>  <Genealogy>  (1) 
COc1cc(-c2cccnc2)c(F)cc1-n1c(=O)ccc2cc(S(=O)(=O)N=c3cco[n-]3)ccc21 (protonated)
COc1cc(-c2cccnc2)c(F)cc1-n1c(=O)ccc2cc(S(=O)(=O)N=c3cco[n-]3)ccc21 (3D coordinates assigned)
COc1cc(-c2cccnc2)c(F)cc1-n1c(=O)ccc2cc(S(=O)(=O)N=c3cco[n-]3)ccc21 (optimized conformer: 113.02136779641553 kcal/mol)

>  <smiles>  (1) 
COc1cc(-c2cccnc2)c(F)cc1-n1c(=O)ccc2cc(S(=O)(=O)N=c3cco[nH]3)ccc21

>  <score_type>  (1) 
oracle

>  <origin>  (1) 
adg

>  <m_score__min__energy>  (1) 
-12.949999999999999

>  <m_primary>  (1) 
energy

$$$$
1:0
     RDKit          3D

 37 39  0  0  0  0  0  0  0  0999 V2000
   60.6720   28.9260   44.8810 C   0  0  0  0  0  0  0  0  0  0  0  0
   60.0480   28.5230   46.2180 C   0  0  0  0  0  0  0  0  0  0  0  0
   59.9830   29.6990   47.2030 C   0  0  0  0  0  0  0  0  0  0  0  0
   58.5760   30.3170   47.3260 C   0  0  0  0  0  0  0  0  0  0  0  0
   58.3570   31.3610   46.3050 N   0  0  0  0  0  0  0  0  0  0  0  0
   58.8000   32.6440   46.4420 C   0  0  0  0  0  0  0  0  0  0  0  0
   59.3460   33.2490   47.5830 C   0  0  0  0  0  0  0  0  0  0  0  0
   59.7660   34.5890   47.4940 C   0  0  0  0  0  0  0  0  0  0  0  0
   59.6440   35.2990   46.2810 C   0  0  0  0  0  0  0  0  0  0  0  0
   59.1010   34.6770   45.1460 C   0  0  0  0  0  0  0  0  0  0  0  0
   58.6890   33.3500   45.2650 C   0  0  0  0  0  0  0  0  0  0  0  0
   58.1510   32.4880   44.3490 C   0  0  0  0  0  0  0  0  0  0  0  0
   57.8540   32.6700   43.0070 C   0  0  0  0  0  0  0  0  0  0  0  0
   57.3070   31.5890   42.3180 C   0  0  0  0  0  0  0  0  0  0  0  0
   57.0400   30.3850   42.9970 C   0  0  0  0  0  0  0  0  0  0  0  0
   57.3150   30.2380   44.3380 N   0  0  0  0  0  0  0  0  0  0  0  0
   56.8480   29.0160   44.9960 C   0  0  0  0  0  0  0  0  0  0  0  0
   57.9290   31.2850   45.0000 C   0  0  0  0  0  0  0  0  0  0  0  0
   61.5831   29.5144   45.0642 H   0  0  0  0  0  0  0  0  0  0  0  0
   60.9281   28.0222   44.3086 H   0  0  0  0  0  0  0  0  0  0  0  0
   59.9536   29.5312   44.3086 H   0  0  0  0  0  0  0  0  0  0  0  0
   59.0272   28.1555   46.0365 H   0  0  0  0  0  0  0  0  0  0  0  0
   60.6801   27.7415   46.6649 H   0  0  0  0  0  0  0  0  0  0  0  0
   60.2944   29.3405   48.1952 H   0  0  0  0  0  0  0  0  0  0  0  0
   60.6499   30.4838   46.8165 H   0  0  0  0  0  0  0  0  0  0  0  0
   57.8241   29.5248   47.1953 H   0  0  0  0  0  0  0  0  0  0  0  0
   58.4858   30.7794   48.3200 H   0  0  0  0  0  0  0  0  0  0  0  0
   59.4437   32.6895   48.5251 H   0  0  0  0  0  0  0  0  0  0  0  0
   60.1928   35.0869   48.3771 H   0  0  0  0  0  0  0  0  0  0  0  0
   59.9763   36.3461   46.2244 H   0  0  0  0  0  0  0  0  0  0  0  0
   59.0036   35.2186   44.1936 H   0  0  0  0  0  0  0  0  0  0  0  0
   58.0428   33.6306   42.5054 H   0  0  0  0  0  0  0  0  0  0  0  0
   57.0840   31.6765   41.2444 H   0  0  0  0  0  0  0  0  0  0  0  0
   56.6014   29.5419   42.4431 H   0  0  0  0  0  0  0  0  0  0  0  0
   56.8974   29.1453   46.0873 H   0  0  0  0  0  0  0  0  0  0  0  0
   55.8089   28.8130   44.6975 H   0  0  0  0  0  0  0  0  0  0  0  0
   57.4869   28.1717   44.6975 H   0  0  0  0  0  0  0  0  0  0  0  0
  1  2  1  0
  2  3  1  0
  3  4  1  0
  4  5  1  0
  5  6  1  0
  6  7  2  0
  7  8  1  0
  8  9  2  0
  9 10  1  0
 10 11  2  0
 11 12  1  0
 12 13  2  0
 13 14  1  0
 14 15  2  0
 15 16  1  0
 16 17  1  0
 16 18  2  0
 18  5  1  0
 11  6  1  0
 18 12  1  0
  1 19  1  0
  1 20  1  0
  1 21  1  0
  2 22  1  0
  2 23  1  0
  3 24  1  0
  3 25  1  0
  4 26  1  0
  4 27  1  0
  7 28  1  0
  8 29  1  0
  9 30  1  0
 10 31  1  0
 13 32  1  0
 14 33  1  0
 15 34  1  0
 17 35  1  0
 17 36  1  0
 17 37  1  0
M  CHG  1  16   1
M  END
>  <UniqueID>  (2) 
2

>  <SMILES>  (2) 
CCCCn1c2ccccc2c2ccc[n+](C)c21

>  <Energy>  (2) 
86.73268343487823

>  <Genealogy>  (2) 
CCCCn1c2ccccc2c2ccc[n+](C)c21 (3D coordinates assigned)
CCCCn1c2ccccc2c2ccc[n+](C)c21 (optimized conformer: 86.73268343487823 kcal/mol)

>  <smiles>  (2) 
CCCCn1c2ccccc2c2ccc[n+](C)c21

>  <score_type>  (2) 
oracle

>  <origin>  (2) 
adg

>  <m_score__min__energy>  (2) 
-5.04

>  <m_primary>  (2) 
energy

$$$$
2:0
     RDKit          3D

 43 45  0  0  0  0  0  0  0  0999 V2000
   57.7410   31.9570   42.5840 C   0  0  0  0  0  0  0  0  0  0  0  0
   57.7430   33.1480   43.3640 O   0  0  0  0  0  0  0  0  0  0  0  0
   58.3130   33.2560   44.6420 C   0  0  0  0  0  0  0  0  0  0  0  0
   58.7930   34.4750   45.1530 C   0  0  0  0  0  0  0  0  0  0  0  0
   59.3510   34.5340   46.4340 C   0  0  0  0  0  0  0  0  0  0  0  0
   59.4330   33.3760   47.2320 C   0  0  0  0  0  0  0  0  0  0  0  0
   60.0310   33.4140   48.5920 C   0  0  0  0  0  0  0  0  0  0  0  0
   61.4170   33.4130   48.7910 C   0  0  0  0  0  0  0  0  0  0  0  0
   61.9180   33.4560   50.0990 C   0  0  0  0  0  0  0  0  0  0  0  0
   63.3840   33.4620   50.3400 C   0  0  0  0  0  0  0  0  0  0  0  0
   64.2500   32.7180   49.5160 C   0  0  0  0  0  0  0  0  0  0  0  0
   65.6290   32.7270   49.7490 C   0  0  0  0  0  0  0  0  0  0  0  0
   66.1570   33.4760   50.8020 C   0  0  0  0  0  0  0  0  0  0  0  0
   65.3070   34.2180   51.6260 C   0  0  0  0  0  0  0  0  0  0  0  0
   63.9270   34.2120   51.3980 C   0  0  0  0  0  0  0  0  0  0  0  0
   61.0470   33.5040   51.1490 N   0  0  0  0  0  0  0  0  0  0  0  0
   59.6950   33.5190   50.9470 C   0  0  0  0  0  0  0  0  0  0  0  0
   58.7660   33.5800   52.0570 N   0  0  0  0  0  0  0  0  0  0  0  0
   58.9060   34.5890   53.1110 C   0  0  0  0  0  0  0  0  0  0  0  0
   57.6630   32.6140   52.1140 C   0  0  0  0  0  0  0  0  0  0  0  0
   59.2130   33.4760   49.6760 N   0  0  0  0  0  0  0  0  0  0  0  0
   58.9620   32.1600   46.7080 C   0  0  0  0  0  0  0  0  0  0  0  0
   58.4040   32.1040   45.4290 C   0  0  0  0  0  0  0  0  0  0  0  0
   57.7395   31.0821   43.2507 H   0  0  0  0  0  0  0  0  0  0  0  0
   56.8428   31.9359   41.9493 H   0  0  0  0  0  0  0  0  0  0  0  0
   58.6391   31.9328   41.9493 H   0  0  0  0  0  0  0  0  0  0  0  0
   58.7292   35.3873   44.5417 H   0  0  0  0  0  0  0  0  0  0  0  0
   59.7287   35.4918   46.8213 H   0  0  0  0  0  0  0  0  0  0  0  0
   62.1034   33.3789   47.9321 H   0  0  0  0  0  0  0  0  0  0  0  0
   63.8397   32.1264   48.6844 H   0  0  0  0  0  0  0  0  0  0  0  0
   66.2989   32.1426   49.1011 H   0  0  0  0  0  0  0  0  0  0  0  0
   67.2420   33.4820   50.9830 H   0  0  0  0  0  0  0  0  0  0  0  0
   65.7238   34.8080   52.4556 H   0  0  0  0  0  0  0  0  0  0  0  0
   63.2626   34.7976   52.0504 H   0  0  0  0  0  0  0  0  0  0  0  0
   61.4330   33.5100   52.1190 H   0  0  0  0  0  0  0  0  0  0  0  0
   58.8385   34.1027   54.0954 H   0  0  0  0  0  0  0  0  0  0  0  0
   59.8819   35.0873   53.0143 H   0  0  0  0  0  0  0  0  0  0  0  0
   58.1026   35.3342   53.0143 H   0  0  0  0  0  0  0  0  0  0  0  0
   57.4177   32.3992   53.1646 H   0  0  0  0  0  0  0  0  0  0  0  0
   56.7805   33.0350   51.6101 H   0  0  0  0  0  0  0  0  0  0  0  0
   57.9640   31.6837   51.6101 H   0  0  0  0  0  0  0  0  0  0  0  0
   59.0336   31.2430   47.3114 H   0  0  0  0  0  0  0  0  0  0  0  0
   58.0329   31.1454   45.0374 H   0  0  0  0  0  0  0  0  0  0  0  0
  1  2  1  0
  2  3  1  0
  3  4  2  0
  4  5  1  0
  5  6  2  0
  6  7  1  0
  7  8  2  0
  8  9  1  0
  9 10  1  0
 10 11  2  0
 11 12  1  0
 12 13  2  0
 13 14  1  0
 14 15  2  0
  9 16  2  0
 16 17  1  0
 17 18  1  0
 18 19  1  0
 18 20  1  0
 17 21  2  0
  6 22  1  0
 22 23  2  0
 23  3  1  0
 21  7  1  0
 15 10  1  0
  1 24  1  0
  1 25  1  0
  1 26  1  0
  4 27  1  0
  5 28  1  0
  8 29  1  0
 11 30  1  0
 12 31  1  0
 13 32  1  0
 14 33  1  0
 15 34  1  0
 16 35  1  0
 19 36  1  0
 19 37  1  0
 19 38  1  0
 20 39  1  0
 20 40  1  0
 20 41  1  0
 22 42  1  0
 23 43  1  0
M  CHG  1  16   1
M  END
>  <UniqueID>  (3) 
3

>  <SMILES>  (3) 
COc1ccc(-c2cc(-c3ccccc3)[nH+]c(N(C)C)n2)cc1

>  <Energy>  (3) 
52.27539143204542

>  <Genealogy>  (3) 
COc1ccc(-c2cc(-c3ccccc3)[nH+]c(N(C)C)n2)cc1 (protonated)
COc1ccc(-c2cc(-c3ccccc3)[nH+]c(N(C)C)n2)cc1 (3D coordinates assigned)
COc1ccc(-c2cc(-c3ccccc3)[nH+]c(N(C)C)n2)cc1 (optimized conformer: 52.27539143204542 kcal/mol)

>  <smiles>  (3) 
COc1ccc(-c2cc(-c3ccccc3)nc(N(C)C)n2)cc1

>  <score_type>  (3) 
oracle

>  <origin>  (3) 
adg

>  <m_score__min__energy>  (3) 
-5.1799999999999997

>  <m_primary>  (3) 
energy

$$$$
3:0
     RDKit          3D

 40 40  0  0  0  0  0  0  0  0999 V2000
   63.4540   33.8540   46.6850 C   0  0  0  0  0  0  0  0  0  0  0  0
   63.1690   32.7260   47.6730 C   0  0  0  0  0  0  0  0  0  0  0  0
   62.0930   31.7690   47.1250 C   0  0  0  0  0  0  0  0  0  0  0  0
   60.8220   31.8400   47.8860 N   0  0  0  0  0  0  0  0  0  0  0  0
   60.0720   30.5630   47.7690 C   0  0  0  0  0  0  0  0  0  0  0  0
   60.3510   29.8060   46.4480 C   0  0  0  0  0  0  0  0  0  0  0  0
   59.3380   28.7040   46.1460 C   0  0  0  0  0  0  0  0  0  0  0  0
   60.0190   33.0000   47.5080 C   0  0  0  0  0  0  0  0  0  0  0  0
   60.5840   34.0710   47.3280 O   0  0  0  0  0  0  0  0  0  0  0  0
   58.5080   32.9620   47.3250 C   0  0  0  0  0  0  0  0  0  0  0  0
   58.1200   32.3940   46.0330 N   0  0  0  0  0  0  0  0  0  0  0  0
   57.4090   31.2810   45.9240 N   0  0  0  0  0  0  0  0  0  0  0  0
   57.2080   31.0570   44.6110 C   0  0  0  0  0  0  0  0  0  0  0  0
   56.4740   29.9320   44.1150 N   0  0  0  0  0  0  0  0  0  0  0  0
   56.7610   29.4110   43.0180 O   0  0  0  0  0  0  0  0  0  0  0  0
   55.4540   29.3970   44.8670 O   0  0  0  0  0  0  0  0  0  0  0  0
   57.7930   32.0650   43.8610 C   0  0  0  0  0  0  0  0  0  0  0  0
   57.7720   32.3100   41.9620 Br  0  0  0  0  0  0  0  0  0  0  0  0
   58.3680   32.8990   44.8030 C   0  0  0  0  0  0  0  0  0  0  0  0
   59.0040   34.2250   44.5130 C   0  0  0  0  0  0  0  0  0  0  0  0
   63.6869   34.7758   47.2382 H   0  0  0  0  0  0  0  0  0  0  0  0
   64.3110   33.5795   46.0524 H   0  0  0  0  0  0  0  0  0  0  0  0
   62.5695   34.0196   46.0524 H   0  0  0  0  0  0  0  0  0  0  0  0
   64.0959   32.1609   47.8506 H   0  0  0  0  0  0  0  0  0  0  0  0
   62.8001   33.1671   48.6108 H   0  0  0  0  0  0  0  0  0  0  0  0
   61.8902   32.0312   46.0761 H   0  0  0  0  0  0  0  0  0  0  0  0
   62.4805   30.7440   47.2207 H   0  0  0  0  0  0  0  0  0  0  0  0
   61.0930   31.9450   48.8940 H   0  0  0  0  0  0  0  0  0  0  0  0
   60.3560   29.9133   48.6100 H   0  0  0  0  0  0  0  0  0  0  0  0
   59.0008   30.8129   47.7805 H   0  0  0  0  0  0  0  0  0  0  0  0
   60.3317   30.5314   45.6213 H   0  0  0  0  0  0  0  0  0  0  0  0
   61.3317   29.3199   46.5572 H   0  0  0  0  0  0  0  0  0  0  0  0
   58.9560   28.2884   47.0901 H   0  0  0  0  0  0  0  0  0  0  0  0
   58.5029   29.1227   45.5652 H   0  0  0  0  0  0  0  0  0  0  0  0
   59.8254   27.9071   45.5652 H   0  0  0  0  0  0  0  0  0  0  0  0
   58.0697   32.3497   48.1268 H   0  0  0  0  0  0  0  0  0  0  0  0
   58.1379   33.9972   47.3628 H   0  0  0  0  0  0  0  0  0  0  0  0
   59.2463   34.7303   45.4596 H   0  0  0  0  0  0  0  0  0  0  0  0
   59.9260   34.0705   43.9333 H   0  0  0  0  0  0  0  0  0  0  0  0
   58.3064   34.8473   43.9333 H   0  0  0  0  0  0  0  0  0  0  0  0
  1  2  1  0
  2  3  1  0
  3  4  1  0
  4  5  1  0
  5  6  1  0
  6  7  1  0
  4  8  1  0
  8  9  2  0
  8 10  1  0
 10 11  1  0
 11 12  1  0
 12 13  2  0
 13 14  1  0
 14 15  2  0
 14 16  1  0
 13 17  1  0
 17 18  1  0
 17 19  2  0
 19 20  1  0
 19 11  1  0
  1 21  1  0
  1 22  1  0
  1 23  1  0
  2 24  1  0
  2 25  1  0
  3 26  1  0
  3 27  1  0
  4 28  1  0
  5 29  1  0
  5 30  1  0
  6 31  1  0
  6 32  1  0
  7 33  1  0
  7 34  1  0
  7 35  1  0
 10 36  1  0
 10 37  1  0
 20 38  1  0
 20 39  1  0
 20 40  1  0
M  CHG  3   4   1  14   1  16  -1
M  END
>  <UniqueID>  (4) 
4

>  <SMILES>  (4) 
CCC[NH+](CCC)C(=O)Cn1nc([N+](=O)[O-])c(Br)c1C

>  <Energy>  (4) 
65.87739797383314

>  <Genealogy>  (4) 
CCC[NH+](CCC)C(=O)Cn1nc([N+](=O)[O-])c(Br)c1C (protonated)
CCC[NH+](CCC)C(=O)Cn1nc([N+](=O)[O-])c(Br)c1C (3D coordinates assigned)
CCC[NH+](CCC)C(=O)Cn1nc([N+](=O)[O-])c(Br)c1C (optimized conformer: 65.87739797383314 kcal/mol)

>  <smiles>  (4) 
CCCN(CCC)C(=O)Cn1nc([N+](=O)[O-])c(Br)c1C

>  <score_type>  (4) 
oracle

>  <origin>  (4) 
adg

>  <m_score__min__energy>  (4) 
-6.0499999999999998

>  <m_primary>  (4) 
energy

$$$$
4:0
     RDKit          3D

 30 30  0  0  0  0  0  0  0  0999 V2000
   58.7480   29.5850   44.8660 C   0  0  0  0  0  0  0  0  0  0  0  0
   57.3550   29.7260   45.4640 C   0  0  0  0  0  0  0  0  0  0  0  0
   56.4710   30.4160   44.5160 N   0  0  0  0  0  0  0  0  0  0  0  0
   56.7900   30.0210   43.1390 C   0  0  0  0  0  0  0  0  0  0  0  0
   57.0120   31.2580   42.2590 C   0  0  0  0  0  0  0  0  0  0  0  0
   58.1090   32.2000   42.7770 C   0  0  0  0  0  0  0  0  0  0  0  0
   57.6020   33.0900   43.7740 O   0  0  0  0  0  0  0  0  0  0  0  0
   58.1960   33.3840   45.0140 C   0  0  0  0  0  0  0  0  0  0  0  0
   57.5710   32.9020   46.1710 C   0  0  0  0  0  0  0  0  0  0  0  0
   58.1230   33.1460   47.4320 C   0  0  0  0  0  0  0  0  0  0  0  0
   59.3040   33.8840   47.5490 C   0  0  0  0  0  0  0  0  0  0  0  0
   60.0590   34.2130   49.2720 Br  0  0  0  0  0  0  0  0  0  0  0  0
   59.9280   34.3830   46.4040 C   0  0  0  0  0  0  0  0  0  0  0  0
   59.3780   34.1430   45.1420 C   0  0  0  0  0  0  0  0  0  0  0  0
   59.4888   29.5100   45.6757 H   0  0  0  0  0  0  0  0  0  0  0  0
   58.7904   28.6780   44.2451 H   0  0  0  0  0  0  0  0  0  0  0  0
   58.9713   30.4651   44.2451 H   0  0  0  0  0  0  0  0  0  0  0  0
   56.9485   28.7271   45.6809 H   0  0  0  0  0  0  0  0  0  0  0  0
   57.4175   30.3120   46.3928 H   0  0  0  0  0  0  0  0  0  0  0  0
   56.6420   31.4450   44.6050 H   0  0  0  0  0  0  0  0  0  0  0  0
   57.7048   29.4101   43.1410 H   0  0  0  0  0  0  0  0  0  0  0  0
   55.9470   29.4434   42.7319 H   0  0  0  0  0  0  0  0  0  0  0  0
   57.2931   30.9201   41.2506 H   0  0  0  0  0  0  0  0  0  0  0  0
   56.0714   31.8282   42.2657 H   0  0  0  0  0  0  0  0  0  0  0  0
   58.9208   31.5991   43.2127 H   0  0  0  0  0  0  0  0  0  0  0  0
   58.4786   32.7998   41.9322 H   0  0  0  0  0  0  0  0  0  0  0  0
   56.6375   32.3263   46.0867 H   0  0  0  0  0  0  0  0  0  0  0  0
   57.6271   32.7566   48.3333 H   0  0  0  0  0  0  0  0  0  0  0  0
   60.8557   34.9670   46.4956 H   0  0  0  0  0  0  0  0  0  0  0  0
   59.8689   34.5477   44.2446 H   0  0  0  0  0  0  0  0  0  0  0  0
  1  2  1  0
  2  3  1  0
  3  4  1  0
  4  5  1  0
  5  6  1  0
  6  7  1  0
  7  8  1  0
  8  9  2  0
  9 10  1  0
 10 11  2  0
 11 12  1  0
 11 13  1  0
 13 14  2  0
 14  8  1  0
  1 15  1  0
  1 16  1  0
  1 17  1  0
  2 18  1  0
  2 19  1  0
  3 20  1  0
  4 21  1  0
  4 22  1  0
  5 23  1  0
  5 24  1  0
  6 25  1  0
  6 26  1  0
  9 27  1  0
 10 28  1  0
 13 29  1  0
 14 30  1  0
M  END
>  <UniqueID>  (5) 
5

>  <SMILES>  (5) 
CCNCCCOc1ccc(Br)cc1

>  <Energy>  (5) 
20.8930770269794

>  <Genealogy>  (5) 
CCNCCCOc1ccc(Br)cc1 (3D coordinates assigned)
CCNCCCOc1ccc(Br)cc1 (optimized conformer: 20.8930770269794 kcal/mol)

>  <smiles>  (5) 
CCNCCCOc1ccc(Br)cc1

>  <score_type>  (5) 
oracle

>  <origin>  (5) 
adg

>  <m_score__min__energy>  (5) 
-5.6299999999999999

>  <m_primary>  (5) 
energy

$$$$
5:0
     RDKit          3D

 63 67  0  0  1  0  0  0  0  0999 V2000
   62.6160   31.5880   47.4650 C   0  0  0  0  0  0  0  0  0  0  0  0
   63.3590   32.8390   46.9940 C   0  0  0  0  0  0  0  0  0  0  0  0
   63.7460   33.6030   48.1740 N   0  0  0  0  0  0  0  0  0  0  0  0
   64.3670   32.6700   49.1120 C   0  0  0  0  0  0  0  0  0  0  0  0
   64.6460   33.3560   50.4330 C   0  0  0  0  0  0  0  0  0  0  0  0
   63.4590   33.8420   51.0640 N   0  0  0  0  0  0  0  0  0  0  0  0
   62.6380   32.8550   51.6880 C   0  0  0  0  0  0  0  0  0  0  0  0
   61.1660   33.0700   51.5840 C   0  0  0  0  0  0  0  0  0  0  0  0
   60.4910   32.0230   50.8450 N   0  0  0  0  0  0  0  0  0  0  0  0
   60.9960   30.7980   50.6400 C   0  0  0  0  0  0  0  0  0  0  0  0
   60.0470   30.0890   49.8890 C   0  0  0  0  0  0  0  0  0  0  0  0
   60.2220   28.6750   49.4470 C   0  0  0  0  0  0  0  0  0  0  0  0
   60.1940   28.3980   48.0950 N   0  0  0  0  0  0  0  0  0  0  0  0
   59.6550   28.9850   47.1580 C   0  0  0  0  0  0  0  0  0  0  0  0
   59.6910   30.3350   47.1220 N   0  0  0  0  0  0  0  0  0  0  0  0
   59.1790   31.0860   46.1460 C   0  0  0  0  0  0  0  0  0  0  0  0
   59.2230   32.5410   46.1080 C   0  0  0  0  0  0  0  0  0  0  0  0
   59.6800   33.3090   47.1690 C   0  0  0  0  0  0  0  0  0  0  0  0
   59.7170   34.6930   47.1230 C   0  0  0  0  0  0  0  0  0  0  0  0
   59.2800   35.3120   45.9720 C   0  0  0  0  0  0  0  0  0  0  0  0
   58.8090   34.5930   44.8740 C   0  0  0  0  0  0  0  0  0  0  0  0
   58.8030   33.2250   44.9960 C   0  0  0  0  0  0  0  0  0  0  0  0
   58.5810   30.4480   45.1250 N   0  0  0  0  0  0  0  0  0  0  0  0
   58.5210   29.1060   45.1200 C   0  0  0  0  0  0  0  0  0  0  0  0
   57.8940   28.5160   44.0530 C   0  0  0  0  0  0  0  0  0  0  0  0
   57.8300   27.1410   44.0600 C   0  0  0  0  0  0  0  0  0  0  0  0
   58.3360   26.3410   45.0370 C   0  0  0  0  0  0  0  0  0  0  0  0
   58.9810   26.9630   46.1320 C   0  0  0  0  0  0  0  0  0  0  0  0
   59.0520   28.3180   46.1340 C   0  0  0  0  0  0  0  0  0  0  0  0
   59.0530   30.9630   49.7120 N   0  0  0  0  0  0  0  0  0  0  0  0
   59.3090   32.1150   50.2760 N   0  0  0  0  0  0  0  0  0  0  0  0
   62.6660   34.6080   50.1530 C   0  0  0  0  0  0  0  0  0  0  0  0
   62.5020   34.0170   48.7930 C   0  0  0  0  0  0  0  0  0  0  0  0
   62.6010   31.5627   48.5646 H   0  0  0  0  0  0  0  0  0  0  0  0
   61.5841   31.6094   47.0846 H   0  0  0  0  0  0  0  0  0  0  0  0
   63.1285   30.6921   47.0846 H   0  0  0  0  0  0  0  0  0  0  0  0
   64.2554   32.5494   46.4261 H   0  0  0  0  0  0  0  0  0  0  0  0
   62.7131   33.4445   46.3411 H   0  0  0  0  0  0  0  0  0  0  0  0
   63.6886   31.8207   49.2809 H   0  0  0  0  0  0  0  0  0  0  0  0
   65.3175   32.3160   48.6863 H   0  0  0  0  0  0  0  0  0  0  0  0
   65.1335   32.6363   51.1072 H   0  0  0  0  0  0  0  0  0  0  0  0
   65.2915   34.2226   50.2274 H   0  0  0  0  0  0  0  0  0  0  0  0
   62.8699   31.8836   51.2270 H   0  0  0  0  0  0  0  0  0  0  0  0
   62.8712   32.9101   52.7616 H   0  0  0  0  0  0  0  0  0  0  0  0
   60.7451   33.1093   52.5995 H   0  0  0  0  0  0  0  0  0  0  0  0
   61.0092   34.0115   51.0373 H   0  0  0  0  0  0  0  0  0  0  0  0
   61.9675   30.4215   50.9928 H   0  0  0  0  0  0  0  0  0  0  0  0
   61.1960   28.3342   49.8279 H   0  0  0  0  0  0  0  0  0  0  0  0
   59.3370   28.1575   49.8456 H   0  0  0  0  0  0  0  0  0  0  0  0
   60.1550   30.8530   47.9140 H   0  0  0  0  0  0  0  0  0  0  0  0
   60.0259   32.8000   48.0808 H   0  0  0  0  0  0  0  0  0  0  0  0
   60.0837   35.2794   47.9784 H   0  0  0  0  0  0  0  0  0  0  0  0
   59.3035   36.4104   45.9175 H   0  0  0  0  0  0  0  0  0  0  0  0
   58.4609   35.0946   43.9590 H   0  0  0  0  0  0  0  0  0  0  0  0
   58.4356   32.6369   44.1421 H   0  0  0  0  0  0  0  0  0  0  0  0
   57.4642   29.1108   43.2335 H   0  0  0  0  0  0  0  0  0  0  0  0
   57.3314   26.6515   43.2104 H   0  0  0  0  0  0  0  0  0  0  0  0
   58.2466   25.2462   44.9776 H   0  0  0  0  0  0  0  0  0  0  0  0
   59.4097   26.3691   46.9526 H   0  0  0  0  0  0  0  0  0  0  0  0
   61.6652   34.7289   50.5933 H   0  0  0  0  0  0  0  0  0  0  0  0
   63.2032   35.5569   50.0080 H   0  0  0  0  0  0  0  0  0  0  0  0
   61.8474   33.1368   48.8754 H   0  0  0  0  0  0  0  0  0  0  0  0
   62.0762   34.8046   48.1539 H   0  0  0  0  0  0  0  0  0  0  0  0
  1  2  1  0
  2  3  1  0
  3  4  1  0
  4  5  1  0
  5  6  1  0
  6  7  1  0
  7  8  1  0
  8  9  1  0
  9 10  1  0
 10 11  2  0
 11 12  1  0
 12 13  1  0
 13 14  2  0
 14 15  1  0
 15 16  1  0
 16 17  1  0
 17 18  2  0
 18 19  1  0
 19 20  2  0
 20 21  1  0
 21 22  2  0
 16 23  2  0
 23 24  1  0
 24 25  2  0
 25 26  1  0
 26 27  2  0
 27 28  1  0
 28 29  2  0
 11 30  1  0
 30 31  2  0
  6 32  1  0
 32 33  1  0
 33  3  1  0
 31  9  1  0
 29 14  1  0
 22 17  1  0
 29 24  1  0
  1 34  1  0
  1 35  1  0
  1 36  1  0
  2 37  1  0
  2 38  1  0
  4 39  1  0
  4 40  1  0
  5 41  1  0
  5 42  1  0
  7 43  1  0
  7 44  1  0
  8 45  1  0
  8 46  1  0
 10 47  1  0
 12 48  1  0
 12 49  1  0
 15 50  1  0
 18 51  1  0
 19 52  1  0
 20 53  1  0
 21 54  1  0
 22 55  1  0
 25 56  1  0
 26 57  1  0
 27 58  1  0
 28 59  1  0
 32 60  1  0
 32 61  1  0
 33 62  1  0
 33 63  1  0
M  END
>  <smiles>  (6) 
CCN1CCN(CCn2cc(CN=c3[nH]c(-c4ccccc4)nc4ccccc34)nn2)CC1

>  <score_type>  (6) 
oracle

>  <origin>  (6) 
adg

>  <m_score__min__energy>  (6) 
-10.210000000000001

>  <m_primary>  (6) 
energy

$$$$
6:0
     RDKit          3D

 30 31  0  0  0  0  0  0  0  0999 V2000
   60.5420   34.1880   48.7100 C   0  0  0  0  0  0  0  0  0  0  0  0
   59.6060   34.5810   47.7110 O   0  0  0  0  0  0  0  0  0  0  0  0
   58.8850   33.6870   46.9080 C   0  0  0  0  0  0  0  0  0  0  0  0
   58.1360   34.2030   45.8450 C   0  0  0  0  0  0  0  0  0  0  0  0
   57.3950   33.3540   45.0160 C   0  0  0  0  0  0  0  0  0  0  0  0
   57.3860   31.9670   45.2520 C   0  0  0  0  0  0  0  0  0  0  0  0
   56.6660   31.0590   44.4060 N   0  0  0  0  0  0  0  0  0  0  0  0
   56.3430   29.6970   44.7060 C   0  0  0  0  0  0  0  0  0  0  0  0
   55.1600   29.3590   44.9850 O   0  0  0  0  0  0  0  0  0  0  0  0
   57.4240   28.6610   44.6840 C   0  0  0  0  0  0  0  0  0  0  0  0
   57.4220   27.8310   45.9700 C   0  0  0  0  0  0  0  0  0  0  0  0
   56.6710   26.5910   45.7880 N   0  0  0  0  0  0  0  0  0  0  0  0
   57.0470   25.4920   45.1150 C   0  0  0  0  0  0  0  0  0  0  0  0
   56.1070   24.5390   45.2500 N   0  0  0  0  0  0  0  0  0  0  0  0
   55.1670   25.0780   46.0170 N   0  0  0  0  0  0  0  0  0  0  0  0
   55.5080   26.3150   46.3490 N   0  0  0  0  0  0  0  0  0  0  0  0
   58.1530   31.4470   46.2990 C   0  0  0  0  0  0  0  0  0  0  0  0
   58.8920   32.2960   47.1290 C   0  0  0  0  0  0  0  0  0  0  0  0
   60.1123   34.3684   49.7064 H   0  0  0  0  0  0  0  0  0  0  0  0
   60.7706   33.1179   48.5976 H   0  0  0  0  0  0  0  0  0  0  0  0
   61.4660   34.7741   48.5976 H   0  0  0  0  0  0  0  0  0  0  0  0
   58.1297   35.2872   45.6592 H   0  0  0  0  0  0  0  0  0  0  0  0
   56.8181   33.7718   44.1778 H   0  0  0  0  0  0  0  0  0  0  0  0
   57.2628   27.9926   43.8254 H   0  0  0  0  0  0  0  0  0  0  0  0
   58.3945   29.1722   44.6011 H   0  0  0  0  0  0  0  0  0  0  0  0
   58.4593   27.5872   46.2431 H   0  0  0  0  0  0  0  0  0  0  0  0
   56.9432   28.4185   46.7672 H   0  0  0  0  0  0  0  0  0  0  0  0
   57.9798   25.3869   44.5416 H   0  0  0  0  0  0  0  0  0  0  0  0
   58.1754   30.3608   46.4714 H   0  0  0  0  0  0  0  0  0  0  0  0
   59.4810   31.8758   47.9576 H   0  0  0  0  0  0  0  0  0  0  0  0
  1  2  1  0
  2  3  1  0
  3  4  2  0
  4  5  1  0
  5  6  2  0
  6  7  1  0
  7  8  1  0
  8  9  2  0
  8 10  1  0
 10 11  1  0
 11 12  1  0
 12 13  1  0
 13 14  2  0
 14 15  1  0
 15 16  2  0
  6 17  1  0
 17 18  2  0
 18  3  1  0
 16 12  1  0
  1 19  1  0
  1 20  1  0
  1 21  1  0
  4 22  1  0
  5 23  1  0
 10 24  1  0
 10 25  1  0
 11 26  1  0
 11 27  1  0
 13 28  1  0
 17 29  1  0
 18 30  1  0
M  CHG  1   7  -1
M  END
>  <UniqueID>  (7) 
6

>  <SMILES>  (7) 
COc1ccc([N-]C(=O)CCn2cnnn2)cc1

>  <Energy>  (7) 
67.49690633495173

>  <Genealogy>  (7) 
COc1ccc([N-]C(=O)CCn2cnnn2)cc1 (protonated)
COc1ccc([N-]C(=O)CCn2cnnn2)cc1 (3D coordinates assigned)
COc1ccc([N-]C(=O)CCn2cnnn2)cc1 (optimized conformer: 67.49690633495173 kcal/mol)

>  <smiles>  (7) 
COc1ccc(NC(=O)CCn2cnnn2)cc1

>  <score_type>  (7) 
oracle

>  <origin>  (7) 
adg

>  <m_score__min__energy>  (7) 
-8.4800000000000004

>  <m_primary>  (7) 
energy

$$$$
7:0
     RDKit          3D

 38 41  0  0  0  0  0  0  0  0999 V2000
   64.2700   32.1930   49.3530 F   0  0  0  0  0  0  0  0  0  0  0  0
   63.4010   32.8330   48.5340 C   0  0  0  0  0  0  0  0  0  0  0  0
   63.7720   33.1350   47.2200 C   0  0  0  0  0  0  0  0  0  0  0  0
   62.8780   33.7980   46.3760 C   0  0  0  0  0  0  0  0  0  0  0  0
   61.6100   34.1580   46.8410 C   0  0  0  0  0  0  0  0  0  0  0  0
   61.2270   33.8550   48.1590 C   0  0  0  0  0  0  0  0  0  0  0  0
   59.8800   34.2750   48.6780 C   0  0  0  0  0  0  0  0  0  0  0  0
   58.7500   32.8440   48.8140 S   0  0  0  0  0  0  0  0  0  0  0  0
   58.4350   32.7320   47.0530 C   0  0  0  0  0  0  0  0  0  0  0  0
   58.2500   33.9010   46.2830 C   0  0  0  0  0  0  0  0  0  0  0  0
   58.0120   33.8000   44.9030 C   0  0  0  0  0  0  0  0  0  0  0  0
   57.9760   32.5220   44.3630 C   0  0  0  0  0  0  0  0  0  0  0  0
   57.7350   32.1780   43.0830 N   0  0  0  0  0  0  0  0  0  0  0  0
   57.7770   30.8460   43.0630 N   0  0  0  0  0  0  0  0  0  0  0  0
   58.0450   30.3980   44.3130 C   0  0  0  0  0  0  0  0  0  0  0  0
   58.1660   28.9720   44.6940 C   0  0  0  0  0  0  0  0  0  0  0  0
   58.0340   27.9530   43.7320 C   0  0  0  0  0  0  0  0  0  0  0  0
   58.1460   26.6100   44.1050 C   0  0  0  0  0  0  0  0  0  0  0  0
   58.3850   26.2690   45.4390 C   0  0  0  0  0  0  0  0  0  0  0  0
   58.5240   24.5840   45.9040 Cl  0  0  0  0  0  0  0  0  0  0  0  0
   58.5070   27.2740   46.4030 C   0  0  0  0  0  0  0  0  0  0  0  0
   58.3960   28.6180   46.0350 C   0  0  0  0  0  0  0  0  0  0  0  0
   58.1700   31.4510   45.1380 N   0  0  0  0  0  0  0  0  0  0  0  0
   58.3780   31.5100   46.4510 N   0  0  0  0  0  0  0  0  0  0  0  0
   62.1340   33.1920   49.0040 C   0  0  0  0  0  0  0  0  0  0  0  0
   64.7683   32.8503   46.8508 H   0  0  0  0  0  0  0  0  0  0  0  0
   63.1724   34.0372   45.3435 H   0  0  0  0  0  0  0  0  0  0  0  0
   60.9093   34.6803   46.1731 H   0  0  0  0  0  0  0  0  0  0  0  0
   60.0041   34.7302   49.6717 H   0  0  0  0  0  0  0  0  0  0  0  0
   59.4442   34.9979   47.9726 H   0  0  0  0  0  0  0  0  0  0  0  0
   58.2923   34.8895   46.7637 H   0  0  0  0  0  0  0  0  0  0  0  0
   57.8610   34.6928   44.2785 H   0  0  0  0  0  0  0  0  0  0  0  0
   57.6380   30.2700   42.2050 H   0  0  0  0  0  0  0  0  0  0  0  0
   57.8417   28.2146   42.6810 H   0  0  0  0  0  0  0  0  0  0  0  0
   58.0457   25.8198   43.3464 H   0  0  0  0  0  0  0  0  0  0  0  0
   58.6909   27.0065   47.4540 H   0  0  0  0  0  0  0  0  0  0  0  0
   58.4892   29.4035   46.7994 H   0  0  0  0  0  0  0  0  0  0  0  0
   61.8459   32.9548   50.0388 H   0  0  0  0  0  0  0  0  0  0  0  0
  1  2  1  0
  2  3  2  0
  3  4  1  0
  4  5  2  0
  5  6  1  0
  6  7  1  0
  7  8  1  0
  8  9  1  0
  9 10  1  0
 10 11  2  0
 11 12  1  0
 12 13  2  0
 13 14  1  0
 14 15  2  0
 15 16  1  0
 16 17  2  0
 17 18  1  0
 18 19  2  0
 19 20  1  0
 19 21  1  0
 21 22  2  0
 15 23  1  0
 23 24  1  0
  6 25  2  0
 25  2  1  0
 24  9  2  0
 23 12  1  0
 22 16  1  0
  3 26  1  0
  4 27  1  0
  5 28  1  0
  7 29  1  0
  7 30  1  0
 10 31  1  0
 11 32  1  0
 14 33  1  0
 17 34  1  0
 18 35  1  0
 21 36  1  0
 22 37  1  0
 25 38  1  0
M  CHG  1  14   1
M  END
>  <UniqueID>  (8) 
7

>  <SMILES>  (8) 
Fc1cccc(CSc2ccc3n[nH+]c(-c4ccc(Cl)cc4)n3n2)c1

>  <Energy>  (8) 
84.54761623593224

>  <Genealogy>  (8) 
Fc1cccc(CSc2ccc3n[nH+]c(-c4ccc(Cl)cc4)n3n2)c1 (protonated)
Fc1cccc(CSc2ccc3n[nH+]c(-c4ccc(Cl)cc4)n3n2)c1 (3D coordinates assigned)
Fc1cccc(CSc2ccc3n[nH+]c(-c4ccc(Cl)cc4)n3n2)c1 (optimized conformer: 84.54761623593224 kcal/mol)

>  <smiles>  (8) 
Fc1cccc(CSc2ccc3nnc(-c4ccc(Cl)cc4)n3n2)c1

>  <score_type>  (8) 
oracle

>  <origin>  (8) 
adg

>  <m_score__min__energy>  (8) 
-7.6100000000000003

>  <m_primary>  (8) 
energy

$$$$
8:0
     RDKit          3D

 29 30  0  0  1  0  0  0  0  0999 V2000
   60.4470   26.8870   46.4970 C   0  0  0  0  0  0  0  0  0  0  0  0
   60.0190   28.1520   47.2620 C   0  0  0  0  0  0  0  0  0  0  0  0
   59.2240   29.0410   46.5040 N   0  0  0  0  0  0  0  0  0  0  0  0
   59.8100   30.3050   46.3150 C   0  0  0  0  0  0  0  0  0  0  0  0
   59.0170   31.1170   45.6330 N   0  0  0  0  0  0  0  0  0  0  0  0
   57.9120   30.4680   45.3470 C   0  0  0  0  0  0  0  0  0  0  0  0
   56.8330   30.8750   44.6780 N   0  0  0  0  0  0  0  0  0  0  0  0
   55.8100   30.0380   44.4990 C   0  0  0  0  0  0  0  0  0  0  0  0
   55.9240   28.8100   45.0100 N   0  0  0  0  0  0  0  0  0  0  0  0
   57.0070   28.3720   45.6920 C   0  0  0  0  0  0  0  0  0  0  0  0
   57.0040   27.2370   46.1140 N   0  0  0  0  0  0  0  0  0  0  0  0
   57.3160   26.0150   45.5730 C   0  0  0  0  0  0  0  0  0  0  0  0
   55.8920   25.2970   45.6460 C   0  0  0  0  0  0  0  0  0  0  0  0
   54.9120   26.2590   45.9950 N   0  0  0  0  0  0  0  0  0  0  0  0
   58.0730   29.1920   45.8970 C   0  0  0  0  0  0  0  0  0  0  0  0
   60.7142   26.0973   47.2146 H   0  0  0  0  0  0  0  0  0  0  0  0
   59.6156   26.5419   45.8648 H   0  0  0  0  0  0  0  0  0  0  0  0
   61.3171   27.1176   45.8648 H   0  0  0  0  0  0  0  0  0  0  0  0
   59.4439   27.8428   48.1473 H   0  0  0  0  0  0  0  0  0  0  0  0
   60.9405   28.6930   47.5230 H   0  0  0  0  0  0  0  0  0  0  0  0
   60.8061   30.5853   46.6883 H   0  0  0  0  0  0  0  0  0  0  0  0
   54.9075   30.3476   43.9516 H   0  0  0  0  0  0  0  0  0  0  0  0
   55.1410   28.1610   44.8760 H   0  0  0  0  0  0  0  0  0  0  0  0
   57.6719   26.1080   44.5363 H   0  0  0  0  0  0  0  0  0  0  0  0
   58.1282   25.4789   46.0858 H   0  0  0  0  0  0  0  0  0  0  0  0
   55.6481   24.8595   44.6667 H   0  0  0  0  0  0  0  0  0  0  0  0
   55.9154   24.4971   46.4007 H   0  0  0  0  0  0  0  0  0  0  0  0
   54.8520   27.0420   45.3120 H   0  0  0  0  0  0  0  0  0  0  0  0
   55.1120   26.6230   46.9570 H   0  0  0  0  0  0  0  0  0  0  0  0
  1  2  1  0
  2  3  1  0
  3  4  1  0
  4  5  2  0
  5  6  1  0
  6  7  1  0
  7  8  2  0
  8  9  1  0
  9 10  1  0
 10 11  2  0
 11 12  1  0
 12 13  1  0
 13 14  1  0
 10 15  1  0
 15  3  1  0
 15  6  2  0
  1 16  1  0
  1 17  1  0
  1 18  1  0
  2 19  1  0
  2 20  1  0
  4 21  1  0
  8 22  1  0
  9 23  1  0
 12 24  1  0
 12 25  1  0
 13 26  1  0
 13 27  1  0
 14 28  1  0
 14 29  1  0
M  END
>  <smiles>  (9) 
CCn1cnc2nc[nH]c(=NCCN)c21

>  <score_type>  (9) 
oracle

>  <origin>  (9) 
adg

>  <m_score__min__energy>  (9) 
-5.7300000000000004

>  <m_primary>  (9) 
energy

$$$$
9:0
     RDKit          3D

 43 46  0  0  1  0  0  0  0  0999 V2000
   61.2700   30.4890   48.5340 C   0  0  0  0  0  0  0  0  0  0  0  0
   57.1130   32.7490   44.8600 C   0  0  0  0  0  0  0  0  0  0  0  0
   57.9620   33.6030   45.6200 C   0  0  0  0  0  0  0  0  0  0  0  0
   59.4120   28.1980   46.7310 C   0  0  0  0  0  0  0  0  0  0  0  0
   58.6980   27.6630   45.6650 C   0  0  0  0  0  0  0  0  0  0  0  0
   58.0930   28.5120   44.7830 C   0  0  0  0  0  0  0  0  0  0  0  0
   57.3490   28.2980   43.6930 N   0  0  0  0  0  0  0  0  0  0  0  0
   57.0320   29.4960   43.2520 N   0  0  0  0  0  0  0  0  0  0  0  0
   57.5230   30.4860   43.9870 C   0  0  0  0  0  0  0  0  0  0  0  0
   57.4110   31.9290   43.8980 C   0  0  0  0  0  0  0  0  0  0  0  0
   60.0910   30.2330   48.1100 C   0  0  0  0  0  0  0  0  0  0  0  0
   59.5780   29.5040   47.0040 C   0  0  0  0  0  0  0  0  0  0  0  0
   58.7990   34.5950   45.2090 C   0  0  0  0  0  0  0  0  0  0  0  0
   59.6850   35.2660   46.0590 C   0  0  0  0  0  0  0  0  0  0  0  0
   59.7490   34.9450   47.3890 C   0  0  0  0  0  0  0  0  0  0  0  0
   58.9100   33.9480   47.8350 C   0  0  0  0  0  0  0  0  0  0  0  0
   58.0460   33.2950   46.9940 C   0  0  0  0  0  0  0  0  0  0  0  0
   58.2260   29.8630   45.0020 C   0  0  0  0  0  0  0  0  0  0  0  0
   58.9280   30.3590   46.0510 C   0  0  0  0  0  0  0  0  0  0  0  0
   62.2350   31.4800   48.2240 C   0  0  0  0  0  0  0  0  0  0  0  0
   63.3360   31.9460   48.8360 C   0  0  0  0  0  0  0  0  0  0  0  0
   64.0600   33.0860   48.4750 C   0  0  0  0  0  0  0  0  0  0  0  0
   63.6510   33.8350   47.3970 C   0  0  0  0  0  0  0  0  0  0  0  0
   62.5310   33.3960   46.7360 C   0  0  0  0  0  0  0  0  0  0  0  0
   61.8350   32.2860   47.0980 C   0  0  0  0  0  0  0  0  0  0  0  0
   61.6097   29.7862   49.3091 H   0  0  0  0  0  0  0  0  0  0  0  0
   56.0468   32.7899   45.1273 H   0  0  0  0  0  0  0  0  0  0  0  0
   59.8877   27.4830   47.4184 H   0  0  0  0  0  0  0  0  0  0  0  0
   58.6216   26.5735   45.5341 H   0  0  0  0  0  0  0  0  0  0  0  0
   57.0610   27.3880   43.2550 H   0  0  0  0  0  0  0  0  0  0  0  0
   57.5983   32.3766   42.9108 H   0  0  0  0  0  0  0  0  0  0  0  0
   59.3026   30.6730   48.7384 H   0  0  0  0  0  0  0  0  0  0  0  0
   58.7775   34.8855   44.1483 H   0  0  0  0  0  0  0  0  0  0  0  0
   60.3348   36.0569   45.6562 H   0  0  0  0  0  0  0  0  0  0  0  0
   60.4405   35.4611   48.0713 H   0  0  0  0  0  0  0  0  0  0  0  0
   58.9337   33.6670   48.8982 H   0  0  0  0  0  0  0  0  0  0  0  0
   57.3980   32.5062   47.4037 H   0  0  0  0  0  0  0  0  0  0  0  0
   59.0017   31.4494   46.1756 H   0  0  0  0  0  0  0  0  0  0  0  0
   63.7026   31.3769   49.7031 H   0  0  0  0  0  0  0  0  0  0  0  0
   64.9504   33.3817   49.0492 H   0  0  0  0  0  0  0  0  0  0  0  0
   64.1929   34.7386   47.0809 H   0  0  0  0  0  0  0  0  0  0  0  0
   62.1783   33.9725   45.8681 H   0  0  0  0  0  0  0  0  0  0  0  0
   60.9462   31.9962   46.5184 H   0  0  0  0  0  0  0  0  0  0  0  0
  1  2  2  0
  2  3  1  0
  3  4  2  0
  4  5  1  0
  5  6  2  0
  6  7  1  0
  7  8  1  0
  8  9  2  0
  9 10  1  0
 10 11  2  0
 11 12  1  0
 12 13  2  0
 13 14  1  0
 14 15  2  0
 15 16  1  0
 16 17  2  0
  9 18  1  0
 18 19  2  0
  1 20  1  0
 20 21  2  0
 21 22  1  0
 22 23  2  0
 23 24  1  0
 24 25  2  0
 19  3  1  0
 25 20  1  0
 18  6  1  0
 17 12  1  0
  1 26  1  0
  2 27  1  0
  4 28  1  0
  5 29  1  0
  7 30  1  0
 10 31  1  0
 11 32  1  0
 13 33  1  0
 14 34  1  0
 15 35  1  0
 16 36  1  0
 17 37  1  0
 19 38  1  0
 21 39  1  0
 22 40  1  0
 23 41  1  0
 24 42  1  0
 25 43  1  0
M  END
>  <smiles>  (10) 
C(=Cc1ccc2[nH]nc(C=Cc3ccccc3)c2c1)c1ccccc1

>  <score_type>  (10) 
oracle

>  <origin>  (10) 
adg

>  <m_score__min__energy>  (10) 
-10.09

>  <m_primary>  (10) 
energy

$$$$
10:0
     RDKit          3D

 42 44  0  0  0  0  0  0  0  0999 V2000
   57.4943   25.8270   44.2753 H   0  0  0  0  0  0  0  0  0  0  0  0
   57.5400   26.3310   45.2520 C   0  0  0  0  0  0  0  0  0  0  0  0
   56.2940   26.9390   45.7560 C   0  0  0  0  0  0  0  0  0  0  0  0
   55.5650   26.3350   46.5900 O   0  0  0  0  0  0  0  0  0  0  0  0
   55.8890   28.2110   45.2400 N   0  0  0  0  0  0  0  0  0  0  0  0
   56.8060   29.1480   44.5990 C   0  0  0  0  0  0  0  0  0  0  0  0
   56.2652   29.7095   43.8230 H   0  0  0  0  0  0  0  0  0  0  0  0
   57.6355   28.5818   44.1504 H   0  0  0  0  0  0  0  0  0  0  0  0
   57.3760   30.1290   45.6240 C   0  0  0  0  0  0  0  0  0  0  0  0
   58.2876   29.7022   46.0676 H   0  0  0  0  0  0  0  0  0  0  0  0
   56.6247   30.3063   46.4077 H   0  0  0  0  0  0  0  0  0  0  0  0
   57.7020   31.4000   44.9790 N   0  0  0  0  0  0  0  0  0  0  0  0
   57.5670   31.6810   43.6600 C   0  0  0  0  0  0  0  0  0  0  0  0
   57.1490   30.9916   42.9117 H   0  0  0  0  0  0  0  0  0  0  0  0
   58.0310   32.9630   43.3850 C   0  0  0  0  0  0  0  0  0  0  0  0
   58.0420   33.4738   42.4109 H   0  0  0  0  0  0  0  0  0  0  0  0
   58.4740   33.4570   44.5930 C   0  0  0  0  0  0  0  0  0  0  0  0
   59.0480   34.6860   44.9090 C   0  0  0  0  0  0  0  0  0  0  0  0
   59.2038   35.4546   44.1377 H   0  0  0  0  0  0  0  0  0  0  0  0
   59.4220   34.9130   46.2450 C   0  0  0  0  0  0  0  0  0  0  0  0
   59.8664   35.8781   46.5297 H   0  0  0  0  0  0  0  0  0  0  0  0
   59.2320   33.9100   47.2290 C   0  0  0  0  0  0  0  0  0  0  0  0
   59.6040   34.1780   48.6560 C   0  0  0  0  0  0  0  0  0  0  0  0
   58.8939   33.6664   49.3223 H   0  0  0  0  0  0  0  0  0  0  0  0
   60.6206   33.8034   48.8465 H   0  0  0  0  0  0  0  0  0  0  0  0
   59.5706   35.2609   48.8465 H   0  0  0  0  0  0  0  0  0  0  0  0
   58.6330   32.6820   46.8750 C   0  0  0  0  0  0  0  0  0  0  0  0
   58.4589   31.8997   47.6284 H   0  0  0  0  0  0  0  0  0  0  0  0
   58.2670   32.4880   45.5390 C   0  0  0  0  0  0  0  0  0  0  0  0
   58.7250   26.3400   45.8830 C   0  0  0  0  0  0  0  0  0  0  0  0
   59.2125   25.3692   46.0562 H   0  0  0  0  0  0  0  0  0  0  0  0
   59.4280   27.5480   46.3640 C   0  0  0  0  0  0  0  0  0  0  0  0
   59.4320   27.8860   47.7300 C   0  0  0  0  0  0  0  0  0  0  0  0
   58.9376   27.2267   48.4586 H   0  0  0  0  0  0  0  0  0  0  0  0
   60.0610   29.0550   48.1650 C   0  0  0  0  0  0  0  0  0  0  0  0
   60.0756   29.3048   49.2362 H   0  0  0  0  0  0  0  0  0  0  0  0
   60.6720   29.9080   47.2410 C   0  0  0  0  0  0  0  0  0  0  0  0
   61.1722   30.8250   47.5857 H   0  0  0  0  0  0  0  0  0  0  0  0
   60.6470   29.5950   45.8790 C   0  0  0  0  0  0  0  0  0  0  0  0
   61.1223   30.2703   45.1523 H   0  0  0  0  0  0  0  0  0  0  0  0
   60.0190   28.4250   45.4370 C   0  0  0  0  0  0  0  0  0  0  0  0
   59.9990   28.1410   44.1110 F   0  0  0  0  0  0  0  0  0  0  0  0
  1  2  1  0
  2  3  1  0
  3  4  2  0
  3  5  1  0
  5  6  1  0
  6  7  1  0
  6  8  1  0
  6  9  1  0
  9 10  1  0
  9 11  1  0
  9 12  1  0
 12 13  1  0
 13 14  1  0
 13 15  2  0
 15 16  1  0
 15 17  1  0
 17 18  2  0
 18 19  1  0
 18 20  1  0
 20 21  1  0
 20 22  2  0
 22 23  1  0
 23 24  1  0
 23 25  1  0
 23 26  1  0
 22 27  1  0
 27 28  1  0
 27 29  2  0
  2 30  2  0
 30 31  1  0
 30 32  1  0
 32 33  2  0
 33 34  1  0
 33 35  1  0
 35 36  1  0
 35 37  2  0
 37 38  1  0
 37 39  1  0
 39 40  1  0
 39 41  2  0
 41 42  1  0
 29 12  1  0
 41 32  1  0
 29 17  1  0
M  CHG  1   5  -1
M  END
>  <UniqueID>  (11) 
8

>  <SMILES>  (11) 
Cc1ccc2ccn(CC[N-]C(=O)/C=C\c3ccccc3F)c2c1

>  <Energy>  (11) 
79.40115522075672

>  <Genealogy>  (11) 
Cc1ccc2ccn(CC[N-]C(=O)C=Cc3ccccc3F)c2c1 (protonated)
Cc1ccc2ccn(CC[N-]C(=O)/C=C\c3ccccc3F)c2c1 (cis-trans isomerization)
Cc1ccc2ccn(CC[N-]C(=O)/C=C\c3ccccc3F)c2c1 (3D coordinates assigned)
Cc1ccc2ccn(CC[N-]C(=O)/C=C\c3ccccc3F)c2c1 (optimized conformer: 79.40115522075672 kcal/mol)

>  <smiles>  (11) 
Cc1ccc2ccn(CCNC(=O)C=Cc3ccccc3F)c2c1

>  <score_type>  (11) 
oracle

>  <origin>  (11) 
adg

>  <m_score__min__energy>  (11) 
-9.8599999999999994

>  <m_primary>  (11) 
energy

$$$$
11:0
     RDKit          3D

 44 47  0  0  0  0  0  0  0  0999 V2000
   55.8547   23.0625   44.2536 H   0  0  0  0  0  0  0  0  0  0  0  0
   55.7660   24.0210   44.7860 C   0  0  0  0  0  0  0  0  0  0  0  0
   56.7200   24.9640   44.8840 N   0  0  0  0  0  0  0  0  0  0  0  0
   56.1920   25.9410   45.6060 N   0  0  0  0  0  0  0  0  0  0  0  0
   56.8880   27.1450   45.9440 C   0  0  0  0  0  0  0  0  0  0  0  0
   56.5810   28.3100   45.3160 N   0  0  0  0  0  0  0  0  0  0  0  0
   57.2340   29.4540   45.6360 C   0  0  0  0  0  0  0  0  0  0  0  0
   56.9400   30.5530   45.0030 N   0  0  0  0  0  0  0  0  0  0  0  0
   57.5890   31.8280   45.1420 C   0  0  0  0  0  0  0  0  0  0  0  0
   58.0710   32.5480   44.0320 C   0  0  0  0  0  0  0  0  0  0  0  0
   57.9356   32.1449   43.0175 H   0  0  0  0  0  0  0  0  0  0  0  0
   58.7210   33.7730   44.2130 C   0  0  0  0  0  0  0  0  0  0  0  0
   59.0895   34.3318   43.3401 H   0  0  0  0  0  0  0  0  0  0  0  0
   58.9050   34.2920   45.5030 C   0  0  0  0  0  0  0  0  0  0  0  0
   59.6380   35.5860   45.6980 C   0  0  0  0  0  0  0  0  0  0  0  0
   59.7507   35.7850   46.7740 H   0  0  0  0  0  0  0  0  0  0  0  0
   60.6319   35.5183   45.2315 H   0  0  0  0  0  0  0  0  0  0  0  0
   59.0689   36.4037   45.2315 H   0  0  0  0  0  0  0  0  0  0  0  0
   58.4720   33.5520   46.6110 C   0  0  0  0  0  0  0  0  0  0  0  0
   58.6446   33.9357   47.6274 H   0  0  0  0  0  0  0  0  0  0  0  0
   57.8210   32.3270   46.4300 C   0  0  0  0  0  0  0  0  0  0  0  0
   57.4887   31.7511   47.3063 H   0  0  0  0  0  0  0  0  0  0  0  0
   58.2110   29.4250   46.5800 N   0  0  0  0  0  0  0  0  0  0  0  0
   58.5260   28.2670   47.2190 C   0  0  0  0  0  0  0  0  0  0  0  0
   59.5590   28.2540   48.2250 N   0  0  0  0  0  0  0  0  0  0  0  0
   59.7010   29.4100   49.1230 C   0  0  0  0  0  0  0  0  0  0  0  0
   59.7104   30.3303   48.5205 H   0  0  0  0  0  0  0  0  0  0  0  0
   58.8530   29.4059   49.8237 H   0  0  0  0  0  0  0  0  0  0  0  0
   60.9960   29.3380   49.9400 C   0  0  0  0  0  0  0  0  0  0  0  0
   61.8534   29.4674   49.2632 H   0  0  0  0  0  0  0  0  0  0  0  0
   60.9714   30.1355   50.6972 H   0  0  0  0  0  0  0  0  0  0  0  0
   61.1300   27.9910   50.6630 C   0  0  0  0  0  0  0  0  0  0  0  0
   62.1733   27.8763   50.9922 H   0  0  0  0  0  0  0  0  0  0  0  0
   60.4224   28.0074   51.5051 H   0  0  0  0  0  0  0  0  0  0  0  0
   60.7590   26.7740   49.7870 C   0  0  0  0  0  0  0  0  0  0  0  0
   61.5828   26.0465   49.8334 H   0  0  0  0  0  0  0  0  0  0  0  0
   59.8190   26.3623   50.1832 H   0  0  0  0  0  0  0  0  0  0  0  0
   60.5120   27.1360   48.3180 C   0  0  0  0  0  0  0  0  0  0  0  0
   61.4636   27.4295   47.8508 H   0  0  0  0  0  0  0  0  0  0  0  0
   60.0930   26.2620   47.7978 H   0  0  0  0  0  0  0  0  0  0  0  0
   57.8590   27.1280   46.8940 N   0  0  0  0  0  0  0  0  0  0  0  0
   54.9490   25.6800   45.9790 N   0  0  0  0  0  0  0  0  0  0  0  0
   54.6580   24.4690   45.4710 C   0  0  0  0  0  0  0  0  0  0  0  0
   53.7046   23.9318   45.5827 H   0  0  0  0  0  0  0  0  0  0  0  0
  1  2  1  0
  2  3  2  0
  3  4  1  0
  4  5  1  0
  5  6  2  0
  6  7  1  0
  7  8  2  0
  8  9  1  0
  9 10  2  0
 10 11  1  0
 10 12  1  0
 12 13  1  0
 12 14  2  0
 14 15  1  0
 15 16  1  0
 15 17  1  0
 15 18  1  0
 14 19  1  0
 19 20  1  0
 19 21  2  0
 21 22  1  0
  7 23  1  0
 23 24  2  0
 24 25  1  0
 25 26  1  0
 26 27  1  0
 26 28  1  0
 26 29  1  0
 29 30  1  0
 29 31  1  0
 29 32  1  0
 32 33  1  0
 32 34  1  0
 32 35  1  0
 35 36  1  0
 35 37  1  0
 35 38  1  0
 38 39  1  0
 38 40  1  0
 24 41  1  0
  4 42  1  0
 42 43  2  0
 43 44  1  0
 43  2  1  0
 41  5  1  0
 21  9  1  0
 38 25  1  0
M  CHG  1  41  -1
M  END
>  <UniqueID>  (12) 
9

>  <SMILES>  (12) 
Cc1ccc(/N=c2\nc(N3CCCCC3)[n-]c(-n3nccn3)n2)cc1

>  <Energy>  (12) 
86.48317772866965

>  <Genealogy>  (12) 
Cc1ccc(N=c2nc(N3CCCCC3)[n-]c(-n3nccn3)n2)cc1 (protonated)
Cc1ccc(/N=c2\nc(N3CCCCC3)[n-]c(-n3nccn3)n2)cc1 (cis-trans isomerization)
Cc1ccc(/N=c2\nc(N3CCCCC3)[n-]c(-n3nccn3)n2)cc1 (3D coordinates assigned)
Cc1ccc(/N=c2\nc(N3CCCCC3)[n-]c(-n3nccn3)n2)cc1 (nonaromatic ring conformer: 86.48317772866965 kcal/mol)

>  <smiles>  (12) 
Cc1ccc(N=c2nc(N3CCCCC3)[nH]c(-n3nccn3)n2)cc1

>  <score_type>  (12) 
oracle

>  <origin>  (12) 
adg

>  <m_score__min__energy>  (12) 
-9.25

>  <m_primary>  (12) 
energy

$$$$
12:0
     RDKit          3D

 44 45  0  0  0  0  0  0  0  0999 V2000
   63.6440   33.0570   47.1110 C   0  0  0  0  0  0  0  0  0  0  0  0
   63.3490   32.0170   48.1850 C   0  0  0  0  0  0  0  0  0  0  0  0
   61.9190   32.0950   48.5810 N   0  0  0  0  0  0  0  0  0  0  0  0
   61.6590   33.2270   49.4990 C   0  0  0  0  0  0  0  0  0  0  0  0
   60.1710   33.5710   49.5410 C   0  0  0  0  0  0  0  0  0  0  0  0
   61.4430   30.8230   49.1730 C   0  0  0  0  0  0  0  0  0  0  0  0
   60.6090   30.0080   48.1640 C   0  0  0  0  0  0  0  0  0  0  0  0
   60.8090   30.4340   46.7660 N   0  0  0  0  0  0  0  0  0  0  0  0
   59.6110   31.0140   46.1970 C   0  0  0  0  0  0  0  0  0  0  0  0
   58.5510   30.1770   45.8000 C   0  0  0  0  0  0  0  0  0  0  0  0
   57.3870   30.7100   45.2170 C   0  0  0  0  0  0  0  0  0  0  0  0
   56.3170   29.9010   44.8030 O   0  0  0  0  0  0  0  0  0  0  0  0
   55.9210   29.7210   43.4470 C   0  0  0  0  0  0  0  0  0  0  0  0
   57.2790   32.0920   45.0370 C   0  0  0  0  0  0  0  0  0  0  0  0
   58.3200   32.9430   45.4290 C   0  0  0  0  0  0  0  0  0  0  0  0
   58.2220   34.3300   45.2530 C   0  0  0  0  0  0  0  0  0  0  0  0
   59.2720   35.1590   45.6510 C   0  0  0  0  0  0  0  0  0  0  0  0
   60.4120   34.5920   46.2230 C   0  0  0  0  0  0  0  0  0  0  0  0
   60.4960   33.2460   46.3890 N   0  0  0  0  0  0  0  0  0  0  0  0
   59.4910   32.4070   46.0110 C   0  0  0  0  0  0  0  0  0  0  0  0
   63.9144   34.0104   47.5883 H   0  0  0  0  0  0  0  0  0  0  0  0
   64.4793   32.7106   46.4847 H   0  0  0  0  0  0  0  0  0  0  0  0
   62.7512   33.2007   46.4847 H   0  0  0  0  0  0  0  0  0  0  0  0
   63.5645   31.0131   47.7904 H   0  0  0  0  0  0  0  0  0  0  0  0
   63.9807   32.2129   49.0639 H   0  0  0  0  0  0  0  0  0  0  0  0
   61.9930   32.9531   50.5106 H   0  0  0  0  0  0  0  0  0  0  0  0
   62.2105   34.1061   49.1343 H   0  0  0  0  0  0  0  0  0  0  0  0
   59.8417   33.6471   50.5878 H   0  0  0  0  0  0  0  0  0  0  0  0
   60.0023   34.5318   49.0327 H   0  0  0  0  0  0  0  0  0  0  0  0
   59.5977   32.7817   49.0327 H   0  0  0  0  0  0  0  0  0  0  0  0
   62.3129   30.2254   49.4832 H   0  0  0  0  0  0  0  0  0  0  0  0
   60.8043   31.0615   50.0362 H   0  0  0  0  0  0  0  0  0  0  0  0
   60.8929   28.9488   48.2507 H   0  0  0  0  0  0  0  0  0  0  0  0
   59.5491   30.1731   48.4074 H   0  0  0  0  0  0  0  0  0  0  0  0
   61.0910   29.6010   46.1990 H   0  0  0  0  0  0  0  0  0  0  0  0
   61.6060   31.1100   46.7090 H   0  0  0  0  0  0  0  0  0  0  0  0
   58.6342   29.0902   45.9479 H   0  0  0  0  0  0  0  0  0  0  0  0
   54.9200   29.2660   43.4146 H   0  0  0  0  0  0  0  0  0  0  0  0
   55.8969   30.6966   42.9395 H   0  0  0  0  0  0  0  0  0  0  0  0
   56.6402   29.0613   42.9395 H   0  0  0  0  0  0  0  0  0  0  0  0
   56.3698   32.5142   44.5842 H   0  0  0  0  0  0  0  0  0  0  0  0
   57.3182   34.7650   44.8015 H   0  0  0  0  0  0  0  0  0  0  0  0
   59.2018   36.2483   45.5152 H   0  0  0  0  0  0  0  0  0  0  0  0
   61.2449   35.2367   46.5403 H   0  0  0  0  0  0  0  0  0  0  0  0
  1  2  1  0
  2  3  1  0
  3  4  1  0
  4  5  1  0
  3  6  1  0
  6  7  1  0
  7  8  1  0
  8  9  1  0
  9 10  2  0
 10 11  1  0
 11 12  1  0
 12 13  1  0
 11 14  2  0
 14 15  1  0
 15 16  2  0
 16 17  1  0
 17 18  2  0
 18 19  1  0
 19 20  2  0
 20  9  1  0
 20 15  1  0
  1 21  1  0
  1 22  1  0
  1 23  1  0
  2 24  1  0
  2 25  1  0
  4 26  1  0
  4 27  1  0
  5 28  1  0
  5 29  1  0
  5 30  1  0
  6 31  1  0
  6 32  1  0
  7 33  1  0
  7 34  1  0
  8 35  1  0
  8 36  1  0
 10 37  1  0
 13 38  1  0
 13 39  1  0
 13 40  1  0
 14 41  1  0
 16 42  1  0
 17 43  1  0
 18 44  1  0
M  CHG  1   8   1
M  END
>  <UniqueID>  (13) 
10

>  <SMILES>  (13) 
CCN(CC)CC[NH2+]c1cc(OC)cc2cccnc12

>  <Energy>  (13) 
45.0346280639663

>  <Genealogy>  (13) 
CCN(CC)CC[NH2+]c1cc(OC)cc2cccnc12 (protonated)
CCN(CC)CC[NH2+]c1cc(OC)cc2cccnc12 (3D coordinates assigned)
CCN(CC)CC[NH2+]c1cc(OC)cc2cccnc12 (optimized conformer: 45.0346280639663 kcal/mol)

>  <smiles>  (13) 
CCN(CC)CCNc1cc(OC)cc2cccnc12

>  <score_type>  (13) 
oracle

>  <origin>  (13) 
adg

>  <m_score__min__energy>  (13) 
-4.2000000000000002

>  <m_primary>  (13) 
energy

$$$$
13:0
     RDKit          3D

 39 41  0  0  0  0  0  0  0  0999 V2000
   61.0512   35.0042   48.5484 H   0  0  0  0  0  0  0  0  0  0  0  0
   60.2650   34.5520   47.9260 C   0  0  0  0  0  0  0  0  0  0  0  0
   59.5180   33.4780   48.4160 C   0  0  0  0  0  0  0  0  0  0  0  0
   59.7230   33.0788   49.4203 H   0  0  0  0  0  0  0  0  0  0  0  0
   58.5100   32.9100   47.6310 C   0  0  0  0  0  0  0  0  0  0  0  0
   57.9357   32.0537   48.0143 H   0  0  0  0  0  0  0  0  0  0  0  0
   58.2270   33.4250   46.3590 C   0  0  0  0  0  0  0  0  0  0  0  0
   57.2040   32.7960   45.5680 N   0  0  0  0  0  0  0  0  0  0  0  0
   57.2440   31.5980   45.0630 C   0  0  0  0  0  0  0  0  0  0  0  0
   56.1060   31.0730   44.5020 N   0  0  0  0  0  0  0  0  0  0  0  0
   56.0920   29.8230   43.9490 C   0  0  0  0  0  0  0  0  0  0  0  0
   55.0370   29.3510   43.4520 O   0  0  0  0  0  0  0  0  0  0  0  0
   57.2760   29.1000   43.9590 C   0  0  0  0  0  0  0  0  0  0  0  0
   58.3930   29.6390   44.4980 C   0  0  0  0  0  0  0  0  0  0  0  0
   58.4080   30.8730   45.0560 N   0  0  0  0  0  0  0  0  0  0  0  0
   59.4030   28.7580   44.4240 N   0  0  0  0  0  0  0  0  0  0  0  0
   60.7620   28.8980   44.9430 C   0  0  0  0  0  0  0  0  0  0  0  0
   61.3894   29.3860   44.1826 H   0  0  0  0  0  0  0  0  0  0  0  0
   61.1528   27.8972   45.1791 H   0  0  0  0  0  0  0  0  0  0  0  0
   60.7750   29.7410   46.2190 C   0  0  0  0  0  0  0  0  0  0  0  0
   60.6030   30.7961   45.9597 H   0  0  0  0  0  0  0  0  0  0  0  0
   61.7517   29.6312   46.7129 H   0  0  0  0  0  0  0  0  0  0  0  0
   59.7160   29.2860   47.1380 N   0  0  0  0  0  0  0  0  0  0  0  0
   58.7800   29.5780   46.7690 H   0  0  0  0  0  0  0  0  0  0  0  0
   59.7300   27.8300   47.3520 C   0  0  0  0  0  0  0  0  0  0  0  0
   60.0686   27.6256   48.3784 H   0  0  0  0  0  0  0  0  0  0  0  0
   60.4107   27.3853   46.6111 H   0  0  0  0  0  0  0  0  0  0  0  0
   58.3450   27.2050   47.1550 C   0  0  0  0  0  0  0  0  0  0  0  0
   57.8920   27.0006   48.1363 H   0  0  0  0  0  0  0  0  0  0  0  0
   57.7049   27.9015   46.5936 H   0  0  0  0  0  0  0  0  0  0  0  0
   58.4438   26.2642   46.5936 H   0  0  0  0  0  0  0  0  0  0  0  0
   58.8490   27.6700   43.8300 C   0  0  0  0  0  0  0  0  0  0  0  0
   59.4008   26.7422   43.6184 H   0  0  0  0  0  0  0  0  0  0  0  0
   57.5380   27.8540   43.5260 N   0  0  0  0  0  0  0  0  0  0  0  0
   56.8820   27.1760   43.0790 H   0  0  0  0  0  0  0  0  0  0  0  0
   59.0070   34.4860   45.8590 C   0  0  0  0  0  0  0  0  0  0  0  0
   58.8229   34.8707   44.8450 H   0  0  0  0  0  0  0  0  0  0  0  0
   60.0140   35.0520   46.6460 C   0  0  0  0  0  0  0  0  0  0  0  0
   60.6091   35.8915   46.2572 H   0  0  0  0  0  0  0  0  0  0  0  0
  1  2  1  0
  2  3  2  0
  3  4  1  0
  3  5  1  0
  5  6  1  0
  5  7  2  0
  7  8  1  0
  8  9  2  0
  9 10  1  0
 10 11  1  0
 11 12  2  0
 11 13  1  0
 13 14  2  0
 14 15  1  0
 14 16  1  0
 16 17  1  0
 17 18  1  0
 17 19  1  0
 17 20  1  0
 20 21  1  0
 20 22  1  0
 20 23  1  0
 23 24  1  0
 23 25  1  0
 25 26  1  0
 25 27  1  0
 25 28  1  0
 28 29  1  0
 28 30  1  0
 28 31  1  0
 16 32  1  0
 32 33  1  0
 32 34  2  0
 34 35  1  0
  7 36  1  0
 36 37  1  0
 36 38  2  0
 38 39  1  0
 38  2  1  0
 15  9  1  0
 34 13  1  0
M  CHG  3  10  -1  15  -1  34   1
M  END
>  <UniqueID>  (14) 
11

>  <SMILES>  (14) 
CCNCCn1c[nH+]c2c(=O)[n-]/c(=N/c3ccccc3)[n-]c21

>  <Energy>  (14) 
84.9361112736599

>  <Genealogy>  (14) 
CCNCCn1c[nH+]c2c(=O)[n-]c(=Nc3ccccc3)[n-]c21 (protonated)
CCNCCn1c[nH+]c2c(=O)[n-]/c(=N/c3ccccc3)[n-]c21 (cis-trans isomerization)
CCNCCn1c[nH+]c2c(=O)[n-]/c(=N/c3ccccc3)[n-]c21 (3D coordinates assigned)
CCNCCn1c[nH+]c2c(=O)[n-]/c(=N/c3ccccc3)[n-]c21 (optimized conformer: 84.9361112736599 kcal/mol)

>  <smiles>  (14) 
CCNCCn1cnc2c(=O)[nH]c(=Nc3ccccc3)[nH]c21

>  <score_type>  (14) 
oracle

>  <origin>  (14) 
adg

>  <m_score__min__energy>  (14) 
-7.7800000000000002

>  <m_primary>  (14) 
energy

$$$$
14:0
     RDKit          3D

 44 45  0  0  0  0  0  0  0  0999 V2000
   63.3550   33.4350   47.2780 C   0  0  0  0  0  0  0  0  0  0  0  0
   62.1180   32.5370   47.1190 C   0  0  0  0  0  0  0  0  0  0  0  0
   61.4070   32.2270   48.3820 N   0  0  0  0  0  0  0  0  0  0  0  0
   61.0830   30.7990   48.5580 C   0  0  0  0  0  0  0  0  0  0  0  0
   60.2640   30.2870   47.4010 C   0  0  0  0  0  0  0  0  0  0  0  0
   60.8900   29.8060   46.2430 C   0  0  0  0  0  0  0  0  0  0  0  0
   60.1270   29.3280   45.1730 C   0  0  0  0  0  0  0  0  0  0  0  0
   58.7190   29.3080   45.2410 C   0  0  0  0  0  0  0  0  0  0  0  0
   57.9260   28.8150   44.1300 N   0  0  0  0  0  0  0  0  0  0  0  0
   56.8750   29.6480   43.5330 C   0  0  0  0  0  0  0  0  0  0  0  0
   58.1620   27.4720   43.5820 C   0  0  0  0  0  0  0  0  0  0  0  0
   58.1020   29.7800   46.4180 C   0  0  0  0  0  0  0  0  0  0  0  0
   58.8660   30.2570   47.4860 C   0  0  0  0  0  0  0  0  0  0  0  0
   60.0310   33.2800   48.6560 S   0  0  0  0  0  0  0  0  0  0  0  0
   59.0990   32.6470   49.6520 O   0  0  0  0  0  0  0  0  0  0  0  0
   60.5140   34.5740   49.2510 O   0  0  0  0  0  0  0  0  0  0  0  0
   59.1270   33.6300   47.1830 C   0  0  0  0  0  0  0  0  0  0  0  0
   59.7270   34.3460   46.1370 C   0  0  0  0  0  0  0  0  0  0  0  0
   59.0070   34.6230   44.9710 C   0  0  0  0  0  0  0  0  0  0  0  0
   57.6820   34.1940   44.8470 C   0  0  0  0  0  0  0  0  0  0  0  0
   57.0760   33.4900   45.8910 C   0  0  0  0  0  0  0  0  0  0  0  0
   57.7930   33.2120   47.0580 C   0  0  0  0  0  0  0  0  0  0  0  0
   63.5633   33.5862   48.3475 H   0  0  0  0  0  0  0  0  0  0  0  0
   64.2212   32.9540   46.8002 H   0  0  0  0  0  0  0  0  0  0  0  0
   63.1659   34.4076   46.8002 H   0  0  0  0  0  0  0  0  0  0  0  0
   61.4120   33.0437   46.4446 H   0  0  0  0  0  0  0  0  0  0  0  0
   62.4819   31.5765   46.7254 H   0  0  0  0  0  0  0  0  0  0  0  0
   62.0178   30.2226   48.6205 H   0  0  0  0  0  0  0  0  0  0  0  0
   60.4975   30.6826   49.4819 H   0  0  0  0  0  0  0  0  0  0  0  0
   61.9879   29.8045   46.1754 H   0  0  0  0  0  0  0  0  0  0  0  0
   60.6320   28.9629   44.2665 H   0  0  0  0  0  0  0  0  0  0  0  0
   56.2819   30.1180   44.3313 H   0  0  0  0  0  0  0  0  0  0  0  0
   57.3356   30.4290   42.9102 H   0  0  0  0  0  0  0  0  0  0  0  0
   56.2199   29.0212   42.9102 H   0  0  0  0  0  0  0  0  0  0  0  0
   58.2878   26.7560   44.4076 H   0  0  0  0  0  0  0  0  0  0  0  0
   57.3028   27.1719   42.9641 H   0  0  0  0  0  0  0  0  0  0  0  0
   59.0720   27.4828   42.9641 H   0  0  0  0  0  0  0  0  0  0  0  0
   57.0048   29.7725   46.4962 H   0  0  0  0  0  0  0  0  0  0  0  0
   58.3665   30.6114   48.3997 H   0  0  0  0  0  0  0  0  0  0  0  0
   60.7671   34.6907   46.2342 H   0  0  0  0  0  0  0  0  0  0  0  0
   59.4835   35.1791   44.1502 H   0  0  0  0  0  0  0  0  0  0  0  0
   57.1170   34.4105   43.9283 H   0  0  0  0  0  0  0  0  0  0  0  0
   56.0330   33.1541   45.7941 H   0  0  0  0  0  0  0  0  0  0  0  0
   57.3105   32.6641   47.8808 H   0  0  0  0  0  0  0  0  0  0  0  0
  1  2  1  0
  2  3  1  0
  3  4  1  0
  4  5  1  0
  5  6  2  0
  6  7  1  0
  7  8  2  0
  8  9  1  0
  9 10  1  0
  9 11  1  0
  8 12  1  0
 12 13  2  0
  3 14  1  0
 14 15  2  0
 14 16  2  0
 14 17  1  0
 17 18  2  0
 18 19  1  0
 19 20  2  0
 20 21  1  0
 21 22  2  0
 13  5  1  0
 22 17  1  0
  1 23  1  0
  1 24  1  0
  1 25  1  0
  2 26  1  0
  2 27  1  0
  4 28  1  0
  4 29  1  0
  6 30  1  0
  7 31  1  0
 10 32  1  0
 10 33  1  0
 10 34  1  0
 11 35  1  0
 11 36  1  0
 11 37  1  0
 12 38  1  0
 13 39  1  0
 18 40  1  0
 19 41  1  0
 20 42  1  0
 21 43  1  0
 22 44  1  0
M  END
>  <UniqueID>  (15) 
12

>  <SMILES>  (15) 
CCN(Cc1ccc(N(C)C)cc1)S(=O)(=O)c1ccccc1

>  <Energy>  (15) 
47.42592455327565

>  <Genealogy>  (15) 
CCN(Cc1ccc(N(C)C)cc1)S(=O)(=O)c1ccccc1 (3D coordinates assigned)
CCN(Cc1ccc(N(C)C)cc1)S(=O)(=O)c1ccccc1 (optimized conformer: 47.42592455327565 kcal/mol)

>  <smiles>  (15) 
CCN(Cc1ccc(N(C)C)cc1)S(=O)(=O)c1ccccc1

>  <score_type>  (15) 
oracle

>  <origin>  (15) 
adg

>  <m_score__min__energy>  (15) 
-8.0299999999999994

>  <m_primary>  (15) 
energy

$$$$
15:0
     RDKit          3D

 56 59  0  0  0  0  0  0  0  0999 V2000
   59.2900   34.9670   47.5910 C   0  0  0  0  0  0  0  0  0  0  0  0
   58.7520   33.8770   46.7030 C   0  0  0  0  0  0  0  0  0  0  0  0
   57.4470   33.9810   46.1990 C   0  0  0  0  0  0  0  0  0  0  0  0
   56.9270   32.9910   45.3640 C   0  0  0  0  0  0  0  0  0  0  0  0
   57.6920   31.8620   45.0300 C   0  0  0  0  0  0  0  0  0  0  0  0
   57.1230   30.7950   44.1110 C   0  0  0  0  0  0  0  0  0  0  0  0
   57.9300   29.5480   44.0340 N   0  0  0  0  0  0  0  0  0  0  0  0
   58.2090   28.9450   45.3680 C   0  0  0  0  0  0  0  0  0  0  0  0
   57.4020   27.6660   45.6320 C   0  0  0  0  0  0  0  0  0  0  0  0
   57.6400   26.6910   44.5600 N   0  0  0  0  0  0  0  0  0  0  0  0
   57.5090   25.2730   44.8130 C   0  0  0  0  0  0  0  0  0  0  0  0
   57.2020   24.3820   43.7660 C   0  0  0  0  0  0  0  0  0  0  0  0
   57.0780   23.0120   44.0160 C   0  0  0  0  0  0  0  0  0  0  0  0
   57.2580   22.5150   45.3080 C   0  0  0  0  0  0  0  0  0  0  0  0
   57.5610   23.3880   46.3550 C   0  0  0  0  0  0  0  0  0  0  0  0
   57.6870   24.7590   46.1120 C   0  0  0  0  0  0  0  0  0  0  0  0
   57.9650   27.1830   43.2150 C   0  0  0  0  0  0  0  0  0  0  0  0
   57.3960   28.5930   43.0270 C   0  0  0  0  0  0  0  0  0  0  0  0
   59.0160   31.7780   45.4950 C   0  0  0  0  0  0  0  0  0  0  0  0
   59.5510   32.7730   46.3290 C   0  0  0  0  0  0  0  0  0  0  0  0
   60.9670   32.6710   46.7510 C   0  0  0  0  0  0  0  0  0  0  0  0
   61.8510   33.6840   46.3430 C   0  0  0  0  0  0  0  0  0  0  0  0
   63.1990   33.6320   46.6930 C   0  0  0  0  0  0  0  0  0  0  0  0
   63.6840   32.5650   47.4480 C   0  0  0  0  0  0  0  0  0  0  0  0
   62.8190   31.5490   47.8620 C   0  0  0  0  0  0  0  0  0  0  0  0
   61.4470   31.5930   47.5410 C   0  0  0  0  0  0  0  0  0  0  0  0
   60.5410   30.4630   47.9870 C   0  0  0  0  0  0  0  0  0  0  0  0
   60.3860   29.5700   46.9440 F   0  0  0  0  0  0  0  0  0  0  0  0
   59.3020   30.9490   48.3630 F   0  0  0  0  0  0  0  0  0  0  0  0
   61.0740   29.7850   49.0700 F   0  0  0  0  0  0  0  0  0  0  0  0
   59.1503   34.6839   48.6447 H   0  0  0  0  0  0  0  0  0  0  0  0
   60.3618   35.1093   47.3886 H   0  0  0  0  0  0  0  0  0  0  0  0
   58.7510   35.9043   47.3886 H   0  0  0  0  0  0  0  0  0  0  0  0
   56.8280   34.8507   46.4643 H   0  0  0  0  0  0  0  0  0  0  0  0
   55.9079   33.0962   44.9636 H   0  0  0  0  0  0  0  0  0  0  0  0
   56.1182   30.5313   44.4726 H   0  0  0  0  0  0  0  0  0  0  0  0
   57.1187   31.2259   43.0989 H   0  0  0  0  0  0  0  0  0  0  0  0
   58.8610   29.8540   43.6600 H   0  0  0  0  0  0  0  0  0  0  0  0
   59.2801   28.7010   45.4247 H   0  0  0  0  0  0  0  0  0  0  0  0
   57.9134   29.6821   46.1292 H   0  0  0  0  0  0  0  0  0  0  0  0
   57.7117   27.2321   46.5942 H   0  0  0  0  0  0  0  0  0  0  0  0
   56.3310   27.9149   45.6621 H   0  0  0  0  0  0  0  0  0  0  0  0
   57.0589   24.7665   42.7454 H   0  0  0  0  0  0  0  0  0  0  0  0
   56.8379   22.3238   43.1922 H   0  0  0  0  0  0  0  0  0  0  0  0
   57.1612   21.4364   45.5012 H   0  0  0  0  0  0  0  0  0  0  0  0
   57.7009   22.9961   47.3732 H   0  0  0  0  0  0  0  0  0  0  0  0
   57.9268   25.4409   46.9411 H   0  0  0  0  0  0  0  0  0  0  0  0
   59.0576   27.2104   43.0902 H   0  0  0  0  0  0  0  0  0  0  0  0
   57.5233   26.5100   42.4654 H   0  0  0  0  0  0  0  0  0  0  0  0
   57.6612   28.9519   42.0216 H   0  0  0  0  0  0  0  0  0  0  0  0
   56.3048   28.5389   43.1552 H   0  0  0  0  0  0  0  0  0  0  0  0
   59.6410   30.9217   45.2017 H   0  0  0  0  0  0  0  0  0  0  0  0
   61.4758   34.5255   45.7421 H   0  0  0  0  0  0  0  0  0  0  0  0
   63.8810   34.4336   46.3732 H   0  0  0  0  0  0  0  0  0  0  0  0
   64.7495   32.5230   47.7182 H   0  0  0  0  0  0  0  0  0  0  0  0
   63.2134   30.7042   48.4457 H   0  0  0  0  0  0  0  0  0  0  0  0
  1  2  1  0
  2  3  2  0
  3  4  1  0
  4  5  2  0
  5  6  1  0
  6  7  1  0
  7  8  1  0
  8  9  1  0
  9 10  1  0
 10 11  1  0
 11 12  2  0
 12 13  1  0
 13 14  2  0
 14 15  1  0
 15 16  2  0
 10 17  1  0
 17 18  1  0
  5 19  1  0
 19 20  2  0
 20 21  1  0
 21 22  2  0
 22 23  1  0
 23 24  2  0
 24 25  1  0
 25 26  2  0
 26 27  1  0
 27 28  1  0
 27 29  1  0
 27 30  1  0
 20  2  1  0
 26 21  1  0
 18  7  1  0
 16 11  1  0
  1 31  1  0
  1 32  1  0
  1 33  1  0
  3 34  1  0
  4 35  1  0
  6 36  1  0
  6 37  1  0
  7 38  1  0
  8 39  1  0
  8 40  1  0
  9 41  1  0
  9 42  1  0
 12 43  1  0
 13 44  1  0
 14 45  1  0
 15 46  1  0
 16 47  1  0
 17 48  1  0
 17 49  1  0
 18 50  1  0
 18 51  1  0
 19 52  1  0
 22 53  1  0
 23 54  1  0
 24 55  1  0
 25 56  1  0
M  CHG  1   7   1
M  END
>  <UniqueID>  (16) 
13

>  <SMILES>  (16) 
Cc1ccc(C[NH+]2CCN(c3ccccc3)CC2)cc1-c1ccccc1C(F)(F)F

>  <Energy>  (16) 
81.47747967803

>  <Genealogy>  (16) 
Cc1ccc(C[NH+]2CCN(c3ccccc3)CC2)cc1-c1ccccc1C(F)(F)F (protonated)
Cc1ccc(C[NH+]2CCN(c3ccccc3)CC2)cc1-c1ccccc1C(F)(F)F (3D coordinates assigned)
Cc1ccc(C[NH+]2CCN(c3ccccc3)CC2)cc1-c1ccccc1C(F)(F)F (nonaromatic ring conformer: 81.47747967803 kcal/mol)

>  <smiles>  (16) 
Cc1ccc(CN2CCN(c3ccccc3)CC2)cc1-c1ccccc1C(F)(F)F

>  <score_type>  (16) 
oracle

>  <origin>  (16) 
adg

>  <m_score__min__energy>  (16) 
-7.1200000000000001

>  <m_primary>  (16) 
energy

$$$$
16:0
     RDKit          3D

 33 34  0  0  0  0  0  0  0  0999 V2000
   59.9650   29.3510   45.2550 C   0  0  0  0  0  0  0  0  0  0  0  0
   59.2960   27.9920   45.1030 C   0  0  0  0  0  0  0  0  0  0  0  0
   58.0720   28.0270   43.7450 S   0  0  0  0  0  0  0  0  0  0  0  0
   56.8720   29.1590   44.5410 C   0  0  0  0  0  0  0  0  0  0  0  0
   56.2020   30.0760   43.5140 C   0  0  0  0  0  0  0  0  0  0  0  0
   57.0540   31.2300   43.1930 N   0  0  0  0  0  0  0  0  0  0  0  0
   57.2730   31.5920   41.7900 C   0  0  0  0  0  0  0  0  0  0  0  0
   57.6300   32.0360   44.2410 C   0  0  0  0  0  0  0  0  0  0  0  0
   57.4140   31.7950   45.5640 N   0  0  0  0  0  0  0  0  0  0  0  0
   58.1070   32.7790   46.1620 C   0  0  0  0  0  0  0  0  0  0  0  0
   58.2340   33.0240   47.5270 C   0  0  0  0  0  0  0  0  0  0  0  0
   59.0140   34.1270   47.9240 C   0  0  0  0  0  0  0  0  0  0  0  0
   59.6390   34.9470   46.9560 C   0  0  0  0  0  0  0  0  0  0  0  0
   59.4880   34.6710   45.5840 C   0  0  0  0  0  0  0  0  0  0  0  0
   58.7100   33.5710   45.2310 C   0  0  0  0  0  0  0  0  0  0  0  0
   58.4210   33.1140   44.0060 N   0  0  0  0  0  0  0  0  0  0  0  0
   60.0804   29.5854   46.3235 H   0  0  0  0  0  0  0  0  0  0  0  0
   60.9548   29.3281   44.7757 H   0  0  0  0  0  0  0  0  0  0  0  0
   59.3432   30.1215   44.7757 H   0  0  0  0  0  0  0  0  0  0  0  0
   60.0620   27.2347   44.8801 H   0  0  0  0  0  0  0  0  0  0  0  0
   58.7783   27.7441   46.0414 H   0  0  0  0  0  0  0  0  0  0  0  0
   56.0983   28.5624   45.0464 H   0  0  0  0  0  0  0  0  0  0  0  0
   57.4150   29.7867   45.2629 H   0  0  0  0  0  0  0  0  0  0  0  0
   56.0112   29.5044   42.5938 H   0  0  0  0  0  0  0  0  0  0  0  0
   55.2600   30.4483   43.9430 H   0  0  0  0  0  0  0  0  0  0  0  0
   57.8418   32.5321   41.7384 H   0  0  0  0  0  0  0  0  0  0  0  0
   57.8393   30.7929   41.2892 H   0  0  0  0  0  0  0  0  0  0  0  0
   56.3024   31.7227   41.2892 H   0  0  0  0  0  0  0  0  0  0  0  0
   57.7420   32.3782   48.2693 H   0  0  0  0  0  0  0  0  0  0  0  0
   59.1380   34.3522   48.9935 H   0  0  0  0  0  0  0  0  0  0  0  0
   60.2468   35.8057   47.2772 H   0  0  0  0  0  0  0  0  0  0  0  0
   59.9665   35.3005   44.8193 H   0  0  0  0  0  0  0  0  0  0  0  0
   58.7320   33.5130   43.0920 H   0  0  0  0  0  0  0  0  0  0  0  0
  1  2  1  0
  2  3  1  0
  3  4  1  0
  4  5  1  0
  5  6  1  0
  6  7  1  0
  6  8  1  0
  8  9  2  0
  9 10  1  0
 10 11  2  0
 11 12  1  0
 12 13  2  0
 13 14  1  0
 14 15  2  0
 15 16  1  0
 16  8  1  0
 15 10  1  0
  1 17  1  0
  1 18  1  0
  1 19  1  0
  2 20  1  0
  2 21  1  0
  4 22  1  0
  4 23  1  0
  5 24  1  0
  5 25  1  0
  7 26  1  0
  7 27  1  0
  7 28  1  0
 11 29  1  0
 12 30  1  0
 13 31  1  0
 14 32  1  0
 16 33  1  0
M  END
>  <UniqueID>  (17) 
14

>  <SMILES>  (17) 
CCSCCN(C)c1nc2ccccc2[nH]1

>  <Energy>  (17) 
59.66777089325752

>  <Genealogy>  (17) 
CCSCCN(C)c1nc2ccccc2[nH]1 (3D coordinates assigned)
CCSCCN(C)c1nc2ccccc2[nH]1 (optimized conformer: 59.66777089325752 kcal/mol)

>  <smiles>  (17) 
CCSCCN(C)c1nc2ccccc2[nH]1

>  <score_type>  (17) 
oracle

>  <origin>  (17) 
adg

>  <m_score__min__energy>  (17) 
-5.6600000000000001

>  <m_primary>  (17) 
energy

$$$$
17:0
     RDKit          3D

 37 38  0  0  0  0  0  0  0  0999 V2000
   57.0580   33.8360   45.2530 C   0  0  0  0  0  0  0  0  0  0  0  0
   57.6800   32.4720   45.1710 C   0  0  0  0  0  0  0  0  0  0  0  0
   57.3110   31.5860   44.1470 C   0  0  0  0  0  0  0  0  0  0  0  0
   57.9170   30.3300   44.0500 C   0  0  0  0  0  0  0  0  0  0  0  0
   58.9090   29.9540   44.9650 C   0  0  0  0  0  0  0  0  0  0  0  0
   59.6630   28.3680   44.8560 S   0  0  1  0  0  5  0  0  0  0  0  0
   59.0610   27.5900   43.7180 O   0  0  0  0  0  0  0  0  0  0  0  0
   61.3130   28.5460   44.5780 O   0  0  0  0  0  0  0  0  0  0  0  0
   59.3850   27.4960   46.3910 C   0  0  0  0  0  0  0  0  0  0  0  0
   58.6850   26.1580   46.1600 C   0  0  0  0  0  0  0  0  0  0  0  0
   57.3290   26.2030   46.6890 N   0  0  0  0  0  0  0  0  0  0  0  0
   56.1740   25.9340   45.8910 C   0  0  0  0  0  0  0  0  0  0  0  0
   55.1520   26.6650   46.0000 O   0  0  0  0  0  0  0  0  0  0  0  0
   56.1610   24.8120   44.9350 C   0  0  0  0  0  0  0  0  0  0  0  0
   57.2860   24.6170   43.6960 S   0  0  0  0  0  0  0  0  0  0  0  0
   56.6000   23.1990   43.1210 C   0  0  0  0  0  0  0  0  0  0  0  0
   55.5160   22.8560   43.8500 N   0  0  0  0  0  0  0  0  0  0  0  0
   55.2600   23.7400   44.8560 C   0  0  0  0  0  0  0  0  0  0  0  0
   54.0930   23.5380   45.7700 C   0  0  0  0  0  0  0  0  0  0  0  0
   59.2870   30.8410   45.9820 C   0  0  0  0  0  0  0  0  0  0  0  0
   58.6820   32.0970   46.0790 C   0  0  0  0  0  0  0  0  0  0  0  0
   56.9296   34.1176   46.3086 H   0  0  0  0  0  0  0  0  0  0  0  0
   57.7115   34.5675   44.7553 H   0  0  0  0  0  0  0  0  0  0  0  0
   56.0772   33.8222   44.7553 H   0  0  0  0  0  0  0  0  0  0  0  0
   56.5420   31.8810   43.4179 H   0  0  0  0  0  0  0  0  0  0  0  0
   57.6141   29.6350   43.2530 H   0  0  0  0  0  0  0  0  0  0  0  0
   61.4550   28.2060   43.6590 H   0  0  0  0  0  0  0  0  0  0  0  0
   60.3543   27.3123   46.8776 H   0  0  0  0  0  0  0  0  0  0  0  0
   58.7372   28.1174   47.0268 H   0  0  0  0  0  0  0  0  0  0  0  0
   58.6474   25.9490   45.0807 H   0  0  0  0  0  0  0  0  0  0  0  0
   59.2460   25.3651   46.6763 H   0  0  0  0  0  0  0  0  0  0  0  0
   56.9820   22.6246   42.2642 H   0  0  0  0  0  0  0  0  0  0  0  0
   54.4313   23.5966   46.8150 H   0  0  0  0  0  0  0  0  0  0  0  0
   53.3416   24.3194   45.5835 H   0  0  0  0  0  0  0  0  0  0  0  0
   53.6480   22.5495   45.5835 H   0  0  0  0  0  0  0  0  0  0  0  0
   60.0618   30.5479   46.7057 H   0  0  0  0  0  0  0  0  0  0  0  0
   58.9926   32.7947   46.8706 H   0  0  0  0  0  0  0  0  0  0  0  0
  1  2  1  0
  2  3  2  0
  3  4  1  0
  4  5  2  0
  5  6  1  0
  6  7  2  0
  6  8  1  6
  6  9  1  0
  9 10  1  0
 10 11  1  0
 11 12  1  0
 12 13  2  0
 12 14  1  0
 14 15  1  0
 15 16  1  0
 16 17  2  0
 17 18  1  0
 18 19  1  0
  5 20  1  0
 20 21  2  0
 21  2  1  0
 18 14  2  0
  1 22  1  0
  1 23  1  0
  1 24  1  0
  3 25  1  0
  4 26  1  0
  8 27  1  0
  9 28  1  0
  9 29  1  0
 10 30  1  0
 10 31  1  0
 16 32  1  0
 19 33  1  0
 19 34  1  0
 19 35  1  0
 20 36  1  0
 21 37  1  0
M  CHG  2   6   1  11  -1
M  END
>  <UniqueID>  (18) 
15

>  <SMILES>  (18) 
Cc1ccc([S@@+](=O)(O)CC[N-]C(=O)c2scnc2C)cc1

>  <Energy>  (18) 
58.606986076072474

>  <Genealogy>  (18) 
Cc1ccc([S+](=O)(O)CC[N-]C(=O)c2scnc2C)cc1 (protonated)
Cc1ccc([S@@+](=O)(O)CC[N-]C(=O)c2scnc2C)cc1 (chirality)
Cc1ccc([S@@+](=O)(O)CC[N-]C(=O)c2scnc2C)cc1 (3D coordinates assigned)
Cc1ccc([S@@+](=O)(O)CC[N-]C(=O)c2scnc2C)cc1 (optimized conformer: 58.606986076072474 kcal/mol)

>  <smiles>  (18) 
Cc1ccc([S+](=O)([O-])CCNC(=O)c2scnc2C)cc1

>  <score_type>  (18) 
oracle

>  <origin>  (18) 
adg

>  <m_score__min__energy>  (18) 
-8.7400000000000002

>  <m_primary>  (18) 
energy

$$$$
18:0
     RDKit          3D

 35 36  0  0  0  0  0  0  0  0999 V2000
   58.1860   27.4370   43.5260 C   0  0  0  0  0  0  0  0  0  0  0  0
   58.0060   28.2600   44.7990 C   0  0  0  0  0  0  0  0  0  0  0  0
   56.6410   27.9970   45.4400 C   0  0  0  0  0  0  0  0  0  0  0  0
   55.6580   28.9600   44.9590 N   0  0  0  0  0  0  0  0  0  0  0  0
   55.9940   30.1180   44.1910 C   0  0  0  0  0  0  0  0  0  0  0  0
   55.8950   30.0990   42.9330 O   0  0  0  0  0  0  0  0  0  0  0  0
   56.4280   31.2710   44.8530 O   0  0  0  0  0  0  0  0  0  0  0  0
   57.2900   32.2380   44.2580 C   0  0  0  0  0  0  0  0  0  0  0  0
   58.4800   32.4940   45.1420 C   0  0  0  0  0  0  0  0  0  0  0  0
   59.0260   33.7810   45.2270 C   0  0  0  0  0  0  0  0  0  0  0  0
   60.1170   34.0340   46.0650 C   0  0  0  0  0  0  0  0  0  0  0  0
   60.6820   33.0000   46.8350 C   0  0  0  0  0  0  0  0  0  0  0  0
   61.8380   33.2600   47.7300 C   0  0  0  0  0  0  0  0  0  0  0  0
   61.7580   33.8580   48.9430 N   0  0  0  0  0  0  0  0  0  0  0  0
   62.9660   33.9760   49.5560 C   0  0  0  0  0  0  0  0  0  0  0  0
   64.0400   33.4690   48.8350 C   0  0  0  0  0  0  0  0  0  0  0  0
   63.4400   32.8610   47.3870 S   0  0  0  0  0  0  0  0  0  0  0  0
   60.1230   31.7120   46.7520 C   0  0  0  0  0  0  0  0  0  0  0  0
   59.0330   31.4610   45.9140 C   0  0  0  0  0  0  0  0  0  0  0  0
   58.4140   26.3944   43.7926 H   0  0  0  0  0  0  0  0  0  0  0  0
   57.2594   27.4699   42.9341 H   0  0  0  0  0  0  0  0  0  0  0  0
   59.0142   27.8537   42.9341 H   0  0  0  0  0  0  0  0  0  0  0  0
   58.7965   27.9908   45.5150 H   0  0  0  0  0  0  0  0  0  0  0  0
   58.0676   29.3263   44.5359 H   0  0  0  0  0  0  0  0  0  0  0  0
   56.3091   26.9807   45.1811 H   0  0  0  0  0  0  0  0  0  0  0  0
   56.7345   28.0985   46.5313 H   0  0  0  0  0  0  0  0  0  0  0  0
   57.6363   31.8639   43.2833 H   0  0  0  0  0  0  0  0  0  0  0  0
   56.7345   33.1782   44.1262 H   0  0  0  0  0  0  0  0  0  0  0  0
   58.5940   34.5982   44.6308 H   0  0  0  0  0  0  0  0  0  0  0  0
   60.5368   35.0491   46.1227 H   0  0  0  0  0  0  0  0  0  0  0  0
   60.8780   34.2220   49.3710 H   0  0  0  0  0  0  0  0  0  0  0  0
   63.0840   34.4378   50.5474 H   0  0  0  0  0  0  0  0  0  0  0  0
   65.0927   33.4660   49.1540 H   0  0  0  0  0  0  0  0  0  0  0  0
   60.5479   30.8942   47.3525 H   0  0  0  0  0  0  0  0  0  0  0  0
   58.6065   30.4485   45.8594 H   0  0  0  0  0  0  0  0  0  0  0  0
  1  2  1  0
  2  3  1  0
  3  4  1  0
  4  5  1  0
  5  6  2  0
  5  7  1  0
  7  8  1  0
  8  9  1  0
  9 10  2  0
 10 11  1  0
 11 12  2  0
 12 13  1  0
 13 14  2  0
 14 15  1  0
 15 16  2  0
 16 17  1  0
 12 18  1  0
 18 19  2  0
 19  9  1  0
 17 13  1  0
  1 20  1  0
  1 21  1  0
  1 22  1  0
  2 23  1  0
  2 24  1  0
  3 25  1  0
  3 26  1  0
  8 27  1  0
  8 28  1  0
 10 29  1  0
 11 30  1  0
 14 31  1  0
 15 32  1  0
 16 33  1  0
 18 34  1  0
 19 35  1  0
M  CHG  2   4  -1  14   1
M  END
>  <UniqueID>  (19) 
16

>  <SMILES>  (19) 
CCC[N-]C(=O)OCc1ccc(-c2[nH+]ccs2)cc1

>  <Energy>  (19) 
57.73218921880074

>  <Genealogy>  (19) 
CCC[N-]C(=O)OCc1ccc(-c2[nH+]ccs2)cc1 (protonated)
CCC[N-]C(=O)OCc1ccc(-c2[nH+]ccs2)cc1 (3D coordinates assigned)
CCC[N-]C(=O)OCc1ccc(-c2[nH+]ccs2)cc1 (optimized conformer: 57.73218921880074 kcal/mol)

>  <smiles>  (19) 
CCCNC(=O)OCc1ccc(-c2nccs2)cc1

>  <score_type>  (19) 
oracle

>  <origin>  (19) 
adg

>  <m_score__min__energy>  (19) 
-7.1500000000000004

>  <m_primary>  (19) 
energy

$$$$
19:0
     RDKit          3D

 51 53  0  0  0  0  0  0  0  0999 V2000
   65.3210   33.0490   50.0030 Cl  0  0  0  0  0  0  0  0  0  0  0  0
   63.8290   33.3360   49.1190 C   0  0  0  0  0  0  0  0  0  0  0  0
   63.7420   32.9950   47.7630 C   0  0  0  0  0  0  0  0  0  0  0  0
   62.5550   33.2230   47.0560 C   0  0  0  0  0  0  0  0  0  0  0  0
   61.4390   33.7990   47.6980 C   0  0  0  0  0  0  0  0  0  0  0  0
   60.2130   34.0280   46.9680 N   0  0  0  0  0  0  0  0  0  0  0  0
   59.0760   33.1150   47.1470 C   0  0  0  0  0  0  0  0  0  0  0  0
   57.7840   33.7490   46.6210 C   0  0  0  0  0  0  0  0  0  0  0  0
   57.9090   34.1920   45.2080 N   0  0  0  0  0  0  0  0  0  0  0  0
   57.7190   33.0430   44.2790 C   0  0  0  0  0  0  0  0  0  0  0  0
   56.7250   31.9880   44.8220 C   0  0  0  0  0  0  0  0  0  0  0  0
   56.8650   30.6250   44.1300 C   0  0  0  0  0  0  0  0  0  0  0  0
   56.0080   29.6320   44.8000 N   0  0  0  0  0  0  0  0  0  0  0  0
   56.7700   28.4610   45.2470 C   0  0  0  0  0  0  0  0  0  0  0  0
   58.1750   28.8660   45.6080 C   0  0  0  0  0  0  0  0  0  0  0  0
   58.4350   29.5730   46.7960 C   0  0  0  0  0  0  0  0  0  0  0  0
   59.7380   29.9840   47.0980 C   0  0  0  0  0  0  0  0  0  0  0  0
   60.7870   29.6890   46.2230 C   0  0  0  0  0  0  0  0  0  0  0  0
   60.5370   28.9830   45.0420 C   0  0  0  0  0  0  0  0  0  0  0  0
   59.2360   28.5750   44.7310 C   0  0  0  0  0  0  0  0  0  0  0  0
   59.1840   34.9270   44.9200 C   0  0  0  0  0  0  0  0  0  0  0  0
   60.0230   35.2470   46.1710 C   0  0  0  0  0  0  0  0  0  0  0  0
   61.5390   34.1390   49.0640 C   0  0  0  0  0  0  0  0  0  0  0  0
   62.7270   33.9080   49.7680 C   0  0  0  0  0  0  0  0  0  0  0  0
   64.6076   32.5474   47.2528 H   0  0  0  0  0  0  0  0  0  0  0  0
   62.4924   32.9509   45.9920 H   0  0  0  0  0  0  0  0  0  0  0  0
   59.2711   32.1830   46.5962 H   0  0  0  0  0  0  0  0  0  0  0  0
   58.9559   32.9061   48.2203 H   0  0  0  0  0  0  0  0  0  0  0  0
   56.9732   33.0088   46.6895 H   0  0  0  0  0  0  0  0  0  0  0  0
   57.5700   34.6364   47.2347 H   0  0  0  0  0  0  0  0  0  0  0  0
   57.1160   34.8620   45.0580 H   0  0  0  0  0  0  0  0  0  0  0  0
   57.3365   33.4255   43.3212 H   0  0  0  0  0  0  0  0  0  0  0  0
   58.6944   32.5482   44.1618 H   0  0  0  0  0  0  0  0  0  0  0  0
   56.9069   31.8555   45.8987 H   0  0  0  0  0  0  0  0  0  0  0  0
   55.7085   32.3576   44.6216 H   0  0  0  0  0  0  0  0  0  0  0  0
   56.5610   30.7177   43.0769 H   0  0  0  0  0  0  0  0  0  0  0  0
   57.9131   30.2960   44.1870 H   0  0  0  0  0  0  0  0  0  0  0  0
   55.5810   30.0850   45.6400 H   0  0  0  0  0  0  0  0  0  0  0  0
   56.2797   28.0225   46.1286 H   0  0  0  0  0  0  0  0  0  0  0  0
   56.8058   27.7220   44.4330 H   0  0  0  0  0  0  0  0  0  0  0  0
   57.6123   29.8032   47.4890 H   0  0  0  0  0  0  0  0  0  0  0  0
   59.9370   30.5403   48.0258 H   0  0  0  0  0  0  0  0  0  0  0  0
   61.8105   30.0125   46.4635 H   0  0  0  0  0  0  0  0  0  0  0  0
   61.3648   28.7483   44.3567 H   0  0  0  0  0  0  0  0  0  0  0  0
   59.0417   28.0252   43.7983 H   0  0  0  0  0  0  0  0  0  0  0  0
   59.7936   34.3091   44.2443 H   0  0  0  0  0  0  0  0  0  0  0  0
   58.8997   35.8916   44.4741 H   0  0  0  0  0  0  0  0  0  0  0  0
   61.0037   35.6382   45.8627 H   0  0  0  0  0  0  0  0  0  0  0  0
   59.4978   35.9994   46.7777 H   0  0  0  0  0  0  0  0  0  0  0  0
   60.6775   34.5887   49.5793 H   0  0  0  0  0  0  0  0  0  0  0  0
   62.7952   34.1761   50.8326 H   0  0  0  0  0  0  0  0  0  0  0  0
  1  2  1  0
  2  3  2  0
  3  4  1  0
  4  5  2  0
  5  6  1  0
  6  7  1  0
  7  8  1  0
  8  9  1  0
  9 10  1  0
 10 11  1  0
 11 12  1  0
 12 13  1  0
 13 14  1  0
 14 15  1  0
 15 16  2  0
 16 17  1  0
 17 18  2  0
 18 19  1  0
 19 20  2  0
  9 21  1  0
 21 22  1  0
  5 23  1  0
 23 24  2  0
 24  2  1  0
 22  6  1  0
 20 15  1  0
  3 25  1  0
  4 26  1  0
  7 27  1  0
  7 28  1  0
  8 29  1  0
  8 30  1  0
  9 31  1  0
 10 32  1  0
 10 33  1  0
 11 34  1  0
 11 35  1  0
 12 36  1  0
 12 37  1  0
 13 38  1  0
 14 39  1  0
 14 40  1  0
 16 41  1  0
 17 42  1  0
 18 43  1  0
 19 44  1  0
 20 45  1  0
 21 46  1  0
 21 47  1  0
 22 48  1  0
 22 49  1  0
 23 50  1  0
 24 51  1  0
M  CHG  1   9   1
M  END
>  <UniqueID>  (20) 
17

>  <SMILES>  (20) 
Clc1ccc(N2CC[NH+](CCCNCc3ccccc3)CC2)cc1

>  <Energy>  (20) 
59.78160943684444

>  <Genealogy>  (20) 
Clc1ccc(N2CC[NH+](CCCNCc3ccccc3)CC2)cc1 (protonated)
Clc1ccc(N2CC[NH+](CCCNCc3ccccc3)CC2)cc1 (3D coordinates assigned)
Clc1ccc(N2CC[NH+](CCCNCc3ccccc3)CC2)cc1 (nonaromatic ring conformer: 59.78160943684444 kcal/mol)

>  <smiles>  (20) 
Clc1ccc(N2CCN(CCCNCc3ccccc3)CC2)cc1

>  <score_type>  (20) 
oracle

>  <origin>  (20) 
adg

>  <m_score__min__energy>  (20) 
-6.54

>  <m_primary>  (20) 
energy

$$$$
20:0
     RDKit          3D

 26 26  0  0  0  0  0  0  0  0999 V2000
   58.6780   32.4390   47.6620 C   0  0  0  0  0  0  0  0  0  0  0  0
   57.8780   33.4470   46.8400 C   0  0  0  0  0  0  0  0  0  0  0  0
   58.2950   33.4220   45.4280 N   0  0  0  0  0  0  0  0  0  0  0  0
   59.2620   34.4430   44.9850 C   0  0  0  0  0  0  0  0  0  0  0  0
   59.6490   35.3640   46.1400 C   0  0  0  0  0  0  0  0  0  0  0  0
   57.7670   32.4270   44.5050 C   0  0  0  0  0  0  0  0  0  0  0  0
   57.8990   32.5900   43.1090 C   0  0  0  0  0  0  0  0  0  0  0  0
   57.3810   31.6260   42.2440 C   0  0  0  0  0  0  0  0  0  0  0  0
   56.7350   30.5060   42.7580 C   0  0  0  0  0  0  0  0  0  0  0  0
   56.6170   30.3620   44.1380 C   0  0  0  0  0  0  0  0  0  0  0  0
   57.1260   31.3080   44.9750 N   0  0  0  0  0  0  0  0  0  0  0  0
   58.5230   32.6342   48.7334 H   0  0  0  0  0  0  0  0  0  0  0  0
   58.3401   31.4200   47.4224 H   0  0  0  0  0  0  0  0  0  0  0  0
   59.7471   32.5367   47.4224 H   0  0  0  0  0  0  0  0  0  0  0  0
   56.8088   33.1966   46.9043 H   0  0  0  0  0  0  0  0  0  0  0  0
   58.0615   34.4539   47.2430 H   0  0  0  0  0  0  0  0  0  0  0  0
   60.1650   33.9430   44.6049 H   0  0  0  0  0  0  0  0  0  0  0  0
   58.7963   35.0484   44.1934 H   0  0  0  0  0  0  0  0  0  0  0  0
   59.4381   34.8620   47.0958 H   0  0  0  0  0  0  0  0  0  0  0  0
   60.7219   35.5988   46.0781 H   0  0  0  0  0  0  0  0  0  0  0  0
   59.0658   36.2946   46.0781 H   0  0  0  0  0  0  0  0  0  0  0  0
   58.4097   33.4760   42.7038 H   0  0  0  0  0  0  0  0  0  0  0  0
   57.4832   31.7512   41.1559 H   0  0  0  0  0  0  0  0  0  0  0  0
   56.3221   29.7429   42.0818 H   0  0  0  0  0  0  0  0  0  0  0  0
   56.1098   29.4792   44.5544 H   0  0  0  0  0  0  0  0  0  0  0  0
   57.0180   31.1380   45.9960 H   0  0  0  0  0  0  0  0  0  0  0  0
  1  2  1  0
  2  3  1  0
  3  4  1  0
  4  5  1  0
  3  6  1  0
  6  7  2  0
  7  8  1  0
  8  9  2  0
  9 10  1  0
 10 11  2  0
 11  6  1  0
  1 12  1  0
  1 13  1  0
  1 14  1  0
  2 15  1  0
  2 16  1  0
  4 17  1  0
  4 18  1  0
  5 19  1  0
  5 20  1  0
  5 21  1  0
  7 22  1  0
  8 23  1  0
  9 24  1  0
 10 25  1  0
 11 26  1  0
M  CHG  1  11   1
M  END
>  <UniqueID>  (21) 
18

>  <SMILES>  (21) 
CCN(CC)c1cccc[nH+]1

>  <Energy>  (21) 
22.4413323699247

>  <Genealogy>  (21) 
CCN(CC)c1cccc[nH+]1 (protonated)
CCN(CC)c1cccc[nH+]1 (3D coordinates assigned)
CCN(CC)c1cccc[nH+]1 (optimized conformer: 22.4413323699247 kcal/mol)

>  <smiles>  (21) 
CCN(CC)c1ccccn1

>  <score_type>  (21) 
oracle

>  <origin>  (21) 
adg

>  <m_score__min__energy>  (21) 
-2.8300000000000001

>  <m_primary>  (21) 
energy

$$$$
21:0
     RDKit          3D

 35 38  0  0  0  0  0  0  0  0999 V2000
   53.4190   24.1760   45.0290 O   0  0  0  0  0  0  0  0  0  0  0  0
   54.4850   24.7950   45.2860 C   0  0  0  0  0  0  0  0  0  0  0  0
   55.7160   24.2830   44.8760 C   0  0  0  0  0  0  0  0  0  0  0  0
   56.8780   24.9850   45.1850 C   0  0  0  0  0  0  0  0  0  0  0  0
   56.7820   26.1790   45.9080 C   0  0  0  0  0  0  0  0  0  0  0  0
   57.9860   26.9490   46.2700 C   0  0  0  0  0  0  0  0  0  0  0  0
   58.8980   26.3670   47.1640 C   0  0  0  0  0  0  0  0  0  0  0  0
   60.0470   27.0580   47.5530 C   0  0  0  0  0  0  0  0  0  0  0  0
   60.3010   28.3320   47.0480 C   0  0  0  0  0  0  0  0  0  0  0  0
   59.4150   28.9160   46.1430 C   0  0  0  0  0  0  0  0  0  0  0  0
   58.2560   28.2340   45.7330 C   0  0  0  0  0  0  0  0  0  0  0  0
   57.2070   28.9950   44.5220 S   0  0  0  0  0  0  0  0  0  0  0  0
   57.3120   28.2210   43.2400 O   0  0  0  0  0  0  0  0  0  0  0  0
   55.7760   28.9630   44.9830 O   0  0  0  0  0  0  0  0  0  0  0  0
   57.6600   30.6900   44.3010 C   0  0  0  0  0  0  0  0  0  0  0  0
   57.7660   31.2000   42.9940 C   0  0  0  0  0  0  0  0  0  0  0  0
   58.0700   32.5510   42.7670 C   0  0  0  0  0  0  0  0  0  0  0  0
   58.2760   33.4250   43.8400 C   0  0  0  0  0  0  0  0  0  0  0  0
   58.1830   32.9320   45.1420 C   0  0  0  0  0  0  0  0  0  0  0  0
   58.3610   33.6990   46.2440 N   0  0  0  0  0  0  0  0  0  0  0  0
   58.1340   32.6090   47.4580 S   0  0  0  0  0  0  0  0  0  0  0  0
   57.8120   31.1790   46.6870 N   0  0  0  0  0  0  0  0  0  0  0  0
   57.8810   31.5610   45.3810 C   0  0  0  0  0  0  0  0  0  0  0  0
   55.5540   26.6440   46.2630 N   0  0  0  0  0  0  0  0  0  0  0  0
   54.4410   25.9710   45.9650 N   0  0  0  0  0  0  0  0  0  0  0  0
   55.7680   23.3375   44.3162 H   0  0  0  0  0  0  0  0  0  0  0  0
   57.8595   24.6055   44.8646 H   0  0  0  0  0  0  0  0  0  0  0  0
   58.7061   25.3592   47.5610 H   0  0  0  0  0  0  0  0  0  0  0  0
   60.7529   26.5963   48.2591 H   0  0  0  0  0  0  0  0  0  0  0  0
   61.2022   28.8780   47.3639 H   0  0  0  0  0  0  0  0  0  0  0  0
   59.6251   29.9201   45.7461 H   0  0  0  0  0  0  0  0  0  0  0  0
   57.6081   30.5292   42.1367 H   0  0  0  0  0  0  0  0  0  0  0  0
   58.1471   32.9264   41.7359 H   0  0  0  0  0  0  0  0  0  0  0  0
   58.5078   34.4851   43.6598 H   0  0  0  0  0  0  0  0  0  0  0  0
   58.5840   34.7180   46.3060 H   0  0  0  0  0  0  0  0  0  0  0  0
  1  2  2  0
  2  3  1  0
  3  4  2  0
  4  5  1  0
  5  6  1  0
  6  7  2  0
  7  8  1  0
  8  9  2  0
  9 10  1  0
 10 11  2  0
 11 12  1  0
 12 13  2  0
 12 14  2  0
 12 15  1  0
 15 16  2  0
 16 17  1  0
 17 18  2  0
 18 19  1  0
 19 20  2  0
 20 21  1  0
 21 22  1  0
 22 23  2  0
  5 24  2  0
 24 25  1  0
 25  2  1  0
 11  6  1  0
 23 15  1  0
 23 19  1  0
  3 26  1  0
  4 27  1  0
  7 28  1  0
  8 29  1  0
  9 30  1  0
 10 31  1  0
 16 32  1  0
 17 33  1  0
 18 34  1  0
 20 35  1  0
M  CHG  2  20   1  25  -1
M  END
>  <UniqueID>  (22) 
19

>  <SMILES>  (22) 
O=c1ccc(-c2ccccc2S(=O)(=O)c2cccc3[nH+]snc23)n[n-]1

>  <Energy>  (22) 
89.55969524680263

>  <Genealogy>  (22) 
O=c1ccc(-c2ccccc2S(=O)(=O)c2cccc3[nH+]snc23)n[n-]1 (protonated)
O=c1ccc(-c2ccccc2S(=O)(=O)c2cccc3[nH+]snc23)n[n-]1 (3D coordinates assigned)
O=c1ccc(-c2ccccc2S(=O)(=O)c2cccc3[nH+]snc23)n[n-]1 (optimized conformer: 89.55969524680263 kcal/mol)

>  <smiles>  (22) 
O=c1ccc(-c2ccccc2S(=O)(=O)c2cccc3nsnc23)n[nH]1

>  <score_type>  (22) 
oracle

>  <origin>  (22) 
adg

>  <m_score__min__energy>  (22) 
-10.52

>  <m_primary>  (22) 
energy

$$$$
22:0
     RDKit          3D

 36 37  0  0  0  0  0  0  0  0999 V2000
   62.8920   33.4510   47.6240 C   0  0  0  0  0  0  0  0  0  0  0  0
   62.5770   33.9060   49.0500 C   0  0  0  0  0  0  0  0  0  0  0  0
   61.0640   33.8620   49.3640 C   0  0  0  0  0  0  0  0  0  0  0  0
   60.2810   34.8200   48.5630 N   0  0  0  0  0  0  0  0  0  0  0  0
   59.4780   34.1620   47.5610 C   0  0  0  0  0  0  0  0  0  0  0  0
   58.9120   32.9030   47.8170 C   0  0  0  0  0  0  0  0  0  0  0  0
   58.1490   32.2560   46.8420 C   0  0  0  0  0  0  0  0  0  0  0  0
   57.9080   32.8700   45.5990 C   0  0  0  0  0  0  0  0  0  0  0  0
   57.1090   32.1480   44.5220 C   0  0  0  0  0  0  0  0  0  0  0  0
   56.6530   30.7660   44.8330 N   0  0  0  0  0  0  0  0  0  0  0  0
   55.9420   30.0830   43.7440 C   0  0  0  0  0  0  0  0  0  0  0  0
   57.0150   29.0200   43.6040 C   0  0  0  0  0  0  0  0  0  0  0  0
   57.6960   29.7330   44.7580 C   0  0  0  0  0  0  0  0  0  0  0  0
   58.5110   34.1110   45.3290 C   0  0  0  0  0  0  0  0  0  0  0  0
   59.2740   34.7580   46.3040 C   0  0  0  0  0  0  0  0  0  0  0  0
   63.5178   32.5470   47.6574 H   0  0  0  0  0  0  0  0  0  0  0  0
   61.9539   33.2282   47.0946 H   0  0  0  0  0  0  0  0  0  0  0  0
   63.4308   34.2506   47.0946 H   0  0  0  0  0  0  0  0  0  0  0  0
   63.1031   33.2460   49.7554 H   0  0  0  0  0  0  0  0  0  0  0  0
   62.9090   34.9500   49.1491 H   0  0  0  0  0  0  0  0  0  0  0  0
   60.6927   32.8472   49.1581 H   0  0  0  0  0  0  0  0  0  0  0  0
   60.9394   34.1384   50.4214 H   0  0  0  0  0  0  0  0  0  0  0  0
   59.6420   35.3460   49.2060 H   0  0  0  0  0  0  0  0  0  0  0  0
   60.9200   35.5250   48.1270 H   0  0  0  0  0  0  0  0  0  0  0  0
   59.0707   32.4220   48.7935 H   0  0  0  0  0  0  0  0  0  0  0  0
   57.7332   31.2586   47.0476 H   0  0  0  0  0  0  0  0  0  0  0  0
   56.2150   32.7529   44.3101 H   0  0  0  0  0  0  0  0  0  0  0  0
   57.8038   32.0367   43.6765 H   0  0  0  0  0  0  0  0  0  0  0  0
   54.9639   29.6800   44.0455 H   0  0  0  0  0  0  0  0  0  0  0  0
   55.6511   30.6626   42.8555 H   0  0  0  0  0  0  0  0  0  0  0  0
   56.6856   27.9927   43.8187 H   0  0  0  0  0  0  0  0  0  0  0  0
   57.5222   28.8050   42.6519 H   0  0  0  0  0  0  0  0  0  0  0  0
   57.7709   29.1199   45.6682 H   0  0  0  0  0  0  0  0  0  0  0  0
   58.7447   30.0450   44.6443 H   0  0  0  0  0  0  0  0  0  0  0  0
   58.3808   34.5767   44.3410 H   0  0  0  0  0  0  0  0  0  0  0  0
   59.7183   35.7406   46.0868 H   0  0  0  0  0  0  0  0  0  0  0  0
  1  2  1  0
  2  3  1  0
  3  4  1  0
  4  5  1  0
  5  6  2  0
  6  7  1  0
  7  8  2  0
  8  9  1  0
  9 10  1  0
 10 11  1  0
 11 12  1  0
 12 13  1  0
  8 14  1  0
 14 15  2  0
 15  5  1  0
 13 10  1  0
  1 16  1  0
  1 17  1  0
  1 18  1  0
  2 19  1  0
  2 20  1  0
  3 21  1  0
  3 22  1  0
  4 23  1  0
  4 24  1  0
  6 25  1  0
  7 26  1  0
  9 27  1  0
  9 28  1  0
 11 29  1  0
 11 30  1  0
 12 31  1  0
 12 32  1  0
 13 33  1  0
 13 34  1  0
 14 35  1  0
 15 36  1  0
M  CHG  1   4   1
M  END
>  <UniqueID>  (23) 
20

>  <SMILES>  (23) 
CCC[NH2+]c1ccc(CN2CCC2)cc1

>  <Energy>  (23) 
109.55070655977013

>  <Genealogy>  (23) 
CCC[NH2+]c1ccc(CN2CCC2)cc1 (protonated)
CCC[NH2+]c1ccc(CN2CCC2)cc1 (3D coordinates assigned)
CCC[NH2+]c1ccc(CN2CCC2)cc1 (nonaromatic ring conformer: 109.55070655977013 kcal/mol)

>  <smiles>  (23) 
CCCNc1ccc(CN2CCC2)cc1

>  <score_type>  (23) 
oracle

>  <origin>  (23) 
adg

>  <m_score__min__energy>  (23) 
-4.5499999999999998

>  <m_primary>  (23) 
energy

$$$$
23:0
     RDKit          3D

 47 50  0  0  0  0  0  0  0  0999 V2000
   58.8090   33.0880   48.4490 C   0  0  0  0  0  0  0  0  0  0  0  0
   60.0520   33.3840   47.6690 C   0  0  0  0  0  0  0  0  0  0  0  0
   60.1480   33.9630   46.3990 C   0  0  0  0  0  0  0  0  0  0  0  0
   59.0390   34.4130   45.5390 C   0  0  0  0  0  0  0  0  0  0  0  0
   59.1480   35.4720   44.8640 O   0  0  0  0  0  0  0  0  0  0  0  0
   57.8470   33.6180   45.4740 N   0  0  0  0  0  0  0  0  0  0  0  0
   57.6150   32.6530   44.6330 C   0  0  0  0  0  0  0  0  0  0  0  0
   57.0030   31.4920   44.9520 N   0  0  0  0  0  0  0  0  0  0  0  0
   56.8920   30.6710   43.8750 C   0  0  0  0  0  0  0  0  0  0  0  0
   56.2150   29.3360   43.9620 C   0  0  0  0  0  0  0  0  0  0  0  0
   57.1830   28.2910   44.3380 N   0  0  0  0  0  0  0  0  0  0  0  0
   57.7760   27.4270   43.3090 C   0  0  0  0  0  0  0  0  0  0  0  0
   57.4680   28.0110   45.7250 C   0  0  0  0  0  0  0  0  0  0  0  0
   56.7400   27.1950   46.3570 O   0  0  0  0  0  0  0  0  0  0  0  0
   58.5900   28.6640   46.4320 C   0  0  0  0  0  0  0  0  0  0  0  0
   59.5090   29.4620   45.7310 C   0  0  0  0  0  0  0  0  0  0  0  0
   60.5820   30.0590   46.4040 C   0  0  0  0  0  0  0  0  0  0  0  0
   60.7540   29.8530   47.7760 C   0  0  0  0  0  0  0  0  0  0  0  0
   59.8520   29.0470   48.4780 C   0  0  0  0  0  0  0  0  0  0  0  0
   58.7770   28.4500   47.8100 C   0  0  0  0  0  0  0  0  0  0  0  0
   57.4010   31.1910   42.6840 C   0  0  0  0  0  0  0  0  0  0  0  0
   58.0270   32.7200   43.0080 S   0  0  0  0  0  0  0  0  0  0  0  0
   61.4170   34.0810   46.0460 O   0  0  0  0  0  0  0  0  0  0  0  0
   62.1520   33.6110   47.0240 C   0  0  0  0  0  0  0  0  0  0  0  0
   63.5420   33.5490   47.0860 C   0  0  0  0  0  0  0  0  0  0  0  0
   64.1260   33.0210   48.2500 C   0  0  0  0  0  0  0  0  0  0  0  0
   63.3170   32.5630   49.3110 C   0  0  0  0  0  0  0  0  0  0  0  0
   61.9140   32.6340   49.2200 C   0  0  0  0  0  0  0  0  0  0  0  0
   61.3620   33.1680   48.0540 C   0  0  0  0  0  0  0  0  0  0  0  0
   59.0302   33.1407   49.5252 H   0  0  0  0  0  0  0  0  0  0  0  0
   58.0337   33.8266   48.1975 H   0  0  0  0  0  0  0  0  0  0  0  0
   58.4498   32.0792   48.1975 H   0  0  0  0  0  0  0  0  0  0  0  0
   55.4193   29.3822   44.7201 H   0  0  0  0  0  0  0  0  0  0  0  0
   55.7878   29.0886   42.9790 H   0  0  0  0  0  0  0  0  0  0  0  0
   58.3352   26.6122   43.7921 H   0  0  0  0  0  0  0  0  0  0  0  0
   56.9780   27.0026   42.6821 H   0  0  0  0  0  0  0  0  0  0  0  0
   58.4590   28.0191   42.6821 H   0  0  0  0  0  0  0  0  0  0  0  0
   59.3853   29.6186   44.6492 H   0  0  0  0  0  0  0  0  0  0  0  0
   61.2918   30.6921   45.8514 H   0  0  0  0  0  0  0  0  0  0  0  0
   61.5972   30.3240   48.3025 H   0  0  0  0  0  0  0  0  0  0  0  0
   59.9878   28.8821   49.5571 H   0  0  0  0  0  0  0  0  0  0  0  0
   58.0749   27.8104   48.3649 H   0  0  0  0  0  0  0  0  0  0  0  0
   57.3943   30.6896   41.7049 H   0  0  0  0  0  0  0  0  0  0  0  0
   64.1633   33.9023   46.2499 H   0  0  0  0  0  0  0  0  0  0  0  0
   65.2213   32.9645   48.3344 H   0  0  0  0  0  0  0  0  0  0  0  0
   63.7855   32.1476   50.2154 H   0  0  0  0  0  0  0  0  0  0  0  0
   61.2732   32.2802   50.0411 H   0  0  0  0  0  0  0  0  0  0  0  0
  1  2  1  0
  2  3  2  0
  3  4  1  0
  4  5  2  0
  4  6  1  0
  6  7  2  3
  7  8  1  0
  8  9  1  0
  9 10  1  0
 10 11  1  0
 11 12  1  0
 11 13  1  0
 13 14  2  0
 13 15  1  0
 15 16  2  0
 16 17  1  0
 17 18  2  0
 18 19  1  0
 19 20  2  0
  9 21  2  0
 21 22  1  0
  3 23  1  0
 23 24  1  0
 24 25  2  0
 25 26  1  0
 26 27  2  0
 27 28  1  0
 28 29  2  0
 29  2  1  0
 22  7  1  0
 29 24  1  0
 20 15  1  0
  1 30  1  0
  1 31  1  0
  1 32  1  0
 10 33  1  0
 10 34  1  0
 12 35  1  0
 12 36  1  0
 12 37  1  0
 16 38  1  0
 17 39  1  0
 18 40  1  0
 19 41  1  0
 20 42  1  0
 21 43  1  0
 25 44  1  0
 26 45  1  0
 27 46  1  0
 28 47  1  0
M  CHG  1   8  -1
M  END
>  <UniqueID>  (24) 
21

>  <SMILES>  (24) 
Cc1c(C(=O)N=c2[n-]c(CN(C)C(=O)c3ccccc3)cs2)oc2ccccc12

>  <Energy>  (24) 
118.75196118994975

>  <Genealogy>  (24) 
Cc1c(C(=O)N=c2[n-]c(CN(C)C(=O)c3ccccc3)cs2)oc2ccccc12 (protonated)
Cc1c(C(=O)N=c2[n-]c(CN(C)C(=O)c3ccccc3)cs2)oc2ccccc12 (3D coordinates assigned)
Cc1c(C(=O)N=c2[n-]c(CN(C)C(=O)c3ccccc3)cs2)oc2ccccc12 (optimized conformer: 118.75196118994975 kcal/mol)

>  <smiles>  (24) 
Cc1c(C(=O)N=c2[nH]c(CN(C)C(=O)c3ccccc3)cs2)oc2ccccc12

>  <score_type>  (24) 
oracle

>  <origin>  (24) 
adg

>  <m_score__min__energy>  (24) 
-10.949999999999999

>  <m_primary>  (24) 
energy

$$$$
24:0
     RDKit          3D

 45 48  0  0  0  0  0  0  0  0999 V2000
   57.7300   32.0260   42.8120 C   0  0  0  0  0  0  0  0  0  0  0  0
   57.4350   33.0000   43.8090 O   0  0  0  0  0  0  0  0  0  0  0  0
   58.1880   33.1910   44.9780 C   0  0  0  0  0  0  0  0  0  0  0  0
   58.8380   34.4080   45.2670 C   0  0  0  0  0  0  0  0  0  0  0  0
   59.5840   34.5420   46.4400 C   0  0  0  0  0  0  0  0  0  0  0  0
   59.6740   33.4780   47.3440 C   0  0  0  0  0  0  0  0  0  0  0  0
   59.0000   32.2720   47.0870 C   0  0  0  0  0  0  0  0  0  0  0  0
   59.0940   31.1510   48.0430 C   0  0  0  0  0  0  0  0  0  0  0  0
   58.8870   31.2850   49.4290 C   0  0  0  0  0  0  0  0  0  0  0  0
   59.1470   29.7760   50.2030 S   0  0  0  0  0  0  0  0  0  0  0  0
   59.5060   29.0520   48.7370 C   0  0  0  0  0  0  0  0  0  0  0  0
   59.7810   27.7840   48.3910 N   0  0  0  0  0  0  0  0  0  0  0  0
   59.8660   27.8040   47.0600 N   0  0  0  0  0  0  0  0  0  0  0  0
   59.6330   29.0770   46.6490 C   0  0  0  0  0  0  0  0  0  0  0  0
   59.4500   29.5470   44.9230 S   0  0  0  0  0  0  0  0  0  0  0  0
   58.1330   28.3320   44.5540 C   0  0  0  0  0  0  0  0  0  0  0  0
   56.7980   28.7950   45.0430 C   0  0  0  0  0  0  0  0  0  0  0  0
   56.4680   30.0030   44.9120 O   0  0  0  0  0  0  0  0  0  0  0  0
   55.8920   27.8380   45.6110 N   0  0  0  0  0  0  0  0  0  0  0  0
   56.1810   26.4810   45.9710 C   0  0  0  0  0  0  0  0  0  0  0  0
   57.3990   26.1090   46.5690 C   0  0  0  0  0  0  0  0  0  0  0  0
   57.6600   24.7680   46.8650 C   0  0  0  0  0  0  0  0  0  0  0  0
   56.7160   23.7780   46.5530 C   0  0  0  0  0  0  0  0  0  0  0  0
   56.9900   22.3440   46.9050 C   0  0  0  0  0  0  0  0  0  0  0  0
   55.5040   24.1460   45.9450 C   0  0  0  0  0  0  0  0  0  0  0  0
   55.2440   25.4870   45.6520 C   0  0  0  0  0  0  0  0  0  0  0  0
   59.4210   29.8730   47.7120 N   0  0  0  0  0  0  0  0  0  0  0  0
   58.2890   32.1290   45.8860 C   0  0  0  0  0  0  0  0  0  0  0  0
   58.0163   31.0807   43.2962 H   0  0  0  0  0  0  0  0  0  0  0  0
   56.8412   31.8623   42.1850 H   0  0  0  0  0  0  0  0  0  0  0  0
   58.5603   32.3830   42.1850 H   0  0  0  0  0  0  0  0  0  0  0  0
   58.7575   35.2533   44.5677 H   0  0  0  0  0  0  0  0  0  0  0  0
   60.1030   35.4880   46.6540 H   0  0  0  0  0  0  0  0  0  0  0  0
   60.2745   33.5859   48.2593 H   0  0  0  0  0  0  0  0  0  0  0  0
   58.6015   32.2169   49.9390 H   0  0  0  0  0  0  0  0  0  0  0  0
   58.0813   28.1825   43.4654 H   0  0  0  0  0  0  0  0  0  0  0  0
   58.3796   27.3927   45.0707 H   0  0  0  0  0  0  0  0  0  0  0  0
   58.1499   26.8775   46.8049 H   0  0  0  0  0  0  0  0  0  0  0  0
   58.6095   24.4877   47.3445 H   0  0  0  0  0  0  0  0  0  0  0  0
   57.0113   22.2326   47.9991 H   0  0  0  0  0  0  0  0  0  0  0  0
   56.1975   21.7059   46.4868 H   0  0  0  0  0  0  0  0  0  0  0  0
   57.9619   22.0431   46.4868 H   0  0  0  0  0  0  0  0  0  0  0  0
   54.7578   23.3761   45.6990 H   0  0  0  0  0  0  0  0  0  0  0  0
   54.2968   25.7657   45.1672 H   0  0  0  0  0  0  0  0  0  0  0  0
   57.8040   31.1693   45.6540 H   0  0  0  0  0  0  0  0  0  0  0  0
  1  2  1  0
  2  3  1  0
  3  4  2  0
  4  5  1  0
  5  6  2  0
  6  7  1  0
  7  8  1  0
  8  9  2  0
  9 10  1  0
 10 11  1  0
 11 12  2  0
 12 13  1  0
 13 14  2  0
 14 15  1  0
 15 16  1  0
 16 17  1  0
 17 18  2  0
 17 19  1  0
 19 20  1  0
 20 21  2  0
 21 22  1  0
 22 23  2  0
 23 24  1  0
 23 25  1  0
 25 26  2  0
 14 27  1  0
  7 28  2  0
 28  3  1  0
 27  8  1  0
 27 11  1  0
 26 20  1  0
  1 29  1  0
  1 30  1  0
  1 31  1  0
  4 32  1  0
  5 33  1  0
  6 34  1  0
  9 35  1  0
 16 36  1  0
 16 37  1  0
 21 38  1  0
 22 39  1  0
 24 40  1  0
 24 41  1  0
 24 42  1  0
 25 43  1  0
 26 44  1  0
 28 45  1  0
M  CHG  1  19  -1
M  END
>  <UniqueID>  (25) 
22

>  <SMILES>  (25) 
COc1cccc(-c2csc3nnc(SCC(=O)[N-]c4ccc(C)cc4)n23)c1

>  <Energy>  (25) 
135.34358494044534

>  <Genealogy>  (25) 
COc1cccc(-c2csc3nnc(SCC(=O)[N-]c4ccc(C)cc4)n23)c1 (protonated)
COc1cccc(-c2csc3nnc(SCC(=O)[N-]c4ccc(C)cc4)n23)c1 (3D coordinates assigned)
COc1cccc(-c2csc3nnc(SCC(=O)[N-]c4ccc(C)cc4)n23)c1 (optimized conformer: 135.34358494044534 kcal/mol)

>  <smiles>  (25) 
COc1cccc(-c2csc3nnc(SCC(=O)Nc4ccc(C)cc4)n23)c1

>  <score_type>  (25) 
oracle

>  <origin>  (25) 
adg

>  <m_score__min__energy>  (25) 
-10.609999999999999

>  <m_primary>  (25) 
energy

$$$$
25:0
     RDKit          3D

 33 34  0  0  0  0  0  0  0  0999 V2000
   64.8950   32.7180   49.7740 C   0  0  0  0  0  0  0  0  0  0  0  0
   64.5340   33.0520   48.4380 O   0  0  0  0  0  0  0  0  0  0  0  0
   63.2260   33.0000   47.9350 C   0  0  0  0  0  0  0  0  0  0  0  0
   62.7700   33.8690   46.9270 C   0  0  0  0  0  0  0  0  0  0  0  0
   61.4580   33.7820   46.4560 C   0  0  0  0  0  0  0  0  0  0  0  0
   60.5760   32.8220   46.9830 C   0  0  0  0  0  0  0  0  0  0  0  0
   59.2440   32.6870   46.5420 C   0  0  0  0  0  0  0  0  0  0  0  0
   58.5420   33.7340   45.2600 S   0  0  0  0  0  0  0  0  0  0  0  0
   57.2290   32.5390   44.8350 C   0  0  0  0  0  0  0  0  0  0  0  0
   57.6740   31.5910   43.7130 C   0  0  0  0  0  0  0  0  0  0  0  0
   56.7130   30.4110   43.4920 C   0  0  0  0  0  0  0  0  0  0  0  0
   56.3450   29.7280   44.7720 C   0  0  0  0  0  0  0  0  0  0  0  0
   57.1180   29.7840   45.7640 O   0  0  0  0  0  0  0  0  0  0  0  0
   55.1580   29.0120   44.8630 O   0  0  0  0  0  0  0  0  0  0  0  0
   58.4480   31.7390   47.1000 N   0  0  0  0  0  0  0  0  0  0  0  0
   58.9040   30.9100   48.0720 C   0  0  0  0  0  0  0  0  0  0  0  0
   60.1840   31.0120   48.5140 N   0  0  0  0  0  0  0  0  0  0  0  0
   61.0300   31.9470   47.9950 C   0  0  0  0  0  0  0  0  0  0  0  0
   62.3500   32.0440   48.4610 C   0  0  0  0  0  0  0  0  0  0  0  0
   64.2736   33.2929   50.4764 H   0  0  0  0  0  0  0  0  0  0  0  0
   64.7352   31.6422   49.9390 H   0  0  0  0  0  0  0  0  0  0  0  0
   65.9551   32.9608   49.9390 H   0  0  0  0  0  0  0  0  0  0  0  0
   63.4520   34.6228   46.5066 H   0  0  0  0  0  0  0  0  0  0  0  0
   61.1128   34.4682   45.6686 H   0  0  0  0  0  0  0  0  0  0  0  0
   56.9829   31.9456   45.7279 H   0  0  0  0  0  0  0  0  0  0  0  0
   56.3507   33.1009   44.4844 H   0  0  0  0  0  0  0  0  0  0  0  0
   57.7412   32.1656   42.7774 H   0  0  0  0  0  0  0  0  0  0  0  0
   58.6441   31.1675   44.0121 H   0  0  0  0  0  0  0  0  0  0  0  0
   55.7955   30.7869   43.0156 H   0  0  0  0  0  0  0  0  0  0  0  0
   57.2256   29.6756   42.8545 H   0  0  0  0  0  0  0  0  0  0  0  0
   58.2342   30.1519   48.5040 H   0  0  0  0  0  0  0  0  0  0  0  0
   60.5090   30.3600   49.2630 H   0  0  0  0  0  0  0  0  0  0  0  0
   62.7001   31.3607   49.2488 H   0  0  0  0  0  0  0  0  0  0  0  0
  1  2  1  0
  2  3  1  0
  3  4  2  0
  4  5  1  0
  5  6  2  0
  6  7  1  0
  7  8  1  0
  8  9  1  0
  9 10  1  0
 10 11  1  0
 11 12  1  0
 12 13  2  0
 12 14  1  0
  7 15  2  0
 15 16  1  0
 16 17  2  0
 17 18  1  0
 18 19  2  0
 19  3  1  0
 18  6  1  0
  1 20  1  0
  1 21  1  0
  1 22  1  0
  4 23  1  0
  5 24  1  0
  9 25  1  0
  9 26  1  0
 10 27  1  0
 10 28  1  0
 11 29  1  0
 11 30  1  0
 16 31  1  0
 17 32  1  0
 19 33  1  0
M  CHG  2  14  -1  17   1
M  END
>  <UniqueID>  (26) 
23

>  <SMILES>  (26) 
COc1ccc2c(SCCCC(=O)[O-])nc[nH+]c2c1

>  <Energy>  (26) 
30.346205139821606

>  <Genealogy>  (26) 
COc1ccc2c(SCCCC(=O)[O-])nc[nH+]c2c1 (protonated)
COc1ccc2c(SCCCC(=O)[O-])nc[nH+]c2c1 (3D coordinates assigned)
COc1ccc2c(SCCCC(=O)[O-])nc[nH+]c2c1 (optimized conformer: 30.346205139821606 kcal/mol)

>  <smiles>  (26) 
COc1ccc2c(SCCCC(=O)O)ncnc2c1

>  <score_type>  (26) 
oracle

>  <origin>  (26) 
adg

>  <m_score__min__energy>  (26) 
-7.9800000000000004

>  <m_primary>  (26) 
energy

$$$$
26:0
     RDKit          3D

 41 44  0  0  1  0  0  0  0  0999 V2000
   57.6100   32.3200   41.5200 C   0  0  0  0  0  0  0  0  0  0  0  0
   57.7800   32.0740   42.9650 C   0  0  0  0  0  0  0  0  0  0  0  0
   57.9350   33.1050   43.8690 C   0  0  0  0  0  0  0  0  0  0  0  0
   58.0900   32.8270   45.2060 C   0  0  0  0  0  0  0  0  0  0  0  0
   58.2390   33.7300   46.0910 N   0  0  0  0  0  0  0  0  0  0  0  0
   59.5320   34.0930   46.5720 C   0  0  0  0  0  0  0  0  0  0  0  0
   59.5420   34.1040   48.1090 C   0  0  0  0  0  0  0  0  0  0  0  0
   61.0370   34.2090   48.3570 C   0  0  0  0  0  0  0  0  0  0  0  0
   61.7140   33.5510   47.1880 C   0  0  0  0  0  0  0  0  0  0  0  0
   60.5600   32.9750   46.3770 C   0  0  0  0  0  0  0  0  0  0  0  0
   58.0870   31.5340   45.6180 N   0  0  0  0  0  0  0  0  0  0  0  0
   58.2150   30.9900   46.8300 N   0  0  0  0  0  0  0  0  0  0  0  0
   58.1480   29.6500   46.7480 C   0  0  0  0  0  0  0  0  0  0  0  0
   57.9680   29.3170   45.4120 C   0  0  0  0  0  0  0  0  0  0  0  0
   57.8440   27.9610   44.8850 C   0  0  0  0  0  0  0  0  0  0  0  0
   57.4020   26.9630   45.7370 C   0  0  0  0  0  0  0  0  0  0  0  0
   57.2800   25.6750   45.2510 C   0  0  0  0  0  0  0  0  0  0  0  0
   57.6020   25.4120   43.9290 C   0  0  0  0  0  0  0  0  0  0  0  0
   57.5000   24.1580   43.4010 F   0  0  0  0  0  0  0  0  0  0  0  0
   58.0330   26.4160   43.1240 N   0  0  0  0  0  0  0  0  0  0  0  0
   58.1600   27.6790   43.5730 C   0  0  0  0  0  0  0  0  0  0  0  0
   57.9330   30.5140   44.7330 C   0  0  0  0  0  0  0  0  0  0  0  0
   57.7840   30.8110   43.4300 N   0  0  0  0  0  0  0  0  0  0  0  0
   56.9904   33.2166   41.3711 H   0  0  0  0  0  0  0  0  0  0  0  0
   58.5953   32.4740   41.0559 H   0  0  0  0  0  0  0  0  0  0  0  0
   57.1176   31.4528   41.0559 H   0  0  0  0  0  0  0  0  0  0  0  0
   57.9345   34.1481   43.5199 H   0  0  0  0  0  0  0  0  0  0  0  0
   59.7530   35.0381   46.0543 H   0  0  0  0  0  0  0  0  0  0  0  0
   58.9981   34.9694   48.5155 H   0  0  0  0  0  0  0  0  0  0  0  0
   59.0510   33.2417   48.5837 H   0  0  0  0  0  0  0  0  0  0  0  0
   61.3372   35.2651   48.4241 H   0  0  0  0  0  0  0  0  0  0  0  0
   61.3171   33.7222   49.3028 H   0  0  0  0  0  0  0  0  0  0  0  0
   62.2792   34.2870   46.5973 H   0  0  0  0  0  0  0  0  0  0  0  0
   62.4427   32.7858   47.4938 H   0  0  0  0  0  0  0  0  0  0  0  0
   60.8278   32.8437   45.3182 H   0  0  0  0  0  0  0  0  0  0  0  0
   60.2261   31.9729   46.6840 H   0  0  0  0  0  0  0  0  0  0  0  0
   58.3490   31.5020   47.7370 H   0  0  0  0  0  0  0  0  0  0  0  0
   58.2224   28.9440   47.5883 H   0  0  0  0  0  0  0  0  0  0  0  0
   57.1521   27.1916   46.7836 H   0  0  0  0  0  0  0  0  0  0  0  0
   56.9302   24.8652   45.9081 H   0  0  0  0  0  0  0  0  0  0  0  0
   58.5115   28.4760   42.9013 H   0  0  0  0  0  0  0  0  0  0  0  0
  1  2  1  0
  2  3  2  0
  3  4  1  0
  4  5  2  0
  5  6  1  0
  6  7  1  0
  7  8  1  0
  8  9  1  0
  9 10  1  0
  4 11  1  0
 11 12  1  0
 12 13  1  0
 13 14  2  0
 14 15  1  0
 15 16  2  0
 16 17  1  0
 17 18  2  0
 18 19  1  0
 18 20  1  0
 20 21  2  0
 14 22  1  0
 22 23  2  0
 23  2  1  0
 10  6  1  0
 22 11  1  0
 21 15  1  0
  1 24  1  0
  1 25  1  0
  1 26  1  0
  3 27  1  0
  6 28  1  0
  7 29  1  0
  7 30  1  0
  8 31  1  0
  8 32  1  0
  9 33  1  0
  9 34  1  0
 10 35  1  0
 10 36  1  0
 12 37  1  0
 13 38  1  0
 16 39  1  0
 17 40  1  0
 21 41  1  0
M  END
>  <smiles>  (27) 
Cc1cc(=NC2CCCC2)n2[nH]cc(-c3ccc(F)nc3)c2n1

>  <score_type>  (27) 
oracle

>  <origin>  (27) 
adg

>  <m_score__min__energy>  (27) 
-7.9100000000000001

>  <m_primary>  (27) 
energy

$$$$
27:0
     RDKit          3D

 40 43  0  0  0  0  0  0  0  0999 V2000
   63.0770   33.8410   46.4090 C   0  0  0  0  0  0  0  0  0  0  0  0
   62.2590   33.3750   47.5220 N   0  0  0  0  0  0  0  0  0  0  0  0
   62.5480   33.4360   48.8450 C   0  0  0  0  0  0  0  0  0  0  0  0
   61.5880   32.8570   49.6110 N   0  0  0  0  0  0  0  0  0  0  0  0
   60.6820   32.4000   48.7240 C   0  0  0  0  0  0  0  0  0  0  0  0
   59.4640   31.7420   48.9140 C   0  0  0  0  0  0  0  0  0  0  0  0
   58.9660   31.3570   50.2100 N   0  0  0  0  0  0  0  0  0  0  0  0
   59.6200   30.3000   50.9960 C   0  0  0  0  0  0  0  0  0  0  0  0
   58.5880   29.4070   51.7300 C   0  0  0  0  0  0  0  0  0  0  0  0
   57.2610   29.9070   51.7160 O   0  0  0  0  0  0  0  0  0  0  0  0
   57.2550   31.2940   51.9730 C   0  0  0  0  0  0  0  0  0  0  0  0
   57.7710   32.0260   50.7380 C   0  0  0  0  0  0  0  0  0  0  0  0
   58.7290   31.4650   47.7930 N   0  0  0  0  0  0  0  0  0  0  0  0
   59.1580   31.7940   46.5310 C   0  0  0  0  0  0  0  0  0  0  0  0
   58.3220   31.4640   45.3500 C   0  0  0  0  0  0  0  0  0  0  0  0
   58.4460   32.2020   44.1570 C   0  0  0  0  0  0  0  0  0  0  0  0
   57.6570   31.8890   43.0450 C   0  0  0  0  0  0  0  0  0  0  0  0
   56.7390   30.8400   43.1100 C   0  0  0  0  0  0  0  0  0  0  0  0
   56.6070   30.0990   44.2860 C   0  0  0  0  0  0  0  0  0  0  0  0
   55.7140   29.0800   44.3470 F   0  0  0  0  0  0  0  0  0  0  0  0
   57.3930   30.4070   45.4010 C   0  0  0  0  0  0  0  0  0  0  0  0
   60.3590   32.4300   46.3680 N   0  0  0  0  0  0  0  0  0  0  0  0
   61.0900   32.7170   47.4700 C   0  0  0  0  0  0  0  0  0  0  0  0
   63.9708   34.3502   46.7988 H   0  0  0  0  0  0  0  0  0  0  0  0
   63.3833   32.9818   45.7942 H   0  0  0  0  0  0  0  0  0  0  0  0
   62.4942   34.5426   45.7942 H   0  0  0  0  0  0  0  0  0  0  0  0
   63.4575   33.9019   49.2520 H   0  0  0  0  0  0  0  0  0  0  0  0
   61.5690   32.8130   50.6520 H   0  0  0  0  0  0  0  0  0  0  0  0
   60.2176   29.6713   50.3196 H   0  0  0  0  0  0  0  0  0  0  0  0
   60.2561   30.7811   51.7536 H   0  0  0  0  0  0  0  0  0  0  0  0
   58.5872   28.4174   51.2497 H   0  0  0  0  0  0  0  0  0  0  0  0
   58.8981   29.3735   52.7848 H   0  0  0  0  0  0  0  0  0  0  0  0
   56.2298   31.6239   52.1967 H   0  0  0  0  0  0  0  0  0  0  0  0
   57.9001   31.5167   52.8357 H   0  0  0  0  0  0  0  0  0  0  0  0
   56.9875   32.0315   49.9659 H   0  0  0  0  0  0  0  0  0  0  0  0
   58.0329   33.0572   51.0173 H   0  0  0  0  0  0  0  0  0  0  0  0
   59.1679   33.0299   44.0992 H   0  0  0  0  0  0  0  0  0  0  0  0
   57.7605   32.4710   42.1174 H   0  0  0  0  0  0  0  0  0  0  0  0
   56.1191   30.5968   42.2344 H   0  0  0  0  0  0  0  0  0  0  0  0
   57.2847   29.8193   46.3245 H   0  0  0  0  0  0  0  0  0  0  0  0
  1  2  1  0
  2  3  1  0
  3  4  2  0
  4  5  1  0
  5  6  2  0
  6  7  1  0
  7  8  1  0
  8  9  1  0
  9 10  1  0
 10 11  1  0
 11 12  1  0
  6 13  1  0
 13 14  2  0
 14 15  1  0
 15 16  2  0
 16 17  1  0
 17 18  2  0
 18 19  1  0
 19 20  1  0
 19 21  2  0
 14 22  1  0
 22 23  2  0
 23  2  1  0
 23  5  1  0
 12  7  1  0
 21 15  1  0
  1 24  1  0
  1 25  1  0
  1 26  1  0
  3 27  1  0
  4 28  1  0
  8 29  1  0
  8 30  1  0
  9 31  1  0
  9 32  1  0
 11 33  1  0
 11 34  1  0
 12 35  1  0
 12 36  1  0
 16 37  1  0
 17 38  1  0
 18 39  1  0
 21 40  1  0
M  CHG  1   4   1
M  END
>  <UniqueID>  (28) 
24

>  <SMILES>  (28) 
Cn1c[nH+]c2c(N3CCOCC3)nc(-c3cccc(F)c3)nc21

>  <Energy>  (28) 
96.26215871620418

>  <Genealogy>  (28) 
Cn1c[nH+]c2c(N3CCOCC3)nc(-c3cccc(F)c3)nc21 (protonated)
Cn1c[nH+]c2c(N3CCOCC3)nc(-c3cccc(F)c3)nc21 (3D coordinates assigned)
Cn1c[nH+]c2c(N3CCOCC3)nc(-c3cccc(F)c3)nc21 (nonaromatic ring conformer: 96.26215871620418 kcal/mol)

>  <smiles>  (28) 
Cn1cnc2c(N3CCOCC3)nc(-c3cccc(F)c3)nc21

>  <score_type>  (28) 
oracle

>  <origin>  (28) 
adg

>  <m_score__min__energy>  (28) 
-5.1900000000000004

>  <m_primary>  (28) 
energy

$$$$
28:0
     RDKit          3D

 64 68  0  0  0  0  0  0  0  0999 V2000
   62.3940   33.4260   52.1460 C   0  0  0  0  0  0  0  0  0  0  0  0
   63.0410   32.1710   52.3250 O   0  0  0  0  0  0  0  0  0  0  0  0
   64.4220   31.9620   52.1960 C   0  0  0  0  0  0  0  0  0  0  0  0
   65.2470   31.7130   53.3130 C   0  0  0  0  0  0  0  0  0  0  0  0
   66.6150   31.4870   53.1430 C   0  0  0  0  0  0  0  0  0  0  0  0
   67.1760   31.5070   51.8650 C   0  0  0  0  0  0  0  0  0  0  0  0
   66.3700   31.7550   50.7530 C   0  0  0  0  0  0  0  0  0  0  0  0
   64.9960   31.9890   50.9100 C   0  0  0  0  0  0  0  0  0  0  0  0
   64.1780   32.2480   49.7580 N   0  0  0  0  0  0  0  0  0  0  0  0
   64.4020   33.4520   48.9510 C   0  0  0  0  0  0  0  0  0  0  0  0
   63.0610   34.1220   48.6410 C   0  0  0  0  0  0  0  0  0  0  0  0
   62.0670   33.1470   48.1670 N   0  0  0  0  0  0  0  0  0  0  0  0
   60.7560   33.6170   47.7930 C   0  0  0  0  0  0  0  0  0  0  0  0
   60.2490   34.5920   48.4140 O   0  0  0  0  0  0  0  0  0  0  0  0
   59.9890   32.9920   46.6910 C   0  0  0  0  0  0  0  0  0  0  0  0
   59.6240   33.7490   45.5800 C   0  0  0  0  0  0  0  0  0  0  0  0
   58.8810   33.1800   44.5500 C   0  0  0  0  0  0  0  0  0  0  0  0
   58.5030   31.8150   44.5820 C   0  0  0  0  0  0  0  0  0  0  0  0
   58.9200   31.0190   45.6860 C   0  0  0  0  0  0  0  0  0  0  0  0
   59.6470   31.6350   46.7360 C   0  0  0  0  0  0  0  0  0  0  0  0
   58.5830   29.6380   45.7240 C   0  0  0  0  0  0  0  0  0  0  0  0
   57.6340   29.1620   44.7850 C   0  0  0  0  0  0  0  0  0  0  0  0
   57.2650   29.9780   43.6970 C   0  0  0  0  0  0  0  0  0  0  0  0
   56.4850   29.5090   42.8200 O   0  0  0  0  0  0  0  0  0  0  0  0
   57.7400   31.2600   43.5760 N   0  0  0  0  0  0  0  0  0  0  0  0
   57.3790   32.0540   42.3820 C   0  0  0  0  0  0  0  0  0  0  0  0
   57.0360   27.7780   44.9080 C   0  0  0  0  0  0  0  0  0  0  0  0
   58.0920   26.6890   44.6860 C   0  0  0  0  0  0  0  0  0  0  0  0
   58.8450   26.3070   45.9690 C   0  0  0  0  0  0  0  0  0  0  0  0
   59.8570   27.3840   46.3800 C   0  0  0  0  0  0  0  0  0  0  0  0
   59.2170   28.7310   46.7960 C   0  0  0  0  0  0  0  0  0  0  0  0
   62.4010   31.7150   48.1080 C   0  0  0  0  0  0  0  0  0  0  0  0
   63.1330   31.2840   49.3850 C   0  0  0  0  0  0  0  0  0  0  0  0
   62.1676   33.8652   53.1287 H   0  0  0  0  0  0  0  0  0  0  0  0
   63.0555   34.1029   51.5855 H   0  0  0  0  0  0  0  0  0  0  0  0
   61.4589   33.2798   51.5855 H   0  0  0  0  0  0  0  0  0  0  0  0
   64.8109   31.6967   54.3227 H   0  0  0  0  0  0  0  0  0  0  0  0
   67.2518   31.2928   54.0186 H   0  0  0  0  0  0  0  0  0  0  0  0
   68.2533   31.3273   51.7344 H   0  0  0  0  0  0  0  0  0  0  0  0
   66.8151   31.7670   49.7471 H   0  0  0  0  0  0  0  0  0  0  0  0
   65.0405   34.1527   49.5090 H   0  0  0  0  0  0  0  0  0  0  0  0
   64.8960   33.1724   48.0088 H   0  0  0  0  0  0  0  0  0  0  0  0
   62.6822   34.6028   49.5549 H   0  0  0  0  0  0  0  0  0  0  0  0
   63.2223   34.8643   47.8454 H   0  0  0  0  0  0  0  0  0  0  0  0
   59.9255   34.8050   45.5163 H   0  0  0  0  0  0  0  0  0  0  0  0
   58.5813   33.8024   43.6940 H   0  0  0  0  0  0  0  0  0  0  0  0
   59.9492   31.0331   47.6057 H   0  0  0  0  0  0  0  0  0  0  0  0
   56.9429   33.0132   42.6977 H   0  0  0  0  0  0  0  0  0  0  0  0
   58.2804   32.2415   41.7800 H   0  0  0  0  0  0  0  0  0  0  0  0
   56.6452   31.4980   41.7800 H   0  0  0  0  0  0  0  0  0  0  0  0
   56.6082   27.6614   45.9147 H   0  0  0  0  0  0  0  0  0  0  0  0
   56.2586   27.6677   44.1376 H   0  0  0  0  0  0  0  0  0  0  0  0
   57.5916   25.7914   44.2937 H   0  0  0  0  0  0  0  0  0  0  0  0
   58.8328   27.0908   43.9791 H   0  0  0  0  0  0  0  0  0  0  0  0
   58.1168   26.1742   46.7827 H   0  0  0  0  0  0  0  0  0  0  0  0
   59.3976   25.3757   45.7757 H   0  0  0  0  0  0  0  0  0  0  0  0
   60.4407   27.0022   47.2306 H   0  0  0  0  0  0  0  0  0  0  0  0
   60.4773   27.5889   45.4950 H   0  0  0  0  0  0  0  0  0  0  0  0
   58.4264   28.4972   47.5242 H   0  0  0  0  0  0  0  0  0  0  0  0
   60.0726   29.3205   47.1570 H   0  0  0  0  0  0  0  0  0  0  0  0
   61.4746   31.1306   48.0064 H   0  0  0  0  0  0  0  0  0  0  0  0
   63.0570   31.5368   47.2431 H   0  0  0  0  0  0  0  0  0  0  0  0
   62.4053   31.2100   50.2065 H   0  0  0  0  0  0  0  0  0  0  0  0
   63.6115   30.3115   49.1971 H   0  0  0  0  0  0  0  0  0  0  0  0
  1  2  1  0
  2  3  1  0
  3  4  2  0
  4  5  1  0
  5  6  2  0
  6  7  1  0
  7  8  2  0
  8  9  1  0
  9 10  1  0
 10 11  1  0
 11 12  1  0
 12 13  1  0
 13 14  2  0
 13 15  1  0
 15 16  2  0
 16 17  1  0
 17 18  2  0
 18 19  1  0
 19 20  2  0
 19 21  1  0
 21 22  2  0
 22 23  1  0
 23 24  2  0
 23 25  1  0
 25 26  1  0
 22 27  1  0
 27 28  1  0
 28 29  1  0
 29 30  1  0
 30 31  1  0
 12 32  1  0
 32 33  1  0
  8  3  1  0
 33  9  1  0
 20 15  1  0
 31 21  1  0
 25 18  1  0
  1 34  1  0
  1 35  1  0
  1 36  1  0
  4 37  1  0
  5 38  1  0
  6 39  1  0
  7 40  1  0
 10 41  1  0
 10 42  1  0
 11 43  1  0
 11 44  1  0
 16 45  1  0
 17 46  1  0
 20 47  1  0
 26 48  1  0
 26 49  1  0
 26 50  1  0
 27 51  1  0
 27 52  1  0
 28 53  1  0
 28 54  1  0
 29 55  1  0
 29 56  1  0
 30 57  1  0
 30 58  1  0
 31 59  1  0
 31 60  1  0
 32 61  1  0
 32 62  1  0
 33 63  1  0
 33 64  1  0
M  END
>  <UniqueID>  (29) 
25

>  <SMILES>  (29) 
COc1ccccc1N1CCN(C(=O)c2ccc3c(c2)c2c(c(=O)n3C)CCCCC2)CC1

>  <Energy>  (29) 
103.36297670662739

>  <Genealogy>  (29) 
COc1ccccc1N1CCN(C(=O)c2ccc3c(c2)c2c(c(=O)n3C)CCCCC2)CC1 (3D coordinates assigned)
COc1ccccc1N1CCN(C(=O)c2ccc3c(c2)c2c(c(=O)n3C)CCCCC2)CC1 (nonaromatic ring conformer: 103.36297670662739 kcal/mol)

>  <smiles>  (29) 
COc1ccccc1N1CCN(C(=O)c2ccc3c(c2)c2c(c(=O)n3C)CCCCC2)CC1

>  <score_type>  (29) 
oracle

>  <origin>  (29) 
adg

>  <m_score__min__energy>  (29) 
-7.0199999999999996

>  <m_primary>  (29) 
energy

$$$$
29:0
     RDKit          3D

 43 44  0  0  0  0  0  0  0  0999 V2000
   58.4590   28.8240   45.1840 C   0  0  0  0  0  0  0  0  0  0  0  0
   57.0340   29.3660   45.2000 C   0  0  0  0  0  0  0  0  0  0  0  0
   57.0480   30.8240   44.9260 N   0  0  0  0  0  0  0  0  0  0  0  0
   57.0160   31.1410   43.4790 C   0  0  0  0  0  0  0  0  0  0  0  0
   56.3310   30.0320   42.6810 C   0  0  0  0  0  0  0  0  0  0  0  0
   58.1020   31.5410   45.6870 C   0  0  0  0  0  0  0  0  0  0  0  0
   58.1170   33.0780   45.4820 C   0  0  0  0  0  0  0  0  0  0  0  0
   57.7620   33.8420   46.7670 C   0  0  0  0  0  0  0  0  0  0  0  0
   58.8700   34.7100   47.1690 N   0  0  0  0  0  0  0  0  0  0  0  0
   60.2220   34.2600   47.3940 C   0  0  0  0  0  0  0  0  0  0  0  0
   61.0760   33.8960   46.3340 C   0  0  0  0  0  0  0  0  0  0  0  0
   62.3850   33.4780   46.5900 C   0  0  0  0  0  0  0  0  0  0  0  0
   62.8550   33.4050   47.9070 C   0  0  0  0  0  0  0  0  0  0  0  0
   62.0060   33.7460   48.9690 C   0  0  0  0  0  0  0  0  0  0  0  0
   60.7020   34.1750   48.7130 C   0  0  0  0  0  0  0  0  0  0  0  0
   62.4770   33.6850   50.2880 O   0  0  0  0  0  0  0  0  0  0  0  0
   63.6620   32.9740   50.6590 C   0  0  0  0  0  0  0  0  0  0  0  0
   64.6610   32.9420   49.5370 C   0  0  0  0  0  0  0  0  0  0  0  0
   65.8830   32.7620   49.7860 O   0  0  0  0  0  0  0  0  0  0  0  0
   64.2120   33.0440   48.1830 N   0  0  0  0  0  0  0  0  0  0  0  0
   58.8119   28.6898   46.2172 H   0  0  0  0  0  0  0  0  0  0  0  0
   58.4773   27.8561   44.6616 H   0  0  0  0  0  0  0  0  0  0  0  0
   59.1159   29.5351   44.6616 H   0  0  0  0  0  0  0  0  0  0  0  0
   56.4402   28.8550   44.4278 H   0  0  0  0  0  0  0  0  0  0  0  0
   56.5882   29.1866   46.1895 H   0  0  0  0  0  0  0  0  0  0  0  0
   56.4651   32.0815   43.3306 H   0  0  0  0  0  0  0  0  0  0  0  0
   58.0521   31.2355   43.1220 H   0  0  0  0  0  0  0  0  0  0  0  0
   55.8821   29.3052   43.3741 H   0  0  0  0  0  0  0  0  0  0  0  0
   55.5448   30.4683   42.0473 H   0  0  0  0  0  0  0  0  0  0  0  0
   57.0731   29.5243   42.0473 H   0  0  0  0  0  0  0  0  0  0  0  0
   57.9488   31.3396   46.7575 H   0  0  0  0  0  0  0  0  0  0  0  0
   59.0657   31.1678   45.3101 H   0  0  0  0  0  0  0  0  0  0  0  0
   59.1230   33.3815   45.1567 H   0  0  0  0  0  0  0  0  0  0  0  0
   57.3582   33.3235   44.7244 H   0  0  0  0  0  0  0  0  0  0  0  0
   56.8674   34.4563   46.5876 H   0  0  0  0  0  0  0  0  0  0  0  0
   57.5683   33.1164   47.5707 H   0  0  0  0  0  0  0  0  0  0  0  0
   58.6550   35.7240   47.2990 H   0  0  0  0  0  0  0  0  0  0  0  0
   60.7099   33.9411   45.2977 H   0  0  0  0  0  0  0  0  0  0  0  0
   63.0474   33.2058   45.7550 H   0  0  0  0  0  0  0  0  0  0  0  0
   60.0441   34.4490   49.5509 H   0  0  0  0  0  0  0  0  0  0  0  0
   64.1179   33.4691   51.5291 H   0  0  0  0  0  0  0  0  0  0  0  0
   63.3810   31.9381   50.8996 H   0  0  0  0  0  0  0  0  0  0  0  0
   64.8860   32.8840   47.4000 H   0  0  0  0  0  0  0  0  0  0  0  0
  1  2  1  0
  2  3  1  0
  3  4  1  0
  4  5  1  0
  3  6  1  0
  6  7  1  0
  7  8  1  0
  8  9  1  0
  9 10  1  0
 10 11  2  0
 11 12  1  0
 12 13  2  0
 13 14  1  0
 14 15  2  0
 14 16  1  0
 16 17  1  0
 17 18  1  0
 18 19  2  0
 18 20  1  0
 15 10  1  0
 20 13  1  0
  1 21  1  0
  1 22  1  0
  1 23  1  0
  2 24  1  0
  2 25  1  0
  4 26  1  0
  4 27  1  0
  5 28  1  0
  5 29  1  0
  5 30  1  0
  6 31  1  0
  6 32  1  0
  7 33  1  0
  7 34  1  0
  8 35  1  0
  8 36  1  0
  9 37  1  0
 11 38  1  0
 12 39  1  0
 15 40  1  0
 17 41  1  0
 17 42  1  0
 20 43  1  0
M  END
>  <UniqueID>  (30) 
26

>  <SMILES>  (30) 
CCN(CC)CCCNc1ccc2c(c1)OCC(=O)N2

>  <Energy>  (30) 
45.288379754822095

>  <Genealogy>  (30) 
CCN(CC)CCCNc1ccc2c(c1)OCC(=O)N2 (3D coordinates assigned)
CCN(CC)CCCNc1ccc2c(c1)OCC(=O)N2 (nonaromatic ring conformer: 45.288379754822095 kcal/mol)

>  <smiles>  (30) 
CCN(CC)CCCNc1ccc2c(c1)OCC(=O)N2

>  <score_type>  (30) 
oracle

>  <origin>  (30) 
adg

>  <m_score__min__energy>  (30) 
-6.6200000000000001

>  <m_primary>  (30) 
energy

$$$$
30:0
     RDKit          3D

 41 43  0  0  0  0  0  0  0  0999 V2000
   56.8380   30.2670   43.3520 C   0  0  0  0  0  0  0  0  0  0  0  0
   56.4940   31.0340   44.5010 O   0  0  0  0  0  0  0  0  0  0  0  0
   57.3140   32.0200   45.0700 C   0  0  0  0  0  0  0  0  0  0  0  0
   58.0670   31.6860   46.2020 C   0  0  0  0  0  0  0  0  0  0  0  0
   58.9000   32.6330   46.8050 C   0  0  0  0  0  0  0  0  0  0  0  0
   58.9910   33.9350   46.2850 C   0  0  0  0  0  0  0  0  0  0  0  0
   59.8730   34.9020   46.8920 N   0  0  0  0  0  0  0  0  0  0  0  0
   60.9790   34.2250   47.5280 C   0  0  0  0  0  0  0  0  0  0  0  0
   61.9990   33.7500   46.7920 C   0  0  0  0  0  0  0  0  0  0  0  0
   63.1540   33.0940   47.4320 C   0  0  0  0  0  0  0  0  0  0  0  0
   64.1310   32.7310   46.7240 O   0  0  0  0  0  0  0  0  0  0  0  0
   63.1740   32.9050   48.9050 C   0  0  0  0  0  0  0  0  0  0  0  0
   64.2790   32.2550   49.5570 N   0  0  0  0  0  0  0  0  0  0  0  0
   65.3340   32.9530   50.2410 C   0  0  0  0  0  0  0  0  0  0  0  0
   65.0550   33.9180   51.2270 C   0  0  0  0  0  0  0  0  0  0  0  0
   66.0970   34.6010   51.8600 C   0  0  0  0  0  0  0  0  0  0  0  0
   67.4250   34.3390   51.5070 C   0  0  0  0  0  0  0  0  0  0  0  0
   68.8470   35.2740   52.3720 Br  0  0  0  0  0  0  0  0  0  0  0  0
   67.7080   33.3970   50.5140 C   0  0  0  0  0  0  0  0  0  0  0  0
   66.6680   32.7120   49.8790 C   0  0  0  0  0  0  0  0  0  0  0  0
   62.1770   33.4080   49.6440 C   0  0  0  0  0  0  0  0  0  0  0  0
   61.0320   34.0850   49.0070 C   0  0  0  0  0  0  0  0  0  0  0  0
   60.1010   34.5340   49.7270 O   0  0  0  0  0  0  0  0  0  0  0  0
   58.2380   34.2690   45.1470 C   0  0  0  0  0  0  0  0  0  0  0  0
   57.4060   33.3230   44.5450 C   0  0  0  0  0  0  0  0  0  0  0  0
   57.2691   29.3057   43.6684 H   0  0  0  0  0  0  0  0  0  0  0  0
   55.9358   30.0838   42.7499 H   0  0  0  0  0  0  0  0  0  0  0  0
   57.5748   30.8189   42.7499 H   0  0  0  0  0  0  0  0  0  0  0  0
   58.0027   30.6706   46.6202 H   0  0  0  0  0  0  0  0  0  0  0  0
   59.4882   32.3569   47.6926 H   0  0  0  0  0  0  0  0  0  0  0  0
   60.2310   35.5700   46.1690 H   0  0  0  0  0  0  0  0  0  0  0  0
   59.3470   35.4780   47.5900 H   0  0  0  0  0  0  0  0  0  0  0  0
   61.9714   33.8522   45.6971 H   0  0  0  0  0  0  0  0  0  0  0  0
   64.3440   31.2130   49.4900 H   0  0  0  0  0  0  0  0  0  0  0  0
   64.0120   34.1355   51.5005 H   0  0  0  0  0  0  0  0  0  0  0  0
   65.8725   35.3461   52.6374 H   0  0  0  0  0  0  0  0  0  0  0  0
   68.7516   33.1942   50.2315 H   0  0  0  0  0  0  0  0  0  0  0  0
   66.8968   31.9796   49.0908 H   0  0  0  0  0  0  0  0  0  0  0  0
   62.2124   33.3151   50.7395 H   0  0  0  0  0  0  0  0  0  0  0  0
   58.3044   35.2835   44.7270 H   0  0  0  0  0  0  0  0  0  0  0  0
   56.8193   33.5973   43.6558 H   0  0  0  0  0  0  0  0  0  0  0  0
  1  2  1  0
  2  3  1  0
  3  4  2  0
  4  5  1  0
  5  6  2  0
  6  7  1  0
  7  8  1  0
  8  9  2  0
  9 10  1  0
 10 11  2  0
 10 12  1  0
 12 13  1  0
 13 14  1  0
 14 15  2  0
 15 16  1  0
 16 17  2  0
 17 18  1  0
 17 19  1  0
 19 20  2  0
 12 21  2  0
 21 22  1  0
 22 23  2  0
  6 24  1  0
 24 25  2  0
 25  3  1  0
 22  8  1  0
 20 14  1  0
  1 26  1  0
  1 27  1  0
  1 28  1  0
  4 29  1  0
  5 30  1  0
  7 31  1  0
  7 32  1  0
  9 33  1  0
 13 34  1  0
 15 35  1  0
 16 36  1  0
 19 37  1  0
 20 38  1  0
 21 39  1  0
 24 40  1  0
 25 41  1  0
M  CHG  1   7   1
M  END
>  <UniqueID>  (31) 
27

>  <SMILES>  (31) 
COc1ccc([NH2+]C2=CC(=O)C(Nc3ccc(Br)cc3)=CC2=O)cc1

>  <Energy>  (31) 
49.109917027273795

>  <Genealogy>  (31) 
COc1ccc([NH2+]C2=CC(=O)C(Nc3ccc(Br)cc3)=CC2=O)cc1 (protonated)
COc1ccc([NH2+]C2=CC(=O)C(Nc3ccc(Br)cc3)=CC2=O)cc1 (3D coordinates assigned)
COc1ccc([NH2+]C2=CC(=O)C(Nc3ccc(Br)cc3)=CC2=O)cc1 (nonaromatic ring conformer: 49.109917027273795 kcal/mol)

>  <smiles>  (31) 
COc1ccc(NC2=CC(=O)C(Nc3ccc(Br)cc3)=CC2=O)cc1

>  <score_type>  (31) 
oracle

>  <origin>  (31) 
adg

>  <m_score__min__energy>  (31) 
-6.8300000000000001

>  <m_primary>  (31) 
energy

$$$$
31:0
     RDKit          3D

 48 50  0  0  0  0  0  0  0  0999 V2000
   63.4030   33.7540   47.1670 C   0  0  0  0  0  0  0  0  0  0  0  0
   62.3040   32.9280   46.7950 O   0  0  0  0  0  0  0  0  0  0  0  0
   60.9570   33.3240   46.8420 C   0  0  0  0  0  0  0  0  0  0  0  0
   60.4420   34.2990   45.9650 C   0  0  0  0  0  0  0  0  0  0  0  0
   59.1050   34.6910   46.0510 C   0  0  0  0  0  0  0  0  0  0  0  0
   58.2680   34.1220   47.0100 C   0  0  0  0  0  0  0  0  0  0  0  0
   58.7630   33.1510   47.8820 C   0  0  0  0  0  0  0  0  0  0  0  0
   60.1030   32.7350   47.8000 C   0  0  0  0  0  0  0  0  0  0  0  0
   60.5870   31.6690   48.7090 C   0  0  0  0  0  0  0  0  0  0  0  0
   61.6440   31.9450   49.5940 C   0  0  0  0  0  0  0  0  0  0  0  0
   62.1470   30.9470   50.4330 C   0  0  0  0  0  0  0  0  0  0  0  0
   61.6020   29.6630   50.3970 C   0  0  0  0  0  0  0  0  0  0  0  0
   60.5450   29.3760   49.5300 C   0  0  0  0  0  0  0  0  0  0  0  0
   60.0190   30.3720   48.6990 C   0  0  0  0  0  0  0  0  0  0  0  0
   58.9420   30.0500   47.8690 O   0  0  0  0  0  0  0  0  0  0  0  0
   59.0830   29.2200   46.7160 C   0  0  2  0  0  0  0  0  0  0  0  0
   58.9200   30.0000   45.5350 O   0  0  0  0  0  0  0  0  0  0  0  0
   57.5500   30.2260   45.2560 C   0  0  1  0  0  0  0  0  0  0  0  0
   57.4260   31.3440   44.2150 C   0  0  0  0  0  0  0  0  0  0  0  0
   58.4520   31.2450   43.2650 O   0  0  0  0  0  0  0  0  0  0  0  0
   56.8790   28.9110   44.7690 C   0  0  2  0  0  0  0  0  0  0  0  0
   55.4930   28.9490   45.0120 O   0  0  0  0  0  0  0  0  0  0  0  0
   57.5420   27.6660   45.4200 C   0  0  2  0  0  0  0  0  0  0  0  0
   56.6290   26.6040   45.5270 O   0  0  0  0  0  0  0  0  0  0  0  0
   58.0960   28.0220   46.8120 C   0  0  1  0  0  0  0  0  0  0  0  0
   58.7060   26.9100   47.4190 O   0  0  0  0  0  0  0  0  0  0  0  0
   63.4694   33.8039   48.2639 H   0  0  0  0  0  0  0  0  0  0  0  0
   64.3338   33.3301   46.7622 H   0  0  0  0  0  0  0  0  0  0  0  0
   63.2546   34.7660   46.7622 H   0  0  0  0  0  0  0  0  0  0  0  0
   61.0975   34.7541   45.2079 H   0  0  0  0  0  0  0  0  0  0  0  0
   58.7107   35.4509   45.3603 H   0  0  0  0  0  0  0  0  0  0  0  0
   57.2168   34.4385   47.0794 H   0  0  0  0  0  0  0  0  0  0  0  0
   58.0993   32.7080   48.6391 H   0  0  0  0  0  0  0  0  0  0  0  0
   62.0787   32.9549   49.6263 H   0  0  0  0  0  0  0  0  0  0  0  0
   62.9735   31.1739   51.1225 H   0  0  0  0  0  0  0  0  0  0  0  0
   62.0050   28.8763   51.0518 H   0  0  0  0  0  0  0  0  0  0  0  0
   60.1232   28.3605   49.5001 H   0  0  0  0  0  0  0  0  0  0  0  0
   60.0952   28.7920   46.6678 H   0  0  0  0  0  0  0  0  0  0  0  0
   57.0272   30.5433   46.1704 H   0  0  0  0  0  0  0  0  0  0  0  0
   56.4535   31.2604   43.7078 H   0  0  0  0  0  0  0  0  0  0  0  0
   57.5050   32.3156   44.7247 H   0  0  0  0  0  0  0  0  0  0  0  0
   58.8430   30.3390   43.3750 H   0  0  0  0  0  0  0  0  0  0  0  0
   57.0305   28.8252   43.6829 H   0  0  0  0  0  0  0  0  0  0  0  0
   55.1440   28.0250   44.9160 H   0  0  0  0  0  0  0  0  0  0  0  0
   58.3709   27.3464   44.7714 H   0  0  0  0  0  0  0  0  0  0  0  0
   55.8900   26.8010   44.8960 H   0  0  0  0  0  0  0  0  0  0  0  0
   57.2508   28.3222   47.4488 H   0  0  0  0  0  0  0  0  0  0  0  0
   58.2830   26.0910   47.0460 H   0  0  0  0  0  0  0  0  0  0  0  0
  1  2  1  0
  2  3  1  0
  3  4  2  0
  4  5  1  0
  5  6  2  0
  6  7  1  0
  7  8  2  0
  8  9  1  0
  9 10  2  0
 10 11  1  0
 11 12  2  0
 12 13  1  0
 13 14  2  0
 14 15  1  0
 15 16  1  0
 16 17  1  0
 17 18  1  0
 18 19  1  0
 19 20  1  0
 18 21  1  0
 21 22  1  0
 21 23  1  0
 23 24  1  0
 23 25  1  0
 25 26  1  0
  8  3  1  0
 14  9  1  0
 25 16  1  0
  1 27  1  0
  1 28  1  0
  1 29  1  0
  4 30  1  0
  5 31  1  0
  6 32  1  0
  7 33  1  0
 10 34  1  0
 11 35  1  0
 12 36  1  0
 13 37  1  0
 16 38  1  6
 18 39  1  1
 19 40  1  0
 19 41  1  0
 20 42  1  0
 21 43  1  6
 22 44  1  0
 23 45  1  6
 24 46  1  0
 25 47  1  1
 26 48  1  0
M  END
>  <UniqueID>  (32) 
28

>  <SMILES>  (32) 
COc1ccccc1-c1ccccc1O[C@@H]1O[C@@H](CO)C(O)C(O)C1O

>  <Energy>  (32) 
68.47280324017223

>  <Genealogy>  (32) 
COc1ccccc1-c1ccccc1O[C@@H]1O[C@@H](CO)C(O)C(O)C1O (chirality)
COc1ccccc1-c1ccccc1O[C@@H]1O[C@@H](CO)C(O)C(O)C1O (3D coordinates assigned)
COc1ccccc1-c1ccccc1O[C@@H]1O[C@@H](CO)C(O)C(O)C1O (nonaromatic ring conformer: 68.47280324017223 kcal/mol)

>  <smiles>  (32) 
COc1ccccc1-c1ccccc1OC1OC(CO)C(O)C(O)C1O

>  <score_type>  (32) 
oracle

>  <origin>  (32) 
adg

>  <m_score__min__energy>  (32) 
-7.4900000000000002

>  <m_primary>  (32) 
energy

$$$$
32:0
     RDKit          3D

 30 32  0  0  0  0  0  0  0  0999 V2000
   60.7160   34.1770   48.0690 C   0  0  0  0  0  0  0  0  0  0  0  0
   59.9190   34.1480   46.8000 C   0  0  0  0  0  0  0  0  0  0  0  0
   59.6470   35.2500   46.0150 C   0  0  0  0  0  0  0  0  0  0  0  0
   58.8840   34.8000   44.9570 C   0  0  0  0  0  0  0  0  0  0  0  0
   58.7300   33.4340   45.1300 C   0  0  0  0  0  0  0  0  0  0  0  0
   58.0230   32.5500   44.1750 C   0  0  0  0  0  0  0  0  0  0  0  0
   58.1410   32.5990   42.7890 C   0  0  0  0  0  0  0  0  0  0  0  0
   57.4040   31.6050   42.1310 C   0  0  0  0  0  0  0  0  0  0  0  0
   56.7130   30.7610   42.9890 C   0  0  0  0  0  0  0  0  0  0  0  0
   57.0220   31.2520   44.5650 S   0  0  0  0  0  0  0  0  0  0  0  0
   59.3670   33.0390   46.2580 N   0  0  0  0  0  0  0  0  0  0  0  0
   59.3710   31.7290   46.8460 C   0  0  0  0  0  0  0  0  0  0  0  0
   58.9730   31.5550   48.1810 C   0  0  0  0  0  0  0  0  0  0  0  0
   58.9840   30.2810   48.7570 C   0  0  0  0  0  0  0  0  0  0  0  0
   59.3970   29.1770   48.0060 C   0  0  0  0  0  0  0  0  0  0  0  0
   59.8010   29.3450   46.6760 C   0  0  0  0  0  0  0  0  0  0  0  0
   60.3660   27.8370   45.6500 Br  0  0  0  0  0  0  0  0  0  0  0  0
   59.7910   30.6190   46.0990 C   0  0  0  0  0  0  0  0  0  0  0  0
   60.0335   34.1522   48.9313 H   0  0  0  0  0  0  0  0  0  0  0  0
   61.3824   33.3025   48.1035 H   0  0  0  0  0  0  0  0  0  0  0  0
   61.3171   35.0976   48.1035 H   0  0  0  0  0  0  0  0  0  0  0  0
   59.9743   36.2843   46.1970 H   0  0  0  0  0  0  0  0  0  0  0  0
   58.4770   35.4079   44.1355 H   0  0  0  0  0  0  0  0  0  0  0  0
   58.7531   33.3453   42.2614 H   0  0  0  0  0  0  0  0  0  0  0  0
   57.3759   31.5032   41.0361 H   0  0  0  0  0  0  0  0  0  0  0  0
   56.0741   29.9173   42.6890 H   0  0  0  0  0  0  0  0  0  0  0  0
   58.6517   32.4231   48.7753 H   0  0  0  0  0  0  0  0  0  0  0  0
   58.6674   30.1475   49.8020 H   0  0  0  0  0  0  0  0  0  0  0  0
   59.4047   28.1752   48.4603 H   0  0  0  0  0  0  0  0  0  0  0  0
   60.1137   30.7507   45.0557 H   0  0  0  0  0  0  0  0  0  0  0  0
  1  2  1  0
  2  3  2  0
  3  4  1  0
  4  5  2  0
  5  6  1  0
  6  7  2  0
  7  8  1  0
  8  9  2  0
  9 10  1  0
  5 11  1  0
 11 12  1  0
 12 13  2  0
 13 14  1  0
 14 15  2  0
 15 16  1  0
 16 17  1  0
 16 18  2  0
 11  2  1  0
 18 12  1  0
 10  6  1  0
  1 19  1  0
  1 20  1  0
  1 21  1  0
  3 22  1  0
  4 23  1  0
  7 24  1  0
  8 25  1  0
  9 26  1  0
 13 27  1  0
 14 28  1  0
 15 29  1  0
 18 30  1  0
M  END
>  <UniqueID>  (33) 
29

>  <SMILES>  (33) 
Cc1ccc(-c2cccs2)n1-c1cccc(Br)c1

>  <Energy>  (33) 
91.49515066932503

>  <Genealogy>  (33) 
Cc1ccc(-c2cccs2)n1-c1cccc(Br)c1 (3D coordinates assigned)
Cc1ccc(-c2cccs2)n1-c1cccc(Br)c1 (optimized conformer: 91.49515066932503 kcal/mol)

>  <smiles>  (33) 
Cc1ccc(-c2cccs2)n1-c1cccc(Br)c1

>  <score_type>  (33) 
oracle

>  <origin>  (33) 
adg

>  <m_score__min__energy>  (33) 
-6.9199999999999999

>  <m_primary>  (33) 
energy

$$$$
33:0
     RDKit          3D

 50 52  0  0  0  0  0  0  0  0999 V2000
   60.8165   30.9265   49.7649 H   0  0  0  0  0  0  0  0  0  0  0  0
   61.3950   30.7260   48.8510 C   0  0  0  0  0  0  0  0  0  0  0  0
   62.6320   31.2360   48.7710 C   0  0  0  0  0  0  0  0  0  0  0  0
   63.2739   30.9078   47.9402 H   0  0  0  0  0  0  0  0  0  0  0  0
   63.1960   32.2320   49.7510 C   0  0  0  0  0  0  0  0  0  0  0  0
   64.0967   31.8094   50.2201 H   0  0  0  0  0  0  0  0  0  0  0  0
   62.4377   32.4481   50.5181 H   0  0  0  0  0  0  0  0  0  0  0  0
   63.5510   33.4890   49.0580 N   0  0  0  0  0  0  0  0  0  0  0  0
   63.7860   33.3000   47.6000 C   0  0  0  0  0  0  0  0  0  0  0  0
   63.8612   32.2210   47.3999 H   0  0  0  0  0  0  0  0  0  0  0  0
   64.7100   33.8445   47.3559 H   0  0  0  0  0  0  0  0  0  0  0  0
   62.6770   33.8830   46.6990 C   0  0  0  0  0  0  0  0  0  0  0  0
   62.7050   33.3783   45.7220 H   0  0  0  0  0  0  0  0  0  0  0  0
   62.8531   34.9623   46.5806 H   0  0  0  0  0  0  0  0  0  0  0  0
   61.2930   33.6800   47.3290 C   0  0  0  0  0  0  0  0  0  0  0  0
   61.1280   32.6023   47.4754 H   0  0  0  0  0  0  0  0  0  0  0  0
   60.2130   34.1930   46.3990 C   0  0  0  0  0  0  0  0  0  0  0  0
   60.2260   35.4080   46.0560 O   0  0  0  0  0  0  0  0  0  0  0  0
   59.1590   33.3040   45.8480 C   0  0  0  0  0  0  0  0  0  0  0  0
   58.5080   33.5960   44.6350 C   0  0  0  0  0  0  0  0  0  0  0  0
   58.7844   34.4996   44.0719 H   0  0  0  0  0  0  0  0  0  0  0  0
   57.5130   32.7480   44.1390 C   0  0  0  0  0  0  0  0  0  0  0  0
   57.0168   32.9856   43.1865 H   0  0  0  0  0  0  0  0  0  0  0  0
   57.1430   31.5930   44.8510 C   0  0  0  0  0  0  0  0  0  0  0  0
   56.1530   30.7110   44.3940 O   0  0  0  0  0  0  0  0  0  0  0  0
   56.3190   29.8120   43.3040 C   0  0  0  0  0  0  0  0  0  0  0  0
   56.5061   28.7989   43.6895 H   0  0  0  0  0  0  0  0  0  0  0  0
   55.4064   29.8079   42.6898 H   0  0  0  0  0  0  0  0  0  0  0  0
   57.1729   30.1341   42.6898 H   0  0  0  0  0  0  0  0  0  0  0  0
   57.7800   31.3090   46.0640 C   0  0  0  0  0  0  0  0  0  0  0  0
   57.4957   30.4104   46.6312 H   0  0  0  0  0  0  0  0  0  0  0  0
   58.7740   32.1560   46.5620 C   0  0  0  0  0  0  0  0  0  0  0  0
   59.2593   31.9222   47.5211 H   0  0  0  0  0  0  0  0  0  0  0  0
   61.2130   34.3430   48.7290 C   0  0  0  0  0  0  0  0  0  0  0  0
   60.6317   33.6885   49.3952 H   0  0  0  0  0  0  0  0  0  0  0  0
   60.7347   35.3256   48.6034 H   0  0  0  0  0  0  0  0  0  0  0  0
   62.6000   34.5790   49.3580 C   0  0  0  0  0  0  0  0  0  0  0  0
   62.4839   34.6553   50.4492 H   0  0  0  0  0  0  0  0  0  0  0  0
   63.0081   35.5058   48.9284 H   0  0  0  0  0  0  0  0  0  0  0  0
   60.7550   29.9130   47.7960 C   0  0  0  0  0  0  0  0  0  0  0  0
   61.1010   30.0630   46.4410 C   0  0  0  0  0  0  0  0  0  0  0  0
   61.8752   30.7883   46.1501 H   0  0  0  0  0  0  0  0  0  0  0  0
   60.4640   29.2930   45.4620 C   0  0  0  0  0  0  0  0  0  0  0  0
   60.7484   29.4033   44.4052 H   0  0  0  0  0  0  0  0  0  0  0  0
   59.4670   28.3840   45.8250 C   0  0  0  0  0  0  0  0  0  0  0  0
   58.9731   27.7729   45.0552 H   0  0  0  0  0  0  0  0  0  0  0  0
   59.0970   28.2510   47.1670 C   0  0  0  0  0  0  0  0  0  0  0  0
   58.3061   27.5412   47.4510 H   0  0  0  0  0  0  0  0  0  0  0  0
   59.7310   29.0190   48.1480 C   0  0  0  0  0  0  0  0  0  0  0  0
   59.4263   28.9225   49.2005 H   0  0  0  0  0  0  0  0  0  0  0  0
  1  2  1  0
  2  3  2  0
  3  4  1  0
  3  5  1  0
  5  6  1  0
  5  7  1  0
  5  8  1  0
  8  9  1  0
  9 10  1  0
  9 11  1  0
  9 12  1  0
 12 13  1  0
 12 14  1  0
 12 15  1  0
 15 16  1  0
 15 17  1  0
 17 18  2  0
 17 19  1  0
 19 20  2  0
 20 21  1  0
 20 22  1  0
 22 23  1  0
 22 24  2  0
 24 25  1  0
 25 26  1  0
 26 27  1  0
 26 28  1  0
 26 29  1  0
 24 30  1  0
 30 31  1  0
 30 32  2  0
 32 33  1  0
 15 34  1  0
 34 35  1  0
 34 36  1  0
 34 37  1  0
 37 38  1  0
 37 39  1  0
  2 40  1  0
 40 41  2  0
 41 42  1  0
 41 43  1  0
 43 44  1  0
 43 45  2  0
 45 46  1  0
 45 47  1  0
 47 48  1  0
 47 49  2  0
 49 50  1  0
 37  8  1  0
 49 40  1  0
 32 19  1  0
M  END
>  <UniqueID>  (34) 
30

>  <SMILES>  (34) 
COc1ccc(C(=O)C2CCN(C/C=C\c3ccccc3)CC2)cc1

>  <Energy>  (34) 
67.40145685623845

>  <Genealogy>  (34) 
COc1ccc(C(=O)C2CCN(C/C=C\c3ccccc3)CC2)cc1 (cis-trans isomerization)
COc1ccc(C(=O)C2CCN(C/C=C\c3ccccc3)CC2)cc1 (3D coordinates assigned)
COc1ccc(C(=O)C2CCN(C/C=C\c3ccccc3)CC2)cc1 (nonaromatic ring conformer: 67.40145685623845 kcal/mol)

>  <smiles>  (34) 
COc1ccc(C(=O)C2CCN(CC=Cc3ccccc3)CC2)cc1

>  <score_type>  (34) 
oracle

>  <origin>  (34) 
adg

>  <m_score__min__energy>  (34) 
-8.6600000000000001

>  <m_primary>  (34) 
energy

$$$$
34:0
     RDKit          3D

 34 37  0  0  0  0  0  0  0  0999 V2000
   55.9560   22.2730   44.0590 Cl  0  0  0  0  0  0  0  0  0  0  0  0
   56.7200   23.7770   44.5400 C   0  0  0  0  0  0  0  0  0  0  0  0
   56.9370   24.0480   45.8930 C   0  0  0  0  0  0  0  0  0  0  0  0
   57.5450   25.2450   46.2790 C   0  0  0  0  0  0  0  0  0  0  0  0
   57.9400   26.1900   45.3140 C   0  0  0  0  0  0  0  0  0  0  0  0
   58.6030   27.4390   45.7450 C   0  0  0  0  0  0  0  0  0  0  0  0
   59.7690   27.3910   46.4580 N   0  0  0  0  0  0  0  0  0  0  0  0
   60.3900   28.5290   46.9020 C   0  0  0  0  0  0  0  0  0  0  0  0
   59.8580   29.7600   46.6360 N   0  0  0  0  0  0  0  0  0  0  0  0
   58.7170   29.8200   45.9030 C   0  0  0  0  0  0  0  0  0  0  0  0
   58.0730   28.7010   45.4770 C   0  0  0  0  0  0  0  0  0  0  0  0
   56.9430   29.1540   44.8260 C   0  0  0  0  0  0  0  0  0  0  0  0
   56.9300   30.5090   44.8870 N   0  0  0  0  0  0  0  0  0  0  0  0
   58.0170   30.9130   45.5380 N   0  0  0  0  0  0  0  0  0  0  0  0
   58.3360   32.2940   45.7660 C   0  0  0  0  0  0  0  0  0  0  0  0
   58.4630   33.1700   44.6760 C   0  0  0  0  0  0  0  0  0  0  0  0
   58.7990   34.5120   44.8840 C   0  0  0  0  0  0  0  0  0  0  0  0
   59.0230   34.9850   46.1800 C   0  0  0  0  0  0  0  0  0  0  0  0
   58.9200   34.1140   47.2690 C   0  0  0  0  0  0  0  0  0  0  0  0
   58.5850   32.7720   47.0640 C   0  0  0  0  0  0  0  0  0  0  0  0
   57.7220   25.9090   43.9480 C   0  0  0  0  0  0  0  0  0  0  0  0
   58.1480   27.0560   42.6830 Cl  0  0  0  0  0  0  0  0  0  0  0  0
   57.1110   24.7050   43.5710 C   0  0  0  0  0  0  0  0  0  0  0  0
   56.6287   23.3178   46.6557 H   0  0  0  0  0  0  0  0  0  0  0  0
   57.7164   25.4505   47.3459 H   0  0  0  0  0  0  0  0  0  0  0  0
   61.3244   28.4514   47.4773 H   0  0  0  0  0  0  0  0  0  0  0  0
   60.3190   30.6180   47.0090 H   0  0  0  0  0  0  0  0  0  0  0  0
   56.1831   28.5238   44.3408 H   0  0  0  0  0  0  0  0  0  0  0  0
   58.2975   32.7993   43.6537 H   0  0  0  0  0  0  0  0  0  0  0  0
   58.8870   35.1956   44.0267 H   0  0  0  0  0  0  0  0  0  0  0  0
   59.2802   36.0420   46.3432 H   0  0  0  0  0  0  0  0  0  0  0  0
   59.1027   34.4850   48.2883 H   0  0  0  0  0  0  0  0  0  0  0  0
   58.5161   32.0875   47.9223 H   0  0  0  0  0  0  0  0  0  0  0  0
   56.9383   24.4894   42.5062 H   0  0  0  0  0  0  0  0  0  0  0  0
  1  2  1  0
  2  3  2  0
  3  4  1  0
  4  5  2  0
  5  6  1  0
  6  7  2  0
  7  8  1  0
  8  9  2  0
  9 10  1  0
 10 11  2  0
 11 12  1  0
 12 13  2  0
 13 14  1  0
 14 15  1  0
 15 16  2  0
 16 17  1  0
 17 18  2  0
 18 19  1  0
 19 20  2  0
  5 21  1  0
 21 22  1  0
 21 23  2  0
 23  2  1  0
 11  6  1  0
 20 15  1  0
 14 10  1  0
  3 24  1  0
  4 25  1  0
  8 26  1  0
  9 27  1  0
 12 28  1  0
 16 29  1  0
 17 30  1  0
 18 31  1  0
 19 32  1  0
 20 33  1  0
 23 34  1  0
M  CHG  1   9   1
M  END
>  <UniqueID>  (35) 
31

>  <SMILES>  (35) 
Clc1ccc(-c2nc[nH+]c3c2cnn3-c2ccccc2)c(Cl)c1

>  <Energy>  (35) 
92.76099711047395

>  <Genealogy>  (35) 
Clc1ccc(-c2nc[nH+]c3c2cnn3-c2ccccc2)c(Cl)c1 (protonated)
Clc1ccc(-c2nc[nH+]c3c2cnn3-c2ccccc2)c(Cl)c1 (3D coordinates assigned)
Clc1ccc(-c2nc[nH+]c3c2cnn3-c2ccccc2)c(Cl)c1 (optimized conformer: 92.76099711047395 kcal/mol)

>  <smiles>  (35) 
Clc1ccc(-c2ncnc3c2cnn3-c2ccccc2)c(Cl)c1

>  <score_type>  (35) 
oracle

>  <origin>  (35) 
adg

>  <m_score__min__energy>  (35) 
-6.6100000000000003

>  <m_primary>  (35) 
energy

$$$$
35:0
     RDKit          3D

 48 51  0  0  0  0  0  0  0  0999 V2000
   56.1430   29.6400   52.9680 C   0  0  0  0  0  0  0  0  0  0  0  0
   57.1660   29.3810   52.0120 O   0  0  0  0  0  0  0  0  0  0  0  0
   57.8410   30.3740   51.2870 C   0  0  0  0  0  0  0  0  0  0  0  0
   57.4780   31.7340   51.3500 C   0  0  0  0  0  0  0  0  0  0  0  0
   58.1900   32.6890   50.6170 C   0  0  0  0  0  0  0  0  0  0  0  0
   59.2590   32.3000   49.7990 C   0  0  0  0  0  0  0  0  0  0  0  0
   59.6070   30.9410   49.7190 C   0  0  0  0  0  0  0  0  0  0  0  0
   58.9110   29.9890   50.4700 C   0  0  0  0  0  0  0  0  0  0  0  0
   60.8880   30.4240   48.5700 S   0  0  0  0  0  0  0  0  0  0  0  0
   62.0100   31.7410   49.0500 C   0  0  0  0  0  0  0  0  0  0  0  0
   63.3720   31.4770   49.2300 C   0  0  0  0  0  0  0  0  0  0  0  0
   64.2570   32.5260   49.5000 C   0  0  0  0  0  0  0  0  0  0  0  0
   63.7810   33.8360   49.5980 C   0  0  0  0  0  0  0  0  0  0  0  0
   62.4170   34.1020   49.4430 C   0  0  0  0  0  0  0  0  0  0  0  0
   61.5210   33.0560   49.1700 C   0  0  0  0  0  0  0  0  0  0  0  0
   60.0980   33.2850   49.1630 N   0  0  0  0  0  0  0  0  0  0  0  0
   59.5140   34.2830   48.2600 C   0  0  0  0  0  0  0  0  0  0  0  0
   58.9190   33.5920   47.0630 C   0  0  0  0  0  0  0  0  0  0  0  0
   59.4500   32.3730   46.6170 C   0  0  0  0  0  0  0  0  0  0  0  0
   58.8580   31.6940   45.5500 C   0  0  0  0  0  0  0  0  0  0  0  0
   57.7160   32.2190   44.9150 C   0  0  0  0  0  0  0  0  0  0  0  0
   57.0730   31.5470   43.8150 N   0  0  0  0  0  0  0  0  0  0  0  0
   56.5480   29.8930   43.8420 S   0  0  0  0  0  0  0  0  0  0  0  0
   57.9250   28.8140   44.1750 C   0  0  0  0  0  0  0  0  0  0  0  0
   55.9840   29.5410   42.4950 O   0  0  0  0  0  0  0  0  0  0  0  0
   55.4740   29.7090   44.8770 O   0  0  0  0  0  0  0  0  0  0  0  0
   57.1790   33.4300   45.3800 C   0  0  0  0  0  0  0  0  0  0  0  0
   57.7710   34.1080   46.4480 C   0  0  0  0  0  0  0  0  0  0  0  0
   56.5546   29.5358   53.9828 H   0  0  0  0  0  0  0  0  0  0  0  0
   55.7625   30.6628   52.8299 H   0  0  0  0  0  0  0  0  0  0  0  0
   55.3216   28.9215   52.8299 H   0  0  0  0  0  0  0  0  0  0  0  0
   56.6309   32.0461   51.9785 H   0  0  0  0  0  0  0  0  0  0  0  0
   57.9094   33.7506   50.6830 H   0  0  0  0  0  0  0  0  0  0  0  0
   59.2059   28.9305   50.4187 H   0  0  0  0  0  0  0  0  0  0  0  0
   63.7467   30.4452   49.1593 H   0  0  0  0  0  0  0  0  0  0  0  0
   65.3289   32.3194   49.6353 H   0  0  0  0  0  0  0  0  0  0  0  0
   64.4813   34.6605   49.7977 H   0  0  0  0  0  0  0  0  0  0  0  0
   62.0451   35.1331   49.5352 H   0  0  0  0  0  0  0  0  0  0  0  0
   58.7274   34.8405   48.7897 H   0  0  0  0  0  0  0  0  0  0  0  0
   60.2982   34.9794   47.9281 H   0  0  0  0  0  0  0  0  0  0  0  0
   60.3374   31.9496   47.1102 H   0  0  0  0  0  0  0  0  0  0  0  0
   59.2868   30.7423   45.2031 H   0  0  0  0  0  0  0  0  0  0  0  0
   56.9550   32.0590   42.9120 H   0  0  0  0  0  0  0  0  0  0  0  0
   58.0559   28.7114   45.2624 H   0  0  0  0  0  0  0  0  0  0  0  0
   57.7309   27.8251   43.7342 H   0  0  0  0  0  0  0  0  0  0  0  0
   58.8388   29.2390   43.7342 H   0  0  0  0  0  0  0  0  0  0  0  0
   56.2832   33.8490   44.8984 H   0  0  0  0  0  0  0  0  0  0  0  0
   57.3339   35.0512   46.8077 H   0  0  0  0  0  0  0  0  0  0  0  0
  1  2  1  0
  2  3  1  0
  3  4  2  0
  4  5  1  0
  5  6  2  0
  6  7  1  0
  7  8  2  0
  7  9  1  0
  9 10  1  0
 10 11  2  0
 11 12  1  0
 12 13  2  0
 13 14  1  0
 14 15  2  0
 15 16  1  0
 16 17  1  0
 17 18  1  0
 18 19  2  0
 19 20  1  0
 20 21  2  0
 21 22  1  0
 22 23  1  0
 23 24  1  0
 23 25  2  0
 23 26  2  0
 21 27  1  0
 27 28  2  0
  8  3  1  0
 15 10  1  0
 28 18  1  0
 16  6  1  0
  1 29  1  0
  1 30  1  0
  1 31  1  0
  4 32  1  0
  5 33  1  0
  8 34  1  0
 11 35  1  0
 12 36  1  0
 13 37  1  0
 14 38  1  0
 17 39  1  0
 17 40  1  0
 19 41  1  0
 20 42  1  0
 22 43  1  0
 24 44  1  0
 24 45  1  0
 24 46  1  0
 27 47  1  0
 28 48  1  0
M  END
>  <UniqueID>  (36) 
32

>  <SMILES>  (36) 
COc1ccc2c(c1)Sc1ccccc1N2Cc1ccc(NS(C)(=O)=O)cc1

>  <Energy>  (36) 
66.62748172604991

>  <Genealogy>  (36) 
COc1ccc2c(c1)Sc1ccccc1N2Cc1ccc(NS(C)(=O)=O)cc1 (3D coordinates assigned)
COc1ccc2c(c1)Sc1ccccc1N2Cc1ccc(NS(C)(=O)=O)cc1 (nonaromatic ring conformer: 66.62748172604991 kcal/mol)

>  <smiles>  (36) 
COc1ccc2c(c1)Sc1ccccc1N2Cc1ccc(NS(C)(=O)=O)cc1

>  <score_type>  (36) 
oracle

>  <origin>  (36) 
adg

>  <m_score__min__energy>  (36) 
-9.0899999999999999

>  <m_primary>  (36) 
energy

$$$$
36:0
     RDKit          3D

 33 33  0  0  0  0  0  0  0  0999 V2000
   62.0243   33.4483   50.3690 H   0  0  0  0  0  0  0  0  0  0  0  0
   62.0650   33.7800   49.3210 C   0  0  0  0  0  0  0  0  0  0  0  0
   61.1530   34.5850   48.8620 N   0  0  0  0  0  0  0  0  0  0  0  0
   60.1150   34.2430   47.9280 C   0  0  0  0  0  0  0  0  0  0  0  0
   59.2800   33.1700   48.2270 C   0  0  0  0  0  0  0  0  0  0  0  0
   59.4114   32.6031   49.1605 H   0  0  0  0  0  0  0  0  0  0  0  0
   58.2770   32.8260   47.3270 C   0  0  0  0  0  0  0  0  0  0  0  0
   57.6010   31.9894   47.5576 H   0  0  0  0  0  0  0  0  0  0  0  0
   58.1240   33.5180   46.1590 N   0  0  0  0  0  0  0  0  0  0  0  0
   57.0310   33.1410   45.2460 C   0  0  0  0  0  0  0  0  0  0  0  0
   56.8720   33.9517   44.5197 H   0  0  0  0  0  0  0  0  0  0  0  0
   56.1193   32.9729   45.8381 H   0  0  0  0  0  0  0  0  0  0  0  0
   57.3710   31.8540   44.4940 C   0  0  0  0  0  0  0  0  0  0  0  0
   58.3887   31.5324   44.7603 H   0  0  0  0  0  0  0  0  0  0  0  0
   57.3144   32.0380   43.4110 H   0  0  0  0  0  0  0  0  0  0  0  0
   56.4520   30.8430   44.8460 O   0  0  0  0  0  0  0  0  0  0  0  0
   56.2590   29.9820   43.7450 C   0  0  0  0  0  0  0  0  0  0  0  0
   56.0318   28.9686   44.1074 H   0  0  0  0  0  0  0  0  0  0  0  0
   55.4210   30.3495   43.1346 H   0  0  0  0  0  0  0  0  0  0  0  0
   57.1737   29.9566   43.1346 H   0  0  0  0  0  0  0  0  0  0  0  0
   58.9630   34.5660   45.8760 C   0  0  0  0  0  0  0  0  0  0  0  0
   58.8350   35.2190   44.8030 O   0  0  0  0  0  0  0  0  0  0  0  0
   59.9490   34.9130   46.7500 N   0  0  0  0  0  0  0  0  0  0  0  0
   60.5910   35.6910   46.4830 H   0  0  0  0  0  0  0  0  0  0  0  0
   63.1260   33.3210   48.4670 N   0  0  0  0  0  0  0  0  0  0  0  0
   63.2510   33.8230   47.0980 C   0  0  0  0  0  0  0  0  0  0  0  0
   63.5167   34.8902   47.1216 H   0  0  0  0  0  0  0  0  0  0  0  0
   64.0366   33.2611   46.5717 H   0  0  0  0  0  0  0  0  0  0  0  0
   62.2936   33.6951   46.5717 H   0  0  0  0  0  0  0  0  0  0  0  0
   64.1430   32.4080   48.9920 C   0  0  0  0  0  0  0  0  0  0  0  0
   64.1210   32.4278   50.0916 H   0  0  0  0  0  0  0  0  0  0  0  0
   63.9361   31.3868   48.6394 H   0  0  0  0  0  0  0  0  0  0  0  0
   65.1361   32.7235   48.6394 H   0  0  0  0  0  0  0  0  0  0  0  0
  1  2  1  0
  2  3  2  0
  3  4  1  0
  4  5  1  0
  5  6  1  0
  5  7  2  0
  7  8  1  0
  7  9  1  0
  9 10  1  0
 10 11  1  0
 10 12  1  0
 10 13  1  0
 13 14  1  0
 13 15  1  0
 13 16  1  0
 16 17  1  0
 17 18  1  0
 17 19  1  0
 17 20  1  0
  9 21  1  0
 21 22  2  0
 21 23  1  0
 23 24  1  0
  2 25  1  0
 25 26  1  0
 26 27  1  0
 26 28  1  0
 26 29  1  0
 25 30  1  0
 30 31  1  0
 30 32  1  0
 30 33  1  0
 23  4  2  0
M  CHG  1  23   1
M  END
>  <UniqueID>  (37) 
33

>  <SMILES>  (37) 
COCCn1ccc(/N=C/N(C)C)[nH+]c1=O

>  <Energy>  (37) 
30.130416506493837

>  <Genealogy>  (37) 
COCCn1ccc(N=CN(C)C)[nH+]c1=O (protonated)
COCCn1ccc(/N=C/N(C)C)[nH+]c1=O (cis-trans isomerization)
COCCn1ccc(/N=C/N(C)C)[nH+]c1=O (3D coordinates assigned)
COCCn1ccc(/N=C/N(C)C)[nH+]c1=O (optimized conformer: 30.130416506493837 kcal/mol)

>  <smiles>  (37) 
COCCn1ccc(N=CN(C)C)nc1=O

>  <score_type>  (37) 
oracle

>  <origin>  (37) 
adg

>  <m_score__min__energy>  (37) 
-3.8300000000000001

>  <m_primary>  (37) 
energy

$$$$
37:0
     RDKit          3D

 39 40  0  0  0  0  0  0  0  0999 V2000
   58.1250   27.0770   42.7970 C   0  0  0  0  0  0  0  0  0  0  0  0
   58.5350   28.0750   43.7260 O   0  0  0  0  0  0  0  0  0  0  0  0
   58.6450   27.8770   45.1120 C   0  0  0  0  0  0  0  0  0  0  0  0
   58.2590   26.6660   45.7220 C   0  0  0  0  0  0  0  0  0  0  0  0
   58.3780   26.5010   47.1040 C   0  0  0  0  0  0  0  0  0  0  0  0
   58.8880   27.5330   47.8910 C   0  0  0  0  0  0  0  0  0  0  0  0
   59.2740   28.7370   47.3000 C   0  0  0  0  0  0  0  0  0  0  0  0
   59.1460   28.9250   45.9110 C   0  0  0  0  0  0  0  0  0  0  0  0
   59.5680   30.1570   45.2960 N   0  0  0  0  0  0  0  0  0  0  0  0
   59.0050   31.4430   45.6110 C   0  0  0  0  0  0  0  0  0  0  0  0
   59.7400   32.3530   46.3930 C   0  0  0  0  0  0  0  0  0  0  0  0
   59.1820   33.5750   46.7720 C   0  0  0  0  0  0  0  0  0  0  0  0
   57.8830   33.8990   46.3860 C   0  0  0  0  0  0  0  0  0  0  0  0
   57.1360   33.0040   45.6190 C   0  0  0  0  0  0  0  0  0  0  0  0
   57.6820   31.7680   45.2250 C   0  0  0  0  0  0  0  0  0  0  0  0
   56.8840   30.8550   44.3680 C   0  0  0  0  0  0  0  0  0  0  0  0
   55.8490   30.3130   44.8480 O   0  0  0  0  0  0  0  0  0  0  0  0
   57.2840   30.5640   43.0070 N   0  0  0  0  0  0  0  0  0  0  0  0
   56.2690   29.7270   42.3490 C   0  0  0  0  0  0  0  0  0  0  0  0
   57.4900   31.8160   42.2600 C   0  0  0  0  0  0  0  0  0  0  0  0
   57.7623   26.1941   43.3437 H   0  0  0  0  0  0  0  0  0  0  0  0
   57.3172   27.4742   42.1648 H   0  0  0  0  0  0  0  0  0  0  0  0
   58.9788   26.7916   42.1648 H   0  0  0  0  0  0  0  0  0  0  0  0
   57.8616   25.8460   45.1058 H   0  0  0  0  0  0  0  0  0  0  0  0
   58.0687   25.5550   47.5724 H   0  0  0  0  0  0  0  0  0  0  0  0
   58.9861   27.3981   48.9783 H   0  0  0  0  0  0  0  0  0  0  0  0
   59.6815   29.5455   47.9247 H   0  0  0  0  0  0  0  0  0  0  0  0
   60.3100   30.1170   44.5610 H   0  0  0  0  0  0  0  0  0  0  0  0
   60.7628   32.0993   46.7083 H   0  0  0  0  0  0  0  0  0  0  0  0
   59.7684   34.2830   47.3761 H   0  0  0  0  0  0  0  0  0  0  0  0
   57.4453   34.8624   46.6865 H   0  0  0  0  0  0  0  0  0  0  0  0
   56.1107   33.2670   45.3195 H   0  0  0  0  0  0  0  0  0  0  0  0
   58.1930   30.0460   43.0010 H   0  0  0  0  0  0  0  0  0  0  0  0
   55.6581   29.2232   43.1125 H   0  0  0  0  0  0  0  0  0  0  0  0
   55.6235   30.3589   41.7212 H   0  0  0  0  0  0  0  0  0  0  0  0
   56.7664   28.9730   41.7212 H   0  0  0  0  0  0  0  0  0  0  0  0
   57.6267   32.6470   42.9677 H   0  0  0  0  0  0  0  0  0  0  0  0
   58.3848   31.7224   41.6271 H   0  0  0  0  0  0  0  0  0  0  0  0
   56.6124   32.0140   41.6271 H   0  0  0  0  0  0  0  0  0  0  0  0
  1  2  1  0
  2  3  1  0
  3  4  2  0
  4  5  1  0
  5  6  2  0
  6  7  1  0
  7  8  2  0
  8  9  1  0
  9 10  1  0
 10 11  2  0
 11 12  1  0
 12 13  2  0
 13 14  1  0
 14 15  2  0
 15 16  1  0
 16 17  2  0
 16 18  1  0
 18 19  1  0
 18 20  1  0
  8  3  1  0
 15 10  1  0
  1 21  1  0
  1 22  1  0
  1 23  1  0
  4 24  1  0
  5 25  1  0
  6 26  1  0
  7 27  1  0
  9 28  1  0
 11 29  1  0
 12 30  1  0
 13 31  1  0
 14 32  1  0
 18 33  1  0
 19 34  1  0
 19 35  1  0
 19 36  1  0
 20 37  1  0
 20 38  1  0
 20 39  1  0
M  CHG  1  18   1
M  END
>  <UniqueID>  (38) 
34

>  <SMILES>  (38) 
COc1ccccc1Nc1ccccc1C(=O)[NH+](C)C

>  <Energy>  (38) 
50.10998289440645

>  <Genealogy>  (38) 
COc1ccccc1Nc1ccccc1C(=O)[NH+](C)C (protonated)
COc1ccccc1Nc1ccccc1C(=O)[NH+](C)C (3D coordinates assigned)
COc1ccccc1Nc1ccccc1C(=O)[NH+](C)C (optimized conformer: 50.10998289440645 kcal/mol)

>  <smiles>  (38) 
COc1ccccc1Nc1ccccc1C(=O)N(C)C

>  <score_type>  (38) 
oracle

>  <origin>  (38) 
adg

>  <m_score__min__energy>  (38) 
-5.0999999999999996

>  <m_primary>  (38) 
energy

$$$$
38:0
     RDKit          3D

 51 54  0  0  1  0  0  0  0  0999 V2000
   58.4250   32.1300   49.6730 C   0  0  0  0  0  0  0  0  0  0  0  0
   58.6370   32.6850   48.3960 O   0  0  0  0  0  0  0  0  0  0  0  0
   59.9560   32.9550   48.0150 C   0  0  0  0  0  0  0  0  0  0  0  0
   61.0320   32.5840   48.8000 C   0  0  0  0  0  0  0  0  0  0  0  0
   62.3240   32.8610   48.4030 C   0  0  0  0  0  0  0  0  0  0  0  0
   63.4590   32.4970   49.1780 N   0  0  0  0  0  0  0  0  0  0  0  0
   64.7680   33.0910   49.0070 C   0  0  0  0  0  0  0  0  0  0  0  0
   65.3310   33.2190   50.4310 C   0  0  0  0  0  0  0  0  0  0  0  0
   65.6390   31.9130   50.7830 O   0  0  0  0  0  0  0  0  0  0  0  0
   64.5360   31.1010   50.9140 C   0  0  0  0  0  0  0  0  0  0  0  0
   63.3120   31.4830   50.1910 C   0  0  0  0  0  0  0  0  0  0  0  0
   62.4750   33.5150   47.2000 C   0  0  0  0  0  0  0  0  0  0  0  0
   61.4080   33.8910   46.4050 C   0  0  0  0  0  0  0  0  0  0  0  0
   60.1130   33.6110   46.8070 C   0  0  0  0  0  0  0  0  0  0  0  0
   59.0120   33.9960   45.9910 N   0  0  0  0  0  0  0  0  0  0  0  0
   58.4780   33.1340   45.1900 C   0  0  0  0  0  0  0  0  0  0  0  0
   58.5120   33.3200   43.8560 N   0  0  0  0  0  0  0  0  0  0  0  0
   57.9740   32.4590   42.9750 C   0  0  0  0  0  0  0  0  0  0  0  0
   57.3470   31.3160   43.4280 C   0  0  0  0  0  0  0  0  0  0  0  0
   56.8160   30.4670   42.5420 F   0  0  0  0  0  0  0  0  0  0  0  0
   57.3130   31.1260   44.7940 C   0  0  0  0  0  0  0  0  0  0  0  0
   56.7370   30.0720   45.2340 N   0  0  0  0  0  0  0  0  0  0  0  0
   57.4520   28.9830   45.7900 C   0  0  0  0  0  0  0  0  0  0  0  0
   58.5930   29.2490   46.5240 C   0  0  0  0  0  0  0  0  0  0  0  0
   59.3390   28.2300   47.0950 C   0  0  0  0  0  0  0  0  0  0  0  0
   58.9180   26.9230   46.9180 C   0  0  0  0  0  0  0  0  0  0  0  0
   57.7770   26.6500   46.1850 C   0  0  0  0  0  0  0  0  0  0  0  0
   57.0250   27.6750   45.6100 C   0  0  0  0  0  0  0  0  0  0  0  0
   57.8700   32.0220   45.6610 N   0  0  0  0  0  0  0  0  0  0  0  0
   58.7053   32.8639   50.4429 H   0  0  0  0  0  0  0  0  0  0  0  0
   57.3630   31.8668   49.7867 H   0  0  0  0  0  0  0  0  0  0  0  0
   59.0411   31.2258   49.7867 H   0  0  0  0  0  0  0  0  0  0  0  0
   60.8559   32.0619   49.7521 H   0  0  0  0  0  0  0  0  0  0  0  0
   65.4105   32.4425   48.3933 H   0  0  0  0  0  0  0  0  0  0  0  0
   64.7191   34.0615   48.4914 H   0  0  0  0  0  0  0  0  0  0  0  0
   66.2316   33.8505   50.4411 H   0  0  0  0  0  0  0  0  0  0  0  0
   64.6232   33.6920   51.1276 H   0  0  0  0  0  0  0  0  0  0  0  0
   64.8236   30.0983   50.5650 H   0  0  0  0  0  0  0  0  0  0  0  0
   64.2635   31.1738   51.9772 H   0  0  0  0  0  0  0  0  0  0  0  0
   62.9137   30.5797   49.7057 H   0  0  0  0  0  0  0  0  0  0  0  0
   62.6476   31.9212   50.9503 H   0  0  0  0  0  0  0  0  0  0  0  0
   63.4930   33.7493   46.8554 H   0  0  0  0  0  0  0  0  0  0  0  0
   61.5880   34.4125   45.4533 H   0  0  0  0  0  0  0  0  0  0  0  0
   58.9740   34.1730   43.4200 H   0  0  0  0  0  0  0  0  0  0  0  0
   58.0333   32.6648   41.8961 H   0  0  0  0  0  0  0  0  0  0  0  0
   58.9158   30.2920   46.6577 H   0  0  0  0  0  0  0  0  0  0  0  0
   60.2456   28.4547   47.6760 H   0  0  0  0  0  0  0  0  0  0  0  0
   59.4936   26.0976   47.3624 H   0  0  0  0  0  0  0  0  0  0  0  0
   57.4568   25.6059   46.0531 H   0  0  0  0  0  0  0  0  0  0  0  0
   56.1177   27.4521   45.0294 H   0  0  0  0  0  0  0  0  0  0  0  0
   57.8230   31.8430   46.6850 H   0  0  0  0  0  0  0  0  0  0  0  0
  1  2  1  0
  2  3  1  0
  3  4  2  0
  4  5  1  0
  5  6  1  0
  6  7  1  0
  7  8  1  0
  8  9  1  0
  9 10  1  0
 10 11  1  0
  5 12  2  0
 12 13  1  0
 13 14  2  0
 14 15  1  0
 15 16  2  0
 16 17  1  0
 17 18  1  0
 18 19  2  0
 19 20  1  0
 19 21  1  0
 21 22  2  0
 22 23  1  0
 23 24  2  0
 24 25  1  0
 25 26  2  0
 26 27  1  0
 27 28  2  0
 21 29  1  0
 14  3  1  0
 29 16  1  0
 11  6  1  0
 28 23  1  0
  1 30  1  0
  1 31  1  0
  1 32  1  0
  4 33  1  0
  7 34  1  0
  7 35  1  0
  8 36  1  0
  8 37  1  0
 10 38  1  0
 10 39  1  0
 11 40  1  0
 11 41  1  0
 12 42  1  0
 13 43  1  0
 17 44  1  0
 18 45  1  0
 24 46  1  0
 25 47  1  0
 26 48  1  0
 27 49  1  0
 28 50  1  0
 29 51  1  0
M  END
>  <smiles>  (39) 
COc1cc(N2CCOCC2)ccc1N=c1[nH]cc(F)c(=Nc2ccccc2)[nH]1

>  <score_type>  (39) 
oracle

>  <origin>  (39) 
adg

>  <m_score__min__energy>  (39) 
-7.8099999999999996

>  <m_primary>  (39) 
energy

$$$$
39:0
     RDKit          3D

 39 41  0  0  0  0  0  0  0  0999 V2000
   59.2690   35.3130   44.8430 C   0  0  0  0  0  0  0  0  0  0  0  0
   58.7340   33.9940   45.3340 C   0  0  0  0  0  0  0  0  0  0  0  0
   57.9440   33.2190   44.4700 C   0  0  0  0  0  0  0  0  0  0  0  0
   57.4570   31.9610   44.8640 C   0  0  0  0  0  0  0  0  0  0  0  0
   56.6360   31.1860   43.9720 N   0  0  0  0  0  0  0  0  0  0  0  0
   56.8570   31.1840   42.7430 O   0  0  0  0  0  0  0  0  0  0  0  0
   55.6020   30.4200   44.4590 O   0  0  0  0  0  0  0  0  0  0  0  0
   57.7900   31.4740   46.1380 C   0  0  0  0  0  0  0  0  0  0  0  0
   58.5720   32.2370   47.0050 C   0  0  0  0  0  0  0  0  0  0  0  0
   59.0140   33.5130   46.6330 C   0  0  0  0  0  0  0  0  0  0  0  0
   60.0050   34.4630   47.8020 S   0  0  0  0  0  0  0  0  0  0  0  0
   61.4710   33.4340   47.6400 C   0  0  0  0  0  0  0  0  0  0  0  0
   62.5680   33.8570   46.9760 N   0  0  0  0  0  0  0  0  0  0  0  0
   63.4730   32.8790   47.1700 C   0  0  0  0  0  0  0  0  0  0  0  0
   62.9240   31.8950   47.9580 C   0  0  0  0  0  0  0  0  0  0  0  0
   61.6520   32.2330   48.2330 N   0  0  0  0  0  0  0  0  0  0  0  0
   60.7480   31.5360   49.1510 C   0  0  0  0  0  0  0  0  0  0  0  0
   61.1300   29.7480   49.2230 S   0  0  0  0  0  0  0  0  0  0  0  0
   60.2620   29.3260   47.7090 C   0  0  0  0  0  0  0  0  0  0  0  0
   59.0900   28.5630   47.7680 C   0  0  0  0  0  0  0  0  0  0  0  0
   58.4370   28.1880   46.5890 C   0  0  0  0  0  0  0  0  0  0  0  0
   58.9580   28.5700   45.3490 C   0  0  0  0  0  0  0  0  0  0  0  0
   60.1270   29.3340   45.2870 C   0  0  0  0  0  0  0  0  0  0  0  0
   60.7850   29.7030   46.4640 C   0  0  0  0  0  0  0  0  0  0  0  0
   59.5264   35.9476   45.7038 H   0  0  0  0  0  0  0  0  0  0  0  0
   60.1680   35.1399   44.2332 H   0  0  0  0  0  0  0  0  0  0  0  0
   58.5034   35.8151   44.2332 H   0  0  0  0  0  0  0  0  0  0  0  0
   57.7022   33.6029   43.4679 H   0  0  0  0  0  0  0  0  0  0  0  0
   57.4315   30.4834   46.4547 H   0  0  0  0  0  0  0  0  0  0  0  0
   58.8444   31.8325   47.9910 H   0  0  0  0  0  0  0  0  0  0  0  0
   64.4941   32.8688   46.7611 H   0  0  0  0  0  0  0  0  0  0  0  0
   63.4379   30.9862   48.3044 H   0  0  0  0  0  0  0  0  0  0  0  0
   60.8558   31.9670   50.1573 H   0  0  0  0  0  0  0  0  0  0  0  0
   59.7176   31.6582   48.7858 H   0  0  0  0  0  0  0  0  0  0  0  0
   58.6818   28.2578   48.7428 H   0  0  0  0  0  0  0  0  0  0  0  0
   57.5134   27.5925   46.6375 H   0  0  0  0  0  0  0  0  0  0  0  0
   58.4479   28.2693   44.4220 H   0  0  0  0  0  0  0  0  0  0  0  0
   60.5294   29.6450   44.3116 H   0  0  0  0  0  0  0  0  0  0  0  0
   61.7141   30.2897   46.4132 H   0  0  0  0  0  0  0  0  0  0  0  0
  1  2  1  0
  2  3  2  0
  3  4  1  0
  4  5  1  0
  5  6  2  0
  5  7  1  0
  4  8  2  0
  8  9  1  0
  9 10  2  0
 10 11  1  0
 11 12  1  0
 12 13  2  0
 13 14  1  0
 14 15  2  0
 15 16  1  0
 16 17  1  0
 17 18  1  0
 18 19  1  0
 19 20  2  0
 20 21  1  0
 21 22  2  0
 22 23  1  0
 23 24  2  0
 10  2  1  0
 16 12  1  0
 24 19  1  0
  1 25  1  0
  1 26  1  0
  1 27  1  0
  3 28  1  0
  8 29  1  0
  9 30  1  0
 14 31  1  0
 15 32  1  0
 17 33  1  0
 17 34  1  0
 20 35  1  0
 21 36  1  0
 22 37  1  0
 23 38  1  0
 24 39  1  0
M  CHG  2   5   1   7  -1
M  END
>  <UniqueID>  (40) 
35

>  <SMILES>  (40) 
Cc1cc([N+](=O)[O-])ccc1Sc1nccn1CSc1ccccc1

>  <Energy>  (40) 
62.315656387867946

>  <Genealogy>  (40) 
Cc1cc([N+](=O)[O-])ccc1Sc1nccn1CSc1ccccc1 (3D coordinates assigned)
Cc1cc([N+](=O)[O-])ccc1Sc1nccn1CSc1ccccc1 (optimized conformer: 62.315656387867946 kcal/mol)

>  <smiles>  (40) 
Cc1cc([N+](=O)[O-])ccc1Sc1nccn1CSc1ccccc1

>  <score_type>  (40) 
oracle

>  <origin>  (40) 
adg

>  <m_score__min__energy>  (40) 
-8.1899999999999995

>  <m_primary>  (40) 
energy

$$$$
40:0
     RDKit          3D

 41 43  0  0  0  0  0  0  0  0999 V2000
   57.3080   32.7240   40.3840 C   0  0  0  0  0  0  0  0  0  0  0  0
   57.5610   32.2620   41.7770 C   0  0  0  0  0  0  0  0  0  0  0  0
   58.0110   33.0710   42.7580 N   0  0  0  0  0  0  0  0  0  0  0  0
   58.1140   32.2480   43.8220 C   0  0  0  0  0  0  0  0  0  0  0  0
   58.4810   32.7290   45.1710 C   0  0  0  0  0  0  0  0  0  0  0  0
   58.2330   31.9460   46.3110 C   0  0  0  0  0  0  0  0  0  0  0  0
   58.5710   32.4210   47.5810 C   0  0  0  0  0  0  0  0  0  0  0  0
   59.1450   33.6880   47.7380 C   0  0  0  0  0  0  0  0  0  0  0  0
   59.4670   34.1150   49.0350 O   0  0  0  0  0  0  0  0  0  0  0  0
   60.6510   33.7510   49.7390 C   0  0  0  0  0  0  0  0  0  0  0  0
   60.4330   33.8960   51.0950 F   0  0  0  0  0  0  0  0  0  0  0  0
   61.6960   34.5760   49.3610 F   0  0  0  0  0  0  0  0  0  0  0  0
   59.3730   34.4830   46.5990 C   0  0  0  0  0  0  0  0  0  0  0  0
   59.0360   34.0070   45.3280 C   0  0  0  0  0  0  0  0  0  0  0  0
   57.7430   30.9670   43.4350 C   0  0  0  0  0  0  0  0  0  0  0  0
   57.7460   29.7180   44.2250 C   0  0  0  0  0  0  0  0  0  0  0  0
   58.9440   29.0480   44.5190 C   0  0  0  0  0  0  0  0  0  0  0  0
   58.9260   27.8580   45.2540 C   0  0  0  0  0  0  0  0  0  0  0  0
   57.7090   27.3150   45.6850 C   0  0  0  0  0  0  0  0  0  0  0  0
   57.6900   25.8290   46.6290 S   0  0  0  0  0  0  0  0  0  0  0  0
   58.3390   24.4980   45.6460 C   0  0  0  0  0  0  0  0  0  0  0  0
   58.5310   25.9990   47.8640 O   0  0  0  0  0  0  0  0  0  0  0  0
   56.2820   25.5080   47.0450 O   0  0  0  0  0  0  0  0  0  0  0  0
   56.5100   27.9720   45.3780 C   0  0  0  0  0  0  0  0  0  0  0  0
   56.5280   29.1620   44.6430 C   0  0  0  0  0  0  0  0  0  0  0  0
   57.4000   31.0200   42.1720 O   0  0  0  0  0  0  0  0  0  0  0  0
   56.7798   33.6886   40.4078 H   0  0  0  0  0  0  0  0  0  0  0  0
   58.2664   32.8437   39.8576 H   0  0  0  0  0  0  0  0  0  0  0  0
   56.6909   31.9809   39.8576 H   0  0  0  0  0  0  0  0  0  0  0  0
   57.7703   30.9539   46.2032 H   0  0  0  0  0  0  0  0  0  0  0  0
   58.3843   31.7937   48.4651 H   0  0  0  0  0  0  0  0  0  0  0  0
   60.9062   32.7070   49.5047 H   0  0  0  0  0  0  0  0  0  0  0  0
   59.8181   35.4829   46.7091 H   0  0  0  0  0  0  0  0  0  0  0  0
   59.2076   34.6399   44.4448 H   0  0  0  0  0  0  0  0  0  0  0  0
   59.9018   29.4609   44.1696 H   0  0  0  0  0  0  0  0  0  0  0  0
   59.8702   27.3473   45.4941 H   0  0  0  0  0  0  0  0  0  0  0  0
   58.7243   23.7079   46.3073 H   0  0  0  0  0  0  0  0  0  0  0  0
   57.5399   24.0876   45.0112 H   0  0  0  0  0  0  0  0  0  0  0  0
   59.1545   24.8748   45.0112 H   0  0  0  0  0  0  0  0  0  0  0  0
   55.5517   27.5507   45.7160 H   0  0  0  0  0  0  0  0  0  0  0  0
   55.5822   29.6643   44.3916 H   0  0  0  0  0  0  0  0  0  0  0  0
  1  2  1  0
  2  3  2  0
  3  4  1  0
  4  5  1  0
  5  6  2  0
  6  7  1  0
  7  8  2  0
  8  9  1  0
  9 10  1  0
 10 11  1  0
 10 12  1  0
  8 13  1  0
 13 14  2  0
  4 15  2  0
 15 16  1  0
 16 17  2  0
 17 18  1  0
 18 19  2  0
 19 20  1  0
 20 21  1  0
 20 22  2  0
 20 23  2  0
 19 24  1  0
 24 25  2  0
 15 26  1  0
 26  2  1  0
 14  5  1  0
 25 16  1  0
  1 27  1  0
  1 28  1  0
  1 29  1  0
  6 30  1  0
  7 31  1  0
 10 32  1  0
 13 33  1  0
 14 34  1  0
 17 35  1  0
 18 36  1  0
 21 37  1  0
 21 38  1  0
 21 39  1  0
 24 40  1  0
 25 41  1  0
M  END
>  <UniqueID>  (41) 
36

>  <SMILES>  (41) 
Cc1nc(-c2ccc(OC(F)F)cc2)c(-c2ccc(S(C)(=O)=O)cc2)o1

>  <Energy>  (41) 
75.8356809013006

>  <Genealogy>  (41) 
Cc1nc(-c2ccc(OC(F)F)cc2)c(-c2ccc(S(C)(=O)=O)cc2)o1 (3D coordinates assigned)
Cc1nc(-c2ccc(OC(F)F)cc2)c(-c2ccc(S(C)(=O)=O)cc2)o1 (optimized conformer: 75.8356809013006 kcal/mol)

>  <smiles>  (41) 
Cc1nc(-c2ccc(OC(F)F)cc2)c(-c2ccc(S(C)(=O)=O)cc2)o1

>  <score_type>  (41) 
oracle

>  <origin>  (41) 
adg

>  <m_score__min__energy>  (41) 
-7.1699999999999999

>  <m_primary>  (41) 
energy

$$$$
41:0
     RDKit          3D

 53 56  0  0  0  0  0  0  0  0999 V2000
   55.8290   30.1180   43.7820 C   0  0  0  0  0  0  0  0  0  0  0  0
   57.2150   30.2600   44.3370 C   0  0  0  0  0  0  0  0  0  0  0  0
   58.1610   29.2230   44.2900 C   0  0  0  0  0  0  0  0  0  0  0  0
   59.3750   29.5480   44.8790 C   0  0  0  0  0  0  0  0  0  0  0  0
   59.2740   31.1180   45.4690 S   0  0  0  0  0  0  0  0  0  0  0  0
   57.6840   31.3980   44.9950 C   0  0  0  0  0  0  0  0  0  0  0  0
   56.9650   32.7030   45.1740 C   0  0  0  0  0  0  0  0  0  0  0  0
   57.8670   33.6980   45.7490 N   0  0  0  0  0  0  0  0  0  0  0  0
   58.7450   34.5530   44.9820 C   0  0  0  0  0  0  0  0  0  0  0  0
   59.6350   35.2470   46.0310 C   0  0  0  0  0  0  0  0  0  0  0  0
   59.4650   34.5350   47.3230 N   0  0  2  0  0  0  0  0  0  0  0  0
   60.6360   33.7000   47.6730 C   0  0  0  0  0  0  0  0  0  0  0  0
   61.0000   33.8090   49.1640 C   0  0  0  0  0  0  0  0  0  0  0  0
   60.6680   32.6110   49.8690 O   0  0  0  0  0  0  0  0  0  0  0  0
   60.2810   31.3950   49.2820 C   0  0  0  0  0  0  0  0  0  0  0  0
   59.0070   30.8260   49.4720 C   0  0  0  0  0  0  0  0  0  0  0  0
   58.6780   29.6110   48.8650 C   0  0  0  0  0  0  0  0  0  0  0  0
   59.6110   28.9420   48.0520 C   0  0  0  0  0  0  0  0  0  0  0  0
   59.2630   27.6500   47.4080 C   0  0  0  0  0  0  0  0  0  0  0  0
   60.2740   26.7710   46.9730 C   0  0  0  0  0  0  0  0  0  0  0  0
   59.9430   25.5550   46.3670 C   0  0  0  0  0  0  0  0  0  0  0  0
   58.6030   25.2020   46.1900 C   0  0  0  0  0  0  0  0  0  0  0  0
   57.5920   26.0640   46.6160 C   0  0  0  0  0  0  0  0  0  0  0  0
   57.9170   27.2820   47.2220 C   0  0  0  0  0  0  0  0  0  0  0  0
   60.8790   29.5190   47.8600 C   0  0  0  0  0  0  0  0  0  0  0  0
   61.2050   30.7330   48.4690 C   0  0  0  0  0  0  0  0  0  0  0  0
   58.3290   33.7030   47.0840 C   0  0  0  0  0  0  0  0  0  0  0  0
   57.7640   33.0450   48.0000 O   0  0  0  0  0  0  0  0  0  0  0  0
   55.1083   30.0442   44.6098 H   0  0  0  0  0  0  0  0  0  0  0  0
   55.5895   30.9963   43.1646 H   0  0  0  0  0  0  0  0  0  0  0  0
   55.7726   29.2094   43.1646 H   0  0  0  0  0  0  0  0  0  0  0  0
   57.9587   28.2447   43.8295 H   0  0  0  0  0  0  0  0  0  0  0  0
   60.2537   28.8898   44.9478 H   0  0  0  0  0  0  0  0  0  0  0  0
   56.6069   33.0582   44.1965 H   0  0  0  0  0  0  0  0  0  0  0  0
   56.1126   32.5544   45.8532 H   0  0  0  0  0  0  0  0  0  0  0  0
   59.3565   33.9576   44.2881 H   0  0  0  0  0  0  0  0  0  0  0  0
   58.1878   35.2754   44.3674 H   0  0  0  0  0  0  0  0  0  0  0  0
   60.6879   35.2014   45.7157 H   0  0  0  0  0  0  0  0  0  0  0  0
   59.3468   36.3033   46.1369 H   0  0  0  0  0  0  0  0  0  0  0  0
   59.2320   35.2090   48.0900 H   0  0  0  0  0  0  0  0  0  0  0  0
   60.4052   32.6500   47.4401 H   0  0  0  0  0  0  0  0  0  0  0  0
   61.4952   34.0592   47.0875 H   0  0  0  0  0  0  0  0  0  0  0  0
   62.0809   33.9912   49.2565 H   0  0  0  0  0  0  0  0  0  0  0  0
   60.4262   34.6393   49.6014 H   0  0  0  0  0  0  0  0  0  0  0  0
   58.2665   31.3408   50.1018 H   0  0  0  0  0  0  0  0  0  0  0  0
   57.6811   29.1741   49.0243 H   0  0  0  0  0  0  0  0  0  0  0  0
   61.3309   27.0429   47.1109 H   0  0  0  0  0  0  0  0  0  0  0  0
   60.7391   24.8753   46.0291 H   0  0  0  0  0  0  0  0  0  0  0  0
   58.3449   24.2442   45.7146 H   0  0  0  0  0  0  0  0  0  0  0  0
   56.5373   25.7852   46.4750 H   0  0  0  0  0  0  0  0  0  0  0  0
   57.1152   27.9571   47.5556 H   0  0  0  0  0  0  0  0  0  0  0  0
   61.6197   29.0104   47.2254 H   0  0  0  0  0  0  0  0  0  0  0  0
   62.2001   31.1729   48.3069 H   0  0  0  0  0  0  0  0  0  0  0  0
  1  2  1  0
  2  3  1  0
  3  4  2  0
  4  5  1  0
  5  6  1  0
  6  7  1  0
  7  8  1  0
  8  9  1  0
  9 10  1  0
 10 11  1  0
 11 12  1  0
 12 13  1  0
 13 14  1  0
 14 15  1  0
 15 16  2  0
 16 17  1  0
 17 18  2  0
 18 19  1  0
 19 20  2  0
 20 21  1  0
 21 22  2  0
 22 23  1  0
 23 24  2  0
 18 25  1  0
 25 26  2  0
 11 27  1  0
 27 28  2  0
  6  2  2  0
 27  8  1  0
 26 15  1  0
 24 19  1  0
  1 29  1  0
  1 30  1  0
  1 31  1  0
  3 32  1  0
  4 33  1  0
  7 34  1  0
  7 35  1  0
  9 36  1  0
  9 37  1  0
 10 38  1  0
 10 39  1  0
 11 40  1  1
 12 41  1  0
 12 42  1  0
 13 43  1  0
 13 44  1  0
 16 45  1  0
 17 46  1  0
 20 47  1  0
 21 48  1  0
 22 49  1  0
 23 50  1  0
 24 51  1  0
 25 52  1  0
 26 53  1  0
M  CHG  1  11   1
M  END
>  <UniqueID>  (42) 
37

>  <SMILES>  (42) 
Cc1ccsc1CN1CC[N@H+](CCOc2ccc(-c3ccccc3)cc2)C1=O

>  <Energy>  (42) 
93.09514981379722

>  <Genealogy>  (42) 
Cc1ccsc1CN1CC[NH+](CCOc2ccc(-c3ccccc3)cc2)C1=O (protonated)
Cc1ccsc1CN1CC[N@H+](CCOc2ccc(-c3ccccc3)cc2)C1=O (chirality)
Cc1ccsc1CN1CC[N@H+](CCOc2ccc(-c3ccccc3)cc2)C1=O (3D coordinates assigned)
Cc1ccsc1CN1CC[N@H+](CCOc2ccc(-c3ccccc3)cc2)C1=O (nonaromatic ring conformer: 93.09514981379722 kcal/mol)

>  <smiles>  (42) 
Cc1ccsc1CN1CCN(CCOc2ccc(-c3ccccc3)cc2)C1=O

>  <score_type>  (42) 
oracle

>  <origin>  (42) 
adg

>  <m_score__min__energy>  (42) 
-6.2599999999999998

>  <m_primary>  (42) 
energy

$$$$
42:0
     RDKit          3D

 41 44  0  0  0  0  0  0  0  0999 V2000
   55.4020   30.5400   44.5090 O   0  0  0  0  0  0  0  0  0  0  0  0
   56.6450   30.6290   44.3290 C   0  0  0  0  0  0  0  0  0  0  0  0
   57.3280   29.5610   43.6600 N   0  0  0  0  0  0  0  0  0  0  0  0
   57.4790   28.2240   44.1580 C   0  0  0  0  0  0  0  0  0  0  0  0
   57.0760   27.9330   45.4660 C   0  0  0  0  0  0  0  0  0  0  0  0
   57.2300   26.6420   45.9830 C   0  0  0  0  0  0  0  0  0  0  0  0
   57.7740   25.6260   45.1850 C   0  0  0  0  0  0  0  0  0  0  0  0
   58.0270   24.0120   45.8400 S   0  0  0  0  0  0  0  0  0  0  0  0
   59.4520   23.5730   45.6470 O   0  0  0  0  0  0  0  0  0  0  0  0
   57.7170   24.0290   47.3090 O   0  0  0  0  0  0  0  0  0  0  0  0
   56.9680   22.8840   45.0490 N   0  0  0  0  0  0  0  0  0  0  0  0
   55.6680   22.8450   45.1430 C   0  0  0  0  0  0  0  0  0  0  0  0
   54.9150   23.7370   44.3680 C   0  0  0  0  0  0  0  0  0  0  0  0
   53.5200   23.7120   44.4390 C   0  0  0  0  0  0  0  0  0  0  0  0
   52.8940   22.8310   45.2610 N   0  0  0  0  0  0  0  0  0  0  0  0
   53.5930   21.9560   46.0310 C   0  0  0  0  0  0  0  0  0  0  0  0
   54.9900   21.9430   45.9880 C   0  0  0  0  0  0  0  0  0  0  0  0
   58.1340   25.9030   43.8610 C   0  0  0  0  0  0  0  0  0  0  0  0
   57.9790   27.1930   43.3460 C   0  0  0  0  0  0  0  0  0  0  0  0
   57.3730   31.7930   44.8670 C   0  0  0  0  0  0  0  0  0  0  0  0
   57.8970   32.8400   44.1100 C   0  0  0  0  0  0  0  0  0  0  0  0
   58.4800   33.6710   45.0390 C   0  0  0  0  0  0  0  0  0  0  0  0
   59.1720   34.8710   44.8850 C   0  0  0  0  0  0  0  0  0  0  0  0
   59.6640   35.4950   46.0470 C   0  0  0  0  0  0  0  0  0  0  0  0
   59.4550   34.9120   47.3170 C   0  0  0  0  0  0  0  0  0  0  0  0
   58.7510   33.6990   47.4360 C   0  0  0  0  0  0  0  0  0  0  0  0
   58.2780   33.1060   46.2680 C   0  0  0  0  0  0  0  0  0  0  0  0
   57.6100   31.9850   46.1540 O   0  0  0  0  0  0  0  0  0  0  0  0
   56.6357   28.7236   46.0913 H   0  0  0  0  0  0  0  0  0  0  0  0
   56.9238   26.4241   47.0168 H   0  0  0  0  0  0  0  0  0  0  0  0
   55.4208   24.4549   43.7056 H   0  0  0  0  0  0  0  0  0  0  0  0
   52.9271   24.4079   43.8273 H   0  0  0  0  0  0  0  0  0  0  0  0
   53.0579   21.2562   46.6898 H   0  0  0  0  0  0  0  0  0  0  0  0
   55.5565   21.2338   46.6093 H   0  0  0  0  0  0  0  0  0  0  0  0
   58.5400   25.1032   43.2242 H   0  0  0  0  0  0  0  0  0  0  0  0
   58.2497   27.4016   42.3004 H   0  0  0  0  0  0  0  0  0  0  0  0
   57.8541   32.9717   43.0188 H   0  0  0  0  0  0  0  0  0  0  0  0
   59.3282   35.3148   43.8907 H   0  0  0  0  0  0  0  0  0  0  0  0
   60.2152   36.4434   45.9657 H   0  0  0  0  0  0  0  0  0  0  0  0
   59.8447   35.4089   48.2177 H   0  0  0  0  0  0  0  0  0  0  0  0
   58.5801   33.2350   48.4186 H   0  0  0  0  0  0  0  0  0  0  0  0
  1  2  2  0
  2  3  1  0
  3  4  1  0
  4  5  2  0
  5  6  1  0
  6  7  2  0
  7  8  1  0
  8  9  2  0
  8 10  2  0
  8 11  1  0
 11 12  2  3
 12 13  1  0
 13 14  2  0
 14 15  1  0
 15 16  1  0
 16 17  2  0
  7 18  1  0
 18 19  2  0
  2 20  1  0
 20 21  2  0
 21 22  1  0
 22 23  2  0
 23 24  1  0
 24 25  2  0
 25 26  1  0
 26 27  2  0
 27 28  1  0
 19  4  1  0
 28 20  1  0
 17 12  1  0
 27 22  1  0
  5 29  1  0
  6 30  1  0
 13 31  1  0
 14 32  1  0
 16 33  1  0
 17 34  1  0
 18 35  1  0
 19 36  1  0
 21 37  1  0
 23 38  1  0
 24 39  1  0
 25 40  1  0
 26 41  1  0
M  CHG  2   3  -1  15  -1
M  END
>  <UniqueID>  (43) 
38

>  <SMILES>  (43) 
O=C([N-]c1ccc(S(=O)(=O)N=c2cc[n-]cc2)cc1)c1cc2ccccc2o1

>  <Energy>  (43) 
88.46224490353994

>  <Genealogy>  (43) 
O=C([N-]c1ccc(S(=O)(=O)N=c2cc[n-]cc2)cc1)c1cc2ccccc2o1 (protonated)
O=C([N-]c1ccc(S(=O)(=O)N=c2cc[n-]cc2)cc1)c1cc2ccccc2o1 (3D coordinates assigned)
O=C([N-]c1ccc(S(=O)(=O)N=c2cc[n-]cc2)cc1)c1cc2ccccc2o1 (optimized conformer: 88.46224490353994 kcal/mol)

>  <smiles>  (43) 
O=C(Nc1ccc(S(=O)(=O)N=c2cc[nH]cc2)cc1)c1cc2ccccc2o1

>  <score_type>  (43) 
oracle

>  <origin>  (43) 
adg

>  <m_score__min__energy>  (43) 
-11.99

>  <m_primary>  (43) 
energy

$$$$
43:0
     RDKit          3D

 42 45  0  0  0  0  0  0  0  0999 V2000
   64.8920   33.6770   49.5880 F   0  0  0  0  0  0  0  0  0  0  0  0
   63.8910   32.9300   48.9890 C   0  0  0  0  0  0  0  0  0  0  0  0
   64.0550   31.5920   49.3120 F   0  0  0  0  0  0  0  0  0  0  0  0
   63.9000   33.1100   47.4770 C   0  0  0  0  0  0  0  0  0  0  0  0
   62.4720   33.4890   47.1030 C   0  0  0  0  0  0  0  0  0  0  0  0
   61.6340   33.2270   48.2770 N   0  0  0  0  0  0  0  0  0  0  0  0
   60.4590   34.1180   48.3200 C   0  0  0  0  0  0  0  0  0  0  0  0
   59.6420   33.9700   47.0690 C   0  0  0  0  0  0  0  0  0  0  0  0
   58.8750   34.9540   46.4730 C   0  0  0  0  0  0  0  0  0  0  0  0
   58.1420   34.4140   45.4770 N   0  0  0  0  0  0  0  0  0  0  0  0
   58.4150   33.1180   45.4220 N   0  0  0  0  0  0  0  0  0  0  0  0
   57.8270   32.2350   44.4530 C   0  0  0  0  0  0  0  0  0  0  0  0
   57.9840   32.4680   43.0750 C   0  0  0  0  0  0  0  0  0  0  0  0
   57.3950   31.6090   42.1420 C   0  0  0  0  0  0  0  0  0  0  0  0
   56.6360   30.5190   42.5750 C   0  0  0  0  0  0  0  0  0  0  0  0
   56.4580   30.2910   43.9420 C   0  0  0  0  0  0  0  0  0  0  0  0
   57.0460   31.1480   44.8780 C   0  0  0  0  0  0  0  0  0  0  0  0
   59.3180   32.8150   46.3810 C   0  0  0  0  0  0  0  0  0  0  0  0
   59.7240   31.4860   46.7360 N   0  0  0  0  0  0  0  0  0  0  0  0
   59.8120   30.4330   45.9010 C   0  0  0  0  0  0  0  0  0  0  0  0
   60.2420   29.3380   46.6260 C   0  0  0  0  0  0  0  0  0  0  0  0
   60.4010   29.8030   47.9190 C   0  0  0  0  0  0  0  0  0  0  0  0
   60.0780   31.1080   47.9520 N   0  0  0  0  0  0  0  0  0  0  0  0
   62.5190   33.4080   49.4310 C   0  0  0  0  0  0  0  0  0  0  0  0
   64.5979   33.9101   47.1894 H   0  0  0  0  0  0  0  0  0  0  0  0
   64.2284   32.1966   46.9595 H   0  0  0  0  0  0  0  0  0  0  0  0
   62.4226   34.5546   46.8346 H   0  0  0  0  0  0  0  0  0  0  0  0
   62.1262   32.9049   46.2374 H   0  0  0  0  0  0  0  0  0  0  0  0
   59.8388   33.8578   49.1905 H   0  0  0  0  0  0  0  0  0  0  0  0
   60.8044   35.1594   48.3987 H   0  0  0  0  0  0  0  0  0  0  0  0
   58.8640   36.0143   46.7658 H   0  0  0  0  0  0  0  0  0  0  0  0
   58.5731   33.3303   42.7294 H   0  0  0  0  0  0  0  0  0  0  0  0
   57.5295   31.7918   41.0657 H   0  0  0  0  0  0  0  0  0  0  0  0
   56.1786   29.8404   41.8399 H   0  0  0  0  0  0  0  0  0  0  0  0
   55.8547   29.4365   44.2824 H   0  0  0  0  0  0  0  0  0  0  0  0
   56.8959   30.9696   45.9530 H   0  0  0  0  0  0  0  0  0  0  0  0
   59.5810   30.4429   44.8256 H   0  0  0  0  0  0  0  0  0  0  0  0
   60.4194   28.3177   46.2552 H   0  0  0  0  0  0  0  0  0  0  0  0
   60.7364   29.2041   48.7785 H   0  0  0  0  0  0  0  0  0  0  0  0
   60.1240   31.7330   48.7880 H   0  0  0  0  0  0  0  0  0  0  0  0
   62.5588   34.4689   49.7188 H   0  0  0  0  0  0  0  0  0  0  0  0
   62.1597   32.8450   50.3050 H   0  0  0  0  0  0  0  0  0  0  0  0
  1  2  1  0
  2  3  1  0
  2  4  1  0
  4  5  1  0
  5  6  1  0
  6  7  1  0
  7  8  1  0
  8  9  1  0
  9 10  2  0
 10 11  1  0
 11 12  1  0
 12 13  2  0
 13 14  1  0
 14 15  2  0
 15 16  1  0
 16 17  2  0
 11 18  1  0
 18 19  1  0
 19 20  1  0
 20 21  2  0
 21 22  1  0
 22 23  2  0
  6 24  1  0
 24  2  1  0
 18  8  2  0
 23 19  1  0
 17 12  1  0
  4 25  1  0
  4 26  1  0
  5 27  1  0
  5 28  1  0
  7 29  1  0
  7 30  1  0
  9 31  1  0
 13 32  1  0
 14 33  1  0
 15 34  1  0
 16 35  1  0
 17 36  1  0
 20 37  1  0
 21 38  1  0
 22 39  1  0
 23 40  1  0
 24 41  1  0
 24 42  1  0
M  CHG  1  23   1
M  END
>  <UniqueID>  (44) 
39

>  <SMILES>  (44) 
FC1(F)CCN(Cc2cnn(-c3ccccc3)c2-n2ccc[nH+]2)C1

>  <Energy>  (44) 
117.14290263911866

>  <Genealogy>  (44) 
FC1(F)CCN(Cc2cnn(-c3ccccc3)c2-n2ccc[nH+]2)C1 (protonated)
FC1(F)CCN(Cc2cnn(-c3ccccc3)c2-n2ccc[nH+]2)C1 (3D coordinates assigned)
FC1(F)CCN(Cc2cnn(-c3ccccc3)c2-n2ccc[nH+]2)C1 (nonaromatic ring conformer: 117.14290263911866 kcal/mol)

>  <smiles>  (44) 
FC1(F)CCN(Cc2cnn(-c3ccccc3)c2-n2cccn2)C1

>  <score_type>  (44) 
oracle

>  <origin>  (44) 
adg

>  <m_score__min__energy>  (44) 
-5.8200000000000003

>  <m_primary>  (44) 
energy

$$$$
44:0
     RDKit          3D

 35 37  0  0  0  0  0  0  0  0999 V2000
   57.7560   31.9060   41.8480 C   0  0  0  0  0  0  0  0  0  0  0  0
   57.6130   31.7240   43.2910 N   0  0  0  0  0  0  0  0  0  0  0  0
   57.0230   30.6850   43.9460 C   0  0  0  0  0  0  0  0  0  0  0  0
   56.4610   29.4610   43.2730 C   0  0  0  0  0  0  0  0  0  0  0  0
   57.3450   28.3110   43.4670 N   0  0  0  0  0  0  0  0  0  0  0  0
   58.2670   28.1720   44.5720 C   0  0  0  0  0  0  0  0  0  0  0  0
   59.5700   28.7110   44.5020 C   0  0  0  0  0  0  0  0  0  0  0  0
   60.4580   28.5700   45.5710 C   0  0  0  0  0  0  0  0  0  0  0  0
   60.0660   27.8940   46.7240 C   0  0  0  0  0  0  0  0  0  0  0  0
   58.7820   27.3550   46.8150 C   0  0  0  0  0  0  0  0  0  0  0  0
   57.8800   27.4870   45.7500 C   0  0  0  0  0  0  0  0  0  0  0  0
   56.5690   26.9010   45.8860 C   0  0  0  0  0  0  0  0  0  0  0  0
   55.5170   26.4300   45.9960 N   0  0  0  0  0  0  0  0  0  0  0  0
   57.0200   30.8550   45.2920 N   0  0  0  0  0  0  0  0  0  0  0  0
   57.5900   32.0570   45.4780 C   0  0  0  0  0  0  0  0  0  0  0  0
   57.8020   32.7300   46.6780 C   0  0  0  0  0  0  0  0  0  0  0  0
   58.4010   34.0030   46.6150 C   0  0  0  0  0  0  0  0  0  0  0  0
   58.7620   34.5620   45.3680 C   0  0  0  0  0  0  0  0  0  0  0  0
   58.5320   33.8540   44.1730 C   0  0  0  0  0  0  0  0  0  0  0  0
   57.9430   32.5910   44.2700 C   0  0  0  0  0  0  0  0  0  0  0  0
   58.4245   32.7568   41.6502 H   0  0  0  0  0  0  0  0  0  0  0  0
   58.1818   30.9942   41.4038 H   0  0  0  0  0  0  0  0  0  0  0  0
   56.7693   32.1040   41.4038 H   0  0  0  0  0  0  0  0  0  0  0  0
   55.4741   29.2341   43.7025 H   0  0  0  0  0  0  0  0  0  0  0  0
   56.3720   29.6602   42.1949 H   0  0  0  0  0  0  0  0  0  0  0  0
   57.3040   27.5670   42.7340 H   0  0  0  0  0  0  0  0  0  0  0  0
   59.8892   29.2475   43.5963 H   0  0  0  0  0  0  0  0  0  0  0  0
   61.4705   28.9944   45.5020 H   0  0  0  0  0  0  0  0  0  0  0  0
   60.7688   27.7850   47.5632 H   0  0  0  0  0  0  0  0  0  0  0  0
   58.4758   26.8233   47.7280 H   0  0  0  0  0  0  0  0  0  0  0  0
   56.6410   30.2110   46.0220 H   0  0  0  0  0  0  0  0  0  0  0  0
   57.5121   32.2836   47.6407 H   0  0  0  0  0  0  0  0  0  0  0  0
   58.5890   34.5654   47.5415 H   0  0  0  0  0  0  0  0  0  0  0  0
   59.2265   35.5584   45.3309 H   0  0  0  0  0  0  0  0  0  0  0  0
   58.8065   34.2805   43.1969 H   0  0  0  0  0  0  0  0  0  0  0  0
  1  2  1  0
  2  3  1  0
  3  4  1  0
  4  5  1  0
  5  6  1  0
  6  7  2  0
  7  8  1  0
  8  9  2  0
  9 10  1  0
 10 11  2  0
 11 12  1  0
 12 13  3  0
  3 14  2  0
 14 15  1  0
 15 16  2  0
 16 17  1  0
 17 18  2  0
 18 19  1  0
 19 20  2  0
 20  2  1  0
 11  6  1  0
 20 15  1  0
  1 21  1  0
  1 22  1  0
  1 23  1  0
  4 24  1  0
  4 25  1  0
  5 26  1  0
  7 27  1  0
  8 28  1  0
  9 29  1  0
 10 30  1  0
 14 31  1  0
 16 32  1  0
 17 33  1  0
 18 34  1  0
 19 35  1  0
M  CHG  1  14   1
M  END
>  <UniqueID>  (45) 
40

>  <SMILES>  (45) 
Cn1c(CNc2ccccc2C#N)[nH+]c2ccccc21

>  <Energy>  (45) 
75.84302402660688

>  <Genealogy>  (45) 
Cn1c(CNc2ccccc2C#N)[nH+]c2ccccc21 (protonated)
Cn1c(CNc2ccccc2C#N)[nH+]c2ccccc21 (3D coordinates assigned)
Cn1c(CNc2ccccc2C#N)[nH+]c2ccccc21 (optimized conformer: 75.84302402660688 kcal/mol)

>  <smiles>  (45) 
Cn1c(CNc2ccccc2C#N)nc2ccccc21

>  <score_type>  (45) 
oracle

>  <origin>  (45) 
adg

>  <m_score__min__energy>  (45) 
-6.3200000000000003

>  <m_primary>  (45) 
energy

$$$$
45:0
     RDKit          3D

 42 44  0  0  0  0  0  0  0  0999 V2000
   53.7540   23.7720   44.5300 C   0  0  0  0  0  0  0  0  0  0  0  0
   55.2130   24.0010   44.9350 C   0  0  0  0  0  0  0  0  0  0  0  0
   56.1440   23.9990   43.7750 N   0  0  0  0  0  0  0  0  0  0  0  0
   56.1020   22.7200   43.0070 C   0  0  0  0  0  0  0  0  0  0  0  0
   57.2120   21.7480   43.4260 C   0  0  0  0  0  0  0  0  0  0  0  0
   57.5290   24.3450   44.2010 C   0  0  0  0  0  0  0  0  0  0  0  0
   57.7320   25.8140   44.5280 C   0  0  0  0  0  0  0  0  0  0  0  0
   57.9490   26.7470   43.5010 C   0  0  0  0  0  0  0  0  0  0  0  0
   58.1370   28.0990   43.7980 C   0  0  0  0  0  0  0  0  0  0  0  0
   58.1270   28.5480   45.1300 C   0  0  0  0  0  0  0  0  0  0  0  0
   58.3270   29.9840   45.4330 C   0  0  0  0  0  0  0  0  0  0  0  0
   57.4900   30.9590   44.9910 N   0  0  0  0  0  0  0  0  0  0  0  0
   57.8950   32.1860   45.4090 C   0  0  0  0  0  0  0  0  0  0  0  0
   57.2330   33.3780   45.1100 C   0  0  0  0  0  0  0  0  0  0  0  0
   57.7580   34.5850   45.6060 C   0  0  0  0  0  0  0  0  0  0  0  0
   58.9290   34.5840   46.3920 C   0  0  0  0  0  0  0  0  0  0  0  0
   59.5850   33.3780   46.6860 C   0  0  0  0  0  0  0  0  0  0  0  0
   59.0440   32.1980   46.1810 C   0  0  0  0  0  0  0  0  0  0  0  0
   59.5960   30.6270   46.3630 S   0  0  0  0  0  0  0  0  0  0  0  0
   57.9360   27.6100   46.1580 C   0  0  0  0  0  0  0  0  0  0  0  0
   57.7470   26.2570   45.8610 C   0  0  0  0  0  0  0  0  0  0  0  0
   53.1337   23.6746   45.4332 H   0  0  0  0  0  0  0  0  0  0  0  0
   53.4009   24.6257   43.9329 H   0  0  0  0  0  0  0  0  0  0  0  0
   53.6794   22.8512   43.9329 H   0  0  0  0  0  0  0  0  0  0  0  0
   55.2875   24.9739   45.4429 H   0  0  0  0  0  0  0  0  0  0  0  0
   55.5062   23.1708   45.5944 H   0  0  0  0  0  0  0  0  0  0  0  0
   55.8540   24.7870   43.1470 H   0  0  0  0  0  0  0  0  0  0  0  0
   55.1280   22.2380   43.1770 H   0  0  0  0  0  0  0  0  0  0  0  0
   56.2527   22.9623   41.9447 H   0  0  0  0  0  0  0  0  0  0  0  0
   57.2642   21.7023   44.5238 H   0  0  0  0  0  0  0  0  0  0  0  0
   56.9922   20.7466   43.0273 H   0  0  0  0  0  0  0  0  0  0  0  0
   58.1756   22.0980   43.0273 H   0  0  0  0  0  0  0  0  0  0  0  0
   57.7714   23.7555   45.0975 H   0  0  0  0  0  0  0  0  0  0  0  0
   58.1873   24.1172   43.3497 H   0  0  0  0  0  0  0  0  0  0  0  0
   57.9711   26.4104   42.4540 H   0  0  0  0  0  0  0  0  0  0  0  0
   58.2944   28.8192   42.9816 H   0  0  0  0  0  0  0  0  0  0  0  0
   56.3187   33.3735   44.4985 H   0  0  0  0  0  0  0  0  0  0  0  0
   57.2523   35.5352   45.3795 H   0  0  0  0  0  0  0  0  0  0  0  0
   59.3305   35.5331   46.7767 H   0  0  0  0  0  0  0  0  0  0  0  0
   60.4994   33.3654   47.2973 H   0  0  0  0  0  0  0  0  0  0  0  0
   57.9351   27.9431   47.2064 H   0  0  0  0  0  0  0  0  0  0  0  0
   57.6089   25.5334   46.6779 H   0  0  0  0  0  0  0  0  0  0  0  0
  1  2  1  0
  2  3  1  0
  3  4  1  0
  4  5  1  0
  3  6  1  0
  6  7  1  0
  7  8  2  0
  8  9  1  0
  9 10  2  0
 10 11  1  0
 11 12  2  0
 12 13  1  0
 13 14  2  0
 14 15  1  0
 15 16  2  0
 16 17  1  0
 17 18  2  0
 18 19  1  0
 10 20  1  0
 20 21  2  0
 21  7  1  0
 19 11  1  0
 18 13  1  0
  1 22  1  0
  1 23  1  0
  1 24  1  0
  2 25  1  0
  2 26  1  0
  3 27  1  0
  4 28  1  0
  4 29  1  0
  5 30  1  0
  5 31  1  0
  5 32  1  0
  6 33  1  0
  6 34  1  0
  8 35  1  0
  9 36  1  0
 14 37  1  0
 15 38  1  0
 16 39  1  0
 17 40  1  0
 20 41  1  0
 21 42  1  0
M  CHG  1   3   1
M  END
>  <UniqueID>  (46) 
41

>  <SMILES>  (46) 
CC[NH+](CC)Cc1ccc(-c2nc3ccccc3s2)cc1

>  <Energy>  (46) 
83.95331201383082

>  <Genealogy>  (46) 
CC[NH+](CC)Cc1ccc(-c2nc3ccccc3s2)cc1 (protonated)
CC[NH+](CC)Cc1ccc(-c2nc3ccccc3s2)cc1 (3D coordinates assigned)
CC[NH+](CC)Cc1ccc(-c2nc3ccccc3s2)cc1 (optimized conformer: 83.95331201383082 kcal/mol)

>  <smiles>  (46) 
CCN(CC)Cc1ccc(-c2nc3ccccc3s2)cc1

>  <score_type>  (46) 
oracle

>  <origin>  (46) 
adg

>  <m_score__min__energy>  (46) 
-5.2699999999999996

>  <m_primary>  (46) 
energy

$$$$
46:0
     RDKit          3D

 37 39  0  0  0  0  0  0  0  0999 V2000
   60.3780   28.1660   49.3770 C   0  0  0  0  0  0  0  0  0  0  0  0
   60.0180   28.3300   47.9300 C   0  0  0  0  0  0  0  0  0  0  0  0
   60.3650   27.3410   46.9980 C   0  0  0  0  0  0  0  0  0  0  0  0
   59.9840   27.4700   45.6620 C   0  0  0  0  0  0  0  0  0  0  0  0
   59.2490   28.5830   45.2450 C   0  0  0  0  0  0  0  0  0  0  0  0
   58.8970   29.5840   46.1630 C   0  0  0  0  0  0  0  0  0  0  0  0
   58.0930   30.7410   45.7120 C   0  0  0  0  0  0  0  0  0  0  0  0
   56.9100   30.6100   45.0780 N   0  0  0  0  0  0  0  0  0  0  0  0
   56.4560   31.8080   44.8540 O   0  0  0  0  0  0  0  0  0  0  0  0
   57.2810   32.7240   45.3020 C   0  0  0  0  0  0  0  0  0  0  0  0
   57.0450   34.1930   45.1660 C   0  0  0  0  0  0  0  0  0  0  0  0
   58.3700   32.0930   45.8830 C   0  0  0  0  0  0  0  0  0  0  0  0
   59.5980   32.7210   46.4060 C   0  0  0  0  0  0  0  0  0  0  0  0
   59.5810   33.9380   46.7350 O   0  0  0  0  0  0  0  0  0  0  0  0
   60.8140   31.9640   46.5060 N   0  0  0  0  0  0  0  0  0  0  0  0
   61.9350   32.3500   47.3210 C   0  0  0  0  0  0  0  0  0  0  0  0
   62.3370   31.5890   48.4320 C   0  0  0  0  0  0  0  0  0  0  0  0
   63.4460   31.9830   49.1820 C   0  0  0  0  0  0  0  0  0  0  0  0
   64.1540   33.1270   48.8100 C   0  0  0  0  0  0  0  0  0  0  0  0
   63.7660   33.8420   47.7210 N   0  0  0  0  0  0  0  0  0  0  0  0
   62.6900   33.4790   46.9730 C   0  0  0  0  0  0  0  0  0  0  0  0
   59.2630   29.4380   47.5130 C   0  0  0  0  0  0  0  0  0  0  0  0
   59.5556   28.5406   50.0042 H   0  0  0  0  0  0  0  0  0  0  0  0
   60.5488   27.1012   49.5939 H   0  0  0  0  0  0  0  0  0  0  0  0
   61.2935   28.7359   49.5939 H   0  0  0  0  0  0  0  0  0  0  0  0
   60.9396   26.4605   47.3215 H   0  0  0  0  0  0  0  0  0  0  0  0
   60.2630   26.6933   44.9348 H   0  0  0  0  0  0  0  0  0  0  0  0
   58.9449   28.6748   44.1919 H   0  0  0  0  0  0  0  0  0  0  0  0
   56.9721   34.6467   46.1654 H   0  0  0  0  0  0  0  0  0  0  0  0
   57.8813   34.6494   44.6162 H   0  0  0  0  0  0  0  0  0  0  0  0
   56.1078   34.3645   44.6162 H   0  0  0  0  0  0  0  0  0  0  0  0
   60.9270   31.1400   45.8740 H   0  0  0  0  0  0  0  0  0  0  0  0
   61.7779   30.6834   48.7102 H   0  0  0  0  0  0  0  0  0  0  0  0
   63.7594   31.3971   50.0587 H   0  0  0  0  0  0  0  0  0  0  0  0
   65.0258   33.4499   49.3980 H   0  0  0  0  0  0  0  0  0  0  0  0
   62.4106   34.0738   46.0909 H   0  0  0  0  0  0  0  0  0  0  0  0
   58.9557   30.1971   48.2474 H   0  0  0  0  0  0  0  0  0  0  0  0
  1  2  1  0
  2  3  2  0
  3  4  1  0
  4  5  2  0
  5  6  1  0
  6  7  1  0
  7  8  2  0
  8  9  1  0
  9 10  1  0
 10 11  1  0
 10 12  2  0
 12 13  1  0
 13 14  2  0
 13 15  1  0
 15 16  1  0
 16 17  2  0
 17 18  1  0
 18 19  2  0
 19 20  1  0
 20 21  2  0
  6 22  2  0
 22  2  1  0
 12  7  1  0
 21 16  1  0
  1 23  1  0
  1 24  1  0
  1 25  1  0
  3 26  1  0
  4 27  1  0
  5 28  1  0
 11 29  1  0
 11 30  1  0
 11 31  1  0
 15 32  1  0
 17 33  1  0
 18 34  1  0
 19 35  1  0
 21 36  1  0
 22 37  1  0
M  END
>  <UniqueID>  (47) 
42

>  <SMILES>  (47) 
Cc1cccc(-c2noc(C)c2C(=O)Nc2cccnc2)c1

>  <Energy>  (47) 
79.2341447248022

>  <Genealogy>  (47) 
Cc1cccc(-c2noc(C)c2C(=O)Nc2cccnc2)c1 (3D coordinates assigned)
Cc1cccc(-c2noc(C)c2C(=O)Nc2cccnc2)c1 (optimized conformer: 79.2341447248022 kcal/mol)

>  <smiles>  (47) 
Cc1cccc(-c2noc(C)c2C(=O)Nc2cccnc2)c1

>  <score_type>  (47) 
oracle

>  <origin>  (47) 
adg

>  <m_score__min__energy>  (47) 
-7.4199999999999999

>  <m_primary>  (47) 
energy

$$$$
47:0
     RDKit          3D

 30 32  0  0  0  0  0  0  0  0999 V2000
   56.7620   27.2800   45.6710 C   0  0  0  0  0  0  0  0  0  0  0  0
   55.9230   28.3480   45.2490 O   0  0  0  0  0  0  0  0  0  0  0  0
   56.3860   29.4120   44.4700 C   0  0  0  0  0  0  0  0  0  0  0  0
   57.0430   30.4770   45.0850 C   0  0  0  0  0  0  0  0  0  0  0  0
   57.5100   31.5520   44.3120 C   0  0  0  0  0  0  0  0  0  0  0  0
   58.1930   32.6900   44.9710 C   0  0  0  0  0  0  0  0  0  0  0  0
   58.6060   33.7810   44.2480 N   0  0  0  0  0  0  0  0  0  0  0  0
   59.2390   34.8380   44.8520 C   0  0  0  0  0  0  0  0  0  0  0  0
   59.4750   34.8320   46.1980 N   0  0  0  0  0  0  0  0  0  0  0  0
   59.0640   33.7590   46.9130 C   0  0  0  0  0  0  0  0  0  0  0  0
   59.2220   33.5690   48.2290 N   0  0  0  0  0  0  0  0  0  0  0  0
   58.6550   32.3450   48.4070 C   0  0  0  0  0  0  0  0  0  0  0  0
   58.1650   31.7780   47.2720 N   0  0  0  0  0  0  0  0  0  0  0  0
   58.4380   32.7080   46.3450 C   0  0  0  0  0  0  0  0  0  0  0  0
   57.3130   31.5370   42.9180 C   0  0  0  0  0  0  0  0  0  0  0  0
   57.8080   32.5980   42.1400 O   0  0  0  0  0  0  0  0  0  0  0  0
   57.6400   32.7130   40.7310 C   0  0  0  0  0  0  0  0  0  0  0  0
   56.6420   30.4430   42.3430 C   0  0  0  0  0  0  0  0  0  0  0  0
   56.2010   29.4210   43.1220 N   0  0  0  0  0  0  0  0  0  0  0  0
   56.7882   27.2466   46.7702 H   0  0  0  0  0  0  0  0  0  0  0  0
   56.3671   26.3288   45.2846 H   0  0  0  0  0  0  0  0  0  0  0  0
   57.7796   27.4385   45.2846 H   0  0  0  0  0  0  0  0  0  0  0  0
   57.1952   30.4750   46.1744 H   0  0  0  0  0  0  0  0  0  0  0  0
   58.4250   33.8290   43.2210 H   0  0  0  0  0  0  0  0  0  0  0  0
   59.5597   35.6987   44.2468 H   0  0  0  0  0  0  0  0  0  0  0  0
   58.5975   31.8537   49.3895 H   0  0  0  0  0  0  0  0  0  0  0  0
   56.7497   33.3224   40.5164 H   0  0  0  0  0  0  0  0  0  0  0  0
   58.5276   33.1939   40.2939 H   0  0  0  0  0  0  0  0  0  0  0  0
   57.5129   31.7116   40.2939 H   0  0  0  0  0  0  0  0  0  0  0  0
   56.4733   30.4146   41.2564 H   0  0  0  0  0  0  0  0  0  0  0  0
  1  2  1  0
  2  3  1  0
  3  4  2  0
  4  5  1  0
  5  6  1  0
  6  7  2  0
  7  8  1  0
  8  9  2  0
  9 10  1  0
 10 11  1  0
 11 12  1  0
 12 13  2  0
 13 14  1  0
  5 15  2  0
 15 16  1  0
 16 17  1  0
 15 18  1  0
 18 19  2  0
 19  3  1  0
 14  6  1  0
 14 10  2  0
  1 20  1  0
  1 21  1  0
  1 22  1  0
  4 23  1  0
  7 24  1  0
  8 25  1  0
 12 26  1  0
 17 27  1  0
 17 28  1  0
 17 29  1  0
 18 30  1  0
M  CHG  2   7   1  11  -1
M  END
>  <UniqueID>  (48) 
43

>  <SMILES>  (48) 
COc1cc(-c2[nH+]cnc3[n-]cnc23)c(OC)cn1

>  <Energy>  (48) 
74.15515154737965

>  <Genealogy>  (48) 
COc1cc(-c2[nH+]cnc3[n-]cnc23)c(OC)cn1 (protonated)
COc1cc(-c2[nH+]cnc3[n-]cnc23)c(OC)cn1 (3D coordinates assigned)
COc1cc(-c2[nH+]cnc3[n-]cnc23)c(OC)cn1 (optimized conformer: 74.15515154737965 kcal/mol)

>  <smiles>  (48) 
COc1cc(-c2ncnc3[nH]cnc23)c(OC)cn1

>  <score_type>  (48) 
oracle

>  <origin>  (48) 
adg

>  <m_score__min__energy>  (48) 
-5.9299999999999997

>  <m_primary>  (48) 
energy

$$$$
