0:0
     RDKit          3D

 53 56  0  0  0  0  0  0  0  0999 V2000
   63.3700   33.8460   46.4450 C   0  0  0  0  0  0  0  0  0  0  0  0
   63.3890   32.4780   47.1380 C   0  0  0  0  0  0  0  0  0  0  0  0
   62.5780   32.6030   48.2390 O   0  0  0  0  0  0  0  0  0  0  0  0
   63.1830   32.4540   49.4500 C   0  0  0  0  0  0  0  0  0  0  0  0
   62.7880   31.1600   50.1590 C   0  0  0  0  0  0  0  0  0  0  0  0
   61.8720   30.4490   49.4260 O   0  0  0  0  0  0  0  0  0  0  0  0
   60.7580   30.0290   50.1280 C   0  0  0  0  0  0  0  0  0  0  0  0
   59.8880   29.0440   49.3900 C   0  0  0  0  0  0  0  0  0  0  0  0
   60.3170   28.8350   48.0220 N   0  0  0  0  0  0  0  0  0  0  0  0
   59.6590   29.4060   46.9020 C   0  0  0  0  0  0  0  0  0  0  0  0
   59.0460   28.5770   45.9630 C   0  0  0  0  0  0  0  0  0  0  0  0
   59.1290   27.2270   46.2080 C   0  0  0  0  0  0  0  0  0  0  0  0
   58.5500   26.3490   45.3300 C   0  0  0  0  0  0  0  0  0  0  0  0
   57.9060   26.8320   44.2320 C   0  0  0  0  0  0  0  0  0  0  0  0
   57.8270   28.1970   43.9940 C   0  0  0  0  0  0  0  0  0  0  0  0
   58.4060   29.1220   44.8690 C   0  0  0  0  0  0  0  0  0  0  0  0
   58.3260   30.4410   44.6310 N   0  0  0  0  0  0  0  0  0  0  0  0
   57.6530   30.9990   43.4880 C   0  0  0  0  0  0  0  0  0  0  0  0
   58.9160   31.2660   45.5280 C   0  0  0  0  0  0  0  0  0  0  0  0
   59.5770   30.7570   46.6540 C   0  0  0  0  0  0  0  0  0  0  0  0
   60.0670   31.7740   47.3670 N   0  0  0  0  0  0  0  0  0  0  0  0
   59.7790   32.9490   46.7910 C   0  0  0  0  0  0  0  0  0  0  0  0
   60.0740   34.2540   47.1580 C   0  0  0  0  0  0  0  0  0  0  0  0
   59.6480   35.3120   46.3660 C   0  0  0  0  0  0  0  0  0  0  0  0
   58.9380   34.9850   45.2360 C   0  0  0  0  0  0  0  0  0  0  0  0
   58.6460   33.6810   44.8730 C   0  0  0  0  0  0  0  0  0  0  0  0
   59.0650   32.6340   45.6530 C   0  0  0  0  0  0  0  0  0  0  0  0
   63.3589   34.6416   47.2045 H   0  0  0  0  0  0  0  0  0  0  0  0
   64.2668   33.9513   45.8167 H   0  0  0  0  0  0  0  0  0  0  0  0
   62.4707   33.9263   45.8167 H   0  0  0  0  0  0  0  0  0  0  0  0
   63.0005   31.7015   46.4627 H   0  0  0  0  0  0  0  0  0  0  0  0
   64.4102   32.1821   47.4199 H   0  0  0  0  0  0  0  0  0  0  0  0
   64.2727   32.4529   49.2997 H   0  0  0  0  0  0  0  0  0  0  0  0
   62.8572   33.2904   50.0858 H   0  0  0  0  0  0  0  0  0  0  0  0
   63.6867   30.5428   50.3050 H   0  0  0  0  0  0  0  0  0  0  0  0
   62.3324   31.4194   51.1260 H   0  0  0  0  0  0  0  0  0  0  0  0
   61.0982   29.5552   51.0606 H   0  0  0  0  0  0  0  0  0  0  0  0
   60.1412   30.9235   50.2996 H   0  0  0  0  0  0  0  0  0  0  0  0
   59.9195   28.0805   49.9199 H   0  0  0  0  0  0  0  0  0  0  0  0
   58.8694   29.4580   49.3594 H   0  0  0  0  0  0  0  0  0  0  0  0
   61.1590   28.2340   47.7940 H   0  0  0  0  0  0  0  0  0  0  0  0
   59.6549   26.8554   47.0998 H   0  0  0  0  0  0  0  0  0  0  0  0
   58.6049   25.2653   45.5103 H   0  0  0  0  0  0  0  0  0  0  0  0
   57.4417   26.1303   43.5234 H   0  0  0  0  0  0  0  0  0  0  0  0
   57.2986   28.5586   43.0996 H   0  0  0  0  0  0  0  0  0  0  0  0
   56.8474   31.6670   43.8268 H   0  0  0  0  0  0  0  0  0  0  0  0
   58.3718   31.5697   42.8817 H   0  0  0  0  0  0  0  0  0  0  0  0
   57.2253   30.1869   42.8817 H   0  0  0  0  0  0  0  0  0  0  0  0
   60.6160   31.7180   48.2600 H   0  0  0  0  0  0  0  0  0  0  0  0
   60.6457   34.4507   48.0769 H   0  0  0  0  0  0  0  0  0  0  0  0
   59.8674   36.3572   46.6294 H   0  0  0  0  0  0  0  0  0  0  0  0
   58.5839   35.7998   44.5873 H   0  0  0  0  0  0  0  0  0  0  0  0
   58.0748   33.4840   43.9538 H   0  0  0  0  0  0  0  0  0  0  0  0
  1  2  1  0
  2  3  1  0
  3  4  1  0
  4  5  1  0
  5  6  1  0
  6  7  1  0
  7  8  1  0
  8  9  1  0
  9 10  1  0
 10 11  2  0
 11 12  1  0
 12 13  2  0
 13 14  1  0
 14 15  2  0
 15 16  1  0
 16 17  2  0
 17 18  1  0
 17 19  1  0
 19 20  2  0
 20 21  1  0
 21 22  1  0
 22 23  2  0
 23 24  1  0
 24 25  2  0
 25 26  1  0
 26 27  2  0
 20 10  1  0
 27 22  1  0
 16 11  1  0
 27 19  1  0
  1 28  1  0
  1 29  1  0
  1 30  1  0
  2 31  1  0
  2 32  1  0
  4 33  1  0
  4 34  1  0
  5 35  1  0
  5 36  1  0
  7 37  1  0
  7 38  1  0
  8 39  1  0
  8 40  1  0
  9 41  1  0
 12 42  1  0
 13 43  1  0
 14 44  1  0
 15 45  1  0
 18 46  1  0
 18 47  1  0
 18 48  1  0
 21 49  1  0
 23 50  1  0
 24 51  1  0
 25 52  1  0
 26 53  1  0
M  CHG  1  17   1
M  END
>  <smiles>  (1) 
CCOCCOCCNc1c2ccccc2[n+](C)c2c1[nH]c1ccccc12

>  <score_type>  (1) 
oracle

>  <origin>  (1) 
adg

>  <m_score__min__energy>  (1) 
-5.7000000000000002

>  <m_primary>  (1) 
energy

$$$$
1:0
     RDKit          3D

 69 71  0  0  0  0  0  0  0  0999 V2000
   63.7080   33.0890   46.7790 C   0  0  0  0  0  0  0  0  0  0  0  0
   62.8100   32.6880   47.9490 C   0  0  0  0  0  0  0  0  0  0  0  0
   63.1390   33.3380   49.1590 N   0  0  0  0  0  0  0  0  0  0  0  0
   62.3450   34.4100   49.5810 C   0  0  0  0  0  0  0  0  0  0  0  0
   61.1320   34.4870   48.6390 C   0  0  0  0  0  0  0  0  0  0  0  0
   64.3470   33.0340   49.7890 C   0  0  0  0  0  0  0  0  0  0  0  0
   64.3420   31.6290   50.3930 C   0  0  0  0  0  0  0  0  0  0  0  0
   63.6920   31.6560   51.5990 O   0  0  0  0  0  0  0  0  0  0  0  0
   63.1680   30.4620   52.0460 C   0  0  0  0  0  0  0  0  0  0  0  0
   62.4540   29.7790   50.8930 C   0  0  0  0  0  0  0  0  0  0  0  0
   61.4680   30.5420   50.3520 O   0  0  0  0  0  0  0  0  0  0  0  0
   61.1530   31.7000   50.8110 N   0  0  0  0  0  0  0  0  0  0  0  0
   59.8550   32.2250   50.8070 C   0  0  0  0  0  0  0  0  0  0  0  0
   59.0540   32.1560   49.5570 C   0  0  0  0  0  0  0  0  0  0  0  0
   59.7300   31.5730   48.4170 N   0  0  0  0  0  0  0  0  0  0  0  0
   59.1310   31.3710   47.1540 C   0  0  0  0  0  0  0  0  0  0  0  0
   58.6710   32.3670   46.3270 C   0  0  0  0  0  0  0  0  0  0  0  0
   58.0950   32.0500   45.0890 C   0  0  0  0  0  0  0  0  0  0  0  0
   57.9750   30.7700   44.6740 N   0  0  0  0  0  0  0  0  0  0  0  0
   57.3780   30.5310   43.3990 C   0  0  0  0  0  0  0  0  0  0  0  0
   55.9350   30.0750   43.5940 C   0  0  0  0  0  0  0  0  0  0  0  0
   58.4290   29.8090   45.4950 C   0  0  0  0  0  0  0  0  0  0  0  0
   58.3320   28.4870   45.1130 C   0  0  0  0  0  0  0  0  0  0  0  0
   58.7850   27.4480   45.9140 C   0  0  0  0  0  0  0  0  0  0  0  0
   59.3620   27.7190   47.1500 C   0  0  0  0  0  0  0  0  0  0  0  0
   59.4580   29.0210   47.5250 C   0  0  0  0  0  0  0  0  0  0  0  0
   59.0040   30.0600   46.7230 C   0  0  0  0  0  0  0  0  0  0  0  0
   57.6980   33.3450   44.4280 C   0  0  0  0  0  0  0  0  0  0  0  0
   57.4010   34.1770   45.6830 C   0  0  0  0  0  0  0  0  0  0  0  0
   58.6520   33.8440   46.4920 C   0  0  0  0  0  0  0  0  0  0  0  0
   64.6483   33.5089   47.1656 H   0  0  0  0  0  0  0  0  0  0  0  0
   63.9272   32.2033   46.1647 H   0  0  0  0  0  0  0  0  0  0  0  0
   63.1948   33.8434   46.1647 H   0  0  0  0  0  0  0  0  0  0  0  0
   61.7700   32.9371   47.6913 H   0  0  0  0  0  0  0  0  0  0  0  0
   62.9520   31.6094   48.1116 H   0  0  0  0  0  0  0  0  0  0  0  0
   62.0076   34.2432   50.6146 H   0  0  0  0  0  0  0  0  0  0  0  0
   62.9167   35.3494   49.5534 H   0  0  0  0  0  0  0  0  0  0  0  0
   60.2087   34.5456   49.2341 H   0  0  0  0  0  0  0  0  0  0  0  0
   61.2167   35.3816   48.0045 H   0  0  0  0  0  0  0  0  0  0  0  0
   61.1029   33.5889   48.0045 H   0  0  0  0  0  0  0  0  0  0  0  0
   65.1591   33.0997   49.0499 H   0  0  0  0  0  0  0  0  0  0  0  0
   64.4935   33.7544   50.6072 H   0  0  0  0  0  0  0  0  0  0  0  0
   63.8237   30.9382   49.7118 H   0  0  0  0  0  0  0  0  0  0  0  0
   65.3774   31.2880   50.5404 H   0  0  0  0  0  0  0  0  0  0  0  0
   63.9795   29.8164   52.4128 H   0  0  0  0  0  0  0  0  0  0  0  0
   62.4595   30.6485   52.8665 H   0  0  0  0  0  0  0  0  0  0  0  0
   63.1916   29.5521   50.1091 H   0  0  0  0  0  0  0  0  0  0  0  0
   61.9838   28.8676   51.2909 H   0  0  0  0  0  0  0  0  0  0  0  0
   61.9050   32.4410   50.7450 H   0  0  0  0  0  0  0  0  0  0  0  0
   59.2883   31.6896   51.5830 H   0  0  0  0  0  0  0  0  0  0  0  0
   60.0059   33.3031   50.9646 H   0  0  0  0  0  0  0  0  0  0  0  0
   58.1557   31.5553   49.7624 H   0  0  0  0  0  0  0  0  0  0  0  0
   58.8356   33.1977   49.2794 H   0  0  0  0  0  0  0  0  0  0  0  0
   60.7330   31.2710   48.5070 H   0  0  0  0  0  0  0  0  0  0  0  0
   57.3934   31.4578   42.8068 H   0  0  0  0  0  0  0  0  0  0  0  0
   57.9424   29.7496   42.8691 H   0  0  0  0  0  0  0  0  0  0  0  0
   55.7146   30.0054   44.6694 H   0  0  0  0  0  0  0  0  0  0  0  0
   55.2544   30.8019   43.1266 H   0  0  0  0  0  0  0  0  0  0  0  0
   55.7957   29.0891   43.1266 H   0  0  0  0  0  0  0  0  0  0  0  0
   57.8797   28.2479   44.1392 H   0  0  0  0  0  0  0  0  0  0  0  0
   58.6874   26.4076   45.5704 H   0  0  0  0  0  0  0  0  0  0  0  0
   59.7268   26.9096   47.7994 H   0  0  0  0  0  0  0  0  0  0  0  0
   59.9113   29.2609   48.4981 H   0  0  0  0  0  0  0  0  0  0  0  0
   58.5191   33.7733   43.8345 H   0  0  0  0  0  0  0  0  0  0  0  0
   56.8732   33.2720   43.7039 H   0  0  0  0  0  0  0  0  0  0  0  0
   57.3291   35.2514   45.4581 H   0  0  0  0  0  0  0  0  0  0  0  0
   56.4443   33.9585   46.1799 H   0  0  0  0  0  0  0  0  0  0  0  0
   59.5512   34.3150   46.0682 H   0  0  0  0  0  0  0  0  0  0  0  0
   58.6411   34.1967   47.5339 H   0  0  0  0  0  0  0  0  0  0  0  0
  1  2  1  0
  2  3  1  0
  3  4  1  0
  4  5  1  0
  3  6  1  0
  6  7  1  0
  7  8  1  0
  8  9  1  0
  9 10  1  0
 10 11  1  0
 11 12  1  0
 12 13  1  0
 13 14  1  0
 14 15  1  0
 15 16  1  0
 16 17  2  0
 17 18  1  0
 18 19  2  0
 19 20  1  0
 20 21  1  0
 19 22  1  0
 22 23  2  0
 23 24  1  0
 24 25  2  0
 25 26  1  0
 26 27  2  0
 18 28  1  0
 28 29  1  0
 29 30  1  0
 27 16  1  0
 30 17  1  0
 27 22  1  0
  1 31  1  0
  1 32  1  0
  1 33  1  0
  2 34  1  0
  2 35  1  0
  4 36  1  0
  4 37  1  0
  5 38  1  0
  5 39  1  0
  5 40  1  0
  6 41  1  0
  6 42  1  0
  7 43  1  0
  7 44  1  0
  9 45  1  0
  9 46  1  0
 10 47  1  0
 10 48  1  0
 12 49  1  0
 13 50  1  0
 13 51  1  0
 14 52  1  0
 14 53  1  0
 15 54  1  0
 20 55  1  0
 20 56  1  0
 21 57  1  0
 21 58  1  0
 21 59  1  0
 23 60  1  0
 24 61  1  0
 25 62  1  0
 26 63  1  0
 28 64  1  0
 28 65  1  0
 29 66  1  0
 29 67  1  0
 30 68  1  0
 30 69  1  0
M  CHG  1  19   1
M  END
>  <smiles>  (2) 
CCN(CC)CCOCCONCCNc1c2c([n+](CC)c3ccccc13)CCC2

>  <score_type>  (2) 
oracle

>  <origin>  (2) 
adg

>  <m_score__min__energy>  (2) 
-6.2400000000000002

>  <m_primary>  (2) 
energy

$$$$
3:0
     RDKit          3D

 28 29  0  0  0  0  0  0  0  0999 V2000
   62.4130   34.0970   49.7280 C   0  0  0  0  0  0  0  0  0  0  0  0
   61.3380   34.1180   48.6960 C   0  0  0  0  0  0  0  0  0  0  0  0
   60.0400   34.4430   49.0000 C   0  0  0  0  0  0  0  0  0  0  0  0
   59.0600   34.4970   48.0830 N   0  0  0  0  0  0  0  0  0  0  0  0
   59.3710   34.2170   46.7960 C   0  0  0  0  0  0  0  0  0  0  0  0
   58.2730   34.3480   45.8730 N   0  0  0  0  0  0  0  0  0  0  0  0
   57.2240   33.3280   46.0640 C   0  0  0  0  0  0  0  0  0  0  0  0
   57.1200   32.4080   44.9230 C   0  0  0  0  0  0  0  0  0  0  0  0
   57.8170   32.7770   43.7560 C   0  0  0  0  0  0  0  0  0  0  0  0
   57.7370   31.9580   42.6590 C   0  0  0  0  0  0  0  0  0  0  0  0
   57.0050   30.7840   42.6380 C   0  0  0  0  0  0  0  0  0  0  0  0
   56.3360   30.4620   43.8130 C   0  0  0  0  0  0  0  0  0  0  0  0
   56.4380   31.2870   44.8640 N   0  0  0  0  0  0  0  0  0  0  0  0
   60.6410   33.8760   46.3870 C   0  0  0  0  0  0  0  0  0  0  0  0
   61.6190   33.8350   47.3720 C   0  0  0  0  0  0  0  0  0  0  0  0
   63.4000   33.3730   46.8920 Br  0  0  0  0  0  0  0  0  0  0  0  0
   61.9595   34.1059   50.7301 H   0  0  0  0  0  0  0  0  0  0  0  0
   63.0189   33.1868   49.6078 H   0  0  0  0  0  0  0  0  0  0  0  0
   63.0540   34.9828   49.6078 H   0  0  0  0  0  0  0  0  0  0  0  0
   59.7896   34.6706   50.0467 H   0  0  0  0  0  0  0  0  0  0  0  0
   58.2020   35.0750   45.1540 H   0  0  0  0  0  0  0  0  0  0  0  0
   57.4587   32.7452   46.9669 H   0  0  0  0  0  0  0  0  0  0  0  0
   56.2616   33.8519   46.1600 H   0  0  0  0  0  0  0  0  0  0  0  0
   58.4122   33.7015   43.7252 H   0  0  0  0  0  0  0  0  0  0  0  0
   58.2826   32.2492   41.7493 H   0  0  0  0  0  0  0  0  0  0  0  0
   56.9555   30.1438   41.7448 H   0  0  0  0  0  0  0  0  0  0  0  0
   55.7325   29.5447   43.8791 H   0  0  0  0  0  0  0  0  0  0  0  0
   60.8688   33.6481   45.3353 H   0  0  0  0  0  0  0  0  0  0  0  0
  1  2  1  0
  2  3  2  0
  3  4  1  0
  4  5  2  0
  5  6  1  0
  6  7  1  0
  7  8  1  0
  8  9  2  0
  9 10  1  0
 10 11  2  0
 11 12  1  0
 12 13  2  0
  5 14  1  0
 14 15  2  0
 15 16  1  0
 15  2  1  0
 13  8  1  0
  1 17  1  0
  1 18  1  0
  1 19  1  0
  3 20  1  0
  6 21  1  0
  7 22  1  0
  7 23  1  0
  9 24  1  0
 10 25  1  0
 11 26  1  0
 12 27  1  0
 14 28  1  0
M  END
>  <smiles>  (3) 
Cc1cnc(NCc2ccccn2)cc1Br

>  <score_type>  (3) 
oracle

>  <origin>  (3) 
adg

>  <m_score__min__energy>  (3) 
-7.1500000000000004

>  <m_primary>  (3) 
energy

$$$$
4:0
     RDKit          3D

 65 68  0  0  1  0  0  0  0  0999 V2000
   57.0790   32.4290   40.5840 C   0  0  0  0  0  0  0  0  0  0  0  0
   57.3930   32.1930   42.0340 C   0  0  0  0  0  0  0  0  0  0  0  0
   56.6420   31.2220   42.6550 O   0  0  0  0  0  0  0  0  0  0  0  0
   57.5030   30.3680   43.3700 C   0  0  1  0  0  0  0  0  0  0  0  0
   58.5600   31.1990   44.0940 C   0  0  0  0  0  0  0  0  0  0  0  0
   57.8590   31.5010   45.3770 C   0  0  0  0  0  0  0  0  0  0  0  0
   57.1600   32.8280   45.3440 C   0  0  0  0  0  0  0  0  0  0  0  0
   58.1340   33.9750   45.2010 C   0  0  0  0  0  0  0  0  0  0  0  0
   59.2770   33.9310   46.0110 N   0  0  0  0  0  0  0  0  0  0  0  0
   59.2830   34.7750   47.1330 C   0  0  0  0  0  0  0  0  0  0  0  0
   60.2100   34.2900   48.1740 C   0  0  0  0  0  0  0  0  0  0  0  0
   61.5690   34.2170   48.0640 C   0  0  0  0  0  0  0  0  0  0  0  0
   62.3870   33.7450   49.0820 C   0  0  0  0  0  0  0  0  0  0  0  0
   61.7880   33.3280   50.2760 C   0  0  0  0  0  0  0  0  0  0  0  0
   60.4270   33.3960   50.4020 C   0  0  0  0  0  0  0  0  0  0  0  0
   59.6360   33.8700   49.3700 C   0  0  0  0  0  0  0  0  0  0  0  0
   59.8770   32.6370   46.2130 C   0  0  0  0  0  0  0  0  0  0  0  0
   58.8630   31.5720   46.5420 C   0  0  0  0  0  0  0  0  0  0  0  0
   57.0250   30.4700   45.6550 O   0  0  0  0  0  0  0  0  0  0  0  0
   56.8040   29.7020   44.4830 C   0  0  2  0  0  0  0  0  0  0  0  0
   56.9640   28.2680   44.7820 C   0  0  0  0  0  0  0  0  0  0  0  0
   58.1570   27.7360   45.3560 N   0  0  0  0  0  0  0  0  0  0  0  0
   57.9490   27.5320   46.7940 C   0  0  0  0  0  0  0  0  0  0  0  0
   58.5420   28.6080   47.6350 C   0  0  0  0  0  0  0  0  0  0  0  0
   59.9810   28.4080   47.5110 N   0  0  0  0  0  0  0  0  0  0  0  0
   60.3730   27.1050   48.0210 C   0  0  0  0  0  0  0  0  0  0  0  0
   60.4110   28.5390   46.1430 C   0  0  0  0  0  0  0  0  0  0  0  0
   59.3720   28.4300   45.0890 C   0  0  0  0  0  0  0  0  0  0  0  0
   56.2022   33.0880   40.5013 H   0  0  0  0  0  0  0  0  0  0  0  0
   57.9421   32.9039   40.0945 H   0  0  0  0  0  0  0  0  0  0  0  0
   56.8628   31.4679   40.0945 H   0  0  0  0  0  0  0  0  0  0  0  0
   58.4510   31.9012   42.1079 H   0  0  0  0  0  0  0  0  0  0  0  0
   57.1537   33.1343   42.5505 H   0  0  0  0  0  0  0  0  0  0  0  0
   57.9045   29.6556   42.6343 H   0  0  0  0  0  0  0  0  0  0  0  0
   59.4808   30.6216   44.2635 H   0  0  0  0  0  0  0  0  0  0  0  0
   58.8933   32.0890   43.5401 H   0  0  0  0  0  0  0  0  0  0  0  0
   56.4654   32.8429   44.4912 H   0  0  0  0  0  0  0  0  0  0  0  0
   56.6226   32.9539   46.2955 H   0  0  0  0  0  0  0  0  0  0  0  0
   58.4680   34.0008   44.1532 H   0  0  0  0  0  0  0  0  0  0  0  0
   57.5810   34.8682   45.5272 H   0  0  0  0  0  0  0  0  0  0  0  0
   59.5938   35.7826   46.8198 H   0  0  0  0  0  0  0  0  0  0  0  0
   58.2680   34.7904   47.5568 H   0  0  0  0  0  0  0  0  0  0  0  0
   62.0377   34.5475   47.1253 H   0  0  0  0  0  0  0  0  0  0  0  0
   63.4785   33.7000   48.9531 H   0  0  0  0  0  0  0  0  0  0  0  0
   62.4046   32.9495   51.1046 H   0  0  0  0  0  0  0  0  0  0  0  0
   59.9537   33.0684   51.3394 H   0  0  0  0  0  0  0  0  0  0  0  0
   58.5442   33.9151   49.4963 H   0  0  0  0  0  0  0  0  0  0  0  0
   60.4065   32.3470   45.2935 H   0  0  0  0  0  0  0  0  0  0  0  0
   60.5635   32.7185   47.0686 H   0  0  0  0  0  0  0  0  0  0  0  0
   59.3659   30.6011   46.6621 H   0  0  0  0  0  0  0  0  0  0  0  0
   58.3443   31.8129   47.4816 H   0  0  0  0  0  0  0  0  0  0  0  0
   55.7729   29.6737   44.1010 H   0  0  0  0  0  0  0  0  0  0  0  0
   56.1489   28.0065   45.4728 H   0  0  0  0  0  0  0  0  0  0  0  0
   56.9804   27.8265   43.7746 H   0  0  0  0  0  0  0  0  0  0  0  0
   56.8669   27.4941   46.9880 H   0  0  0  0  0  0  0  0  0  0  0  0
   58.4528   26.5925   47.0653 H   0  0  0  0  0  0  0  0  0  0  0  0
   58.2525   29.6006   47.2596 H   0  0  0  0  0  0  0  0  0  0  0  0
   58.1992   28.5632   48.6793 H   0  0  0  0  0  0  0  0  0  0  0  0
   60.3671   27.1248   49.1208 H   0  0  0  0  0  0  0  0  0  0  0  0
   59.6643   26.3432   47.6641 H   0  0  0  0  0  0  0  0  0  0  0  0
   61.3844   26.8607   47.6641 H   0  0  0  0  0  0  0  0  0  0  0  0
   60.8849   29.5262   46.0388 H   0  0  0  0  0  0  0  0  0  0  0  0
   61.0766   27.6799   45.9730 H   0  0  0  0  0  0  0  0  0  0  0  0
   59.0959   29.4570   44.8077 H   0  0  0  0  0  0  0  0  0  0  0  0
   59.8551   27.8081   44.3210 H   0  0  0  0  0  0  0  0  0  0  0  0
  1  2  1  0
  2  3  1  0
  3  4  1  0
  4  5  1  0
  5  6  1  0
  6  7  1  0
  7  8  1  0
  8  9  1  0
  9 10  1  0
 10 11  1  0
 11 12  2  0
 12 13  1  0
 13 14  2  0
 14 15  1  0
 15 16  2  0
  9 17  1  0
 17 18  1  0
  6 19  1  0
 19 20  1  0
 20 21  1  0
 21 22  1  0
 22 23  1  0
 23 24  1  0
 24 25  1  0
 25 26  1  0
 25 27  1  0
 27 28  1  0
 20  4  1  0
 28 22  1  0
 18  6  1  0
 16 11  1  0
  1 29  1  0
  1 30  1  0
  1 31  1  0
  2 32  1  0
  2 33  1  0
  4 34  1  6
  5 35  1  0
  5 36  1  0
  7 37  1  0
  7 38  1  0
  8 39  1  0
  8 40  1  0
 10 41  1  0
 10 42  1  0
 12 43  1  0
 13 44  1  0
 14 45  1  0
 15 46  1  0
 16 47  1  0
 17 48  1  0
 17 49  1  0
 18 50  1  0
 18 51  1  0
 20 52  1  6
 21 53  1  0
 21 54  1  0
 23 55  1  0
 23 56  1  0
 24 57  1  0
 24 58  1  0
 26 59  1  0
 26 60  1  0
 26 61  1  0
 27 62  1  0
 27 63  1  0
 28 64  1  0
 28 65  1  0
M  END
>  <smiles>  (4) 
CCOC1CC2(CCN(Cc3ccccc3)CC2)OC1CN1CCN(C)CC1

>  <score_type>  (4) 
oracle

>  <origin>  (4) 
adg

>  <m_score__min__energy>  (4) 
-8.9800000000000004

>  <m_primary>  (4) 
energy

$$$$
5:0
     RDKit          3D

 82 85  0  0  0  0  0  0  0  0999 V2000
   61.6910   29.4470   51.5720 C   0  0  0  0  0  0  0  0  0  0  0  0
   60.4590   30.2740   51.8180 C   0  0  0  0  0  0  0  0  0  0  0  0
   59.5490   30.2800   50.6500 N   0  0  0  0  0  0  0  0  0  0  0  0
   58.2270   30.1420   51.1200 C   0  0  0  0  0  0  0  0  0  0  0  0
   57.4730   31.3920   51.4380 C   0  0  0  0  0  0  0  0  0  0  0  0
   60.0880   29.3070   49.7740 C   0  0  0  0  0  0  0  0  0  0  0  0
   59.8840   29.4570   48.3160 C   0  0  0  0  0  0  0  0  0  0  0  0
   58.7950   30.4620   48.1670 N   0  0  0  0  0  0  0  0  0  0  0  0
   58.7020   31.1230   46.9310 C   0  0  0  0  0  0  0  0  0  0  0  0
   58.1660   30.3560   45.8890 C   0  0  0  0  0  0  0  0  0  0  0  0
   57.8170   29.0270   46.1330 C   0  0  0  0  0  0  0  0  0  0  0  0
   57.2860   28.1980   45.1740 C   0  0  0  0  0  0  0  0  0  0  0  0
   57.0900   28.7030   43.9130 C   0  0  0  0  0  0  0  0  0  0  0  0
   57.4360   30.0290   43.6610 C   0  0  0  0  0  0  0  0  0  0  0  0
   57.9670   30.8520   44.6260 C   0  0  0  0  0  0  0  0  0  0  0  0
   58.2950   32.1210   44.3680 N   0  0  0  0  0  0  0  0  0  0  0  0
   58.1270   32.7160   43.0800 C   0  0  0  0  0  0  0  0  0  0  0  0
   58.8200   32.9010   45.3500 C   0  0  0  0  0  0  0  0  0  0  0  0
   59.1380   34.2030   45.0270 C   0  0  0  0  0  0  0  0  0  0  0  0
   59.6700   35.0230   45.9950 C   0  0  0  0  0  0  0  0  0  0  0  0
   60.0210   36.4410   45.6660 C   0  0  0  0  0  0  0  0  0  0  0  0
   59.8660   34.5090   47.2540 C   0  0  0  0  0  0  0  0  0  0  0  0
   59.5630   33.2060   47.6230 C   0  0  0  0  0  0  0  0  0  0  0  0
   59.8830   32.8020   48.9290 N   0  0  0  0  0  0  0  0  0  0  0  0
   59.9860   33.8720   49.9540 C   0  0  0  0  0  0  0  0  0  0  0  0
   61.3150   33.8510   50.6500 C   0  0  0  0  0  0  0  0  0  0  0  0
   62.0440   32.5830   50.2710 C   0  0  0  0  0  0  0  0  0  0  0  0
   63.2920   32.8080   49.6110 N   0  0  0  0  0  0  0  0  0  0  0  0
   64.3980   32.8590   50.5370 C   0  0  0  0  0  0  0  0  0  0  0  0
   63.2690   34.0640   48.8780 C   0  0  0  0  0  0  0  0  0  0  0  0
   63.7590   33.8720   47.4490 C   0  0  0  0  0  0  0  0  0  0  0  0
   62.7580   32.9830   46.7510 C   0  0  0  0  0  0  0  0  0  0  0  0
   62.6170   31.6860   47.5170 C   0  0  0  0  0  0  0  0  0  0  0  0
   63.5280   31.6840   48.7250 C   0  0  0  0  0  0  0  0  0  0  0  0
   59.0280   32.4050   46.6420 C   0  0  0  0  0  0  0  0  0  0  0  0
   62.1322   29.1509   52.5352 H   0  0  0  0  0  0  0  0  0  0  0  0
   61.4204   28.5469   51.0005 H   0  0  0  0  0  0  0  0  0  0  0  0
   62.4215   30.0384   51.0005 H   0  0  0  0  0  0  0  0  0  0  0  0
   59.9215   29.8605   52.6841 H   0  0  0  0  0  0  0  0  0  0  0  0
   60.7784   31.3101   52.0035 H   0  0  0  0  0  0  0  0  0  0  0  0
   57.6582   29.6014   50.3491 H   0  0  0  0  0  0  0  0  0  0  0  0
   58.3257   29.6218   52.0842 H   0  0  0  0  0  0  0  0  0  0  0  0
   57.4020   31.5098   52.5294 H   0  0  0  0  0  0  0  0  0  0  0  0
   58.0000   32.2572   51.0094 H   0  0  0  0  0  0  0  0  0  0  0  0
   56.4619   31.3294   51.0094 H   0  0  0  0  0  0  0  0  0  0  0  0
   61.1742   29.2859   49.9462 H   0  0  0  0  0  0  0  0  0  0  0  0
   59.5305   28.3922   50.0237 H   0  0  0  0  0  0  0  0  0  0  0  0
   60.8057   29.8148   47.8338 H   0  0  0  0  0  0  0  0  0  0  0  0
   59.6236   28.5000   47.8402 H   0  0  0  0  0  0  0  0  0  0  0  0
   58.1530   30.6960   48.9380 H   0  0  0  0  0  0  0  0  0  0  0  0
   57.9749   28.6226   47.1437 H   0  0  0  0  0  0  0  0  0  0  0  0
   57.0247   27.1561   45.4111 H   0  0  0  0  0  0  0  0  0  0  0  0
   56.6678   28.0729   43.1163 H   0  0  0  0  0  0  0  0  0  0  0  0
   57.2781   30.4333   42.6503 H   0  0  0  0  0  0  0  0  0  0  0  0
   57.8298   33.7685   43.1982 H   0  0  0  0  0  0  0  0  0  0  0  0
   59.0753   32.6629   42.5250 H   0  0  0  0  0  0  0  0  0  0  0  0
   57.3466   32.1748   42.5250 H   0  0  0  0  0  0  0  0  0  0  0  0
   58.9685   34.5814   44.0081 H   0  0  0  0  0  0  0  0  0  0  0  0
   60.1617   37.0094   46.5972 H   0  0  0  0  0  0  0  0  0  0  0  0
   60.9514   36.4618   45.0796 H   0  0  0  0  0  0  0  0  0  0  0  0
   59.2077   36.8934   45.0796 H   0  0  0  0  0  0  0  0  0  0  0  0
   60.2911   35.1742   48.0200 H   0  0  0  0  0  0  0  0  0  0  0  0
   60.0890   31.8940   49.3200 H   0  0  0  0  0  0  0  0  0  0  0  0
   59.8562   34.8482   49.4639 H   0  0  0  0  0  0  0  0  0  0  0  0
   59.2029   33.7004   50.7072 H   0  0  0  0  0  0  0  0  0  0  0  0
   61.9078   34.7246   50.3410 H   0  0  0  0  0  0  0  0  0  0  0  0
   61.1666   33.8850   51.7394 H   0  0  0  0  0  0  0  0  0  0  0  0
   62.2360   32.0065   51.1880 H   0  0  0  0  0  0  0  0  0  0  0  0
   61.3996   32.0441   49.5608 H   0  0  0  0  0  0  0  0  0  0  0  0
   64.0143   32.8413   51.5678 H   0  0  0  0  0  0  0  0  0  0  0  0
   65.0527   31.9901   50.3745 H   0  0  0  0  0  0  0  0  0  0  0  0
   64.9699   33.7845   50.3745 H   0  0  0  0  0  0  0  0  0  0  0  0
   62.2387   34.4488   48.8562 H   0  0  0  0  0  0  0  0  0  0  0  0
   63.9365   34.7770   49.3841 H   0  0  0  0  0  0  0  0  0  0  0  0
   63.8210   34.8440   46.9378 H   0  0  0  0  0  0  0  0  0  0  0  0
   64.7608   33.4178   47.4368 H   0  0  0  0  0  0  0  0  0  0  0  0
   61.7834   33.4913   46.7076 H   0  0  0  0  0  0  0  0  0  0  0  0
   63.1056   32.7701   45.7293 H   0  0  0  0  0  0  0  0  0  0  0  0
   61.5745   31.5730   47.8493 H   0  0  0  0  0  0  0  0  0  0  0  0
   62.8969   30.8508   46.8582 H   0  0  0  0  0  0  0  0  0  0  0  0
   63.3634   30.7530   49.2873 H   0  0  0  0  0  0  0  0  0  0  0  0
   64.5623   31.7633   48.3590 H   0  0  0  0  0  0  0  0  0  0  0  0
  1  2  1  0
  2  3  1  0
  3  4  1  0
  4  5  1  0
  3  6  1  0
  6  7  1  0
  7  8  1  0
  8  9  1  0
  9 10  2  0
 10 11  1  0
 11 12  2  0
 12 13  1  0
 13 14  2  0
 14 15  1  0
 15 16  2  0
 16 17  1  0
 16 18  1  0
 18 19  2  0
 19 20  1  0
 20 21  1  0
 20 22  2  0
 22 23  1  0
 23 24  1  0
 24 25  1  0
 25 26  1  0
 26 27  1  0
 27 28  1  0
 28 29  1  0
 28 30  1  0
 30 31  1  0
 31 32  1  0
 32 33  1  0
 33 34  1  0
 23 35  2  0
 35  9  1  0
 15 10  1  0
 35 18  1  0
 34 28  1  0
  1 36  1  0
  1 37  1  0
  1 38  1  0
  2 39  1  0
  2 40  1  0
  4 41  1  0
  4 42  1  0
  5 43  1  0
  5 44  1  0
  5 45  1  0
  6 46  1  0
  6 47  1  0
  7 48  1  0
  7 49  1  0
  8 50  1  0
 11 51  1  0
 12 52  1  0
 13 53  1  0
 14 54  1  0
 17 55  1  0
 17 56  1  0
 17 57  1  0
 19 58  1  0
 21 59  1  0
 21 60  1  0
 21 61  1  0
 22 62  1  0
 24 63  1  0
 25 64  1  0
 25 65  1  0
 26 66  1  0
 26 67  1  0
 27 68  1  0
 27 69  1  0
 29 70  1  0
 29 71  1  0
 29 72  1  0
 30 73  1  0
 30 74  1  0
 31 75  1  0
 31 76  1  0
 32 77  1  0
 32 78  1  0
 33 79  1  0
 33 80  1  0
 34 81  1  0
 34 82  1  0
M  CHG  2  16   1  28   1
M  END
>  <smiles>  (5) 
CCN(CC)CCNc1c2ccccc2[n+](C)c2cc(C)cc(NCCC[N+]3(C)CCCCC3)c12

>  <score_type>  (5) 
oracle

>  <origin>  (5) 
adg

>  <m_score__min__energy>  (5) 
-4.7300000000000004

>  <m_primary>  (5) 
energy

$$$$
6:0
     RDKit          3D

 34 36  0  0  0  0  0  0  0  0999 V2000
   57.4030   31.9620   41.6370 C   0  0  0  0  0  0  0  0  0  0  0  0
   57.5410   31.9720   43.0820 N   0  0  0  0  0  0  0  0  0  0  0  0
   58.1750   32.9310   43.7750 C   0  0  0  0  0  0  0  0  0  0  0  0
   58.0780   32.5630   45.1020 C   0  0  0  0  0  0  0  0  0  0  0  0
   58.5950   33.2580   46.2450 C   0  0  0  0  0  0  0  0  0  0  0  0
   59.1830   34.5300   46.3310 C   0  0  0  0  0  0  0  0  0  0  0  0
   59.5870   34.9590   47.5130 C   0  0  0  0  0  0  0  0  0  0  0  0
   59.4320   34.1710   48.6300 C   0  0  0  0  0  0  0  0  0  0  0  0
   58.6080   32.6090   47.9510 S   0  0  0  0  0  0  0  0  0  0  0  0
   57.3960   31.4050   45.1640 N   0  0  0  0  0  0  0  0  0  0  0  0
   57.0580   31.0310   43.9040 C   0  0  0  0  0  0  0  0  0  0  0  0
   56.3050   29.8310   43.4610 C   0  0  0  0  0  0  0  0  0  0  0  0
   57.0260   28.6100   43.6500 N   0  0  0  0  0  0  0  0  0  0  0  0
   57.9470   28.4510   44.7210 C   0  0  0  0  0  0  0  0  0  0  0  0
   59.2970   28.6540   44.5320 C   0  0  0  0  0  0  0  0  0  0  0  0
   60.2240   28.5050   45.5590 C   0  0  0  0  0  0  0  0  0  0  0  0
   59.7900   28.1410   46.8230 C   0  0  0  0  0  0  0  0  0  0  0  0
   60.6680   27.9840   47.8590 F   0  0  0  0  0  0  0  0  0  0  0  0
   58.4280   27.9410   46.9930 C   0  0  0  0  0  0  0  0  0  0  0  0
   57.5120   28.0870   45.9790 C   0  0  0  0  0  0  0  0  0  0  0  0
   56.3385   31.8849   41.3709 H   0  0  0  0  0  0  0  0  0  0  0  0
   57.8181   32.8926   41.2226 H   0  0  0  0  0  0  0  0  0  0  0  0
   57.9479   31.1010   41.2226 H   0  0  0  0  0  0  0  0  0  0  0  0
   58.6698   33.8257   43.3692 H   0  0  0  0  0  0  0  0  0  0  0  0
   59.3045   35.1552   45.4342 H   0  0  0  0  0  0  0  0  0  0  0  0
   60.0503   35.9525   47.6049 H   0  0  0  0  0  0  0  0  0  0  0  0
   59.7183   34.3951   49.6682 H   0  0  0  0  0  0  0  0  0  0  0  0
   55.3677   29.7755   44.0341 H   0  0  0  0  0  0  0  0  0  0  0  0
   56.1243   29.9394   42.3814 H   0  0  0  0  0  0  0  0  0  0  0  0
   56.8730   27.8200   42.9900 H   0  0  0  0  0  0  0  0  0  0  0  0
   59.6546   28.9443   43.5331 H   0  0  0  0  0  0  0  0  0  0  0  0
   61.2939   28.6751   45.3684 H   0  0  0  0  0  0  0  0  0  0  0  0
   58.0628   27.6510   47.9893 H   0  0  0  0  0  0  0  0  0  0  0  0
   56.4421   27.9153   46.1684 H   0  0  0  0  0  0  0  0  0  0  0  0
  1  2  1  0
  2  3  1  0
  3  4  2  0
  4  5  1  0
  5  6  2  0
  6  7  1  0
  7  8  2  0
  8  9  1  0
  4 10  1  0
 10 11  2  0
 11 12  1  0
 12 13  1  0
 13 14  1  0
 14 15  2  0
 15 16  1  0
 16 17  2  0
 17 18  1  0
 17 19  1  0
 19 20  2  0
 11  2  1  0
 20 14  1  0
  9  5  1  0
  1 21  1  0
  1 22  1  0
  1 23  1  0
  3 24  1  0
  6 25  1  0
  7 26  1  0
  8 27  1  0
 12 28  1  0
 12 29  1  0
 13 30  1  0
 15 31  1  0
 16 32  1  0
 19 33  1  0
 20 34  1  0
M  END
>  <smiles>  (6) 
Cn1cc(-c2cccs2)nc1CNc1ccc(F)cc1

>  <score_type>  (6) 
oracle

>  <origin>  (6) 
adg

>  <m_score__min__energy>  (6) 
-7.6900000000000004

>  <m_primary>  (6) 
energy

$$$$
7:0
     RDKit          3D

 42 43  0  0  0  0  0  0  0  0999 V2000
   59.5880   35.2950   46.9230 C   0  0  0  0  0  0  0  0  0  0  0  0
   59.3130   34.8350   45.4990 C   0  0  0  0  0  0  0  0  0  0  0  0
   58.0010   34.2240   45.4830 N   0  0  0  0  0  0  0  0  0  0  0  0
   57.7000   33.5330   46.7130 C   0  0  0  0  0  0  0  0  0  0  0  0
   58.5100   32.2600   46.8580 C   0  0  0  0  0  0  0  0  0  0  0  0
   58.1190   31.4080   45.7000 C   0  0  0  0  0  0  0  0  0  0  0  0
   58.0190   30.0610   45.5870 C   0  0  0  0  0  0  0  0  0  0  0  0
   58.2840   29.1250   46.6060 C   0  0  0  0  0  0  0  0  0  0  0  0
   58.5340   28.3260   47.4830 N   0  0  0  0  0  0  0  0  0  0  0  0
   57.5900   29.8100   44.2560 C   0  0  0  0  0  0  0  0  0  0  0  0
   57.4140   28.4320   43.7940 C   0  0  0  0  0  0  0  0  0  0  0  0
   58.5800   27.5170   43.8530 C   0  0  0  0  0  0  0  0  0  0  0  0
   58.4880   26.5280   44.8250 O   0  0  0  0  0  0  0  0  0  0  0  0
   57.3860   25.7340   44.6520 C   0  0  0  0  0  0  0  0  0  0  0  0
   56.4190   25.8800   45.8140 C   0  0  0  0  0  0  0  0  0  0  0  0
   57.1430   26.0620   46.9600 F   0  0  0  0  0  0  0  0  0  0  0  0
   55.6270   24.7520   45.8670 F   0  0  0  0  0  0  0  0  0  0  0  0
   55.5750   26.9590   45.6410 F   0  0  0  0  0  0  0  0  0  0  0  0
   57.4570   31.0020   43.6580 N   0  0  0  0  0  0  0  0  0  0  0  0
   57.0110   31.2010   42.2890 C   0  0  0  0  0  0  0  0  0  0  0  0
   57.7810   31.9980   44.5330 C   0  0  0  0  0  0  0  0  0  0  0  0
   57.7890   33.4650   44.3060 C   0  0  0  0  0  0  0  0  0  0  0  0
   59.1562   34.5728   47.6315 H   0  0  0  0  0  0  0  0  0  0  0  0
   60.6742   35.3615   47.0835 H   0  0  0  0  0  0  0  0  0  0  0  0
   59.1324   36.2833   47.0835 H   0  0  0  0  0  0  0  0  0  0  0  0
   59.3340   35.6967   44.8156 H   0  0  0  0  0  0  0  0  0  0  0  0
   60.0782   34.1164   45.1702 H   0  0  0  0  0  0  0  0  0  0  0  0
   57.9275   34.1978   47.5594 H   0  0  0  0  0  0  0  0  0  0  0  0
   56.6346   33.2598   46.6990 H   0  0  0  0  0  0  0  0  0  0  0  0
   59.5866   32.4831   46.8254 H   0  0  0  0  0  0  0  0  0  0  0  0
   58.3164   31.7592   47.8181 H   0  0  0  0  0  0  0  0  0  0  0  0
   56.6164   27.9831   44.4042 H   0  0  0  0  0  0  0  0  0  0  0  0
   57.2001   28.5308   42.7195 H   0  0  0  0  0  0  0  0  0  0  0  0
   58.6824   27.0274   42.8733 H   0  0  0  0  0  0  0  0  0  0  0  0
   59.4501   28.1358   44.1177 H   0  0  0  0  0  0  0  0  0  0  0  0
   56.8762   26.0248   43.7217 H   0  0  0  0  0  0  0  0  0  0  0  0
   57.7152   24.6857   44.6011 H   0  0  0  0  0  0  0  0  0  0  0  0
   56.0065   31.6492   42.2921 H   0  0  0  0  0  0  0  0  0  0  0  0
   57.7105   31.8724   41.7694 H   0  0  0  0  0  0  0  0  0  0  0  0
   56.9785   30.2320   41.7694 H   0  0  0  0  0  0  0  0  0  0  0  0
   58.5915   33.7011   43.5917 H   0  0  0  0  0  0  0  0  0  0  0  0
   56.7933   33.7359   43.9249 H   0  0  0  0  0  0  0  0  0  0  0  0
  1  2  1  0
  2  3  1  0
  3  4  1  0
  4  5  1  0
  5  6  1  0
  6  7  1  0
  7  8  1  0
  8  9  3  0
  7 10  2  0
 10 11  1  0
 11 12  1  0
 12 13  1  0
 13 14  1  0
 14 15  1  0
 15 16  1  0
 15 17  1  0
 15 18  1  0
 10 19  1  0
 19 20  1  0
 19 21  1  0
 21 22  1  0
 22  3  1  0
 21  6  2  0
  1 23  1  0
  1 24  1  0
  1 25  1  0
  2 26  1  0
  2 27  1  0
  4 28  1  0
  4 29  1  0
  5 30  1  0
  5 31  1  0
 11 32  1  0
 11 33  1  0
 12 34  1  0
 12 35  1  0
 14 36  1  0
 14 37  1  0
 20 38  1  0
 20 39  1  0
 20 40  1  0
 22 41  1  0
 22 42  1  0
M  END
>  <smiles>  (7) 
CCN1CCc2c(C#N)c(CCOCC(F)(F)F)n(C)c2C1

>  <score_type>  (7) 
oracle

>  <origin>  (7) 
adg

>  <m_score__min__energy>  (7) 
-6.2400000000000002

>  <m_primary>  (7) 
energy

$$$$
8:0
     RDKit          3D

 40 42  0  0  0  0  0  0  0  0999 V2000
   56.6210   29.8380   42.6220 C   0  0  0  0  0  0  0  0  0  0  0  0
   55.9990   29.7150   44.0270 C   0  0  0  0  0  0  0  0  0  0  0  0
   57.0070   29.5160   45.0260 N   0  0  0  0  0  0  0  0  0  0  0  0
   57.7700   30.6850   45.4080 C   0  0  0  0  0  0  0  0  0  0  0  0
   57.0340   31.8450   45.2010 C   0  0  0  0  0  0  0  0  0  0  0  0
   57.5770   33.0560   45.4980 C   0  0  0  0  0  0  0  0  0  0  0  0
   58.8600   33.1070   46.0020 C   0  0  0  0  0  0  0  0  0  0  0  0
   59.4760   34.3650   46.3290 N   0  0  0  0  0  0  0  0  0  0  0  0
   60.0080   34.6060   47.6610 C   0  0  0  0  0  0  0  0  0  0  0  0
   59.5460   35.3910   45.2770 C   0  0  0  0  0  0  0  0  0  0  0  0
   59.5810   31.9510   46.2030 C   0  0  0  0  0  0  0  0  0  0  0  0
   59.0510   30.6880   45.9080 C   0  0  0  0  0  0  0  0  0  0  0  0
   60.0590   29.6750   46.2240 C   0  0  0  0  0  0  0  0  0  0  0  0
   59.6280   28.3060   46.1580 N   0  0  0  0  0  0  0  0  0  0  0  0
   58.3510   27.6870   46.0820 C   0  0  0  0  0  0  0  0  0  0  0  0
   57.2030   28.2220   45.5940 C   0  0  0  0  0  0  0  0  0  0  0  0
   56.0090   27.5560   45.5730 N   0  0  0  0  0  0  0  0  0  0  0  0
   56.0030   26.3100   46.0640 C   0  0  0  0  0  0  0  0  0  0  0  0
   57.1490   25.7520   46.5590 N   0  0  0  0  0  0  0  0  0  0  0  0
   58.3250   26.4030   46.5830 C   0  0  0  0  0  0  0  0  0  0  0  0
   59.3890   25.9340   47.0240 O   0  0  0  0  0  0  0  0  0  0  0  0
   57.6963   30.0506   42.7144 H   0  0  0  0  0  0  0  0  0  0  0  0
   56.4795   28.8945   42.0745 H   0  0  0  0  0  0  0  0  0  0  0  0
   56.1311   30.6567   42.0745 H   0  0  0  0  0  0  0  0  0  0  0  0
   55.4447   30.6372   44.2557 H   0  0  0  0  0  0  0  0  0  0  0  0
   55.3258   28.8451   44.0342 H   0  0  0  0  0  0  0  0  0  0  0  0
   56.0127   31.7840   44.7971 H   0  0  0  0  0  0  0  0  0  0  0  0
   57.0021   33.9802   45.3388 H   0  0  0  0  0  0  0  0  0  0  0  0
   59.2769   34.2748   48.4133 H   0  0  0  0  0  0  0  0  0  0  0  0
   60.9453   34.0446   47.7886 H   0  0  0  0  0  0  0  0  0  0  0  0
   60.2041   35.6808   47.7886 H   0  0  0  0  0  0  0  0  0  0  0  0
   59.6139   36.3866   45.7398 H   0  0  0  0  0  0  0  0  0  0  0  0
   60.4343   35.2156   44.6523 H   0  0  0  0  0  0  0  0  0  0  0  0
   58.6421   35.3379   44.6523 H   0  0  0  0  0  0  0  0  0  0  0  0
   60.6019   32.0212   46.6066 H   0  0  0  0  0  0  0  0  0  0  0  0
   60.8918   29.7987   45.5161 H   0  0  0  0  0  0  0  0  0  0  0  0
   60.3282   29.8474   47.2765 H   0  0  0  0  0  0  0  0  0  0  0  0
   60.4330   27.6240   46.1710 H   0  0  0  0  0  0  0  0  0  0  0  0
   55.1470   28.0350   45.1890 H   0  0  0  0  0  0  0  0  0  0  0  0
   55.0681   25.7305   46.0691 H   0  0  0  0  0  0  0  0  0  0  0  0
  1  2  1  0
  2  3  1  0
  3  4  1  0
  4  5  2  0
  5  6  1  0
  6  7  2  0
  7  8  1  0
  8  9  1  0
  8 10  1  0
  7 11  1  0
 11 12  2  0
 12 13  1  0
 13 14  1  0
 14 15  1  0
 15 16  2  0
 16 17  1  0
 17 18  1  0
 18 19  2  0
 19 20  1  0
 20 21  2  0
 16  3  1  0
 12  4  1  0
 20 15  1  0
  1 22  1  0
  1 23  1  0
  1 24  1  0
  2 25  1  0
  2 26  1  0
  5 27  1  0
  6 28  1  0
  9 29  1  0
  9 30  1  0
  9 31  1  0
 10 32  1  0
 10 33  1  0
 10 34  1  0
 11 35  1  0
 13 36  1  0
 13 37  1  0
 14 38  1  0
 17 39  1  0
 18 40  1  0
M  END
>  <smiles>  (8) 
CCN1c2ccc(N(C)C)cc2CNc2c1[nH]cnc2=O

>  <score_type>  (8) 
oracle

>  <origin>  (8) 
adg

>  <m_score__min__energy>  (8) 
-6.6299999999999999

>  <m_primary>  (8) 
energy

$$$$
9:0
     RDKit          3D

 55 57  0  0  0  0  0  0  0  0999 V2000
   59.6250   29.1910   47.7290 C   0  0  0  0  0  0  0  0  0  0  0  0
   58.7160   28.3110   46.8950 C   0  0  0  0  0  0  0  0  0  0  0  0
   58.7790   28.6640   45.4820 N   0  0  0  0  0  0  0  0  0  0  0  0
   58.0600   29.8410   45.0640 C   0  0  0  0  0  0  0  0  0  0  0  0
   57.4490   30.4500   45.9550 O   0  0  0  0  0  0  0  0  0  0  0  0
   58.0980   30.2100   43.7290 N   0  0  0  0  0  0  0  0  0  0  0  0
   57.4760   31.3380   43.0890 C   0  0  0  0  0  0  0  0  0  0  0  0
   57.7670   32.6600   43.7090 C   0  0  0  0  0  0  0  0  0  0  0  0
   57.3100   32.9190   45.0050 N   0  0  0  0  0  0  0  0  0  0  0  0
   57.4930   34.2070   45.5590 C   0  0  0  0  0  0  0  0  0  0  0  0
   58.3810   34.2610   46.7660 C   0  0  0  0  0  0  0  0  0  0  0  0
   58.8490   32.9160   47.1410 N   0  0  0  0  0  0  0  0  0  0  0  0
   59.8410   32.8950   48.1730 C   0  0  0  0  0  0  0  0  0  0  0  0
   61.1680   33.1840   47.9400 C   0  0  0  0  0  0  0  0  0  0  0  0
   61.5060   33.5060   46.6370 C   0  0  0  0  0  0  0  0  0  0  0  0
   62.8030   33.8080   46.3170 C   0  0  0  0  0  0  0  0  0  0  0  0
   63.7670   33.7900   47.3040 C   0  0  0  0  0  0  0  0  0  0  0  0
   63.4000   33.4610   48.6070 C   0  0  0  0  0  0  0  0  0  0  0  0
   62.1130   33.1520   48.9650 C   0  0  0  0  0  0  0  0  0  0  0  0
   61.7610   32.8360   50.2400 N   0  0  0  0  0  0  0  0  0  0  0  0
   62.7930   32.8170   51.2220 C   0  0  0  0  0  0  0  0  0  0  0  0
   60.4660   32.5570   50.4570 C   0  0  0  0  0  0  0  0  0  0  0  0
   60.0610   32.2400   51.7300 C   0  0  0  0  0  0  0  0  0  0  0  0
   58.7220   31.9480   52.0100 C   0  0  0  0  0  0  0  0  0  0  0  0
   57.7740   31.9740   51.0110 C   0  0  0  0  0  0  0  0  0  0  0  0
   58.1850   32.2930   49.7380 C   0  0  0  0  0  0  0  0  0  0  0  0
   59.5000   32.5760   49.4750 C   0  0  0  0  0  0  0  0  0  0  0  0
   59.4349   29.0069   48.7967 H   0  0  0  0  0  0  0  0  0  0  0  0
   60.6747   28.9571   47.4979 H   0  0  0  0  0  0  0  0  0  0  0  0
   59.4253   30.2477   47.4979 H   0  0  0  0  0  0  0  0  0  0  0  0
   59.0252   27.2622   47.0154 H   0  0  0  0  0  0  0  0  0  0  0  0
   57.6822   28.4570   47.2412 H   0  0  0  0  0  0  0  0  0  0  0  0
   59.3280   28.0830   44.7920 H   0  0  0  0  0  0  0  0  0  0  0  0
   58.6630   29.5790   43.0700 H   0  0  0  0  0  0  0  0  0  0  0  0
   57.8203   31.3690   42.0447 H   0  0  0  0  0  0  0  0  0  0  0  0
   56.3913   31.1860   43.1904 H   0  0  0  0  0  0  0  0  0  0  0  0
   58.8609   32.7743   43.7247 H   0  0  0  0  0  0  0  0  0  0  0  0
   57.2058   33.3716   43.0856 H   0  0  0  0  0  0  0  0  0  0  0  0
   56.9660   32.2120   45.6200 H   0  0  0  0  0  0  0  0  0  0  0  0
   57.9324   34.8519   44.7838 H   0  0  0  0  0  0  0  0  0  0  0  0
   56.4997   34.5395   45.8949 H   0  0  0  0  0  0  0  0  0  0  0  0
   59.2518   34.8951   46.5432 H   0  0  0  0  0  0  0  0  0  0  0  0
   57.8044   34.6767   47.6054 H   0  0  0  0  0  0  0  0  0  0  0  0
   58.4850   32.0670   46.6900 H   0  0  0  0  0  0  0  0  0  0  0  0
   60.7310   33.5194   45.8565 H   0  0  0  0  0  0  0  0  0  0  0  0
   63.0739   34.0628   45.2818 H   0  0  0  0  0  0  0  0  0  0  0  0
   64.8129   34.0326   47.0648 H   0  0  0  0  0  0  0  0  0  0  0  0
   64.1783   33.4485   49.3842 H   0  0  0  0  0  0  0  0  0  0  0  0
   62.3439   32.8253   52.2261 H   0  0  0  0  0  0  0  0  0  0  0  0
   63.3994   31.9075   51.0991 H   0  0  0  0  0  0  0  0  0  0  0  0
   63.4325   33.7035   51.0991 H   0  0  0  0  0  0  0  0  0  0  0  0
   60.8016   32.2153   52.5430 H   0  0  0  0  0  0  0  0  0  0  0  0
   58.4231   31.6951   53.0380 H   0  0  0  0  0  0  0  0  0  0  0  0
   56.7193   31.7463   51.2251 H   0  0  0  0  0  0  0  0  0  0  0  0
   57.4493   32.3214   48.9207 H   0  0  0  0  0  0  0  0  0  0  0  0
  1  2  1  0
  2  3  1  0
  3  4  1  0
  4  5  2  0
  4  6  1  0
  6  7  1  0
  7  8  1  0
  8  9  1  0
  9 10  1  0
 10 11  1  0
 11 12  1  0
 12 13  1  0
 13 14  2  0
 14 15  1  0
 15 16  2  0
 16 17  1  0
 17 18  2  0
 18 19  1  0
 19 20  2  0
 20 21  1  0
 20 22  1  0
 22 23  2  0
 23 24  1  0
 24 25  2  0
 25 26  1  0
 26 27  2  0
 27 13  1  0
 19 14  1  0
 27 22  1  0
  1 28  1  0
  1 29  1  0
  1 30  1  0
  2 31  1  0
  2 32  1  0
  3 33  1  0
  6 34  1  0
  7 35  1  0
  7 36  1  0
  8 37  1  0
  8 38  1  0
  9 39  1  0
 10 40  1  0
 10 41  1  0
 11 42  1  0
 11 43  1  0
 12 44  1  0
 15 45  1  0
 16 46  1  0
 17 47  1  0
 18 48  1  0
 21 49  1  0
 21 50  1  0
 21 51  1  0
 23 52  1  0
 24 53  1  0
 25 54  1  0
 26 55  1  0
M  CHG  1  20   1
M  END
>  <smiles>  (9) 
CCNC(=O)NCCNCCNc1c2ccccc2[n+](C)c2ccccc12

>  <score_type>  (9) 
oracle

>  <origin>  (9) 
adg

>  <m_score__min__energy>  (9) 
-6.2699999999999996

>  <m_primary>  (9) 
energy

$$$$
10:0
     RDKit          3D

 59 61  0  0  0  0  0  0  0  0999 V2000
   62.8630   33.7430   47.2190 C   0  0  0  0  0  0  0  0  0  0  0  0
   61.6230   33.8460   46.3540 C   0  0  0  0  0  0  0  0  0  0  0  0
   60.5870   34.5920   46.9270 N   0  0  0  0  0  0  0  0  0  0  0  0
   59.7290   35.3260   46.1110 C   0  0  0  0  0  0  0  0  0  0  0  0
   59.2010   34.6440   44.8840 C   0  0  0  0  0  0  0  0  0  0  0  0
   60.4010   34.4620   48.2970 C   0  0  0  0  0  0  0  0  0  0  0  0
   59.6500   33.1810   48.6650 C   0  0  0  0  0  0  0  0  0  0  0  0
   59.1260   32.5800   47.4650 N   0  0  0  0  0  0  0  0  0  0  0  0
   58.7930   31.1740   47.3740 C   0  0  0  0  0  0  0  0  0  0  0  0
   59.1870   30.3320   48.4040 C   0  0  0  0  0  0  0  0  0  0  0  0
   58.6250   28.6400   47.8130 S   0  0  0  0  0  0  0  0  0  0  0  0
   57.9670   29.2780   46.3250 C   0  0  0  0  0  0  0  0  0  0  0  0
   57.3460   28.5610   45.3230 C   0  0  0  0  0  0  0  0  0  0  0  0
   57.1700   27.1350   45.3210 C   0  0  0  0  0  0  0  0  0  0  0  0
   56.0470   26.7020   45.7760 O   0  0  0  0  0  0  0  0  0  0  0  0
   58.0660   26.1490   44.8880 N   0  0  0  0  0  0  0  0  0  0  0  0
   57.6000   24.7870   45.0280 C   0  0  0  0  0  0  0  0  0  0  0  0
   57.0720   24.0630   43.9910 C   0  0  0  0  0  0  0  0  0  0  0  0
   56.6340   22.7790   44.2720 C   0  0  0  0  0  0  0  0  0  0  0  0
   56.0970   21.9920   43.2910 O   0  0  0  0  0  0  0  0  0  0  0  0
   56.6490   20.7150   42.9470 C   0  0  0  0  0  0  0  0  0  0  0  0
   56.7280   22.2560   45.5410 C   0  0  0  0  0  0  0  0  0  0  0  0
   57.2630   22.9830   46.6110 C   0  0  0  0  0  0  0  0  0  0  0  0
   57.3230   22.3930   47.8470 O   0  0  0  0  0  0  0  0  0  0  0  0
   56.2420   22.2290   48.7290 C   0  0  0  0  0  0  0  0  0  0  0  0
   57.6920   24.2510   46.3170 C   0  0  0  0  0  0  0  0  0  0  0  0
   56.8620   29.2300   44.1790 C   0  0  0  0  0  0  0  0  0  0  0  0
   57.0610   30.5880   44.1630 C   0  0  0  0  0  0  0  0  0  0  0  0
   57.6810   31.2740   45.1680 C   0  0  0  0  0  0  0  0  0  0  0  0
   58.1720   30.6080   46.3240 C   0  0  0  0  0  0  0  0  0  0  0  0
   62.5731   33.7671   48.2798 H   0  0  0  0  0  0  0  0  0  0  0  0
   63.3837   32.7985   47.0025 H   0  0  0  0  0  0  0  0  0  0  0  0
   63.5324   34.5886   47.0025 H   0  0  0  0  0  0  0  0  0  0  0  0
   61.9043   34.3199   45.4020 H   0  0  0  0  0  0  0  0  0  0  0  0
   61.2419   32.8225   46.2228 H   0  0  0  0  0  0  0  0  0  0  0  0
   58.8643   35.6234   46.7225 H   0  0  0  0  0  0  0  0  0  0  0  0
   60.3403   36.1585   45.7323 H   0  0  0  0  0  0  0  0  0  0  0  0
   58.5525   33.8064   45.1804 H   0  0  0  0  0  0  0  0  0  0  0  0
   58.6214   35.3625   44.2858 H   0  0  0  0  0  0  0  0  0  0  0  0
   60.0418   34.2629   44.2858 H   0  0  0  0  0  0  0  0  0  0  0  0
   61.3856   34.4474   48.7873 H   0  0  0  0  0  0  0  0  0  0  0  0
   59.7946   35.3151   48.6354 H   0  0  0  0  0  0  0  0  0  0  0  0
   60.3387   32.4791   49.1580 H   0  0  0  0  0  0  0  0  0  0  0  0
   58.8238   33.4200   49.3508 H   0  0  0  0  0  0  0  0  0  0  0  0
   58.9940   33.2180   46.6400 H   0  0  0  0  0  0  0  0  0  0  0  0
   59.7033   30.5923   49.3398 H   0  0  0  0  0  0  0  0  0  0  0  0
   58.9740   26.4130   44.5050 H   0  0  0  0  0  0  0  0  0  0  0  0
   56.9990   24.4840   42.9774 H   0  0  0  0  0  0  0  0  0  0  0  0
   56.8890   20.1598   43.8658 H   0  0  0  0  0  0  0  0  0  0  0  0
   55.9164   20.1462   42.3556 H   0  0  0  0  0  0  0  0  0  0  0  0
   57.5653   20.8589   42.3556 H   0  0  0  0  0  0  0  0  0  0  0  0
   56.3705   21.2314   45.7210 H   0  0  0  0  0  0  0  0  0  0  0  0
   56.6036   22.2839   49.7664 H   0  0  0  0  0  0  0  0  0  0  0  0
   55.5032   23.0253   48.5556 H   0  0  0  0  0  0  0  0  0  0  0  0
   55.7727   21.2494   48.5556 H   0  0  0  0  0  0  0  0  0  0  0  0
   58.1225   24.8670   47.1203 H   0  0  0  0  0  0  0  0  0  0  0  0
   56.3597   28.6998   43.3565 H   0  0  0  0  0  0  0  0  0  0  0  0
   56.7010   31.1554   43.2921 H   0  0  0  0  0  0  0  0  0  0  0  0
   57.8029   32.3638   45.0813 H   0  0  0  0  0  0  0  0  0  0  0  0
  1  2  1  0
  2  3  1  0
  3  4  1  0
  4  5  1  0
  3  6  1  0
  6  7  1  0
  7  8  1  0
  8  9  1  0
  9 10  2  0
 10 11  1  0
 11 12  1  0
 12 13  2  0
 13 14  1  0
 14 15  2  0
 14 16  1  0
 16 17  1  0
 17 18  2  0
 18 19  1  0
 19 20  1  0
 20 21  1  0
 19 22  2  0
 22 23  1  0
 23 24  1  0
 24 25  1  0
 23 26  2  0
 13 27  1  0
 27 28  2  0
 28 29  1  0
 29 30  2  0
 30  9  1  0
 30 12  1  0
 26 17  1  0
  1 31  1  0
  1 32  1  0
  1 33  1  0
  2 34  1  0
  2 35  1  0
  4 36  1  0
  4 37  1  0
  5 38  1  0
  5 39  1  0
  5 40  1  0
  6 41  1  0
  6 42  1  0
  7 43  1  0
  7 44  1  0
  8 45  1  0
 10 46  1  0
 16 47  1  0
 18 48  1  0
 21 49  1  0
 21 50  1  0
 21 51  1  0
 22 52  1  0
 25 53  1  0
 25 54  1  0
 25 55  1  0
 26 56  1  0
 27 57  1  0
 28 58  1  0
 29 59  1  0
M  END
>  <smiles>  (10) 
CCN(CC)CCNc1csc2c(C(=O)Nc3cc(OC)cc(OC)c3)cccc12

>  <score_type>  (10) 
oracle

>  <origin>  (10) 
adg

>  <m_score__min__energy>  (10) 
-8.0800000000000001

>  <m_primary>  (10) 
energy

$$$$
11:0
     RDKit          3D

 34 36  0  0  0  0  0  0  0  0999 V2000
   59.3880   29.6820   44.5420 C   0  0  0  0  0  0  0  0  0  0  0  0
   57.9490   29.7850   44.6350 N   0  0  0  0  0  0  0  0  0  0  0  0
   57.2030   30.8390   44.2460 C   0  0  0  0  0  0  0  0  0  0  0  0
   57.8720   32.3330   43.5270 S   0  0  0  0  0  0  0  0  0  0  0  0
   57.4080   33.7920   44.5280 C   0  0  0  0  0  0  0  0  0  0  0  0
   58.1380   33.7210   45.8140 C   0  0  0  0  0  0  0  0  0  0  0  0
   59.2570   34.5530   45.9300 C   0  0  0  0  0  0  0  0  0  0  0  0
   60.0220   34.5820   47.0710 C   0  0  0  0  0  0  0  0  0  0  0  0
   59.6490   33.7570   48.1120 C   0  0  0  0  0  0  0  0  0  0  0  0
   58.5320   32.9220   48.0070 C   0  0  0  0  0  0  0  0  0  0  0  0
   58.2350   32.1490   49.0660 F   0  0  0  0  0  0  0  0  0  0  0  0
   57.7700   32.8980   46.8580 C   0  0  0  0  0  0  0  0  0  0  0  0
   55.8920   30.5490   44.4970 N   0  0  0  0  0  0  0  0  0  0  0  0
   55.8370   29.3310   45.0360 N   0  0  0  0  0  0  0  0  0  0  0  0
   57.0950   28.8510   45.1250 C   0  0  0  0  0  0  0  0  0  0  0  0
   57.5280   27.5600   45.6480 C   0  0  0  0  0  0  0  0  0  0  0  0
   58.0920   27.5540   46.9160 C   0  0  0  0  0  0  0  0  0  0  0  0
   58.5280   26.3670   47.4800 C   0  0  0  0  0  0  0  0  0  0  0  0
   58.4020   25.2130   46.7930 N   0  0  0  0  0  0  0  0  0  0  0  0
   57.8570   25.2290   45.5730 C   0  0  0  0  0  0  0  0  0  0  0  0
   57.4030   26.3790   44.9510 C   0  0  0  0  0  0  0  0  0  0  0  0
   59.8195   29.6511   45.5534 H   0  0  0  0  0  0  0  0  0  0  0  0
   59.6556   28.7624   44.0009 H   0  0  0  0  0  0  0  0  0  0  0  0
   59.7838   30.5541   44.0009 H   0  0  0  0  0  0  0  0  0  0  0  0
   57.6835   34.7132   43.9937 H   0  0  0  0  0  0  0  0  0  0  0  0
   56.3227   33.8008   44.7069 H   0  0  0  0  0  0  0  0  0  0  0  0
   59.5317   35.2014   45.0849 H   0  0  0  0  0  0  0  0  0  0  0  0
   60.9003   35.2394   47.1516 H   0  0  0  0  0  0  0  0  0  0  0  0
   60.2399   33.7560   49.0398 H   0  0  0  0  0  0  0  0  0  0  0  0
   56.8922   32.2402   46.7762 H   0  0  0  0  0  0  0  0  0  0  0  0
   58.1931   28.4959   47.4751 H   0  0  0  0  0  0  0  0  0  0  0  0
   58.9756   26.3651   48.4848 H   0  0  0  0  0  0  0  0  0  0  0  0
   57.7640   24.2751   45.0331 H   0  0  0  0  0  0  0  0  0  0  0  0
   56.9616   26.3508   43.9438 H   0  0  0  0  0  0  0  0  0  0  0  0
  1  2  1  0
  2  3  1  0
  3  4  1  0
  4  5  1  0
  5  6  1  0
  6  7  2  0
  7  8  1  0
  8  9  2  0
  9 10  1  0
 10 11  1  0
 10 12  2  0
  3 13  2  0
 13 14  1  0
 14 15  2  0
 15 16  1  0
 16 17  2  0
 17 18  1  0
 18 19  2  0
 19 20  1  0
 20 21  2  0
 15  2  1  0
 21 16  1  0
 12  6  1  0
  1 22  1  0
  1 23  1  0
  1 24  1  0
  5 25  1  0
  5 26  1  0
  7 27  1  0
  8 28  1  0
  9 29  1  0
 12 30  1  0
 17 31  1  0
 18 32  1  0
 20 33  1  0
 21 34  1  0
M  END
>  <smiles>  (11) 
Cn1c(SCc2cccc(F)c2)nnc1-c1ccncc1

>  <score_type>  (11) 
oracle

>  <origin>  (11) 
adg

>  <m_score__min__energy>  (11) 
-7.5999999999999996

>  <m_primary>  (11) 
energy

$$$$
12:0
     RDKit          3D

 39 41  0  0  0  0  0  0  0  0999 V2000
   57.8810   24.7510   45.1430 C   0  0  0  0  0  0  0  0  0  0  0  0
   57.7430   26.0680   44.5500 N   0  0  0  0  0  0  0  0  0  0  0  0
   57.3760   27.2010   45.1770 C   0  0  0  0  0  0  0  0  0  0  0  0
   57.3880   28.1840   44.2060 C   0  0  0  0  0  0  0  0  0  0  0  0
   57.0110   29.8850   44.3520 S   0  0  0  0  0  0  0  0  0  0  0  0
   57.0190   30.5750   43.0060 O   0  0  0  0  0  0  0  0  0  0  0  0
   55.5880   29.9930   44.8630 O   0  0  0  0  0  0  0  0  0  0  0  0
   58.0020   30.7330   45.3980 N   0  0  0  0  0  0  0  0  0  0  0  0
   58.3830   32.0430   45.0330 C   0  0  0  0  0  0  0  0  0  0  0  0
   58.8500   32.8350   46.2550 C   0  0  0  0  0  0  0  0  0  0  0  0
   59.9360   32.1470   46.8510 N   0  0  0  0  0  0  0  0  0  0  0  0
   60.9650   32.8350   47.5540 C   0  0  0  0  0  0  0  0  0  0  0  0
   60.6820   33.5260   48.7340 C   0  0  0  0  0  0  0  0  0  0  0  0
   61.6750   34.2000   49.4290 C   0  0  0  0  0  0  0  0  0  0  0  0
   62.9700   34.2090   48.9770 C   0  0  0  0  0  0  0  0  0  0  0  0
   63.2700   33.5350   47.8170 C   0  0  0  0  0  0  0  0  0  0  0  0
   62.2720   32.8690   47.1350 C   0  0  0  0  0  0  0  0  0  0  0  0
   60.0500   30.7040   46.7710 C   0  0  0  0  0  0  0  0  0  0  0  0
   58.9130   29.9870   46.1810 C   0  0  0  0  0  0  0  0  0  0  0  0
   57.7690   27.6120   42.9910 C   0  0  0  0  0  0  0  0  0  0  0  0
   57.9740   26.3100   43.2660 N   0  0  0  0  0  0  0  0  0  0  0  0
   57.8717   24.8397   46.2394 H   0  0  0  0  0  0  0  0  0  0  0  0
   57.0447   24.1138   44.8196 H   0  0  0  0  0  0  0  0  0  0  0  0
   58.8312   24.3010   44.8196 H   0  0  0  0  0  0  0  0  0  0  0  0
   57.1200   27.3196   46.2402 H   0  0  0  0  0  0  0  0  0  0  0  0
   59.2042   31.9892   44.3031 H   0  0  0  0  0  0  0  0  0  0  0  0
   57.5127   32.5533   44.5946 H   0  0  0  0  0  0  0  0  0  0  0  0
   59.1732   33.8395   45.9443 H   0  0  0  0  0  0  0  0  0  0  0  0
   58.0257   32.9335   46.9767 H   0  0  0  0  0  0  0  0  0  0  0  0
   59.6519   33.5359   49.1196 H   0  0  0  0  0  0  0  0  0  0  0  0
   61.4205   34.7349   50.3559 H   0  0  0  0  0  0  0  0  0  0  0  0
   63.7536   34.7454   49.5322 H   0  0  0  0  0  0  0  0  0  0  0  0
   64.3011   33.5266   47.4340 H   0  0  0  0  0  0  0  0  0  0  0  0
   62.5372   32.3384   46.2086 H   0  0  0  0  0  0  0  0  0  0  0  0
   60.9401   30.4724   46.1676 H   0  0  0  0  0  0  0  0  0  0  0  0
   60.1012   30.3586   47.8141 H   0  0  0  0  0  0  0  0  0  0  0  0
   59.3223   29.1916   45.5408 H   0  0  0  0  0  0  0  0  0  0  0  0
   58.3228   29.6429   47.0431 H   0  0  0  0  0  0  0  0  0  0  0  0
   57.8781   28.1159   42.0193 H   0  0  0  0  0  0  0  0  0  0  0  0
  1  2  1  0
  2  3  1  0
  3  4  2  0
  4  5  1  0
  5  6  2  0
  5  7  2  0
  5  8  1  0
  8  9  1  0
  9 10  1  0
 10 11  1  0
 11 12  1  0
 12 13  2  0
 13 14  1  0
 14 15  2  0
 15 16  1  0
 16 17  2  0
 11 18  1  0
 18 19  1  0
  4 20  1  0
 20 21  2  0
 21  2  1  0
 19  8  1  0
 17 12  1  0
  1 22  1  0
  1 23  1  0
  1 24  1  0
  3 25  1  0
  9 26  1  0
  9 27  1  0
 10 28  1  0
 10 29  1  0
 13 30  1  0
 14 31  1  0
 15 32  1  0
 16 33  1  0
 17 34  1  0
 18 35  1  0
 18 36  1  0
 19 37  1  0
 19 38  1  0
 20 39  1  0
M  END
>  <smiles>  (12) 
Cn1cc(S(=O)(=O)N2CCN(c3ccccc3)CC2)cn1

>  <score_type>  (12) 
oracle

>  <origin>  (12) 
adg

>  <m_score__min__energy>  (12) 
-6.9699999999999998

>  <m_primary>  (12) 
energy

$$$$
13:0
     RDKit          3D

 51 54  0  0  0  0  0  0  0  0999 V2000
   59.2490   25.1990   45.9900 C   0  0  0  0  0  0  0  0  0  0  0  0
   59.2370   26.6520   45.8800 N   0  0  0  0  0  0  0  0  0  0  0  0
   58.7450   27.3670   44.8380 C   0  0  0  0  0  0  0  0  0  0  0  0
   58.9330   28.6990   45.1410 C   0  0  0  0  0  0  0  0  0  0  0  0
   58.5620   29.7950   44.3300 N   0  0  0  0  0  0  0  0  0  0  0  0
   57.6800   30.8170   44.8410 C   0  0  0  0  0  0  0  0  0  0  0  0
   58.2920   32.1940   44.7480 C   0  0  0  0  0  0  0  0  0  0  0  0
   57.5320   33.2370   45.3510 N   0  0  0  0  0  0  0  0  0  0  0  0
   57.7820   33.1860   46.7800 C   0  0  0  0  0  0  0  0  0  0  0  0
   58.7030   34.2470   47.2820 C   0  0  0  0  0  0  0  0  0  0  0  0
   59.8140   34.6180   46.3520 C   0  0  0  0  0  0  0  0  0  0  0  0
   59.2430   34.9720   45.0140 C   0  0  0  0  0  0  0  0  0  0  0  0
   57.8030   34.5580   44.8900 C   0  0  0  0  0  0  0  0  0  0  0  0
   59.5340   28.7830   46.3560 C   0  0  0  0  0  0  0  0  0  0  0  0
   59.9560   29.9310   47.1490 C   0  0  0  0  0  0  0  0  0  0  0  0
   59.2300   30.4370   48.2030 C   0  0  0  0  0  0  0  0  0  0  0  0
   59.7280   31.5330   48.8890 C   0  0  0  0  0  0  0  0  0  0  0  0
   60.9330   32.1300   48.5420 C   0  0  0  0  0  0  0  0  0  0  0  0
   61.4150   33.2200   49.2360 C   0  0  0  0  0  0  0  0  0  0  0  0
   62.6250   33.7820   48.8490 C   0  0  0  0  0  0  0  0  0  0  0  0
   63.3660   33.2890   47.7940 C   0  0  0  0  0  0  0  0  0  0  0  0
   62.8590   32.1980   47.1210 C   0  0  0  0  0  0  0  0  0  0  0  0
   61.6480   31.6080   47.4800 C   0  0  0  0  0  0  0  0  0  0  0  0
   61.1640   30.5150   46.7860 C   0  0  0  0  0  0  0  0  0  0  0  0
   59.7040   27.5130   46.7790 N   0  0  0  0  0  0  0  0  0  0  0  0
   59.2514   24.9117   47.0518 H   0  0  0  0  0  0  0  0  0  0  0  0
   58.3542   24.7868   45.5006 H   0  0  0  0  0  0  0  0  0  0  0  0
   60.1505   24.8017   45.5006 H   0  0  0  0  0  0  0  0  0  0  0  0
   58.2839   26.9617   43.9252 H   0  0  0  0  0  0  0  0  0  0  0  0
   58.9030   29.9090   43.3520 H   0  0  0  0  0  0  0  0  0  0  0  0
   56.7468   30.8036   44.2588 H   0  0  0  0  0  0  0  0  0  0  0  0
   57.4912   30.6013   45.9030 H   0  0  0  0  0  0  0  0  0  0  0  0
   59.2762   32.1629   45.2382 H   0  0  0  0  0  0  0  0  0  0  0  0
   58.3429   32.4339   43.6757 H   0  0  0  0  0  0  0  0  0  0  0  0
   56.8193   33.2908   47.3018 H   0  0  0  0  0  0  0  0  0  0  0  0
   58.2744   32.2226   46.9787 H   0  0  0  0  0  0  0  0  0  0  0  0
   58.1068   35.1505   47.4775 H   0  0  0  0  0  0  0  0  0  0  0  0
   59.1829   33.8341   48.1815 H   0  0  0  0  0  0  0  0  0  0  0  0
   60.3602   35.4820   46.7585 H   0  0  0  0  0  0  0  0  0  0  0  0
   60.5036   33.7678   46.2447 H   0  0  0  0  0  0  0  0  0  0  0  0
   59.3129   36.0609   44.8746 H   0  0  0  0  0  0  0  0  0  0  0  0
   59.8187   34.4353   44.2456 H   0  0  0  0  0  0  0  0  0  0  0  0
   57.1909   35.2598   45.4755 H   0  0  0  0  0  0  0  0  0  0  0  0
   57.5615   34.5735   43.8170 H   0  0  0  0  0  0  0  0  0  0  0  0
   58.2729   29.9802   48.4952 H   0  0  0  0  0  0  0  0  0  0  0  0
   59.1525   31.9419   49.7326 H   0  0  0  0  0  0  0  0  0  0  0  0
   60.8503   33.6377   50.0825 H   0  0  0  0  0  0  0  0  0  0  0  0
   63.0066   34.6519   49.4037 H   0  0  0  0  0  0  0  0  0  0  0  0
   64.3221   33.7480   47.5022 H   0  0  0  0  0  0  0  0  0  0  0  0
   63.4265   31.7808   46.2761 H   0  0  0  0  0  0  0  0  0  0  0  0
   61.7379   30.1051   45.9418 H   0  0  0  0  0  0  0  0  0  0  0  0
  1  2  1  0
  2  3  1  0
  3  4  2  0
  4  5  1  0
  5  6  1  0
  6  7  1  0
  7  8  1  0
  8  9  1  0
  9 10  1  0
 10 11  1  0
 11 12  1  0
 12 13  1  0
  4 14  1  0
 14 15  1  0
 15 16  2  0
 16 17  1  0
 17 18  2  0
 18 19  1  0
 19 20  2  0
 20 21  1  0
 21 22  2  0
 22 23  1  0
 23 24  2  0
 14 25  2  0
 25  2  1  0
 13  8  1  0
 24 15  1  0
 23 18  1  0
  1 26  1  0
  1 27  1  0
  1 28  1  0
  3 29  1  0
  5 30  1  0
  6 31  1  0
  6 32  1  0
  7 33  1  0
  7 34  1  0
  9 35  1  0
  9 36  1  0
 10 37  1  0
 10 38  1  0
 11 39  1  0
 11 40  1  0
 12 41  1  0
 12 42  1  0
 13 43  1  0
 13 44  1  0
 16 45  1  0
 17 46  1  0
 19 47  1  0
 20 48  1  0
 21 49  1  0
 22 50  1  0
 24 51  1  0
M  END
>  <smiles>  (13) 
Cn1cc(NCCN2CCCCC2)c(-c2ccc3ccccc3c2)n1

>  <score_type>  (13) 
oracle

>  <origin>  (13) 
adg

>  <m_score__min__energy>  (13) 
-8.0500000000000007

>  <m_primary>  (13) 
energy

$$$$
14:0
     RDKit          3D

 73 76  0  0  0  0  0  0  0  0999 V2000
   56.7830   32.1020   52.3040 C   0  0  0  0  0  0  0  0  0  0  0  0
   56.7120   30.6310   52.0190 C   0  0  0  0  0  0  0  0  0  0  0  0
   57.7900   30.1420   51.2130 N   0  0  0  0  0  0  0  0  0  0  0  0
   58.8920   29.5740   51.9210 C   0  0  0  0  0  0  0  0  0  0  0  0
   60.1990   29.7030   51.1520 C   0  0  0  0  0  0  0  0  0  0  0  0
   60.1410   28.7640   49.9950 C   0  0  0  0  0  0  0  0  0  0  0  0
   59.9070   29.3700   48.6580 C   0  0  0  0  0  0  0  0  0  0  0  0
   58.6740   30.1430   48.5400 N   0  0  0  0  0  0  0  0  0  0  0  0
   58.5770   30.9910   47.4180 C   0  0  0  0  0  0  0  0  0  0  0  0
   58.2310   30.3270   46.2250 C   0  0  0  0  0  0  0  0  0  0  0  0
   57.9880   28.9630   46.2370 C   0  0  0  0  0  0  0  0  0  0  0  0
   57.6470   28.2340   45.1230 C   0  0  0  0  0  0  0  0  0  0  0  0
   57.5400   28.9020   43.9280 C   0  0  0  0  0  0  0  0  0  0  0  0
   57.7810   30.2800   43.8960 C   0  0  0  0  0  0  0  0  0  0  0  0
   58.1210   30.9890   45.0280 C   0  0  0  0  0  0  0  0  0  0  0  0
   58.3480   32.3010   44.9790 N   0  0  0  0  0  0  0  0  0  0  0  0
   58.2460   33.0760   43.7630 C   0  0  0  0  0  0  0  0  0  0  0  0
   58.6810   32.9660   46.1030 C   0  0  0  0  0  0  0  0  0  0  0  0
   58.9040   34.3210   45.9930 C   0  0  0  0  0  0  0  0  0  0  0  0
   59.2420   35.0260   47.1220 C   0  0  0  0  0  0  0  0  0  0  0  0
   59.3480   34.3800   48.3160 C   0  0  0  0  0  0  0  0  0  0  0  0
   59.1320   33.0060   48.4860 C   0  0  0  0  0  0  0  0  0  0  0  0
   59.2110   32.4750   49.7760 N   0  0  0  0  0  0  0  0  0  0  0  0
   59.5000   33.4460   50.8590 C   0  0  0  0  0  0  0  0  0  0  0  0
   60.8180   33.1700   51.5310 C   0  0  0  0  0  0  0  0  0  0  0  0
   61.9720   33.7970   50.8350 C   0  0  0  0  0  0  0  0  0  0  0  0
   62.3020   33.1830   49.5690 N   0  0  0  0  0  0  0  0  0  0  0  0
   62.2680   31.8360   49.3980 C   0  0  0  0  0  0  0  0  0  0  0  0
   62.5760   31.2190   48.2230 C   0  0  0  0  0  0  0  0  0  0  0  0
   62.9430   32.0070   47.1480 C   0  0  0  0  0  0  0  0  0  0  0  0
   62.9910   33.3750   47.2820 C   0  0  0  0  0  0  0  0  0  0  0  0
   63.3910   34.1810   46.1000 C   0  0  0  0  0  0  0  0  0  0  0  0
   62.6650   33.9190   48.5000 C   0  0  0  0  0  0  0  0  0  0  0  0
   58.7990   32.3220   47.3430 C   0  0  0  0  0  0  0  0  0  0  0  0
   56.7909   32.2648   53.3919 H   0  0  0  0  0  0  0  0  0  0  0  0
   57.7022   32.5167   51.8646 H   0  0  0  0  0  0  0  0  0  0  0  0
   55.9080   32.6033   51.8646 H   0  0  0  0  0  0  0  0  0  0  0  0
   56.7245   30.0918   52.9777 H   0  0  0  0  0  0  0  0  0  0  0  0
   55.7861   30.4610   51.4499 H   0  0  0  0  0  0  0  0  0  0  0  0
   57.4120   29.4440   50.5160 H   0  0  0  0  0  0  0  0  0  0  0  0
   58.9968   30.0908   52.8864 H   0  0  0  0  0  0  0  0  0  0  0  0
   58.6870   28.5022   52.0601 H   0  0  0  0  0  0  0  0  0  0  0  0
   60.3205   30.7349   50.7909 H   0  0  0  0  0  0  0  0  0  0  0  0
   61.0529   29.4604   51.8016 H   0  0  0  0  0  0  0  0  0  0  0  0
   61.0990   28.2249   49.9542 H   0  0  0  0  0  0  0  0  0  0  0  0
   59.2644   28.1264   50.1822 H   0  0  0  0  0  0  0  0  0  0  0  0
   60.7517   30.0378   48.4331 H   0  0  0  0  0  0  0  0  0  0  0  0
   59.8141   28.5318   47.9517 H   0  0  0  0  0  0  0  0  0  0  0  0
   57.8840   30.0450   49.2450 H   0  0  0  0  0  0  0  0  0  0  0  0
   58.0732   28.4314   47.1962 H   0  0  0  0  0  0  0  0  0  0  0  0
   57.4657   27.1509   45.1865 H   0  0  0  0  0  0  0  0  0  0  0  0
   57.2687   28.3616   43.0091 H   0  0  0  0  0  0  0  0  0  0  0  0
   57.6965   30.8138   42.9379 H   0  0  0  0  0  0  0  0  0  0  0  0
   58.1063   34.1375   44.0154 H   0  0  0  0  0  0  0  0  0  0  0  0
   59.1675   32.9573   43.1742 H   0  0  0  0  0  0  0  0  0  0  0  0
   57.3866   32.7229   43.1742 H   0  0  0  0  0  0  0  0  0  0  0  0
   58.8132   34.8278   45.0209 H   0  0  0  0  0  0  0  0  0  0  0  0
   59.4265   36.1088   47.0620 H   0  0  0  0  0  0  0  0  0  0  0  0
   59.6199   34.9732   49.2015 H   0  0  0  0  0  0  0  0  0  0  0  0
   59.0900   31.5330   50.1380 H   0  0  0  0  0  0  0  0  0  0  0  0
   59.5260   34.4585   50.4298 H   0  0  0  0  0  0  0  0  0  0  0  0
   58.7079   33.3535   51.6167 H   0  0  0  0  0  0  0  0  0  0  0  0
   60.7752   33.5603   52.5585 H   0  0  0  0  0  0  0  0  0  0  0  0
   60.9748   32.0815   51.5091 H   0  0  0  0  0  0  0  0  0  0  0  0
   61.7326   34.8552   50.6537 H   0  0  0  0  0  0  0  0  0  0  0  0
   62.8466   33.6653   51.4890 H   0  0  0  0  0  0  0  0  0  0  0  0
   61.9762   31.2098   50.2540 H   0  0  0  0  0  0  0  0  0  0  0  0
   62.5338   30.1236   48.1321 H   0  0  0  0  0  0  0  0  0  0  0  0
   63.1967   31.5397   46.1851 H   0  0  0  0  0  0  0  0  0  0  0  0
   63.8566   35.1191   46.4364 H   0  0  0  0  0  0  0  0  0  0  0  0
   64.1108   33.6111   45.4942 H   0  0  0  0  0  0  0  0  0  0  0  0
   62.5018   34.4096   45.4942 H   0  0  0  0  0  0  0  0  0  0  0  0
   62.7021   35.0130   48.6088 H   0  0  0  0  0  0  0  0  0  0  0  0
  1  2  1  0
  2  3  1  0
  3  4  1  0
  4  5  1  0
  5  6  1  0
  6  7  1  0
  7  8  1  0
  8  9  1  0
  9 10  2  0
 10 11  1  0
 11 12  2  0
 12 13  1  0
 13 14  2  0
 14 15  1  0
 15 16  2  0
 16 17  1  0
 16 18  1  0
 18 19  2  0
 19 20  1  0
 20 21  2  0
 21 22  1  0
 22 23  1  0
 23 24  1  0
 24 25  1  0
 25 26  1  0
 26 27  1  0
 27 28  2  0
 28 29  1  0
 29 30  2  0
 30 31  1  0
 31 32  1  0
 31 33  2  0
 22 34  2  0
 34  9  1  0
 15 10  1  0
 34 18  1  0
 33 27  1  0
  1 35  1  0
  1 36  1  0
  1 37  1  0
  2 38  1  0
  2 39  1  0
  3 40  1  0
  4 41  1  0
  4 42  1  0
  5 43  1  0
  5 44  1  0
  6 45  1  0
  6 46  1  0
  7 47  1  0
  7 48  1  0
  8 49  1  0
 11 50  1  0
 12 51  1  0
 13 52  1  0
 14 53  1  0
 17 54  1  0
 17 55  1  0
 17 56  1  0
 19 57  1  0
 20 58  1  0
 21 59  1  0
 23 60  1  0
 24 61  1  0
 24 62  1  0
 25 63  1  0
 25 64  1  0
 26 65  1  0
 26 66  1  0
 28 67  1  0
 29 68  1  0
 30 69  1  0
 32 70  1  0
 32 71  1  0
 32 72  1  0
 33 73  1  0
M  CHG  2  16   1  27   1
M  END
>  <smiles>  (14) 
CCNCCCCNc1c2ccccc2[n+](C)c2cccc(NCCC[n+]3cccc(C)c3)c12

>  <score_type>  (14) 
oracle

>  <origin>  (14) 
adg

>  <m_score__min__energy>  (14) 
-5.5300000000000002

>  <m_primary>  (14) 
energy

$$$$
15:0
     RDKit          3D

 53 55  0  0  1  0  0  0  0  0999 V2000
   56.3240   29.6970   42.6200 C   0  0  0  0  0  0  0  0  0  0  0  0
   55.6470   30.0890   43.8860 C   0  0  0  0  0  0  0  0  0  0  0  0
   56.5200   30.3520   44.9380 O   0  0  0  0  0  0  0  0  0  0  0  0
   57.5000   29.5910   45.4690 C   0  0  0  0  0  0  0  0  0  0  0  0
   57.3000   28.2000   45.4670 C   0  0  0  0  0  0  0  0  0  0  0  0
   58.2160   27.3380   45.9760 C   0  0  0  0  0  0  0  0  0  0  0  0
   59.3730   27.8560   46.5090 C   0  0  0  0  0  0  0  0  0  0  0  0
   59.5640   29.2190   46.5080 C   0  0  0  0  0  0  0  0  0  0  0  0
   60.7180   29.6940   47.0600 C   0  0  0  0  0  0  0  0  0  0  0  0
   60.9040   31.0520   47.0720 C   0  0  0  0  0  0  0  0  0  0  0  0
   60.0330   31.9750   46.5770 C   0  0  0  0  0  0  0  0  0  0  0  0
   60.2390   33.4000   46.5060 C   0  0  0  0  0  0  0  0  0  0  0  0
   60.7330   34.1880   47.3950 C   0  0  0  0  0  0  0  0  0  0  0  0
   61.8740   33.9910   48.2510 C   0  0  0  0  0  0  0  0  0  0  0  0
   63.0060   33.4470   47.6860 C   0  0  0  0  0  0  0  0  0  0  0  0
   64.1020   33.1190   48.4440 C   0  0  0  0  0  0  0  0  0  0  0  0
   64.1520   33.3070   49.8090 C   0  0  0  0  0  0  0  0  0  0  0  0
   65.3190   32.9480   50.5390 N   0  0  0  0  0  0  0  0  0  0  0  0
   65.9760   34.0000   51.2970 C   0  0  0  0  0  0  0  0  0  0  0  0
   65.8040   31.5820   50.5080 C   0  0  0  0  0  0  0  0  0  0  0  0
   63.0270   33.8490   50.3910 C   0  0  0  0  0  0  0  0  0  0  0  0
   61.9070   34.1820   49.6160 C   0  0  0  0  0  0  0  0  0  0  0  0
   58.8800   31.4760   46.0260 N   0  0  0  0  0  0  0  0  0  0  0  0
   57.8970   32.3470   45.4200 C   0  0  0  0  0  0  0  0  0  0  0  0
   58.1450   32.7300   44.0130 C   0  0  0  0  0  0  0  0  0  0  0  0
   58.6610   30.1280   46.0010 C   0  0  0  0  0  0  0  0  0  0  0  0
   57.2543   29.1583   42.8532 H   0  0  0  0  0  0  0  0  0  0  0  0
   55.6590   29.0442   42.0355 H   0  0  0  0  0  0  0  0  0  0  0  0
   56.5591   30.5987   42.0355 H   0  0  0  0  0  0  0  0  0  0  0  0
   55.0535   30.9952   43.6945 H   0  0  0  0  0  0  0  0  0  0  0  0
   55.0276   29.2335   44.1933 H   0  0  0  0  0  0  0  0  0  0  0  0
   56.3705   27.7968   45.0388 H   0  0  0  0  0  0  0  0  0  0  0  0
   58.0376   26.2526   45.9626 H   0  0  0  0  0  0  0  0  0  0  0  0
   60.1379   27.1880   46.9317 H   0  0  0  0  0  0  0  0  0  0  0  0
   61.4717   29.0118   47.4801 H   0  0  0  0  0  0  0  0  0  0  0  0
   61.8358   31.4284   47.5193 H   0  0  0  0  0  0  0  0  0  0  0  0
   59.9323   33.8784   45.5642 H   0  0  0  0  0  0  0  0  0  0  0  0
   60.2099   35.1477   47.5186 H   0  0  0  0  0  0  0  0  0  0  0  0
   63.0323   33.2711   46.6005 H   0  0  0  0  0  0  0  0  0  0  0  0
   64.9793   32.6870   47.9403 H   0  0  0  0  0  0  0  0  0  0  0  0
   65.8553   33.8067   52.3731 H   0  0  0  0  0  0  0  0  0  0  0  0
   67.0468   34.0190   51.0457 H   0  0  0  0  0  0  0  0  0  0  0  0
   65.5232   34.9705   51.0457 H   0  0  0  0  0  0  0  0  0  0  0  0
   65.9341   31.2157   51.5370 H   0  0  0  0  0  0  0  0  0  0  0  0
   65.0766   30.9465   49.9817 H   0  0  0  0  0  0  0  0  0  0  0  0
   66.7693   31.5475   49.9817 H   0  0  0  0  0  0  0  0  0  0  0  0
   63.0072   34.0226   51.4770 H   0  0  0  0  0  0  0  0  0  0  0  0
   61.0246   34.6102   50.1140 H   0  0  0  0  0  0  0  0  0  0  0  0
   56.9238   31.8360   45.4625 H   0  0  0  0  0  0  0  0  0  0  0  0
   57.9405   33.2849   45.9932 H   0  0  0  0  0  0  0  0  0  0  0  0
   58.7427   33.6530   43.9841 H   0  0  0  0  0  0  0  0  0  0  0  0
   58.6923   31.9227   43.5043 H   0  0  0  0  0  0  0  0  0  0  0  0
   57.1845   32.8991   43.5043 H   0  0  0  0  0  0  0  0  0  0  0  0
  1  2  1  0
  2  3  1  0
  3  4  1  0
  4  5  2  0
  5  6  1  0
  6  7  2  0
  7  8  1  0
  8  9  2  0
  9 10  1  0
 10 11  2  0
 11 12  1  0
 12 13  2  0
 13 14  1  0
 14 15  2  0
 15 16  1  0
 16 17  2  0
 17 18  1  0
 18 19  1  0
 18 20  1  0
 17 21  1  0
 21 22  2  0
 11 23  1  0
 23 24  1  0
 24 25  1  0
 23 26  2  0
 26  4  1  0
 26  8  1  0
 22 14  1  0
  1 27  1  0
  1 28  1  0
  1 29  1  0
  2 30  1  0
  2 31  1  0
  5 32  1  0
  6 33  1  0
  7 34  1  0
  9 35  1  0
 10 36  1  0
 12 37  1  0
 13 38  1  0
 15 39  1  0
 16 40  1  0
 19 41  1  0
 19 42  1  0
 19 43  1  0
 20 44  1  0
 20 45  1  0
 20 46  1  0
 21 47  1  0
 22 48  1  0
 24 49  1  0
 24 50  1  0
 25 51  1  0
 25 52  1  0
 25 53  1  0
M  CHG  1  23   1
M  END
>  <smiles>  (15) 
CCOc1cccc2ccc(C=Cc3ccc(N(C)C)cc3)[n+](CC)c12

>  <score_type>  (15) 
oracle

>  <origin>  (15) 
adg

>  <m_score__min__energy>  (15) 
-6.4299999999999997

>  <m_primary>  (15) 
energy

$$$$
16:0
     RDKit          3D

 78 82  0  0  0  0  0  0  0  0999 V2000
   63.2560   31.4750   47.1950 C   0  0  0  0  0  0  0  0  0  0  0  0
   62.7320   32.7300   47.9050 C   0  0  0  0  0  0  0  0  0  0  0  0
   62.9780   33.8860   46.9230 C   0  0  0  0  0  0  0  0  0  0  0  0
   63.5320   33.0170   49.1100 C   0  0  0  0  0  0  0  0  0  0  0  0
   64.9170   33.0880   49.0030 C   0  0  0  0  0  0  0  0  0  0  0  0
   65.7360   33.3320   50.0840 C   0  0  0  0  0  0  0  0  0  0  0  0
   65.1630   33.5130   51.3280 C   0  0  0  0  0  0  0  0  0  0  0  0
   63.7920   33.4420   51.4260 C   0  0  0  0  0  0  0  0  0  0  0  0
   62.9600   33.1990   50.3480 C   0  0  0  0  0  0  0  0  0  0  0  0
   61.5720   33.1730   50.6000 N   0  0  0  0  0  0  0  0  0  0  0  0
   60.5790   33.8800   49.8120 C   0  0  0  0  0  0  0  0  0  0  0  0
   59.2890   33.0830   49.7880 C   0  0  0  0  0  0  0  0  0  0  0  0
   58.7110   33.0670   51.1220 N   0  0  0  0  0  0  0  0  0  0  0  0
   57.5960   32.1940   51.2030 C   0  0  0  0  0  0  0  0  0  0  0  0
   57.8090   30.9510   52.0280 C   0  0  0  0  0  0  0  0  0  0  0  0
   58.0830   29.7480   51.1510 C   0  0  0  0  0  0  0  0  0  0  0  0
   59.1080   30.0340   50.0890 C   0  0  0  0  0  0  0  0  0  0  0  0
   60.1730   28.9690   49.9930 C   0  0  0  0  0  0  0  0  0  0  0  0
   60.0630   28.1260   48.7950 C   0  0  0  0  0  0  0  0  0  0  0  0
   60.0140   26.8730   48.7850 O   0  0  0  0  0  0  0  0  0  0  0  0
   60.0030   28.7540   47.4960 N   0  0  0  0  0  0  0  0  0  0  0  0
   59.5670   27.9680   46.3420 C   0  0  0  0  0  0  0  0  0  0  0  0
   58.3200   28.5780   45.7420 C   0  0  0  0  0  0  0  0  0  0  0  0
   58.4160   30.0640   45.6970 C   0  0  0  0  0  0  0  0  0  0  0  0
   59.3480   30.7490   46.4130 C   0  0  0  0  0  0  0  0  0  0  0  0
   59.1250   32.0970   46.1150 C   0  0  0  0  0  0  0  0  0  0  0  0
   59.7160   33.2810   46.5050 C   0  0  0  0  0  0  0  0  0  0  0  0
   59.2360   34.4820   46.0050 C   0  0  0  0  0  0  0  0  0  0  0  0
   58.1780   34.5550   45.1210 C   0  0  0  0  0  0  0  0  0  0  0  0
   57.5870   33.3690   44.7310 C   0  0  0  0  0  0  0  0  0  0  0  0
   58.0670   32.1800   45.2290 C   0  0  0  0  0  0  0  0  0  0  0  0
   57.6530   30.9180   44.9920 N   0  0  0  0  0  0  0  0  0  0  0  0
   56.5430   30.5610   44.1010 C   0  0  0  0  0  0  0  0  0  0  0  0
   60.3590   30.1460   47.3030 C   0  0  0  0  0  0  0  0  0  0  0  0
   59.6810   33.0050   52.1560 C   0  0  0  0  0  0  0  0  0  0  0  0
   61.0190   32.3890   51.7210 C   0  0  0  0  0  0  0  0  0  0  0  0
   63.5662   30.7322   47.9447 H   0  0  0  0  0  0  0  0  0  0  0  0
   62.4600   31.0505   46.5656 H   0  0  0  0  0  0  0  0  0  0  0  0
   64.1176   31.7426   46.5656 H   0  0  0  0  0  0  0  0  0  0  0  0
   61.6782   32.5999   48.1923 H   0  0  0  0  0  0  0  0  0  0  0  0
   63.1747   34.8101   47.4864 H   0  0  0  0  0  0  0  0  0  0  0  0
   63.8462   33.6508   46.2898 H   0  0  0  0  0  0  0  0  0  0  0  0
   62.0893   34.0247   46.2898 H   0  0  0  0  0  0  0  0  0  0  0  0
   65.3776   32.9434   48.0146 H   0  0  0  0  0  0  0  0  0  0  0  0
   66.8277   33.3818   49.9585 H   0  0  0  0  0  0  0  0  0  0  0  0
   65.7844   33.7082   52.2144 H   0  0  0  0  0  0  0  0  0  0  0  0
   63.3330   33.5863   52.4152 H   0  0  0  0  0  0  0  0  0  0  0  0
   60.3914   34.8672   50.2594 H   0  0  0  0  0  0  0  0  0  0  0  0
   60.9500   34.0067   48.7842 H   0  0  0  0  0  0  0  0  0  0  0  0
   58.5817   33.5492   49.0863 H   0  0  0  0  0  0  0  0  0  0  0  0
   59.4975   32.0528   49.4636 H   0  0  0  0  0  0  0  0  0  0  0  0
   56.7574   32.7539   51.6426 H   0  0  0  0  0  0  0  0  0  0  0  0
   57.4056   31.8483   50.1763 H   0  0  0  0  0  0  0  0  0  0  0  0
   58.6670   31.1086   52.6981 H   0  0  0  0  0  0  0  0  0  0  0  0
   56.8934   30.7574   52.6062 H   0  0  0  0  0  0  0  0  0  0  0  0
   58.4496   28.9260   51.7834 H   0  0  0  0  0  0  0  0  0  0  0  0
   57.1431   29.4801   50.6462 H   0  0  0  0  0  0  0  0  0  0  0  0
   58.5958   30.1056   49.1182 H   0  0  0  0  0  0  0  0  0  0  0  0
   59.6084   30.9752   50.3607 H   0  0  0  0  0  0  0  0  0  0  0  0
   61.1562   29.4620   49.9809 H   0  0  0  0  0  0  0  0  0  0  0  0
   60.0439   28.3079   50.8626 H   0  0  0  0  0  0  0  0  0  0  0  0
   60.3664   27.9559   45.5865 H   0  0  0  0  0  0  0  0  0  0  0  0
   59.3458   26.9408   46.6675 H   0  0  0  0  0  0  0  0  0  0  0  0
   58.1899   28.1956   44.7189 H   0  0  0  0  0  0  0  0  0  0  0  0
   57.4602   28.3031   46.3707 H   0  0  0  0  0  0  0  0  0  0  0  0
   60.5622   33.2724   47.2078 H   0  0  0  0  0  0  0  0  0  0  0  0
   59.7189   35.4166   46.3265 H   0  0  0  0  0  0  0  0  0  0  0  0
   57.8187   35.5227   44.7410 H   0  0  0  0  0  0  0  0  0  0  0  0
   56.7404   33.3753   44.0287 H   0  0  0  0  0  0  0  0  0  0  0  0
   55.6662   30.2790   44.7024 H   0  0  0  0  0  0  0  0  0  0  0  0
   56.2904   31.4232   43.4663 H   0  0  0  0  0  0  0  0  0  0  0  0
   56.8404   29.7132   43.4663 H   0  0  0  0  0  0  0  0  0  0  0  0
   61.3548   30.2174   46.8412 H   0  0  0  0  0  0  0  0  0  0  0  0
   60.3865   30.6737   48.2678 H   0  0  0  0  0  0  0  0  0  0  0  0
   59.8711   34.0277   52.5138 H   0  0  0  0  0  0  0  0  0  0  0  0
   59.2696   32.3518   52.9396 H   0  0  0  0  0  0  0  0  0  0  0  0
   61.7239   32.4064   52.5653 H   0  0  0  0  0  0  0  0  0  0  0  0
   60.8605   31.3484   51.4017 H   0  0  0  0  0  0  0  0  0  0  0  0
  1  2  1  0
  2  3  1  0
  2  4  1  0
  4  5  2  0
  5  6  1  0
  6  7  2  0
  7  8  1  0
  8  9  2  0
  9 10  1  0
 10 11  1  0
 11 12  1  0
 12 13  1  0
 13 14  1  0
 14 15  1  0
 15 16  1  0
 16 17  1  0
 17 18  1  0
 18 19  1  0
 19 20  2  0
 19 21  1  0
 21 22  1  0
 22 23  1  0
 23 24  1  0
 24 25  2  0
 25 26  1  0
 26 27  2  0
 27 28  1  0
 28 29  2  0
 29 30  1  0
 30 31  2  0
 31 32  1  0
 32 33  1  0
 25 34  1  0
 13 35  1  0
 35 36  1  0
  9  4  1  0
 36 10  1  0
 34 21  1  0
 32 24  1  0
 31 26  1  0
  1 37  1  0
  1 38  1  0
  1 39  1  0
  2 40  1  0
  3 41  1  0
  3 42  1  0
  3 43  1  0
  5 44  1  0
  6 45  1  0
  7 46  1  0
  8 47  1  0
 11 48  1  0
 11 49  1  0
 12 50  1  0
 12 51  1  0
 14 52  1  0
 14 53  1  0
 15 54  1  0
 15 55  1  0
 16 56  1  0
 16 57  1  0
 17 58  1  0
 17 59  1  0
 18 60  1  0
 18 61  1  0
 22 62  1  0
 22 63  1  0
 23 64  1  0
 23 65  1  0
 27 66  1  0
 28 67  1  0
 29 68  1  0
 30 69  1  0
 33 70  1  0
 33 71  1  0
 33 72  1  0
 34 73  1  0
 34 74  1  0
 35 75  1  0
 35 76  1  0
 36 77  1  0
 36 78  1  0
M  END
>  <smiles>  (16) 
CC(C)c1ccccc1N1CCN(CCCCCC(=O)N2CCc3c(c4ccccc4n3C)C2)CC1

>  <score_type>  (16) 
oracle

>  <origin>  (16) 
adg

>  <m_score__min__energy>  (16) 
-9.6400000000000006

>  <m_primary>  (16) 
energy

$$$$
17:0
     RDKit          3D

 50 52  0  0  0  0  0  0  0  0999 V2000
   58.5290   32.3600   49.5120 C   0  0  0  0  0  0  0  0  0  0  0  0
   59.5220   33.3320   50.0620 C   0  0  0  0  0  0  0  0  0  0  0  0
   60.8930   32.8520   50.0420 N   0  0  0  0  0  0  0  0  0  0  0  0
   60.9420   31.4040   50.1910 C   0  0  0  0  0  0  0  0  0  0  0  0
   61.7050   33.5070   51.0500 C   0  0  0  0  0  0  0  0  0  0  0  0
   62.8090   34.2220   50.2870 C   0  0  0  0  0  0  0  0  0  0  0  0
   62.6210   34.1090   48.9190 O   0  0  0  0  0  0  0  0  0  0  0  0
   63.6740   33.4850   48.2590 C   0  0  0  0  0  0  0  0  0  0  0  0
   63.3780   33.3500   46.7750 C   0  0  0  0  0  0  0  0  0  0  0  0
   62.0020   33.8350   46.4400 C   0  0  0  0  0  0  0  0  0  0  0  0
   60.9580   33.0970   47.1280 N   0  0  0  0  0  0  0  0  0  0  0  0
   59.9100   32.4520   46.4190 C   0  0  0  0  0  0  0  0  0  0  0  0
   59.7200   31.0980   46.3620 C   0  0  0  0  0  0  0  0  0  0  0  0
   60.5970   30.2690   47.0420 C   0  0  0  0  0  0  0  0  0  0  0  0
   60.4000   28.8890   46.9860 C   0  0  0  0  0  0  0  0  0  0  0  0
   59.3300   28.3740   46.2510 C   0  0  0  0  0  0  0  0  0  0  0  0
   58.4620   29.2190   45.5750 C   0  0  0  0  0  0  0  0  0  0  0  0
   58.6690   30.5790   45.6400 C   0  0  0  0  0  0  0  0  0  0  0  0
   57.8010   31.4150   44.9700 C   0  0  0  0  0  0  0  0  0  0  0  0
   56.6930   30.9180   44.2020 N   0  0  0  0  0  0  0  0  0  0  0  0
   56.6980   31.0700   42.9500 O   0  0  0  0  0  0  0  0  0  0  0  0
   55.6230   30.2780   44.8230 O   0  0  0  0  0  0  0  0  0  0  0  0
   57.9730   32.7810   45.0120 C   0  0  0  0  0  0  0  0  0  0  0  0
   57.3410   33.8580   44.4970 N   0  0  0  0  0  0  0  0  0  0  0  0
   57.9570   34.9380   44.8750 O   0  0  0  0  0  0  0  0  0  0  0  0
   58.9840   34.6510   45.6260 N   0  0  0  0  0  0  0  0  0  0  0  0
   59.0310   33.3010   45.7390 C   0  0  0  0  0  0  0  0  0  0  0  0
   58.0126   31.8545   50.3414 H   0  0  0  0  0  0  0  0  0  0  0  0
   57.7935   32.8968   48.8949 H   0  0  0  0  0  0  0  0  0  0  0  0
   59.0500   31.6132   48.8949 H   0  0  0  0  0  0  0  0  0  0  0  0
   59.4699   34.2546   49.4652 H   0  0  0  0  0  0  0  0  0  0  0  0
   59.2573   33.4943   51.1173 H   0  0  0  0  0  0  0  0  0  0  0  0
   60.9507   31.1455   51.2602 H   0  0  0  0  0  0  0  0  0  0  0  0
   60.0585   30.9561   49.7127 H   0  0  0  0  0  0  0  0  0  0  0  0
   61.8538   31.0168   49.7127 H   0  0  0  0  0  0  0  0  0  0  0  0
   61.1015   34.2297   51.6187 H   0  0  0  0  0  0  0  0  0  0  0  0
   62.1126   32.7866   51.7745 H   0  0  0  0  0  0  0  0  0  0  0  0
   62.8061   35.2866   50.5637 H   0  0  0  0  0  0  0  0  0  0  0  0
   63.7719   33.7585   50.5477 H   0  0  0  0  0  0  0  0  0  0  0  0
   64.5875   34.0834   48.3913 H   0  0  0  0  0  0  0  0  0  0  0  0
   63.8093   32.4794   48.6839 H   0  0  0  0  0  0  0  0  0  0  0  0
   64.1125   33.9421   46.2094 H   0  0  0  0  0  0  0  0  0  0  0  0
   63.4414   32.2849   46.5076 H   0  0  0  0  0  0  0  0  0  0  0  0
   61.9257   34.8955   46.7218 H   0  0  0  0  0  0  0  0  0  0  0  0
   61.8540   33.6858   45.3603 H   0  0  0  0  0  0  0  0  0  0  0  0
   60.9220   33.0020   48.1790 H   0  0  0  0  0  0  0  0  0  0  0  0
   61.4345   30.6916   47.6164 H   0  0  0  0  0  0  0  0  0  0  0  0
   61.0834   28.2106   47.5176 H   0  0  0  0  0  0  0  0  0  0  0  0
   59.1737   27.2860   46.2076 H   0  0  0  0  0  0  0  0  0  0  0  0
   57.6213   28.8091   44.9960 H   0  0  0  0  0  0  0  0  0  0  0  0
  1  2  1  0
  2  3  1  0
  3  4  1  0
  3  5  1  0
  5  6  1  0
  6  7  1  0
  7  8  1  0
  8  9  1  0
  9 10  1  0
 10 11  1  0
 11 12  1  0
 12 13  2  0
 13 14  1  0
 14 15  2  0
 15 16  1  0
 16 17  2  0
 17 18  1  0
 18 19  2  0
 19 20  1  0
 20 21  2  0
 20 22  1  0
 19 23  1  0
 23 24  2  0
 24 25  1  0
 25 26  1  0
 26 27  2  0
 27 12  1  0
 18 13  1  0
 27 23  1  0
  1 28  1  0
  1 29  1  0
  1 30  1  0
  2 31  1  0
  2 32  1  0
  4 33  1  0
  4 34  1  0
  4 35  1  0
  5 36  1  0
  5 37  1  0
  6 38  1  0
  6 39  1  0
  8 40  1  0
  8 41  1  0
  9 42  1  0
  9 43  1  0
 10 44  1  0
 10 45  1  0
 11 46  1  0
 14 47  1  0
 15 48  1  0
 16 49  1  0
 17 50  1  0
M  CHG  2  20   1  22  -1
M  END
>  <smiles>  (17) 
CCN(C)CCOCCCNc1c2ccccc2c([N+](=O)[O-])c2nonc12

>  <score_type>  (17) 
oracle

>  <origin>  (17) 
adg

>  <m_score__min__energy>  (17) 
-8.4100000000000001

>  <m_primary>  (17) 
energy

$$$$
19:0
     RDKit          3D

 52 54  0  0  0  0  0  0  0  0999 V2000
   56.3060   29.3910   42.5620 C   0  0  0  0  0  0  0  0  0  0  0  0
   55.5910   29.7030   43.8480 C   0  0  0  0  0  0  0  0  0  0  0  0
   56.3110   30.6820   44.6620 N   0  0  0  0  0  0  0  0  0  0  0  0
   57.2380   31.3370   43.7760 C   0  0  0  0  0  0  0  0  0  0  0  0
   58.2570   32.1990   44.4200 C   0  0  0  0  0  0  0  0  0  0  0  0
   58.4700   31.9370   45.8020 N   0  0  0  0  0  0  0  0  0  0  0  0
   58.4130   32.8140   46.8120 C   0  0  0  0  0  0  0  0  0  0  0  0
   58.1330   34.2650   46.8270 C   0  0  0  0  0  0  0  0  0  0  0  0
   59.2700   35.0960   47.1370 N   0  0  0  0  0  0  0  0  0  0  0  0
   60.5010   34.4380   47.5110 C   0  0  0  0  0  0  0  0  0  0  0  0
   60.8170   34.2180   48.8350 C   0  0  0  0  0  0  0  0  0  0  0  0
   61.9960   33.5810   49.1930 C   0  0  0  0  0  0  0  0  0  0  0  0
   62.8760   33.1560   48.2340 C   0  0  0  0  0  0  0  0  0  0  0  0
   64.1280   32.4770   48.6610 C   0  0  0  0  0  0  0  0  0  0  0  0
   62.5720   33.3720   46.8940 C   0  0  0  0  0  0  0  0  0  0  0  0
   61.3930   34.0090   46.5350 C   0  0  0  0  0  0  0  0  0  0  0  0
   58.6830   32.1280   47.9650 N   0  0  0  0  0  0  0  0  0  0  0  0
   58.9090   30.8280   47.6900 C   0  0  0  0  0  0  0  0  0  0  0  0
   59.2160   29.7780   48.5160 C   0  0  0  0  0  0  0  0  0  0  0  0
   59.3350   30.0380   49.9720 C   0  0  0  0  0  0  0  0  0  0  0  0
   59.4000   28.5330   47.9570 C   0  0  0  0  0  0  0  0  0  0  0  0
   59.2620   28.4280   46.5850 C   0  0  0  0  0  0  0  0  0  0  0  0
   59.4580   27.0870   45.9670 C   0  0  0  0  0  0  0  0  0  0  0  0
   58.9590   29.4870   45.7990 N   0  0  0  0  0  0  0  0  0  0  0  0
   58.7720   30.7230   46.3220 C   0  0  0  0  0  0  0  0  0  0  0  0
   57.2930   28.9603   42.7864 H   0  0  0  0  0  0  0  0  0  0  0  0
   55.7147   28.6691   41.9796 H   0  0  0  0  0  0  0  0  0  0  0  0
   56.4332   30.3154   41.9796 H   0  0  0  0  0  0  0  0  0  0  0  0
   54.5952   30.1051   43.6101 H   0  0  0  0  0  0  0  0  0  0  0  0
   55.5208   28.7709   44.4278 H   0  0  0  0  0  0  0  0  0  0  0  0
   56.9290   30.0610   45.2790 H   0  0  0  0  0  0  0  0  0  0  0  0
   57.7673   30.5580   43.2077 H   0  0  0  0  0  0  0  0  0  0  0  0
   56.6286   32.0119   43.1570 H   0  0  0  0  0  0  0  0  0  0  0  0
   59.2114   32.0537   43.8927 H   0  0  0  0  0  0  0  0  0  0  0  0
   57.8785   33.2297   44.3540 H   0  0  0  0  0  0  0  0  0  0  0  0
   57.7600   34.5521   45.8328 H   0  0  0  0  0  0  0  0  0  0  0  0
   57.3994   34.4310   47.6297 H   0  0  0  0  0  0  0  0  0  0  0  0
   59.2800   36.1350   47.1200 H   0  0  0  0  0  0  0  0  0  0  0  0
   60.1230   34.5530   49.6199 H   0  0  0  0  0  0  0  0  0  0  0  0
   62.2259   33.4159   50.2560 H   0  0  0  0  0  0  0  0  0  0  0  0
   64.1749   32.4515   49.7597 H   0  0  0  0  0  0  0  0  0  0  0  0
   64.1395   31.4491   48.2696 H   0  0  0  0  0  0  0  0  0  0  0  0
   64.9958   33.0281   48.2696 H   0  0  0  0  0  0  0  0  0  0  0  0
   63.2708   33.0356   46.1140 H   0  0  0  0  0  0  0  0  0  0  0  0
   61.1628   34.1755   45.4723 H   0  0  0  0  0  0  0  0  0  0  0  0
   58.9409   29.1769   50.5316 H   0  0  0  0  0  0  0  0  0  0  0  0
   60.3928   30.1911   50.2319 H   0  0  0  0  0  0  0  0  0  0  0  0
   58.7595   30.9387   50.2319 H   0  0  0  0  0  0  0  0  0  0  0  0
   59.6466   27.6580   48.5763 H   0  0  0  0  0  0  0  0  0  0  0  0
   59.5685   26.3311   46.7585 H   0  0  0  0  0  0  0  0  0  0  0  0
   58.5864   26.8399   45.3431 H   0  0  0  0  0  0  0  0  0  0  0  0
   60.3638   27.0997   45.3431 H   0  0  0  0  0  0  0  0  0  0  0  0
  1  2  1  0
  2  3  1  0
  3  4  1  0
  4  5  1  0
  5  6  1  0
  6  7  1  0
  7  8  1  0
  8  9  1  0
  9 10  1  0
 10 11  2  0
 11 12  1  0
 12 13  2  0
 13 14  1  0
 13 15  1  0
 15 16  2  0
  7 17  2  0
 17 18  1  0
 18 19  2  0
 19 20  1  0
 19 21  1  0
 21 22  2  0
 22 23  1  0
 22 24  1  0
 24 25  2  0
 25  6  1  0
 16 10  1  0
 25 18  1  0
  1 26  1  0
  1 27  1  0
  1 28  1  0
  2 29  1  0
  2 30  1  0
  3 31  1  0
  4 32  1  0
  4 33  1  0
  5 34  1  0
  5 35  1  0
  8 36  1  0
  8 37  1  0
  9 38  1  0
 11 39  1  0
 12 40  1  0
 14 41  1  0
 14 42  1  0
 14 43  1  0
 15 44  1  0
 16 45  1  0
 20 46  1  0
 20 47  1  0
 20 48  1  0
 21 49  1  0
 23 50  1  0
 23 51  1  0
 23 52  1  0
M  END
>  <smiles>  (18) 
CCNCCn1c(CNc2ccc(C)cc2)nc2c(C)cc(C)nc21

>  <score_type>  (18) 
oracle

>  <origin>  (18) 
adg

>  <m_score__min__energy>  (18) 
-7.6600000000000001

>  <m_primary>  (18) 
energy

$$$$
20:0
     RDKit          3D

 73 75  0  0  0  0  0  0  0  0999 V2000
   57.7720   21.5410   44.3060 C   0  0  0  0  0  0  0  0  0  0  0  0
   56.3610   21.9410   44.6400 C   0  0  0  0  0  0  0  0  0  0  0  0
   55.7900   22.9920   43.9530 N   0  0  0  0  0  0  0  0  0  0  0  0
   56.6110   23.6500   42.9670 C   0  0  0  0  0  0  0  0  0  0  0  0
   57.3730   24.8350   43.4080 C   0  0  0  0  0  0  0  0  0  0  0  0
   54.6670   23.7200   44.3540 C   0  0  0  0  0  0  0  0  0  0  0  0
   54.7480   24.3610   45.6860 C   0  0  0  0  0  0  0  0  0  0  0  0
   55.1440   25.5730   45.9290 O   0  0  0  0  0  0  0  0  0  0  0  0
   56.3300   26.0430   46.2980 C   0  0  0  0  0  0  0  0  0  0  0  0
   57.3610   25.2520   46.9880 C   0  0  0  0  0  0  0  0  0  0  0  0
   58.6470   26.0160   47.1290 C   0  0  0  0  0  0  0  0  0  0  0  0
   59.5820   26.0660   45.9790 C   0  0  0  0  0  0  0  0  0  0  0  0
   60.4070   27.2010   45.8350 N   0  0  0  0  0  0  0  0  0  0  0  0
   59.9380   28.2130   44.9380 C   0  0  0  0  0  0  0  0  0  0  0  0
   58.5820   27.9960   44.3570 C   0  0  0  0  0  0  0  0  0  0  0  0
   57.6480   29.1220   44.4390 C   0  0  0  0  0  0  0  0  0  0  0  0
   57.4550   29.6860   45.7780 N   0  0  0  0  0  0  0  0  0  0  0  0
   58.2580   30.6570   46.3830 C   0  0  0  0  0  0  0  0  0  0  0  0
   59.0120   30.2920   47.5040 C   0  0  0  0  0  0  0  0  0  0  0  0
   58.9420   28.9970   47.9550 C   0  0  0  0  0  0  0  0  0  0  0  0
   59.6550   28.5430   49.0650 C   0  0  0  0  0  0  0  0  0  0  0  0
   60.4480   29.4580   49.7050 C   0  0  0  0  0  0  0  0  0  0  0  0
   60.5190   30.7490   49.2580 C   0  0  0  0  0  0  0  0  0  0  0  0
   59.8150   31.2150   48.1570 C   0  0  0  0  0  0  0  0  0  0  0  0
   59.9080   32.5120   47.7430 N   0  0  0  0  0  0  0  0  0  0  0  0
   60.7260   33.4380   48.4490 C   0  0  0  0  0  0  0  0  0  0  0  0
   59.1740   32.8910   46.6460 C   0  0  0  0  0  0  0  0  0  0  0  0
   59.2080   34.1710   46.1730 C   0  0  0  0  0  0  0  0  0  0  0  0
   58.4790   34.6110   45.0720 C   0  0  0  0  0  0  0  0  0  0  0  0
   57.6840   33.6980   44.4300 C   0  0  0  0  0  0  0  0  0  0  0  0
   57.6500   32.4110   44.9040 C   0  0  0  0  0  0  0  0  0  0  0  0
   58.3740   31.9730   45.9950 C   0  0  0  0  0  0  0  0  0  0  0  0
   58.3375   21.3807   45.2358 H   0  0  0  0  0  0  0  0  0  0  0  0
   57.7602   20.6108   43.7190 H   0  0  0  0  0  0  0  0  0  0  0  0
   58.2501   22.3390   43.7190 H   0  0  0  0  0  0  0  0  0  0  0  0
   55.7256   21.0594   44.4694 H   0  0  0  0  0  0  0  0  0  0  0  0
   56.4244   22.3028   45.6769 H   0  0  0  0  0  0  0  0  0  0  0  0
   57.3348   22.9113   42.5923 H   0  0  0  0  0  0  0  0  0  0  0  0
   55.9032   24.0305   42.2158 H   0  0  0  0  0  0  0  0  0  0  0  0
   57.3947   24.8687   44.5073 H   0  0  0  0  0  0  0  0  0  0  0  0
   58.4015   24.7738   43.0227 H   0  0  0  0  0  0  0  0  0  0  0  0
   56.8906   25.7454   43.0227 H   0  0  0  0  0  0  0  0  0  0  0  0
   54.4964   24.5118   43.6098 H   0  0  0  0  0  0  0  0  0  0  0  0
   53.8505   22.9867   44.4281 H   0  0  0  0  0  0  0  0  0  0  0  0
   53.7286   24.3038   46.0953 H   0  0  0  0  0  0  0  0  0  0  0  0
   55.5933   23.8001   46.1114 H   0  0  0  0  0  0  0  0  0  0  0  0
   56.8046   26.4065   45.3746 H   0  0  0  0  0  0  0  0  0  0  0  0
   56.0345   26.7364   47.0992 H   0  0  0  0  0  0  0  0  0  0  0  0
   56.9938   24.9845   47.9898 H   0  0  0  0  0  0  0  0  0  0  0  0
   57.5612   24.3522   46.3878 H   0  0  0  0  0  0  0  0  0  0  0  0
   58.3800   27.0548   47.3730 H   0  0  0  0  0  0  0  0  0  0  0  0
   59.2027   25.4586   47.8975 H   0  0  0  0  0  0  0  0  0  0  0  0
   60.2436   25.1909   46.0593 H   0  0  0  0  0  0  0  0  0  0  0  0
   58.9252   26.0951   45.0971 H   0  0  0  0  0  0  0  0  0  0  0  0
   61.4150   26.9340   45.5810 H   0  0  0  0  0  0  0  0  0  0  0  0
   59.9203   29.1664   45.4863 H   0  0  0  0  0  0  0  0  0  0  0  0
   60.6317   28.1965   44.0845 H   0  0  0  0  0  0  0  0  0  0  0  0
   58.7102   27.7448   43.2938 H   0  0  0  0  0  0  0  0  0  0  0  0
   58.1296   27.1976   44.9636 H   0  0  0  0  0  0  0  0  0  0  0  0
   58.0242   29.9226   43.7851 H   0  0  0  0  0  0  0  0  0  0  0  0
   56.6685   28.7244   44.1349 H   0  0  0  0  0  0  0  0  0  0  0  0
   56.6340   29.3420   46.3730 H   0  0  0  0  0  0  0  0  0  0  0  0
   58.2959   28.2869   47.4180 H   0  0  0  0  0  0  0  0  0  0  0  0
   59.5837   27.5007   49.4094 H   0  0  0  0  0  0  0  0  0  0  0  0
   61.0324   29.1525   50.5854 H   0  0  0  0  0  0  0  0  0  0  0  0
   61.1675   31.4537   49.7992 H   0  0  0  0  0  0  0  0  0  0  0  0
   60.5961   33.2910   49.5314 H   0  0  0  0  0  0  0  0  0  0  0  0
   61.7802   33.2748   48.1807 H   0  0  0  0  0  0  0  0  0  0  0  0
   60.4340   34.4640   48.1807 H   0  0  0  0  0  0  0  0  0  0  0  0
   59.8496   34.8978   46.6928 H   0  0  0  0  0  0  0  0  0  0  0  0
   58.5389   35.6546   44.7294 H   0  0  0  0  0  0  0  0  0  0  0  0
   57.0864   33.9905   43.5541 H   0  0  0  0  0  0  0  0  0  0  0  0
   57.0078   31.6849   44.3840 H   0  0  0  0  0  0  0  0  0  0  0  0
  1  2  1  0
  2  3  1  0
  3  4  1  0
  4  5  1  0
  3  6  1  0
  6  7  1  0
  7  8  1  0
  8  9  1  0
  9 10  1  0
 10 11  1  0
 11 12  1  0
 12 13  1  0
 13 14  1  0
 14 15  1  0
 15 16  1  0
 16 17  1  0
 17 18  1  0
 18 19  2  0
 19 20  1  0
 20 21  2  0
 21 22  1  0
 22 23  2  0
 23 24  1  0
 24 25  2  0
 25 26  1  0
 25 27  1  0
 27 28  2  0
 28 29  1  0
 29 30  2  0
 30 31  1  0
 31 32  2  0
 32 18  1  0
 24 19  1  0
 32 27  1  0
  1 33  1  0
  1 34  1  0
  1 35  1  0
  2 36  1  0
  2 37  1  0
  4 38  1  0
  4 39  1  0
  5 40  1  0
  5 41  1  0
  5 42  1  0
  6 43  1  0
  6 44  1  0
  7 45  1  0
  7 46  1  0
  9 47  1  0
  9 48  1  0
 10 49  1  0
 10 50  1  0
 11 51  1  0
 11 52  1  0
 12 53  1  0
 12 54  1  0
 13 55  1  0
 14 56  1  0
 14 57  1  0
 15 58  1  0
 15 59  1  0
 16 60  1  0
 16 61  1  0
 17 62  1  0
 20 63  1  0
 21 64  1  0
 22 65  1  0
 23 66  1  0
 26 67  1  0
 26 68  1  0
 26 69  1  0
 28 70  1  0
 29 71  1  0
 30 72  1  0
 31 73  1  0
M  CHG  1  25   1
M  END
>  <smiles>  (19) 
CCN(CC)CCOCCCCNCCCNc1c2ccccc2[n+](C)c2ccccc12

>  <score_type>  (19) 
oracle

>  <origin>  (19) 
adg

>  <m_score__min__energy>  (19) 
-6.4199999999999999

>  <m_primary>  (19) 
energy

$$$$
21:0
     RDKit          3D

 55 56  0  0  0  0  0  0  0  0999 V2000
   56.9900   34.2420   45.2510 C   0  0  0  0  0  0  0  0  0  0  0  0
   57.4400   32.8200   44.9590 C   0  0  0  0  0  0  0  0  0  0  0  0
   57.9740   32.1840   46.1050 O   0  0  0  0  0  0  0  0  0  0  0  0
   59.2810   32.4840   46.5130 C   0  0  0  0  0  0  0  0  0  0  0  0
   59.9320   33.5800   45.9670 C   0  0  0  0  0  0  0  0  0  0  0  0
   61.2180   33.9130   46.3390 C   0  0  0  0  0  0  0  0  0  0  0  0
   61.8320   33.1090   47.2800 C   0  0  0  0  0  0  0  0  0  0  0  0
   63.1160   33.4510   47.6440 C   0  0  0  0  0  0  0  0  0  0  0  0
   63.7910   32.6910   48.5780 C   0  0  0  0  0  0  0  0  0  0  0  0
   63.1170   31.6080   49.1020 C   0  0  0  0  0  0  0  0  0  0  0  0
   61.8400   31.2540   48.7510 C   0  0  0  0  0  0  0  0  0  0  0  0
   61.1750   32.0190   47.8190 C   0  0  0  0  0  0  0  0  0  0  0  0
   59.9090   31.6720   47.4670 C   0  0  0  0  0  0  0  0  0  0  0  0
   59.1320   30.5390   47.9790 C   0  0  0  0  0  0  0  0  0  0  0  0
   59.1180   29.4240   47.0610 N   0  0  0  0  0  0  0  0  0  0  0  0
   58.3750   28.2980   47.5480 C   0  0  0  0  0  0  0  0  0  0  0  0
   59.0960   26.9960   47.5120 C   0  0  0  0  0  0  0  0  0  0  0  0
   60.4690   29.1020   46.7010 C   0  0  0  0  0  0  0  0  0  0  0  0
   60.7010   28.9920   45.2100 C   0  0  0  0  0  0  0  0  0  0  0  0
   59.3950   28.7600   44.4960 C   0  0  0  0  0  0  0  0  0  0  0  0
   59.2490   27.7270   43.7620 O   0  0  0  0  0  0  0  0  0  0  0  0
   58.3290   29.6880   44.6400 N   0  0  0  0  0  0  0  0  0  0  0  0
   57.1040   29.4250   43.9410 C   0  0  0  0  0  0  0  0  0  0  0  0
   56.8250   30.4360   42.8380 C   0  0  0  0  0  0  0  0  0  0  0  0
   55.9070   29.3940   44.8690 C   0  0  0  0  0  0  0  0  0  0  0  0
   56.9416   34.3951   46.3392 H   0  0  0  0  0  0  0  0  0  0  0  0
   57.7077   34.9510   44.8126 H   0  0  0  0  0  0  0  0  0  0  0  0
   55.9951   34.4091   44.8126 H   0  0  0  0  0  0  0  0  0  0  0  0
   56.5755   32.2407   44.6024 H   0  0  0  0  0  0  0  0  0  0  0  0
   58.2321   32.8654   44.1971 H   0  0  0  0  0  0  0  0  0  0  0  0
   59.4112   34.1977   45.2205 H   0  0  0  0  0  0  0  0  0  0  0  0
   61.7331   34.7824   45.9045 H   0  0  0  0  0  0  0  0  0  0  0  0
   63.6022   34.3278   47.1914 H   0  0  0  0  0  0  0  0  0  0  0  0
   64.8169   32.9373   48.8892 H   0  0  0  0  0  0  0  0  0  0  0  0
   63.6367   30.9894   49.8485 H   0  0  0  0  0  0  0  0  0  0  0  0
   61.3563   30.3764   49.2048 H   0  0  0  0  0  0  0  0  0  0  0  0
   59.5739   30.2082   48.9305 H   0  0  0  0  0  0  0  0  0  0  0  0
   58.0938   30.8767   48.1139 H   0  0  0  0  0  0  0  0  0  0  0  0
   58.0940   28.5020   48.5917 H   0  0  0  0  0  0  0  0  0  0  0  0
   57.5135   28.1873   46.8731 H   0  0  0  0  0  0  0  0  0  0  0  0
   59.2857   26.6534   48.5399 H   0  0  0  0  0  0  0  0  0  0  0  0
   58.4818   26.2512   46.9847 H   0  0  0  0  0  0  0  0  0  0  0  0
   60.0532   27.1214   46.9847 H   0  0  0  0  0  0  0  0  0  0  0  0
   61.1287   29.8885   47.0962 H   0  0  0  0  0  0  0  0  0  0  0  0
   60.6843   28.1121   47.1296 H   0  0  0  0  0  0  0  0  0  0  0  0
   61.1550   29.9244   44.8432 H   0  0  0  0  0  0  0  0  0  0  0  0
   61.3733   28.1440   45.0130 H   0  0  0  0  0  0  0  0  0  0  0  0
   58.4330   30.5330   45.2350 H   0  0  0  0  0  0  0  0  0  0  0  0
   57.2476   28.4318   43.4906 H   0  0  0  0  0  0  0  0  0  0  0  0
   56.5579   31.4040   43.2869 H   0  0  0  0  0  0  0  0  0  0  0  0
   57.7235   30.5562   42.2150 H   0  0  0  0  0  0  0  0  0  0  0  0
   55.9920   30.0784   42.2150 H   0  0  0  0  0  0  0  0  0  0  0  0
   56.2524   29.4029   45.9133 H   0  0  0  0  0  0  0  0  0  0  0  0
   55.2765   30.2761   44.6837 H   0  0  0  0  0  0  0  0  0  0  0  0
   55.3230   28.4804   44.6837 H   0  0  0  0  0  0  0  0  0  0  0  0
  1  2  1  0
  2  3  1  0
  3  4  1  0
  4  5  2  0
  5  6  1  0
  6  7  2  0
  7  8  1  0
  8  9  2  0
  9 10  1  0
 10 11  2  0
 11 12  1  0
 12 13  2  0
 13 14  1  0
 14 15  1  0
 15 16  1  0
 16 17  1  0
 15 18  1  0
 18 19  1  0
 19 20  1  0
 20 21  2  0
 20 22  1  0
 22 23  1  0
 23 24  1  0
 23 25  1  0
 13  4  1  0
 12  7  1  0
  1 26  1  0
  1 27  1  0
  1 28  1  0
  2 29  1  0
  2 30  1  0
  5 31  1  0
  6 32  1  0
  8 33  1  0
  9 34  1  0
 10 35  1  0
 11 36  1  0
 14 37  1  0
 14 38  1  0
 16 39  1  0
 16 40  1  0
 17 41  1  0
 17 42  1  0
 17 43  1  0
 18 44  1  0
 18 45  1  0
 19 46  1  0
 19 47  1  0
 22 48  1  0
 23 49  1  0
 24 50  1  0
 24 51  1  0
 24 52  1  0
 25 53  1  0
 25 54  1  0
 25 55  1  0
M  END
>  <smiles>  (20) 
CCOc1ccc2ccccc2c1CN(CC)CCC(=O)NC(C)C

>  <score_type>  (20) 
oracle

>  <origin>  (20) 
adg

>  <m_score__min__energy>  (20) 
-6.9100000000000001

>  <m_primary>  (20) 
energy

$$$$
