0:0
     RDKit          3D

 53 56  0  0  0  0  0  0  0  0999 V2000
   59.5580   30.1970   45.9160 C   0  0  0  0  0  0  0  0  0  0  0  0
   58.0470   29.9380   45.8200 C   0  0  0  0  0  0  0  0  0  0  0  0
   57.2790   31.0660   45.2450 N   0  0  0  0  0  0  0  0  0  0  0  0
   56.3650   30.6300   44.1740 C   0  0  0  0  0  0  0  0  0  0  0  0
   58.1440   32.1880   44.8200 C   0  0  0  0  0  0  0  0  0  0  0  0
   57.5260   33.5470   45.1890 C   0  0  0  0  0  0  0  0  0  0  0  0
   57.7820   33.9570   46.6460 C   0  0  0  0  0  0  0  0  0  0  0  0
   58.2560   32.8210   47.4350 N   0  0  0  0  0  0  0  0  0  0  0  0
   59.2680   32.9790   48.4420 C   0  0  0  0  0  0  0  0  0  0  0  0
   60.6130   33.2690   48.1160 C   0  0  0  0  0  0  0  0  0  0  0  0
   61.0140   33.4290   46.7750 C   0  0  0  0  0  0  0  0  0  0  0  0
   62.3470   33.6750   46.4550 C   0  0  0  0  0  0  0  0  0  0  0  0
   63.3040   33.7570   47.4600 C   0  0  0  0  0  0  0  0  0  0  0  0
   62.9360   33.6220   48.7980 C   0  0  0  0  0  0  0  0  0  0  0  0
   61.5860   33.4120   49.1660 C   0  0  0  0  0  0  0  0  0  0  0  0
   61.1990   33.3230   50.4960 N   0  0  0  0  0  0  0  0  0  0  0  0
   62.0950   33.7270   51.5920 C   0  0  0  0  0  0  0  0  0  0  0  0
   59.9190   32.9120   50.7680 C   0  0  0  0  0  0  0  0  0  0  0  0
   58.9630   32.7750   49.7840 C   0  0  0  0  0  0  0  0  0  0  0  0
   57.7810   32.3630   50.2930 N   0  0  0  0  0  0  0  0  0  0  0  0
   57.9960   32.2220   51.6150 C   0  0  0  0  0  0  0  0  0  0  0  0
   57.0780   31.7590   52.5560 C   0  0  0  0  0  0  0  0  0  0  0  0
   57.5120   31.5980   53.8820 C   0  0  0  0  0  0  0  0  0  0  0  0
   58.8480   31.8740   54.2330 C   0  0  0  0  0  0  0  0  0  0  0  0
   59.7620   32.3310   53.2670 C   0  0  0  0  0  0  0  0  0  0  0  0
   59.3000   32.5330   51.9590 C   0  0  0  0  0  0  0  0  0  0  0  0
   59.8548   30.2479   46.9740 H   0  0  0  0  0  0  0  0  0  0  0  0
   60.1024   29.3791   45.4214 H   0  0  0  0  0  0  0  0  0  0  0  0
   59.7989   31.1495   45.4214 H   0  0  0  0  0  0  0  0  0  0  0  0
   57.8872   29.0524   45.1875 H   0  0  0  0  0  0  0  0  0  0  0  0
   57.6822   29.7951   46.8479 H   0  0  0  0  0  0  0  0  0  0  0  0
   55.4575   30.1971   44.6201 H   0  0  0  0  0  0  0  0  0  0  0  0
   56.0910   31.4944   43.5513 H   0  0  0  0  0  0  0  0  0  0  0  0
   56.8644   29.8731   43.5513 H   0  0  0  0  0  0  0  0  0  0  0  0
   59.1214   32.0934   45.3156 H   0  0  0  0  0  0  0  0  0  0  0  0
   58.2537   32.1442   43.7264 H   0  0  0  0  0  0  0  0  0  0  0  0
   57.9552   34.3159   44.5297 H   0  0  0  0  0  0  0  0  0  0  0  0
   56.4371   33.4535   45.0642 H   0  0  0  0  0  0  0  0  0  0  0  0
   58.5420   34.7520   46.6677 H   0  0  0  0  0  0  0  0  0  0  0  0
   56.8369   34.3150   47.0803 H   0  0  0  0  0  0  0  0  0  0  0  0
   57.9820   31.8580   47.1390 H   0  0  0  0  0  0  0  0  0  0  0  0
   60.2659   33.3589   45.9716 H   0  0  0  0  0  0  0  0  0  0  0  0
   62.6435   33.8048   45.4037 H   0  0  0  0  0  0  0  0  0  0  0  0
   64.3583   33.9295   47.1979 H   0  0  0  0  0  0  0  0  0  0  0  0
   63.7075   33.6797   49.5800 H   0  0  0  0  0  0  0  0  0  0  0  0
   61.6143   33.5103   52.5574 H   0  0  0  0  0  0  0  0  0  0  0  0
   63.0393   33.1675   51.5188 H   0  0  0  0  0  0  0  0  0  0  0  0
   62.3009   34.8051   51.5188 H   0  0  0  0  0  0  0  0  0  0  0  0
   56.9010   32.1430   49.7740 H   0  0  0  0  0  0  0  0  0  0  0  0
   56.0422   31.5261   52.2681 H   0  0  0  0  0  0  0  0  0  0  0  0
   56.8045   31.2544   54.6510 H   0  0  0  0  0  0  0  0  0  0  0  0
   59.1793   31.7308   55.2721 H   0  0  0  0  0  0  0  0  0  0  0  0
   60.8121   32.5249   53.5308 H   0  0  0  0  0  0  0  0  0  0  0  0
  1  2  1  0
  2  3  1  0
  3  4  1  0
  3  5  1  0
  5  6  1  0
  6  7  1  0
  7  8  1  0
  8  9  1  0
  9 10  2  0
 10 11  1  0
 11 12  2  0
 12 13  1  0
 13 14  2  0
 14 15  1  0
 15 16  2  0
 16 17  1  0
 16 18  1  0
 18 19  2  0
 19 20  1  0
 20 21  1  0
 21 22  2  0
 22 23  1  0
 23 24  2  0
 24 25  1  0
 25 26  2  0
 19  9  1  0
 26 21  1  0
 15 10  1  0
 26 18  1  0
  1 27  1  0
  1 28  1  0
  1 29  1  0
  2 30  1  0
  2 31  1  0
  4 32  1  0
  4 33  1  0
  4 34  1  0
  5 35  1  0
  5 36  1  0
  6 37  1  0
  6 38  1  0
  7 39  1  0
  7 40  1  0
  8 41  1  0
 11 42  1  0
 12 43  1  0
 13 44  1  0
 14 45  1  0
 17 46  1  0
 17 47  1  0
 17 48  1  0
 20 49  1  0
 22 50  1  0
 23 51  1  0
 24 52  1  0
 25 53  1  0
M  CHG  1  16   1
M  END
>  <UniqueID>  (1) 
1

>  <SMILES>  (1) 
CCN(C)CCCNc1c2ccccc2[n+](C)c2c1[nH]c1ccccc12

>  <Energy>  (1) 
115.11401148115135

>  <Genealogy>  (1) 
CCN(C)CCCNc1c2ccccc2[n+](C)c2c1[nH]c1ccccc12 (3D coordinates assigned)
CCN(C)CCCNc1c2ccccc2[n+](C)c2c1[nH]c1ccccc12 (optimized conformer: 115.11401148115135 kcal/mol)

>  <smiles>  (1) 
CCN(C)CCCNc1c2ccccc2[n+](C)c2c1[nH]c1ccccc12

>  <score_type>  (1) 
oracle

>  <origin>  (1) 
adg

>  <m_score__min__energy>  (1) 
-6.2800000000000002

>  <m_primary>  (1) 
energy

$$$$
1:0
     RDKit          3D

 41 42  0  0  0  0  0  0  0  0999 V2000
   58.1500   27.0240   43.0890 C   0  0  0  0  0  0  0  0  0  0  0  0
   57.3930   28.2720   42.9650 N   0  0  0  0  0  0  0  0  0  0  0  0
   57.3320   28.9460   44.2380 C   0  0  0  0  0  0  0  0  0  0  0  0
   57.0170   28.0770   45.5960 S   0  0  0  0  0  0  0  0  0  0  0  0
   57.7480   30.3150   44.3820 N   0  0  0  0  0  0  0  0  0  0  0  0
   57.8010   31.2810   43.2830 C   0  0  0  0  0  0  0  0  0  0  0  0
   57.4170   32.6970   43.7470 C   0  0  0  0  0  0  0  0  0  0  0  0
   57.3900   32.8530   45.2770 C   0  0  0  0  0  0  0  0  0  0  0  0
   58.6510   33.4710   45.8030 C   0  0  0  0  0  0  0  0  0  0  0  0
   59.0430   34.7900   45.6980 C   0  0  0  0  0  0  0  0  0  0  0  0
   60.2000   34.9600   46.3650 N   0  0  0  0  0  0  0  0  0  0  0  0
   60.5530   33.7900   46.8820 N   0  0  0  0  0  0  0  0  0  0  0  0
   61.7240   33.6040   47.7020 C   0  0  0  0  0  0  0  0  0  0  0  0
   61.6720   33.7660   49.1000 C   0  0  0  0  0  0  0  0  0  0  0  0
   62.8190   33.5860   49.8790 C   0  0  0  0  0  0  0  0  0  0  0  0
   64.0340   33.2270   49.2800 C   0  0  0  0  0  0  0  0  0  0  0  0
   65.2720   33.0750   50.1140 C   0  0  0  0  0  0  0  0  0  0  0  0
   64.0970   33.0770   47.8880 C   0  0  0  0  0  0  0  0  0  0  0  0
   62.9510   33.2560   47.1070 C   0  0  0  0  0  0  0  0  0  0  0  0
   59.6290   32.8590   46.5570 C   0  0  0  0  0  0  0  0  0  0  0  0
   58.2939   26.7867   44.1534 H   0  0  0  0  0  0  0  0  0  0  0  0
   57.5943   26.2083   42.6034 H   0  0  0  0  0  0  0  0  0  0  0  0
   59.1302   27.1399   42.6034 H   0  0  0  0  0  0  0  0  0  0  0  0
   56.4250   28.0510   42.6350 H   0  0  0  0  0  0  0  0  0  0  0  0
   57.8410   28.8780   42.2450 H   0  0  0  0  0  0  0  0  0  0  0  0
   58.0220   30.6540   45.3310 H   0  0  0  0  0  0  0  0  0  0  0  0
   58.8236   31.3041   42.8784 H   0  0  0  0  0  0  0  0  0  0  0  0
   57.0789   30.9654   42.5156 H   0  0  0  0  0  0  0  0  0  0  0  0
   58.1488   33.4086   43.3370 H   0  0  0  0  0  0  0  0  0  0  0  0
   56.3975   32.8923   43.3830 H   0  0  0  0  0  0  0  0  0  0  0  0
   56.5392   33.4931   45.5534 H   0  0  0  0  0  0  0  0  0  0  0  0
   57.2945   31.8499   45.7183 H   0  0  0  0  0  0  0  0  0  0  0  0
   58.4974   35.5766   45.1561 H   0  0  0  0  0  0  0  0  0  0  0  0
   60.7214   34.0363   49.5829 H   0  0  0  0  0  0  0  0  0  0  0  0
   62.7674   33.7270   50.9687 H   0  0  0  0  0  0  0  0  0  0  0  0
   65.0024   33.1081   51.1799 H   0  0  0  0  0  0  0  0  0  0  0  0
   65.7512   32.1113   49.8867 H   0  0  0  0  0  0  0  0  0  0  0  0
   65.9701   33.8942   49.8867 H   0  0  0  0  0  0  0  0  0  0  0  0
   65.0520   32.8174   47.4078 H   0  0  0  0  0  0  0  0  0  0  0  0
   63.0091   33.1235   46.0166 H   0  0  0  0  0  0  0  0  0  0  0  0
   59.6532   31.7974   46.8442 H   0  0  0  0  0  0  0  0  0  0  0  0
  1  2  1  0
  2  3  1  0
  3  4  2  0
  3  5  1  0
  5  6  1  0
  6  7  1  0
  7  8  1  0
  8  9  1  0
  9 10  1  0
 10 11  2  0
 11 12  1  0
 12 13  1  0
 13 14  2  0
 14 15  1  0
 15 16  2  0
 16 17  1  0
 16 18  1  0
 18 19  2  0
 12 20  1  0
 20  9  2  0
 19 13  1  0
  1 21  1  0
  1 22  1  0
  1 23  1  0
  2 24  1  0
  2 25  1  0
  5 26  1  0
  6 27  1  0
  6 28  1  0
  7 29  1  0
  7 30  1  0
  8 31  1  0
  8 32  1  0
 10 33  1  0
 14 34  1  0
 15 35  1  0
 17 36  1  0
 17 37  1  0
 17 38  1  0
 18 39  1  0
 19 40  1  0
 20 41  1  0
M  CHG  1   2   1
M  END
>  <UniqueID>  (2) 
2

>  <SMILES>  (2) 
C[NH2+]C(=S)NCCCc1cnn(-c2ccc(C)cc2)c1

>  <Energy>  (2) 
64.23961084506011

>  <Genealogy>  (2) 
C[NH2+]C(=S)NCCCc1cnn(-c2ccc(C)cc2)c1 (protonated)
C[NH2+]C(=S)NCCCc1cnn(-c2ccc(C)cc2)c1 (3D coordinates assigned)
C[NH2+]C(=S)NCCCc1cnn(-c2ccc(C)cc2)c1 (optimized conformer: 64.23961084506011 kcal/mol)

>  <smiles>  (2) 
CNC(=S)NCCCc1cnn(-c2ccc(C)cc2)c1

>  <score_type>  (2) 
oracle

>  <origin>  (2) 
adg

>  <m_score__min__energy>  (2) 
-6.0999999999999996

>  <m_primary>  (2) 
energy

$$$$
2:0
     RDKit          3D

 46 49  0  0  1  0  0  0  0  0999 V2000
   56.1090   24.2850   44.7870 C   0  0  0  0  0  0  0  0  0  0  0  0
   55.5050   24.9010   46.0070 C   0  0  0  0  0  0  0  0  0  0  0  0
   55.6420   26.3230   45.9650 N   0  0  0  0  0  0  0  0  0  0  0  0
   56.9120   26.8380   46.3780 C   0  0  0  0  0  0  0  0  0  0  0  0
   57.8060   27.2450   45.1980 C   0  0  0  0  0  0  0  0  0  0  0  0
   57.6180   28.6540   44.8640 N   0  0  0  0  0  0  0  0  0  0  0  0
   56.9250   29.0220   43.7600 C   0  0  0  0  0  0  0  0  0  0  0  0
   56.9220   30.4010   43.7080 C   0  0  0  0  0  0  0  0  0  0  0  0
   57.6200   30.8270   44.7930 C   0  0  0  0  0  0  0  0  0  0  0  0
   57.9220   32.0870   45.2260 C   0  0  0  0  0  0  0  0  0  0  0  0
   57.4990   33.1670   44.5260 N   0  0  0  0  0  0  0  0  0  0  0  0
   57.7760   34.4260   44.9230 C   0  0  0  0  0  0  0  0  0  0  0  0
   58.5000   34.5830   46.0610 N   0  0  0  0  0  0  0  0  0  0  0  0
   58.9320   33.5330   46.7740 C   0  0  0  0  0  0  0  0  0  0  0  0
   59.6190   33.8030   47.8560 N   0  0  0  0  0  0  0  0  0  0  0  0
   61.0570   33.7040   47.8030 C   0  0  0  0  0  0  0  0  0  0  0  0
   61.6020   33.8710   46.5270 C   0  0  0  0  0  0  0  0  0  0  0  0
   62.9710   33.7970   46.3720 C   0  0  0  0  0  0  0  0  0  0  0  0
   63.7570   33.5590   47.4850 C   0  0  0  0  0  0  0  0  0  0  0  0
   63.2070   33.3950   48.7460 C   0  0  0  0  0  0  0  0  0  0  0  0
   64.3360   33.0700   50.2430 Br  0  0  0  0  0  0  0  0  0  0  0  0
   61.8280   33.4690   48.9020 C   0  0  0  0  0  0  0  0  0  0  0  0
   58.6600   32.2350   46.3850 C   0  0  0  0  0  0  0  0  0  0  0  0
   59.1120   31.1740   47.1330 C   0  0  0  0  0  0  0  0  0  0  0  0
   58.7900   29.9040   46.6670 C   0  0  0  0  0  0  0  0  0  0  0  0
   58.0580   29.7440   45.5160 C   0  0  0  0  0  0  0  0  0  0  0  0
   56.8501   23.5292   45.0864 H   0  0  0  0  0  0  0  0  0  0  0  0
   55.3195   23.8073   44.1882 H   0  0  0  0  0  0  0  0  0  0  0  0
   56.6021   25.0650   44.1882 H   0  0  0  0  0  0  0  0  0  0  0  0
   54.4373   24.6407   46.0542 H   0  0  0  0  0  0  0  0  0  0  0  0
   56.0263   24.5177   46.8966 H   0  0  0  0  0  0  0  0  0  0  0  0
   55.4010   26.7150   45.0430 H   0  0  0  0  0  0  0  0  0  0  0  0
   56.7430   27.7216   47.0110 H   0  0  0  0  0  0  0  0  0  0  0  0
   57.4311   26.0359   46.9232 H   0  0  0  0  0  0  0  0  0  0  0  0
   58.8587   27.0763   45.4687 H   0  0  0  0  0  0  0  0  0  0  0  0
   57.5322   26.6368   44.3233 H   0  0  0  0  0  0  0  0  0  0  0  0
   56.4502   28.3440   43.0355 H   0  0  0  0  0  0  0  0  0  0  0  0
   56.4484   31.0305   42.9403 H   0  0  0  0  0  0  0  0  0  0  0  0
   56.9420   33.0230   43.6510 H   0  0  0  0  0  0  0  0  0  0  0  0
   57.4277   35.2949   44.3453 H   0  0  0  0  0  0  0  0  0  0  0  0
   60.9504   34.0583   45.6607 H   0  0  0  0  0  0  0  0  0  0  0  0
   63.4295   33.9251   45.3803 H   0  0  0  0  0  0  0  0  0  0  0  0
   64.8488   33.4983   47.3657 H   0  0  0  0  0  0  0  0  0  0  0  0
   61.3679   33.3405   49.8929 H   0  0  0  0  0  0  0  0  0  0  0  0
   59.6978   31.3218   48.0522 H   0  0  0  0  0  0  0  0  0  0  0  0
   59.1252   29.0180   47.2262 H   0  0  0  0  0  0  0  0  0  0  0  0
  1  2  1  0
  2  3  1  0
  3  4  1  0
  4  5  1  0
  5  6  1  0
  6  7  1  0
  7  8  2  0
  8  9  1  0
  9 10  2  0
 10 11  1  0
 11 12  1  0
 12 13  2  0
 13 14  1  0
 14 15  2  0
 15 16  1  0
 16 17  2  0
 17 18  1  0
 18 19  2  0
 19 20  1  0
 20 21  1  0
 20 22  2  0
 14 23  1  0
 23 24  2  0
 24 25  1  0
 25 26  2  0
 26  6  1  0
 26  9  1  0
 23 10  1  0
 22 16  1  0
  1 27  1  0
  1 28  1  0
  1 29  1  0
  2 30  1  0
  2 31  1  0
  3 32  1  0
  4 33  1  0
  4 34  1  0
  5 35  1  0
  5 36  1  0
  7 37  1  0
  8 38  1  0
 11 39  1  0
 12 40  1  0
 17 41  1  0
 18 42  1  0
 19 43  1  0
 22 44  1  0
 24 45  1  0
 25 46  1  0
M  END
>  <smiles>  (3) 
CCNCCn1ccc2c3[nH]cnc(=Nc4cccc(Br)c4)c3ccc21

>  <score_type>  (3) 
oracle

>  <origin>  (3) 
adg

>  <m_score__min__energy>  (3) 
-9.0999999999999996

>  <m_primary>  (3) 
energy

$$$$
3:0
     RDKit          3D

 53 55  0  0  0  0  0  0  0  0999 V2000
   57.8640   33.8630   46.1410 C   0  0  0  0  0  0  0  0  0  0  0  0
   57.4130   33.0140   44.9570 C   0  0  0  0  0  0  0  0  0  0  0  0
   57.0810   31.6920   45.3810 O   0  0  0  0  0  0  0  0  0  0  0  0
   57.1510   30.5300   44.5910 C   0  0  0  0  0  0  0  0  0  0  0  0
   56.4450   30.4100   43.3760 C   0  0  0  0  0  0  0  0  0  0  0  0
   56.5670   29.2570   42.5970 C   0  0  0  0  0  0  0  0  0  0  0  0
   57.3920   28.2140   43.0150 C   0  0  0  0  0  0  0  0  0  0  0  0
   58.0940   28.3150   44.2160 C   0  0  0  0  0  0  0  0  0  0  0  0
   57.9760   29.4650   45.0180 C   0  0  0  0  0  0  0  0  0  0  0  0
   58.7190   29.5370   46.2980 C   0  0  0  0  0  0  0  0  0  0  0  0
   58.8380   28.4060   47.1180 C   0  0  0  0  0  0  0  0  0  0  0  0
   59.5420   28.4780   48.3200 C   0  0  0  0  0  0  0  0  0  0  0  0
   60.1530   29.6690   48.7250 C   0  0  0  0  0  0  0  0  0  0  0  0
   60.0540   30.8170   47.8990 C   0  0  0  0  0  0  0  0  0  0  0  0
   59.3290   30.7360   46.6970 C   0  0  0  0  0  0  0  0  0  0  0  0
   60.5980   32.1370   48.2940 C   0  0  0  0  0  0  0  0  0  0  0  0
   60.7160   33.0080   47.3850 O   0  0  0  0  0  0  0  0  0  0  0  0
   61.1080   32.3940   49.6380 N   0  0  1  0  0  0  0  0  0  0  0  0
   61.4170   33.8380   49.8440 C   0  0  0  0  0  0  0  0  0  0  0  0
   62.8500   34.2280   49.4090 C   0  0  0  0  0  0  0  0  0  0  0  0
   63.5410   33.0830   48.7780 N   0  0  0  0  0  0  0  0  0  0  0  0
   64.8380   32.8520   49.4340 C   0  0  0  0  0  0  0  0  0  0  0  0
   63.7560   33.3200   47.3390 C   0  0  0  0  0  0  0  0  0  0  0  0
   60.2020   31.8700   50.6950 C   0  0  0  0  0  0  0  0  0  0  0  0
   60.5170   30.4210   51.0990 C   0  0  0  0  0  0  0  0  0  0  0  0
   60.8450   29.6500   49.9480 O   0  0  0  0  0  0  0  0  0  0  0  0
   57.5947   33.3561   47.0794 H   0  0  0  0  0  0  0  0  0  0  0  0
   58.9545   34.0013   46.0988 H   0  0  0  0  0  0  0  0  0  0  0  0
   57.3681   34.8440   46.0988 H   0  0  0  0  0  0  0  0  0  0  0  0
   56.5286   33.4781   44.4961 H   0  0  0  0  0  0  0  0  0  0  0  0
   58.2363   32.9557   44.2299 H   0  0  0  0  0  0  0  0  0  0  0  0
   55.7937   31.2301   43.0395 H   0  0  0  0  0  0  0  0  0  0  0  0
   56.0109   29.1719   41.6517 H   0  0  0  0  0  0  0  0  0  0  0  0
   57.4896   27.3096   42.3965 H   0  0  0  0  0  0  0  0  0  0  0  0
   58.7450   27.4891   44.5387 H   0  0  0  0  0  0  0  0  0  0  0  0
   58.3738   27.4569   46.8118 H   0  0  0  0  0  0  0  0  0  0  0  0
   59.6177   27.5854   48.9584 H   0  0  0  0  0  0  0  0  0  0  0  0
   59.2385   31.6274   46.0588 H   0  0  0  0  0  0  0  0  0  0  0  0
   62.0100   31.8650   49.7040 H   0  0  0  0  0  0  0  0  0  0  0  0
   60.7008   34.4346   49.2600 H   0  0  0  0  0  0  0  0  0  0  0  0
   61.3401   34.0358   50.9233 H   0  0  0  0  0  0  0  0  0  0  0  0
   62.7943   35.0567   48.6878 H   0  0  0  0  0  0  0  0  0  0  0  0
   63.4172   34.5319   50.3012 H   0  0  0  0  0  0  0  0  0  0  0  0
   64.7060   32.8755   50.5258 H   0  0  0  0  0  0  0  0  0  0  0  0
   65.2312   31.8697   49.1333 H   0  0  0  0  0  0  0  0  0  0  0  0
   65.5462   33.6382   49.1333 H   0  0  0  0  0  0  0  0  0  0  0  0
   64.4897   34.1288   47.2062 H   0  0  0  0  0  0  0  0  0  0  0  0
   64.1346   32.4006   46.8685 H   0  0  0  0  0  0  0  0  0  0  0  0
   62.8042   33.6075   46.8685 H   0  0  0  0  0  0  0  0  0  0  0  0
   60.2966   32.5095   51.5850 H   0  0  0  0  0  0  0  0  0  0  0  0
   59.1813   31.8804   50.2851 H   0  0  0  0  0  0  0  0  0  0  0  0
   61.3686   30.4148   51.7952 H   0  0  0  0  0  0  0  0  0  0  0  0
   59.6321   29.9832   51.5841 H   0  0  0  0  0  0  0  0  0  0  0  0
  1  2  1  0
  2  3  1  0
  3  4  1  0
  4  5  2  0
  5  6  1  0
  6  7  2  0
  7  8  1  0
  8  9  2  0
  9 10  1  0
 10 11  2  0
 11 12  1  0
 12 13  2  0
 13 14  1  0
 14 15  2  0
 14 16  1  0
 16 17  2  0
 16 18  1  0
 18 19  1  0
 19 20  1  0
 20 21  1  0
 21 22  1  0
 21 23  1  0
 18 24  1  0
 24 25  1  0
 25 26  1  0
  9  4  1  0
 15 10  1  0
 26 13  1  0
  1 27  1  0
  1 28  1  0
  1 29  1  0
  2 30  1  0
  2 31  1  0
  5 32  1  0
  6 33  1  0
  7 34  1  0
  8 35  1  0
 11 36  1  0
 12 37  1  0
 15 38  1  0
 18 39  1  6
 19 40  1  0
 19 41  1  0
 20 42  1  0
 20 43  1  0
 22 44  1  0
 22 45  1  0
 22 46  1  0
 23 47  1  0
 23 48  1  0
 23 49  1  0
 24 50  1  0
 24 51  1  0
 25 52  1  0
 25 53  1  0
M  CHG  1  18   1
M  END
>  <UniqueID>  (4) 
3

>  <SMILES>  (4) 
CCOc1ccccc1-c1ccc2c(c1)C(=O)[N@@H+](CCN(C)C)CCO2

>  <Energy>  (4) 
80.48003982062276

>  <Genealogy>  (4) 
CCOc1ccccc1-c1ccc2c(c1)C(=O)[NH+](CCN(C)C)CCO2 (protonated)
CCOc1ccccc1-c1ccc2c(c1)C(=O)[N@@H+](CCN(C)C)CCO2 (chirality)
CCOc1ccccc1-c1ccc2c(c1)C(=O)[N@@H+](CCN(C)C)CCO2 (3D coordinates assigned)
CCOc1ccccc1-c1ccc2c(c1)C(=O)[N@@H+](CCN(C)C)CCO2 (nonaromatic ring conformer: 80.48003982062276 kcal/mol)

>  <smiles>  (4) 
CCOc1ccccc1-c1ccc2c(c1)C(=O)N(CCN(C)C)CCO2

>  <score_type>  (4) 
oracle

>  <origin>  (4) 
adg

>  <m_score__min__energy>  (4) 
-4.6699999999999999

>  <m_primary>  (4) 
energy

$$$$
4:0
     RDKit          3D

 62 65  0  0  0  0  0  0  0  0999 V2000
   60.4980   30.4940   48.4790 C   0  0  0  0  0  0  0  0  0  0  0  0
   60.6500   29.6490   47.2190 C   0  0  0  0  0  0  0  0  0  0  0  0
   59.3680   29.5720   46.4890 N   0  0  0  0  0  0  0  0  0  0  0  0
   58.9310   30.6430   45.7370 C   0  0  0  0  0  0  0  0  0  0  0  0
   59.6460   31.6830   45.6590 O   0  0  0  0  0  0  0  0  0  0  0  0
   57.7270   30.5940   45.0570 N   0  0  0  0  0  0  0  0  0  0  0  0
   57.2530   31.7810   44.3110 C   0  0  0  0  0  0  0  0  0  0  0  0
   57.0070   32.9830   45.2420 C   0  0  0  0  0  0  0  0  0  0  0  0
   58.0820   34.0880   45.1620 C   0  0  0  0  0  0  0  0  0  0  0  0
   58.5500   34.6180   46.5370 C   0  0  0  0  0  0  0  0  0  0  0  0
   60.0550   34.4380   46.8020 C   0  0  0  0  0  0  0  0  0  0  0  0
   60.3780   34.0550   48.2290 C   0  0  0  0  0  0  0  0  0  0  0  0
   59.4400   33.9190   49.0620 O   0  0  0  0  0  0  0  0  0  0  0  0
   61.7340   33.7960   48.6460 N   0  0  0  0  0  0  0  0  0  0  0  0
   62.0670   33.9480   50.0720 C   0  0  0  0  0  0  0  0  0  0  0  0
   63.5790   33.9360   50.2980 C   0  0  0  0  0  0  0  0  0  0  0  0
   64.1670   32.7830   49.6110 N   0  0  0  0  0  0  0  0  0  0  0  0
   64.9760   31.8430   50.3390 C   0  0  0  0  0  0  0  0  0  0  0  0
   64.3710   30.7690   51.0110 C   0  0  0  0  0  0  0  0  0  0  0  0
   65.1520   29.8370   51.7030 C   0  0  0  0  0  0  0  0  0  0  0  0
   66.5430   29.9720   51.7290 C   0  0  0  0  0  0  0  0  0  0  0  0
   67.1550   31.0410   51.0660 C   0  0  0  0  0  0  0  0  0  0  0  0
   66.3770   31.9750   50.3720 C   0  0  0  0  0  0  0  0  0  0  0  0
   66.9870   33.0250   49.7660 F   0  0  0  0  0  0  0  0  0  0  0  0
   63.7960   32.4860   48.2200 C   0  0  0  0  0  0  0  0  0  0  0  0
   62.7940   33.5080   47.6640 C   0  0  0  0  0  0  0  0  0  0  0  0
   56.9780   29.4430   45.0740 C   0  0  0  0  0  0  0  0  0  0  0  0
   55.8980   29.3550   44.4310 O   0  0  0  0  0  0  0  0  0  0  0  0
   57.4280   28.3620   45.8080 C   0  0  0  0  0  0  0  0  0  0  0  0
   56.7260   26.8490   45.9960 S   0  0  0  0  0  0  0  0  0  0  0  0
   57.9470   26.2420   46.9900 C   0  0  0  0  0  0  0  0  0  0  0  0
   58.9130   27.2270   47.1780 C   0  0  0  0  0  0  0  0  0  0  0  0
   58.6120   28.4290   46.5080 C   0  0  0  0  0  0  0  0  0  0  0  0
   60.6132   29.8537   49.3660 H   0  0  0  0  0  0  0  0  0  0  0  0
   61.2695   31.2780   48.4900 H   0  0  0  0  0  0  0  0  0  0  0  0
   59.5016   30.9600   48.4900 H   0  0  0  0  0  0  0  0  0  0  0  0
   61.4106   30.1042   46.5676 H   0  0  0  0  0  0  0  0  0  0  0  0
   60.9564   28.6327   47.5075 H   0  0  0  0  0  0  0  0  0  0  0  0
   58.0119   32.0585   43.5647 H   0  0  0  0  0  0  0  0  0  0  0  0
   56.2989   31.5222   43.8285 H   0  0  0  0  0  0  0  0  0  0  0  0
   56.0366   33.4286   44.9780 H   0  0  0  0  0  0  0  0  0  0  0  0
   57.0370   32.5926   46.2699 H   0  0  0  0  0  0  0  0  0  0  0  0
   58.9565   33.6808   44.6334 H   0  0  0  0  0  0  0  0  0  0  0  0
   57.6231   34.9377   44.6353 H   0  0  0  0  0  0  0  0  0  0  0  0
   58.3159   35.6914   46.5911 H   0  0  0  0  0  0  0  0  0  0  0  0
   58.0213   34.0282   47.3003 H   0  0  0  0  0  0  0  0  0  0  0  0
   60.4332   33.6483   46.1361 H   0  0  0  0  0  0  0  0  0  0  0  0
   60.5339   35.4101   46.6131 H   0  0  0  0  0  0  0  0  0  0  0  0
   61.6588   34.9029   50.4347 H   0  0  0  0  0  0  0  0  0  0  0  0
   61.6290   33.1015   50.6211 H   0  0  0  0  0  0  0  0  0  0  0  0
   64.0167   34.8629   49.8988 H   0  0  0  0  0  0  0  0  0  0  0  0
   63.7878   33.8660   51.3757 H   0  0  0  0  0  0  0  0  0  0  0  0
   63.2766   30.6596   50.9933 H   0  0  0  0  0  0  0  0  0  0  0  0
   64.6712   28.9977   52.2268 H   0  0  0  0  0  0  0  0  0  0  0  0
   67.1566   29.2374   52.2710 H   0  0  0  0  0  0  0  0  0  0  0  0
   68.2495   31.1478   51.0901 H   0  0  0  0  0  0  0  0  0  0  0  0
   64.7034   32.5033   47.5985 H   0  0  0  0  0  0  0  0  0  0  0  0
   63.3194   31.4948   48.1985 H   0  0  0  0  0  0  0  0  0  0  0  0
   63.3263   34.4406   47.4253 H   0  0  0  0  0  0  0  0  0  0  0  0
   62.3294   33.0874   46.7600 H   0  0  0  0  0  0  0  0  0  0  0  0
   57.9753   25.2301   47.4205 H   0  0  0  0  0  0  0  0  0  0  0  0
   59.8176   27.0816   47.7867 H   0  0  0  0  0  0  0  0  0  0  0  0
  1  2  1  0
  2  3  1  0
  3  4  1  0
  4  5  2  0
  4  6  1  0
  6  7  1  0
  7  8  1  0
  8  9  1  0
  9 10  1  0
 10 11  1  0
 11 12  1  0
 12 13  2  0
 12 14  1  0
 14 15  1  0
 15 16  1  0
 16 17  1  0
 17 18  1  0
 18 19  2  0
 19 20  1  0
 20 21  2  0
 21 22  1  0
 22 23  2  0
 23 24  1  0
 17 25  1  0
 25 26  1  0
  6 27  1  0
 27 28  2  0
 27 29  1  0
 29 30  1  0
 30 31  1  0
 31 32  2  0
 32 33  1  0
 33  3  1  0
 26 14  1  0
 33 29  2  0
 23 18  1  0
  1 34  1  0
  1 35  1  0
  1 36  1  0
  2 37  1  0
  2 38  1  0
  7 39  1  0
  7 40  1  0
  8 41  1  0
  8 42  1  0
  9 43  1  0
  9 44  1  0
 10 45  1  0
 10 46  1  0
 11 47  1  0
 11 48  1  0
 15 49  1  0
 15 50  1  0
 16 51  1  0
 16 52  1  0
 19 53  1  0
 20 54  1  0
 21 55  1  0
 22 56  1  0
 25 57  1  0
 25 58  1  0
 26 59  1  0
 26 60  1  0
 31 61  1  0
 32 62  1  0
M  END
>  <UniqueID>  (5) 
4

>  <SMILES>  (5) 
CCn1c(=O)n(CCCCCC(=O)N2CCN(c3ccccc3F)CC2)c(=O)c2sccc21

>  <Energy>  (5) 
104.06075373708984

>  <Genealogy>  (5) 
CCn1c(=O)n(CCCCCC(=O)N2CCN(c3ccccc3F)CC2)c(=O)c2sccc21 (3D coordinates assigned)
CCn1c(=O)n(CCCCCC(=O)N2CCN(c3ccccc3F)CC2)c(=O)c2sccc21 (nonaromatic ring conformer: 104.06075373708984 kcal/mol)

>  <smiles>  (5) 
CCn1c(=O)n(CCCCCC(=O)N2CCN(c3ccccc3F)CC2)c(=O)c2sccc21

>  <score_type>  (5) 
oracle

>  <origin>  (5) 
adg

>  <m_score__min__energy>  (5) 
-9.2799999999999994

>  <m_primary>  (5) 
energy

$$$$
5:0
     RDKit          3D

 51 54  0  0  0  0  0  0  0  0999 V2000
   59.0847   35.6784   45.7279 H   0  0  0  0  0  0  0  0  0  0  0  0
   59.4920   34.6900   45.9870 C   0  0  0  0  0  0  0  0  0  0  0  0
   60.7900   34.5820   46.4920 C   0  0  0  0  0  0  0  0  0  0  0  0
   61.4021   35.4849   46.6340 H   0  0  0  0  0  0  0  0  0  0  0  0
   61.3110   33.3250   46.8170 C   0  0  0  0  0  0  0  0  0  0  0  0
   63.0890   33.1770   47.4960 Br  0  0  0  0  0  0  0  0  0  0  0  0
   60.5310   32.1770   46.6400 C   0  0  0  0  0  0  0  0  0  0  0  0
   60.9457   31.1901   46.8930 H   0  0  0  0  0  0  0  0  0  0  0  0
   59.2210   32.2770   46.1410 C   0  0  0  0  0  0  0  0  0  0  0  0
   58.3930   31.0590   45.9420 C   0  0  0  0  0  0  0  0  0  0  0  0
   58.6140   29.9370   46.7480 C   0  0  0  0  0  0  0  0  0  0  0  0
   59.3935   29.9618   47.5237 H   0  0  0  0  0  0  0  0  0  0  0  0
   57.8470   28.7890   46.5680 C   0  0  0  0  0  0  0  0  0  0  0  0
   58.0540   27.6420   47.3420 C   0  0  0  0  0  0  0  0  0  0  0  0
   58.8310   27.6352   48.1206 H   0  0  0  0  0  0  0  0  0  0  0  0
   57.2940   26.5380   47.1300 N   0  0  0  0  0  0  0  0  0  0  0  0
   56.3230   26.5230   46.1740 C   0  0  0  0  0  0  0  0  0  0  0  0
   55.5980   25.4640   45.9720 N   0  0  0  0  0  0  0  0  0  0  0  0
   56.1180   24.1020   45.8440 C   0  0  0  0  0  0  0  0  0  0  0  0
   57.0137   24.1157   45.2056 H   0  0  0  0  0  0  0  0  0  0  0  0
   56.3698   23.7234   46.8456 H   0  0  0  0  0  0  0  0  0  0  0  0
   55.0650   23.1770   45.2160 C   0  0  0  0  0  0  0  0  0  0  0  0
   54.7754   23.5858   44.2367 H   0  0  0  0  0  0  0  0  0  0  0  0
   55.5130   22.1769   45.1202 H   0  0  0  0  0  0  0  0  0  0  0  0
   53.8030   23.0430   46.0880 C   0  0  0  0  0  0  0  0  0  0  0  0
   53.8982   22.1471   46.7191 H   0  0  0  0  0  0  0  0  0  0  0  0
   53.7123   23.9491   46.7051 H   0  0  0  0  0  0  0  0  0  0  0  0
   52.5840   22.9210   45.2620 N   0  0  0  0  0  0  0  0  0  0  0  0
   51.3550   22.8680   46.0560 C   0  0  0  0  0  0  0  0  0  0  0  0
   51.1490   21.8335   46.3681 H   0  0  0  0  0  0  0  0  0  0  0  0
   51.4441   23.4788   46.9665 H   0  0  0  0  0  0  0  0  0  0  0  0
   50.2380   23.3780   45.1610 C   0  0  0  0  0  0  0  0  0  0  0  0
   49.7014   22.5373   44.6971 H   0  0  0  0  0  0  0  0  0  0  0  0
   49.4927   23.9583   45.7247 H   0  0  0  0  0  0  0  0  0  0  0  0
   50.9280   24.2190   44.1010 C   0  0  0  0  0  0  0  0  0  0  0  0
   50.6864   23.8441   43.0955 H   0  0  0  0  0  0  0  0  0  0  0  0
   50.6031   25.2693   44.1381 H   0  0  0  0  0  0  0  0  0  0  0  0
   52.4180   24.0790   44.3770 C   0  0  0  0  0  0  0  0  0  0  0  0
   52.9628   23.9159   43.4354 H   0  0  0  0  0  0  0  0  0  0  0  0
   52.8176   24.9908   44.8449 H   0  0  0  0  0  0  0  0  0  0  0  0
   56.1110   27.6290   45.4140 N   0  0  0  0  0  0  0  0  0  0  0  0
   56.8410   28.7670   45.5840 C   0  0  0  0  0  0  0  0  0  0  0  0
   56.6090   29.8770   44.8070 N   0  0  0  0  0  0  0  0  0  0  0  0
   55.5750   29.8320   43.7580 C   0  0  0  0  0  0  0  0  0  0  0  0
   54.5802   29.7887   44.2254 H   0  0  0  0  0  0  0  0  0  0  0  0
   55.6474   30.7341   43.1328 H   0  0  0  0  0  0  0  0  0  0  0  0
   55.7255   28.9396   43.1328 H   0  0  0  0  0  0  0  0  0  0  0  0
   57.3900   31.0010   44.9510 C   0  0  0  0  0  0  0  0  0  0  0  0
   57.2280   31.9850   44.1770 O   0  0  0  0  0  0  0  0  0  0  0  0
   58.7090   33.5450   45.8100 C   0  0  0  0  0  0  0  0  0  0  0  0
   57.6883   33.6361   45.4102 H   0  0  0  0  0  0  0  0  0  0  0  0
  1  2  1  0
  2  3  2  0
  3  4  1  0
  3  5  1  0
  5  6  1  0
  5  7  2  0
  7  8  1  0
  7  9  1  0
  9 10  1  0
 10 11  2  0
 11 12  1  0
 11 13  1  0
 13 14  2  0
 14 15  1  0
 14 16  1  0
 16 17  1  0
 17 18  2  0
 18 19  1  0
 19 20  1  0
 19 21  1  0
 19 22  1  0
 22 23  1  0
 22 24  1  0
 22 25  1  0
 25 26  1  0
 25 27  1  0
 25 28  1  0
 28 29  1  0
 29 30  1  0
 29 31  1  0
 29 32  1  0
 32 33  1  0
 32 34  1  0
 32 35  1  0
 35 36  1  0
 35 37  1  0
 35 38  1  0
 38 39  1  0
 38 40  1  0
 17 41  1  0
 41 42  2  0
 42 43  1  0
 43 44  1  0
 44 45  1  0
 44 46  1  0
 44 47  1  0
 43 48  1  0
 48 49  2  0
  9 50  2  0
 50 51  1  0
 50  2  1  0
 48 10  1  0
 42 13  1  0
 38 28  1  0
M  CHG  1  16  -1
M  END
>  <UniqueID>  (6) 
5

>  <SMILES>  (6) 
Cn1c(=O)c(-c2cccc(Br)c2)cc2c[n-]/c(=N\CCCN3CCCC3)nc21

>  <Energy>  (6) 
69.33955129853182

>  <Genealogy>  (6) 
Cn1c(=O)c(-c2cccc(Br)c2)cc2c[n-]c(=NCCCN3CCCC3)nc21 (protonated)
Cn1c(=O)c(-c2cccc(Br)c2)cc2c[n-]/c(=N\CCCN3CCCC3)nc21 (cis-trans isomerization)
Cn1c(=O)c(-c2cccc(Br)c2)cc2c[n-]/c(=N\CCCN3CCCC3)nc21 (3D coordinates assigned)
Cn1c(=O)c(-c2cccc(Br)c2)cc2c[n-]/c(=N\CCCN3CCCC3)nc21 (nonaromatic ring conformer: 69.33955129853182 kcal/mol)

>  <smiles>  (6) 
Cn1c(=O)c(-c2cccc(Br)c2)cc2c[nH]c(=NCCCN3CCCC3)nc21

>  <score_type>  (6) 
oracle

>  <origin>  (6) 
adg

>  <m_score__min__energy>  (6) 
-10.390000000000001

>  <m_primary>  (6) 
energy

$$$$
6:0
     RDKit          3D

 57 59  0  0  0  0  0  0  0  0999 V2000
   59.2130   29.2750   45.2290 C   0  0  0  0  0  0  0  0  0  0  0  0
   58.2750   29.1070   44.1150 N   0  0  0  0  0  0  0  0  0  0  0  0
   56.9040   29.4600   44.5140 C   0  0  0  0  0  0  0  0  0  0  0  0
   56.4400   30.7270   43.7890 C   0  0  0  0  0  0  0  0  0  0  0  0
   57.5670   31.6880   43.6910 N   0  0  0  0  0  0  0  0  0  0  0  0
   57.7670   32.1220   42.2990 C   0  0  0  0  0  0  0  0  0  0  0  0
   57.3690   32.8700   44.5600 C   0  0  0  0  0  0  0  0  0  0  0  0
   58.5020   33.0110   45.5430 C   0  0  0  0  0  0  0  0  0  0  0  0
   58.5150   32.2610   46.7290 C   0  0  0  0  0  0  0  0  0  0  0  0
   59.6060   32.3320   47.5970 C   0  0  0  0  0  0  0  0  0  0  0  0
   60.7040   33.1580   47.2980 C   0  0  0  0  0  0  0  0  0  0  0  0
   61.8730   33.2170   48.2110 C   0  0  0  0  0  0  0  0  0  0  0  0
   61.7760   33.8740   49.4520 C   0  0  0  0  0  0  0  0  0  0  0  0
   62.8770   33.9320   50.3100 C   0  0  0  0  0  0  0  0  0  0  0  0
   64.0910   33.3410   49.9390 C   0  0  0  0  0  0  0  0  0  0  0  0
   65.4870   33.4370   51.0000 S   0  0  0  0  0  0  0  0  0  0  0  0
   66.9310   33.3210   50.1480 O   0  0  0  0  0  0  0  0  0  0  0  0
   65.4140   32.3170   52.3880 C   0  0  0  0  0  0  0  0  0  0  0  0
   65.8050   30.9270   51.9700 C   0  0  0  0  0  0  0  0  0  0  0  0
   64.8800   29.8740   52.0620 C   0  0  0  0  0  0  0  0  0  0  0  0
   65.2620   28.5700   51.7290 C   0  0  0  0  0  0  0  0  0  0  0  0
   66.5710   28.3090   51.3080 C   0  0  0  0  0  0  0  0  0  0  0  0
   67.0940   26.5270   50.8660 Br  0  0  0  0  0  0  0  0  0  0  0  0
   67.4970   29.3530   51.2180 C   0  0  0  0  0  0  0  0  0  0  0  0
   67.1170   30.6570   51.5480 C   0  0  0  0  0  0  0  0  0  0  0  0
   64.1940   32.6790   48.7120 C   0  0  0  0  0  0  0  0  0  0  0  0
   63.0930   32.6170   47.8520 C   0  0  0  0  0  0  0  0  0  0  0  0
   60.6820   33.9170   46.1150 C   0  0  0  0  0  0  0  0  0  0  0  0
   59.5920   33.8410   45.2430 C   0  0  0  0  0  0  0  0  0  0  0  0
   58.6719   29.1781   46.1818 H   0  0  0  0  0  0  0  0  0  0  0  0
   59.9938   28.5024   45.1706 H   0  0  0  0  0  0  0  0  0  0  0  0
   59.6771   30.2706   45.1706 H   0  0  0  0  0  0  0  0  0  0  0  0
   58.5720   29.7720   43.3630 H   0  0  0  0  0  0  0  0  0  0  0  0
   56.2285   28.6300   44.2593 H   0  0  0  0  0  0  0  0  0  0  0  0
   56.8872   29.6459   45.5981 H   0  0  0  0  0  0  0  0  0  0  0  0
   56.0945   30.4642   42.7783 H   0  0  0  0  0  0  0  0  0  0  0  0
   55.6157   31.1883   44.3527 H   0  0  0  0  0  0  0  0  0  0  0  0
   58.2274   33.1210   42.2889 H   0  0  0  0  0  0  0  0  0  0  0  0
   58.4273   31.4088   41.7838 H   0  0  0  0  0  0  0  0  0  0  0  0
   56.7959   32.1606   41.7838 H   0  0  0  0  0  0  0  0  0  0  0  0
   57.3210   33.7732   43.9339 H   0  0  0  0  0  0  0  0  0  0  0  0
   56.4315   32.7406   45.1207 H   0  0  0  0  0  0  0  0  0  0  0  0
   57.6607   31.6135   46.9761 H   0  0  0  0  0  0  0  0  0  0  0  0
   59.6068   31.7371   48.5222 H   0  0  0  0  0  0  0  0  0  0  0  0
   60.8270   34.3449   49.7482 H   0  0  0  0  0  0  0  0  0  0  0  0
   62.7900   34.4435   51.2800 H   0  0  0  0  0  0  0  0  0  0  0  0
   67.4710   34.0940   50.4490 H   0  0  0  0  0  0  0  0  0  0  0  0
   66.1037   32.6662   53.1705 H   0  0  0  0  0  0  0  0  0  0  0  0
   64.3829   32.2945   52.7705 H   0  0  0  0  0  0  0  0  0  0  0  0
   63.8518   30.0753   52.3970 H   0  0  0  0  0  0  0  0  0  0  0  0
   64.5330   27.7492   51.7981 H   0  0  0  0  0  0  0  0  0  0  0  0
   68.5258   29.1477   50.8871 H   0  0  0  0  0  0  0  0  0  0  0  0
   67.8487   31.4752   51.4769 H   0  0  0  0  0  0  0  0  0  0  0  0
   65.1437   32.2056   48.4222 H   0  0  0  0  0  0  0  0  0  0  0  0
   63.1820   32.0951   46.8878 H   0  0  0  0  0  0  0  0  0  0  0  0
   61.5291   34.5759   45.8735 H   0  0  0  0  0  0  0  0  0  0  0  0
   59.5892   34.4350   44.3172 H   0  0  0  0  0  0  0  0  0  0  0  0
  1  2  1  0
  2  3  1  0
  3  4  1  0
  4  5  1  0
  5  6  1  0
  5  7  1  0
  7  8  1  0
  8  9  2  0
  9 10  1  0
 10 11  2  0
 11 12  1  0
 12 13  2  0
 13 14  1  0
 14 15  2  0
 15 16  1  0
 16 17  1  6
 16 18  1  0
 18 19  1  0
 19 20  2  0
 20 21  1  0
 21 22  2  0
 22 23  1  0
 22 24  1  0
 24 25  2  0
 15 26  1  0
 26 27  2  0
 11 28  1  0
 28 29  2  0
 29  8  1  0
 27 12  1  0
 25 19  1  0
  1 30  1  0
  1 31  1  0
  1 32  1  0
  2 33  1  0
  3 34  1  0
  3 35  1  0
  4 36  1  0
  4 37  1  0
  6 38  1  0
  6 39  1  0
  6 40  1  0
  7 41  1  0
  7 42  1  0
  9 43  1  0
 10 44  1  0
 13 45  1  0
 14 46  1  0
 17 47  1  0
 18 48  1  0
 18 49  1  0
 20 50  1  0
 21 51  1  0
 24 52  1  0
 25 53  1  0
 26 54  1  0
 27 55  1  0
 28 56  1  0
 29 57  1  0
M  CHG  1  16   1
M  END
>  <UniqueID>  (7) 
6

>  <SMILES>  (7) 
CNCCN(C)Cc1ccc(-c2ccc([S@+](O)Cc3ccc(Br)cc3)cc2)cc1

>  <Energy>  (7) 
55.728050960582166

>  <Genealogy>  (7) 
CNCCN(C)Cc1ccc(-c2ccc([S+](O)Cc3ccc(Br)cc3)cc2)cc1 (protonated)
CNCCN(C)Cc1ccc(-c2ccc([S@+](O)Cc3ccc(Br)cc3)cc2)cc1 (chirality)
CNCCN(C)Cc1ccc(-c2ccc([S@+](O)Cc3ccc(Br)cc3)cc2)cc1 (3D coordinates assigned)
CNCCN(C)Cc1ccc(-c2ccc([S@+](O)Cc3ccc(Br)cc3)cc2)cc1 (optimized conformer: 55.728050960582166 kcal/mol)

>  <smiles>  (7) 
CNCCN(C)Cc1ccc(-c2ccc([S+]([O-])Cc3ccc(Br)cc3)cc2)cc1

>  <score_type>  (7) 
oracle

>  <origin>  (7) 
adg

>  <m_score__min__energy>  (7) 
-8.2699999999999996

>  <m_primary>  (7) 
energy

$$$$
7:0
     RDKit          3D

 59 61  0  0  0  0  0  0  0  0999 V2000
   53.6550   30.7980   51.2810 C   0  0  0  0  0  0  0  0  0  0  0  0
   54.4510   29.8210   52.1410 C   0  0  0  0  0  0  0  0  0  0  0  0
   55.8930   30.0300   51.9520 N   0  0  0  0  0  0  0  0  0  0  0  0
   56.3060   31.3100   52.5460 C   0  0  0  0  0  0  0  0  0  0  0  0
   57.2830   32.0320   51.6210 C   0  0  0  0  0  0  0  0  0  0  0  0
   58.5280   31.1860   51.3330 C   0  0  0  0  0  0  0  0  0  0  0  0
   58.1790   30.0740   50.4400 N   0  0  0  0  0  0  0  0  0  0  0  0
   59.3660   29.3150   50.0280 C   0  0  0  0  0  0  0  0  0  0  0  0
   59.3360   29.0010   48.5250 C   0  0  0  0  0  0  0  0  0  0  0  0
   60.7180   29.1340   47.8810 C   0  0  0  0  0  0  0  0  0  0  0  0
   60.6120   29.6940   46.5350 N   0  0  0  0  0  0  0  0  0  0  0  0
   59.5960   30.6600   46.2320 C   0  0  0  0  0  0  0  0  0  0  0  0
   59.6560   31.9310   46.8260 C   0  0  0  0  0  0  0  0  0  0  0  0
   60.5520   32.1960   47.8840 C   0  0  0  0  0  0  0  0  0  0  0  0
   60.5650   33.4410   48.5110 C   0  0  0  0  0  0  0  0  0  0  0  0
   61.7580   33.7660   49.9670 Br  0  0  0  0  0  0  0  0  0  0  0  0
   59.6920   34.4390   48.0910 C   0  0  0  0  0  0  0  0  0  0  0  0
   58.8250   34.2090   47.0230 C   0  0  0  0  0  0  0  0  0  0  0  0
   58.8150   32.9650   46.3420 C   0  0  0  0  0  0  0  0  0  0  0  0
   58.0320   32.7510   45.2250 N   0  0  0  0  0  0  0  0  0  0  0  0
   57.4390   33.9020   44.5110 C   0  0  0  0  0  0  0  0  0  0  0  0
   57.8210   31.4640   44.7650 C   0  0  0  0  0  0  0  0  0  0  0  0
   56.8490   31.1850   43.7710 C   0  0  0  0  0  0  0  0  0  0  0  0
   56.6710   29.8980   43.2770 C   0  0  0  0  0  0  0  0  0  0  0  0
   57.3920   28.8390   43.8070 C   0  0  0  0  0  0  0  0  0  0  0  0
   58.3060   29.0490   44.8440 C   0  0  0  0  0  0  0  0  0  0  0  0
   58.8330   27.8950   45.5160 N   0  0  0  0  0  0  0  0  0  0  0  0
   59.9910   27.5020   45.2670 O   0  0  0  0  0  0  0  0  0  0  0  0
   57.9740   27.0500   46.1810 O   0  0  0  0  0  0  0  0  0  0  0  0
   58.5800   30.3770   45.2910 C   0  0  0  0  0  0  0  0  0  0  0  0
   53.0945   31.4860   51.9310 H   0  0  0  0  0  0  0  0  0  0  0  0
   54.3446   31.3735   50.6460 H   0  0  0  0  0  0  0  0  0  0  0  0
   52.9520   30.2389   50.6460 H   0  0  0  0  0  0  0  0  0  0  0  0
   54.1973   29.9800   53.1995 H   0  0  0  0  0  0  0  0  0  0  0  0
   54.1971   28.7934   51.8418 H   0  0  0  0  0  0  0  0  0  0  0  0
   56.0790   30.0890   50.9210 H   0  0  0  0  0  0  0  0  0  0  0  0
   55.4187   31.9414   52.7008 H   0  0  0  0  0  0  0  0  0  0  0  0
   56.8018   31.1148   53.5083 H   0  0  0  0  0  0  0  0  0  0  0  0
   56.7755   32.2531   50.6704 H   0  0  0  0  0  0  0  0  0  0  0  0
   57.6070   32.9563   52.1217 H   0  0  0  0  0  0  0  0  0  0  0  0
   59.2928   31.8138   50.8525 H   0  0  0  0  0  0  0  0  0  0  0  0
   58.9194   30.7828   52.2786 H   0  0  0  0  0  0  0  0  0  0  0  0
   57.5490   29.4290   50.9690 H   0  0  0  0  0  0  0  0  0  0  0  0
   60.2653   29.9075   50.2520 H   0  0  0  0  0  0  0  0  0  0  0  0
   59.3779   28.3638   50.5804 H   0  0  0  0  0  0  0  0  0  0  0  0
   58.9772   27.9706   48.3851 H   0  0  0  0  0  0  0  0  0  0  0  0
   58.6656   29.7264   48.0409 H   0  0  0  0  0  0  0  0  0  0  0  0
   61.3416   29.7966   48.4991 H   0  0  0  0  0  0  0  0  0  0  0  0
   61.1724   28.1346   47.8122 H   0  0  0  0  0  0  0  0  0  0  0  0
   61.1730   29.2910   45.7510 H   0  0  0  0  0  0  0  0  0  0  0  0
   61.2475   31.4117   48.2173 H   0  0  0  0  0  0  0  0  0  0  0  0
   59.6854   35.4127   48.6027 H   0  0  0  0  0  0  0  0  0  0  0  0
   58.1374   35.0059   46.7035 H   0  0  0  0  0  0  0  0  0  0  0  0
   57.0626   34.6326   45.2421 H   0  0  0  0  0  0  0  0  0  0  0  0
   58.2050   34.3762   43.8799 H   0  0  0  0  0  0  0  0  0  0  0  0
   56.6082   33.5535   43.8799 H   0  0  0  0  0  0  0  0  0  0  0  0
   56.2238   32.0028   43.3834 H   0  0  0  0  0  0  0  0  0  0  0  0
   55.9547   29.7189   42.4617 H   0  0  0  0  0  0  0  0  0  0  0  0
   57.2436   27.8247   43.4081 H   0  0  0  0  0  0  0  0  0  0  0  0
  1  2  1  0
  2  3  1  0
  3  4  1  0
  4  5  1  0
  5  6  1  0
  6  7  1  0
  7  8  1  0
  8  9  1  0
  9 10  1  0
 10 11  1  0
 11 12  1  0
 12 13  2  0
 13 14  1  0
 14 15  2  0
 15 16  1  0
 15 17  1  0
 17 18  2  0
 18 19  1  0
 19 20  2  0
 20 21  1  0
 20 22  1  0
 22 23  2  0
 23 24  1  0
 24 25  2  0
 25 26  1  0
 26 27  1  0
 27 28  2  0
 27 29  1  0
 26 30  2  0
 30 12  1  0
 19 13  1  0
 30 22  1  0
  1 31  1  0
  1 32  1  0
  1 33  1  0
  2 34  1  0
  2 35  1  0
  3 36  1  0
  4 37  1  0
  4 38  1  0
  5 39  1  0
  5 40  1  0
  6 41  1  0
  6 42  1  0
  7 43  1  0
  8 44  1  0
  8 45  1  0
  9 46  1  0
  9 47  1  0
 10 48  1  0
 10 49  1  0
 11 50  1  0
 14 51  1  0
 17 52  1  0
 18 53  1  0
 21 54  1  0
 21 55  1  0
 21 56  1  0
 23 57  1  0
 24 58  1  0
 25 59  1  0
M  CHG  3  20   1  27   1  29  -1
M  END
>  <UniqueID>  (8) 
7

>  <SMILES>  (8) 
CCNCCCNCCCNc1c2cc(Br)ccc2[n+](C)c2cccc([N+](=O)[O-])c12

>  <Energy>  (8) 
84.9234515115082

>  <Genealogy>  (8) 
CCNCCCNCCCNc1c2cc(Br)ccc2[n+](C)c2cccc([N+](=O)[O-])c12 (3D coordinates assigned)
CCNCCCNCCCNc1c2cc(Br)ccc2[n+](C)c2cccc([N+](=O)[O-])c12 (optimized conformer: 84.9234515115082 kcal/mol)

>  <smiles>  (8) 
CCNCCCNCCCNc1c2cc(Br)ccc2[n+](C)c2cccc([N+](=O)[O-])c12

>  <score_type>  (8) 
oracle

>  <origin>  (8) 
adg

>  <m_score__min__energy>  (8) 
-6.4199999999999999

>  <m_primary>  (8) 
energy

$$$$
8:0
     RDKit          3D

 32 33  0  0  0  0  0  0  0  0999 V2000
   63.7590   33.0730   47.1170 C   0  0  0  0  0  0  0  0  0  0  0  0
   62.4110   33.6650   46.7370 C   0  0  0  0  0  0  0  0  0  0  0  0
   61.1950   33.3400   48.0550 S   0  0  0  0  0  0  0  0  0  0  0  0
   60.2180   32.2350   47.0290 C   0  0  0  0  0  0  0  0  0  0  0  0
   60.6530   31.0080   46.6580 N   0  0  0  0  0  0  0  0  0  0  0  0
   59.6610   30.5340   45.8810 C   0  0  0  0  0  0  0  0  0  0  0  0
   58.6660   31.4500   45.7900 C   0  0  0  0  0  0  0  0  0  0  0  0
   57.5570   31.2000   44.9910 C   0  0  0  0  0  0  0  0  0  0  0  0
   56.6440   32.0620   44.8760 O   0  0  0  0  0  0  0  0  0  0  0  0
   57.4900   29.9970   44.3260 N   0  0  0  0  0  0  0  0  0  0  0  0
   56.3430   29.7100   43.4480 C   0  0  0  0  0  0  0  0  0  0  0  0
   58.5330   29.0880   44.4160 C   0  0  0  0  0  0  0  0  0  0  0  0
   58.4860   28.0160   43.7490 O   0  0  0  0  0  0  0  0  0  0  0  0
   59.6260   29.3450   45.2180 N   0  0  0  0  0  0  0  0  0  0  0  0
   60.7530   28.4080   45.3270 C   0  0  0  0  0  0  0  0  0  0  0  0
   58.9930   32.5370   46.5210 N   0  0  0  0  0  0  0  0  0  0  0  0
   58.2430   33.7850   46.6580 C   0  0  0  0  0  0  0  0  0  0  0  0
   63.8468   33.0345   48.2128 H   0  0  0  0  0  0  0  0  0  0  0  0
   63.8416   32.0558   46.7065 H   0  0  0  0  0  0  0  0  0  0  0  0
   64.5639   33.7005   46.7065 H   0  0  0  0  0  0  0  0  0  0  0  0
   62.5161   34.7511   46.5978 H   0  0  0  0  0  0  0  0  0  0  0  0
   62.0632   33.2015   45.8020 H   0  0  0  0  0  0  0  0  0  0  0  0
   61.5640   30.5590   46.9010 H   0  0  0  0  0  0  0  0  0  0  0  0
   55.4576   29.4885   44.0620 H   0  0  0  0  0  0  0  0  0  0  0  0
   56.1393   30.5849   42.8131 H   0  0  0  0  0  0  0  0  0  0  0  0
   56.5753   28.8423   42.8131 H   0  0  0  0  0  0  0  0  0  0  0  0
   60.9750   28.2234   46.3884 H   0  0  0  0  0  0  0  0  0  0  0  0
   60.4895   27.4590   44.8371 H   0  0  0  0  0  0  0  0  0  0  0  0
   61.6379   28.8403   44.8371 H   0  0  0  0  0  0  0  0  0  0  0  0
   58.1050   34.0146   47.7249 H   0  0  0  0  0  0  0  0  0  0  0  0
   58.7998   34.6022   46.1761 H   0  0  0  0  0  0  0  0  0  0  0  0
   57.2601   33.6769   46.1761 H   0  0  0  0  0  0  0  0  0  0  0  0
  1  2  1  0
  2  3  1  0
  3  4  1  0
  4  5  2  0
  5  6  1  0
  6  7  2  0
  7  8  1  0
  8  9  2  0
  8 10  1  0
 10 11  1  0
 10 12  1  0
 12 13  2  0
 12 14  1  0
 14 15  1  0
  7 16  1  0
 16 17  1  0
 16  4  1  0
 14  6  1  0
  1 18  1  0
  1 19  1  0
  1 20  1  0
  2 21  1  0
  2 22  1  0
  5 23  1  0
 11 24  1  0
 11 25  1  0
 11 26  1  0
 15 27  1  0
 15 28  1  0
 15 29  1  0
 17 30  1  0
 17 31  1  0
 17 32  1  0
M  CHG  1   5   1
M  END
>  <UniqueID>  (9) 
8

>  <SMILES>  (9) 
CCSc1[nH+]c2c(c(=O)n(C)c(=O)n2C)n1C

>  <Energy>  (9) 
72.15569872205636

>  <Genealogy>  (9) 
CCSc1[nH+]c2c(c(=O)n(C)c(=O)n2C)n1C (protonated)
CCSc1[nH+]c2c(c(=O)n(C)c(=O)n2C)n1C (3D coordinates assigned)
CCSc1[nH+]c2c(c(=O)n(C)c(=O)n2C)n1C (optimized conformer: 72.15569872205636 kcal/mol)

>  <smiles>  (9) 
CCSc1nc2c(c(=O)n(C)c(=O)n2C)n1C

>  <score_type>  (9) 
oracle

>  <origin>  (9) 
adg

>  <m_score__min__energy>  (9) 
-4.0499999999999998

>  <m_primary>  (9) 
energy

$$$$
9:0
     RDKit          3D

 51 52  0  0  0  0  0  0  0  0999 V2000
   56.9340   22.1270   43.4620 C   0  0  0  0  0  0  0  0  0  0  0  0
   57.3990   23.3860   44.1890 C   0  0  0  0  0  0  0  0  0  0  0  0
   56.2980   24.4570   44.3070 C   0  0  0  0  0  0  0  0  0  0  0  0
   55.6940   24.5630   45.7150 C   0  0  0  0  0  0  0  0  0  0  0  0
   55.3070   25.9350   46.0270 N   0  0  0  0  0  0  0  0  0  0  0  0
   56.1860   27.0540   45.8830 C   0  0  0  0  0  0  0  0  0  0  0  0
   55.8160   28.0820   45.2540 O   0  0  0  0  0  0  0  0  0  0  0  0
   57.5660   26.9970   46.4670 C   0  0  0  0  0  0  0  0  0  0  0  0
   58.5210   27.9550   45.7410 C   0  0  0  0  0  0  0  0  0  0  0  0
   59.7930   28.0940   46.4890 N   0  0  0  0  0  0  0  0  0  0  0  0
   59.5710   28.4620   47.9040 C   0  0  0  0  0  0  0  0  0  0  0  0
   58.9630   29.8700   48.0280 C   0  0  0  0  0  0  0  0  0  0  0  0
   59.5460   30.7730   47.0270 N   0  0  0  0  0  0  0  0  0  0  0  0
   58.8040   31.9180   46.5630 C   0  0  0  0  0  0  0  0  0  0  0  0
   59.1530   33.2020   47.0160 C   0  0  0  0  0  0  0  0  0  0  0  0
   58.4610   34.3270   46.5650 C   0  0  0  0  0  0  0  0  0  0  0  0
   57.4170   34.1830   45.6520 C   0  0  0  0  0  0  0  0  0  0  0  0
   57.0570   32.9150   45.1920 C   0  0  0  0  0  0  0  0  0  0  0  0
   57.7440   31.7700   45.6460 C   0  0  0  0  0  0  0  0  0  0  0  0
   57.3890   30.4810   45.2200 O   0  0  0  0  0  0  0  0  0  0  0  0
   57.1110   30.1220   43.8700 C   0  0  0  0  0  0  0  0  0  0  0  0
   60.8290   30.4130   46.4150 C   0  0  0  0  0  0  0  0  0  0  0  0
   60.7620   28.9960   45.8090 C   0  0  0  0  0  0  0  0  0  0  0  0
   56.6512   21.3612   44.1993 H   0  0  0  0  0  0  0  0  0  0  0  0
   56.0653   22.3674   42.8314 H   0  0  0  0  0  0  0  0  0  0  0  0
   57.7504   21.7451   42.8314 H   0  0  0  0  0  0  0  0  0  0  0  0
   57.7245   23.1055   45.2016 H   0  0  0  0  0  0  0  0  0  0  0  0
   58.2186   23.8218   43.5988 H   0  0  0  0  0  0  0  0  0  0  0  0
   56.7310   25.4322   44.0397 H   0  0  0  0  0  0  0  0  0  0  0  0
   55.4849   24.1609   43.6279 H   0  0  0  0  0  0  0  0  0  0  0  0
   54.8044   23.9185   45.7722 H   0  0  0  0  0  0  0  0  0  0  0  0
   56.4548   24.2441   46.4427 H   0  0  0  0  0  0  0  0  0  0  0  0
   57.5169   27.2775   47.5295 H   0  0  0  0  0  0  0  0  0  0  0  0
   57.9491   25.9724   46.3513 H   0  0  0  0  0  0  0  0  0  0  0  0
   58.7341   27.5600   44.7367 H   0  0  0  0  0  0  0  0  0  0  0  0
   58.0433   28.9433   45.6692 H   0  0  0  0  0  0  0  0  0  0  0  0
   58.8840   27.7339   48.3598 H   0  0  0  0  0  0  0  0  0  0  0  0
   60.5425   28.4572   48.4200 H   0  0  0  0  0  0  0  0  0  0  0  0
   57.8759   29.8098   47.8714 H   0  0  0  0  0  0  0  0  0  0  0  0
   59.1807   30.2640   49.0317 H   0  0  0  0  0  0  0  0  0  0  0  0
   59.9791   33.3213   47.7325 H   0  0  0  0  0  0  0  0  0  0  0  0
   58.7391   35.3269   46.9296 H   0  0  0  0  0  0  0  0  0  0  0  0
   56.8756   35.0708   45.2932 H   0  0  0  0  0  0  0  0  0  0  0  0
   56.2328   32.8083   44.4713 H   0  0  0  0  0  0  0  0  0  0  0  0
   56.4376   29.2524   43.8531 H   0  0  0  0  0  0  0  0  0  0  0  0
   56.6302   30.9681   43.3572 H   0  0  0  0  0  0  0  0  0  0  0  0
   58.0505   29.8683   43.3572 H   0  0  0  0  0  0  0  0  0  0  0  0
   61.0659   31.1355   45.6201 H   0  0  0  0  0  0  0  0  0  0  0  0
   61.6094   30.4311   47.1900 H   0  0  0  0  0  0  0  0  0  0  0  0
   60.4696   29.0848   44.7523 H   0  0  0  0  0  0  0  0  0  0  0  0
   61.7584   28.5474   45.9355 H   0  0  0  0  0  0  0  0  0  0  0  0
  1  2  1  0
  2  3  1  0
  3  4  1  0
  4  5  1  0
  5  6  1  0
  6  7  2  0
  6  8  1  0
  8  9  1  0
  9 10  1  0
 10 11  1  0
 11 12  1  0
 12 13  1  0
 13 14  1  0
 14 15  2  0
 15 16  1  0
 16 17  2  0
 17 18  1  0
 18 19  2  0
 19 20  1  0
 20 21  1  0
 13 22  1  0
 22 23  1  0
 23 10  1  0
 19 14  1  0
  1 24  1  0
  1 25  1  0
  1 26  1  0
  2 27  1  0
  2 28  1  0
  3 29  1  0
  3 30  1  0
  4 31  1  0
  4 32  1  0
  8 33  1  0
  8 34  1  0
  9 35  1  0
  9 36  1  0
 11 37  1  0
 11 38  1  0
 12 39  1  0
 12 40  1  0
 15 41  1  0
 16 42  1  0
 17 43  1  0
 18 44  1  0
 21 45  1  0
 21 46  1  0
 21 47  1  0
 22 48  1  0
 22 49  1  0
 23 50  1  0
 23 51  1  0
M  CHG  1   5  -1
M  END
>  <UniqueID>  (10) 
9

>  <SMILES>  (10) 
CCCC[N-]C(=O)CCN1CCN(c2ccccc2OC)CC1

>  <Energy>  (10) 
50.914084590414944

>  <Genealogy>  (10) 
CCCC[N-]C(=O)CCN1CCN(c2ccccc2OC)CC1 (protonated)
CCCC[N-]C(=O)CCN1CCN(c2ccccc2OC)CC1 (3D coordinates assigned)
CCCC[N-]C(=O)CCN1CCN(c2ccccc2OC)CC1 (nonaromatic ring conformer: 50.914084590414944 kcal/mol)

>  <smiles>  (10) 
CCCCNC(=O)CCN1CCN(c2ccccc2OC)CC1

>  <score_type>  (10) 
oracle

>  <origin>  (10) 
adg

>  <m_score__min__energy>  (10) 
-8.9700000000000006

>  <m_primary>  (10) 
energy

$$$$
10:0
     RDKit          3D

 66 68  0  0  0  0  0  0  0  0999 V2000
   57.6190   33.8700   45.1490 C   0  0  0  0  0  0  0  0  0  0  0  0
   57.0100   32.4810   45.3070 C   0  0  0  0  0  0  0  0  0  0  0  0
   57.4700   31.6030   44.2100 N   0  0  0  0  0  0  0  0  0  0  0  0
   58.2470   32.3390   43.1890 C   0  0  0  0  0  0  0  0  0  0  0  0
   57.6690   32.1560   41.7860 C   0  0  0  0  0  0  0  0  0  0  0  0
   56.4180   30.6910   43.6860 C   0  0  0  0  0  0  0  0  0  0  0  0
   56.5930   29.1890   44.0170 C   0  0  0  0  0  0  0  0  0  0  0  0
   56.0580   28.8280   45.3410 N   0  0  0  0  0  0  0  0  0  0  0  0
   57.0050   27.9950   46.0610 C   0  0  0  0  0  0  0  0  0  0  0  0
   56.8110   26.5940   46.0660 C   0  0  0  0  0  0  0  0  0  0  0  0
   55.6520   26.0980   45.4350 O   0  0  0  0  0  0  0  0  0  0  0  0
   55.0370   24.8310   45.6550 C   0  0  0  0  0  0  0  0  0  0  0  0
   57.7660   25.7530   46.6730 C   0  0  0  0  0  0  0  0  0  0  0  0
   57.6310   24.3580   46.5720 O   0  0  0  0  0  0  0  0  0  0  0  0
   58.1670   23.5490   45.5300 C   0  0  0  0  0  0  0  0  0  0  0  0
   58.8530   26.3220   47.3540 C   0  0  0  0  0  0  0  0  0  0  0  0
   59.0080   27.7180   47.4800 C   0  0  0  0  0  0  0  0  0  0  0  0
   58.0950   28.5600   46.7910 C   0  0  0  0  0  0  0  0  0  0  0  0
   58.3000   29.9470   46.8540 C   0  0  0  0  0  0  0  0  0  0  0  0
   59.4250   30.4760   47.4800 C   0  0  0  0  0  0  0  0  0  0  0  0
   59.6620   31.8600   47.4370 C   0  0  0  0  0  0  0  0  0  0  0  0
   60.8150   32.4150   48.0160 C   0  0  0  0  0  0  0  0  0  0  0  0
   61.0590   33.8440   47.9680 N   0  0  0  0  0  0  0  0  0  0  0  0
   62.0510   34.4600   48.8550 C   0  0  0  0  0  0  0  0  0  0  0  0
   60.3070   34.6970   47.0400 C   0  0  0  0  0  0  0  0  0  0  0  0
   61.7350   31.5510   48.6310 C   0  0  0  0  0  0  0  0  0  0  0  0
   61.5000   30.1760   48.6880 C   0  0  0  0  0  0  0  0  0  0  0  0
   60.3200   29.6130   48.1450 C   0  0  0  0  0  0  0  0  0  0  0  0
   60.0330   28.2640   48.2380 N   0  0  0  0  0  0  0  0  0  0  0  0
   60.7950   27.4150   49.1810 C   0  0  0  0  0  0  0  0  0  0  0  0
   57.8086   34.3024   46.1425 H   0  0  0  0  0  0  0  0  0  0  0  0
   58.5664   33.7941   44.5953 H   0  0  0  0  0  0  0  0  0  0  0  0
   56.9213   34.5154   44.5953 H   0  0  0  0  0  0  0  0  0  0  0  0
   57.3215   32.0536   46.2715 H   0  0  0  0  0  0  0  0  0  0  0  0
   55.9134   32.5599   45.2725 H   0  0  0  0  0  0  0  0  0  0  0  0
   58.2377   33.4100   43.4398 H   0  0  0  0  0  0  0  0  0  0  0  0
   59.2716   31.9387   43.1887 H   0  0  0  0  0  0  0  0  0  0  0  0
   56.6227   31.8247   41.8608 H   0  0  0  0  0  0  0  0  0  0  0  0
   57.7130   33.1120   41.2437 H   0  0  0  0  0  0  0  0  0  0  0  0
   58.2552   31.3995   41.2437 H   0  0  0  0  0  0  0  0  0  0  0  0
   55.4531   31.0167   44.1019 H   0  0  0  0  0  0  0  0  0  0  0  0
   56.4841   30.7620   42.5903 H   0  0  0  0  0  0  0  0  0  0  0  0
   56.0674   28.5976   43.2528 H   0  0  0  0  0  0  0  0  0  0  0  0
   57.6723   28.9768   44.0279 H   0  0  0  0  0  0  0  0  0  0  0  0
   55.8570   29.7010   45.8820 H   0  0  0  0  0  0  0  0  0  0  0  0
   55.1380   28.3470   45.2630 H   0  0  0  0  0  0  0  0  0  0  0  0
   54.9487   24.6491   46.7363 H   0  0  0  0  0  0  0  0  0  0  0  0
   54.0359   24.8253   45.1993 H   0  0  0  0  0  0  0  0  0  0  0  0
   55.6518   24.0409   45.1993 H   0  0  0  0  0  0  0  0  0  0  0  0
   58.7242   22.7080   45.9685 H   0  0  0  0  0  0  0  0  0  0  0  0
   57.3467   23.1609   44.9083 H   0  0  0  0  0  0  0  0  0  0  0  0
   58.8442   24.1531   44.9083 H   0  0  0  0  0  0  0  0  0  0  0  0
   59.6071   25.6590   47.8032 H   0  0  0  0  0  0  0  0  0  0  0  0
   57.5613   30.6255   46.4024 H   0  0  0  0  0  0  0  0  0  0  0  0
   58.9334   32.5191   46.9423 H   0  0  0  0  0  0  0  0  0  0  0  0
   61.7661   34.2831   49.9026 H   0  0  0  0  0  0  0  0  0  0  0  0
   63.0393   34.0165   48.6639 H   0  0  0  0  0  0  0  0  0  0  0  0
   62.0917   35.5425   48.6639 H   0  0  0  0  0  0  0  0  0  0  0  0
   59.6855   35.4019   47.6117 H   0  0  0  0  0  0  0  0  0  0  0  0
   61.0097   35.2581   46.4064 H   0  0  0  0  0  0  0  0  0  0  0  0
   59.6622   34.0702   46.4064 H   0  0  0  0  0  0  0  0  0  0  0  0
   62.6536   31.9631   49.0740 H   0  0  0  0  0  0  0  0  0  0  0  0
   62.2439   29.5193   49.1626 H   0  0  0  0  0  0  0  0  0  0  0  0
   60.5424   27.6964   50.2140 H   0  0  0  0  0  0  0  0  0  0  0  0
   60.5360   26.3589   49.0149 H   0  0  0  0  0  0  0  0  0  0  0  0
   61.8729   27.5587   49.0149 H   0  0  0  0  0  0  0  0  0  0  0  0
  1  2  1  0
  2  3  1  0
  3  4  1  0
  4  5  1  0
  3  6  1  0
  6  7  1  0
  7  8  1  0
  8  9  1  0
  9 10  2  0
 10 11  1  0
 11 12  1  0
 10 13  1  0
 13 14  1  0
 14 15  1  0
 13 16  2  0
 16 17  1  0
 17 18  2  0
 18 19  1  0
 19 20  2  0
 20 21  1  0
 21 22  2  0
 22 23  1  0
 23 24  1  0
 23 25  1  0
 22 26  1  0
 26 27  2  0
 27 28  1  0
 28 29  2  0
 29 30  1  0
 18  9  1  0
 28 20  1  0
 29 17  1  0
  1 31  1  0
  1 32  1  0
  1 33  1  0
  2 34  1  0
  2 35  1  0
  4 36  1  0
  4 37  1  0
  5 38  1  0
  5 39  1  0
  5 40  1  0
  6 41  1  0
  6 42  1  0
  7 43  1  0
  7 44  1  0
  8 45  1  0
  8 46  1  0
 12 47  1  0
 12 48  1  0
 12 49  1  0
 15 50  1  0
 15 51  1  0
 15 52  1  0
 16 53  1  0
 19 54  1  0
 21 55  1  0
 24 56  1  0
 24 57  1  0
 24 58  1  0
 25 59  1  0
 25 60  1  0
 25 61  1  0
 26 62  1  0
 27 63  1  0
 30 64  1  0
 30 65  1  0
 30 66  1  0
M  CHG  2   8   1  29   1
M  END
>  <UniqueID>  (11) 
10

>  <SMILES>  (11) 
CCN(CC)CC[NH2+]c1c(OC)c(OC)cc2c1cc1cc(N(C)C)ccc1[n+]2C

>  <Energy>  (11) 
97.37699037683839

>  <Genealogy>  (11) 
CCN(CC)CC[NH2+]c1c(OC)c(OC)cc2c1cc1cc(N(C)C)ccc1[n+]2C (protonated)
CCN(CC)CC[NH2+]c1c(OC)c(OC)cc2c1cc1cc(N(C)C)ccc1[n+]2C (3D coordinates assigned)
CCN(CC)CC[NH2+]c1c(OC)c(OC)cc2c1cc1cc(N(C)C)ccc1[n+]2C (optimized conformer: 97.37699037683839 kcal/mol)

>  <smiles>  (11) 
CCN(CC)CCNc1c(OC)c(OC)cc2c1cc1cc(N(C)C)ccc1[n+]2C

>  <score_type>  (11) 
oracle

>  <origin>  (11) 
adg

>  <m_score__min__energy>  (11) 
-4.2000000000000002

>  <m_primary>  (11) 
energy

$$$$
11:0
     RDKit          3D

 56 56  0  0  0  0  0  0  0  0999 V2000
   58.1130   32.3320   43.3590 C   0  0  0  0  0  0  0  0  0  0  0  0
   57.4130   32.1540   44.7060 C   0  0  0  0  0  0  0  0  0  0  0  0
   57.0080   30.7480   44.9330 N   0  0  0  0  0  0  0  0  0  0  0  0
   55.9950   30.3010   43.9550 C   0  0  0  0  0  0  0  0  0  0  0  0
   56.6270   29.3570   42.9340 C   0  0  0  0  0  0  0  0  0  0  0  0
   58.1420   29.7990   45.0530 C   0  0  0  0  0  0  0  0  0  0  0  0
   58.9090   29.8820   46.3880 C   0  0  0  0  0  0  0  0  0  0  0  0
   60.3640   30.3210   46.1430 C   0  0  0  0  0  0  0  0  0  0  0  0
   61.1020   30.7610   47.4470 C   0  0  2  0  0  0  0  0  0  0  0  0
   60.2750   30.2650   48.6580 C   0  0  0  0  0  0  0  0  0  0  0  0
   61.3160   32.2490   47.4630 N   0  0  2  0  0  0  0  0  0  0  0  0
   60.5330   32.9320   46.3820 C   0  0  0  0  0  0  0  0  0  0  0  0
   59.7830   34.2140   46.8510 C   0  0  0  0  0  0  0  0  0  0  0  0
   58.4010   33.8310   47.3890 C   0  0  0  0  0  0  0  0  0  0  0  0
   59.6400   35.2800   45.7480 C   0  0  0  0  0  0  0  0  0  0  0  0
   63.0220   32.6840   47.2980 S   0  0  0  0  0  0  0  0  0  0  0  0
   63.7980   31.5080   46.7690 O   0  0  0  0  0  0  0  0  0  0  0  0
   63.2030   33.8380   46.3470 O   0  0  0  0  0  0  0  0  0  0  0  0
   63.6910   33.1980   48.8390 C   0  0  0  0  0  0  0  0  0  0  0  0
   64.8780   32.7380   49.3880 C   0  0  0  0  0  0  0  0  0  0  0  0
   65.0970   33.2270   50.6830 C   0  0  0  0  0  0  0  0  0  0  0  0
   64.0830   34.0520   51.1530 C   0  0  0  0  0  0  0  0  0  0  0  0
   62.9020   34.1730   49.9620 S   0  0  0  0  0  0  0  0  0  0  0  0
   59.1667   32.5999   43.5260 H   0  0  0  0  0  0  0  0  0  0  0  0
   58.0594   31.3916   42.7908 H   0  0  0  0  0  0  0  0  0  0  0  0
   57.6167   33.1325   42.7908 H   0  0  0  0  0  0  0  0  0  0  0  0
   58.1007   32.4605   45.5080 H   0  0  0  0  0  0  0  0  0  0  0  0
   56.5054   32.7756   44.7048 H   0  0  0  0  0  0  0  0  0  0  0  0
   55.1865   29.7752   44.4841 H   0  0  0  0  0  0  0  0  0  0  0  0
   55.5915   31.1793   43.4298 H   0  0  0  0  0  0  0  0  0  0  0  0
   57.1644   28.5543   43.4602 H   0  0  0  0  0  0  0  0  0  0  0  0
   55.8396   28.9188   42.3032 H   0  0  0  0  0  0  0  0  0  0  0  0
   57.3322   29.9181   42.3032 H   0  0  0  0  0  0  0  0  0  0  0  0
   57.7476   28.7777   44.9467 H   0  0  0  0  0  0  0  0  0  0  0  0
   58.8593   30.0684   44.2637 H   0  0  0  0  0  0  0  0  0  0  0  0
   58.4153   30.6131   47.0451 H   0  0  0  0  0  0  0  0  0  0  0  0
   58.9102   28.8893   46.8618 H   0  0  0  0  0  0  0  0  0  0  0  0
   60.9132   29.4782   45.6980 H   0  0  0  0  0  0  0  0  0  0  0  0
   60.3337   31.1939   45.4743 H   0  0  0  0  0  0  0  0  0  0  0  0
   62.1047   30.3114   47.4958 H   0  0  0  0  0  0  0  0  0  0  0  0
   60.7749   30.5648   49.5909 H   0  0  0  0  0  0  0  0  0  0  0  0
   59.2693   30.7091   48.6218 H   0  0  0  0  0  0  0  0  0  0  0  0
   60.1932   29.1686   48.6218 H   0  0  0  0  0  0  0  0  0  0  0  0
   61.0190   32.5900   48.4060 H   0  0  0  0  0  0  0  0  0  0  0  0
   61.2284   33.2138   45.5776 H   0  0  0  0  0  0  0  0  0  0  0  0
   59.7640   32.2192   46.0496 H   0  0  0  0  0  0  0  0  0  0  0  0
   60.3949   34.6682   47.6443 H   0  0  0  0  0  0  0  0  0  0  0  0
   58.4212   33.8366   48.4888 H   0  0  0  0  0  0  0  0  0  0  0  0
   57.6548   34.5562   47.0323 H   0  0  0  0  0  0  0  0  0  0  0  0
   58.1345   32.8251   47.0323 H   0  0  0  0  0  0  0  0  0  0  0  0
   59.5072   36.2696   46.2095 H   0  0  0  0  0  0  0  0  0  0  0  0
   60.5455   35.2852   45.1235 H   0  0  0  0  0  0  0  0  0  0  0  0
   58.7652   35.0463   45.1235 H   0  0  0  0  0  0  0  0  0  0  0  0
   65.5716   32.0634   48.8647 H   0  0  0  0  0  0  0  0  0  0  0  0
   65.9912   32.9798   51.2740 H   0  0  0  0  0  0  0  0  0  0  0  0
   64.0570   34.5428   52.1371 H   0  0  0  0  0  0  0  0  0  0  0  0
  1  2  1  0
  2  3  1  0
  3  4  1  0
  4  5  1  0
  3  6  1  0
  6  7  1  0
  7  8  1  0
  8  9  1  0
  9 10  1  0
  9 11  1  0
 11 12  1  0
 12 13  1  0
 13 14  1  0
 13 15  1  0
 11 16  1  0
 16 17  2  0
 16 18  2  0
 16 19  1  0
 19 20  2  0
 20 21  1  0
 21 22  2  0
 22 23  1  0
 23 19  1  0
  1 24  1  0
  1 25  1  0
  1 26  1  0
  2 27  1  0
  2 28  1  0
  4 29  1  0
  4 30  1  0
  5 31  1  0
  5 32  1  0
  5 33  1  0
  6 34  1  0
  6 35  1  0
  7 36  1  0
  7 37  1  0
  8 38  1  0
  8 39  1  0
  9 40  1  6
 10 41  1  0
 10 42  1  0
 10 43  1  0
 11 44  1  1
 12 45  1  0
 12 46  1  0
 13 47  1  0
 14 48  1  0
 14 49  1  0
 14 50  1  0
 15 51  1  0
 15 52  1  0
 15 53  1  0
 20 54  1  0
 21 55  1  0
 22 56  1  0
M  CHG  1  11   1
M  END
>  <UniqueID>  (12) 
11

>  <SMILES>  (12) 
CCN(CC)CCC[C@H](C)[N@H+](CC(C)C)S(=O)(=O)c1cccs1

>  <Energy>  (12) 
85.17673782319422

>  <Genealogy>  (12) 
CCN(CC)CCCC(C)[NH+](CC(C)C)S(=O)(=O)c1cccs1 (protonated)
CCN(CC)CCC[C@H](C)[N@H+](CC(C)C)S(=O)(=O)c1cccs1 (chirality)
CCN(CC)CCC[C@H](C)[N@H+](CC(C)C)S(=O)(=O)c1cccs1 (3D coordinates assigned)
CCN(CC)CCC[C@H](C)[N@H+](CC(C)C)S(=O)(=O)c1cccs1 (optimized conformer: 85.17673782319422 kcal/mol)

>  <smiles>  (12) 
CCN(CC)CCCC(C)N(CC(C)C)S(=O)(=O)c1cccs1

>  <score_type>  (12) 
oracle

>  <origin>  (12) 
adg

>  <m_score__min__energy>  (12) 
-5.8600000000000003

>  <m_primary>  (12) 
energy

$$$$
12:0
     RDKit          3D

 33 35  0  0  0  0  0  0  0  0999 V2000
   58.1060   32.3200   41.9480 C   0  0  0  0  0  0  0  0  0  0  0  0
   57.8550   32.0200   43.3570 N   0  0  0  0  0  0  0  0  0  0  0  0
   57.1430   30.9840   43.8790 C   0  0  0  0  0  0  0  0  0  0  0  0
   56.5170   29.8890   43.0640 C   0  0  0  0  0  0  0  0  0  0  0  0
   57.1860   28.6120   43.3160 N   0  0  0  0  0  0  0  0  0  0  0  0
   57.9970   28.3310   44.4740 C   0  0  0  0  0  0  0  0  0  0  0  0
   59.3810   28.5920   44.4930 C   0  0  0  0  0  0  0  0  0  0  0  0
   60.1370   28.3120   45.6380 C   0  0  0  0  0  0  0  0  0  0  0  0
   59.5220   27.7670   46.7670 C   0  0  0  0  0  0  0  0  0  0  0  0
   60.2570   27.4970   47.8750 F   0  0  0  0  0  0  0  0  0  0  0  0
   58.1520   27.4990   46.7550 C   0  0  0  0  0  0  0  0  0  0  0  0
   57.3940   27.7780   45.6150 C   0  0  0  0  0  0  0  0  0  0  0  0
   57.0150   31.0460   45.2310 N   0  0  0  0  0  0  0  0  0  0  0  0
   57.6640   32.1820   45.5460 C   0  0  0  0  0  0  0  0  0  0  0  0
   57.8170   32.7460   46.8090 C   0  0  0  0  0  0  0  0  0  0  0  0
   58.5090   33.9690   46.9010 C   0  0  0  0  0  0  0  0  0  0  0  0
   59.0170   34.5920   45.7390 C   0  0  0  0  0  0  0  0  0  0  0  0
   58.8410   33.9960   44.4750 C   0  0  0  0  0  0  0  0  0  0  0  0
   58.1590   32.7780   44.4240 C   0  0  0  0  0  0  0  0  0  0  0  0
   58.8102   33.1616   41.8721 H   0  0  0  0  0  0  0  0  0  0  0  0
   58.5372   31.4357   41.4560 H   0  0  0  0  0  0  0  0  0  0  0  0
   57.1595   32.5883   41.4560 H   0  0  0  0  0  0  0  0  0  0  0  0
   55.4544   29.7998   43.3340 H   0  0  0  0  0  0  0  0  0  0  0  0
   56.6192   30.1383   41.9975 H   0  0  0  0  0  0  0  0  0  0  0  0
   57.0210   27.8430   42.6270 H   0  0  0  0  0  0  0  0  0  0  0  0
   59.8702   29.0177   43.6045 H   0  0  0  0  0  0  0  0  0  0  0  0
   61.2168   28.5217   45.6481 H   0  0  0  0  0  0  0  0  0  0  0  0
   57.6688   27.0677   47.6441 H   0  0  0  0  0  0  0  0  0  0  0  0
   56.3153   27.5625   45.6114 H   0  0  0  0  0  0  0  0  0  0  0  0
   57.4112   32.2533   47.7049 H   0  0  0  0  0  0  0  0  0  0  0  0
   58.6549   34.4421   47.8833 H   0  0  0  0  0  0  0  0  0  0  0  0
   59.5534   35.5487   45.8221 H   0  0  0  0  0  0  0  0  0  0  0  0
   59.2265   34.4723   43.5614 H   0  0  0  0  0  0  0  0  0  0  0  0
  1  2  1  0
  2  3  1  0
  3  4  1  0
  4  5  1  0
  5  6  1  0
  6  7  2  0
  7  8  1  0
  8  9  2  0
  9 10  1  0
  9 11  1  0
 11 12  2  0
  3 13  2  0
 13 14  1  0
 14 15  2  0
 15 16  1  0
 16 17  2  0
 17 18  1  0
 18 19  2  0
 19  2  1  0
 12  6  1  0
 19 14  1  0
  1 20  1  0
  1 21  1  0
  1 22  1  0
  4 23  1  0
  4 24  1  0
  5 25  1  0
  7 26  1  0
  8 27  1  0
 11 28  1  0
 12 29  1  0
 15 30  1  0
 16 31  1  0
 17 32  1  0
 18 33  1  0
M  END
>  <UniqueID>  (13) 
12

>  <SMILES>  (13) 
Cn1c(CNc2ccc(F)cc2)nc2ccccc21

>  <Energy>  (13) 
70.97112751367534

>  <Genealogy>  (13) 
Cn1c(CNc2ccc(F)cc2)nc2ccccc21 (3D coordinates assigned)
Cn1c(CNc2ccc(F)cc2)nc2ccccc21 (optimized conformer: 70.97112751367534 kcal/mol)

>  <smiles>  (13) 
Cn1c(CNc2ccc(F)cc2)nc2ccccc21

>  <score_type>  (13) 
oracle

>  <origin>  (13) 
adg

>  <m_score__min__energy>  (13) 
-7.25

>  <m_primary>  (13) 
energy

$$$$
13:0
     RDKit          3D

 51 53  0  0  0  0  0  0  0  0999 V2000
   60.2620   33.0700   50.0020 C   0  0  0  0  0  0  0  0  0  0  0  0
   61.2680   34.1550   49.6310 C   0  0  0  0  0  0  0  0  0  0  0  0
   61.9140   33.8410   48.3470 N   0  0  0  0  0  0  0  0  0  0  0  0
   63.3050   33.3620   48.3610 C   0  0  0  0  0  0  0  0  0  0  0  0
   63.4020   31.9810   47.7230 C   0  0  0  0  0  0  0  0  0  0  0  0
   61.2380   34.0430   47.0820 C   0  0  0  0  0  0  0  0  0  0  0  0
   61.8600   33.8260   46.0050 O   0  0  0  0  0  0  0  0  0  0  0  0
   59.7830   34.4370   47.0110 C   0  0  0  0  0  0  0  0  0  0  0  0
   59.0480   33.5850   46.0770 N   0  0  0  0  0  0  0  0  0  0  0  0
   58.3830   34.0540   44.8630 C   0  0  0  0  0  0  0  0  0  0  0  0
   57.7660   32.7960   44.2040 C   0  0  0  0  0  0  0  0  0  0  0  0
   58.1660   31.6920   45.1220 C   0  0  0  0  0  0  0  0  0  0  0  0
   57.8800   30.3310   45.0080 C   0  0  0  0  0  0  0  0  0  0  0  0
   58.3540   29.4470   46.0040 C   0  0  0  0  0  0  0  0  0  0  0  0
   58.0680   27.9930   45.9140 C   0  0  0  0  0  0  0  0  0  0  0  0
   59.1150   27.0690   45.7480 C   0  0  0  0  0  0  0  0  0  0  0  0
   58.8450   25.7020   45.6660 C   0  0  0  0  0  0  0  0  0  0  0  0
   57.5300   25.2380   45.7470 C   0  0  0  0  0  0  0  0  0  0  0  0
   56.4680   26.1470   45.9130 C   0  0  0  0  0  0  0  0  0  0  0  0
   55.1310   25.7330   45.9980 O   0  0  0  0  0  0  0  0  0  0  0  0
   54.6590   24.4500   45.5980 C   0  0  0  0  0  0  0  0  0  0  0  0
   56.7470   27.5170   45.9960 C   0  0  0  0  0  0  0  0  0  0  0  0
   59.1060   29.9670   47.0870 C   0  0  0  0  0  0  0  0  0  0  0  0
   59.3790   31.3410   47.1740 C   0  0  0  0  0  0  0  0  0  0  0  0
   58.8920   32.1800   46.1710 C   0  0  0  0  0  0  0  0  0  0  0  0
   60.1917   32.9942   51.0971 H   0  0  0  0  0  0  0  0  0  0  0  0
   59.2758   33.3274   49.5882 H   0  0  0  0  0  0  0  0  0  0  0  0
   60.5930   32.1061   49.5882 H   0  0  0  0  0  0  0  0  0  0  0  0
   60.7458   35.1195   49.5473 H   0  0  0  0  0  0  0  0  0  0  0  0
   62.0390   34.2081   50.4137 H   0  0  0  0  0  0  0  0  0  0  0  0
   63.9356   34.0657   47.7979 H   0  0  0  0  0  0  0  0  0  0  0  0
   63.6475   33.2961   49.4043 H   0  0  0  0  0  0  0  0  0  0  0  0
   63.4557   31.2158   48.5114 H   0  0  0  0  0  0  0  0  0  0  0  0
   62.5142   31.8024   47.0986 H   0  0  0  0  0  0  0  0  0  0  0  0
   64.3061   31.9282   47.0986 H   0  0  0  0  0  0  0  0  0  0  0  0
   59.3363   34.3409   48.0116 H   0  0  0  0  0  0  0  0  0  0  0  0
   59.7211   35.4763   46.6561 H   0  0  0  0  0  0  0  0  0  0  0  0
   57.5954   34.7796   45.1142 H   0  0  0  0  0  0  0  0  0  0  0  0
   59.0874   34.5600   44.1864 H   0  0  0  0  0  0  0  0  0  0  0  0
   56.6709   32.8804   44.1440 H   0  0  0  0  0  0  0  0  0  0  0  0
   58.1101   32.6406   43.1708 H   0  0  0  0  0  0  0  0  0  0  0  0
   57.2952   29.9522   44.1569 H   0  0  0  0  0  0  0  0  0  0  0  0
   60.1535   27.4258   45.6824 H   0  0  0  0  0  0  0  0  0  0  0  0
   59.6711   24.9872   45.5371 H   0  0  0  0  0  0  0  0  0  0  0  0
   57.3237   24.1595   45.6809 H   0  0  0  0  0  0  0  0  0  0  0  0
   54.4369   23.8464   46.4904 H   0  0  0  0  0  0  0  0  0  0  0  0
   53.7449   24.5665   44.9974 H   0  0  0  0  0  0  0  0  0  0  0  0
   55.4307   23.9463   44.9974 H   0  0  0  0  0  0  0  0  0  0  0  0
   55.9208   28.2313   46.1273 H   0  0  0  0  0  0  0  0  0  0  0  0
   59.4793   29.2871   47.8670 H   0  0  0  0  0  0  0  0  0  0  0  0
   59.9631   31.7469   48.0131 H   0  0  0  0  0  0  0  0  0  0  0  0
  1  2  1  0
  2  3  1  0
  3  4  1  0
  4  5  1  0
  3  6  1  0
  6  7  2  0
  6  8  1  0
  8  9  1  0
  9 10  1  0
 10 11  1  0
 11 12  1  0
 12 13  2  0
 13 14  1  0
 14 15  1  0
 15 16  2  0
 16 17  1  0
 17 18  2  0
 18 19  1  0
 19 20  1  0
 20 21  1  0
 19 22  2  0
 14 23  2  0
 23 24  1  0
 24 25  2  0
 25  9  1  0
 25 12  1  0
 22 15  1  0
  1 26  1  0
  1 27  1  0
  1 28  1  0
  2 29  1  0
  2 30  1  0
  4 31  1  0
  4 32  1  0
  5 33  1  0
  5 34  1  0
  5 35  1  0
  8 36  1  0
  8 37  1  0
 10 38  1  0
 10 39  1  0
 11 40  1  0
 11 41  1  0
 13 42  1  0
 16 43  1  0
 17 44  1  0
 18 45  1  0
 21 46  1  0
 21 47  1  0
 21 48  1  0
 22 49  1  0
 23 50  1  0
 24 51  1  0
M  END
>  <UniqueID>  (14) 
13

>  <SMILES>  (14) 
CCN(CC)C(=O)CN1CCc2cc(-c3cccc(OC)c3)ccc21

>  <Energy>  (14) 
62.66742623415235

>  <Genealogy>  (14) 
CCN(CC)C(=O)CN1CCc2cc(-c3cccc(OC)c3)ccc21 (3D coordinates assigned)
CCN(CC)C(=O)CN1CCc2cc(-c3cccc(OC)c3)ccc21 (nonaromatic ring conformer: 62.66742623415235 kcal/mol)

>  <smiles>  (14) 
CCN(CC)C(=O)CN1CCc2cc(-c3cccc(OC)c3)ccc21

>  <score_type>  (14) 
oracle

>  <origin>  (14) 
adg

>  <m_score__min__energy>  (14) 
-7.9000000000000004

>  <m_primary>  (14) 
energy

$$$$
14:0
     RDKit          3D

 47 49  0  0  0  0  0  0  0  0999 V2000
   56.6910   29.9070   43.0330 C   0  0  0  0  0  0  0  0  0  0  0  0
   55.6130   30.0750   44.0980 C   0  0  0  0  0  0  0  0  0  0  0  0
   55.9040   29.2680   45.2250 O   0  0  0  0  0  0  0  0  0  0  0  0
   56.9600   28.3650   44.9540 C   0  0  0  0  0  0  0  0  0  0  0  0
   57.1900   27.4440   46.1570 C   0  0  0  0  0  0  0  0  0  0  0  0
   58.6310   26.9150   46.1850 C   0  0  0  0  0  0  0  0  0  0  0  0
   59.5560   27.9670   46.6560 N   0  0  0  0  0  0  0  0  0  0  0  0
   59.0240   28.7000   47.8390 C   0  0  0  0  0  0  0  0  0  0  0  0
   58.5680   30.1300   47.5120 C   0  0  0  0  0  0  0  0  0  0  0  0
   59.7430   30.9710   46.9410 C   0  0  0  0  0  0  0  0  0  0  0  0
   60.5520   31.6440   48.0960 C   0  0  0  0  0  0  0  0  0  0  0  0
   60.0650   33.0980   48.2070 C   0  0  0  0  0  0  0  0  0  0  0  0
   59.3670   33.3270   46.9240 C   0  0  0  0  0  0  0  0  0  0  0  0
   58.8840   34.5490   46.4500 C   0  0  0  0  0  0  0  0  0  0  0  0
   58.2140   34.5800   45.2200 C   0  0  0  0  0  0  0  0  0  0  0  0
   58.0270   33.3950   44.4890 C   0  0  0  0  0  0  0  0  0  0  0  0
   58.5100   32.1750   44.9860 C   0  0  0  0  0  0  0  0  0  0  0  0
   59.1900   32.1620   46.2120 C   0  0  0  0  0  0  0  0  0  0  0  0
   60.6740   30.1080   46.0360 C   0  0  0  0  0  0  0  0  0  0  0  0
   59.9680   28.8420   45.5340 C   0  0  0  0  0  0  0  0  0  0  0  0
   57.6660   29.7550   43.5190 H   0  0  0  0  0  0  0  0  0  0  0  0
   56.4541   29.0349   42.4058 H   0  0  0  0  0  0  0  0  0  0  0  0
   56.7307   30.8098   42.4058 H   0  0  0  0  0  0  0  0  0  0  0  0
   55.5708   31.1295   44.4082 H   0  0  0  0  0  0  0  0  0  0  0  0
   54.6444   29.7662   43.6779 H   0  0  0  0  0  0  0  0  0  0  0  0
   56.7014   27.7567   44.0748 H   0  0  0  0  0  0  0  0  0  0  0  0
   57.8795   28.9361   44.7580 H   0  0  0  0  0  0  0  0  0  0  0  0
   56.9967   28.0071   47.0819 H   0  0  0  0  0  0  0  0  0  0  0  0
   56.5061   26.5864   46.0744 H   0  0  0  0  0  0  0  0  0  0  0  0
   58.6873   26.0519   46.8646 H   0  0  0  0  0  0  0  0  0  0  0  0
   58.9208   26.6139   45.1675 H   0  0  0  0  0  0  0  0  0  0  0  0
   58.1642   28.1419   48.2381 H   0  0  0  0  0  0  0  0  0  0  0  0
   59.8425   28.7777   48.5698 H   0  0  0  0  0  0  0  0  0  0  0  0
   57.7597   30.0885   46.7670 H   0  0  0  0  0  0  0  0  0  0  0  0
   58.2136   30.6058   48.4383 H   0  0  0  0  0  0  0  0  0  0  0  0
   60.3706   31.1128   49.0420 H   0  0  0  0  0  0  0  0  0  0  0  0
   61.6315   31.6093   47.8875 H   0  0  0  0  0  0  0  0  0  0  0  0
   59.3763   33.2182   49.0562 H   0  0  0  0  0  0  0  0  0  0  0  0
   60.8833   33.8117   48.3829 H   0  0  0  0  0  0  0  0  0  0  0  0
   59.0272   35.4711   47.0325 H   0  0  0  0  0  0  0  0  0  0  0  0
   57.8337   35.5340   44.8259 H   0  0  0  0  0  0  0  0  0  0  0  0
   57.5002   33.4237   43.5238 H   0  0  0  0  0  0  0  0  0  0  0  0
   58.3574   31.2428   44.4223 H   0  0  0  0  0  0  0  0  0  0  0  0
   60.9849   30.7096   45.1691 H   0  0  0  0  0  0  0  0  0  0  0  0
   61.5429   29.7994   46.6358 H   0  0  0  0  0  0  0  0  0  0  0  0
   59.0748   29.1341   44.9623 H   0  0  0  0  0  0  0  0  0  0  0  0
   60.6730   28.2823   44.9017 H   0  0  0  0  0  0  0  0  0  0  0  0
  1  2  1  0
  2  3  1  0
  3  4  1  0
  4  5  1  0
  5  6  1  0
  6  7  1  0
  7  8  1  0
  8  9  1  0
  9 10  1  0
 10 11  1  0
 11 12  1  0
 12 13  1  0
 13 14  2  0
 14 15  1  0
 15 16  2  0
 16 17  1  0
 17 18  2  0
 10 19  1  0
 19 20  1  0
 20  7  1  0
 18 10  1  0
 18 13  1  0
  1 21  1  0
  1 22  1  0
  1 23  1  0
  2 24  1  0
  2 25  1  0
  4 26  1  0
  4 27  1  0
  5 28  1  0
  5 29  1  0
  6 30  1  0
  6 31  1  0
  8 32  1  0
  8 33  1  0
  9 34  1  0
  9 35  1  0
 11 36  1  0
 11 37  1  0
 12 38  1  0
 12 39  1  0
 14 40  1  0
 15 41  1  0
 16 42  1  0
 17 43  1  0
 19 44  1  0
 19 45  1  0
 20 46  1  0
 20 47  1  0
M  END
>  <UniqueID>  (15) 
14

>  <SMILES>  (15) 
CCOCCCN1CCC2(CCc3ccccc32)CC1

>  <Energy>  (15) 
63.699376554303875

>  <Genealogy>  (15) 
CCOCCCN1CCC2(CCc3ccccc32)CC1 (3D coordinates assigned)
CCOCCCN1CCC2(CCc3ccccc32)CC1 (nonaromatic ring conformer: 63.699376554303875 kcal/mol)

>  <smiles>  (15) 
CCOCCCN1CCC2(CCc3ccccc32)CC1

>  <score_type>  (15) 
oracle

>  <origin>  (15) 
adg

>  <m_score__min__energy>  (15) 
-7.9199999999999999

>  <m_primary>  (15) 
energy

$$$$
15:0
     RDKit          3D

 47 50  0  0  0  0  0  0  0  0999 V2000
   59.2810   33.8070   51.5820 C   0  0  0  0  0  0  0  0  0  0  0  0
   58.0360   33.0280   51.9910 C   0  0  0  0  0  0  0  0  0  0  0  0
   57.6280   32.1140   50.9120 N   0  0  0  0  0  0  0  0  0  0  0  0
   57.7750   30.6970   51.2860 C   0  0  0  0  0  0  0  0  0  0  0  0
   58.6730   29.9260   50.3000 C   0  0  0  0  0  0  0  0  0  0  0  0
   59.2480   30.8370   49.2990 N   0  0  0  0  0  0  0  0  0  0  0  0
   58.9040   30.4000   47.9720 C   0  0  0  0  0  0  0  0  0  0  0  0
   58.6430   29.0810   47.7570 N   0  0  0  0  0  0  0  0  0  0  0  0
   58.3230   28.5540   46.5380 C   0  0  0  0  0  0  0  0  0  0  0  0
   58.1040   27.1760   46.4400 C   0  0  0  0  0  0  0  0  0  0  0  0
   57.8290   26.5910   45.2040 C   0  0  0  0  0  0  0  0  0  0  0  0
   57.7910   27.3770   44.0540 C   0  0  0  0  0  0  0  0  0  0  0  0
   58.0030   28.7570   44.1310 C   0  0  0  0  0  0  0  0  0  0  0  0
   58.2320   29.3780   45.3770 C   0  0  0  0  0  0  0  0  0  0  0  0
   58.4380   30.7660   45.5630 C   0  0  0  0  0  0  0  0  0  0  0  0
   58.3350   31.8090   44.6860 N   0  0  0  0  0  0  0  0  0  0  0  0
   57.8050   31.7970   43.3200 C   0  0  0  0  0  0  0  0  0  0  0  0
   58.7310   32.9150   45.3730 C   0  0  0  0  0  0  0  0  0  0  0  0
   58.8540   34.2210   44.8750 C   0  0  0  0  0  0  0  0  0  0  0  0
   59.2820   35.2360   45.7430 C   0  0  0  0  0  0  0  0  0  0  0  0
   59.5860   34.9450   47.0840 C   0  0  0  0  0  0  0  0  0  0  0  0
   59.4680   33.6350   47.5740 C   0  0  0  0  0  0  0  0  0  0  0  0
   59.0350   32.6310   46.6970 C   0  0  0  0  0  0  0  0  0  0  0  0
   58.8340   31.2680   46.8710 C   0  0  0  0  0  0  0  0  0  0  0  0
   59.8163   34.1419   52.4827 H   0  0  0  0  0  0  0  0  0  0  0  0
   59.9389   33.1592   50.9841 H   0  0  0  0  0  0  0  0  0  0  0  0
   58.9861   34.6820   50.9841 H   0  0  0  0  0  0  0  0  0  0  0  0
   58.2545   32.4446   52.8976 H   0  0  0  0  0  0  0  0  0  0  0  0
   57.2185   33.7373   52.1873 H   0  0  0  0  0  0  0  0  0  0  0  0
   56.6310   32.3080   50.6560 H   0  0  0  0  0  0  0  0  0  0  0  0
   58.2205   30.6399   52.2901 H   0  0  0  0  0  0  0  0  0  0  0  0
   56.7763   30.2364   51.2648 H   0  0  0  0  0  0  0  0  0  0  0  0
   59.4880   29.4411   50.8573 H   0  0  0  0  0  0  0  0  0  0  0  0
   58.0629   29.1713   49.7821 H   0  0  0  0  0  0  0  0  0  0  0  0
   60.2840   30.9240   49.3890 H   0  0  0  0  0  0  0  0  0  0  0  0
   58.8500   31.7950   49.4510 H   0  0  0  0  0  0  0  0  0  0  0  0
   58.1489   26.5498   47.3432 H   0  0  0  0  0  0  0  0  0  0  0  0
   57.6421   25.5091   45.1371 H   0  0  0  0  0  0  0  0  0  0  0  0
   57.5928   26.9085   43.0787 H   0  0  0  0  0  0  0  0  0  0  0  0
   57.9911   29.3631   43.2131 H   0  0  0  0  0  0  0  0  0  0  0  0
   56.7058   31.7721   43.3534 H   0  0  0  0  0  0  0  0  0  0  0  0
   58.1353   32.7029   42.7906 H   0  0  0  0  0  0  0  0  0  0  0  0
   58.1760   30.9070   42.7906 H   0  0  0  0  0  0  0  0  0  0  0  0
   58.6192   34.4445   43.8238 H   0  0  0  0  0  0  0  0  0  0  0  0
   59.3804   36.2668   45.3718 H   0  0  0  0  0  0  0  0  0  0  0  0
   59.9191   35.7505   47.7550 H   0  0  0  0  0  0  0  0  0  0  0  0
   59.7096   33.4018   48.6215 H   0  0  0  0  0  0  0  0  0  0  0  0
  1  2  1  0
  2  3  1  0
  3  4  1  0
  4  5  1  0
  5  6  1  0
  6  7  1  0
  7  8  1  0
  8  9  1  0
  9 10  2  0
 10 11  1  0
 11 12  2  0
 12 13  1  0
 13 14  2  0
 14 15  1  0
 15 16  2  0
 16 17  1  0
 16 18  1  0
 18 19  2  0
 19 20  1  0
 20 21  2  0
 21 22  1  0
 22 23  2  0
 23 24  1  0
 24  7  2  0
 14  9  1  0
 24 15  1  0
 23 18  1  0
  1 25  1  0
  1 26  1  0
  1 27  1  0
  2 28  1  0
  2 29  1  0
  3 30  1  0
  4 31  1  0
  4 32  1  0
  5 33  1  0
  5 34  1  0
  6 35  1  0
  6 36  1  0
 10 37  1  0
 11 38  1  0
 12 39  1  0
 13 40  1  0
 17 41  1  0
 17 42  1  0
 17 43  1  0
 19 44  1  0
 20 45  1  0
 21 46  1  0
 22 47  1  0
M  CHG  3   6   1   8  -1  16   1
M  END
>  <UniqueID>  (16) 
15

>  <SMILES>  (16) 
CCNCC[NH2+]c1[n-]c2ccccc2c2[n+](C)c3ccccc3c1-2

>  <Energy>  (16) 
101.88867465865994

>  <Genealogy>  (16) 
CCNCC[NH2+]c1[n-]c2ccccc2c2[n+](C)c3ccccc3c1-2 (protonated)
CCNCC[NH2+]c1[n-]c2ccccc2c2[n+](C)c3ccccc3c1-2 (3D coordinates assigned)
CCNCC[NH2+]c1[n-]c2ccccc2c2[n+](C)c3ccccc3c1-2 (optimized conformer: 101.88867465865994 kcal/mol)

>  <smiles>  (16) 
CCNCCNc1[nH]c2ccccc2c2[n+](C)c3ccccc3c1-2

>  <score_type>  (16) 
oracle

>  <origin>  (16) 
adg

>  <m_score__min__energy>  (16) 
-5.25

>  <m_primary>  (16) 
energy

$$$$
16:0
     RDKit          3D

 32 32  0  0  0  0  0  0  0  0999 V2000
   60.6150   32.5670   46.8430 C   0  0  0  0  0  0  0  0  0  0  0  0
   60.6000   34.0150   46.3750 C   0  0  0  0  0  0  0  0  0  0  0  0
   58.8850   34.6300   46.3110 S   0  0  0  0  0  0  0  0  0  0  0  0
   58.6060   34.1120   44.5870 C   0  0  0  0  0  0  0  0  0  0  0  0
   57.9680   32.7580   44.5740 C   0  0  0  0  0  0  0  0  0  0  0  0
   57.5040   32.1350   45.6730 N   0  0  0  0  0  0  0  0  0  0  0  0
   57.0310   30.9540   45.3080 N   0  0  0  0  0  0  0  0  0  0  0  0
   57.2320   30.8660   43.9780 C   0  0  0  0  0  0  0  0  0  0  0  0
   56.7330   29.4440   43.0000 S   0  0  0  0  0  0  0  0  0  0  0  0
   57.7630   28.2390   43.9190 C   0  0  0  0  0  0  0  0  0  0  0  0
   58.1530   27.1000   42.9790 C   0  0  0  0  0  0  0  0  0  0  0  0
   59.0130   28.9140   44.4890 C   0  0  0  0  0  0  0  0  0  0  0  0
   57.8290   31.9730   43.4870 N   0  0  0  0  0  0  0  0  0  0  0  0
   58.1200   32.3090   42.0950 C   0  0  0  0  0  0  0  0  0  0  0  0
   60.6153   32.5370   47.9426 H   0  0  0  0  0  0  0  0  0  0  0  0
   59.7222   32.0494   46.4623 H   0  0  0  0  0  0  0  0  0  0  0  0
   61.5184   32.0680   46.4623 H   0  0  0  0  0  0  0  0  0  0  0  0
   61.1822   34.6308   47.0763 H   0  0  0  0  0  0  0  0  0  0  0  0
   61.0435   34.0750   45.3702 H   0  0  0  0  0  0  0  0  0  0  0  0
   57.9435   34.8351   44.0888 H   0  0  0  0  0  0  0  0  0  0  0  0
   59.5676   34.0712   44.0544 H   0  0  0  0  0  0  0  0  0  0  0  0
   57.4990   32.5010   46.6510 H   0  0  0  0  0  0  0  0  0  0  0  0
   57.1842   27.8384   44.7643 H   0  0  0  0  0  0  0  0  0  0  0  0
   58.4534   26.2228   43.5708 H   0  0  0  0  0  0  0  0  0  0  0  0
   57.2935   26.8375   42.3446 H   0  0  0  0  0  0  0  0  0  0  0  0
   58.9930   27.4194   42.3446 H   0  0  0  0  0  0  0  0  0  0  0  0
   58.9726   28.8922   45.5880 H   0  0  0  0  0  0  0  0  0  0  0  0
   59.9091   28.3772   44.1443 H   0  0  0  0  0  0  0  0  0  0  0  0
   59.0556   29.9577   44.1443 H   0  0  0  0  0  0  0  0  0  0  0  0
   58.8398   33.1401   42.0612 H   0  0  0  0  0  0  0  0  0  0  0  0
   58.5485   31.4319   41.5880 H   0  0  0  0  0  0  0  0  0  0  0  0
   57.1907   32.6079   41.5880 H   0  0  0  0  0  0  0  0  0  0  0  0
  1  2  1  0
  2  3  1  0
  3  4  1  0
  4  5  1  0
  5  6  2  0
  6  7  1  0
  7  8  2  0
  8  9  1  0
  9 10  1  0
 10 11  1  0
 10 12  1  0
  8 13  1  0
 13 14  1  0
 13  5  1  0
  1 15  1  0
  1 16  1  0
  1 17  1  0
  2 18  1  0
  2 19  1  0
  4 20  1  0
  4 21  1  0
  6 22  1  0
 10 23  1  0
 11 24  1  0
 11 25  1  0
 11 26  1  0
 12 27  1  0
 12 28  1  0
 12 29  1  0
 14 30  1  0
 14 31  1  0
 14 32  1  0
M  CHG  1   6   1
M  END
>  <UniqueID>  (17) 
16

>  <SMILES>  (17) 
CCSCc1[nH+]nc(SC(C)C)n1C

>  <Energy>  (17) 
47.920079642204094

>  <Genealogy>  (17) 
CCSCc1[nH+]nc(SC(C)C)n1C (protonated)
CCSCc1[nH+]nc(SC(C)C)n1C (3D coordinates assigned)
CCSCc1[nH+]nc(SC(C)C)n1C (optimized conformer: 47.920079642204094 kcal/mol)

>  <smiles>  (17) 
CCSCc1nnc(SC(C)C)n1C

>  <score_type>  (17) 
oracle

>  <origin>  (17) 
adg

>  <m_score__min__energy>  (17) 
-4.2000000000000002

>  <m_primary>  (17) 
energy

$$$$
17:0
     RDKit          3D

 58 59  0  0  0  0  0  0  0  0999 V2000
   63.3810   33.8290   46.3750 C   0  0  0  0  0  0  0  0  0  0  0  0
   63.0760   32.5320   47.1360 C   0  0  0  0  0  0  0  0  0  0  0  0
   62.7880   32.6840   48.5920 N   0  0  0  0  0  0  0  0  0  0  0  0
   63.4080   33.8640   49.2550 C   0  0  0  0  0  0  0  0  0  0  0  0
   62.9920   34.0970   50.7120 C   0  0  0  0  0  0  0  0  0  0  0  0
   62.7500   31.4240   49.3900 C   0  0  0  0  0  0  0  0  0  0  0  0
   61.3610   30.8850   49.7870 C   0  0  0  0  0  0  0  0  0  0  0  0
   60.3610   31.3880   48.9180 O   0  0  0  0  0  0  0  0  0  0  0  0
   59.3880   32.1450   49.6180 C   0  0  0  0  0  0  0  0  0  0  0  0
   59.6550   33.6550   49.5730 C   0  0  0  0  0  0  0  0  0  0  0  0
   60.4100   33.9790   48.4230 O   0  0  0  0  0  0  0  0  0  0  0  0
   59.6850   34.8980   47.6310 C   0  0  0  0  0  0  0  0  0  0  0  0
   59.3560   34.2740   46.2770 C   0  0  0  0  0  0  0  0  0  0  0  0
   59.4770   32.8180   46.3430 N   0  0  0  0  0  0  0  0  0  0  0  0
   58.8250   31.9220   45.4210 C   0  0  0  0  0  0  0  0  0  0  0  0
   57.8560   32.4140   44.5420 C   0  0  0  0  0  0  0  0  0  0  0  0
   57.1590   31.5490   43.7060 C   0  0  0  0  0  0  0  0  0  0  0  0
   57.3910   30.2020   43.7280 N   0  0  0  0  0  0  0  0  0  0  0  0
   56.6010   29.3500   42.8240 C   0  0  0  0  0  0  0  0  0  0  0  0
   58.3350   29.6710   44.5850 C   0  0  0  0  0  0  0  0  0  0  0  0
   58.5870   28.2790   44.6330 C   0  0  0  0  0  0  0  0  0  0  0  0
   59.5530   27.7560   45.4930 C   0  0  0  0  0  0  0  0  0  0  0  0
   60.2940   28.6020   46.3120 C   0  0  0  0  0  0  0  0  0  0  0  0
   60.0700   29.9770   46.2860 C   0  0  0  0  0  0  0  0  0  0  0  0
   59.0810   30.5300   45.4440 C   0  0  0  0  0  0  0  0  0  0  0  0
   63.5716   34.6396   47.0937 H   0  0  0  0  0  0  0  0  0  0  0  0
   64.2693   33.6830   45.7429 H   0  0  0  0  0  0  0  0  0  0  0  0
   62.5207   34.0942   45.7429 H   0  0  0  0  0  0  0  0  0  0  0  0
   62.1988   32.0636   46.6659 H   0  0  0  0  0  0  0  0  0  0  0  0
   63.9933   31.9280   47.0751 H   0  0  0  0  0  0  0  0  0  0  0  0
   61.7740   32.9550   48.5810 H   0  0  0  0  0  0  0  0  0  0  0  0
   64.4997   33.7311   49.2314 H   0  0  0  0  0  0  0  0  0  0  0  0
   63.0560   34.7437   48.6962 H   0  0  0  0  0  0  0  0  0  0  0  0
   63.7525   33.6711   51.3830 H   0  0  0  0  0  0  0  0  0  0  0  0
   62.9014   35.1772   50.8992 H   0  0  0  0  0  0  0  0  0  0  0  0
   62.0236   33.6100   50.8992 H   0  0  0  0  0  0  0  0  0  0  0  0
   63.2522   30.6430   48.8001 H   0  0  0  0  0  0  0  0  0  0  0  0
   63.2401   31.6756   50.3421 H   0  0  0  0  0  0  0  0  0  0  0  0
   61.3701   29.7865   49.7295 H   0  0  0  0  0  0  0  0  0  0  0  0
   61.1350   31.2118   50.8127 H   0  0  0  0  0  0  0  0  0  0  0  0
   58.4029   31.9500   49.1690 H   0  0  0  0  0  0  0  0  0  0  0  0
   59.4278   31.8357   50.6729 H   0  0  0  0  0  0  0  0  0  0  0  0
   58.6963   34.1936   49.5429 H   0  0  0  0  0  0  0  0  0  0  0  0
   60.2201   33.9483   50.4700 H   0  0  0  0  0  0  0  0  0  0  0  0
   58.7503   35.1648   48.1460 H   0  0  0  0  0  0  0  0  0  0  0  0
   60.2950   35.7999   47.4745 H   0  0  0  0  0  0  0  0  0  0  0  0
   58.3261   34.5396   45.9963 H   0  0  0  0  0  0  0  0  0  0  0  0
   60.0634   34.6569   45.5267 H   0  0  0  0  0  0  0  0  0  0  0  0
   60.0590   32.4250   47.1170 H   0  0  0  0  0  0  0  0  0  0  0  0
   57.6434   33.4928   44.5115 H   0  0  0  0  0  0  0  0  0  0  0  0
   56.4070   31.9560   43.0141 H   0  0  0  0  0  0  0  0  0  0  0  0
   55.9712   28.6708   43.4174 H   0  0  0  0  0  0  0  0  0  0  0  0
   55.9621   29.9820   42.1896 H   0  0  0  0  0  0  0  0  0  0  0  0
   57.2793   28.7606   42.1896 H   0  0  0  0  0  0  0  0  0  0  0  0
   58.0138   27.6008   43.9838 H   0  0  0  0  0  0  0  0  0  0  0  0
   59.7295   26.6707   45.5237 H   0  0  0  0  0  0  0  0  0  0  0  0
   61.0594   28.1839   46.9824 H   0  0  0  0  0  0  0  0  0  0  0  0
   60.6700   30.6385   46.9282 H   0  0  0  0  0  0  0  0  0  0  0  0
  1  2  1  0
  2  3  1  0
  3  4  1  0
  4  5  1  0
  3  6  1  0
  6  7  1  0
  7  8  1  0
  8  9  1  0
  9 10  1  0
 10 11  1  0
 11 12  1  0
 12 13  1  0
 13 14  1  0
 14 15  1  0
 15 16  2  0
 16 17  1  0
 17 18  2  0
 18 19  1  0
 18 20  1  0
 20 21  2  0
 21 22  1  0
 22 23  2  0
 23 24  1  0
 24 25  2  0
 25 15  1  0
 25 20  1  0
  1 26  1  0
  1 27  1  0
  1 28  1  0
  2 29  1  0
  2 30  1  0
  3 31  1  0
  4 32  1  0
  4 33  1  0
  5 34  1  0
  5 35  1  0
  5 36  1  0
  6 37  1  0
  6 38  1  0
  7 39  1  0
  7 40  1  0
  9 41  1  0
  9 42  1  0
 10 43  1  0
 10 44  1  0
 12 45  1  0
 12 46  1  0
 13 47  1  0
 13 48  1  0
 14 49  1  0
 16 50  1  0
 17 51  1  0
 19 52  1  0
 19 53  1  0
 19 54  1  0
 21 55  1  0
 22 56  1  0
 23 57  1  0
 24 58  1  0
M  CHG  2   3   1  18   1
M  END
>  <UniqueID>  (18) 
17

>  <SMILES>  (18) 
CC[NH+](CC)CCOCCOCCNc1cc[n+](C)c2ccccc12

>  <Energy>  (18) 
79.70327454848393

>  <Genealogy>  (18) 
CC[NH+](CC)CCOCCOCCNc1cc[n+](C)c2ccccc12 (protonated)
CC[NH+](CC)CCOCCOCCNc1cc[n+](C)c2ccccc12 (3D coordinates assigned)
CC[NH+](CC)CCOCCOCCNc1cc[n+](C)c2ccccc12 (optimized conformer: 79.70327454848393 kcal/mol)

>  <smiles>  (18) 
CCN(CC)CCOCCOCCNc1cc[n+](C)c2ccccc12

>  <score_type>  (18) 
oracle

>  <origin>  (18) 
adg

>  <m_score__min__energy>  (18) 
-2.7999999999999998

>  <m_primary>  (18) 
energy

$$$$
18:0
     RDKit          3D

 52 54  0  0  0  0  0  0  0  0999 V2000
   62.6030   31.6140   47.4730 C   0  0  0  0  0  0  0  0  0  0  0  0
   63.1980   32.9830   47.1440 C   0  0  0  0  0  0  0  0  0  0  0  0
   62.1880   34.0540   47.3020 N   0  0  0  0  0  0  0  0  0  0  0  0
   61.7240   34.1810   48.7090 C   0  0  0  0  0  0  0  0  0  0  0  0
   62.9240   34.1990   49.6490 C   0  0  0  0  0  0  0  0  0  0  0  0
   61.0560   33.8560   46.3660 C   0  0  0  0  0  0  0  0  0  0  0  0
   59.9270   34.8690   46.6210 C   0  0  0  0  0  0  0  0  0  0  0  0
   58.6570   34.5940   45.8020 C   0  0  0  0  0  0  0  0  0  0  0  0
   57.7820   33.6230   46.4630 N   0  0  0  0  0  0  0  0  0  0  0  0
   58.1420   32.2330   46.5930 C   0  0  0  0  0  0  0  0  0  0  0  0
   57.8610   31.3210   45.5580 C   0  0  0  0  0  0  0  0  0  0  0  0
   57.0270   31.6810   44.4780 C   0  0  0  0  0  0  0  0  0  0  0  0
   56.7410   30.7730   43.4620 C   0  0  0  0  0  0  0  0  0  0  0  0
   57.2560   29.4830   43.5180 C   0  0  0  0  0  0  0  0  0  0  0  0
   58.0590   29.0930   44.5880 C   0  0  0  0  0  0  0  0  0  0  0  0
   58.3910   30.0040   45.6240 C   0  0  0  0  0  0  0  0  0  0  0  0
   59.1900   29.6330   46.6860 N   0  0  0  0  0  0  0  0  0  0  0  0
   59.9950   28.3940   46.6110 C   0  0  0  0  0  0  0  0  0  0  0  0
   59.2510   30.4300   47.8140 C   0  0  0  0  0  0  0  0  0  0  0  0
   59.8050   29.9570   49.0300 C   0  0  0  0  0  0  0  0  0  0  0  0
   59.9240   30.7900   50.1400 C   0  0  0  0  0  0  0  0  0  0  0  0
   60.4630   30.3160   51.2900 F   0  0  0  0  0  0  0  0  0  0  0  0
   59.4890   32.1090   50.0720 C   0  0  0  0  0  0  0  0  0  0  0  0
   58.9060   32.5930   48.9040 C   0  0  0  0  0  0  0  0  0  0  0  0
   58.7550   31.7610   47.7720 C   0  0  0  0  0  0  0  0  0  0  0  0
   62.5492   31.4903   48.5647 H   0  0  0  0  0  0  0  0  0  0  0  0
   61.5921   31.5412   47.0455 H   0  0  0  0  0  0  0  0  0  0  0  0
   63.2395   30.8252   47.0455 H   0  0  0  0  0  0  0  0  0  0  0  0
   64.0410   33.1810   47.8224 H   0  0  0  0  0  0  0  0  0  0  0  0
   63.5380   32.9744   46.0979 H   0  0  0  0  0  0  0  0  0  0  0  0
   61.1565   35.1164   48.8233 H   0  0  0  0  0  0  0  0  0  0  0  0
   61.0806   33.3242   48.9579 H   0  0  0  0  0  0  0  0  0  0  0  0
   62.5732   34.1937   50.6916 H   0  0  0  0  0  0  0  0  0  0  0  0
   63.5458   33.3101   49.4669 H   0  0  0  0  0  0  0  0  0  0  0  0
   63.5189   35.1062   49.4669 H   0  0  0  0  0  0  0  0  0  0  0  0
   61.4195   33.9786   45.3351 H   0  0  0  0  0  0  0  0  0  0  0  0
   60.6528   32.8446   46.5226 H   0  0  0  0  0  0  0  0  0  0  0  0
   59.6657   34.8368   47.6890 H   0  0  0  0  0  0  0  0  0  0  0  0
   60.3029   35.8554   46.3116 H   0  0  0  0  0  0  0  0  0  0  0  0
   58.1068   35.5375   45.6710 H   0  0  0  0  0  0  0  0  0  0  0  0
   58.9607   34.1748   44.8314 H   0  0  0  0  0  0  0  0  0  0  0  0
   56.9510   33.9900   46.9780 H   0  0  0  0  0  0  0  0  0  0  0  0
   56.5970   32.6927   44.4383 H   0  0  0  0  0  0  0  0  0  0  0  0
   56.1077   31.0763   42.6153 H   0  0  0  0  0  0  0  0  0  0  0  0
   57.0287   28.7671   42.7143 H   0  0  0  0  0  0  0  0  0  0  0  0
   58.4416   28.0625   44.6302 H   0  0  0  0  0  0  0  0  0  0  0  0
   60.2232   28.0428   47.6282 H   0  0  0  0  0  0  0  0  0  0  0  0
   59.4270   27.6196   46.0745 H   0  0  0  0  0  0  0  0  0  0  0  0
   60.9333   28.5983   46.0745 H   0  0  0  0  0  0  0  0  0  0  0  0
   60.1470   28.9137   49.0982 H   0  0  0  0  0  0  0  0  0  0  0  0
   59.6057   32.7712   50.9426 H   0  0  0  0  0  0  0  0  0  0  0  0
   58.5587   33.6359   48.8619 H   0  0  0  0  0  0  0  0  0  0  0  0
  1  2  1  0
  2  3  1  0
  3  4  1  0
  4  5  1  0
  3  6  1  0
  6  7  1  0
  7  8  1  0
  8  9  1  0
  9 10  1  0
 10 11  2  0
 11 12  1  0
 12 13  2  0
 13 14  1  0
 14 15  2  0
 15 16  1  0
 16 17  2  0
 17 18  1  0
 17 19  1  0
 19 20  2  0
 20 21  1  0
 21 22  1  0
 21 23  2  0
 23 24  1  0
 24 25  2  0
 25 10  1  0
 16 11  1  0
 25 19  1  0
  1 26  1  0
  1 27  1  0
  1 28  1  0
  2 29  1  0
  2 30  1  0
  4 31  1  0
  4 32  1  0
  5 33  1  0
  5 34  1  0
  5 35  1  0
  6 36  1  0
  6 37  1  0
  7 38  1  0
  7 39  1  0
  8 40  1  0
  8 41  1  0
  9 42  1  0
 12 43  1  0
 13 44  1  0
 14 45  1  0
 15 46  1  0
 18 47  1  0
 18 48  1  0
 18 49  1  0
 20 50  1  0
 23 51  1  0
 24 52  1  0
M  CHG  1  17   1
M  END
>  <UniqueID>  (19) 
18

>  <SMILES>  (19) 
CCN(CC)CCCNc1c2ccccc2[n+](C)c2cc(F)ccc12

>  <Energy>  (19) 
72.66334771349312

>  <Genealogy>  (19) 
CCN(CC)CCCNc1c2ccccc2[n+](C)c2cc(F)ccc12 (3D coordinates assigned)
CCN(CC)CCCNc1c2ccccc2[n+](C)c2cc(F)ccc12 (optimized conformer: 72.66334771349312 kcal/mol)

>  <smiles>  (19) 
CCN(CC)CCCNc1c2ccccc2[n+](C)c2cc(F)ccc12

>  <score_type>  (19) 
oracle

>  <origin>  (19) 
adg

>  <m_score__min__energy>  (19) 
-5.5800000000000001

>  <m_primary>  (19) 
energy

$$$$
19:0
     RDKit          3D

 60 63  0  0  0  0  0  0  0  0999 V2000
   59.9370   35.2210   46.2780 C   0  0  0  0  0  0  0  0  0  0  0  0
   59.2830   34.6780   47.5590 C   0  0  0  0  0  0  0  0  0  0  0  0
   60.0860   33.6540   48.2680 N   0  0  0  0  0  0  0  0  0  0  0  0
   61.3000   34.2080   48.9070 C   0  0  0  0  0  0  0  0  0  0  0  0
   62.5480   33.8000   48.1270 C   0  0  0  0  0  0  0  0  0  0  0  0
   59.2820   32.8060   49.1790 C   0  0  0  0  0  0  0  0  0  0  0  0
   59.2160   31.3650   48.6550 C   0  0  0  0  0  0  0  0  0  0  0  0
   60.0580   31.1860   47.4580 N   0  0  0  0  0  0  0  0  0  0  0  0
   59.3790   30.3440   46.4800 C   0  0  0  0  0  0  0  0  0  0  0  0
   59.3240   28.9240   46.6470 C   0  0  0  0  0  0  0  0  0  0  0  0
   58.5580   28.1670   45.7100 C   0  0  0  0  0  0  0  0  0  0  0  0
   58.1680   28.7450   44.5210 N   0  0  0  0  0  0  0  0  0  0  0  0
   57.7970   27.8800   43.3780 C   0  0  0  0  0  0  0  0  0  0  0  0
   58.1310   30.1130   44.3850 C   0  0  0  0  0  0  0  0  0  0  0  0
   57.4900   30.7230   43.2730 C   0  0  0  0  0  0  0  0  0  0  0  0
   57.4240   32.1070   43.1510 C   0  0  0  0  0  0  0  0  0  0  0  0
   57.9760   32.9180   44.1310 C   0  0  0  0  0  0  0  0  0  0  0  0
   58.6060   32.3500   45.2360 C   0  0  0  0  0  0  0  0  0  0  0  0
   58.7040   30.9420   45.3810 C   0  0  0  0  0  0  0  0  0  0  0  0
   58.0350   26.8020   46.0290 C   0  0  0  0  0  0  0  0  0  0  0  0
   56.6550   26.5560   45.9110 C   0  0  0  0  0  0  0  0  0  0  0  0
   56.1510   25.2640   46.0600 C   0  0  0  0  0  0  0  0  0  0  0  0
   57.0280   24.2190   46.3370 C   0  0  0  0  0  0  0  0  0  0  0  0
   58.3530   24.4700   46.4900 N   0  0  0  0  0  0  0  0  0  0  0  0
   58.8760   25.7190   46.3330 C   0  0  0  0  0  0  0  0  0  0  0  0
   60.2860   25.9670   46.7300 C   0  0  0  0  0  0  0  0  0  0  0  0
   60.2460   26.7960   48.0080 C   0  0  0  0  0  0  0  0  0  0  0  0
   60.2020   28.3080   47.7530 C   0  0  0  0  0  0  0  0  0  0  0  0
   60.7578   35.9025   46.5459 H   0  0  0  0  0  0  0  0  0  0  0  0
   60.3343   34.3835   45.6858 H   0  0  0  0  0  0  0  0  0  0  0  0
   59.1868   35.7655   45.6858 H   0  0  0  0  0  0  0  0  0  0  0  0
   59.1174   35.5216   48.2453 H   0  0  0  0  0  0  0  0  0  0  0  0
   58.3482   34.1869   47.2510 H   0  0  0  0  0  0  0  0  0  0  0  0
   61.2291   35.3055   48.9285 H   0  0  0  0  0  0  0  0  0  0  0  0
   61.3752   33.8130   49.9309 H   0  0  0  0  0  0  0  0  0  0  0  0
   63.3511   33.5375   48.8314 H   0  0  0  0  0  0  0  0  0  0  0  0
   62.3168   32.9307   47.4939 H   0  0  0  0  0  0  0  0  0  0  0  0
   62.8750   34.6380   47.4939 H   0  0  0  0  0  0  0  0  0  0  0  0
   59.7446   32.8073   50.1770 H   0  0  0  0  0  0  0  0  0  0  0  0
   58.2609   33.2115   49.2334 H   0  0  0  0  0  0  0  0  0  0  0  0
   59.5653   30.6818   49.4431 H   0  0  0  0  0  0  0  0  0  0  0  0
   58.1739   31.1453   48.3798 H   0  0  0  0  0  0  0  0  0  0  0  0
   60.3090   32.1040   47.0320 H   0  0  0  0  0  0  0  0  0  0  0  0
   60.9810   30.7990   47.7470 H   0  0  0  0  0  0  0  0  0  0  0  0
   57.3896   26.9300   43.7542 H   0  0  0  0  0  0  0  0  0  0  0  0
   57.0375   28.3877   42.7653 H   0  0  0  0  0  0  0  0  0  0  0  0
   58.6883   27.6797   42.7653 H   0  0  0  0  0  0  0  0  0  0  0  0
   57.0382   30.0897   42.4953 H   0  0  0  0  0  0  0  0  0  0  0  0
   56.9334   32.5587   42.2762 H   0  0  0  0  0  0  0  0  0  0  0  0
   57.9163   34.0122   44.0356 H   0  0  0  0  0  0  0  0  0  0  0  0
   59.0348   33.0043   46.0093 H   0  0  0  0  0  0  0  0  0  0  0  0
   55.9682   27.3888   45.6996 H   0  0  0  0  0  0  0  0  0  0  0  0
   55.0724   25.0729   45.9597 H   0  0  0  0  0  0  0  0  0  0  0  0
   56.6476   23.1912   46.4318 H   0  0  0  0  0  0  0  0  0  0  0  0
   60.8008   25.0125   46.9141 H   0  0  0  0  0  0  0  0  0  0  0  0
   60.8322   26.4952   45.9346 H   0  0  0  0  0  0  0  0  0  0  0  0
   59.3497   26.5127   48.5794 H   0  0  0  0  0  0  0  0  0  0  0  0
   61.1745   26.5869   48.5596 H   0  0  0  0  0  0  0  0  0  0  0  0
   59.8775   28.7702   48.6970 H   0  0  0  0  0  0  0  0  0  0  0  0
   61.2174   28.5092   47.3808 H   0  0  0  0  0  0  0  0  0  0  0  0
  1  2  1  0
  2  3  1  0
  3  4  1  0
  4  5  1  0
  3  6  1  0
  6  7  1  0
  7  8  1  0
  8  9  1  0
  9 10  2  0
 10 11  1  0
 11 12  2  0
 12 13  1  0
 12 14  1  0
 14 15  2  0
 15 16  1  0
 16 17  2  0
 17 18  1  0
 18 19  2  0
 11 20  1  0
 20 21  2  0
 21 22  1  0
 22 23  2  0
 23 24  1  0
 24 25  2  0
 25 26  1  0
 26 27  1  0
 27 28  1  0
 19  9  1  0
 25 20  1  0
 28 10  1  0
 19 14  1  0
  1 29  1  0
  1 30  1  0
  1 31  1  0
  2 32  1  0
  2 33  1  0
  4 34  1  0
  4 35  1  0
  5 36  1  0
  5 37  1  0
  5 38  1  0
  6 39  1  0
  6 40  1  0
  7 41  1  0
  7 42  1  0
  8 43  1  0
  8 44  1  0
 13 45  1  0
 13 46  1  0
 13 47  1  0
 15 48  1  0
 16 49  1  0
 17 50  1  0
 18 51  1  0
 21 52  1  0
 22 53  1  0
 23 54  1  0
 26 55  1  0
 26 56  1  0
 27 57  1  0
 27 58  1  0
 28 59  1  0
 28 60  1  0
M  CHG  2   8   1  12   1
M  END
>  <UniqueID>  (20) 
19

>  <SMILES>  (20) 
CCN(CC)CC[NH2+]c1c2c([n+](C)c3ccccc13)-c1cccnc1CCC2

>  <Energy>  (20) 
109.16638444391228

>  <Genealogy>  (20) 
CCN(CC)CC[NH2+]c1c2c([n+](C)c3ccccc13)-c1cccnc1CCC2 (protonated)
CCN(CC)CC[NH2+]c1c2c([n+](C)c3ccccc13)-c1cccnc1CCC2 (3D coordinates assigned)
CCN(CC)CC[NH2+]c1c2c([n+](C)c3ccccc13)-c1cccnc1CCC2 (nonaromatic ring conformer: 109.16638444391228 kcal/mol)

>  <smiles>  (20) 
CCN(CC)CCNc1c2c([n+](C)c3ccccc13)-c1cccnc1CCC2

>  <score_type>  (20) 
oracle

>  <origin>  (20) 
adg

>  <m_score__min__energy>  (20) 
-3.3700000000000001

>  <m_primary>  (20) 
energy

$$$$
20:0
     RDKit          3D

 51 54  0  0  0  0  0  0  0  0999 V2000
   64.2750   31.9790   49.3790 C   0  0  0  0  0  0  0  0  0  0  0  0
   63.0060   32.5040   48.7730 C   0  0  0  0  0  0  0  0  0  0  0  0
   62.6270   33.8490   48.9920 C   0  0  0  0  0  0  0  0  0  0  0  0
   61.4390   34.3520   48.4420 C   0  0  0  0  0  0  0  0  0  0  0  0
   60.6360   33.4870   47.7020 C   0  0  0  0  0  0  0  0  0  0  0  0
   59.4930   33.8100   47.0720 N   0  0  0  0  0  0  0  0  0  0  0  0
   59.0820   32.6690   46.4670 C   0  0  0  0  0  0  0  0  0  0  0  0
   59.9570   31.6230   46.7110 C   0  0  0  0  0  0  0  0  0  0  0  0
   59.7220   30.3420   46.1780 C   0  0  0  0  0  0  0  0  0  0  0  0
   60.5340   29.2090   46.5680 N   0  0  0  0  0  0  0  0  0  0  0  0
   60.2810   28.8460   47.9750 C   0  0  0  0  0  0  0  0  0  0  0  0
   59.3630   27.5990   48.1010 C   0  0  0  0  0  0  0  0  0  0  0  0
   59.0340   26.9270   46.8230 N   0  0  0  0  0  0  0  0  0  0  0  0
   57.6770   26.3560   46.7990 C   0  0  0  0  0  0  0  0  0  0  0  0
   60.0400   25.9410   46.4070 C   0  0  0  0  0  0  0  0  0  0  0  0
   58.6470   30.2200   45.2460 C   0  0  0  0  0  0  0  0  0  0  0  0
   58.4220   29.0190   44.5330 C   0  0  0  0  0  0  0  0  0  0  0  0
   57.3880   28.9190   43.6050 C   0  0  0  0  0  0  0  0  0  0  0  0
   56.5650   30.0060   43.3510 C   0  0  0  0  0  0  0  0  0  0  0  0
   56.7600   31.2060   44.0300 C   0  0  0  0  0  0  0  0  0  0  0  0
   57.7840   31.3420   45.0010 C   0  0  0  0  0  0  0  0  0  0  0  0
   57.9660   32.5310   45.6870 N   0  0  0  0  0  0  0  0  0  0  0  0
   57.0080   33.6470   45.5680 C   0  0  0  0  0  0  0  0  0  0  0  0
   60.9690   32.1610   47.5100 C   0  0  0  0  0  0  0  0  0  0  0  0
   62.1680   31.6470   48.0280 C   0  0  0  0  0  0  0  0  0  0  0  0
   64.1981   32.0108   50.4758 H   0  0  0  0  0  0  0  0  0  0  0  0
   64.4351   30.9408   49.0526 H   0  0  0  0  0  0  0  0  0  0  0  0
   65.1218   32.6007   49.0526 H   0  0  0  0  0  0  0  0  0  0  0  0
   63.2688   34.5053   49.5982 H   0  0  0  0  0  0  0  0  0  0  0  0
   61.1487   35.4025   48.5911 H   0  0  0  0  0  0  0  0  0  0  0  0
   59.0700   34.7620   47.0350 H   0  0  0  0  0  0  0  0  0  0  0  0
   61.5450   29.4120   46.4180 H   0  0  0  0  0  0  0  0  0  0  0  0
   60.3430   28.4120   45.9240 H   0  0  0  0  0  0  0  0  0  0  0  0
   61.2424   28.6295   48.4638 H   0  0  0  0  0  0  0  0  0  0  0  0
   59.7700   29.6927   48.4566 H   0  0  0  0  0  0  0  0  0  0  0  0
   59.8685   26.8683   48.7495 H   0  0  0  0  0  0  0  0  0  0  0  0
   58.4085   27.9624   48.5096 H   0  0  0  0  0  0  0  0  0  0  0  0
   57.3235   26.2073   47.8300 H   0  0  0  0  0  0  0  0  0  0  0  0
   56.9985   27.0449   46.2745 H   0  0  0  0  0  0  0  0  0  0  0  0
   57.6952   25.3892   46.2745 H   0  0  0  0  0  0  0  0  0  0  0  0
   60.5009   25.4892   47.2978 H   0  0  0  0  0  0  0  0  0  0  0  0
   59.5576   25.1562   45.8058 H   0  0  0  0  0  0  0  0  0  0  0  0
   60.8149   26.4391   45.8058 H   0  0  0  0  0  0  0  0  0  0  0  0
   59.0733   28.1512   44.7141 H   0  0  0  0  0  0  0  0  0  0  0  0
   57.2232   27.9719   43.0703 H   0  0  0  0  0  0  0  0  0  0  0  0
   55.7557   29.9200   42.6109 H   0  0  0  0  0  0  0  0  0  0  0  0
   56.1078   32.0638   43.8090 H   0  0  0  0  0  0  0  0  0  0  0  0
   56.7155   33.9878   46.5721 H   0  0  0  0  0  0  0  0  0  0  0  0
   57.4787   34.4776   45.0216 H   0  0  0  0  0  0  0  0  0  0  0  0
   56.1157   33.3076   45.0216 H   0  0  0  0  0  0  0  0  0  0  0  0
   62.4488   30.5973   47.8567 H   0  0  0  0  0  0  0  0  0  0  0  0
  1  2  1  0
  2  3  2  0
  3  4  1  0
  4  5  2  0
  5  6  1  0
  6  7  1  0
  7  8  2  0
  8  9  1  0
  9 10  1  0
 10 11  1  0
 11 12  1  0
 12 13  1  0
 13 14  1  0
 13 15  1  0
  9 16  2  0
 16 17  1  0
 17 18  2  0
 18 19  1  0
 19 20  2  0
 20 21  1  0
 21 22  2  0
 22 23  1  0
  8 24  1  0
 24 25  2  0
 25  2  1  0
 24  5  1  0
 22  7  1  0
 21 16  1  0
  1 26  1  0
  1 27  1  0
  1 28  1  0
  3 29  1  0
  4 30  1  0
  6 31  1  0
 10 32  1  0
 10 33  1  0
 11 34  1  0
 11 35  1  0
 12 36  1  0
 12 37  1  0
 14 38  1  0
 14 39  1  0
 14 40  1  0
 15 41  1  0
 15 42  1  0
 15 43  1  0
 17 44  1  0
 18 45  1  0
 19 46  1  0
 20 47  1  0
 23 48  1  0
 23 49  1  0
 23 50  1  0
 25 51  1  0
M  CHG  2  10   1  22   1
M  END
>  <UniqueID>  (21) 
20

>  <SMILES>  (21) 
Cc1ccc2[nH]c3c(c([NH2+]CCN(C)C)c4ccccc4[n+]3C)c2c1

>  <Energy>  (21) 
115.87845899430468

>  <Genealogy>  (21) 
Cc1ccc2[nH]c3c(c([NH2+]CCN(C)C)c4ccccc4[n+]3C)c2c1 (protonated)
Cc1ccc2[nH]c3c(c([NH2+]CCN(C)C)c4ccccc4[n+]3C)c2c1 (3D coordinates assigned)
Cc1ccc2[nH]c3c(c([NH2+]CCN(C)C)c4ccccc4[n+]3C)c2c1 (optimized conformer: 115.87845899430468 kcal/mol)

>  <smiles>  (21) 
Cc1ccc2[nH]c3c(c(NCCN(C)C)c4ccccc4[n+]3C)c2c1

>  <score_type>  (21) 
oracle

>  <origin>  (21) 
adg

>  <m_score__min__energy>  (21) 
-4.5199999999999996

>  <m_primary>  (21) 
energy

$$$$
21:0
     RDKit          3D

 32 33  0  0  0  0  0  0  0  0999 V2000
   64.4820   32.9210   49.3130 C   0  0  0  0  0  0  0  0  0  0  0  0
   63.5130   32.0930   48.4640 C   0  0  0  0  0  0  0  0  0  0  0  0
   63.5390   32.4860   47.0440 N   0  0  0  0  0  0  0  0  0  0  0  0
   62.6820   33.6480   46.7610 C   0  0  0  0  0  0  0  0  0  0  0  0
   61.3530   33.5410   47.5150 C   0  0  0  0  0  0  0  0  0  0  0  0
   60.2230   33.7430   46.6060 N   0  0  0  0  0  0  0  0  0  0  0  0
   59.8760   34.9190   46.0290 C   0  0  0  0  0  0  0  0  0  0  0  0
   58.7980   34.7440   45.1700 C   0  0  0  0  0  0  0  0  0  0  0  0
   58.4970   33.4000   45.2340 C   0  0  0  0  0  0  0  0  0  0  0  0
   57.5190   32.6650   44.5680 C   0  0  0  0  0  0  0  0  0  0  0  0
   57.4420   31.2740   44.8130 C   0  0  0  0  0  0  0  0  0  0  0  0
   56.4490   30.4710   44.1510 N   0  0  0  0  0  0  0  0  0  0  0  0
   56.4160   30.4010   42.9050 O   0  0  0  0  0  0  0  0  0  0  0  0
   55.5190   29.7660   44.8800 O   0  0  0  0  0  0  0  0  0  0  0  0
   58.3570   30.6760   45.7200 C   0  0  0  0  0  0  0  0  0  0  0  0
   59.3340   31.4470   46.3750 C   0  0  0  0  0  0  0  0  0  0  0  0
   59.3770   32.8170   46.1090 C   0  0  0  0  0  0  0  0  0  0  0  0
   64.2769   32.7457   50.3794 H   0  0  0  0  0  0  0  0  0  0  0  0
   65.5160   32.6232   49.0847 H   0  0  0  0  0  0  0  0  0  0  0  0
   64.3491   33.9888   49.0847 H   0  0  0  0  0  0  0  0  0  0  0  0
   63.7915   31.0318   48.5427 H   0  0  0  0  0  0  0  0  0  0  0  0
   62.4961   32.2702   48.8441 H   0  0  0  0  0  0  0  0  0  0  0  0
   64.5220   32.7030   46.7560 H   0  0  0  0  0  0  0  0  0  0  0  0
   63.2022   34.5647   47.0756 H   0  0  0  0  0  0  0  0  0  0  0  0
   62.4732   33.6772   45.6814 H   0  0  0  0  0  0  0  0  0  0  0  0
   61.2758   32.5426   47.9703 H   0  0  0  0  0  0  0  0  0  0  0  0
   61.3244   34.3189   48.2922 H   0  0  0  0  0  0  0  0  0  0  0  0
   60.3785   35.8797   46.2150 H   0  0  0  0  0  0  0  0  0  0  0  0
   58.2927   35.5133   44.5676 H   0  0  0  0  0  0  0  0  0  0  0  0
   56.8242   33.1539   43.8693 H   0  0  0  0  0  0  0  0  0  0  0  0
   58.3007   29.5945   45.9129 H   0  0  0  0  0  0  0  0  0  0  0  0
   60.0437   30.9841   47.0765 H   0  0  0  0  0  0  0  0  0  0  0  0
  1  2  1  0
  2  3  1  0
  3  4  1  0
  4  5  1  0
  5  6  1  0
  6  7  1  0
  7  8  2  0
  8  9  1  0
  9 10  2  0
 10 11  1  0
 11 12  1  0
 12 13  2  0
 12 14  1  0
 11 15  2  0
 15 16  1  0
 16 17  2  0
 17  6  1  0
 17  9  1  0
  1 18  1  0
  1 19  1  0
  1 20  1  0
  2 21  1  0
  2 22  1  0
  3 23  1  0
  4 24  1  0
  4 25  1  0
  5 26  1  0
  5 27  1  0
  7 28  1  0
  8 29  1  0
 10 30  1  0
 15 31  1  0
 16 32  1  0
M  CHG  2  12   1  14  -1
M  END
>  <UniqueID>  (22) 
21

>  <SMILES>  (22) 
CCNCCn1ccc2cc([N+](=O)[O-])ccc21

>  <Energy>  (22) 
62.30616577857211

>  <Genealogy>  (22) 
CCNCCn1ccc2cc([N+](=O)[O-])ccc21 (3D coordinates assigned)
CCNCCn1ccc2cc([N+](=O)[O-])ccc21 (optimized conformer: 62.30616577857211 kcal/mol)

>  <smiles>  (22) 
CCNCCn1ccc2cc([N+](=O)[O-])ccc21

>  <score_type>  (22) 
oracle

>  <origin>  (22) 
adg

>  <m_score__min__energy>  (22) 
-6.8499999999999996

>  <m_primary>  (22) 
energy

$$$$
22:0
     RDKit          3D

 47 49  0  0  0  0  0  0  0  0999 V2000
   56.5840   30.0060   44.2590 C   0  0  0  0  0  0  0  0  0  0  0  0
   57.0290   30.1620   45.6020 O   0  0  0  0  0  0  0  0  0  0  0  0
   58.2500   30.7460   45.9730 C   0  0  0  0  0  0  0  0  0  0  0  0
   59.3850   29.9730   46.2770 C   0  0  0  0  0  0  0  0  0  0  0  0
   60.5830   30.5900   46.6420 C   0  0  0  0  0  0  0  0  0  0  0  0
   60.6750   31.9890   46.7150 C   0  0  0  0  0  0  0  0  0  0  0  0
   61.9610   32.6200   47.1060 C   0  0  0  0  0  0  0  0  0  0  0  0
   62.6580   32.2690   48.2100 N   0  0  0  0  0  0  0  0  0  0  0  0
   63.7190   33.1000   48.1450 C   0  0  0  0  0  0  0  0  0  0  0  0
   64.8120   33.1420   49.1650 C   0  0  0  0  0  0  0  0  0  0  0  0
   64.2990   32.7320   50.4900 N   0  0  0  0  0  0  0  0  0  0  0  0
   64.4590   31.2770   50.7200 C   0  0  0  0  0  0  0  0  0  0  0  0
   65.8130   30.8680   51.3310 C   0  0  0  0  0  0  0  0  0  0  0  0
   67.0280   31.6720   50.8430 C   0  0  0  0  0  0  0  0  0  0  0  0
   67.2940   32.9670   51.6290 C   0  0  0  0  0  0  0  0  0  0  0  0
   66.2370   34.0890   51.4620 C   0  0  0  0  0  0  0  0  0  0  0  0
   64.7660   33.6390   51.5740 C   0  0  0  0  0  0  0  0  0  0  0  0
   63.6580   33.8850   47.0970 O   0  0  0  0  0  0  0  0  0  0  0  0
   62.5810   33.6100   46.4310 N   0  0  0  0  0  0  0  0  0  0  0  0
   59.5410   32.7610   46.4080 C   0  0  0  0  0  0  0  0  0  0  0  0
   58.3280   32.1460   46.0380 C   0  0  0  0  0  0  0  0  0  0  0  0
   57.1780   32.8900   45.7260 O   0  0  0  0  0  0  0  0  0  0  0  0
   57.1890   34.2110   45.1950 C   0  0  0  0  0  0  0  0  0  0  0  0
   55.5459   29.6421   44.2566 H   0  0  0  0  0  0  0  0  0  0  0  0
   56.6340   30.9752   43.7412 H   0  0  0  0  0  0  0  0  0  0  0  0
   57.2282   29.2801   43.7412 H   0  0  0  0  0  0  0  0  0  0  0  0
   59.3284   28.8756   46.2269 H   0  0  0  0  0  0  0  0  0  0  0  0
   61.4639   29.9737   46.8748 H   0  0  0  0  0  0  0  0  0  0  0  0
   65.6176   32.4575   48.8609 H   0  0  0  0  0  0  0  0  0  0  0  0
   65.1950   34.1708   49.2343 H   0  0  0  0  0  0  0  0  0  0  0  0
   63.6615   30.9480   51.4025 H   0  0  0  0  0  0  0  0  0  0  0  0
   64.4064   30.7980   49.7312 H   0  0  0  0  0  0  0  0  0  0  0  0
   65.7428   30.9885   52.4221 H   0  0  0  0  0  0  0  0  0  0  0  0
   65.9884   29.8305   51.0102 H   0  0  0  0  0  0  0  0  0  0  0  0
   67.9187   31.0317   50.9244 H   0  0  0  0  0  0  0  0  0  0  0  0
   66.8080   31.9739   49.8084 H   0  0  0  0  0  0  0  0  0  0  0  0
   67.3456   32.7086   52.6970 H   0  0  0  0  0  0  0  0  0  0  0  0
   68.2300   33.3763   51.2210 H   0  0  0  0  0  0  0  0  0  0  0  0
   66.4200   34.8452   52.2396 H   0  0  0  0  0  0  0  0  0  0  0  0
   66.3591   34.4680   50.4366 H   0  0  0  0  0  0  0  0  0  0  0  0
   64.6419   33.1155   52.5335 H   0  0  0  0  0  0  0  0  0  0  0  0
   64.1590   34.5527   51.4918 H   0  0  0  0  0  0  0  0  0  0  0  0
   62.2870   34.0940   45.5560 H   0  0  0  0  0  0  0  0  0  0  0  0
   59.6011   33.8583   46.4571 H   0  0  0  0  0  0  0  0  0  0  0  0
   57.1951   34.9380   46.0205 H   0  0  0  0  0  0  0  0  0  0  0  0
   58.0883   34.3503   44.5771 H   0  0  0  0  0  0  0  0  0  0  0  0
   56.2921   34.3653   44.5771 H   0  0  0  0  0  0  0  0  0  0  0  0
  1  2  1  0
  2  3  1  0
  3  4  2  0
  4  5  1  0
  5  6  2  0
  6  7  1  0
  7  8  1  0
  8  9  2  0
  9 10  1  0
 10 11  1  0
 11 12  1  0
 12 13  1  0
 13 14  1  0
 14 15  1  0
 15 16  1  0
 16 17  1  0
  9 18  1  0
 18 19  1  0
  6 20  1  0
 20 21  2  0
 21 22  1  0
 22 23  1  0
 21  3  1  0
 19  7  2  0
 17 11  1  0
  1 24  1  0
  1 25  1  0
  1 26  1  0
  4 27  1  0
  5 28  1  0
 10 29  1  0
 10 30  1  0
 12 31  1  0
 12 32  1  0
 13 33  1  0
 13 34  1  0
 14 35  1  0
 14 36  1  0
 15 37  1  0
 15 38  1  0
 16 39  1  0
 16 40  1  0
 17 41  1  0
 17 42  1  0
 19 43  1  0
 20 44  1  0
 23 45  1  0
 23 46  1  0
 23 47  1  0
M  CHG  1  19   1
M  END
>  <UniqueID>  (23) 
22

>  <SMILES>  (23) 
COc1ccc(-c2nc(CN3CCCCCC3)o[nH+]2)cc1OC

>  <Energy>  (23) 
96.07786012369472

>  <Genealogy>  (23) 
COc1ccc(-c2nc(CN3CCCCCC3)o[nH+]2)cc1OC (protonated)
COc1ccc(-c2nc(CN3CCCCCC3)o[nH+]2)cc1OC (3D coordinates assigned)
COc1ccc(-c2nc(CN3CCCCCC3)o[nH+]2)cc1OC (nonaromatic ring conformer: 96.07786012369472 kcal/mol)

>  <smiles>  (23) 
COc1ccc(-c2noc(CN3CCCCCC3)n2)cc1OC

>  <score_type>  (23) 
oracle

>  <origin>  (23) 
adg

>  <m_score__min__energy>  (23) 
-3.7400000000000002

>  <m_primary>  (23) 
energy

$$$$
23:0
     RDKit          3D

 55 57  0  0  0  0  0  0  0  0999 V2000
   63.3490   34.1390   46.3640 C   0  0  0  0  0  0  0  0  0  0  0  0
   63.7750   33.8070   47.7970 C   0  0  0  0  0  0  0  0  0  0  0  0
   63.6960   32.3600   48.0790 N   0  0  0  0  0  0  0  0  0  0  0  0
   64.2330   31.9990   49.4110 C   0  0  0  0  0  0  0  0  0  0  0  0
   63.1970   31.2820   50.2880 C   0  0  0  0  0  0  0  0  0  0  0  0
   61.9640   31.2000   49.6050 O   0  0  0  0  0  0  0  0  0  0  0  0
   61.3700   29.9440   49.8520 C   0  0  0  0  0  0  0  0  0  0  0  0
   60.4740   29.5790   48.6710 C   0  0  0  0  0  0  0  0  0  0  0  0
   60.7360   30.4510   47.5250 N   0  0  0  0  0  0  0  0  0  0  0  0
   59.7290   30.7040   46.5310 C   0  0  0  0  0  0  0  0  0  0  0  0
   59.0560   29.6220   45.9380 C   0  0  0  0  0  0  0  0  0  0  0  0
   59.2220   28.3090   46.4310 C   0  0  0  0  0  0  0  0  0  0  0  0
   58.5270   27.2430   45.8660 C   0  0  0  0  0  0  0  0  0  0  0  0
   57.6440   27.4660   44.8170 C   0  0  0  0  0  0  0  0  0  0  0  0
   57.4640   28.7540   44.3140 C   0  0  0  0  0  0  0  0  0  0  0  0
   58.1850   29.8550   44.8450 C   0  0  0  0  0  0  0  0  0  0  0  0
   58.0460   31.1290   44.3340 N   0  0  0  0  0  0  0  0  0  0  0  0
   57.4060   31.3270   43.0130 C   0  0  0  0  0  0  0  0  0  0  0  0
   58.5150   32.2160   45.0470 C   0  0  0  0  0  0  0  0  0  0  0  0
   58.1320   33.5360   44.7060 C   0  0  0  0  0  0  0  0  0  0  0  0
   58.6410   34.6320   45.3880 C   0  0  0  0  0  0  0  0  0  0  0  0
   59.5200   34.4540   46.4450 C   0  0  0  0  0  0  0  0  0  0  0  0
   59.8930   33.1640   46.8590 C   0  0  0  0  0  0  0  0  0  0  0  0
   60.7360   32.9950   47.9710 O   0  0  0  0  0  0  0  0  0  0  0  0
   60.6690   33.7510   49.1760 C   0  0  0  0  0  0  0  0  0  0  0  0
   59.3910   32.0270   46.1580 C   0  0  0  0  0  0  0  0  0  0  0  0
   62.4816   34.8150   46.3867 H   0  0  0  0  0  0  0  0  0  0  0  0
   64.1818   34.6286   45.8380 H   0  0  0  0  0  0  0  0  0  0  0  0
   63.0776   33.2118   45.8380 H   0  0  0  0  0  0  0  0  0  0  0  0
   64.8126   34.1410   47.9449 H   0  0  0  0  0  0  0  0  0  0  0  0
   63.0876   34.3237   48.4829 H   0  0  0  0  0  0  0  0  0  0  0  0
   64.2230   31.8330   47.3440 H   0  0  0  0  0  0  0  0  0  0  0  0
   62.6960   32.0580   47.9980 H   0  0  0  0  0  0  0  0  0  0  0  0
   65.0992   31.3350   49.2740 H   0  0  0  0  0  0  0  0  0  0  0  0
   64.5150   32.9316   49.9216 H   0  0  0  0  0  0  0  0  0  0  0  0
   63.5542   30.2676   50.5191 H   0  0  0  0  0  0  0  0  0  0  0  0
   63.0576   31.8484   51.2206 H   0  0  0  0  0  0  0  0  0  0  0  0
   62.1541   29.1816   49.9699 H   0  0  0  0  0  0  0  0  0  0  0  0
   60.7711   29.9901   50.7735 H   0  0  0  0  0  0  0  0  0  0  0  0
   60.6681   28.5358   48.3811 H   0  0  0  0  0  0  0  0  0  0  0  0
   59.4244   29.7055   48.9750 H   0  0  0  0  0  0  0  0  0  0  0  0
   61.6210   31.0050   47.4970 H   0  0  0  0  0  0  0  0  0  0  0  0
   59.9083   28.1264   47.2710 H   0  0  0  0  0  0  0  0  0  0  0  0
   58.6772   26.2234   46.2506 H   0  0  0  0  0  0  0  0  0  0  0  0
   57.0853   26.6242   44.3820 H   0  0  0  0  0  0  0  0  0  0  0  0
   56.7516   28.9193   43.4923 H   0  0  0  0  0  0  0  0  0  0  0  0
   56.3639   31.6494   43.1551 H   0  0  0  0  0  0  0  0  0  0  0  0
   57.9548   32.0974   42.4514 H   0  0  0  0  0  0  0  0  0  0  0  0
   57.4239   30.3813   42.4514 H   0  0  0  0  0  0  0  0  0  0  0  0
   57.4175   33.6955   43.8850 H   0  0  0  0  0  0  0  0  0  0  0  0
   58.3452   35.6482   45.0881 H   0  0  0  0  0  0  0  0  0  0  0  0
   59.9300   35.3321   46.9654 H   0  0  0  0  0  0  0  0  0  0  0  0
   60.7292   33.0715   50.0390 H   0  0  0  0  0  0  0  0  0  0  0  0
   61.5077   34.4620   49.2099 H   0  0  0  0  0  0  0  0  0  0  0  0
   59.7184   34.3034   49.2099 H   0  0  0  0  0  0  0  0  0  0  0  0
  1  2  1  0
  2  3  1  0
  3  4  1  0
  4  5  1  0
  5  6  1  0
  6  7  1  0
  7  8  1  0
  8  9  1  0
  9 10  1  0
 10 11  2  0
 11 12  1  0
 12 13  2  0
 13 14  1  0
 14 15  2  0
 15 16  1  0
 16 17  2  0
 17 18  1  0
 17 19  1  0
 19 20  2  0
 20 21  1  0
 21 22  2  0
 22 23  1  0
 23 24  1  0
 24 25  1  0
 23 26  2  0
 26 10  1  0
 16 11  1  0
 26 19  1  0
  1 27  1  0
  1 28  1  0
  1 29  1  0
  2 30  1  0
  2 31  1  0
  3 32  1  0
  3 33  1  0
  4 34  1  0
  4 35  1  0
  5 36  1  0
  5 37  1  0
  7 38  1  0
  7 39  1  0
  8 40  1  0
  8 41  1  0
  9 42  1  0
 12 43  1  0
 13 44  1  0
 14 45  1  0
 15 46  1  0
 18 47  1  0
 18 48  1  0
 18 49  1  0
 20 50  1  0
 21 51  1  0
 22 52  1  0
 25 53  1  0
 25 54  1  0
 25 55  1  0
M  CHG  2   3   1  17   1
M  END
>  <UniqueID>  (24) 
23

>  <SMILES>  (24) 
CC[NH2+]CCOCCNc1c2ccccc2[n+](C)c2cccc(OC)c12

>  <Energy>  (24) 
82.26001175863136

>  <Genealogy>  (24) 
CC[NH2+]CCOCCNc1c2ccccc2[n+](C)c2cccc(OC)c12 (protonated)
CC[NH2+]CCOCCNc1c2ccccc2[n+](C)c2cccc(OC)c12 (3D coordinates assigned)
CC[NH2+]CCOCCNc1c2ccccc2[n+](C)c2cccc(OC)c12 (optimized conformer: 82.26001175863136 kcal/mol)

>  <smiles>  (24) 
CCNCCOCCNc1c2ccccc2[n+](C)c2cccc(OC)c12

>  <score_type>  (24) 
oracle

>  <origin>  (24) 
adg

>  <m_score__min__energy>  (24) 
-3.2000000000000002

>  <m_primary>  (24) 
energy

$$$$
24:0
     RDKit          3D

 37 39  0  0  0  0  0  0  0  0999 V2000
   57.3790   31.7440   42.0830 C   0  0  0  0  0  0  0  0  0  0  0  0
   57.1030   30.8840   43.3240 C   0  0  0  0  0  0  0  0  0  0  0  0
   56.1960   29.7080   42.9340 C   0  0  0  0  0  0  0  0  0  0  0  0
   58.3600   30.3690   43.9030 N   0  0  0  0  0  0  0  0  0  0  0  0
   58.3140   30.2190   45.3700 C   0  0  0  0  0  0  0  0  0  0  0  0
   59.3100   31.1480   46.0310 C   0  0  0  0  0  0  0  0  0  0  0  0
   60.3070   30.5910   46.8490 C   0  0  0  0  0  0  0  0  0  0  0  0
   61.2370   31.3970   47.5130 C   0  0  0  0  0  0  0  0  0  0  0  0
   62.1850   30.8290   48.3170 N   0  0  0  0  0  0  0  0  0  0  0  0
   63.1020   31.5840   48.9810 C   0  0  0  0  0  0  0  0  0  0  0  0
   63.0940   32.9730   48.8550 C   0  0  0  0  0  0  0  0  0  0  0  0
   62.1400   33.5820   48.0420 C   0  0  0  0  0  0  0  0  0  0  0  0
   61.1930   32.8000   47.3550 C   0  0  0  0  0  0  0  0  0  0  0  0
   60.2180   33.3790   46.5170 C   0  0  0  0  0  0  0  0  0  0  0  0
   60.1780   34.7310   46.3440 N   0  0  0  0  0  0  0  0  0  0  0  0
   59.2690   35.3340   45.5380 C   0  0  0  0  0  0  0  0  0  0  0  0
   58.3370   34.5670   44.8450 C   0  0  0  0  0  0  0  0  0  0  0  0
   58.3400   33.1820   44.9940 C   0  0  0  0  0  0  0  0  0  0  0  0
   59.2770   32.5560   45.8430 C   0  0  0  0  0  0  0  0  0  0  0  0
   57.7012   32.7479   42.3968 H   0  0  0  0  0  0  0  0  0  0  0  0
   58.1720   31.2758   41.4814 H   0  0  0  0  0  0  0  0  0  0  0  0
   56.4616   31.8247   41.4814 H   0  0  0  0  0  0  0  0  0  0  0  0
   56.6062   31.5094   44.0804 H   0  0  0  0  0  0  0  0  0  0  0  0
   55.8185   29.2186   43.8439 H   0  0  0  0  0  0  0  0  0  0  0  0
   55.3487   30.0800   42.3393 H   0  0  0  0  0  0  0  0  0  0  0  0
   56.7710   28.9830   42.3393 H   0  0  0  0  0  0  0  0  0  0  0  0
   58.5330   29.4170   43.5040 H   0  0  0  0  0  0  0  0  0  0  0  0
   57.3019   30.4608   45.7268 H   0  0  0  0  0  0  0  0  0  0  0  0
   58.5704   29.1811   45.6290 H   0  0  0  0  0  0  0  0  0  0  0  0
   60.3571   29.4988   46.9696 H   0  0  0  0  0  0  0  0  0  0  0  0
   62.2210   29.7910   48.4370 H   0  0  0  0  0  0  0  0  0  0  0  0
   63.8530   31.0966   49.6201 H   0  0  0  0  0  0  0  0  0  0  0  0
   63.8347   33.5828   49.3930 H   0  0  0  0  0  0  0  0  0  0  0  0
   62.1272   34.6769   47.9370 H   0  0  0  0  0  0  0  0  0  0  0  0
   59.2684   36.4289   45.4320 H   0  0  0  0  0  0  0  0  0  0  0  0
   57.6030   35.0512   44.1841 H   0  0  0  0  0  0  0  0  0  0  0  0
   57.6067   32.5721   44.4459 H   0  0  0  0  0  0  0  0  0  0  0  0
  1  2  1  0
  2  3  1  0
  2  4  1  0
  4  5  1  0
  5  6  1  0
  6  7  2  0
  7  8  1  0
  8  9  2  0
  9 10  1  0
 10 11  2  0
 11 12  1  0
 12 13  2  0
 13 14  1  0
 14 15  2  0
 15 16  1  0
 16 17  2  0
 17 18  1  0
 18 19  2  0
 19  6  1  0
 13  8  1  0
 19 14  1  0
  1 20  1  0
  1 21  1  0
  1 22  1  0
  2 23  1  0
  3 24  1  0
  3 25  1  0
  3 26  1  0
  4 27  1  0
  5 28  1  0
  5 29  1  0
  7 30  1  0
  9 31  1  0
 10 32  1  0
 11 33  1  0
 12 34  1  0
 16 35  1  0
 17 36  1  0
 18 37  1  0
M  CHG  1   9   1
M  END
>  <UniqueID>  (25) 
24

>  <SMILES>  (25) 
CC(C)NCc1cc2[nH+]cccc2c2ncccc12

>  <Energy>  (25) 
46.89189659446317

>  <Genealogy>  (25) 
CC(C)NCc1cc2[nH+]cccc2c2ncccc12 (protonated)
CC(C)NCc1cc2[nH+]cccc2c2ncccc12 (3D coordinates assigned)
CC(C)NCc1cc2[nH+]cccc2c2ncccc12 (optimized conformer: 46.89189659446317 kcal/mol)

>  <smiles>  (25) 
CC(C)NCc1cc2ncccc2c2ncccc12

>  <score_type>  (25) 
oracle

>  <origin>  (25) 
adg

>  <m_score__min__energy>  (25) 
-5.3200000000000003

>  <m_primary>  (25) 
energy

$$$$
